0
                    3D
 Structure written by MMmdl.
153161  0  0  1  0            999 V2000
  -30.5198  -15.0284   20.4410 C   0  0  0  0  0  0
  -30.4351  -12.6670   19.5183 C   0  0  0  0  0  0
  -29.5223  -12.5704   18.2751 C   0  0  0  0  0  0
  -28.0549  -12.3267   18.6766 C   0  0  0  0  0  0
  -27.6140  -13.2407   19.8416 C   0  0  2  0  0  0
  -28.6526  -13.3095   20.9876 C   0  0  0  0  0  0
  -25.2259  -13.8160   20.5677 C   0  0  0  0  0  0
  -24.1631  -13.0375   20.9286 C   0  0  0  0  0  0
  -24.6320  -11.6922   20.8865 C   0  0  0  0  0  0
  -23.9038  -10.4295   21.0440 C   0  0  0  0  0  0
  -24.3661   -9.4212   21.9189 C   0  0  0  0  0  0
  -23.6365   -8.2232   22.0717 C   0  0  0  0  0  0
  -22.4332   -8.0261   21.3497 C   0  0  0  0  0  0
  -21.9964   -9.0228   20.4606 C   0  0  0  0  0  0
  -22.7265  -10.2122   20.3042 C   0  0  0  0  0  0
  -21.6858   -6.0773   22.5307 C   0  0  0  0  0  0
  -21.4053   -6.5660   23.8264 C   0  0  0  0  0  0
  -21.3689   -5.6779   24.9214 C   0  0  0  0  0  0
  -21.6044   -4.3045   24.7225 C   0  0  0  0  0  0
  -21.8795   -3.8160   23.4328 C   0  0  0  0  0  0
  -21.9191   -4.6999   22.3407 C   0  0  0  0  0  0
  -22.7645  -13.5147   21.1916 C   0  0  0  0  0  0
  -22.1626   -4.2189   21.0982 F   0  0  0  0  0  0
  -21.5618   -3.4526   25.7720 F   0  0  0  0  0  0
  -29.9082  -13.7683   20.3812 N   0  0  0  0  0  0
  -26.2735  -12.9428   20.3285 N   0  0  0  0  0  0
  -25.9256  -11.6573   20.5879 N   0  0  0  0  0  0
  -22.0329  -12.8220   22.0565 N   0  0  0  0  0  0
  -25.3590  -15.1870   20.4038 N   0  0  0  0  0  0
  -31.7353  -15.0287   20.2059 O   0  0  0  0  0  0
  -21.6620   -6.8909   21.4270 O   0  0  0  0  0  0
  -22.3369  -14.5417   20.6681 O   0  0  0  0  0  0
  -24.6417  -31.8430   23.1874 C   0  0  0  0  0  0
  -25.9200  -32.4677   23.8275 C   0  0  1  0  0  0
  -27.2344  -27.1492   20.1478 C   0  0  0  0  0  0
  -25.5967  -33.8482   24.2182 N   0  0  0  0  0  0
  -23.4465  -30.4601   21.5324 C   0  0  2  0  0  0
  -24.8958  -28.8784   20.1226 C   0  0  0  0  0  0
  -22.7555  -29.4533   22.4839 C   0  0  0  0  0  0
  -18.0316  -28.1380   22.8450 C   0  0  0  0  0  0
  -24.1457  -36.7212   23.2638 C   0  0  0  0  0  0
  -26.0035  -30.7192   21.3866 C   0  0  0  0  0  0
  -26.0770  -29.3302   20.7261 C   0  0  0  0  0  0
  -27.2494  -28.4867   20.7145 C   0  0  0  0  0  0
  -26.0242  -26.7893   19.5201 C   0  0  0  0  0  0
  -24.8792  -27.6137   19.5106 C   0  0  0  0  0  0
  -23.6756  -29.7817   20.1550 C   0  0  0  0  0  0
  -25.4085  -36.3017   24.0317 C   0  0  1  0  0  0
  -20.5928  -28.3717   23.1231 C   0  0  2  0  0  0
  -20.6796  -26.9425   22.5409 C   0  0  0  0  0  0
  -19.5778  -26.6354   21.5215 C   0  0  0  0  0  0
  -18.1946  -26.7908   22.1608 C   0  0  0  0  0  0
  -19.1570  -28.8864   23.2820 C   0  0  0  0  0  0
  -18.9480  -30.1447   23.8859 C   0  0  0  0  0  0
  -17.6487  -30.6593   24.0542 C   0  0  0  0  0  0
  -25.9056  -34.9414   23.5046 C   0  0  0  0  0  0
  -16.5371  -29.9085   23.6355 C   0  0  0  0  0  0
  -16.7306  -28.6505   23.0370 C   0  0  0  0  0  0
  -26.4551  -31.6559   25.0725 C   0  0  0  0  0  0
  -25.3758  -31.3821   26.1451 C   0  0  0  0  0  0
  -27.0432  -30.2950   24.6337 C   0  0  0  0  0  0
  -27.6029  -32.4387   25.7515 C   0  0  0  0  0  0
  -27.5543  -37.1760   24.8474 C   0  0  0  0  0  0
  -21.4256  -29.3056   22.3613 N   0  0  0  0  0  0
  -26.4254  -37.3732   23.9423 N   0  0  0  0  0  0
  -24.7166  -31.0272   22.0899 N   0  0  0  0  0  0
  -23.4184  -28.8077   23.2991 O   0  0  0  0  0  0
  -28.3054  -26.1872   20.1397 O   0  0  0  0  0  0
  -26.5623  -34.8944   22.4634 O   0  0  0  0  0  0
  -23.5559  -32.1305   23.7106 O   0  0  0  0  0  0
  -28.0385  -18.1113   20.4317 C   0  0  0  0  0  0
  -28.4163  -16.6216   20.8173 C   0  0  0  0  0  0
  -30.3357  -17.7361   20.1936 C   0  0  0  0  0  0
  -29.3057  -18.9793   20.5462 C   0  0  1  0  0  0
  -29.3359  -20.5187   19.8143 C   0  0  0  0  0  0
  -28.8033  -23.3099   19.8043 C   0  0  0  0  0  0
  -28.1025  -24.6811   20.5096 C   0  0  0  0  0  0
  -29.8202  -16.3004   20.4804 N   0  0  0  0  0  0
  -28.7111  -21.8434   20.4435 N   0  3  0  0  0  0
  -31.4557  -12.8556   19.1822 H   0  0  0  0  0  0
  -30.4796  -11.7229   20.0656 H   0  0  0  0  0  0
  -29.8798  -11.7724   17.6199 H   0  0  0  0  0  0
  -29.5941  -13.4980   17.7028 H   0  0  0  0  0  0
  -27.9486  -11.2826   18.9657 H   0  0  0  0  0  0
  -27.3943  -12.4873   17.8186 H   0  0  0  0  0  0
  -27.5549  -14.2077   19.3542 H   0  0  0  0  0  0
  -28.7747  -12.3334   21.4673 H   0  0  0  0  0  0
  -28.3271  -13.9912   21.7758 H   0  0  0  0  0  0
  -25.2814   -9.5697   22.4786 H   0  0  0  0  0  0
  -24.0071   -7.4616   22.7433 H   0  0  0  0  0  0
  -21.0876   -8.8751   19.8937 H   0  0  0  0  0  0
  -22.3718  -10.9655   19.6133 H   0  0  0  0  0  0
  -21.2078   -7.6168   23.9818 H   0  0  0  0  0  0
  -21.1517   -6.0484   25.9120 H   0  0  0  0  0  0
  -22.0558   -2.7629   23.2806 H   0  0  0  0  0  0
  -22.3982  -11.9970   22.5075 H   0  0  0  0  0  0
  -21.0916  -13.1212   22.2704 H   0  0  0  0  0  0
  -24.5815  -15.8253   20.5335 H   0  0  0  0  0  0
  -26.1858  -15.6466   20.0518 H   0  0  0  0  0  0
  -26.7236  -32.5256   23.0982 H   0  0  0  0  0  0
  -25.0214  -33.9575   25.0396 H   0  0  0  0  0  0
  -22.7499  -31.2839   21.3710 H   0  0  0  0  0  0
  -23.3754  -35.9513   23.3317 H   0  0  0  0  0  0
  -24.3561  -36.8824   22.2057 H   0  0  0  0  0  0
  -23.7184  -37.6391   23.6684 H   0  0  0  0  0  0
  -26.1696  -31.4787   20.6214 H   0  0  0  0  0  0
  -26.8660  -30.7538   22.0419 H   0  0  0  0  0  0
  -28.1517  -28.8395   21.1935 H   0  0  0  0  0  0
  -25.9549  -25.8248   19.0333 H   0  0  0  0  0  0
  -23.9769  -27.2509   19.0327 H   0  0  0  0  0  0
  -23.8257  -30.5533   19.4001 H   0  0  0  0  0  0
  -22.7909  -29.2286   19.8328 H   0  0  0  0  0  0
  -25.1288  -36.1811   25.0807 H   0  0  0  0  0  0
  -20.9974  -28.3296   24.1364 H   0  0  0  0  0  0
  -20.5664  -26.2332   23.3606 H   0  0  0  0  0  0
  -21.6652  -26.7419   22.1203 H   0  0  0  0  0  0
  -19.6932  -25.6250   21.1265 H   0  0  0  0  0  0
  -19.6699  -27.3141   20.6728 H   0  0  0  0  0  0
  -17.4191  -26.6621   21.4027 H   0  0  0  0  0  0
  -18.0377  -26.0057   22.9038 H   0  0  0  0  0  0
  -19.7971  -30.7268   24.2152 H   0  0  0  0  0  0
  -17.5082  -31.6270   24.5158 H   0  0  0  0  0  0
  -15.5378  -30.3004   23.7705 H   0  0  0  0  0  0
  -15.8689  -28.0844   22.7099 H   0  0  0  0  0  0
  -24.5801  -30.7308   25.7841 H   0  0  0  0  0  0
  -24.9128  -32.3057   26.4943 H   0  0  0  0  0  0
  -25.8046  -30.8932   27.0202 H   0  0  0  0  0  0
  -26.3094  -29.6640   24.1304 H   0  0  0  0  0  0
  -27.4011  -29.7291   25.4952 H   0  0  0  0  0  0
  -27.9034  -30.4218   23.9746 H   0  0  0  0  0  0
  -27.2524  -33.3665   26.2077 H   0  0  0  0  0  0
  -28.3845  -32.6979   25.0359 H   0  0  0  0  0  0
  -28.0702  -31.8539   26.5442 H   0  0  0  0  0  0
  -28.2561  -38.0062   24.7524 H   0  0  0  0  0  0
  -28.1027  -36.2583   24.6287 H   0  0  0  0  0  0
  -27.2279  -37.1401   25.8889 H   0  0  0  0  0  0
  -20.9439  -29.8799   21.6833 H   0  0  0  0  0  0
  -26.0101  -38.2782   24.1495 H   0  0  0  0  0  0
  -27.2193  -18.4972   21.0480 H   0  0  0  0  0  0
  -27.6806  -18.1363   19.3973 H   0  0  0  0  0  0
  -27.7477  -15.9693   20.2891 H   0  0  0  0  0  0
  -28.2669  -16.4596   21.8863 H   0  0  0  0  0  0
  -31.2696  -17.8918   20.7321 H   0  0  0  0  0  0
  -30.5854  -17.7603   19.1305 H   0  0  0  0  0  0
  -29.4318  -19.1795   21.6128 H   0  0  0  0  0  0
  -28.9347  -20.4206   18.8012 H   0  0  0  0  0  0
  -30.3929  -20.7302   19.6537 H   0  0  0  0  0  0
  -29.8643  -23.5204   19.6666 H   0  0  0  0  0  0
  -28.4058  -23.2580   18.7889 H   0  0  0  0  0  0
  -28.4120  -24.6511   21.5562 H   0  0  0  0  0  0
  -27.0266  -24.4983   20.5595 H   0  0  0  0  0  0
  -29.1088  -21.9156   21.3661 H   0  0  0  0  0  0
  -27.7317  -21.6536   20.5787 H   0  0  0  0  0  0
  1 25  1  0  0  0
  1 30  2  0  0  0
  1 78  1  0  0  0
  2  3  1  0  0  0
  2 25  1  0  0  0
  2 80  1  0  0  0
  2 81  1  0  0  0
  3  4  1  0  0  0
  3 82  1  0  0  0
  3 83  1  0  0  0
  4  5  1  0  0  0
  4 84  1  0  0  0
  4 85  1  0  0  0
  5  6  1  0  0  0
  5 26  1  0  0  0
  5 86  1  0  0  0
  6 25  1  0  0  0
  6 87  1  0  0  0
  6 88  1  0  0  0
  7  8  2  0  0  0
  7 26  1  0  0  0
  7 29  1  0  0  0
  8  9  1  0  0  0
  8 22  1  0  0  0
  9 10  1  0  0  0
  9 27  2  0  0  0
 10 11  2  0  0  0
 10 15  1  0  0  0
 11 12  1  0  0  0
 11 89  1  0  0  0
 12 13  2  0  0  0
 12 90  1  0  0  0
 13 14  1  0  0  0
 13 31  1  0  0  0
 14 15  2  0  0  0
 14 91  1  0  0  0
 15 92  1  0  0  0
 16 17  2  0  0  0
 16 21  1  0  0  0
 16 31  1  0  0  0
 17 18  1  0  0  0
 17 93  1  0  0  0
 18 19  2  0  0  0
 18 94  1  0  0  0
 19 20  1  0  0  0
 19 24  1  0  0  0
 20 21  2  0  0  0
 20 95  1  0  0  0
 21 23  1  0  0  0
 22 28  1  0  0  0
 22 32  2  0  0  0
 26 27  1  0  0  0
 28 96  1  0  0  0
 28 97  1  0  0  0
 29 98  1  0  0  0
 29 99  1  0  0  0
 33 34  1  0  0  0
 33 66  1  0  0  0
 33 70  2  0  0  0
 34 36  1  0  0  0
 34 59  1  0  0  0
 34100  1  0  0  0
 35 44  2  0  0  0
 35 45  1  0  0  0
 35 68  1  0  0  0
 36 56  1  0  0  0
 36101  1  0  0  0
 37 39  1  0  0  0
 37 47  1  0  0  0
 37 66  1  0  0  0
 37102  1  0  0  0
 38 43  2  0  0  0
 38 46  1  0  0  0
 38 47  1  0  0  0
 39 64  1  0  0  0
 39 67  2  0  0  0
 40 52  1  0  0  0
 40 53  2  0  0  0
 40 58  1  0  0  0
 41103  1  0  0  0
 41104  1  0  0  0
 41105  1  0  0  0
 41 48  1  0  0  0
 42 43  1  0  0  0
 42 66  1  0  0  0
 42106  1  0  0  0
 42107  1  0  0  0
 43 44  1  0  0  0
 44108  1  0  0  0
 45 46  2  0  0  0
 45109  1  0  0  0
 46110  1  0  0  0
 47111  1  0  0  0
 47112  1  0  0  0
 48 56  1  0  0  0
 48 65  1  0  0  0
 48113  1  0  0  0
 49 50  1  0  0  0
 49 53  1  0  0  0
 49 64  1  0  0  0
 49114  1  0  0  0
 50 51  1  0  0  0
 50115  1  0  0  0
 50116  1  0  0  0
 51 52  1  0  0  0
 51117  1  0  0  0
 51118  1  0  0  0
 52119  1  0  0  0
 52120  1  0  0  0
 53 54  1  0  0  0
 54 55  2  0  0  0
 54121  1  0  0  0
 55 57  1  0  0  0
 55122  1  0  0  0
 56 69  2  0  0  0
 57 58  2  0  0  0
 57123  1  0  0  0
 58124  1  0  0  0
 59 60  1  0  0  0
 59 61  1  0  0  0
 59 62  1  0  0  0
 60125  1  0  0  0
 60126  1  0  0  0
 60127  1  0  0  0
 61128  1  0  0  0
 61129  1  0  0  0
 61130  1  0  0  0
 62131  1  0  0  0
 62132  1  0  0  0
 62133  1  0  0  0
 63 65  1  0  0  0
 63134  1  0  0  0
 63135  1  0  0  0
 63136  1  0  0  0
 64137  1  0  0  0
 65138  1  0  0  0
 68 77  1  0  0  0
 71 72  1  0  0  0
 71 74  1  0  0  0
 71139  1  0  0  0
 71140  1  0  0  0
 72 78  1  0  0  0
 72141  1  0  0  0
 72142  1  0  0  0
 73 74  1  0  0  0
 73 78  1  0  0  0
 73143  1  0  0  0
 73144  1  0  0  0
 74 75  1  0  0  0
 74145  1  0  0  0
 75 79  1  0  0  0
 75146  1  0  0  0
 75147  1  0  0  0
 76 77  1  0  0  0
 76 79  1  0  0  0
 76148  1  0  0  0
 76149  1  0  0  0
 77150  1  0  0  0
 77151  1  0  0  0
 79152  1  0  0  0
 79153  1  0  0  0
M  CHG  1  79   1
M  ISO  4   1 100  68 101  77 101  78 100
M  END
> <chiral flag>
0

> <version>
0

> <s_m_source_file>
/data/baiqing/PycharmProjects/Reinvent-master-3.2/result/LINK_invent/BTK/process_docking_weight1_custom_sum_contain_oxygen_bond_distance_aromatic_linkinvent_7_9_3/rearranged_h_0182.sdf

> <i_m_source_file_index>
1

> <r_mmod_Potential_Energy-OPLS-2005>
631.558288574219

> <r_mmod_Stretch_Energy-OPLS-2005>
274.893585205078

> <r_mmod_Bend_Energy-OPLS-2005>
310.617279052734

> <r_mmod_Torsional_Energy-OPLS-2005>
324.781951904297

> <r_mmod_Improper_Torsional_Energy-OPLS-2005>
6.23082971572876

> <r_mmod_Van_der_Waal_Energy-OPLS-2005>
113.84587097168

> <r_mmod_Electrostatic_Energy-OPLS-2005>
-153.544952392578

> <r_mmod_Solvation_Energy-OPLS-2005>
-460.850799560547

> <b_mmod_Minimization_Converged-OPLS-2005>
0

> <r_mmod_RMS_Derivative-OPLS-2005>
8.09169578552246

$$$$
1
                    3D
 Structure written by MMmdl.
156166  0  0  1  0            999 V2000
  -30.5448  -15.1811   20.3618 C   0  0  0  0  0  0
  -30.4307  -12.7860   19.4441 C   0  0  0  0  0  0
  -29.4830  -12.5078   18.2569 C   0  0  0  0  0  0
  -28.0751  -12.2048   18.7769 C   0  0  0  0  0  0
  -27.6112  -13.2441   19.8194 C   0  0  2  0  0  0
  -28.6663  -13.4602   20.9263 C   0  0  0  0  0  0
  -25.2489  -13.8190   20.5778 C   0  0  0  0  0  0
  -24.1786  -13.0447   20.9298 C   0  0  0  0  0  0
  -24.6371  -11.6918   20.8844 C   0  0  0  0  0  0
  -23.9039  -10.4319   21.0484 C   0  0  0  0  0  0
  -24.3622   -9.4234   21.9236 C   0  0  0  0  0  0
  -23.6293   -8.2254   22.0772 C   0  0  0  0  0  0
  -22.4285   -8.0280   21.3546 C   0  0  0  0  0  0
  -21.9879   -9.0314   20.4724 C   0  0  0  0  0  0
  -22.7198  -10.2213   20.3164 C   0  0  0  0  0  0
  -21.6837   -6.0771   22.5285 C   0  0  0  0  0  0
  -21.4033   -6.5686   23.8244 C   0  0  0  0  0  0
  -21.3655   -5.6823   24.9201 C   0  0  0  0  0  0
  -21.6011   -4.3088   24.7282 C   0  0  0  0  0  0
  -21.8789   -3.8174   23.4413 C   0  0  0  0  0  0
  -21.9185   -4.6987   22.3442 C   0  0  0  0  0  0
  -22.7807  -13.5247   21.1922 C   0  0  0  0  0  0
  -22.1619   -4.2200   21.1027 F   0  0  0  0  0  0
  -21.5625   -3.4533   25.7786 F   0  0  0  0  0  0
  -29.8777  -13.9400   20.2401 N   0  0  0  0  0  0
  -26.2856  -12.9390   20.3357 N   0  0  0  0  0  0
  -25.9315  -11.6536   20.5906 N   0  0  0  0  0  0
  -22.0429  -12.8357   22.0546 N   0  0  0  0  0  0
  -25.4187  -15.1916   20.4132 N   0  0  0  0  0  0
  -31.7684  -15.0797   20.2438 O   0  0  0  0  0  0
  -21.6595   -6.8915   21.4247 O   0  0  0  0  0  0
  -22.3533  -14.5522   20.6696 O   0  0  0  0  0  0
  -24.6538  -31.8292   23.1780 C   0  0  0  0  0  0
  -25.9276  -32.4580   23.8214 C   0  0  1  0  0  0
  -27.2055  -27.0025   20.1201 C   0  0  0  0  0  0
  -25.5977  -33.8395   24.2099 N   0  0  0  0  0  0
  -23.4612  -30.4446   21.5245 C   0  0  2  0  0  0
  -24.9130  -28.8521   20.0907 C   0  0  0  0  0  0
  -22.7581  -29.4474   22.4775 C   0  0  0  0  0  0
  -18.0319  -28.1421   22.8455 C   0  0  0  0  0  0
  -24.1501  -36.7216   23.2637 C   0  0  0  0  0  0
  -26.0298  -30.6426   21.4101 C   0  0  0  0  0  0
  -26.0928  -29.2543   20.7223 C   0  0  0  0  0  0
  -27.2347  -28.3454   20.7237 C   0  0  0  0  0  0
  -26.0003  -26.7305   19.4471 C   0  0  0  0  0  0
  -24.8838  -27.6042   19.4375 C   0  0  0  0  0  0
  -23.6915  -29.7703   20.1461 C   0  0  0  0  0  0
  -25.4117  -36.2922   24.0298 C   0  0  1  0  0  0
  -20.5937  -28.3730   23.1208 C   0  0  2  0  0  0
  -20.6808  -26.9398   22.5429 C   0  0  0  0  0  0
  -19.5791  -26.6331   21.5244 C   0  0  0  0  0  0
  -18.1970  -26.7944   22.1633 C   0  0  0  0  0  0
  -19.1581  -28.8894   23.2814 C   0  0  0  0  0  0
  -18.9492  -30.1507   23.8813 C   0  0  0  0  0  0
  -17.6493  -30.6614   24.0532 C   0  0  0  0  0  0
  -25.9090  -34.9315   23.4987 C   0  0  0  0  0  0
  -16.5379  -29.9090   23.6361 C   0  0  0  0  0  0
  -16.7307  -28.6528   23.0340 C   0  0  0  0  0  0
  -26.4514  -31.6569   25.0775 C   0  0  0  0  0  0
  -25.3691  -31.4055   26.1540 C   0  0  0  0  0  0
  -27.0361  -30.2846   24.6689 C   0  0  0  0  0  0
  -27.6015  -32.4450   25.7507 C   0  0  0  0  0  0
  -27.5588  -37.1672   24.8430 C   0  0  0  0  0  0
  -21.4277  -29.3029   22.3540 N   0  0  0  0  0  0
  -26.4258  -37.3658   23.9436 N   0  0  0  0  0  0
  -24.7368  -30.9976   22.0885 N   0  0  0  0  0  0
  -23.4161  -28.8026   23.3014 O   0  0  0  0  0  0
  -28.2043  -25.9240   20.2671 O   0  0  0  0  0  0
  -26.5676  -34.8845   22.4575 O   0  0  0  0  0  0
  -23.5643  -32.1307   23.6879 O   0  0  0  0  0  0
  -28.4168  -24.4439   18.2621 C   0  0  0  0  0  0
  -29.2197  -22.1984   18.3067 C   0  0  0  0  0  0
  -28.9307  -22.0199   19.6997 C   0  0  0  0  0  0
  -28.2903  -24.5421   19.6649 C   0  0  0  0  0  0
  -31.3902  -20.7988   17.9948 C   0  0  0  0  0  0
  -31.3263  -21.6212   16.7417 C   0  0  0  0  0  0
  -28.7715  -17.4270   20.5745 C   0  0  0  0  0  0
  -30.7157  -17.8907   20.2676 C   0  0  0  0  0  0
  -30.0320  -21.2240   17.4724 C   0  0  0  0  0  0
  -29.4192  -18.8117   19.9753 C   0  0  0  0  0  0
  -29.1450  -20.4988   20.4853 C   0  0  0  0  0  0
  -28.8767  -23.3332   17.6207 N   0  0  0  0  0  0
  -28.5312  -23.2752   20.3551 N   0  0  0  0  0  0
  -29.9831  -16.5468   20.2420 N   0  0  0  0  0  0
  -31.4193  -13.0139   19.0367 H   0  0  0  0  0  0
  -30.5626  -11.9012   20.0689 H   0  0  0  0  0  0
  -29.8442  -11.6611   17.6691 H   0  0  0  0  0  0
  -29.4523  -13.3695   17.5853 H   0  0  0  0  0  0
  -28.1314  -11.2291   19.2609 H   0  0  0  0  0  0
  -27.3520  -12.1029   17.9670 H   0  0  0  0  0  0
  -27.5147  -14.1808   19.2665 H   0  0  0  0  0  0
  -28.8634  -12.5430   21.4834 H   0  0  0  0  0  0
  -28.3287  -14.2095   21.6459 H   0  0  0  0  0  0
  -25.2799   -9.5658   22.4837 H   0  0  0  0  0  0
  -23.9984   -7.4618   22.7490 H   0  0  0  0  0  0
  -21.0775   -8.8871   19.9094 H   0  0  0  0  0  0
  -22.3601  -10.9791   19.6357 H   0  0  0  0  0  0
  -21.1991   -7.6193   23.9777 H   0  0  0  0  0  0
  -21.1487   -6.0561   25.9111 H   0  0  0  0  0  0
  -22.0556   -2.7641   23.2918 H   0  0  0  0  0  0
  -22.3927  -12.0030   22.5010 H   0  0  0  0  0  0
  -21.1121  -13.1622   22.2858 H   0  0  0  0  0  0
  -24.6419  -15.8398   20.5058 H   0  0  0  0  0  0
  -26.2723  -15.6296   20.0872 H   0  0  0  0  0  0
  -26.7317  -32.5071   23.0911 H   0  0  0  0  0  0
  -25.0067  -33.9442   25.0203 H   0  0  0  0  0  0
  -22.7707  -31.2769   21.3670 H   0  0  0  0  0  0
  -23.3753  -35.9563   23.3234 H   0  0  0  0  0  0
  -24.3581  -36.8941   22.2068 H   0  0  0  0  0  0
  -23.7293  -37.6378   23.6776 H   0  0  0  0  0  0
  -26.2409  -31.4114   20.6690 H   0  0  0  0  0  0
  -26.8757  -30.6547   22.0867 H   0  0  0  0  0  0
  -28.1242  -28.6295   21.2623 H   0  0  0  0  0  0
  -25.8672  -25.7669   18.9665 H   0  0  0  0  0  0
  -23.9786  -27.2851   18.9445 H   0  0  0  0  0  0
  -23.8170  -30.5527   19.3992 H   0  0  0  0  0  0
  -22.8041  -29.2204   19.8333 H   0  0  0  0  0  0
  -25.1314  -36.1683   25.0790 H   0  0  0  0  0  0
  -21.0002  -28.3402   24.1351 H   0  0  0  0  0  0
  -20.5717  -26.2340   23.3662 H   0  0  0  0  0  0
  -21.6660  -26.7409   22.1210 H   0  0  0  0  0  0
  -19.6916  -25.6211   21.1335 H   0  0  0  0  0  0
  -19.6777  -27.3095   20.6749 H   0  0  0  0  0  0
  -17.4209  -26.6644   21.4064 H   0  0  0  0  0  0
  -18.0381  -26.0150   22.9099 H   0  0  0  0  0  0
  -19.7958  -30.7346   24.2116 H   0  0  0  0  0  0
  -17.5040  -31.6277   24.5149 H   0  0  0  0  0  0
  -15.5371  -30.2940   23.7755 H   0  0  0  0  0  0
  -15.8704  -28.0810   22.7084 H   0  0  0  0  0  0
  -24.5489  -30.7855   25.7923 H   0  0  0  0  0  0
  -24.9372  -32.3405   26.5124 H   0  0  0  0  0  0
  -25.7849  -30.8967   27.0242 H   0  0  0  0  0  0
  -26.3046  -29.6505   24.1650 H   0  0  0  0  0  0
  -27.3655  -29.7304   25.5499 H   0  0  0  0  0  0
  -27.9132  -30.3884   24.0302 H   0  0  0  0  0  0
  -27.2462  -33.3649   26.2195 H   0  0  0  0  0  0
  -28.3695  -32.7234   25.0278 H   0  0  0  0  0  0
  -28.0869  -31.8591   26.5317 H   0  0  0  0  0  0
  -28.2532  -38.0026   24.7460 H   0  0  0  0  0  0
  -28.1123  -36.2524   24.6219 H   0  0  0  0  0  0
  -27.2299  -37.1297   25.8826 H   0  0  0  0  0  0
  -20.9499  -29.8650   21.6616 H   0  0  0  0  0  0
  -26.0097  -38.2693   24.1537 H   0  0  0  0  0  0
  -28.2625  -25.3246   17.6498 H   0  0  0  0  0  0
  -31.7558  -21.3005   18.8939 H   0  0  0  0  0  0
  -31.6553  -19.7482   17.8985 H   0  0  0  0  0  0
  -31.6272  -21.0988   15.8285 H   0  0  0  0  0  0
  -31.6937  -22.6481   16.8118 H   0  0  0  0  0  0
  -27.8582  -17.1195   20.0628 H   0  0  0  0  0  0
  -28.5802  -17.4836   21.6492 H   0  0  0  0  0  0
  -31.1372  -18.1004   21.2556 H   0  0  0  0  0  0
  -31.4905  -17.9853   19.5057 H   0  0  0  0  0  0
  -29.3972  -20.5149   16.9350 H   0  0  0  0  0  0
  -29.2309  -18.7678   18.9038 H   0  0  0  0  0  0
  -28.2431  -20.4531   21.0856 H   0  0  0  0  0  0
  -29.9128  -20.7089   21.2329 H   0  0  0  0  0  0
  1 25  1  0  0  0
  1 30  2  0  0  0
  1 84  1  0  0  0
  2  3  1  0  0  0
  2 25  1  0  0  0
  2 85  1  0  0  0
  2 86  1  0  0  0
  3  4  1  0  0  0
  3 87  1  0  0  0
  3 88  1  0  0  0
  4  5  1  0  0  0
  4 89  1  0  0  0
  4 90  1  0  0  0
  5  6  1  0  0  0
  5 26  1  0  0  0
  5 91  1  0  0  0
  6 25  1  0  0  0
  6 92  1  0  0  0
  6 93  1  0  0  0
  7  8  2  0  0  0
  7 26  1  0  0  0
  7 29  1  0  0  0
  8  9  1  0  0  0
  8 22  1  0  0  0
  9 10  1  0  0  0
  9 27  2  0  0  0
 10 11  2  0  0  0
 10 15  1  0  0  0
 11 12  1  0  0  0
 11 94  1  0  0  0
 12 13  2  0  0  0
 12 95  1  0  0  0
 13 14  1  0  0  0
 13 31  1  0  0  0
 14 15  2  0  0  0
 14 96  1  0  0  0
 15 97  1  0  0  0
 16 17  2  0  0  0
 16 21  1  0  0  0
 16 31  1  0  0  0
 17 18  1  0  0  0
 17 98  1  0  0  0
 18 19  2  0  0  0
 18 99  1  0  0  0
 19 20  1  0  0  0
 19 24  1  0  0  0
 20 21  2  0  0  0
 20100  1  0  0  0
 21 23  1  0  0  0
 22 28  1  0  0  0
 22 32  2  0  0  0
 26 27  1  0  0  0
 28101  1  0  0  0
 28102  1  0  0  0
 29103  1  0  0  0
 29104  1  0  0  0
 33 34  1  0  0  0
 33 66  1  0  0  0
 33 70  2  0  0  0
 34 36  1  0  0  0
 34 59  1  0  0  0
 34105  1  0  0  0
 35 44  2  0  0  0
 35 45  1  0  0  0
 35 68  1  0  0  0
 36 56  1  0  0  0
 36106  1  0  0  0
 37 39  1  0  0  0
 37 47  1  0  0  0
 37 66  1  0  0  0
 37107  1  0  0  0
 38 43  2  0  0  0
 38 46  1  0  0  0
 38 47  1  0  0  0
 39 64  1  0  0  0
 39 67  2  0  0  0
 40 52  1  0  0  0
 40 53  2  0  0  0
 40 58  1  0  0  0
 41108  1  0  0  0
 41109  1  0  0  0
 41110  1  0  0  0
 41 48  1  0  0  0
 42 43  1  0  0  0
 42 66  1  0  0  0
 42111  1  0  0  0
 42112  1  0  0  0
 43 44  1  0  0  0
 44113  1  0  0  0
 45 46  2  0  0  0
 45114  1  0  0  0
 46115  1  0  0  0
 47116  1  0  0  0
 47117  1  0  0  0
 48 56  1  0  0  0
 48 65  1  0  0  0
 48118  1  0  0  0
 49 50  1  0  0  0
 49 53  1  0  0  0
 49 64  1  0  0  0
 49119  1  0  0  0
 50 51  1  0  0  0
 50120  1  0  0  0
 50121  1  0  0  0
 51 52  1  0  0  0
 51122  1  0  0  0
 51123  1  0  0  0
 52124  1  0  0  0
 52125  1  0  0  0
 53 54  1  0  0  0
 54 55  2  0  0  0
 54126  1  0  0  0
 55 57  1  0  0  0
 55127  1  0  0  0
 56 69  2  0  0  0
 57 58  2  0  0  0
 57128  1  0  0  0
 58129  1  0  0  0
 59 60  1  0  0  0
 59 61  1  0  0  0
 59 62  1  0  0  0
 60130  1  0  0  0
 60131  1  0  0  0
 60132  1  0  0  0
 61133  1  0  0  0
 61134  1  0  0  0
 61135  1  0  0  0
 62136  1  0  0  0
 62137  1  0  0  0
 62138  1  0  0  0
 63 65  1  0  0  0
 63139  1  0  0  0
 63140  1  0  0  0
 63141  1  0  0  0
 64142  1  0  0  0
 65143  1  0  0  0
 68 74  1  0  0  0
 71 74  2  0  0  0
 71 82  1  0  0  0
 71144  1  0  0  0
 72 73  1  0  0  0
 72 82  2  0  0  0
 72 79  1  0  0  0
 73 81  1  0  0  0
 73 83  2  0  0  0
 74 83  1  0  0  0
 75 76  1  0  0  0
 75 79  1  0  0  0
 75145  1  0  0  0
 75146  1  0  0  0
 76 79  1  0  0  0
 76147  1  0  0  0
 76148  1  0  0  0
 77 80  1  0  0  0
 77 84  1  0  0  0
 77149  1  0  0  0
 77150  1  0  0  0
 78 80  1  0  0  0
 78 84  1  0  0  0
 78151  1  0  0  0
 78152  1  0  0  0
 79153  1  0  0  0
 80 81  1  0  0  0
 80154  1  0  0  0
 81155  1  0  0  0
 81156  1  0  0  0
M  ISO  4   1 100  68 101  74 101  84 100
M  END
> <chiral flag>
0

> <version>
0

> <s_m_source_file>
/data/baiqing/PycharmProjects/Reinvent-master-3.2/result/LINK_invent/BTK/process_docking_weight1_custom_sum_contain_oxygen_bond_distance_aromatic_linkinvent_7_9_3/rearranged_h_0182.sdf

> <i_m_source_file_index>
2

> <r_mmod_Potential_Energy-OPLS-2005>
1208.64721679688

> <r_mmod_Stretch_Energy-OPLS-2005>
431.524719238281

> <r_mmod_Bend_Energy-OPLS-2005>
403.167938232422

> <r_mmod_Torsional_Energy-OPLS-2005>
306.986724853516

> <r_mmod_Improper_Torsional_Energy-OPLS-2005>
15.8972263336182

> <r_mmod_Van_der_Waal_Energy-OPLS-2005>
116.387802124023

> <r_mmod_Electrostatic_Energy-OPLS-2005>
-227.246475219727

> <r_mmod_Solvation_Energy-OPLS-2005>
-222.542663574219

> <b_mmod_Minimization_Converged-OPLS-2005>
0

> <r_mmod_RMS_Derivative-OPLS-2005>
10.5594511032104

$$$$
2
                    3D
 Structure written by MMmdl.
153162  0  0  1  0            999 V2000
  -30.5181  -14.9572   20.4190 C   0  0  0  0  0  0
  -30.4613  -12.5914   19.4811 C   0  0  0  0  0  0
  -29.5248  -12.5078   18.2505 C   0  0  0  0  0  0
  -28.0626  -12.2845   18.6827 C   0  0  0  0  0  0
  -27.6366  -13.2311   19.8316 C   0  0  2  0  0  0
  -28.6845  -13.2583   20.9662 C   0  0  0  0  0  0
  -25.2526  -13.8168   20.5696 C   0  0  0  0  0  0
  -24.1822  -13.0428   20.9248 C   0  0  0  0  0  0
  -24.6404  -11.6909   20.8764 C   0  0  0  0  0  0
  -23.9076  -10.4291   21.0415 C   0  0  0  0  0  0
  -24.3625   -9.4203   21.9196 C   0  0  0  0  0  0
  -23.6291   -8.2239   22.0759 C   0  0  0  0  0  0
  -22.4279   -8.0285   21.3549 C   0  0  0  0  0  0
  -21.9919   -9.0258   20.4652 C   0  0  0  0  0  0
  -22.7242  -10.2135   20.3057 C   0  0  0  0  0  0
  -21.6852   -6.0735   22.5279 C   0  0  0  0  0  0
  -21.4013   -6.5641   23.8211 C   0  0  0  0  0  0
  -21.3654   -5.6794   24.9174 C   0  0  0  0  0  0
  -21.6042   -4.3057   24.7227 C   0  0  0  0  0  0
  -21.8823   -3.8150   23.4350 C   0  0  0  0  0  0
  -21.9196   -4.6966   22.3402 C   0  0  0  0  0  0
  -22.7838  -13.5225   21.1878 C   0  0  0  0  0  0
  -22.1663   -4.2146   21.0980 F   0  0  0  0  0  0
  -21.5625   -3.4543   25.7741 F   0  0  0  0  0  0
  -29.9609  -13.6785   20.3703 N   0  0  0  0  0  0
  -26.2937  -12.9367   20.3219 N   0  0  0  0  0  0
  -25.9333  -11.6525   20.5741 N   0  0  0  0  0  0
  -22.0468  -12.8222   22.0418 N   0  0  0  0  0  0
  -25.4219  -15.1882   20.4030 N   0  0  0  0  0  0
  -31.7240  -15.0636   20.1659 O   0  0  0  0  0  0
  -21.6641   -6.8881   21.4239 O   0  0  0  0  0  0
  -22.3540  -14.5539   20.6717 O   0  0  0  0  0  0
  -24.6408  -31.8476   23.1882 C   0  0  0  0  0  0
  -25.9194  -32.4717   23.8279 C   0  0  1  0  0  0
  -27.2199  -27.1469   20.1687 C   0  0  0  0  0  0
  -25.5960  -33.8512   24.2222 N   0  0  0  0  0  0
  -23.4444  -30.4690   21.5321 C   0  0  2  0  0  0
  -24.8950  -28.8944   20.1127 C   0  0  0  0  0  0
  -22.7559  -29.4592   22.4834 C   0  0  0  0  0  0
  -18.0316  -28.1444   22.8497 C   0  0  0  0  0  0
  -24.1476  -36.7252   23.2635 C   0  0  0  0  0  0
  -25.9976  -30.7275   21.3811 C   0  0  0  0  0  0
  -26.0694  -29.3357   20.7358 C   0  0  0  0  0  0
  -27.2321  -28.4763   20.7483 C   0  0  0  0  0  0
  -26.0243  -26.8147   19.4877 C   0  0  0  0  0  0
  -24.8859  -27.6492   19.4681 C   0  0  0  0  0  0
  -23.6715  -29.7977   20.1521 C   0  0  0  0  0  0
  -25.4105  -36.3040   24.0319 C   0  0  1  0  0  0
  -20.5930  -28.3774   23.1238 C   0  0  2  0  0  0
  -20.6797  -26.9474   22.5411 C   0  0  0  0  0  0
  -19.5762  -26.6442   21.5222 C   0  0  0  0  0  0
  -18.1952  -26.7985   22.1642 C   0  0  0  0  0  0
  -19.1570  -28.8924   23.2870 C   0  0  0  0  0  0
  -18.9484  -30.1522   23.8896 C   0  0  0  0  0  0
  -17.6472  -30.6626   24.0603 C   0  0  0  0  0  0
  -25.9062  -34.9413   23.5084 C   0  0  0  0  0  0
  -16.5371  -29.9134   23.6356 C   0  0  0  0  0  0
  -16.7300  -28.6560   23.0362 C   0  0  0  0  0  0
  -26.4528  -31.6543   25.0681 C   0  0  0  0  0  0
  -25.3727  -31.3755   26.1396 C   0  0  0  0  0  0
  -27.0347  -30.2936   24.6191 C   0  0  0  0  0  0
  -27.6101  -32.4257   25.7446 C   0  0  0  0  0  0
  -27.5567  -37.1787   24.8465 C   0  0  0  0  0  0
  -21.4253  -29.3069   22.3572 N   0  0  0  0  0  0
  -26.4266  -37.3758   23.9417 N   0  0  0  0  0  0
  -24.7139  -31.0373   22.0896 N   0  0  0  0  0  0
  -23.4200  -28.8149   23.2994 O   0  0  0  0  0  0
  -28.2780  -26.1674   20.2390 O   0  0  0  0  0  0
  -26.5644  -34.8895   22.4655 O   0  0  0  0  0  0
  -23.5533  -32.1331   23.7130 O   0  0  0  0  0  0
  -28.3174  -18.2057   20.2320 C   0  0  0  0  0  0
  -30.2906  -19.9528   20.7032 C   0  0  0  0  0  0
  -29.5966  -17.6018   20.4779 C   0  0  0  0  0  0
  -28.9835  -20.5242   20.4212 C   0  0  0  0  0  0
  -31.9127  -22.0816   20.6024 C   0  0  0  0  0  0
  -32.7521  -20.8469   20.4480 C   0  0  0  0  0  0
  -31.4452  -20.7769   21.2077 C   0  0  0  0  0  0
  -27.9664  -24.6494   20.3969 C   0  0  0  0  0  0
  -28.9956  -23.3137   20.4218 C   0  0  0  0  0  0
  -28.0323  -19.5621   20.1914 N   0  0  0  0  0  0
  -30.5708  -18.5638   20.7078 N   0  0  0  0  0  0
  -29.6360  -16.0639   20.5302 N   0  0  0  0  0  0
  -28.4221  -21.8844   20.3962 O   0  0  0  0  0  0
  -31.4840  -12.7776   19.1492 H   0  0  0  0  0  0
  -30.4899  -11.6404   20.0162 H   0  0  0  0  0  0
  -29.8427  -11.6976   17.5919 H   0  0  0  0  0  0
  -29.5986  -13.4257   17.6651 H   0  0  0  0  0  0
  -27.9785  -11.2488   19.0175 H   0  0  0  0  0  0
  -27.3893  -12.3850   17.8313 H   0  0  0  0  0  0
  -27.6000  -14.2263   19.3881 H   0  0  0  0  0  0
  -28.7790  -12.2789   21.4376 H   0  0  0  0  0  0
  -28.3831  -13.9514   21.7538 H   0  0  0  0  0  0
  -25.2764   -9.5674   22.4774 H   0  0  0  0  0  0
  -24.0001   -7.4625   22.7475 H   0  0  0  0  0  0
  -21.0854   -8.8769   19.8947 H   0  0  0  0  0  0
  -22.3705  -10.9676   19.6165 H   0  0  0  0  0  0
  -21.2008   -7.6148   23.9712 H   0  0  0  0  0  0
  -21.1465   -6.0527   25.9077 H   0  0  0  0  0  0
  -22.0610   -2.7613   23.2849 H   0  0  0  0  0  0
  -22.4057  -11.9854   22.4770 H   0  0  0  0  0  0
  -21.1089  -13.1251   22.2623 H   0  0  0  0  0  0
  -24.6383  -15.8273   20.4849 H   0  0  0  0  0  0
  -26.2181  -15.6000   19.9362 H   0  0  0  0  0  0
  -26.7249  -32.5360   23.0999 H   0  0  0  0  0  0
  -25.0085  -33.9628   25.0359 H   0  0  0  0  0  0
  -22.7493  -31.2971   21.3792 H   0  0  0  0  0  0
  -23.3742  -35.9582   23.3283 H   0  0  0  0  0  0
  -24.3580  -36.8893   22.2054 H   0  0  0  0  0  0
  -23.7198  -37.6432   23.6671 H   0  0  0  0  0  0
  -26.1368  -31.4730   20.5970 H   0  0  0  0  0  0
  -26.8747  -30.7982   22.0115 H   0  0  0  0  0  0
  -28.1228  -28.8086   21.2639 H   0  0  0  0  0  0
  -25.9417  -25.8775   18.9599 H   0  0  0  0  0  0
  -23.9957  -27.3197   18.9491 H   0  0  0  0  0  0
  -23.8073  -30.5716   19.3956 H   0  0  0  0  0  0
  -22.7851  -29.2399   19.8430 H   0  0  0  0  0  0
  -25.1289  -36.1868   25.0809 H   0  0  0  0  0  0
  -21.0066  -28.3373   24.1337 H   0  0  0  0  0  0
  -20.5732  -26.2384   23.3632 H   0  0  0  0  0  0
  -21.6669  -26.7511   22.1196 H   0  0  0  0  0  0
  -19.6916  -25.6357   21.1265 H   0  0  0  0  0  0
  -19.6684  -27.3255   20.6743 H   0  0  0  0  0  0
  -17.4229  -26.6766   21.4029 H   0  0  0  0  0  0
  -18.0332  -26.0137   22.9045 H   0  0  0  0  0  0
  -19.7951  -30.7370   24.2249 H   0  0  0  0  0  0
  -17.5025  -31.6294   24.5236 H   0  0  0  0  0  0
  -15.5379  -30.3047   23.7667 H   0  0  0  0  0  0
  -15.8706  -28.0897   22.7042 H   0  0  0  0  0  0
  -24.5916  -30.7059   25.7771 H   0  0  0  0  0  0
  -24.8880  -32.2935   26.4729 H   0  0  0  0  0  0
  -25.8035  -30.9033   27.0229 H   0  0  0  0  0  0
  -26.2910  -29.6674   24.1230 H   0  0  0  0  0  0
  -27.4019  -29.7216   25.4725 H   0  0  0  0  0  0
  -27.8817  -30.4186   23.9433 H   0  0  0  0  0  0
  -27.2775  -33.3629   26.1910 H   0  0  0  0  0  0
  -28.3969  -32.6675   25.0291 H   0  0  0  0  0  0
  -28.0662  -31.8394   26.5426 H   0  0  0  0  0  0
  -28.2609  -38.0070   24.7542 H   0  0  0  0  0  0
  -28.1053  -36.2618   24.6271 H   0  0  0  0  0  0
  -27.2317  -37.1416   25.8878 H   0  0  0  0  0  0
  -20.9438  -29.8745   21.6732 H   0  0  0  0  0  0
  -26.0135  -38.2820   24.1458 H   0  0  0  0  0  0
  -27.4645  -17.5655   20.0553 H   0  0  0  0  0  0
  -31.4786  -22.4497   19.6797 H   0  0  0  0  0  0
  -32.2653  -22.8456   21.2938 H   0  0  0  0  0  0
  -33.6772  -20.8155   21.0192 H   0  0  0  0  0  0
  -32.7979  -20.4258   19.4443 H   0  0  0  0  0  0
  -31.5042  -20.6870   22.2902 H   0  0  0  0  0  0
  -27.4226  -24.5879   21.3405 H   0  0  0  0  0  0
  -27.2351  -24.3852   19.6373 H   0  0  0  0  0  0
  -29.6411  -23.4044   21.2973 H   0  0  0  0  0  0
  -29.6391  -23.4169   19.5511 H   0  0  0  0  0  0
  -28.7029  -15.6940   20.6055 H   0  0  0  0  0  0
  1 25  1  0  0  0
  1 30  2  0  0  0
  1 82  1  0  0  0
  2  3  1  0  0  0
  2 25  1  0  0  0
  2 84  1  0  0  0
  2 85  1  0  0  0
  3  4  1  0  0  0
  3 86  1  0  0  0
  3 87  1  0  0  0
  4  5  1  0  0  0
  4 88  1  0  0  0
  4 89  1  0  0  0
  5  6  1  0  0  0
  5 26  1  0  0  0
  5 90  1  0  0  0
  6 25  1  0  0  0
  6 91  1  0  0  0
  6 92  1  0  0  0
  7  8  2  0  0  0
  7 26  1  0  0  0
  7 29  1  0  0  0
  8  9  1  0  0  0
  8 22  1  0  0  0
  9 10  1  0  0  0
  9 27  2  0  0  0
 10 11  2  0  0  0
 10 15  1  0  0  0
 11 12  1  0  0  0
 11 93  1  0  0  0
 12 13  2  0  0  0
 12 94  1  0  0  0
 13 14  1  0  0  0
 13 31  1  0  0  0
 14 15  2  0  0  0
 14 95  1  0  0  0
 15 96  1  0  0  0
 16 17  2  0  0  0
 16 21  1  0  0  0
 16 31  1  0  0  0
 17 18  1  0  0  0
 17 97  1  0  0  0
 18 19  2  0  0  0
 18 98  1  0  0  0
 19 20  1  0  0  0
 19 24  1  0  0  0
 20 21  2  0  0  0
 20 99  1  0  0  0
 21 23  1  0  0  0
 22 28  1  0  0  0
 22 32  2  0  0  0
 26 27  1  0  0  0
 28100  1  0  0  0
 28101  1  0  0  0
 29102  1  0  0  0
 29103  1  0  0  0
 33 34  1  0  0  0
 33 66  1  0  0  0
 33 70  2  0  0  0
 34 36  1  0  0  0
 34 59  1  0  0  0
 34104  1  0  0  0
 35 44  2  0  0  0
 35 45  1  0  0  0
 35 68  1  0  0  0
 36 56  1  0  0  0
 36105  1  0  0  0
 37 39  1  0  0  0
 37 47  1  0  0  0
 37 66  1  0  0  0
 37106  1  0  0  0
 38 43  2  0  0  0
 38 46  1  0  0  0
 38 47  1  0  0  0
 39 64  1  0  0  0
 39 67  2  0  0  0
 40 52  1  0  0  0
 40 53  2  0  0  0
 40 58  1  0  0  0
 41107  1  0  0  0
 41108  1  0  0  0
 41109  1  0  0  0
 41 48  1  0  0  0
 42 43  1  0  0  0
 42 66  1  0  0  0
 42110  1  0  0  0
 42111  1  0  0  0
 43 44  1  0  0  0
 44112  1  0  0  0
 45 46  2  0  0  0
 45113  1  0  0  0
 46114  1  0  0  0
 47115  1  0  0  0
 47116  1  0  0  0
 48 56  1  0  0  0
 48 65  1  0  0  0
 48117  1  0  0  0
 49 50  1  0  0  0
 49 53  1  0  0  0
 49 64  1  0  0  0
 49118  1  0  0  0
 50 51  1  0  0  0
 50119  1  0  0  0
 50120  1  0  0  0
 51 52  1  0  0  0
 51121  1  0  0  0
 51122  1  0  0  0
 52123  1  0  0  0
 52124  1  0  0  0
 53 54  1  0  0  0
 54 55  2  0  0  0
 54125  1  0  0  0
 55 57  1  0  0  0
 55126  1  0  0  0
 56 69  2  0  0  0
 57 58  2  0  0  0
 57127  1  0  0  0
 58128  1  0  0  0
 59 60  1  0  0  0
 59 61  1  0  0  0
 59 62  1  0  0  0
 60129  1  0  0  0
 60130  1  0  0  0
 60131  1  0  0  0
 61132  1  0  0  0
 61133  1  0  0  0
 61134  1  0  0  0
 62135  1  0  0  0
 62136  1  0  0  0
 62137  1  0  0  0
 63 65  1  0  0  0
 63138  1  0  0  0
 63139  1  0  0  0
 63140  1  0  0  0
 64141  1  0  0  0
 65142  1  0  0  0
 68 78  1  0  0  0
 71 73  2  0  0  0
 71 80  1  0  0  0
 71143  1  0  0  0
 72 74  1  0  0  0
 72 81  2  0  0  0
 72 77  1  0  0  0
 73 81  1  0  0  0
 73 82  1  0  0  0
 74 80  2  0  0  0
 74 83  1  0  0  0
 75 76  1  0  0  0
 75 77  1  0  0  0
 75144  1  0  0  0
 75145  1  0  0  0
 76 77  1  0  0  0
 76146  1  0  0  0
 76147  1  0  0  0
 77148  1  0  0  0
 78 79  1  0  0  0
 78149  1  0  0  0
 78150  1  0  0  0
 79 83  1  0  0  0
 79151  1  0  0  0
 79152  1  0  0  0
 82153  1  0  0  0
M  ISO  4   1 100  68 101  78 101  82 100
M  END
> <chiral flag>
0

> <version>
0

> <s_m_source_file>
/data/baiqing/PycharmProjects/Reinvent-master-3.2/result/LINK_invent/BTK/process_docking_weight1_custom_sum_contain_oxygen_bond_distance_aromatic_linkinvent_7_9_3/rearranged_h_0182.sdf

> <i_m_source_file_index>
3

> <r_mmod_Potential_Energy-OPLS-2005>
561.441101074219

> <r_mmod_Stretch_Energy-OPLS-2005>
237.970825195312

> <r_mmod_Bend_Energy-OPLS-2005>
319.702880859375

> <r_mmod_Torsional_Energy-OPLS-2005>
239.775497436523

> <r_mmod_Improper_Torsional_Energy-OPLS-2005>
6.78410148620605

> <r_mmod_Van_der_Waal_Energy-OPLS-2005>
132.927764892578

> <r_mmod_Electrostatic_Energy-OPLS-2005>
-335.006896972656

> <r_mmod_Solvation_Energy-OPLS-2005>
-234.279922485352

> <b_mmod_Minimization_Converged-OPLS-2005>
0

> <r_mmod_RMS_Derivative-OPLS-2005>
4.5347113609314

$$$$
3
                    3D
 Structure written by MMmdl.
146155  0  0  1  0            999 V2000
  -30.3978  -15.4088   20.3543 C   0  0  0  0  0  0
  -30.4292  -12.9120   19.5370 C   0  0  0  0  0  0
  -29.5422  -12.6119   18.3010 C   0  0  0  0  0  0
  -28.0976  -12.3077   18.7302 C   0  0  0  0  0  0
  -27.6040  -13.2931   19.8178 C   0  0  2  0  0  0
  -28.6287  -13.5371   20.9471 C   0  0  0  0  0  0
  -25.2382  -13.8274   20.5801 C   0  0  0  0  0  0
  -24.1735  -13.0443   20.9252 C   0  0  0  0  0  0
  -24.6415  -11.6952   20.8749 C   0  0  0  0  0  0
  -23.9117  -10.4298   21.0393 C   0  0  0  0  0  0
  -24.3654   -9.4211   21.9179 C   0  0  0  0  0  0
  -23.6317   -8.2252   22.0753 C   0  0  0  0  0  0
  -22.4298   -8.0294   21.3544 C   0  0  0  0  0  0
  -21.9943   -9.0264   20.4641 C   0  0  0  0  0  0
  -22.7286  -10.2137   20.3044 C   0  0  0  0  0  0
  -21.6858   -6.0748   22.5280 C   0  0  0  0  0  0
  -21.4022   -6.5650   23.8214 C   0  0  0  0  0  0
  -21.3660   -5.6799   24.9175 C   0  0  0  0  0  0
  -21.6039   -4.3058   24.7225 C   0  0  0  0  0  0
  -21.8823   -3.8156   23.4343 C   0  0  0  0  0  0
  -21.9198   -4.6974   22.3404 C   0  0  0  0  0  0
  -22.7749  -13.5184   21.1903 C   0  0  0  0  0  0
  -22.1665   -4.2162   21.0980 F   0  0  0  0  0  0
  -21.5626   -3.4543   25.7733 F   0  0  0  0  0  0
  -29.8393  -14.0824   20.3070 N   0  0  0  0  0  0
  -26.2804  -12.9579   20.3228 N   0  0  0  0  0  0
  -25.9354  -11.6663   20.5688 N   0  0  0  0  0  0
  -22.0419  -12.8147   22.0450 N   0  0  0  0  0  0
  -25.4055  -15.2022   20.4350 N   0  0  0  0  0  0
  -31.6249  -15.3625   20.1650 O   0  0  0  0  0  0
  -21.6653   -6.8896   21.4245 O   0  0  0  0  0  0
  -22.3423  -14.5488   20.6751 O   0  0  0  0  0  0
  -24.6694  -31.8131   23.1619 C   0  0  0  0  0  0
  -25.9339  -32.4529   23.8132 C   0  0  1  0  0  0
  -27.2199  -26.8287   20.2082 C   0  0  0  0  0  0
  -25.5977  -33.8351   24.2045 N   0  0  0  0  0  0
  -23.4883  -30.4180   21.5145 C   0  0  2  0  0  0
  -24.9413  -28.7790   20.1195 C   0  0  0  0  0  0
  -22.7698  -29.4376   22.4779 C   0  0  0  0  0  0
  -18.0325  -28.1397   22.8486 C   0  0  0  0  0  0
  -24.1517  -36.7198   23.2695 C   0  0  0  0  0  0
  -26.0601  -30.5866   21.4074 C   0  0  0  0  0  0
  -26.1245  -29.1635   20.7613 C   0  0  0  0  0  0
  -27.2505  -28.2099   20.7778 C   0  0  0  0  0  0
  -26.0091  -26.6197   19.5085 C   0  0  0  0  0  0
  -24.9150  -27.5302   19.4731 C   0  0  0  0  0  0
  -23.7324  -29.7192   20.1471 C   0  0  0  0  0  0
  -25.4192  -36.2946   24.0291 C   0  0  1  0  0  0
  -20.5950  -28.3748   23.1182 C   0  0  2  0  0  0
  -20.6782  -26.9421   22.5410 C   0  0  0  0  0  0
  -19.5760  -26.6372   21.5213 C   0  0  0  0  0  0
  -18.1954  -26.7938   22.1633 C   0  0  0  0  0  0
  -19.1588  -28.8898   23.2816 C   0  0  0  0  0  0
  -18.9493  -30.1493   23.8843 C   0  0  0  0  0  0
  -17.6481  -30.6591   24.0555 C   0  0  0  0  0  0
  -25.9099  -34.9309   23.4993 C   0  0  0  0  0  0
  -16.5373  -29.9070   23.6340 C   0  0  0  0  0  0
  -16.7307  -28.6484   23.0371 C   0  0  0  0  0  0
  -26.4579  -31.6505   25.0694 C   0  0  0  0  0  0
  -25.3687  -31.3757   26.1328 C   0  0  0  0  0  0
  -27.0504  -30.2867   24.6481 C   0  0  0  0  0  0
  -27.6042  -32.4340   25.7515 C   0  0  0  0  0  0
  -27.5468  -37.1948   24.8599 C   0  0  0  0  0  0
  -21.4358  -29.3020   22.3516 N   0  0  0  0  0  0
  -26.4418  -37.3574   23.9188 N   0  0  0  0  0  0
  -24.7618  -30.9695   22.0814 N   0  0  0  0  0  0
  -23.4200  -28.7979   23.3080 O   0  0  0  0  0  0
  -28.2621  -25.7284   20.2483 O   0  0  0  0  0  0
  -26.5696  -34.8837   22.4579 O   0  0  0  0  0  0
  -23.5745  -32.1167   23.6649 O   0  0  0  0  0  0
  -29.8001  -22.0676   20.6016 C   0  0  0  0  0  0
  -27.4062  -23.0376   19.9880 C   0  0  0  0  0  0
  -28.8815  -20.9502   20.3224 C   0  0  0  0  0  0
  -28.3324  -24.1513   20.2743 C   0  0  0  0  0  0
  -29.3009  -17.8572   19.4194 C   0  0  0  0  0  0
  -30.1106  -18.0799   21.1965 C   0  0  0  0  0  0
  -29.1018  -19.1501   20.4383 C   0  0  0  0  0  0
  -27.6591  -21.6048   20.0131 N   0  0  0  0  0  0
  -29.5521  -23.4952   20.5696 N   0  0  0  0  0  0
  -29.6786  -16.7464   20.4723 N   0  0  0  0  0  0
  -31.4442  -13.1270   19.2011 H   0  0  0  0  0  0
  -30.5175  -12.0287   20.1727 H   0  0  0  0  0  0
  -29.9495  -11.7773   17.7290 H   0  0  0  0  0  0
  -29.5508  -13.4756   17.6344 H   0  0  0  0  0  0
  -28.0757  -11.2897   19.1212 H   0  0  0  0  0  0
  -27.4311  -12.3203   17.8666 H   0  0  0  0  0  0
  -27.4966  -14.2441   19.2934 H   0  0  0  0  0  0
  -28.8307  -12.6291   21.5176 H   0  0  0  0  0  0
  -28.2409  -14.2712   21.6552 H   0  0  0  0  0  0
  -25.2795   -9.5689   22.4760 H   0  0  0  0  0  0
  -24.0024   -7.4646   22.7473 H   0  0  0  0  0  0
  -21.0875   -8.8789   19.8941 H   0  0  0  0  0  0
  -22.3747  -10.9679   19.6150 H   0  0  0  0  0  0
  -21.2015   -7.6159   23.9722 H   0  0  0  0  0  0
  -21.1477   -6.0528   25.9078 H   0  0  0  0  0  0
  -22.0600   -2.7618   23.2841 H   0  0  0  0  0  0
  -22.4057  -11.9816   22.4836 H   0  0  0  0  0  0
  -21.1019  -13.1130   22.2640 H   0  0  0  0  0  0
  -24.6490  -15.8613   20.5845 H   0  0  0  0  0  0
  -26.2772  -15.6501   20.1817 H   0  0  0  0  0  0
  -26.7424  -32.5050   23.0852 H   0  0  0  0  0  0
  -25.0084  -33.9425   25.0170 H   0  0  0  0  0  0
  -22.8057  -31.2509   21.3349 H   0  0  0  0  0  0
  -23.3594  -35.9781   23.3881 H   0  0  0  0  0  0
  -24.3394  -36.8278   22.1997 H   0  0  0  0  0  0
  -23.7620  -37.6695   23.6385 H   0  0  0  0  0  0
  -26.2472  -31.3170   20.6196 H   0  0  0  0  0  0
  -26.9168  -30.6520   22.0663 H   0  0  0  0  0  0
  -28.1498  -28.5094   21.2972 H   0  0  0  0  0  0
  -25.8788  -25.6733   19.0039 H   0  0  0  0  0  0
  -24.0192  -27.2325   18.9462 H   0  0  0  0  0  0
  -23.8922  -30.4802   19.3828 H   0  0  0  0  0  0
  -22.8410  -29.1736   19.8334 H   0  0  0  0  0  0
  -25.1474  -36.1846   25.0814 H   0  0  0  0  0  0
  -21.0043  -28.3371   24.1303 H   0  0  0  0  0  0
  -20.5632  -26.2375   23.3658 H   0  0  0  0  0  0
  -21.6644  -26.7368   22.1232 H   0  0  0  0  0  0
  -19.6915  -25.6272   21.1272 H   0  0  0  0  0  0
  -19.6690  -27.3155   20.6722 H   0  0  0  0  0  0
  -17.4210  -26.6685   21.4052 H   0  0  0  0  0  0
  -18.0355  -26.0074   22.9022 H   0  0  0  0  0  0
  -19.7962  -30.7334   24.2178 H   0  0  0  0  0  0
  -17.5018  -31.6264   24.5164 H   0  0  0  0  0  0
  -15.5367  -30.2937   23.7691 H   0  0  0  0  0  0
  -15.8716  -28.0775   22.7108 H   0  0  0  0  0  0
  -24.5925  -30.7045   25.7636 H   0  0  0  0  0  0
  -24.8818  -32.2947   26.4597 H   0  0  0  0  0  0
  -25.7913  -30.9052   27.0212 H   0  0  0  0  0  0
  -26.3208  -29.6516   24.1443 H   0  0  0  0  0  0
  -27.3974  -29.7253   25.5167 H   0  0  0  0  0  0
  -27.9159  -30.4040   23.9955 H   0  0  0  0  0  0
  -27.2571  -33.3659   26.1988 H   0  0  0  0  0  0
  -28.3903  -32.6868   25.0390 H   0  0  0  0  0  0
  -28.0649  -31.8547   26.5526 H   0  0  0  0  0  0
  -28.3070  -37.9544   24.6729 H   0  0  0  0  0  0
  -28.0311  -36.2204   24.7780 H   0  0  0  0  0  0
  -27.2027  -37.3201   25.8882 H   0  0  0  0  0  0
  -20.9632  -29.8671   21.6596 H   0  0  0  0  0  0
  -26.0342  -38.2786   24.0528 H   0  0  0  0  0  0
  -30.8094  -21.8102   20.8872 H   0  0  0  0  0  0
  -26.3938  -23.2929   19.7108 H   0  0  0  0  0  0
  -30.0992  -18.0310   18.6938 H   0  0  0  0  0  0
  -28.3873  -17.6355   18.8668 H   0  0  0  0  0  0
  -29.9397  -18.0609   22.2733 H   0  0  0  0  0  0
  -31.1630  -18.3258   21.0289 H   0  0  0  0  0  0
  -28.1380  -18.9410   20.9043 H   0  0  0  0  0  0
  1 25  1  0  0  0
  1 30  2  0  0  0
  1 80  1  0  0  0
  2  3  1  0  0  0
  2 25  1  0  0  0
  2 81  1  0  0  0
  2 82  1  0  0  0
  3  4  1  0  0  0
  3 83  1  0  0  0
  3 84  1  0  0  0
  4  5  1  0  0  0
  4 85  1  0  0  0
  4 86  1  0  0  0
  5  6  1  0  0  0
  5 26  1  0  0  0
  5 87  1  0  0  0
  6 25  1  0  0  0
  6 88  1  0  0  0
  6 89  1  0  0  0
  7  8  2  0  0  0
  7 26  1  0  0  0
  7 29  1  0  0  0
  8  9  1  0  0  0
  8 22  1  0  0  0
  9 10  1  0  0  0
  9 27  2  0  0  0
 10 11  2  0  0  0
 10 15  1  0  0  0
 11 12  1  0  0  0
 11 90  1  0  0  0
 12 13  2  0  0  0
 12 91  1  0  0  0
 13 14  1  0  0  0
 13 31  1  0  0  0
 14 15  2  0  0  0
 14 92  1  0  0  0
 15 93  1  0  0  0
 16 17  2  0  0  0
 16 21  1  0  0  0
 16 31  1  0  0  0
 17 18  1  0  0  0
 17 94  1  0  0  0
 18 19  2  0  0  0
 18 95  1  0  0  0
 19 20  1  0  0  0
 19 24  1  0  0  0
 20 21  2  0  0  0
 20 96  1  0  0  0
 21 23  1  0  0  0
 22 28  1  0  0  0
 22 32  2  0  0  0
 26 27  1  0  0  0
 28 97  1  0  0  0
 28 98  1  0  0  0
 29 99  1  0  0  0
 29100  1  0  0  0
 33 34  1  0  0  0
 33 66  1  0  0  0
 33 70  2  0  0  0
 34 36  1  0  0  0
 34 59  1  0  0  0
 34101  1  0  0  0
 35 44  2  0  0  0
 35 45  1  0  0  0
 35 68  1  0  0  0
 36 56  1  0  0  0
 36102  1  0  0  0
 37 39  1  0  0  0
 37 47  1  0  0  0
 37 66  1  0  0  0
 37103  1  0  0  0
 38 43  2  0  0  0
 38 46  1  0  0  0
 38 47  1  0  0  0
 39 64  1  0  0  0
 39 67  2  0  0  0
 40 52  1  0  0  0
 40 53  2  0  0  0
 40 58  1  0  0  0
 41104  1  0  0  0
 41105  1  0  0  0
 41106  1  0  0  0
 41 48  1  0  0  0
 42 43  1  0  0  0
 42 66  1  0  0  0
 42107  1  0  0  0
 42108  1  0  0  0
 43 44  1  0  0  0
 44109  1  0  0  0
 45 46  2  0  0  0
 45110  1  0  0  0
 46111  1  0  0  0
 47112  1  0  0  0
 47113  1  0  0  0
 48 56  1  0  0  0
 48 65  1  0  0  0
 48114  1  0  0  0
 49 50  1  0  0  0
 49 53  1  0  0  0
 49 64  1  0  0  0
 49115  1  0  0  0
 50 51  1  0  0  0
 50116  1  0  0  0
 50117  1  0  0  0
 51 52  1  0  0  0
 51118  1  0  0  0
 51119  1  0  0  0
 52120  1  0  0  0
 52121  1  0  0  0
 53 54  1  0  0  0
 54 55  2  0  0  0
 54122  1  0  0  0
 55 57  1  0  0  0
 55123  1  0  0  0
 56 69  2  0  0  0
 57 58  2  0  0  0
 57124  1  0  0  0
 58125  1  0  0  0
 59 60  1  0  0  0
 59 61  1  0  0  0
 59 62  1  0  0  0
 60126  1  0  0  0
 60127  1  0  0  0
 60128  1  0  0  0
 61129  1  0  0  0
 61130  1  0  0  0
 61131  1  0  0  0
 62132  1  0  0  0
 62133  1  0  0  0
 62134  1  0  0  0
 63 65  1  0  0  0
 63135  1  0  0  0
 63136  1  0  0  0
 63137  1  0  0  0
 64138  1  0  0  0
 65139  1  0  0  0
 68 74  1  0  0  0
 71 73  2  0  0  0
 71 79  1  0  0  0
 71140  1  0  0  0
 72 74  1  0  0  0
 72 78  2  0  0  0
 72141  1  0  0  0
 73 78  1  0  0  0
 73 77  1  0  0  0
 74 79  2  0  0  0
 75 77  1  0  0  0
 75 80  1  0  0  0
 75142  1  0  0  0
 75143  1  0  0  0
 76 77  1  0  0  0
 76 80  1  0  0  0
 76144  1  0  0  0
 76145  1  0  0  0
 77146  1  0  0  0
M  ISO  4   1 100  68 101  74 101  80 100
M  END
> <chiral flag>
0

> <version>
0

> <s_m_source_file>
/data/baiqing/PycharmProjects/Reinvent-master-3.2/result/LINK_invent/BTK/process_docking_weight1_custom_sum_contain_oxygen_bond_distance_aromatic_linkinvent_7_9_3/rearranged_h_0182.sdf

> <i_m_source_file_index>
4

> <r_mmod_Potential_Energy-OPLS-2005>
1693.22009277344

> <r_mmod_Stretch_Energy-OPLS-2005>
608.527893066406

> <r_mmod_Bend_Energy-OPLS-2005>
543.110412597656

> <r_mmod_Torsional_Energy-OPLS-2005>
254.737930297852

> <r_mmod_Improper_Torsional_Energy-OPLS-2005>
9.72912788391113

> <r_mmod_Van_der_Waal_Energy-OPLS-2005>
129.52033996582

> <r_mmod_Electrostatic_Energy-OPLS-2005>
-234.860900878906

> <r_mmod_Solvation_Energy-OPLS-2005>
-221.571746826172

> <b_mmod_Minimization_Converged-OPLS-2005>
0

> <r_mmod_RMS_Derivative-OPLS-2005>
1.84829473495483

$$$$
4
                    3D
 Structure written by MMmdl.
158167  0  0  1  0            999 V2000
  -30.5590  -14.8463   20.4440 C   0  0  0  0  0  0
  -30.4437  -12.5224   19.4886 C   0  0  0  0  0  0
  -29.5170  -12.5024   18.2512 C   0  0  0  0  0  0
  -28.0542  -12.2903   18.6804 C   0  0  0  0  0  0
  -27.6378  -13.2300   19.8422 C   0  0  2  0  0  0
  -28.6753  -13.2287   20.9842 C   0  0  0  0  0  0
  -25.2540  -13.8211   20.5700 C   0  0  0  0  0  0
  -24.1816  -13.0457   20.9205 C   0  0  0  0  0  0
  -24.6410  -11.6937   20.8753 C   0  0  0  0  0  0
  -23.9089  -10.4310   21.0406 C   0  0  0  0  0  0
  -24.3637   -9.4219   21.9179 C   0  0  0  0  0  0
  -23.6303   -8.2268   22.0757 C   0  0  0  0  0  0
  -22.4281   -8.0310   21.3545 C   0  0  0  0  0  0
  -21.9931   -9.0275   20.4639 C   0  0  0  0  0  0
  -22.7273  -10.2149   20.3043 C   0  0  0  0  0  0
  -21.6847   -6.0754   22.5279 C   0  0  0  0  0  0
  -21.4012   -6.5655   23.8218 C   0  0  0  0  0  0
  -21.3654   -5.6799   24.9178 C   0  0  0  0  0  0
  -21.6041   -4.3059   24.7220 C   0  0  0  0  0  0
  -21.8823   -3.8164   23.4338 C   0  0  0  0  0  0
  -21.9195   -4.6987   22.3395 C   0  0  0  0  0  0
  -22.7845  -13.5255   21.1837 C   0  0  0  0  0  0
  -22.1663   -4.2188   21.0970 F   0  0  0  0  0  0
  -21.5623   -3.4535   25.7723 F   0  0  0  0  0  0
  -29.9640  -13.5996   20.3911 N   0  0  0  0  0  0
  -26.2931  -12.9396   20.3250 N   0  0  0  0  0  0
  -25.9339  -11.6551   20.5763 N   0  0  0  0  0  0
  -22.0467  -12.8243   22.0378 N   0  0  0  0  0  0
  -25.4303  -15.1924   20.4112 N   0  0  0  0  0  0
  -31.7585  -14.9398   20.1624 O   0  0  0  0  0  0
  -21.6630   -6.8905   21.4245 O   0  0  0  0  0  0
  -22.3543  -14.5551   20.6666 O   0  0  0  0  0  0
  -24.6343  -31.8512   23.1931 C   0  0  0  0  0  0
  -25.9165  -32.4730   23.8275 C   0  0  1  0  0  0
  -27.2111  -27.2020   20.1581 C   0  0  0  0  0  0
  -25.5948  -33.8520   24.2205 N   0  0  0  0  0  0
  -23.4334  -30.4651   21.5410 C   0  0  2  0  0  0
  -24.8795  -28.8988   20.1169 C   0  0  0  0  0  0
  -22.7533  -29.4515   22.4941 C   0  0  0  0  0  0
  -18.0272  -28.1331   22.8474 C   0  0  0  0  0  0
  -24.1505  -36.7247   23.2641 C   0  0  0  0  0  0
  -25.9811  -30.7493   21.3781 C   0  0  0  0  0  0
  -26.0547  -29.3619   20.7257 C   0  0  0  0  0  0
  -27.2252  -28.5277   20.7286 C   0  0  0  0  0  0
  -26.0230  -26.8235   19.5016 C   0  0  0  0  0  0
  -24.8730  -27.6400   19.4897 C   0  0  0  0  0  0
  -23.6558  -29.7972   20.1581 C   0  0  0  0  0  0
  -25.4134  -36.3032   24.0319 C   0  0  1  0  0  0
  -20.5876  -28.3625   23.1284 C   0  0  2  0  0  0
  -20.6756  -26.9347   22.5410 C   0  0  0  0  0  0
  -19.5738  -26.6334   21.5203 C   0  0  0  0  0  0
  -18.1909  -26.7862   22.1604 C   0  0  0  0  0  0
  -19.1531  -28.8805   23.2849 C   0  0  0  0  0  0
  -18.9468  -30.1412   23.8855 C   0  0  0  0  0  0
  -17.6471  -30.6556   24.0530 C   0  0  0  0  0  0
  -25.9076  -34.9419   23.5060 C   0  0  0  0  0  0
  -16.5354  -29.9037   23.6322 C   0  0  0  0  0  0
  -16.7260  -28.6447   23.0352 C   0  0  0  0  0  0
  -26.4506  -31.6568   25.0676 C   0  0  0  0  0  0
  -25.3700  -31.3716   26.1384 C   0  0  0  0  0  0
  -27.0357  -30.2982   24.6151 C   0  0  0  0  0  0
  -27.6057  -32.4331   25.7463 C   0  0  0  0  0  0
  -27.5581  -37.1776   24.8468 C   0  0  0  0  0  0
  -21.4236  -29.2976   22.3713 N   0  0  0  0  0  0
  -26.4298  -37.3749   23.9406 N   0  0  0  0  0  0
  -24.7022  -31.0428   22.0931 N   0  0  0  0  0  0
  -23.4234  -28.8064   23.3050 O   0  0  0  0  0  0
  -28.2904  -26.2759   20.1973 O   0  0  0  0  0  0
  -26.5668  -34.8926   22.4641 O   0  0  0  0  0  0
  -23.5496  -32.1373   23.7214 O   0  0  0  0  0  0
  -29.5515  -21.0289   20.2358 C   0  0  0  0  0  0
  -29.1061  -19.7031   20.4653 C   0  0  0  0  0  0
  -27.3862  -21.2146   20.5088 C   0  0  0  0  0  0
  -29.5456  -17.0515   21.5108 C   0  0  0  0  0  0
  -29.6876  -17.0956   19.4335 C   0  0  0  0  0  0
  -29.7902  -18.2352   20.5039 C   0  0  0  0  0  0
  -25.9624  -21.6696   20.5696 C   0  0  0  0  0  0
  -26.9805  -24.6688   21.6768 C   0  0  0  0  0  0
  -28.4554  -23.4902   19.7871 C   0  0  0  0  0  0
  -28.1777  -24.8305   20.7192 C   0  0  2  0  0  0
  -28.4834  -21.9652   20.2439 N   0  0  0  0  0  0
  -27.7602  -19.9160   20.6554 N   0  3  0  0  0  0
  -29.7362  -15.9923   20.4572 N   0  0  0  0  0  0
  -31.4779  -12.6819   19.1748 H   0  0  0  0  0  0
  -30.4339  -11.5598   20.0031 H   0  0  0  0  0  0
  -29.8240  -11.7105   17.5654 H   0  0  0  0  0  0
  -29.6083  -13.4405   17.7028 H   0  0  0  0  0  0
  -27.9617  -11.2511   19.0043 H   0  0  0  0  0  0
  -27.3818  -12.4041   17.8298 H   0  0  0  0  0  0
  -27.6179  -14.2336   19.4191 H   0  0  0  0  0  0
  -28.7359  -12.2575   21.4784 H   0  0  0  0  0  0
  -28.3892  -13.9496   21.7508 H   0  0  0  0  0  0
  -25.2785   -9.5690   22.4748 H   0  0  0  0  0  0
  -24.0002   -7.4665   22.7482 H   0  0  0  0  0  0
  -21.0879   -8.8816   19.8934 H   0  0  0  0  0  0
  -22.3759  -10.9691   19.6143 H   0  0  0  0  0  0
  -21.2000   -7.6161   23.9745 H   0  0  0  0  0  0
  -21.1461   -6.0512   25.9086 H   0  0  0  0  0  0
  -22.0598   -2.7632   23.2818 H   0  0  0  0  0  0
  -22.4093  -11.9933   22.4797 H   0  0  0  0  0  0
  -21.1075  -13.1254   22.2528 H   0  0  0  0  0  0
  -24.6681  -15.8523   20.5209 H   0  0  0  0  0  0
  -26.2936  -15.6222   20.1002 H   0  0  0  0  0  0
  -26.7223  -32.5398   23.1019 H   0  0  0  0  0  0
  -25.0081  -33.9609   25.0339 H   0  0  0  0  0  0
  -22.7310  -31.2868   21.3948 H   0  0  0  0  0  0
  -23.3773  -35.9570   23.3294 H   0  0  0  0  0  0
  -24.3598  -36.8893   22.2057 H   0  0  0  0  0  0
  -23.7244  -37.6428   23.6700 H   0  0  0  0  0  0
  -26.1217  -31.5123   20.6110 H   0  0  0  0  0  0
  -26.8553  -30.8040   22.0133 H   0  0  0  0  0  0
  -28.1277  -28.8744   21.2147 H   0  0  0  0  0  0
  -25.9817  -25.8609   19.0123 H   0  0  0  0  0  0
  -23.9768  -27.2862   18.9960 H   0  0  0  0  0  0
  -23.7913  -30.5762   19.4072 H   0  0  0  0  0  0
  -22.7704  -29.2394   19.8471 H   0  0  0  0  0  0
  -25.1315  -36.1870   25.0808 H   0  0  0  0  0  0
  -20.9935  -28.3187   24.1418 H   0  0  0  0  0  0
  -20.5650  -26.2222   23.3606 H   0  0  0  0  0  0
  -21.6626  -26.7355   22.1221 H   0  0  0  0  0  0
  -19.6913  -25.6243   21.1238 H   0  0  0  0  0  0
  -19.6686  -27.3139   20.6740 H   0  0  0  0  0  0
  -17.4177  -26.6602   21.4000 H   0  0  0  0  0  0
  -18.0294  -25.9995   22.8997 H   0  0  0  0  0  0
  -19.7962  -30.7200   24.2234 H   0  0  0  0  0  0
  -17.5039  -31.6251   24.5095 H   0  0  0  0  0  0
  -15.5350  -30.2929   23.7683 H   0  0  0  0  0  0
  -15.8657  -28.0772   22.7090 H   0  0  0  0  0  0
  -24.5941  -30.6986   25.7709 H   0  0  0  0  0  0
  -24.8797  -32.2867   26.4709 H   0  0  0  0  0  0
  -25.8002  -30.8986   27.0216 H   0  0  0  0  0  0
  -26.2894  -29.6714   24.1247 H   0  0  0  0  0  0
  -27.4110  -29.7270   25.4646 H   0  0  0  0  0  0
  -27.8765  -30.4245   23.9328 H   0  0  0  0  0  0
  -27.2652  -33.3687   26.1914 H   0  0  0  0  0  0
  -28.3922  -32.6789   25.0314 H   0  0  0  0  0  0
  -28.0642  -31.8513   26.5471 H   0  0  0  0  0  0
  -28.2577  -38.0097   24.7537 H   0  0  0  0  0  0
  -28.1089  -36.2616   24.6274 H   0  0  0  0  0  0
  -27.2286  -37.1388   25.8868 H   0  0  0  0  0  0
  -20.9453  -29.8707   21.6912 H   0  0  0  0  0  0
  -26.0166  -38.2806   24.1450 H   0  0  0  0  0  0
  -30.5533  -21.3667   20.0123 H   0  0  0  0  0  0
  -28.5373  -17.0560   21.9308 H   0  0  0  0  0  0
  -30.2845  -17.0284   22.3134 H   0  0  0  0  0  0
  -30.5236  -17.0977   18.7312 H   0  0  0  0  0  0
  -28.7460  -17.1186   18.8817 H   0  0  0  0  0  0
  -30.8545  -18.4532   20.5893 H   0  0  0  0  0  0
  -25.7523  -22.0128   21.5828 H   0  0  0  0  0  0
  -25.3115  -20.8283   20.3273 H   0  0  0  0  0  0
  -25.8050  -22.4682   19.8447 H   0  0  0  0  0  0
  -27.0862  -23.7799   22.2963 H   0  0  0  0  0  0
  -26.0402  -24.5857   21.1355 H   0  0  0  0  0  0
  -26.8928  -25.5125   22.3614 H   0  0  0  0  0  0
  -29.4116  -23.6485   19.2910 H   0  0  0  0  0  0
  -27.7304  -23.5220   18.9741 H   0  0  0  0  0  0
  -29.0311  -24.8116   21.3976 H   0  0  0  0  0  0
  -27.1042  -19.1684   20.8539 H   0  0  0  0  0  0
  1 25  1  0  0  0
  1 30  2  0  0  0
  1 83  1  0  0  0
  2  3  1  0  0  0
  2 25  1  0  0  0
  2 84  1  0  0  0
  2 85  1  0  0  0
  3  4  1  0  0  0
  3 86  1  0  0  0
  3 87  1  0  0  0
  4  5  1  0  0  0
  4 88  1  0  0  0
  4 89  1  0  0  0
  5  6  1  0  0  0
  5 26  1  0  0  0
  5 90  1  0  0  0
  6 25  1  0  0  0
  6 91  1  0  0  0
  6 92  1  0  0  0
  7  8  2  0  0  0
  7 26  1  0  0  0
  7 29  1  0  0  0
  8  9  1  0  0  0
  8 22  1  0  0  0
  9 10  1  0  0  0
  9 27  2  0  0  0
 10 11  2  0  0  0
 10 15  1  0  0  0
 11 12  1  0  0  0
 11 93  1  0  0  0
 12 13  2  0  0  0
 12 94  1  0  0  0
 13 14  1  0  0  0
 13 31  1  0  0  0
 14 15  2  0  0  0
 14 95  1  0  0  0
 15 96  1  0  0  0
 16 17  2  0  0  0
 16 21  1  0  0  0
 16 31  1  0  0  0
 17 18  1  0  0  0
 17 97  1  0  0  0
 18 19  2  0  0  0
 18 98  1  0  0  0
 19 20  1  0  0  0
 19 24  1  0  0  0
 20 21  2  0  0  0
 20 99  1  0  0  0
 21 23  1  0  0  0
 22 28  1  0  0  0
 22 32  2  0  0  0
 26 27  1  0  0  0
 28100  1  0  0  0
 28101  1  0  0  0
 29102  1  0  0  0
 29103  1  0  0  0
 33 34  1  0  0  0
 33 66  1  0  0  0
 33 70  2  0  0  0
 34 36  1  0  0  0
 34 59  1  0  0  0
 34104  1  0  0  0
 35 44  2  0  0  0
 35 45  1  0  0  0
 35 68  1  0  0  0
 36 56  1  0  0  0
 36105  1  0  0  0
 37 39  1  0  0  0
 37 47  1  0  0  0
 37 66  1  0  0  0
 37106  1  0  0  0
 38 43  2  0  0  0
 38 46  1  0  0  0
 38 47  1  0  0  0
 39 64  1  0  0  0
 39 67  2  0  0  0
 40 52  1  0  0  0
 40 53  2  0  0  0
 40 58  1  0  0  0
 41107  1  0  0  0
 41108  1  0  0  0
 41109  1  0  0  0
 41 48  1  0  0  0
 42 43  1  0  0  0
 42 66  1  0  0  0
 42110  1  0  0  0
 42111  1  0  0  0
 43 44  1  0  0  0
 44112  1  0  0  0
 45 46  2  0  0  0
 45113  1  0  0  0
 46114  1  0  0  0
 47115  1  0  0  0
 47116  1  0  0  0
 48 56  1  0  0  0
 48 65  1  0  0  0
 48117  1  0  0  0
 49 50  1  0  0  0
 49 53  1  0  0  0
 49 64  1  0  0  0
 49118  1  0  0  0
 50 51  1  0  0  0
 50119  1  0  0  0
 50120  1  0  0  0
 51 52  1  0  0  0
 51121  1  0  0  0
 51122  1  0  0  0
 52123  1  0  0  0
 52124  1  0  0  0
 53 54  1  0  0  0
 54 55  2  0  0  0
 54125  1  0  0  0
 55 57  1  0  0  0
 55126  1  0  0  0
 56 69  2  0  0  0
 57 58  2  0  0  0
 57127  1  0  0  0
 58128  1  0  0  0
 59 60  1  0  0  0
 59 61  1  0  0  0
 59 62  1  0  0  0
 60129  1  0  0  0
 60130  1  0  0  0
 60131  1  0  0  0
 61132  1  0  0  0
 61133  1  0  0  0
 61134  1  0  0  0
 62135  1  0  0  0
 62136  1  0  0  0
 62137  1  0  0  0
 63 65  1  0  0  0
 63138  1  0  0  0
 63139  1  0  0  0
 63140  1  0  0  0
 64141  1  0  0  0
 65142  1  0  0  0
 68 80  1  0  0  0
 71 72  2  0  0  0
 71 81  1  0  0  0
 71143  1  0  0  0
 72 82  1  0  0  0
 72 76  1  0  0  0
 73 77  1  0  0  0
 73 81  1  0  0  0
 73 82  2  0  0  0
 74 76  1  0  0  0
 74 83  1  0  0  0
 74144  1  0  0  0
 74145  1  0  0  0
 75 76  1  0  0  0
 75 83  1  0  0  0
 75146  1  0  0  0
 75147  1  0  0  0
 76148  1  0  0  0
 77149  1  0  0  0
 77150  1  0  0  0
 77151  1  0  0  0
 78152  1  0  0  0
 78153  1  0  0  0
 78154  1  0  0  0
 78 80  1  0  0  0
 79 80  1  0  0  0
 79 81  1  0  0  0
 79155  1  0  0  0
 79156  1  0  0  0
 80157  1  0  0  0
 82158  1  0  0  0
M  CHG  1  82   1
M  ISO  4   1 100  68 101  80 101  83 100
M  END
> <chiral flag>
0

> <version>
0

> <s_m_source_file>
/data/baiqing/PycharmProjects/Reinvent-master-3.2/result/LINK_invent/BTK/process_docking_weight1_custom_sum_contain_oxygen_bond_distance_aromatic_linkinvent_7_9_3/rearranged_h_0182.sdf

> <i_m_source_file_index>
5

> <r_mmod_Potential_Energy-OPLS-2005>
334.827423095703

> <r_mmod_Stretch_Energy-OPLS-2005>
170.802291870117

> <r_mmod_Bend_Energy-OPLS-2005>
224.36360168457

> <r_mmod_Torsional_Energy-OPLS-2005>
314.033355712891

> <r_mmod_Improper_Torsional_Energy-OPLS-2005>
16.5622882843018

> <r_mmod_Van_der_Waal_Energy-OPLS-2005>
101.012390136719

> <r_mmod_Electrostatic_Energy-OPLS-2005>
-199.061416625977

> <r_mmod_Solvation_Energy-OPLS-2005>
-425.954498291016

> <b_mmod_Minimization_Converged-OPLS-2005>
0

> <r_mmod_RMS_Derivative-OPLS-2005>
3.71284008026123

$$$$
5
                    3D
 Structure written by MMmdl.
150158  0  0  1  0            999 V2000
  -30.4443  -15.4187   20.3527 C   0  0  0  0  0  0
  -30.4119  -12.9276   19.5282 C   0  0  0  0  0  0
  -29.5273  -12.6016   18.2994 C   0  0  0  0  0  0
  -28.0896  -12.2961   18.7412 C   0  0  0  0  0  0
  -27.5954  -13.2967   19.8137 C   0  0  2  0  0  0
  -28.6223  -13.5724   20.9357 C   0  0  0  0  0  0
  -25.2325  -13.8291   20.5806 C   0  0  0  0  0  0
  -24.1700  -13.0449   20.9287 C   0  0  0  0  0  0
  -24.6384  -11.6953   20.8776 C   0  0  0  0  0  0
  -23.9094  -10.4299   21.0405 C   0  0  0  0  0  0
  -24.3639   -9.4212   21.9182 C   0  0  0  0  0  0
  -23.6307   -8.2250   22.0752 C   0  0  0  0  0  0
  -22.4289   -8.0287   21.3544 C   0  0  0  0  0  0
  -21.9930   -9.0261   20.4645 C   0  0  0  0  0  0
  -22.7264  -10.2137   20.3053 C   0  0  0  0  0  0
  -21.6858   -6.0740   22.5277 C   0  0  0  0  0  0
  -21.4018   -6.5642   23.8211 C   0  0  0  0  0  0
  -21.3659   -5.6794   24.9172 C   0  0  0  0  0  0
  -21.6044   -4.3057   24.7222 C   0  0  0  0  0  0
  -21.8819   -3.8149   23.4343 C   0  0  0  0  0  0
  -21.9194   -4.6967   22.3400 C   0  0  0  0  0  0
  -22.7714  -13.5184   21.1922 C   0  0  0  0  0  0
  -22.1662   -4.2152   21.0978 F   0  0  0  0  0  0
  -21.5627   -3.4539   25.7734 F   0  0  0  0  0  0
  -29.8241  -14.1186   20.2770 N   0  0  0  0  0  0
  -26.2754  -12.9601   20.3249 N   0  0  0  0  0  0
  -25.9326  -11.6684   20.5734 N   0  0  0  0  0  0
  -22.0382  -12.8156   22.0475 N   0  0  0  0  0  0
  -25.3960  -15.2029   20.4273 N   0  0  0  0  0  0
  -31.6694  -15.2857   20.1796 O   0  0  0  0  0  0
  -21.6648   -6.8886   21.4242 O   0  0  0  0  0  0
  -22.3390  -14.5484   20.6762 O   0  0  0  0  0  0
  -24.6716  -31.8132   23.1616 C   0  0  0  0  0  0
  -25.9355  -32.4532   23.8116 C   0  0  1  0  0  0
  -27.2165  -26.8294   20.1989 C   0  0  0  0  0  0
  -25.5983  -33.8351   24.2015 N   0  0  0  0  0  0
  -23.4911  -30.4205   21.5123 C   0  0  2  0  0  0
  -24.9458  -28.7871   20.1120 C   0  0  0  0  0  0
  -22.7709  -29.4385   22.4741 C   0  0  0  0  0  0
  -18.0329  -28.1414   22.8466 C   0  0  0  0  0  0
  -24.1488  -36.7180   23.2650 C   0  0  0  0  0  0
  -26.0647  -30.5874   21.4068 C   0  0  0  0  0  0
  -26.1308  -29.1666   20.7535 C   0  0  0  0  0  0
  -27.2567  -28.2108   20.7693 C   0  0  0  0  0  0
  -26.0034  -26.6264   19.5014 C   0  0  0  0  0  0
  -24.9132  -27.5406   19.4636 C   0  0  0  0  0  0
  -23.7369  -29.7276   20.1421 C   0  0  0  0  0  0
  -25.4135  -36.2933   24.0290 C   0  0  1  0  0  0
  -20.5958  -28.3767   23.1167 C   0  0  2  0  0  0
  -20.6799  -26.9435   22.5405 C   0  0  0  0  0  0
  -19.5774  -26.6374   21.5217 C   0  0  0  0  0  0
  -18.1958  -26.7947   22.1621 C   0  0  0  0  0  0
  -19.1594  -28.8912   23.2800 C   0  0  0  0  0  0
  -18.9502  -30.1499   23.8840 C   0  0  0  0  0  0
  -17.6496  -30.6603   24.0554 C   0  0  0  0  0  0
  -25.9109  -34.9320   23.4982 C   0  0  0  0  0  0
  -16.5385  -29.9089   23.6348 C   0  0  0  0  0  0
  -16.7310  -28.6508   23.0369 C   0  0  0  0  0  0
  -26.4575  -31.6520   25.0689 C   0  0  0  0  0  0
  -25.3672  -31.3805   26.1327 C   0  0  0  0  0  0
  -27.0494  -30.2874   24.6502 C   0  0  0  0  0  0
  -27.6043  -32.4361   25.7499 C   0  0  0  0  0  0
  -27.5562  -37.1744   24.8468 C   0  0  0  0  0  0
  -21.4367  -29.3039   22.3499 N   0  0  0  0  0  0
  -26.4272  -37.3680   23.9409 N   0  0  0  0  0  0
  -24.7645  -30.9703   22.0799 N   0  0  0  0  0  0
  -23.4212  -28.7968   23.3027 O   0  0  0  0  0  0
  -28.1980  -25.6754   20.2964 O   0  0  0  0  0  0
  -26.5736  -34.8878   22.4590 O   0  0  0  0  0  0
  -23.5764  -32.1148   23.6651 O   0  0  0  0  0  0
  -28.3382  -19.2858   20.9349 C   0  0  0  0  0  0
  -30.3696  -19.7324   20.0912 C   0  0  0  0  0  0
  -28.5391  -17.5979   20.6212 C   0  0  0  0  0  0
  -30.6047  -18.0889   19.7266 C   0  0  0  0  0  0
  -28.9615  -20.5874   20.0971 C   0  0  0  0  0  0
  -28.9102  -22.4237   20.4950 C   0  0  0  0  0  0
  -28.0051  -24.0012   20.0684 C   0  0  0  0  0  0
  -29.8709  -16.8421   20.3101 N   0  0  0  0  0  0
  -31.4247  -13.1252   19.1757 H   0  0  0  0  0  0
  -30.5044  -12.0584   20.1814 H   0  0  0  0  0  0
  -29.9381  -11.7574   17.7439 H   0  0  0  0  0  0
  -29.5278  -13.4516   17.6156 H   0  0  0  0  0  0
  -28.0796  -11.2865   19.1531 H   0  0  0  0  0  0
  -27.4165  -12.2841   17.8825 H   0  0  0  0  0  0
  -27.4772  -14.2360   19.2715 H   0  0  0  0  0  0
  -28.8341  -12.6768   21.5217 H   0  0  0  0  0  0
  -28.2288  -14.3152   21.6316 H   0  0  0  0  0  0
  -25.2777   -9.5692   22.4767 H   0  0  0  0  0  0
  -24.0010   -7.4644   22.7477 H   0  0  0  0  0  0
  -21.0859   -8.8788   19.8952 H   0  0  0  0  0  0
  -22.3718  -10.9681   19.6169 H   0  0  0  0  0  0
  -21.2012   -7.6149   23.9715 H   0  0  0  0  0  0
  -21.1479   -6.0522   25.9075 H   0  0  0  0  0  0
  -22.0598   -2.7610   23.2842 H   0  0  0  0  0  0
  -22.4022  -11.9827   22.4861 H   0  0  0  0  0  0
  -21.0994  -13.1155   22.2688 H   0  0  0  0  0  0
  -24.6298  -15.8558   20.5520 H   0  0  0  0  0  0
  -26.2492  -15.6469   20.1144 H   0  0  0  0  0  0
  -26.7428  -32.5041   23.0827 H   0  0  0  0  0  0
  -25.0062  -33.9406   25.0120 H   0  0  0  0  0  0
  -22.8094  -31.2545   21.3330 H   0  0  0  0  0  0
  -23.3765  -35.9494   23.3282 H   0  0  0  0  0  0
  -24.3554  -36.8869   22.2071 H   0  0  0  0  0  0
  -23.7236  -37.6349   23.6740 H   0  0  0  0  0  0
  -26.2560  -31.3214   20.6232 H   0  0  0  0  0  0
  -26.9202  -30.6476   22.0673 H   0  0  0  0  0  0
  -28.1497  -28.4998   21.3058 H   0  0  0  0  0  0
  -25.8608  -25.6753   19.0083 H   0  0  0  0  0  0
  -24.0146  -27.2441   18.9400 H   0  0  0  0  0  0
  -23.9007  -30.4922   19.3821 H   0  0  0  0  0  0
  -22.8440  -29.1876   19.8222 H   0  0  0  0  0  0
  -25.1337  -36.1712   25.0781 H   0  0  0  0  0  0
  -21.0045  -28.3389   24.1290 H   0  0  0  0  0  0
  -20.5677  -26.2385   23.3655 H   0  0  0  0  0  0
  -21.6661  -26.7399   22.1212 H   0  0  0  0  0  0
  -19.6931  -25.6269   21.1285 H   0  0  0  0  0  0
  -19.6719  -27.3151   20.6722 H   0  0  0  0  0  0
  -17.4227  -26.6694   21.4024 H   0  0  0  0  0  0
  -18.0343  -26.0100   22.9027 H   0  0  0  0  0  0
  -19.7979  -30.7327   24.2185 H   0  0  0  0  0  0
  -17.5050  -31.6278   24.5164 H   0  0  0  0  0  0
  -15.5383  -30.2974   23.7707 H   0  0  0  0  0  0
  -15.8709  -28.0807   22.7120 H   0  0  0  0  0  0
  -24.5869  -30.7142   25.7632 H   0  0  0  0  0  0
  -24.8846  -32.3017   26.4597 H   0  0  0  0  0  0
  -25.7875  -30.9070   27.0210 H   0  0  0  0  0  0
  -26.3187  -29.6513   24.1495 H   0  0  0  0  0  0
  -27.3972  -29.7285   25.5199 H   0  0  0  0  0  0
  -27.9146  -30.4030   23.9973 H   0  0  0  0  0  0
  -27.2593  -33.3720   26.1906 H   0  0  0  0  0  0
  -28.3937  -32.6833   25.0389 H   0  0  0  0  0  0
  -28.0618  -31.8607   26.5556 H   0  0  0  0  0  0
  -28.2559  -38.0058   24.7507 H   0  0  0  0  0  0
  -28.1078  -36.2581   24.6306 H   0  0  0  0  0  0
  -27.2274  -37.1398   25.8870 H   0  0  0  0  0  0
  -20.9640  -29.8714   21.6601 H   0  0  0  0  0  0
  -26.0110  -38.2732   24.1429 H   0  0  0  0  0  0
  -28.6548  -19.4221   21.9709 H   0  0  0  0  0  0
  -27.2615  -19.4523   20.9830 H   0  0  0  0  0  0
  -31.0366  -20.2766   19.4215 H   0  0  0  0  0  0
  -30.8246  -19.8855   21.0716 H   0  0  0  0  0  0
  -27.8940  -17.3676   19.7727 H   0  0  0  0  0  0
  -28.0855  -17.0614   21.4558 H   0  0  0  0  0  0
  -31.6694  -17.9009   19.8712 H   0  0  0  0  0  0
  -30.4673  -17.9980   18.6481 H   0  0  0  0  0  0
  -28.5658  -20.5210   19.0829 H   0  0  0  0  0  0
  -29.9226  -22.7086   20.2088 H   0  0  0  0  0  0
  -28.9529  -22.4447   21.5839 H   0  0  0  0  0  0
  -26.9971  -23.8278   20.4462 H   0  0  0  0  0  0
  -27.8845  -23.9386   18.9869 H   0  0  0  0  0  0
  1 25  1  0  0  0
  1 30  2  0  0  0
  1 78  1  0  0  0
  2  3  1  0  0  0
  2 25  1  0  0  0
  2 79  1  0  0  0
  2 80  1  0  0  0
  3  4  1  0  0  0
  3 81  1  0  0  0
  3 82  1  0  0  0
  4  5  1  0  0  0
  4 83  1  0  0  0
  4 84  1  0  0  0
  5  6  1  0  0  0
  5 26  1  0  0  0
  5 85  1  0  0  0
  6 25  1  0  0  0
  6 86  1  0  0  0
  6 87  1  0  0  0
  7  8  2  0  0  0
  7 26  1  0  0  0
  7 29  1  0  0  0
  8  9  1  0  0  0
  8 22  1  0  0  0
  9 10  1  0  0  0
  9 27  2  0  0  0
 10 11  2  0  0  0
 10 15  1  0  0  0
 11 12  1  0  0  0
 11 88  1  0  0  0
 12 13  2  0  0  0
 12 89  1  0  0  0
 13 14  1  0  0  0
 13 31  1  0  0  0
 14 15  2  0  0  0
 14 90  1  0  0  0
 15 91  1  0  0  0
 16 17  2  0  0  0
 16 21  1  0  0  0
 16 31  1  0  0  0
 17 18  1  0  0  0
 17 92  1  0  0  0
 18 19  2  0  0  0
 18 93  1  0  0  0
 19 20  1  0  0  0
 19 24  1  0  0  0
 20 21  2  0  0  0
 20 94  1  0  0  0
 21 23  1  0  0  0
 22 28  1  0  0  0
 22 32  2  0  0  0
 26 27  1  0  0  0
 28 95  1  0  0  0
 28 96  1  0  0  0
 29 97  1  0  0  0
 29 98  1  0  0  0
 33 34  1  0  0  0
 33 66  1  0  0  0
 33 70  2  0  0  0
 34 36  1  0  0  0
 34 59  1  0  0  0
 34 99  1  0  0  0
 35 44  2  0  0  0
 35 45  1  0  0  0
 35 68  1  0  0  0
 36 56  1  0  0  0
 36100  1  0  0  0
 37 39  1  0  0  0
 37 47  1  0  0  0
 37 66  1  0  0  0
 37101  1  0  0  0
 38 43  2  0  0  0
 38 46  1  0  0  0
 38 47  1  0  0  0
 39 64  1  0  0  0
 39 67  2  0  0  0
 40 52  1  0  0  0
 40 53  2  0  0  0
 40 58  1  0  0  0
 41102  1  0  0  0
 41103  1  0  0  0
 41104  1  0  0  0
 41 48  1  0  0  0
 42 43  1  0  0  0
 42 66  1  0  0  0
 42105  1  0  0  0
 42106  1  0  0  0
 43 44  1  0  0  0
 44107  1  0  0  0
 45 46  2  0  0  0
 45108  1  0  0  0
 46109  1  0  0  0
 47110  1  0  0  0
 47111  1  0  0  0
 48 56  1  0  0  0
 48 65  1  0  0  0
 48112  1  0  0  0
 49 50  1  0  0  0
 49 53  1  0  0  0
 49 64  1  0  0  0
 49113  1  0  0  0
 50 51  1  0  0  0
 50114  1  0  0  0
 50115  1  0  0  0
 51 52  1  0  0  0
 51116  1  0  0  0
 51117  1  0  0  0
 52118  1  0  0  0
 52119  1  0  0  0
 53 54  1  0  0  0
 54 55  2  0  0  0
 54120  1  0  0  0
 55 57  1  0  0  0
 55121  1  0  0  0
 56 69  2  0  0  0
 57 58  2  0  0  0
 57122  1  0  0  0
 58123  1  0  0  0
 59 60  1  0  0  0
 59 61  1  0  0  0
 59 62  1  0  0  0
 60124  1  0  0  0
 60125  1  0  0  0
 60126  1  0  0  0
 61127  1  0  0  0
 61128  1  0  0  0
 61129  1  0  0  0
 62130  1  0  0  0
 62131  1  0  0  0
 62132  1  0  0  0
 63 65  1  0  0  0
 63133  1  0  0  0
 63134  1  0  0  0
 63135  1  0  0  0
 64136  1  0  0  0
 65137  1  0  0  0
 68 77  1  0  0  0
 71 73  1  0  0  0
 71 75  1  0  0  0
 71138  1  0  0  0
 71139  1  0  0  0
 72 74  1  0  0  0
 72 75  1  0  0  0
 72140  1  0  0  0
 72141  1  0  0  0
 73 78  1  0  0  0
 73142  1  0  0  0
 73143  1  0  0  0
 74 78  1  0  0  0
 74144  1  0  0  0
 74145  1  0  0  0
 75 76  1  0  0  0
 75146  1  0  0  0
 76 77  1  0  0  0
 76147  1  0  0  0
 76148  1  0  0  0
 77149  1  0  0  0
 77150  1  0  0  0
M  ISO  4   1 100  68 101  77 101  78 100
M  END
> <chiral flag>
0

> <version>
0

> <s_m_source_file>
/data/baiqing/PycharmProjects/Reinvent-master-3.2/result/LINK_invent/BTK/process_docking_weight1_custom_sum_contain_oxygen_bond_distance_aromatic_linkinvent_7_9_3/rearranged_h_0182.sdf

> <i_m_source_file_index>
6

> <r_mmod_Potential_Energy-OPLS-2005>
1987.31433105469

> <r_mmod_Stretch_Energy-OPLS-2005>
758.320434570312

> <r_mmod_Bend_Energy-OPLS-2005>
641.05517578125

> <r_mmod_Torsional_Energy-OPLS-2005>
311.031341552734

> <r_mmod_Improper_Torsional_Energy-OPLS-2005>
7.76603746414185

> <r_mmod_Van_der_Waal_Energy-OPLS-2005>
115.90389251709

> <r_mmod_Electrostatic_Energy-OPLS-2005>
-266.089538574219

> <r_mmod_Solvation_Energy-OPLS-2005>
-202.874450683594

> <b_mmod_Minimization_Converged-OPLS-2005>
0

> <r_mmod_RMS_Derivative-OPLS-2005>
0.539686918258667

$$$$
6
                    3D
 Structure written by MMmdl.
154163  0  0  1  0            999 V2000
  -30.4618  -15.3167   20.3869 C   0  0  0  0  0  0
  -30.4331  -12.8482   19.5386 C   0  0  0  0  0  0
  -29.5399  -12.6011   18.2967 C   0  0  0  0  0  0
  -28.0899  -12.3160   18.7208 C   0  0  0  0  0  0
  -27.6125  -13.2870   19.8303 C   0  0  2  0  0  0
  -28.6464  -13.4791   20.9638 C   0  0  0  0  0  0
  -25.2349  -13.8252   20.5716 C   0  0  0  0  0  0
  -24.1729  -13.0428   20.9264 C   0  0  0  0  0  0
  -24.6415  -11.6935   20.8769 C   0  0  0  0  0  0
  -23.9108  -10.4295   21.0403 C   0  0  0  0  0  0
  -24.3642   -9.4206   21.9181 C   0  0  0  0  0  0
  -23.6309   -8.2244   22.0754 C   0  0  0  0  0  0
  -22.4291   -8.0276   21.3538 C   0  0  0  0  0  0
  -21.9936   -9.0258   20.4647 C   0  0  0  0  0  0
  -22.7274  -10.2134   20.3054 C   0  0  0  0  0  0
  -21.6861   -6.0736   22.5276 C   0  0  0  0  0  0
  -21.4022   -6.5635   23.8211 C   0  0  0  0  0  0
  -21.3667   -5.6787   24.9169 C   0  0  0  0  0  0
  -21.6048   -4.3050   24.7223 C   0  0  0  0  0  0
  -21.8813   -3.8142   23.4340 C   0  0  0  0  0  0
  -21.9191   -4.6961   22.3398 C   0  0  0  0  0  0
  -22.7746  -13.5180   21.1891 C   0  0  0  0  0  0
  -22.1658   -4.2146   21.0977 F   0  0  0  0  0  0
  -21.5627   -3.4533   25.7735 F   0  0  0  0  0  0
  -29.8692  -14.0108   20.3332 N   0  0  0  0  0  0
  -26.2823  -12.9569   20.3256 N   0  0  0  0  0  0
  -25.9364  -11.6663   20.5755 N   0  0  0  0  0  0
  -22.0395  -12.8191   22.0456 N   0  0  0  0  0  0
  -25.3875  -15.1976   20.4031 N   0  0  0  0  0  0
  -31.6738  -15.2648   20.1199 O   0  0  0  0  0  0
  -21.6644   -6.8882   21.4240 O   0  0  0  0  0  0
  -22.3437  -14.5479   20.6717 O   0  0  0  0  0  0
  -24.6634  -31.8213   23.1673 C   0  0  0  0  0  0
  -25.9301  -32.4580   23.8152 C   0  0  1  0  0  0
  -27.2265  -26.9058   20.1963 C   0  0  0  0  0  0
  -25.5958  -33.8397   24.2059 N   0  0  0  0  0  0
  -23.4806  -30.4295   21.5169 C   0  0  2  0  0  0
  -24.9374  -28.8104   20.1118 C   0  0  0  0  0  0
  -22.7674  -29.4422   22.4775 C   0  0  0  0  0  0
  -18.0318  -28.1406   22.8469 C   0  0  0  0  0  0
  -24.1495  -36.7212   23.2650 C   0  0  0  0  0  0
  -26.0493  -30.6217   21.4006 C   0  0  0  0  0  0
  -26.1189  -29.2075   20.7490 C   0  0  0  0  0  0
  -27.2549  -28.2763   20.7670 C   0  0  0  0  0  0
  -26.0185  -26.6686   19.5007 C   0  0  0  0  0  0
  -24.9145  -27.5627   19.4656 C   0  0  0  0  0  0
  -23.7224  -29.7390   20.1450 C   0  0  0  0  0  0
  -25.4138  -36.2970   24.0297 C   0  0  1  0  0  0
  -20.5946  -28.3750   23.1190 C   0  0  2  0  0  0
  -20.6793  -26.9430   22.5407 C   0  0  0  0  0  0
  -19.5768  -26.6372   21.5218 C   0  0  0  0  0  0
  -18.1951  -26.7937   22.1628 C   0  0  0  0  0  0
  -19.1581  -28.8900   23.2812 C   0  0  0  0  0  0
  -18.9489  -30.1488   23.8848 C   0  0  0  0  0  0
  -17.6484  -30.6598   24.0551 C   0  0  0  0  0  0
  -25.9098  -34.9346   23.5007 C   0  0  0  0  0  0
  -16.5373  -29.9086   23.6339 C   0  0  0  0  0  0
  -16.7301  -28.6504   23.0364 C   0  0  0  0  0  0
  -26.4548  -31.6532   25.0689 C   0  0  0  0  0  0
  -25.3664  -31.3791   26.1338 C   0  0  0  0  0  0
  -27.0442  -30.2896   24.6430 C   0  0  0  0  0  0
  -27.6039  -32.4338   25.7497 C   0  0  0  0  0  0
  -27.5567  -37.1774   24.8469 C   0  0  0  0  0  0
  -21.4344  -29.3035   22.3534 N   0  0  0  0  0  0
  -26.4289  -37.3699   23.9393 N   0  0  0  0  0  0
  -24.7524  -30.9854   22.0820 N   0  0  0  0  0  0
  -23.4213  -28.8002   23.3025 O   0  0  0  0  0  0
  -28.2294  -25.7968   20.3140 O   0  0  0  0  0  0
  -26.5722  -34.8887   22.4611 O   0  0  0  0  0  0
  -23.5699  -32.1186   23.6757 O   0  0  0  0  0  0
  -28.0868  -18.5805   20.9264 C   0  0  0  0  0  0
  -30.3810  -22.6039   20.5560 C   0  0  0  0  0  0
  -28.5597  -17.0584   21.1980 C   0  0  0  0  0  0
  -30.1389  -18.1754   19.9797 C   0  0  0  0  0  0
  -30.2385  -21.6080   19.3934 C   0  0  0  0  0  0
  -29.2875  -19.5323   20.6414 C   0  0  1  0  0  0
  -28.8607  -22.6348   20.6409 C   0  0  1  0  0  0
  -28.0858  -24.1631   20.0126 C   0  0  0  0  0  0
  -29.7782  -16.6604   20.4411 N   0  0  0  0  0  0
  -29.0117  -21.0733   19.9888 N   0  3  1  0  0  0
  -31.4545  -13.0398   19.2071 H   0  0  0  0  0  0
  -30.4981  -11.9482   20.1522 H   0  0  0  0  0  0
  -29.9327  -11.7744   17.7031 H   0  0  0  0  0  0
  -29.5658  -13.4811   17.6524 H   0  0  0  0  0  0
  -28.0501  -11.2909   19.0895 H   0  0  0  0  0  0
  -27.4248  -12.3584   17.8577 H   0  0  0  0  0  0
  -27.5227  -14.2536   19.3335 H   0  0  0  0  0  0
  -28.8313  -12.5466   21.5000 H   0  0  0  0  0  0
  -28.2772  -14.1875   21.7053 H   0  0  0  0  0  0
  -25.2777   -9.5684   22.4769 H   0  0  0  0  0  0
  -24.0004   -7.4645   22.7483 H   0  0  0  0  0  0
  -21.0861   -8.8787   19.8965 H   0  0  0  0  0  0
  -22.3722  -10.9673   19.6170 H   0  0  0  0  0  0
  -21.2019   -7.6146   23.9722 H   0  0  0  0  0  0
  -21.1500   -6.0511   25.9077 H   0  0  0  0  0  0
  -22.0588   -2.7604   23.2840 H   0  0  0  0  0  0
  -22.4016  -11.9872   22.4877 H   0  0  0  0  0  0
  -21.1004  -13.1223   22.2634 H   0  0  0  0  0  0
  -24.6022  -15.8337   20.4843 H   0  0  0  0  0  0
  -26.2137  -15.6344   20.0167 H   0  0  0  0  0  0
  -26.7370  -32.5117   23.0870 H   0  0  0  0  0  0
  -25.0020  -33.9468   25.0153 H   0  0  0  0  0  0
  -22.7944  -31.2604   21.3424 H   0  0  0  0  0  0
  -23.3756  -35.9546   23.3314 H   0  0  0  0  0  0
  -24.3558  -36.8857   22.2062 H   0  0  0  0  0  0
  -23.7262  -37.6406   23.6706 H   0  0  0  0  0  0
  -26.2266  -31.3590   20.6163 H   0  0  0  0  0  0
  -26.9101  -30.6860   22.0540 H   0  0  0  0  0  0
  -28.1455  -28.5779   21.3005 H   0  0  0  0  0  0
  -25.8907  -25.7154   19.0083 H   0  0  0  0  0  0
  -24.0177  -27.2539   18.9460 H   0  0  0  0  0  0
  -23.8765  -30.5039   19.3832 H   0  0  0  0  0  0
  -22.8325  -29.1909   19.8303 H   0  0  0  0  0  0
  -25.1345  -36.1776   25.0790 H   0  0  0  0  0  0
  -21.0030  -28.3357   24.1315 H   0  0  0  0  0  0
  -20.5671  -26.2370   23.3650 H   0  0  0  0  0  0
  -21.6656  -26.7404   22.1216 H   0  0  0  0  0  0
  -19.6929  -25.6269   21.1280 H   0  0  0  0  0  0
  -19.6708  -27.3152   20.6725 H   0  0  0  0  0  0
  -17.4222  -26.6674   21.4032 H   0  0  0  0  0  0
  -18.0347  -26.0092   22.9036 H   0  0  0  0  0  0
  -19.7964  -30.7310   24.2206 H   0  0  0  0  0  0
  -17.5035  -31.6274   24.5157 H   0  0  0  0  0  0
  -15.5371  -30.2971   23.7689 H   0  0  0  0  0  0
  -15.8702  -28.0802   22.7116 H   0  0  0  0  0  0
  -24.5851  -30.7146   25.7634 H   0  0  0  0  0  0
  -24.8846  -32.2997   26.4641 H   0  0  0  0  0  0
  -25.7873  -30.9024   27.0199 H   0  0  0  0  0  0
  -26.3107  -29.6568   24.1424 H   0  0  0  0  0  0
  -27.3953  -29.7268   25.5089 H   0  0  0  0  0  0
  -27.9057  -30.4070   23.9855 H   0  0  0  0  0  0
  -27.2610  -33.3683   26.1951 H   0  0  0  0  0  0
  -28.3918  -32.6828   25.0377 H   0  0  0  0  0  0
  -28.0632  -31.8543   26.5516 H   0  0  0  0  0  0
  -28.2597  -38.0055   24.7469 H   0  0  0  0  0  0
  -28.1051  -36.2579   24.6368 H   0  0  0  0  0  0
  -27.2269  -37.1498   25.8869 H   0  0  0  0  0  0
  -20.9607  -29.8712   21.6651 H   0  0  0  0  0  0
  -26.0144  -38.2771   24.1357 H   0  0  0  0  0  0
  -27.4823  -18.9535   21.7541 H   0  0  0  0  0  0
  -27.4350  -18.5833   20.0516 H   0  0  0  0  0  0
  -30.8430  -23.5550   20.2894 H   0  0  0  0  0  0
  -30.8515  -22.1714   21.4412 H   0  0  0  0  0  0
  -27.7469  -16.3695   20.9808 H   0  0  0  0  0  0
  -28.7887  -16.9389   22.2584 H   0  0  0  0  0  0
  -31.2090  -18.3265   20.1249 H   0  0  0  0  0  0
  -29.9942  -18.1939   18.8987 H   0  0  0  0  0  0
  -31.0621  -20.8985   19.3092 H   0  0  0  0  0  0
  -30.0471  -22.1007   18.4380 H   0  0  0  0  0  0
  -29.7699  -19.7384   21.5976 H   0  0  0  0  0  0
  -28.5643  -22.4968   21.6807 H   0  0  0  0  0  0
  -27.0162  -23.9951   20.1350 H   0  0  0  0  0  0
  -28.2208  -24.1288   18.9317 H   0  0  0  0  0  0
  -28.3221  -20.9663   19.2611 H   0  0  0  0  0  0
  1 25  1  0  0  0
  1 30  2  0  0  0
  1 79  1  0  0  0
  2  3  1  0  0  0
  2 25  1  0  0  0
  2 81  1  0  0  0
  2 82  1  0  0  0
  3  4  1  0  0  0
  3 83  1  0  0  0
  3 84  1  0  0  0
  4  5  1  0  0  0
  4 85  1  0  0  0
  4 86  1  0  0  0
  5  6  1  0  0  0
  5 26  1  0  0  0
  5 87  1  0  0  0
  6 25  1  0  0  0
  6 88  1  0  0  0
  6 89  1  0  0  0
  7  8  2  0  0  0
  7 26  1  0  0  0
  7 29  1  0  0  0
  8  9  1  0  0  0
  8 22  1  0  0  0
  9 10  1  0  0  0
  9 27  2  0  0  0
 10 11  2  0  0  0
 10 15  1  0  0  0
 11 12  1  0  0  0
 11 90  1  0  0  0
 12 13  2  0  0  0
 12 91  1  0  0  0
 13 14  1  0  0  0
 13 31  1  0  0  0
 14 15  2  0  0  0
 14 92  1  0  0  0
 15 93  1  0  0  0
 16 17  2  0  0  0
 16 21  1  0  0  0
 16 31  1  0  0  0
 17 18  1  0  0  0
 17 94  1  0  0  0
 18 19  2  0  0  0
 18 95  1  0  0  0
 19 20  1  0  0  0
 19 24  1  0  0  0
 20 21  2  0  0  0
 20 96  1  0  0  0
 21 23  1  0  0  0
 22 28  1  0  0  0
 22 32  2  0  0  0
 26 27  1  0  0  0
 28 97  1  0  0  0
 28 98  1  0  0  0
 29 99  1  0  0  0
 29100  1  0  0  0
 33 34  1  0  0  0
 33 66  1  0  0  0
 33 70  2  0  0  0
 34 36  1  0  0  0
 34 59  1  0  0  0
 34101  1  0  0  0
 35 44  2  0  0  0
 35 45  1  0  0  0
 35 68  1  0  0  0
 36 56  1  0  0  0
 36102  1  0  0  0
 37 39  1  0  0  0
 37 47  1  0  0  0
 37 66  1  0  0  0
 37103  1  0  0  0
 38 43  2  0  0  0
 38 46  1  0  0  0
 38 47  1  0  0  0
 39 64  1  0  0  0
 39 67  2  0  0  0
 40 52  1  0  0  0
 40 53  2  0  0  0
 40 58  1  0  0  0
 41104  1  0  0  0
 41105  1  0  0  0
 41106  1  0  0  0
 41 48  1  0  0  0
 42 43  1  0  0  0
 42 66  1  0  0  0
 42107  1  0  0  0
 42108  1  0  0  0
 43 44  1  0  0  0
 44109  1  0  0  0
 45 46  2  0  0  0
 45110  1  0  0  0
 46111  1  0  0  0
 47112  1  0  0  0
 47113  1  0  0  0
 48 56  1  0  0  0
 48 65  1  0  0  0
 48114  1  0  0  0
 49 50  1  0  0  0
 49 53  1  0  0  0
 49 64  1  0  0  0
 49115  1  0  0  0
 50 51  1  0  0  0
 50116  1  0  0  0
 50117  1  0  0  0
 51 52  1  0  0  0
 51118  1  0  0  0
 51119  1  0  0  0
 52120  1  0  0  0
 52121  1  0  0  0
 53 54  1  0  0  0
 54 55  2  0  0  0
 54122  1  0  0  0
 55 57  1  0  0  0
 55123  1  0  0  0
 56 69  2  0  0  0
 57 58  2  0  0  0
 57124  1  0  0  0
 58125  1  0  0  0
 59 60  1  0  0  0
 59 61  1  0  0  0
 59 62  1  0  0  0
 60126  1  0  0  0
 60127  1  0  0  0
 60128  1  0  0  0
 61129  1  0  0  0
 61130  1  0  0  0
 61131  1  0  0  0
 62132  1  0  0  0
 62133  1  0  0  0
 62134  1  0  0  0
 63 65  1  0  0  0
 63135  1  0  0  0
 63136  1  0  0  0
 63137  1  0  0  0
 64138  1  0  0  0
 65139  1  0  0  0
 68 78  1  0  0  0
 71 73  1  0  0  0
 71140  1  0  0  0
 71141  1  0  0  0
 71 76  1  0  0  0
 72 75  1  0  0  0
 72 77  1  0  0  0
 72142  1  0  0  0
 72143  1  0  0  0
 73 79  1  0  0  0
 73144  1  0  0  0
 73145  1  0  0  0
 74 76  1  0  0  0
 74 79  1  0  0  0
 74146  1  0  0  0
 74147  1  0  0  0
 75148  1  0  0  0
 75149  1  0  0  0
 75 80  1  0  0  0
 76 80  1  0  0  0
 76150  1  0  0  0
 77 78  1  0  0  0
 77 80  1  0  0  0
 77151  1  0  0  0
 78152  1  0  0  0
 78153  1  0  0  0
 80154  1  0  0  0
M  CHG  1  80   1
M  ISO  4   1 100  68 101  78 101  79 100
M  END
> <chiral flag>
0

> <version>
0

> <s_m_source_file>
/data/baiqing/PycharmProjects/Reinvent-master-3.2/result/LINK_invent/BTK/process_docking_weight1_custom_sum_contain_oxygen_bond_distance_aromatic_linkinvent_7_9_3/rearranged_h_0182.sdf

> <i_m_source_file_index>
7

> <r_mmod_Potential_Energy-OPLS-2005>
1450.63134765625

> <r_mmod_Stretch_Energy-OPLS-2005>
638.486633300781

> <r_mmod_Bend_Energy-OPLS-2005>
524.227111816406

> <r_mmod_Torsional_Energy-OPLS-2005>
348.988372802734

> <r_mmod_Improper_Torsional_Energy-OPLS-2005>
7.4404764175415

> <r_mmod_Van_der_Waal_Energy-OPLS-2005>
102.89794921875

> <r_mmod_Electrostatic_Energy-OPLS-2005>
-197.115432739258

> <r_mmod_Solvation_Energy-OPLS-2005>
-470.819793701172

> <b_mmod_Minimization_Converged-OPLS-2005>
0

> <r_mmod_RMS_Derivative-OPLS-2005>
1.20525646209717

$$$$
7
                    3D
 Structure written by MMmdl.
159168  0  0  1  0            999 V2000
  -30.6225  -14.7686   20.4143 C   0  0  0  0  0  0
  -30.4240  -12.4678   19.4649 C   0  0  0  0  0  0
  -29.5020  -12.4883   18.2282 C   0  0  0  0  0  0
  -28.0306  -12.3151   18.6532 C   0  0  0  0  0  0
  -27.6323  -13.2377   19.8377 C   0  0  2  0  0  0
  -28.6817  -13.2217   20.9672 C   0  0  0  0  0  0
  -25.2503  -13.8221   20.5750 C   0  0  0  0  0  0
  -24.1788  -13.0452   20.9206 C   0  0  0  0  0  0
  -24.6389  -11.6932   20.8754 C   0  0  0  0  0  0
  -23.9079  -10.4302   21.0412 C   0  0  0  0  0  0
  -24.3629   -9.4218   21.9192 C   0  0  0  0  0  0
  -23.6303   -8.2254   22.0755 C   0  0  0  0  0  0
  -22.4287   -8.0291   21.3544 C   0  0  0  0  0  0
  -21.9923   -9.0267   20.4649 C   0  0  0  0  0  0
  -22.7252  -10.2146   20.3062 C   0  0  0  0  0  0
  -21.6855   -6.0744   22.5280 C   0  0  0  0  0  0
  -21.4013   -6.5647   23.8213 C   0  0  0  0  0  0
  -21.3660   -5.6800   24.9175 C   0  0  0  0  0  0
  -21.6042   -4.3062   24.7225 C   0  0  0  0  0  0
  -21.8818   -3.8156   23.4345 C   0  0  0  0  0  0
  -21.9192   -4.6973   22.3403 C   0  0  0  0  0  0
  -22.7814  -13.5228   21.1867 C   0  0  0  0  0  0
  -22.1660   -4.2161   21.0980 F   0  0  0  0  0  0
  -21.5629   -3.4542   25.7736 F   0  0  0  0  0  0
  -29.9666  -13.5599   20.3520 N   0  0  0  0  0  0
  -26.2909  -12.9430   20.3284 N   0  0  0  0  0  0
  -25.9319  -11.6566   20.5763 N   0  0  0  0  0  0
  -22.0474  -12.8209   22.0425 N   0  0  0  0  0  0
  -25.4247  -15.1945   20.4253 N   0  0  0  0  0  0
  -31.8474  -14.7827   20.2645 O   0  0  0  0  0  0
  -21.6642   -6.8892   21.4246 O   0  0  0  0  0  0
  -22.3492  -14.5539   20.6730 O   0  0  0  0  0  0
  -24.6322  -31.8537   23.1953 C   0  0  0  0  0  0
  -25.9143  -32.4743   23.8308 C   0  0  1  0  0  0
  -27.2156  -27.2479   20.1408 C   0  0  0  0  0  0
  -25.5937  -33.8545   24.2236 N   0  0  0  0  0  0
  -23.4293  -30.4742   21.5391 C   0  0  2  0  0  0
  -24.8748  -28.9104   20.1168 C   0  0  0  0  0  0
  -22.7505  -29.4598   22.4909 C   0  0  0  0  0  0
  -18.0306  -28.1367   22.8471 C   0  0  0  0  0  0
  -24.1493  -36.7278   23.2639 C   0  0  0  0  0  0
  -25.9739  -30.7643   21.3730 C   0  0  0  0  0  0
  -26.0472  -29.3826   20.7206 C   0  0  0  0  0  0
  -27.2247  -28.5668   20.7129 C   0  0  0  0  0  0
  -26.0207  -26.8356   19.5187 C   0  0  0  0  0  0
  -24.8669  -27.6456   19.5043 C   0  0  0  0  0  0
  -23.6474  -29.8010   20.1582 C   0  0  0  0  0  0
  -25.4120  -36.3058   24.0322 C   0  0  1  0  0  0
  -20.5903  -28.3693   23.1275 C   0  0  2  0  0  0
  -20.6798  -26.9413   22.5415 C   0  0  0  0  0  0
  -19.5791  -26.6390   21.5197 C   0  0  0  0  0  0
  -18.1961  -26.7920   22.1597 C   0  0  0  0  0  0
  -19.1549  -28.8845   23.2874 C   0  0  0  0  0  0
  -18.9464  -30.1441   23.8893 C   0  0  0  0  0  0
  -17.6461  -30.6565   24.0553 C   0  0  0  0  0  0
  -25.9061  -34.9433   23.5085 C   0  0  0  0  0  0
  -16.5358  -29.9058   23.6314 C   0  0  0  0  0  0
  -16.7287  -28.6474   23.0340 C   0  0  0  0  0  0
  -26.4508  -31.6579   25.0710 C   0  0  0  0  0  0
  -25.3727  -31.3741   26.1428 C   0  0  0  0  0  0
  -27.0365  -30.2997   24.6210 C   0  0  0  0  0  0
  -27.6057  -32.4323   25.7492 C   0  0  0  0  0  0
  -27.5575  -37.1797   24.8465 C   0  0  0  0  0  0
  -21.4208  -29.3046   22.3661 N   0  0  0  0  0  0
  -26.4289  -37.3761   23.9405 N   0  0  0  0  0  0
  -24.6980  -31.0490   22.0925 N   0  0  0  0  0  0
  -23.4202  -28.8150   23.3017 O   0  0  0  0  0  0
  -28.3186  -26.3670   20.1262 O   0  0  0  0  0  0
  -26.5633  -34.8915   22.4652 O   0  0  0  0  0  0
  -23.5470  -32.1361   23.7244 O   0  0  0  0  0  0
  -29.3663  -18.4080   20.0527 C   0  0  0  0  0  0
  -28.5957  -19.5098   20.6028 C   0  0  0  0  0  0
  -27.8058  -19.1639   21.6963 C   0  0  0  0  0  0
  -27.8993  -17.8966   22.3113 C   0  0  0  0  0  0
  -29.3664  -17.0790   20.6662 C   0  0  0  0  0  0
  -26.7289  -20.1930   21.9327 C   0  0  0  0  0  0
  -26.7027  -20.9829   20.6037 C   0  0  0  0  0  0
  -28.1432  -20.9401   20.0318 C   0  0  1  0  0  0
  -27.0536  -17.5240   23.5118 C   0  0  0  0  0  0
  -28.3805  -23.6058   19.7886 C   0  0  0  0  0  0
  -28.2008  -24.9633   20.6738 C   0  0  0  0  0  0
  -28.6766  -16.9036   21.8177 N   0  0  0  0  0  0
  -29.9480  -15.9066   19.9894 N   0  0  0  0  0  0
  -28.7986  -22.2641   20.4656 N   0  3  0  0  0  0
  -31.4643  -12.5887   19.1583 H   0  0  0  0  0  0
  -30.3702  -11.5071   19.9793 H   0  0  0  0  0  0
  -29.7857  -11.6994   17.5302 H   0  0  0  0  0  0
  -29.6225  -13.4309   17.6922 H   0  0  0  0  0  0
  -27.8972  -11.2714   18.9411 H   0  0  0  0  0  0
  -27.3681  -12.4810   17.8027 H   0  0  0  0  0  0
  -27.6117  -14.2498   19.4324 H   0  0  0  0  0  0
  -28.7270  -12.2476   21.4558 H   0  0  0  0  0  0
  -28.4244  -13.9506   21.7380 H   0  0  0  0  0  0
  -25.2775   -9.5689   22.4765 H   0  0  0  0  0  0
  -24.0010   -7.4644   22.7473 H   0  0  0  0  0  0
  -21.0852   -8.8793   19.8952 H   0  0  0  0  0  0
  -22.3715  -10.9690   19.6171 H   0  0  0  0  0  0
  -21.2005   -7.6156   23.9720 H   0  0  0  0  0  0
  -21.1479   -6.0528   25.9076 H   0  0  0  0  0  0
  -22.0595   -2.7620   23.2840 H   0  0  0  0  0  0
  -22.4097  -11.9856   22.4783 H   0  0  0  0  0  0
  -21.1096  -13.1230   22.2663 H   0  0  0  0  0  0
  -24.6729  -15.8589   20.5680 H   0  0  0  0  0  0
  -26.3126  -15.6347   20.2157 H   0  0  0  0  0  0
  -26.7206  -32.5398   23.1044 H   0  0  0  0  0  0
  -25.0093  -33.9682   25.0388 H   0  0  0  0  0  0
  -22.7262  -31.2962   21.3897 H   0  0  0  0  0  0
  -23.3755  -35.9610   23.3301 H   0  0  0  0  0  0
  -24.3576  -36.8906   22.2053 H   0  0  0  0  0  0
  -23.7251  -37.6482   23.6667 H   0  0  0  0  0  0
  -26.1102  -31.5221   20.6002 H   0  0  0  0  0  0
  -26.8522  -30.8169   22.0048 H   0  0  0  0  0  0
  -28.1288  -28.9302   21.1809 H   0  0  0  0  0  0
  -25.9742  -25.8648   19.0456 H   0  0  0  0  0  0
  -23.9672  -27.2781   19.0299 H   0  0  0  0  0  0
  -23.7740  -30.5729   19.3984 H   0  0  0  0  0  0
  -22.7652  -29.2346   19.8549 H   0  0  0  0  0  0
  -25.1302  -36.1899   25.0813 H   0  0  0  0  0  0
  -21.0000  -28.3282   24.1391 H   0  0  0  0  0  0
  -20.5672  -26.2293   23.3605 H   0  0  0  0  0  0
  -21.6674  -26.7441   22.1222 H   0  0  0  0  0  0
  -19.6966  -25.6306   21.1215 H   0  0  0  0  0  0
  -19.6737  -27.3211   20.6735 H   0  0  0  0  0  0
  -17.4245  -26.6669   21.3986 H   0  0  0  0  0  0
  -18.0362  -26.0049   22.8978 H   0  0  0  0  0  0
  -19.7934  -30.7256   24.2278 H   0  0  0  0  0  0
  -17.5004  -31.6249   24.5149 H   0  0  0  0  0  0
  -15.5357  -30.2949   23.7631 H   0  0  0  0  0  0
  -15.8689  -28.0785   22.7065 H   0  0  0  0  0  0
  -24.5896  -30.7095   25.7756 H   0  0  0  0  0  0
  -24.8927  -32.2923   26.4830 H   0  0  0  0  0  0
  -25.8034  -30.8931   27.0219 H   0  0  0  0  0  0
  -26.2958  -29.6732   24.1227 H   0  0  0  0  0  0
  -27.4040  -29.7268   25.4735 H   0  0  0  0  0  0
  -27.8832  -30.4273   23.9461 H   0  0  0  0  0  0
  -27.2659  -33.3624   26.2059 H   0  0  0  0  0  0
  -28.3882  -32.6879   25.0335 H   0  0  0  0  0  0
  -28.0714  -31.8458   26.5425 H   0  0  0  0  0  0
  -28.2596  -38.0092   24.7501 H   0  0  0  0  0  0
  -28.1070  -36.2621   24.6303 H   0  0  0  0  0  0
  -27.2292  -37.1458   25.8869 H   0  0  0  0  0  0
  -20.9390  -29.8766   21.6864 H   0  0  0  0  0  0
  -26.0166  -38.2835   24.1399 H   0  0  0  0  0  0
  -29.8785  -18.5581   19.1124 H   0  0  0  0  0  0
  -27.0045  -20.8292   22.7742 H   0  0  0  0  0  0
  -25.7615  -19.7365   22.1463 H   0  0  0  0  0  0
  -26.2632  -21.9759   20.6968 H   0  0  0  0  0  0
  -26.0640  -20.4340   19.9097 H   0  0  0  0  0  0
  -28.1296  -20.8995   18.9419 H   0  0  0  0  0  0
  -26.6972  -18.4077   24.0402 H   0  0  0  0  0  0
  -27.6300  -16.9270   24.2191 H   0  0  0  0  0  0
  -26.1875  -16.9420   23.1966 H   0  0  0  0  0  0
  -29.1350  -23.8041   19.0279 H   0  0  0  0  0  0
  -27.4576  -23.4505   19.2292 H   0  0  0  0  0  0
  -28.9687  -24.9263   21.4466 H   0  0  0  0  0  0
  -27.2629  -24.8836   21.2254 H   0  0  0  0  0  0
  -30.3779  -16.2016   19.1278 H   0  0  0  0  0  0
  -29.7900  -22.1483   20.3274 H   0  0  0  0  0  0
  -28.6649  -22.3340   21.4611 H   0  0  0  0  0  0
  1 25  1  0  0  0
  1 30  2  0  0  0
  1 83  1  0  0  0
  2  3  1  0  0  0
  2 25  1  0  0  0
  2 85  1  0  0  0
  2 86  1  0  0  0
  3  4  1  0  0  0
  3 87  1  0  0  0
  3 88  1  0  0  0
  4  5  1  0  0  0
  4 89  1  0  0  0
  4 90  1  0  0  0
  5  6  1  0  0  0
  5 26  1  0  0  0
  5 91  1  0  0  0
  6 25  1  0  0  0
  6 92  1  0  0  0
  6 93  1  0  0  0
  7  8  2  0  0  0
  7 26  1  0  0  0
  7 29  1  0  0  0
  8  9  1  0  0  0
  8 22  1  0  0  0
  9 10  1  0  0  0
  9 27  2  0  0  0
 10 11  2  0  0  0
 10 15  1  0  0  0
 11 12  1  0  0  0
 11 94  1  0  0  0
 12 13  2  0  0  0
 12 95  1  0  0  0
 13 14  1  0  0  0
 13 31  1  0  0  0
 14 15  2  0  0  0
 14 96  1  0  0  0
 15 97  1  0  0  0
 16 17  2  0  0  0
 16 21  1  0  0  0
 16 31  1  0  0  0
 17 18  1  0  0  0
 17 98  1  0  0  0
 18 19  2  0  0  0
 18 99  1  0  0  0
 19 20  1  0  0  0
 19 24  1  0  0  0
 20 21  2  0  0  0
 20100  1  0  0  0
 21 23  1  0  0  0
 22 28  1  0  0  0
 22 32  2  0  0  0
 26 27  1  0  0  0
 28101  1  0  0  0
 28102  1  0  0  0
 29103  1  0  0  0
 29104  1  0  0  0
 33 34  1  0  0  0
 33 66  1  0  0  0
 33 70  2  0  0  0
 34 36  1  0  0  0
 34 59  1  0  0  0
 34105  1  0  0  0
 35 44  2  0  0  0
 35 45  1  0  0  0
 35 68  1  0  0  0
 36 56  1  0  0  0
 36106  1  0  0  0
 37 39  1  0  0  0
 37 47  1  0  0  0
 37 66  1  0  0  0
 37107  1  0  0  0
 38 43  2  0  0  0
 38 46  1  0  0  0
 38 47  1  0  0  0
 39 64  1  0  0  0
 39 67  2  0  0  0
 40 52  1  0  0  0
 40 53  2  0  0  0
 40 58  1  0  0  0
 41108  1  0  0  0
 41109  1  0  0  0
 41110  1  0  0  0
 41 48  1  0  0  0
 42 43  1  0  0  0
 42 66  1  0  0  0
 42111  1  0  0  0
 42112  1  0  0  0
 43 44  1  0  0  0
 44113  1  0  0  0
 45 46  2  0  0  0
 45114  1  0  0  0
 46115  1  0  0  0
 47116  1  0  0  0
 47117  1  0  0  0
 48 56  1  0  0  0
 48 65  1  0  0  0
 48118  1  0  0  0
 49 50  1  0  0  0
 49 53  1  0  0  0
 49 64  1  0  0  0
 49119  1  0  0  0
 50 51  1  0  0  0
 50120  1  0  0  0
 50121  1  0  0  0
 51 52  1  0  0  0
 51122  1  0  0  0
 51123  1  0  0  0
 52124  1  0  0  0
 52125  1  0  0  0
 53 54  1  0  0  0
 54 55  2  0  0  0
 54126  1  0  0  0
 55 57  1  0  0  0
 55127  1  0  0  0
 56 69  2  0  0  0
 57 58  2  0  0  0
 57128  1  0  0  0
 58129  1  0  0  0
 59 60  1  0  0  0
 59 61  1  0  0  0
 59 62  1  0  0  0
 60130  1  0  0  0
 60131  1  0  0  0
 60132  1  0  0  0
 61133  1  0  0  0
 61134  1  0  0  0
 61135  1  0  0  0
 62136  1  0  0  0
 62137  1  0  0  0
 62138  1  0  0  0
 63 65  1  0  0  0
 63139  1  0  0  0
 63140  1  0  0  0
 63141  1  0  0  0
 64142  1  0  0  0
 65143  1  0  0  0
 68 81  1  0  0  0
 71 72  2  0  0  0
 71 75  1  0  0  0
 71144  1  0  0  0
 72 73  1  0  0  0
 72 78  1  0  0  0
 73 74  2  0  0  0
 73 76  1  0  0  0
 74 79  1  0  0  0
 74 82  1  0  0  0
 75 82  2  0  0  0
 75 83  1  0  0  0
 76 77  1  0  0  0
 76145  1  0  0  0
 76146  1  0  0  0
 77 78  1  0  0  0
 77147  1  0  0  0
 77148  1  0  0  0
 78 84  1  0  0  0
 78149  1  0  0  0
 79150  1  0  0  0
 79151  1  0  0  0
 79152  1  0  0  0
 80 81  1  0  0  0
 80 84  1  0  0  0
 80153  1  0  0  0
 80154  1  0  0  0
 81155  1  0  0  0
 81156  1  0  0  0
 83157  1  0  0  0
 84158  1  0  0  0
 84159  1  0  0  0
M  CHG  1  84   1
M  ISO  4   1 100  68 101  81 101  83 100
M  END
> <chiral flag>
0

> <version>
0

> <s_m_source_file>
/data/baiqing/PycharmProjects/Reinvent-master-3.2/result/LINK_invent/BTK/process_docking_weight1_custom_sum_contain_oxygen_bond_distance_aromatic_linkinvent_7_9_3/rearranged_h_0182.sdf

> <i_m_source_file_index>
8

> <r_mmod_Potential_Energy-OPLS-2005>
-41.2734832763672

> <r_mmod_Stretch_Energy-OPLS-2005>
127.514183044434

> <r_mmod_Bend_Energy-OPLS-2005>
256.920593261719

> <r_mmod_Torsional_Energy-OPLS-2005>
309.259979248047

> <r_mmod_Improper_Torsional_Energy-OPLS-2005>
32.3643074035645

> <r_mmod_Van_der_Waal_Energy-OPLS-2005>
120.909614562988

> <r_mmod_Electrostatic_Energy-OPLS-2005>
-508.868530273438

> <r_mmod_Solvation_Energy-OPLS-2005>
-478.83837890625

> <b_mmod_Minimization_Converged-OPLS-2005>
0

> <r_mmod_RMS_Derivative-OPLS-2005>
1.10996460914612

$$$$
8
                    3D
 Structure written by MMmdl.
144152  0  0  1  0            999 V2000
  -30.2258  -15.8601   20.3097 C   0  0  0  0  0  0
  -30.4062  -13.2505   19.5372 C   0  0  0  0  0  0
  -29.5564  -12.7104   18.3448 C   0  0  0  0  0  0
  -28.1495  -12.3043   18.8023 C   0  0  0  0  0  0
  -27.5877  -13.3298   19.8085 C   0  0  2  0  0  0
  -28.5901  -13.7621   20.9109 C   0  0  0  0  0  0
  -25.2286  -13.8312   20.5830 C   0  0  0  0  0  0
  -24.1700  -13.0433   20.9312 C   0  0  0  0  0  0
  -24.6434  -11.6954   20.8770 C   0  0  0  0  0  0
  -23.9141  -10.4293   21.0393 C   0  0  0  0  0  0
  -24.3668   -9.4204   21.9177 C   0  0  0  0  0  0
  -23.6322   -8.2249   22.0752 C   0  0  0  0  0  0
  -22.4302   -8.0292   21.3544 C   0  0  0  0  0  0
  -21.9953   -9.0269   20.4642 C   0  0  0  0  0  0
  -22.7304  -10.2137   20.3047 C   0  0  0  0  0  0
  -21.6860   -6.0746   22.5279 C   0  0  0  0  0  0
  -21.4020   -6.5647   23.8214 C   0  0  0  0  0  0
  -21.3660   -5.6797   24.9174 C   0  0  0  0  0  0
  -21.6043   -4.3059   24.7222 C   0  0  0  0  0  0
  -21.8818   -3.8154   23.4343 C   0  0  0  0  0  0
  -21.9195   -4.6973   22.3401 C   0  0  0  0  0  0
  -22.7706  -13.5145   21.1935 C   0  0  0  0  0  0
  -22.1662   -4.2158   21.0978 F   0  0  0  0  0  0
  -21.5627   -3.4541   25.7734 F   0  0  0  0  0  0
  -29.7248  -14.4553   20.2358 N   0  0  0  0  0  0
  -26.2759  -12.9687   20.3266 N   0  0  0  0  0  0
  -25.9389  -11.6733   20.5695 N   0  0  0  0  0  0
  -22.0377  -12.8116   22.0485 N   0  0  0  0  0  0
  -25.3836  -15.2058   20.4261 N   0  0  0  0  0  0
  -31.4690  -15.7344   20.1953 O   0  0  0  0  0  0
  -21.6652   -6.8896   21.4244 O   0  0  0  0  0  0
  -22.3377  -14.5442   20.6768 O   0  0  0  0  0  0
  -24.6986  -31.7816   23.1385 C   0  0  0  0  0  0
  -25.9491  -32.4377   23.7990 C   0  0  1  0  0  0
  -27.2328  -26.5438   20.2308 C   0  0  0  0  0  0
  -25.6003  -33.8211   24.1860 N   0  0  0  0  0  0
  -23.5324  -30.3765   21.4962 C   0  0  2  0  0  0
  -24.9918  -28.6841   20.1237 C   0  0  0  0  0  0
  -22.7835  -29.4217   22.4668 C   0  0  0  0  0  0
  -18.0348  -28.1429   22.8446 C   0  0  0  0  0  0
  -24.1498  -36.7116   23.2656 C   0  0  0  0  0  0
  -26.1199  -30.4625   21.4269 C   0  0  0  0  0  0
  -26.1840  -29.0094   20.7805 C   0  0  0  0  0  0
  -27.2821  -27.9729   20.7956 C   0  0  0  0  0  0
  -26.0051  -26.4690   19.5130 C   0  0  0  0  0  0
  -24.9510  -27.4418   19.4650 C   0  0  0  0  0  0
  -23.7956  -29.6590   20.1386 C   0  0  0  0  0  0
  -25.4154  -36.2844   24.0269 C   0  0  1  0  0  0
  -20.5991  -28.3796   23.1112 C   0  0  2  0  0  0
  -20.6806  -26.9440   22.5406 C   0  0  0  0  0  0
  -19.5785  -26.6365   21.5217 C   0  0  0  0  0  0
  -18.1968  -26.7952   22.1617 C   0  0  0  0  0  0
  -19.1618  -28.8940   23.2755 C   0  0  0  0  0  0
  -18.9521  -30.1519   23.8808 C   0  0  0  0  0  0
  -17.6509  -30.6607   24.0546 C   0  0  0  0  0  0
  -25.9143  -34.9237   23.4914 C   0  0  0  0  0  0
  -16.5397  -29.9086   23.6354 C   0  0  0  0  0  0
  -16.7326  -28.6510   23.0368 C   0  0  0  0  0  0
  -26.4619  -31.6479   25.0679 C   0  0  0  0  0  0
  -25.3643  -31.3845   26.1265 C   0  0  0  0  0  0
  -27.0574  -30.2798   24.6696 C   0  0  0  0  0  0
  -27.6036  -32.4379   25.7507 C   0  0  0  0  0  0
  -27.5560  -37.1716   24.8466 C   0  0  0  0  0  0
  -21.4467  -29.3012   22.3415 N   0  0  0  0  0  0
  -26.4268  -37.3621   23.9404 N   0  0  0  0  0  0
  -24.8090  -30.9104   22.0726 N   0  0  0  0  0  0
  -23.4203  -28.7839   23.3084 O   0  0  0  0  0  0
  -28.1756  -25.2527   20.2958 O   0  0  0  0  0  0
  -26.5810  -34.8845   22.4550 O   0  0  0  0  0  0
  -23.5971  -32.0964   23.6238 O   0  0  0  0  0  0
  -31.0623  -20.7975   20.4314 C   0  0  0  0  0  0
  -28.9363  -21.7345   20.2891 C   0  0  0  0  0  0
  -29.5673  -19.0071   20.3208 C   0  0  0  0  0  0
  -32.5370  -21.1310   20.5362 C   0  0  0  0  0  0
  -27.9700  -23.4244   20.1962 C   0  0  0  0  0  0
  -30.2604  -21.8903   20.3839 N   0  0  0  0  0  0
  -30.8203  -19.4613   20.4064 N   0  0  0  0  0  0
  -28.6084  -20.2188   20.2601 N   0  0  0  0  0  0
  -29.4686  -17.2881   20.3183 N   0  0  0  0  0  0
  -31.3799  -13.5431   19.1430 H   0  0  0  0  0  0
  -30.6258  -12.4521   20.2484 H   0  0  0  0  0  0
  -30.0566  -11.8667   17.8674 H   0  0  0  0  0  0
  -29.4768  -13.4896   17.5855 H   0  0  0  0  0  0
  -28.2203  -11.3276   19.2825 H   0  0  0  0  0  0
  -27.4820  -12.1837   17.9482 H   0  0  0  0  0  0
  -27.4177  -14.2181   19.1980 H   0  0  0  0  0  0
  -28.9046  -12.9202   21.5298 H   0  0  0  0  0  0
  -28.1126  -14.4715   21.5883 H   0  0  0  0  0  0
  -25.2806   -9.5676   22.4765 H   0  0  0  0  0  0
  -24.0020   -7.4642   22.7479 H   0  0  0  0  0  0
  -21.0882   -8.8802   19.8949 H   0  0  0  0  0  0
  -22.3763  -10.9681   19.6161 H   0  0  0  0  0  0
  -21.2016   -7.6155   23.9720 H   0  0  0  0  0  0
  -21.1482   -6.0526   25.9077 H   0  0  0  0  0  0
  -22.0594   -2.7615   23.2840 H   0  0  0  0  0  0
  -22.4029  -11.9798   22.4884 H   0  0  0  0  0  0
  -21.0978  -13.1098   22.2678 H   0  0  0  0  0  0
  -24.6053  -15.8479   20.5314 H   0  0  0  0  0  0
  -26.2153  -15.6482   20.0597 H   0  0  0  0  0  0
  -26.7587  -32.4809   23.0710 H   0  0  0  0  0  0
  -25.0026  -33.9223   24.9930 H   0  0  0  0  0  0
  -22.8668  -31.2179   21.2925 H   0  0  0  0  0  0
  -23.3781  -35.9423   23.3256 H   0  0  0  0  0  0
  -24.3558  -36.8852   22.2083 H   0  0  0  0  0  0
  -23.7240  -37.6265   23.6788 H   0  0  0  0  0  0
  -26.3386  -31.1761   20.6314 H   0  0  0  0  0  0
  -26.9649  -30.5372   22.0985 H   0  0  0  0  0  0
  -28.1764  -28.2354   21.3430 H   0  0  0  0  0  0
  -25.8107  -25.5395   18.9970 H   0  0  0  0  0  0
  -24.0559  -27.1813   18.9167 H   0  0  0  0  0  0
  -23.9844  -30.4123   19.3731 H   0  0  0  0  0  0
  -22.8973  -29.1336   19.8103 H   0  0  0  0  0  0
  -25.1372  -36.1587   25.0759 H   0  0  0  0  0  0
  -21.0068  -28.3434   24.1240 H   0  0  0  0  0  0
  -20.5652  -26.2425   23.3682 H   0  0  0  0  0  0
  -21.6666  -26.7356   22.1236 H   0  0  0  0  0  0
  -19.6939  -25.6252   21.1304 H   0  0  0  0  0  0
  -19.6733  -27.3126   20.6710 H   0  0  0  0  0  0
  -17.4237  -26.6691   21.4022 H   0  0  0  0  0  0
  -18.0355  -26.0117   22.9035 H   0  0  0  0  0  0
  -19.7996  -30.7357   24.2140 H   0  0  0  0  0  0
  -17.5058  -31.6277   24.5167 H   0  0  0  0  0  0
  -15.5394  -30.2961   23.7727 H   0  0  0  0  0  0
  -15.8727  -28.0799   22.7135 H   0  0  0  0  0  0
  -24.5865  -30.7156   25.7563 H   0  0  0  0  0  0
  -24.8794  -32.3080   26.4435 H   0  0  0  0  0  0
  -25.7782  -30.9177   27.0212 H   0  0  0  0  0  0
  -26.3321  -29.6365   24.1705 H   0  0  0  0  0  0
  -27.3950  -29.7308   25.5497 H   0  0  0  0  0  0
  -27.9321  -30.3882   24.0282 H   0  0  0  0  0  0
  -27.2553  -33.3766   26.1826 H   0  0  0  0  0  0
  -28.3977  -32.6803   25.0432 H   0  0  0  0  0  0
  -28.0561  -31.8686   26.5637 H   0  0  0  0  0  0
  -28.2540  -38.0045   24.7508 H   0  0  0  0  0  0
  -28.1094  -36.2565   24.6304 H   0  0  0  0  0  0
  -27.2271  -37.1359   25.8867 H   0  0  0  0  0  0
  -20.9808  -29.8646   21.6437 H   0  0  0  0  0  0
  -26.0083  -38.2662   24.1415 H   0  0  0  0  0  0
  -32.7195  -22.2041   20.4712 H   0  0  0  0  0  0
  -33.0952  -20.6506   19.7327 H   0  0  0  0  0  0
  -32.9375  -20.7810   21.4874 H   0  0  0  0  0  0
  -27.1840  -23.2574   20.9322 H   0  0  0  0  0  0
  -27.4505  -23.3178   19.2443 H   0  0  0  0  0  0
  -28.4893  -17.0539   20.3221 H   0  0  0  0  0  0
  1 25  1  0  0  0
  1 30  2  0  0  0
  1 79  1  0  0  0
  2  3  1  0  0  0
  2 25  1  0  0  0
  2 80  1  0  0  0
  2 81  1  0  0  0
  3  4  1  0  0  0
  3 82  1  0  0  0
  3 83  1  0  0  0
  4  5  1  0  0  0
  4 84  1  0  0  0
  4 85  1  0  0  0
  5  6  1  0  0  0
  5 26  1  0  0  0
  5 86  1  0  0  0
  6 25  1  0  0  0
  6 87  1  0  0  0
  6 88  1  0  0  0
  7  8  2  0  0  0
  7 26  1  0  0  0
  7 29  1  0  0  0
  8  9  1  0  0  0
  8 22  1  0  0  0
  9 10  1  0  0  0
  9 27  2  0  0  0
 10 11  2  0  0  0
 10 15  1  0  0  0
 11 12  1  0  0  0
 11 89  1  0  0  0
 12 13  2  0  0  0
 12 90  1  0  0  0
 13 14  1  0  0  0
 13 31  1  0  0  0
 14 15  2  0  0  0
 14 91  1  0  0  0
 15 92  1  0  0  0
 16 17  2  0  0  0
 16 21  1  0  0  0
 16 31  1  0  0  0
 17 18  1  0  0  0
 17 93  1  0  0  0
 18 19  2  0  0  0
 18 94  1  0  0  0
 19 20  1  0  0  0
 19 24  1  0  0  0
 20 21  2  0  0  0
 20 95  1  0  0  0
 21 23  1  0  0  0
 22 28  1  0  0  0
 22 32  2  0  0  0
 26 27  1  0  0  0
 28 96  1  0  0  0
 28 97  1  0  0  0
 29 98  1  0  0  0
 29 99  1  0  0  0
 33 34  1  0  0  0
 33 66  1  0  0  0
 33 70  2  0  0  0
 34 36  1  0  0  0
 34 59  1  0  0  0
 34100  1  0  0  0
 35 44  2  0  0  0
 35 45  1  0  0  0
 35 68  1  0  0  0
 36 56  1  0  0  0
 36101  1  0  0  0
 37 39  1  0  0  0
 37 47  1  0  0  0
 37 66  1  0  0  0
 37102  1  0  0  0
 38 43  2  0  0  0
 38 46  1  0  0  0
 38 47  1  0  0  0
 39 64  1  0  0  0
 39 67  2  0  0  0
 40 52  1  0  0  0
 40 53  2  0  0  0
 40 58  1  0  0  0
 41103  1  0  0  0
 41104  1  0  0  0
 41105  1  0  0  0
 41 48  1  0  0  0
 42 43  1  0  0  0
 42 66  1  0  0  0
 42106  1  0  0  0
 42107  1  0  0  0
 43 44  1  0  0  0
 44108  1  0  0  0
 45 46  2  0  0  0
 45109  1  0  0  0
 46110  1  0  0  0
 47111  1  0  0  0
 47112  1  0  0  0
 48 56  1  0  0  0
 48 65  1  0  0  0
 48113  1  0  0  0
 49 50  1  0  0  0
 49 53  1  0  0  0
 49 64  1  0  0  0
 49114  1  0  0  0
 50 51  1  0  0  0
 50115  1  0  0  0
 50116  1  0  0  0
 51 52  1  0  0  0
 51117  1  0  0  0
 51118  1  0  0  0
 52119  1  0  0  0
 52120  1  0  0  0
 53 54  1  0  0  0
 54 55  2  0  0  0
 54121  1  0  0  0
 55 57  1  0  0  0
 55122  1  0  0  0
 56 69  2  0  0  0
 57 58  2  0  0  0
 57123  1  0  0  0
 58124  1  0  0  0
 59 60  1  0  0  0
 59 61  1  0  0  0
 59 62  1  0  0  0
 60125  1  0  0  0
 60126  1  0  0  0
 60127  1  0  0  0
 61128  1  0  0  0
 61129  1  0  0  0
 61130  1  0  0  0
 62131  1  0  0  0
 62132  1  0  0  0
 62133  1  0  0  0
 63 65  1  0  0  0
 63134  1  0  0  0
 63135  1  0  0  0
 63136  1  0  0  0
 64137  1  0  0  0
 65138  1  0  0  0
 68 75  1  0  0  0
 71 74  1  0  0  0
 71 76  2  0  0  0
 71 77  1  0  0  0
 72 75  1  0  0  0
 72 76  1  0  0  0
 72 78  2  0  0  0
 73 77  2  0  0  0
 73 78  1  0  0  0
 73 79  1  0  0  0
 74139  1  0  0  0
 74140  1  0  0  0
 74141  1  0  0  0
 75142  1  0  0  0
 75143  1  0  0  0
 79144  1  0  0  0
M  ISO  4   1 100  68 101  75 101  79 100
M  END
> <chiral flag>
0

> <version>
0

> <s_m_source_file>
/data/baiqing/PycharmProjects/Reinvent-master-3.2/result/LINK_invent/BTK/process_docking_weight1_custom_sum_contain_oxygen_bond_distance_aromatic_linkinvent_7_9_3/rearranged_h_0182.sdf

> <i_m_source_file_index>
9

> <r_mmod_Potential_Energy-OPLS-2005>
2519.16162109375

> <r_mmod_Stretch_Energy-OPLS-2005>
1382.27404785156

> <r_mmod_Bend_Energy-OPLS-2005>
728.521545410156

> <r_mmod_Torsional_Energy-OPLS-2005>
208.592651367188

> <r_mmod_Improper_Torsional_Energy-OPLS-2005>
4.26713562011719

> <r_mmod_Van_der_Waal_Energy-OPLS-2005>
143.464920043945

> <r_mmod_Electrostatic_Energy-OPLS-2005>
-940.839172363281

> <r_mmod_Solvation_Energy-OPLS-2005>
-269.898223876953

> <b_mmod_Minimization_Converged-OPLS-2005>
0

> <r_mmod_RMS_Derivative-OPLS-2005>
0.199825093150139

$$$$
9
                    3D
 Structure written by MMmdl.
156165  0  0  1  0            999 V2000
  -30.5910  -14.7739   20.4340 C   0  0  0  0  0  0
  -30.4356  -12.4642   19.4898 C   0  0  0  0  0  0
  -29.5164  -12.5092   18.2471 C   0  0  0  0  0  0
  -28.0410  -12.3339   18.6557 C   0  0  0  0  0  0
  -27.6434  -13.2338   19.8561 C   0  0  2  0  0  0
  -28.6866  -13.1728   20.9954 C   0  0  0  0  0  0
  -25.2501  -13.8195   20.5686 C   0  0  0  0  0  0
  -24.1798  -13.0440   20.9216 C   0  0  0  0  0  0
  -24.6394  -11.6920   20.8758 C   0  0  0  0  0  0
  -23.9068  -10.4296   21.0412 C   0  0  0  0  0  0
  -24.3617   -9.4208   21.9187 C   0  0  0  0  0  0
  -23.6293   -8.2242   22.0752 C   0  0  0  0  0  0
  -22.4273   -8.0281   21.3544 C   0  0  0  0  0  0
  -21.9909   -9.0257   20.4646 C   0  0  0  0  0  0
  -22.7240  -10.2136   20.3058 C   0  0  0  0  0  0
  -21.6853   -6.0734   22.5281 C   0  0  0  0  0  0
  -21.4016   -6.5638   23.8214 C   0  0  0  0  0  0
  -21.3661   -5.6792   24.9178 C   0  0  0  0  0  0
  -21.6045   -4.3055   24.7226 C   0  0  0  0  0  0
  -21.8821   -3.8145   23.4349 C   0  0  0  0  0  0
  -21.9193   -4.6963   22.3404 C   0  0  0  0  0  0
  -22.7819  -13.5219   21.1877 C   0  0  0  0  0  0
  -22.1660   -4.2147   21.0983 F   0  0  0  0  0  0
  -21.5630   -3.4537   25.7738 F   0  0  0  0  0  0
  -29.9896  -13.5312   20.4201 N   0  0  0  0  0  0
  -26.2941  -12.9411   20.3300 N   0  0  0  0  0  0
  -25.9327  -11.6554   20.5768 N   0  0  0  0  0  0
  -22.0466  -12.8208   22.0434 N   0  0  0  0  0  0
  -25.4167  -15.1918   20.4063 N   0  0  0  0  0  0
  -31.7643  -14.8826   20.0675 O   0  0  0  0  0  0
  -21.6640   -6.8876   21.4241 O   0  0  0  0  0  0
  -22.3499  -14.5523   20.6722 O   0  0  0  0  0  0
  -24.6341  -31.8526   23.1971 C   0  0  0  0  0  0
  -25.9154  -32.4740   23.8324 C   0  0  1  0  0  0
  -27.2191  -27.2317   20.1300 C   0  0  0  0  0  0
  -25.5939  -33.8546   24.2252 N   0  0  0  0  0  0
  -23.4324  -30.4758   21.5404 C   0  0  2  0  0  0
  -24.8804  -28.9198   20.1083 C   0  0  0  0  0  0
  -22.7514  -29.4595   22.4895 C   0  0  0  0  0  0
  -18.0296  -28.1390   22.8483 C   0  0  0  0  0  0
  -24.1491  -36.7278   23.2639 C   0  0  0  0  0  0
  -25.9816  -30.7546   21.3834 C   0  0  0  0  0  0
  -26.0530  -29.3755   20.7236 C   0  0  0  0  0  0
  -27.2233  -28.5439   20.7244 C   0  0  0  0  0  0
  -26.0251  -26.8612   19.4689 C   0  0  0  0  0  0
  -24.8738  -27.6720   19.4689 C   0  0  0  0  0  0
  -23.6526  -29.8100   20.1568 C   0  0  0  0  0  0
  -25.4118  -36.3067   24.0328 C   0  0  1  0  0  0
  -20.5903  -28.3705   23.1258 C   0  0  2  0  0  0
  -20.6787  -26.9419   22.5404 C   0  0  0  0  0  0
  -19.5764  -26.6384   21.5210 C   0  0  0  0  0  0
  -18.1943  -26.7931   22.1623 C   0  0  0  0  0  0
  -19.1552  -28.8865   23.2866 C   0  0  0  0  0  0
  -18.9470  -30.1463   23.8889 C   0  0  0  0  0  0
  -17.6469  -30.6591   24.0561 C   0  0  0  0  0  0
  -25.9060  -34.9435   23.5095 C   0  0  0  0  0  0
  -16.5360  -29.9087   23.6328 C   0  0  0  0  0  0
  -16.7283  -28.6504   23.0353 C   0  0  0  0  0  0
  -26.4510  -31.6572   25.0724 C   0  0  0  0  0  0
  -25.3723  -31.3728   26.1437 C   0  0  0  0  0  0
  -27.0355  -30.2980   24.6237 C   0  0  0  0  0  0
  -27.6065  -32.4312   25.7495 C   0  0  0  0  0  0
  -27.5583  -37.1795   24.8464 C   0  0  0  0  0  0
  -21.4219  -29.3047   22.3641 N   0  0  0  0  0  0
  -26.4291  -37.3769   23.9412 N   0  0  0  0  0  0
  -24.7019  -31.0462   22.0962 N   0  0  0  0  0  0
  -23.4202  -28.8135   23.3005 O   0  0  0  0  0  0
  -28.2984  -26.3072   20.2103 O   0  0  0  0  0  0
  -26.5637  -34.8915   22.4667 O   0  0  0  0  0  0
  -23.5483  -32.1365   23.7247 O   0  0  0  0  0  0
  -30.0492  -21.1114   21.8905 C   0  0  0  0  0  0
  -30.5526  -19.9209   22.4422 C   0  0  0  0  0  0
  -29.3708  -21.0451   20.6685 C   0  0  0  0  0  0
  -29.8047  -18.6736   20.6626 C   0  0  0  0  0  0
  -30.7363  -19.2003   24.9472 C   0  0  0  0  0  0
  -30.8415  -20.7059   24.9272 C   0  0  0  0  0  0
  -31.3054  -19.9008   23.7350 C   0  0  0  0  0  0
  -29.9067  -17.2655   19.9169 C   0  0  0  0  0  0
  -28.0639  -24.8278   19.9474 C   0  0  0  0  0  0
  -28.9890  -23.6106   20.5258 C   0  0  0  0  0  0
  -30.4205  -18.7240   21.8352 N   0  0  0  0  0  0
  -29.2700  -19.7944   20.0668 N   0  0  0  0  0  0
  -29.7982  -15.8978   20.6094 N   0  0  0  0  0  0
  -28.7896  -22.1952   20.0392 O   0  0  0  0  0  0
  -31.4779  -12.5855   19.1899 H   0  0  0  0  0  0
  -30.3796  -11.4887   19.9753 H   0  0  0  0  0  0
  -29.8026  -11.7321   17.5370 H   0  0  0  0  0  0
  -29.6434  -13.4610   17.7288 H   0  0  0  0  0  0
  -27.8971  -11.2853   18.9180 H   0  0  0  0  0  0
  -27.3858  -12.5265   17.8053 H   0  0  0  0  0  0
  -27.6362  -14.2546   19.4745 H   0  0  0  0  0  0
  -28.7228  -12.1752   21.4356 H   0  0  0  0  0  0
  -28.4169  -13.8526   21.8049 H   0  0  0  0  0  0
  -25.2759   -9.5682   22.4763 H   0  0  0  0  0  0
  -24.0006   -7.4628   22.7464 H   0  0  0  0  0  0
  -21.0840   -8.8775   19.8946 H   0  0  0  0  0  0
  -22.3698  -10.9676   19.6167 H   0  0  0  0  0  0
  -21.2007   -7.6146   23.9716 H   0  0  0  0  0  0
  -21.1482   -6.0522   25.9081 H   0  0  0  0  0  0
  -22.0596   -2.7606   23.2849 H   0  0  0  0  0  0
  -22.4084  -11.9868   22.4820 H   0  0  0  0  0  0
  -21.1082  -13.1224   22.2646 H   0  0  0  0  0  0
  -24.6419  -15.8396   20.5032 H   0  0  0  0  0  0
  -26.2514  -15.6275   20.0358 H   0  0  0  0  0  0
  -26.7217  -32.5375   23.1059 H   0  0  0  0  0  0
  -25.0065  -33.9676   25.0385 H   0  0  0  0  0  0
  -22.7308  -31.2998   21.3936 H   0  0  0  0  0  0
  -23.3761  -35.9600   23.3291 H   0  0  0  0  0  0
  -24.3581  -36.8912   22.2055 H   0  0  0  0  0  0
  -23.7233  -37.6473   23.6667 H   0  0  0  0  0  0
  -26.1268  -31.5137   20.6140 H   0  0  0  0  0  0
  -26.8572  -30.8023   22.0192 H   0  0  0  0  0  0
  -28.1167  -28.8850   21.2293 H   0  0  0  0  0  0
  -25.9464  -25.9149   18.9552 H   0  0  0  0  0  0
  -23.9789  -27.3216   18.9727 H   0  0  0  0  0  0
  -23.7808  -30.5872   19.4029 H   0  0  0  0  0  0
  -22.7694  -29.2469   19.8489 H   0  0  0  0  0  0
  -25.1300  -36.1913   25.0820 H   0  0  0  0  0  0
  -20.9999  -28.3293   24.1377 H   0  0  0  0  0  0
  -20.5684  -26.2321   23.3614 H   0  0  0  0  0  0
  -21.6656  -26.7439   22.1202 H   0  0  0  0  0  0
  -19.6926  -25.6292   21.1248 H   0  0  0  0  0  0
  -19.6703  -27.3188   20.6734 H   0  0  0  0  0  0
  -17.4211  -26.6671   21.4029 H   0  0  0  0  0  0
  -18.0352  -26.0074   22.9023 H   0  0  0  0  0  0
  -19.7945  -30.7280   24.2261 H   0  0  0  0  0  0
  -17.5021  -31.6269   24.5166 H   0  0  0  0  0  0
  -15.5360  -30.2989   23.7654 H   0  0  0  0  0  0
  -15.8682  -28.0818   22.7076 H   0  0  0  0  0  0
  -24.5896  -30.7086   25.7756 H   0  0  0  0  0  0
  -24.8917  -32.2897   26.4856 H   0  0  0  0  0  0
  -25.8029  -30.8898   27.0218 H   0  0  0  0  0  0
  -26.2945  -29.6727   24.1241 H   0  0  0  0  0  0
  -27.3995  -29.7248   25.4775 H   0  0  0  0  0  0
  -27.8850  -30.4242   23.9521 H   0  0  0  0  0  0
  -27.2679  -33.3615   26.2070 H   0  0  0  0  0  0
  -28.3877  -32.6867   25.0322 H   0  0  0  0  0  0
  -28.0735  -31.8435   26.5410 H   0  0  0  0  0  0
  -28.2592  -38.0099   24.7522 H   0  0  0  0  0  0
  -28.1088  -36.2632   24.6278 H   0  0  0  0  0  0
  -27.2300  -37.1430   25.8866 H   0  0  0  0  0  0
  -20.9411  -29.8766   21.6839 H   0  0  0  0  0  0
  -26.0170  -38.2843   24.1412 H   0  0  0  0  0  0
  -30.1927  -22.0435   22.4164 H   0  0  0  0  0  0
  -29.7453  -18.7610   24.8522 H   0  0  0  0  0  0
  -31.4319  -18.6582   25.5839 H   0  0  0  0  0  0
  -31.6042  -21.1577   25.5575 H   0  0  0  0  0  0
  -29.9157  -21.2696   24.8332 H   0  0  0  0  0  0
  -32.3772  -19.8286   23.5609 H   0  0  0  0  0  0
  -30.8494  -17.2873   19.3688 H   0  0  0  0  0  0
  -29.1390  -17.2708   19.1431 H   0  0  0  0  0  0
  -27.0590  -24.5840   20.2915 H   0  0  0  0  0  0
  -28.0393  -24.7202   18.8622 H   0  0  0  0  0  0
  -28.8749  -23.6194   21.6094 H   0  0  0  0  0  0
  -30.0326  -23.8600   20.3334 H   0  0  0  0  0  0
  -28.8900  -15.7218   21.0076 H   0  0  0  0  0  0
  1 25  1  0  0  0
  1 30  2  0  0  0
  1 83  1  0  0  0
  2  3  1  0  0  0
  2 25  1  0  0  0
  2 85  1  0  0  0
  2 86  1  0  0  0
  3  4  1  0  0  0
  3 87  1  0  0  0
  3 88  1  0  0  0
  4  5  1  0  0  0
  4 89  1  0  0  0
  4 90  1  0  0  0
  5  6  1  0  0  0
  5 26  1  0  0  0
  5 91  1  0  0  0
  6 25  1  0  0  0
  6 92  1  0  0  0
  6 93  1  0  0  0
  7  8  2  0  0  0
  7 26  1  0  0  0
  7 29  1  0  0  0
  8  9  1  0  0  0
  8 22  1  0  0  0
  9 10  1  0  0  0
  9 27  2  0  0  0
 10 11  2  0  0  0
 10 15  1  0  0  0
 11 12  1  0  0  0
 11 94  1  0  0  0
 12 13  2  0  0  0
 12 95  1  0  0  0
 13 14  1  0  0  0
 13 31  1  0  0  0
 14 15  2  0  0  0
 14 96  1  0  0  0
 15 97  1  0  0  0
 16 17  2  0  0  0
 16 21  1  0  0  0
 16 31  1  0  0  0
 17 18  1  0  0  0
 17 98  1  0  0  0
 18 19  2  0  0  0
 18 99  1  0  0  0
 19 20  1  0  0  0
 19 24  1  0  0  0
 20 21  2  0  0  0
 20100  1  0  0  0
 21 23  1  0  0  0
 22 28  1  0  0  0
 22 32  2  0  0  0
 26 27  1  0  0  0
 28101  1  0  0  0
 28102  1  0  0  0
 29103  1  0  0  0
 29104  1  0  0  0
 33 34  1  0  0  0
 33 66  1  0  0  0
 33 70  2  0  0  0
 34 36  1  0  0  0
 34 59  1  0  0  0
 34105  1  0  0  0
 35 44  2  0  0  0
 35 45  1  0  0  0
 35 68  1  0  0  0
 36 56  1  0  0  0
 36106  1  0  0  0
 37 39  1  0  0  0
 37 47  1  0  0  0
 37 66  1  0  0  0
 37107  1  0  0  0
 38 43  2  0  0  0
 38 46  1  0  0  0
 38 47  1  0  0  0
 39 64  1  0  0  0
 39 67  2  0  0  0
 40 52  1  0  0  0
 40 53  2  0  0  0
 40 58  1  0  0  0
 41108  1  0  0  0
 41109  1  0  0  0
 41110  1  0  0  0
 41 48  1  0  0  0
 42 43  1  0  0  0
 42 66  1  0  0  0
 42111  1  0  0  0
 42112  1  0  0  0
 43 44  1  0  0  0
 44113  1  0  0  0
 45 46  2  0  0  0
 45114  1  0  0  0
 46115  1  0  0  0
 47116  1  0  0  0
 47117  1  0  0  0
 48 56  1  0  0  0
 48 65  1  0  0  0
 48118  1  0  0  0
 49 50  1  0  0  0
 49 53  1  0  0  0
 49 64  1  0  0  0
 49119  1  0  0  0
 50 51  1  0  0  0
 50120  1  0  0  0
 50121  1  0  0  0
 51 52  1  0  0  0
 51122  1  0  0  0
 51123  1  0  0  0
 52124  1  0  0  0
 52125  1  0  0  0
 53 54  1  0  0  0
 54 55  2  0  0  0
 54126  1  0  0  0
 55 57  1  0  0  0
 55127  1  0  0  0
 56 69  2  0  0  0
 57 58  2  0  0  0
 57128  1  0  0  0
 58129  1  0  0  0
 59 60  1  0  0  0
 59 61  1  0  0  0
 59 62  1  0  0  0
 60130  1  0  0  0
 60131  1  0  0  0
 60132  1  0  0  0
 61133  1  0  0  0
 61134  1  0  0  0
 61135  1  0  0  0
 62136  1  0  0  0
 62137  1  0  0  0
 62138  1  0  0  0
 63 65  1  0  0  0
 63139  1  0  0  0
 63140  1  0  0  0
 63141  1  0  0  0
 64142  1  0  0  0
 65143  1  0  0  0
 68 79  1  0  0  0
 71 72  2  0  0  0
 71 73  1  0  0  0
 71144  1  0  0  0
 72 81  1  0  0  0
 72 77  1  0  0  0
 73 82  2  0  0  0
 73 84  1  0  0  0
 74 78  1  0  0  0
 74 81  2  0  0  0
 74 82  1  0  0  0
 75 76  1  0  0  0
 75 77  1  0  0  0
 75145  1  0  0  0
 75146  1  0  0  0
 76 77  1  0  0  0
 76147  1  0  0  0
 76148  1  0  0  0
 77149  1  0  0  0
 78 83  1  0  0  0
 78150  1  0  0  0
 78151  1  0  0  0
 79 80  1  0  0  0
 79152  1  0  0  0
 79153  1  0  0  0
 80 84  1  0  0  0
 80154  1  0  0  0
 80155  1  0  0  0
 83156  1  0  0  0
M  ISO  4   1 100  68 101  79 101  83 100
M  END
> <chiral flag>
0

> <version>
0

> <s_m_source_file>
/data/baiqing/PycharmProjects/Reinvent-master-3.2/result/LINK_invent/BTK/process_docking_weight1_custom_sum_contain_oxygen_bond_distance_aromatic_linkinvent_7_9_3/rearranged_h_0182.sdf

> <i_m_source_file_index>
10

> <r_mmod_Potential_Energy-OPLS-2005>
-433.179443359375

> <r_mmod_Stretch_Energy-OPLS-2005>
136.840270996094

> <r_mmod_Bend_Energy-OPLS-2005>
183.460754394531

> <r_mmod_Torsional_Energy-OPLS-2005>
233.724685668945

> <r_mmod_Improper_Torsional_Energy-OPLS-2005>
8.05905151367188

> <r_mmod_Van_der_Waal_Energy-OPLS-2005>
145.599822998047

> <r_mmod_Electrostatic_Energy-OPLS-2005>
-1001.74017333984

> <r_mmod_Solvation_Energy-OPLS-2005>
-241.67138671875

> <b_mmod_Minimization_Converged-OPLS-2005>
0

> <r_mmod_RMS_Derivative-OPLS-2005>
0.781930327415466

$$$$
10
                    3D
 Structure written by MMmdl.
148156  0  0  1  0            999 V2000
  -30.4578  -15.2209   20.3783 C   0  0  0  0  0  0
  -30.4366  -12.7777   19.5198 C   0  0  0  0  0  0
  -29.5308  -12.5626   18.2822 C   0  0  0  0  0  0
  -28.0785  -12.2946   18.7141 C   0  0  0  0  0  0
  -27.6127  -13.2694   19.8245 C   0  0  2  0  0  0
  -28.6478  -13.4282   20.9576 C   0  0  0  0  0  0
  -25.2400  -13.8231   20.5749 C   0  0  0  0  0  0
  -24.1749  -13.0433   20.9271 C   0  0  0  0  0  0
  -24.6397  -11.6931   20.8781 C   0  0  0  0  0  0
  -23.9097  -10.4293   21.0422 C   0  0  0  0  0  0
  -24.3643   -9.4207   21.9200 C   0  0  0  0  0  0
  -23.6312   -8.2241   22.0762 C   0  0  0  0  0  0
  -22.4290   -8.0286   21.3552 C   0  0  0  0  0  0
  -21.9937   -9.0265   20.4653 C   0  0  0  0  0  0
  -22.7273  -10.2141   20.3064 C   0  0  0  0  0  0
  -21.6850   -6.0754   22.5292 C   0  0  0  0  0  0
  -21.4014   -6.5659   23.8228 C   0  0  0  0  0  0
  -21.3650   -5.6805   24.9187 C   0  0  0  0  0  0
  -21.6033   -4.3067   24.7232 C   0  0  0  0  0  0
  -21.8814   -3.8164   23.4353 C   0  0  0  0  0  0
  -21.9195   -4.6983   22.3415 C   0  0  0  0  0  0
  -22.7770  -13.5194   21.1911 C   0  0  0  0  0  0
  -22.1664   -4.2173   21.0989 F   0  0  0  0  0  0
  -21.5618   -3.4547   25.7742 F   0  0  0  0  0  0
  -29.8828  -13.9229   20.3292 N   0  0  0  0  0  0
  -26.2820  -12.9494   20.3226 N   0  0  0  0  0  0
  -25.9329  -11.6604   20.5744 N   0  0  0  0  0  0
  -22.0420  -12.8180   22.0457 N   0  0  0  0  0  0
  -25.4044  -15.1960   20.4177 N   0  0  0  0  0  0
  -31.6796  -15.2181   20.1747 O   0  0  0  0  0  0
  -21.6638   -6.8895   21.4250 O   0  0  0  0  0  0
  -22.3458  -14.5501   20.6752 O   0  0  0  0  0  0
  -24.6612  -31.8254   23.1715 C   0  0  0  0  0  0
  -25.9302  -32.4599   23.8168 C   0  0  1  0  0  0
  -27.2114  -26.9429   20.1740 C   0  0  0  0  0  0
  -25.5974  -33.8413   24.2075 N   0  0  0  0  0  0
  -23.4751  -30.4401   21.5210 C   0  0  2  0  0  0
  -24.9265  -28.8344   20.1105 C   0  0  0  0  0  0
  -22.7656  -29.4466   22.4772 C   0  0  0  0  0  0
  -18.0323  -28.1423   22.8484 C   0  0  0  0  0  0
  -24.1490  -36.7190   23.2649 C   0  0  0  0  0  0
  -26.0451  -30.6365   21.4007 C   0  0  0  0  0  0
  -26.1120  -29.2295   20.7422 C   0  0  0  0  0  0
  -27.2502  -28.3055   20.7505 C   0  0  0  0  0  0
  -25.9944  -26.6998   19.4957 C   0  0  0  0  0  0
  -24.8919  -27.5879   19.4690 C   0  0  0  0  0  0
  -23.7125  -29.7602   20.1465 C   0  0  0  0  0  0
  -25.4134  -36.2969   24.0309 C   0  0  1  0  0  0
  -20.5950  -28.3763   23.1198 C   0  0  2  0  0  0
  -20.6811  -26.9443   22.5407 C   0  0  0  0  0  0
  -19.5779  -26.6390   21.5227 C   0  0  0  0  0  0
  -18.1954  -26.7962   22.1635 C   0  0  0  0  0  0
  -19.1587  -28.8915   23.2830 C   0  0  0  0  0  0
  -18.9501  -30.1503   23.8860 C   0  0  0  0  0  0
  -17.6496  -30.6616   24.0572 C   0  0  0  0  0  0
  -25.9096  -34.9355   23.5011 C   0  0  0  0  0  0
  -16.5380  -29.9110   23.6360 C   0  0  0  0  0  0
  -16.7307  -28.6532   23.0377 C   0  0  0  0  0  0
  -26.4550  -31.6542   25.0695 C   0  0  0  0  0  0
  -25.3677  -31.3806   26.1354 C   0  0  0  0  0  0
  -27.0446  -30.2908   24.6428 C   0  0  0  0  0  0
  -27.6038  -32.4360   25.7487 C   0  0  0  0  0  0
  -27.5566  -37.1749   24.8476 C   0  0  0  0  0  0
  -21.4328  -29.3051   22.3534 N   0  0  0  0  0  0
  -26.4272  -37.3706   23.9424 N   0  0  0  0  0  0
  -24.7489  -30.9926   22.0845 N   0  0  0  0  0  0
  -23.4214  -28.8026   23.3004 O   0  0  0  0  0  0
  -28.1970  -25.8254   20.2485 O   0  0  0  0  0  0
  -26.5703  -34.8897   22.4601 O   0  0  0  0  0  0
  -23.5685  -32.1212   23.6805 O   0  0  0  0  0  0
  -28.3691  -21.6978   21.2758 C   0  0  0  0  0  0
  -28.5774  -22.6792   20.2175 C   0  0  0  0  0  0
  -29.2348  -21.8774   19.1950 C   0  0  0  0  0  0
  -29.3495  -19.6422   20.2976 C   0  0  0  0  0  0
  -29.5669  -22.5071   17.8568 C   0  0  0  0  0  0
  -27.8054  -24.2452   20.0637 C   0  0  0  0  0  0
  -30.1313  -18.0880   20.4204 C   0  0  0  0  0  0
  -28.7455  -20.3232   21.3210 N   0  0  0  0  0  0
  -29.5982  -20.5036   19.2597 N   0  0  0  0  0  0
  -29.7126  -16.4905   20.4525 N   0  0  0  0  0  0
  -31.4578  -12.9738   19.1892 H   0  0  0  0  0  0
  -30.4939  -11.8677   20.1193 H   0  0  0  0  0  0
  -29.9015  -11.7334   17.6779 H   0  0  0  0  0  0
  -29.5664  -13.4476   17.6451 H   0  0  0  0  0  0
  -28.0333  -11.2711   19.0882 H   0  0  0  0  0  0
  -27.4066  -12.3368   17.8564 H   0  0  0  0  0  0
  -27.5342  -14.2399   19.3328 H   0  0  0  0  0  0
  -28.8063  -12.4875   21.4869 H   0  0  0  0  0  0
  -28.2950  -14.1481   21.6985 H   0  0  0  0  0  0
  -25.2780   -9.5674   22.4793 H   0  0  0  0  0  0
  -24.0019   -7.4617   22.7473 H   0  0  0  0  0  0
  -21.0873   -8.8790   19.8954 H   0  0  0  0  0  0
  -22.3736  -10.9689   19.6184 H   0  0  0  0  0  0
  -21.2009   -7.6166   23.9741 H   0  0  0  0  0  0
  -21.1466   -6.0534   25.9089 H   0  0  0  0  0  0
  -22.0595   -2.7628   23.2845 H   0  0  0  0  0  0
  -22.4043  -11.9843   22.4844 H   0  0  0  0  0  0
  -21.1037  -13.1193   22.2658 H   0  0  0  0  0  0
  -24.6312  -15.8442   20.5224 H   0  0  0  0  0  0
  -26.2414  -15.6361   20.0595 H   0  0  0  0  0  0
  -26.7360  -32.5126   23.0868 H   0  0  0  0  0  0
  -25.0102  -33.9498   25.0216 H   0  0  0  0  0  0
  -22.7881  -31.2720   21.3518 H   0  0  0  0  0  0
  -23.3772  -35.9502   23.3296 H   0  0  0  0  0  0
  -24.3568  -36.8840   22.2062 H   0  0  0  0  0  0
  -23.7226  -37.6369   23.6708 H   0  0  0  0  0  0
  -26.2255  -31.3813   20.6240 H   0  0  0  0  0  0
  -26.9048  -30.6877   22.0568 H   0  0  0  0  0  0
  -28.1455  -28.6063   21.2758 H   0  0  0  0  0  0
  -25.8472  -25.7521   19.0011 H   0  0  0  0  0  0
  -23.9888  -27.2799   18.9608 H   0  0  0  0  0  0
  -23.8662  -30.5305   19.3900 H   0  0  0  0  0  0
  -22.8225  -29.2148   19.8276 H   0  0  0  0  0  0
  -25.1325  -36.1752   25.0801 H   0  0  0  0  0  0
  -21.0042  -28.3361   24.1321 H   0  0  0  0  0  0
  -20.5714  -26.2364   23.3636 H   0  0  0  0  0  0
  -21.6666  -26.7445   22.1186 H   0  0  0  0  0  0
  -19.6944  -25.6296   21.1274 H   0  0  0  0  0  0
  -19.6723  -27.3195   20.6752 H   0  0  0  0  0  0
  -17.4222  -26.6715   21.4030 H   0  0  0  0  0  0
  -18.0344  -26.0109   22.9031 H   0  0  0  0  0  0
  -19.7973  -30.7344   24.2185 H   0  0  0  0  0  0
  -17.5052  -31.6293   24.5182 H   0  0  0  0  0  0
  -15.5380  -30.3009   23.7727 H   0  0  0  0  0  0
  -15.8697  -28.0851   22.7113 H   0  0  0  0  0  0
  -24.5870  -30.7143   25.7672 H   0  0  0  0  0  0
  -24.8852  -32.3013   26.4644 H   0  0  0  0  0  0
  -25.7904  -30.9059   27.0218 H   0  0  0  0  0  0
  -26.3118  -29.6584   24.1403 H   0  0  0  0  0  0
  -27.3949  -29.7275   25.5091 H   0  0  0  0  0  0
  -27.9074  -30.4100   23.9871 H   0  0  0  0  0  0
  -27.2600  -33.3713   26.1922 H   0  0  0  0  0  0
  -28.3906  -32.6839   25.0348 H   0  0  0  0  0  0
  -28.0643  -31.8577   26.5503 H   0  0  0  0  0  0
  -28.2565  -38.0059   24.7511 H   0  0  0  0  0  0
  -28.1060  -36.2576   24.6297 H   0  0  0  0  0  0
  -27.2273  -37.1385   25.8876 H   0  0  0  0  0  0
  -20.9559  -29.8711   21.6648 H   0  0  0  0  0  0
  -26.0107  -38.2755   24.1457 H   0  0  0  0  0  0
  -27.8171  -22.0198   22.1464 H   0  0  0  0  0  0
  -29.2925  -23.5594   17.8164 H   0  0  0  0  0  0
  -29.0404  -21.9893   17.0553 H   0  0  0  0  0  0
  -30.6369  -22.4390   17.6593 H   0  0  0  0  0  0
  -26.9186  -24.1366   20.6893 H   0  0  0  0  0  0
  -27.4160  -24.2027   19.0467 H   0  0  0  0  0  0
  -30.7293  -18.1984   21.3247 H   0  0  0  0  0  0
  -30.8745  -18.1248   19.6230 H   0  0  0  0  0  0
  -28.7185  -16.3630   20.5593 H   0  0  0  0  0  0
  1 25  1  0  0  0
  1 30  2  0  0  0
  1 80  1  0  0  0
  2  3  1  0  0  0
  2 25  1  0  0  0
  2 81  1  0  0  0
  2 82  1  0  0  0
  3  4  1  0  0  0
  3 83  1  0  0  0
  3 84  1  0  0  0
  4  5  1  0  0  0
  4 85  1  0  0  0
  4 86  1  0  0  0
  5  6  1  0  0  0
  5 26  1  0  0  0
  5 87  1  0  0  0
  6 25  1  0  0  0
  6 88  1  0  0  0
  6 89  1  0  0  0
  7  8  2  0  0  0
  7 26  1  0  0  0
  7 29  1  0  0  0
  8  9  1  0  0  0
  8 22  1  0  0  0
  9 10  1  0  0  0
  9 27  2  0  0  0
 10 11  2  0  0  0
 10 15  1  0  0  0
 11 12  1  0  0  0
 11 90  1  0  0  0
 12 13  2  0  0  0
 12 91  1  0  0  0
 13 14  1  0  0  0
 13 31  1  0  0  0
 14 15  2  0  0  0
 14 92  1  0  0  0
 15 93  1  0  0  0
 16 17  2  0  0  0
 16 21  1  0  0  0
 16 31  1  0  0  0
 17 18  1  0  0  0
 17 94  1  0  0  0
 18 19  2  0  0  0
 18 95  1  0  0  0
 19 20  1  0  0  0
 19 24  1  0  0  0
 20 21  2  0  0  0
 20 96  1  0  0  0
 21 23  1  0  0  0
 22 28  1  0  0  0
 22 32  2  0  0  0
 26 27  1  0  0  0
 28 97  1  0  0  0
 28 98  1  0  0  0
 29 99  1  0  0  0
 29100  1  0  0  0
 33 34  1  0  0  0
 33 66  1  0  0  0
 33 70  2  0  0  0
 34 36  1  0  0  0
 34 59  1  0  0  0
 34101  1  0  0  0
 35 44  2  0  0  0
 35 45  1  0  0  0
 35 68  1  0  0  0
 36 56  1  0  0  0
 36102  1  0  0  0
 37 39  1  0  0  0
 37 47  1  0  0  0
 37 66  1  0  0  0
 37103  1  0  0  0
 38 43  2  0  0  0
 38 46  1  0  0  0
 38 47  1  0  0  0
 39 64  1  0  0  0
 39 67  2  0  0  0
 40 52  1  0  0  0
 40 53  2  0  0  0
 40 58  1  0  0  0
 41104  1  0  0  0
 41105  1  0  0  0
 41106  1  0  0  0
 41 48  1  0  0  0
 42 43  1  0  0  0
 42 66  1  0  0  0
 42107  1  0  0  0
 42108  1  0  0  0
 43 44  1  0  0  0
 44109  1  0  0  0
 45 46  2  0  0  0
 45110  1  0  0  0
 46111  1  0  0  0
 47112  1  0  0  0
 47113  1  0  0  0
 48 56  1  0  0  0
 48 65  1  0  0  0
 48114  1  0  0  0
 49 50  1  0  0  0
 49 53  1  0  0  0
 49 64  1  0  0  0
 49115  1  0  0  0
 50 51  1  0  0  0
 50116  1  0  0  0
 50117  1  0  0  0
 51 52  1  0  0  0
 51118  1  0  0  0
 51119  1  0  0  0
 52120  1  0  0  0
 52121  1  0  0  0
 53 54  1  0  0  0
 54 55  2  0  0  0
 54122  1  0  0  0
 55 57  1  0  0  0
 55123  1  0  0  0
 56 69  2  0  0  0
 57 58  2  0  0  0
 57124  1  0  0  0
 58125  1  0  0  0
 59 60  1  0  0  0
 59 61  1  0  0  0
 59 62  1  0  0  0
 60126  1  0  0  0
 60127  1  0  0  0
 60128  1  0  0  0
 61129  1  0  0  0
 61130  1  0  0  0
 61131  1  0  0  0
 62132  1  0  0  0
 62133  1  0  0  0
 62134  1  0  0  0
 63 65  1  0  0  0
 63135  1  0  0  0
 63136  1  0  0  0
 63137  1  0  0  0
 64138  1  0  0  0
 65139  1  0  0  0
 68 76  1  0  0  0
 71 72  2  0  0  0
 71 78  1  0  0  0
 71140  1  0  0  0
 72 73  1  0  0  0
 72 76  1  0  0  0
 73 75  1  0  0  0
 73 79  2  0  0  0
 74 77  1  0  0  0
 74 78  2  0  0  0
 74 79  1  0  0  0
 75141  1  0  0  0
 75142  1  0  0  0
 75143  1  0  0  0
 76144  1  0  0  0
 76145  1  0  0  0
 77 80  1  0  0  0
 77146  1  0  0  0
 77147  1  0  0  0
 80148  1  0  0  0
M  ISO  4   1 100  68 101  76 101  80 100
M  END
> <chiral flag>
0

> <version>
0

> <s_m_source_file>
/data/baiqing/PycharmProjects/Reinvent-master-3.2/result/LINK_invent/BTK/process_docking_weight1_custom_sum_contain_oxygen_bond_distance_aromatic_linkinvent_7_9_3/rearranged_h_0182.sdf

> <i_m_source_file_index>
11

> <r_mmod_Potential_Energy-OPLS-2005>
599.340759277344

> <r_mmod_Stretch_Energy-OPLS-2005>
476.69384765625

> <r_mmod_Bend_Energy-OPLS-2005>
437.59033203125

> <r_mmod_Torsional_Energy-OPLS-2005>
222.371536254883

> <r_mmod_Improper_Torsional_Energy-OPLS-2005>
10.8153715133667

> <r_mmod_Van_der_Waal_Energy-OPLS-2005>
138.324020385742

> <r_mmod_Electrostatic_Energy-OPLS-2005>
-865.572570800781

> <r_mmod_Solvation_Energy-OPLS-2005>
-246.638763427734

> <b_mmod_Minimization_Converged-OPLS-2005>
0

> <r_mmod_RMS_Derivative-OPLS-2005>
1.63604116439819

$$$$
11
                    3D
 Structure written by MMmdl.
154163  0  0  1  0            999 V2000
  -30.5068  -15.0517   20.3684 C   0  0  0  0  0  0
  -30.4461  -12.6562   19.4857 C   0  0  0  0  0  0
  -29.5226  -12.5239   18.2526 C   0  0  0  0  0  0
  -28.0596  -12.2992   18.6819 C   0  0  0  0  0  0
  -27.6204  -13.2495   19.8265 C   0  0  2  0  0  0
  -28.6710  -13.3404   20.9507 C   0  0  0  0  0  0
  -25.2438  -13.8166   20.5766 C   0  0  0  0  0  0
  -24.1756  -13.0392   20.9241 C   0  0  0  0  0  0
  -24.6390  -11.6886   20.8759 C   0  0  0  0  0  0
  -23.9078  -10.4263   21.0403 C   0  0  0  0  0  0
  -24.3627   -9.4184   21.9187 C   0  0  0  0  0  0
  -23.6295   -8.2225   22.0755 C   0  0  0  0  0  0
  -22.4278   -8.0271   21.3542 C   0  0  0  0  0  0
  -21.9916   -9.0242   20.4643 C   0  0  0  0  0  0
  -22.7252  -10.2116   20.3051 C   0  0  0  0  0  0
  -21.6853   -6.0733   22.5282 C   0  0  0  0  0  0
  -21.4013   -6.5638   23.8215 C   0  0  0  0  0  0
  -21.3661   -5.6790   24.9179 C   0  0  0  0  0  0
  -21.6043   -4.3053   24.7230 C   0  0  0  0  0  0
  -21.8820   -3.8146   23.4350 C   0  0  0  0  0  0
  -21.9193   -4.6961   22.3405 C   0  0  0  0  0  0
  -22.7777  -13.5175   21.1885 C   0  0  0  0  0  0
  -22.1660   -4.2148   21.0981 F   0  0  0  0  0  0
  -21.5629   -3.4536   25.7741 F   0  0  0  0  0  0
  -29.9236  -13.7781   20.3191 N   0  0  0  0  0  0
  -26.2864  -12.9414   20.3260 N   0  0  0  0  0  0
  -25.9327  -11.6542   20.5747 N   0  0  0  0  0  0
  -22.0427  -12.8171   22.0444 N   0  0  0  0  0  0
  -25.4075  -15.1886   20.4262 N   0  0  0  0  0  0
  -31.7390  -15.0884   20.2698 O   0  0  0  0  0  0
  -21.6638   -6.8873   21.4240 O   0  0  0  0  0  0
  -22.3464  -14.5481   20.6726 O   0  0  0  0  0  0
  -24.6500  -31.8384   23.1832 C   0  0  0  0  0  0
  -25.9242  -32.4665   23.8248 C   0  0  1  0  0  0
  -27.2174  -27.0728   20.1659 C   0  0  0  0  0  0
  -25.5963  -33.8475   24.2161 N   0  0  0  0  0  0
  -23.4576  -30.4554   21.5302 C   0  0  2  0  0  0
  -24.9091  -28.8692   20.1152 C   0  0  0  0  0  0
  -22.7603  -29.4519   22.4839 C   0  0  0  0  0  0
  -18.0311  -28.1400   22.8476 C   0  0  0  0  0  0
  -24.1493  -36.7241   23.2644 C   0  0  0  0  0  0
  -26.0186  -30.6912   21.3931 C   0  0  0  0  0  0
  -26.0901  -29.2952   20.7378 C   0  0  0  0  0  0
  -27.2473  -28.4161   20.7412 C   0  0  0  0  0  0
  -26.0123  -26.7680   19.4972 C   0  0  0  0  0  0
  -24.8865  -27.6206   19.4772 C   0  0  0  0  0  0
  -23.6892  -29.7800   20.1527 C   0  0  0  0  0  0
  -25.4129  -36.3015   24.0312 C   0  0  1  0  0  0
  -20.5928  -28.3733   23.1217 C   0  0  2  0  0  0
  -20.6793  -26.9429   22.5400 C   0  0  0  0  0  0
  -19.5764  -26.6380   21.5213 C   0  0  0  0  0  0
  -18.1947  -26.7937   22.1626 C   0  0  0  0  0  0
  -19.1571  -28.8885   23.2837 C   0  0  0  0  0  0
  -18.9484  -30.1478   23.8866 C   0  0  0  0  0  0
  -17.6478  -30.6593   24.0559 C   0  0  0  0  0  0
  -25.9085  -34.9392   23.5050 C   0  0  0  0  0  0
  -16.5369  -29.9083   23.6339 C   0  0  0  0  0  0
  -16.7294  -28.6503   23.0360 C   0  0  0  0  0  0
  -26.4538  -31.6554   25.0717 C   0  0  0  0  0  0
  -25.3701  -31.3759   26.1397 C   0  0  0  0  0  0
  -27.0415  -30.2942   24.6348 C   0  0  0  0  0  0
  -27.6058  -32.4333   25.7506 C   0  0  0  0  0  0
  -27.5576  -37.1776   24.8465 C   0  0  0  0  0  0
  -21.4287  -29.3051   22.3584 N   0  0  0  0  0  0
  -26.4287  -37.3734   23.9408 N   0  0  0  0  0  0
  -24.7288  -31.0179   22.0901 N   0  0  0  0  0  0
  -23.4212  -28.8074   23.3023 O   0  0  0  0  0  0
  -28.2434  -26.0369   20.1776 O   0  0  0  0  0  0
  -26.5678  -34.8900   22.4633 O   0  0  0  0  0  0
  -23.5602  -32.1291   23.7006 O   0  0  0  0  0  0
  -28.8543  -22.5097   18.9207 C   0  0  0  0  0  0
  -28.5928  -23.0606   20.2191 C   0  0  0  0  0  0
  -28.8970  -21.8592   20.9507 C   0  0  0  0  0  0
  -28.2086  -17.4555   19.3757 C   0  0  0  0  0  0
  -29.2491  -16.5297   18.7367 C   0  0  0  0  0  0
  -29.2038  -17.7159   20.4979 C   0  0  2  0  0  0
  -28.8355  -21.6896   22.4319 C   0  0  0  0  0  0
  -27.9157  -24.5581   20.6349 C   0  0  0  0  0  0
  -29.9578  -19.2377   20.4063 C   0  0  0  0  0  0
  -29.2476  -21.2091   18.8857 N   0  0  0  0  0  0
  -29.2917  -20.6976   20.1505 N   0  0  0  0  0  0
  -29.7212  -16.2344   20.0892 N   0  0  0  0  0  0
  -31.4708  -12.8426   19.1604 H   0  0  0  0  0  0
  -30.4742  -11.7262   20.0558 H   0  0  0  0  0  0
  -29.8550  -11.7029   17.6157 H   0  0  0  0  0  0
  -29.5924  -13.4277   17.6455 H   0  0  0  0  0  0
  -27.9731  -11.2641   19.0137 H   0  0  0  0  0  0
  -27.3930  -12.4001   17.8248 H   0  0  0  0  0  0
  -27.5524  -14.2359   19.3725 H   0  0  0  0  0  0
  -28.7911  -12.3850   21.4630 H   0  0  0  0  0  0
  -28.3597  -14.0674   21.7032 H   0  0  0  0  0  0
  -25.2766   -9.5662   22.4771 H   0  0  0  0  0  0
  -23.9997   -7.4619   22.7482 H   0  0  0  0  0  0
  -21.0846   -8.8766   19.8949 H   0  0  0  0  0  0
  -22.3711  -10.9660   19.6166 H   0  0  0  0  0  0
  -21.2001   -7.6146   23.9718 H   0  0  0  0  0  0
  -21.1483   -6.0521   25.9079 H   0  0  0  0  0  0
  -22.0596   -2.7610   23.2854 H   0  0  0  0  0  0
  -22.4057  -11.9841   22.4837 H   0  0  0  0  0  0
  -21.1043  -13.1192   22.2642 H   0  0  0  0  0  0
  -24.6463  -15.8455   20.5573 H   0  0  0  0  0  0
  -26.2742  -15.6289   20.1483 H   0  0  0  0  0  0
  -26.7310  -32.5255   23.0974 H   0  0  0  0  0  0
  -25.0075  -33.9577   25.0285 H   0  0  0  0  0  0
  -22.7642  -31.2834   21.3696 H   0  0  0  0  0  0
  -23.3763  -35.9563   23.3286 H   0  0  0  0  0  0
  -24.3577  -36.8898   22.2062 H   0  0  0  0  0  0
  -23.7237  -37.6425   23.6700 H   0  0  0  0  0  0
  -26.1824  -31.4399   20.6171 H   0  0  0  0  0  0
  -26.8856  -30.7444   22.0397 H   0  0  0  0  0  0
  -28.1479  -28.7412   21.2426 H   0  0  0  0  0  0
  -25.9196  -25.8178   18.9917 H   0  0  0  0  0  0
  -23.9898  -27.2914   18.9707 H   0  0  0  0  0  0
  -23.8333  -30.5518   19.3960 H   0  0  0  0  0  0
  -22.8027  -29.2257   19.8395 H   0  0  0  0  0  0
  -25.1317  -36.1836   25.0803 H   0  0  0  0  0  0
  -21.0021  -28.3329   24.1338 H   0  0  0  0  0  0
  -20.5682  -26.2352   23.3629 H   0  0  0  0  0  0
  -21.6657  -26.7425   22.1200 H   0  0  0  0  0  0
  -19.6924  -25.6282   21.1263 H   0  0  0  0  0  0
  -19.6698  -27.3173   20.6728 H   0  0  0  0  0  0
  -17.4215  -26.6682   21.4030 H   0  0  0  0  0  0
  -18.0346  -26.0083   22.9027 H   0  0  0  0  0  0
  -19.7960  -30.7305   24.2223 H   0  0  0  0  0  0
  -17.5030  -31.6272   24.5164 H   0  0  0  0  0  0
  -15.5369  -30.2974   23.7678 H   0  0  0  0  0  0
  -15.8697  -28.0808   22.7094 H   0  0  0  0  0  0
  -24.5890  -30.7102   25.7705 H   0  0  0  0  0  0
  -24.8881  -32.2945   26.4754 H   0  0  0  0  0  0
  -25.7964  -30.8970   27.0222 H   0  0  0  0  0  0
  -26.3050  -29.6646   24.1342 H   0  0  0  0  0  0
  -27.3988  -29.7265   25.4949 H   0  0  0  0  0  0
  -27.8975  -30.4159   23.9707 H   0  0  0  0  0  0
  -27.2647  -33.3661   26.2010 H   0  0  0  0  0  0
  -28.3906  -32.6850   25.0360 H   0  0  0  0  0  0
  -28.0686  -31.8509   26.5482 H   0  0  0  0  0  0
  -28.2577  -38.0088   24.7520 H   0  0  0  0  0  0
  -28.1089  -36.2616   24.6284 H   0  0  0  0  0  0
  -27.2294  -37.1409   25.8868 H   0  0  0  0  0  0
  -20.9516  -29.8756   21.6743 H   0  0  0  0  0  0
  -26.0148  -38.2800   24.1414 H   0  0  0  0  0  0
  -28.7369  -23.0177   17.9728 H   0  0  0  0  0  0
  -27.3108  -16.9381   19.7092 H   0  0  0  0  0  0
  -27.9575  -18.3292   18.7725 H   0  0  0  0  0  0
  -29.9858  -17.0510   18.1222 H   0  0  0  0  0  0
  -28.8147  -15.6920   18.1920 H   0  0  0  0  0  0
  -28.6617  -17.6650   21.4429 H   0  0  0  0  0  0
  -28.6461  -22.6371   22.9349 H   0  0  0  0  0  0
  -29.7733  -21.2902   22.8173 H   0  0  0  0  0  0
  -28.0386  -20.9990   22.7076 H   0  0  0  0  0  0
  -27.9900  -24.6384   21.7190 H   0  0  0  0  0  0
  -26.8427  -24.4422   20.4908 H   0  0  0  0  0  0
  -30.7275  -19.1509   19.6390 H   0  0  0  0  0  0
  -30.5410  -19.3527   21.3201 H   0  0  0  0  0  0
  1 25  1  0  0  0
  1 30  2  0  0  0
  1 82  1  0  0  0
  2  3  1  0  0  0
  2 25  1  0  0  0
  2 83  1  0  0  0
  2 84  1  0  0  0
  3  4  1  0  0  0
  3 85  1  0  0  0
  3 86  1  0  0  0
  4  5  1  0  0  0
  4 87  1  0  0  0
  4 88  1  0  0  0
  5  6  1  0  0  0
  5 26  1  0  0  0
  5 89  1  0  0  0
  6 25  1  0  0  0
  6 90  1  0  0  0
  6 91  1  0  0  0
  7  8  2  0  0  0
  7 26  1  0  0  0
  7 29  1  0  0  0
  8  9  1  0  0  0
  8 22  1  0  0  0
  9 10  1  0  0  0
  9 27  2  0  0  0
 10 11  2  0  0  0
 10 15  1  0  0  0
 11 12  1  0  0  0
 11 92  1  0  0  0
 12 13  2  0  0  0
 12 93  1  0  0  0
 13 14  1  0  0  0
 13 31  1  0  0  0
 14 15  2  0  0  0
 14 94  1  0  0  0
 15 95  1  0  0  0
 16 17  2  0  0  0
 16 21  1  0  0  0
 16 31  1  0  0  0
 17 18  1  0  0  0
 17 96  1  0  0  0
 18 19  2  0  0  0
 18 97  1  0  0  0
 19 20  1  0  0  0
 19 24  1  0  0  0
 20 21  2  0  0  0
 20 98  1  0  0  0
 21 23  1  0  0  0
 22 28  1  0  0  0
 22 32  2  0  0  0
 26 27  1  0  0  0
 28 99  1  0  0  0
 28100  1  0  0  0
 29101  1  0  0  0
 29102  1  0  0  0
 33 34  1  0  0  0
 33 66  1  0  0  0
 33 70  2  0  0  0
 34 36  1  0  0  0
 34 59  1  0  0  0
 34103  1  0  0  0
 35 44  2  0  0  0
 35 45  1  0  0  0
 35 68  1  0  0  0
 36 56  1  0  0  0
 36104  1  0  0  0
 37 39  1  0  0  0
 37 47  1  0  0  0
 37 66  1  0  0  0
 37105  1  0  0  0
 38 43  2  0  0  0
 38 46  1  0  0  0
 38 47  1  0  0  0
 39 64  1  0  0  0
 39 67  2  0  0  0
 40 52  1  0  0  0
 40 53  2  0  0  0
 40 58  1  0  0  0
 41106  1  0  0  0
 41107  1  0  0  0
 41108  1  0  0  0
 41 48  1  0  0  0
 42 43  1  0  0  0
 42 66  1  0  0  0
 42109  1  0  0  0
 42110  1  0  0  0
 43 44  1  0  0  0
 44111  1  0  0  0
 45 46  2  0  0  0
 45112  1  0  0  0
 46113  1  0  0  0
 47114  1  0  0  0
 47115  1  0  0  0
 48 56  1  0  0  0
 48 65  1  0  0  0
 48116  1  0  0  0
 49 50  1  0  0  0
 49 53  1  0  0  0
 49 64  1  0  0  0
 49117  1  0  0  0
 50 51  1  0  0  0
 50118  1  0  0  0
 50119  1  0  0  0
 51 52  1  0  0  0
 51120  1  0  0  0
 51121  1  0  0  0
 52122  1  0  0  0
 52123  1  0  0  0
 53 54  1  0  0  0
 54 55  2  0  0  0
 54124  1  0  0  0
 55 57  1  0  0  0
 55125  1  0  0  0
 56 69  2  0  0  0
 57 58  2  0  0  0
 57126  1  0  0  0
 58127  1  0  0  0
 59 60  1  0  0  0
 59 61  1  0  0  0
 59 62  1  0  0  0
 60128  1  0  0  0
 60129  1  0  0  0
 60130  1  0  0  0
 61131  1  0  0  0
 61132  1  0  0  0
 61133  1  0  0  0
 62134  1  0  0  0
 62135  1  0  0  0
 62136  1  0  0  0
 63 65  1  0  0  0
 63137  1  0  0  0
 63138  1  0  0  0
 63139  1  0  0  0
 64140  1  0  0  0
 65141  1  0  0  0
 68 78  1  0  0  0
 71 72  1  0  0  0
 71 80  2  0  0  0
 71142  1  0  0  0
 72 73  2  0  0  0
 72 78  1  0  0  0
 73 77  1  0  0  0
 73 81  1  0  0  0
 74 75  1  0  0  0
 74 76  1  0  0  0
 74143  1  0  0  0
 74144  1  0  0  0
 75 82  1  0  0  0
 75145  1  0  0  0
 75146  1  0  0  0
 76 79  1  0  0  0
 76 82  1  0  0  0
 76147  1  0  0  0
 77148  1  0  0  0
 77149  1  0  0  0
 77150  1  0  0  0
 78151  1  0  0  0
 78152  1  0  0  0
 79 81  1  0  0  0
 79153  1  0  0  0
 79154  1  0  0  0
 80 81  1  0  0  0
M  ISO  4   1 100  68 101  78 101  82 100
M  END
> <chiral flag>
0

> <version>
0

> <s_m_source_file>
/data/baiqing/PycharmProjects/Reinvent-master-3.2/result/LINK_invent/BTK/process_docking_weight1_custom_sum_contain_oxygen_bond_distance_aromatic_linkinvent_7_9_3/rearranged_h_0182.sdf

> <i_m_source_file_index>
12

> <r_mmod_Potential_Energy-OPLS-2005>
924.427124023438

> <r_mmod_Stretch_Energy-OPLS-2005>
334.416290283203

> <r_mmod_Bend_Energy-OPLS-2005>
366.991149902344

> <r_mmod_Torsional_Energy-OPLS-2005>
353.933135986328

> <r_mmod_Improper_Torsional_Energy-OPLS-2005>
15.98473072052

> <r_mmod_Van_der_Waal_Energy-OPLS-2005>
98.618896484375

> <r_mmod_Electrostatic_Energy-OPLS-2005>
-296.996276855469

> <r_mmod_Solvation_Energy-OPLS-2005>
-218.550765991211

> <b_mmod_Minimization_Converged-OPLS-2005>
0

> <r_mmod_RMS_Derivative-OPLS-2005>
0.718971371650696

$$$$
12
                    3D
 Structure written by MMmdl.
154163  0  0  1  0            999 V2000
  -31.2667  -14.8952   20.9346 C   0  0  0  0  0  0
  -30.1777  -14.2972   18.1631 C   0  0  0  0  0  0
  -28.8674  -13.5288   17.5393 C   0  0  0  0  0  0
  -27.7032  -12.9706   18.5045 C   0  0  0  0  0  0
  -27.5109  -13.6322   19.9829 C   0  0  2  0  0  0
  -28.6334  -14.1614   21.1597 C   0  0  0  0  0  0
  -25.1567  -13.8923   20.7071 C   0  0  0  0  0  0
  -24.1277  -13.0490   20.9645 C   0  0  0  0  0  0
  -24.6554  -11.7216   20.8898 C   0  0  0  0  0  0
  -23.9412  -10.4366   21.0304 C   0  0  0  0  0  0
  -24.3877   -9.4259   21.9094 C   0  0  0  0  0  0
  -23.6493   -8.2320   22.0664 C   0  0  0  0  0  0
  -22.4459   -8.0363   21.3466 C   0  0  0  0  0  0
  -22.0153   -9.0385   20.4562 C   0  0  0  0  0  0
  -22.7556  -10.2223   20.2988 C   0  0  0  0  0  0
  -21.6909   -6.0800   22.5275 C   0  0  0  0  0  0
  -21.4033   -6.5656   23.8217 C   0  0  0  0  0  0
  -21.3687   -5.6792   24.9168 C   0  0  0  0  0  0
  -21.6081   -4.3059   24.7218 C   0  0  0  0  0  0
  -21.8828   -3.8167   23.4331 C   0  0  0  0  0  0
  -21.9200   -4.7001   22.3390 C   0  0  0  0  0  0
  -22.7182  -13.4886   21.1953 C   0  0  0  0  0  0
  -22.1653   -4.2162   21.0972 F   0  0  0  0  0  0
  -21.5640   -3.4544   25.7734 F   0  0  0  0  0  0
  -30.0620  -14.6681   20.5623 N   0  0  0  0  0  0
  -26.2585  -13.1071   20.4933 N   0  0  0  0  0  0
  -25.9699  -11.7690   20.6228 N   0  0  0  0  0  0
  -21.9943  -12.7748   22.0469 N   0  0  0  0  0  0
  -25.2407  -15.2774   20.6274 N   0  0  0  0  0  0
  -31.9450  -14.6063   21.8562 O   0  0  0  0  0  0
  -21.6746   -6.8989   21.4250 O   0  0  0  0  0  0
  -22.2803  -14.5150   20.6736 O   0  0  0  0  0  0
  -24.7278  -31.7439   23.1181 C   0  0  0  0  0  0
  -25.9649  -32.4188   23.7893 C   0  0  1  0  0  0
  -27.1469  -26.2449   20.1473 C   0  0  0  0  0  0
  -25.6026  -33.8055   24.1695 N   0  0  0  0  0  0
  -23.5678  -30.3374   21.4809 C   0  0  2  0  0  0
  -25.0054  -28.6004   20.0916 C   0  0  0  0  0  0
  -22.7951  -29.4030   22.4556 C   0  0  0  0  0  0
  -18.0366  -28.1449   22.8435 C   0  0  0  0  0  0
  -24.1479  -36.7001   23.2666 C   0  0  0  0  0  0
  -26.1620  -30.3092   21.4574 C   0  0  0  0  0  0
  -26.2001  -28.8375   20.7783 C   0  0  0  0  0  0
  -27.2341  -27.6922   20.7775 C   0  0  0  0  0  0
  -25.9397  -26.3440   19.3940 C   0  0  0  0  0  0
  -24.9403  -27.3863   19.3801 C   0  0  0  0  0  0
  -23.8371  -29.6201   20.1203 C   0  0  0  0  0  0
  -25.4152  -36.2716   24.0250 C   0  0  1  0  0  0
  -20.6013  -28.3803   23.1059 C   0  0  2  0  0  0
  -20.6800  -26.9419   22.5407 C   0  0  0  0  0  0
  -19.5780  -26.6349   21.5224 C   0  0  0  0  0  0
  -18.1965  -26.7969   22.1620 C   0  0  0  0  0  0
  -19.1640  -28.8965   23.2717 C   0  0  0  0  0  0
  -18.9545  -30.1540   23.8776 C   0  0  0  0  0  0
  -17.6528  -30.6612   24.0540 C   0  0  0  0  0  0
  -25.9172  -34.9133   23.4837 C   0  0  0  0  0  0
  -16.5412  -29.9083   23.6364 C   0  0  0  0  0  0
  -16.7348  -28.6514   23.0374 C   0  0  0  0  0  0
  -26.4671  -31.6475   25.0743 C   0  0  0  0  0  0
  -25.3613  -31.3940   26.1272 C   0  0  0  0  0  0
  -27.0727  -30.2775   24.7060 C   0  0  0  0  0  0
  -27.5994  -32.4511   25.7574 C   0  0  0  0  0  0
  -27.5547  -37.1642   24.8459 C   0  0  0  0  0  0
  -21.4555  -29.2961   22.3315 N   0  0  0  0  0  0
  -26.4215  -37.3555   23.9444 N   0  0  0  0  0  0
  -24.8497  -30.8421   22.0687 N   0  0  0  0  0  0
  -23.4195  -28.7697   23.3099 O   0  0  0  0  0  0
  -27.9501  -24.7786   20.2248 O   0  0  0  0  0  0
  -26.5886  -34.8798   22.4508 O   0  0  0  0  0  0
  -23.6204  -32.0765   23.5823 O   0  0  0  0  0  0
  -28.6309  -17.9144   19.7631 C   0  0  0  0  0  0
  -27.5738  -19.0994   21.5082 C   0  0  0  0  0  0
  -28.2110  -20.8458   20.0009 C   0  0  0  0  0  0
  -29.9162  -12.7547   19.6458 C   0  0  0  0  0  0
  -31.6552  -13.1887   19.7516 C   0  0  0  0  0  0
  -30.9083  -16.3244   19.2502 C   0  0  0  0  0  0
  -29.0845  -15.9788   19.1403 C   0  0  2  0  0  0
  -26.8254  -18.8411   22.8056 C   0  0  0  0  0  0
  -27.9882  -22.8896   19.6171 C   0  0  0  0  0  0
  -28.0056  -17.9315   20.9438 N   0  0  0  0  0  0
  -28.6878  -19.4637   19.3072 N   0  0  0  0  0  0
  -27.6358  -20.4305   21.1532 N   0  0  0  0  0  0
  -31.7661  -14.9163   19.7886 N   0  0  0  0  0  0
  -30.3635  -15.0854   17.4198 H   0  0  0  0  0  0
  -31.0060  -13.7680   17.6860 H   0  0  0  0  0  0
  -29.1878  -12.7428   16.8492 H   0  0  0  0  0  0
  -28.3933  -14.2514   16.8746 H   0  0  0  0  0  0
  -27.7768  -11.8844   18.5829 H   0  0  0  0  0  0
  -26.7659  -13.1112   17.9649 H   0  0  0  0  0  0
  -27.2287  -14.6010   19.5985 H   0  0  0  0  0  0
  -28.7760  -13.4144   21.9405 H   0  0  0  0  0  0
  -28.1759  -14.9835   21.7229 H   0  0  0  0  0  0
  -25.2982   -9.5779   22.4735 H   0  0  0  0  0  0
  -24.0209   -7.4742   22.7417 H   0  0  0  0  0  0
  -21.1060   -8.9065   19.8844 H   0  0  0  0  0  0
  -22.4051  -10.9885   19.6197 H   0  0  0  0  0  0
  -21.2013   -7.6162   23.9737 H   0  0  0  0  0  0
  -21.1495   -6.0490   25.9064 H   0  0  0  0  0  0
  -22.0567   -2.7628   23.2848 H   0  0  0  0  0  0
  -22.3868  -11.9625   22.4944 H   0  0  0  0  0  0
  -21.0460  -13.0484   22.2653 H   0  0  0  0  0  0
  -24.4422  -15.8573   20.8673 H   0  0  0  0  0  0
  -26.1121  -15.7886   20.5883 H   0  0  0  0  0  0
  -26.7811  -32.4531   23.0660 H   0  0  0  0  0  0
  -25.0005  -33.9048   24.9734 H   0  0  0  0  0  0
  -22.9175  -31.1876   21.2689 H   0  0  0  0  0  0
  -23.3800  -35.9260   23.3173 H   0  0  0  0  0  0
  -24.3533  -36.8855   22.2110 H   0  0  0  0  0  0
  -23.7156  -37.6079   23.6891 H   0  0  0  0  0  0
  -26.4406  -31.0226   20.6806 H   0  0  0  0  0  0
  -26.9842  -30.3518   22.1591 H   0  0  0  0  0  0
  -28.1125  -27.8634   21.3841 H   0  0  0  0  0  0
  -25.6745  -25.4605   18.8293 H   0  0  0  0  0  0
  -24.0481  -27.1971   18.7982 H   0  0  0  0  0  0
  -24.0614  -30.3784   19.3684 H   0  0  0  0  0  0
  -22.9263  -29.1308   19.7713 H   0  0  0  0  0  0
  -25.1367  -36.1389   25.0731 H   0  0  0  0  0  0
  -21.0105  -28.3463   24.1185 H   0  0  0  0  0  0
  -20.5624  -26.2438   23.3706 H   0  0  0  0  0  0
  -21.6653  -26.7285   22.1240 H   0  0  0  0  0  0
  -19.6904  -25.6228   21.1325 H   0  0  0  0  0  0
  -19.6740  -27.3096   20.6705 H   0  0  0  0  0  0
  -17.4229  -26.6721   21.4021 H   0  0  0  0  0  0
  -18.0324  -26.0144   22.9048 H   0  0  0  0  0  0
  -19.8019  -30.7391   24.2089 H   0  0  0  0  0  0
  -17.5074  -31.6286   24.5160 H   0  0  0  0  0  0
  -15.5404  -30.2946   23.7770 H   0  0  0  0  0  0
  -15.8751  -28.0803   22.7149 H   0  0  0  0  0  0
  -24.5796  -30.7313   25.7547 H   0  0  0  0  0  0
  -24.8822  -32.3223   26.4404 H   0  0  0  0  0  0
  -25.7666  -30.9269   27.0261 H   0  0  0  0  0  0
  -26.3533  -29.6145   24.2263 H   0  0  0  0  0  0
  -27.4138  -29.7538   25.6001 H   0  0  0  0  0  0
  -27.9504  -30.3782   24.0677 H   0  0  0  0  0  0
  -27.2425  -33.3927   26.1769 H   0  0  0  0  0  0
  -28.3979  -32.6935   25.0547 H   0  0  0  0  0  0
  -28.0497  -31.8965   26.5820 H   0  0  0  0  0  0
  -28.2423  -38.0069   24.7610 H   0  0  0  0  0  0
  -28.1178  -36.2590   24.6132 H   0  0  0  0  0  0
  -27.2293  -37.1069   25.8864 H   0  0  0  0  0  0
  -20.9945  -29.8603   21.6304 H   0  0  0  0  0  0
  -25.9975  -38.2554   24.1550 H   0  0  0  0  0  0
  -29.6431  -12.1761   20.5392 H   0  0  0  0  0  0
  -29.9419  -11.9650   18.8802 H   0  0  0  0  0  0
  -32.2665  -12.8098   18.9294 H   0  0  0  0  0  0
  -32.0749  -12.5875   20.5688 H   0  0  0  0  0  0
  -31.0645  -17.1638   19.9384 H   0  0  0  0  0  0
  -31.3165  -16.7042   18.3098 H   0  0  0  0  0  0
  -28.6445  -16.1026   18.1431 H   0  0  0  0  0  0
  -27.3667  -18.1585   23.4586 H   0  0  0  0  0  0
  -25.8505  -18.4025   22.5939 H   0  0  0  0  0  0
  -26.6533  -19.7546   23.3714 H   0  0  0  0  0  0
  -27.2002  -22.8867   18.8642 H   0  0  0  0  0  0
  -28.8988  -22.9674   19.0235 H   0  0  0  0  0  0
  1 25  1  0  0  0
  1 30  2  0  0  0
  1 83  1  0  0  0
  2  3  1  0  0  0
  2 25  1  0  0  0
  2 84  1  0  0  0
  2 85  1  0  0  0
  3  4  1  0  0  0
  3 86  1  0  0  0
  3 87  1  0  0  0
  4  5  1  0  0  0
  4 88  1  0  0  0
  4 89  1  0  0  0
  5  6  1  0  0  0
  5 26  1  0  0  0
  5 90  1  0  0  0
  6 25  1  0  0  0
  6 91  1  0  0  0
  6 92  1  0  0  0
  7  8  2  0  0  0
  7 26  1  0  0  0
  7 29  1  0  0  0
  8  9  1  0  0  0
  8 22  1  0  0  0
  9 10  1  0  0  0
  9 27  2  0  0  0
 10 11  2  0  0  0
 10 15  1  0  0  0
 11 12  1  0  0  0
 11 93  1  0  0  0
 12 13  2  0  0  0
 12 94  1  0  0  0
 13 14  1  0  0  0
 13 31  1  0  0  0
 14 15  2  0  0  0
 14 95  1  0  0  0
 15 96  1  0  0  0
 16 17  2  0  0  0
 16 21  1  0  0  0
 16 31  1  0  0  0
 17 18  1  0  0  0
 17 97  1  0  0  0
 18 19  2  0  0  0
 18 98  1  0  0  0
 19 20  1  0  0  0
 19 24  1  0  0  0
 20 21  2  0  0  0
 20 99  1  0  0  0
 21 23  1  0  0  0
 22 28  1  0  0  0
 22 32  2  0  0  0
 26 27  1  0  0  0
 28100  1  0  0  0
 28101  1  0  0  0
 29102  1  0  0  0
 29103  1  0  0  0
 33 34  1  0  0  0
 33 66  1  0  0  0
 33 70  2  0  0  0
 34 36  1  0  0  0
 34 59  1  0  0  0
 34104  1  0  0  0
 35 44  2  0  0  0
 35 45  1  0  0  0
 35 68  1  0  0  0
 36 56  1  0  0  0
 36105  1  0  0  0
 37 39  1  0  0  0
 37 47  1  0  0  0
 37 66  1  0  0  0
 37106  1  0  0  0
 38 43  2  0  0  0
 38 46  1  0  0  0
 38 47  1  0  0  0
 39 64  1  0  0  0
 39 67  2  0  0  0
 40 52  1  0  0  0
 40 53  2  0  0  0
 40 58  1  0  0  0
 41107  1  0  0  0
 41108  1  0  0  0
 41109  1  0  0  0
 41 48  1  0  0  0
 42 43  1  0  0  0
 42 66  1  0  0  0
 42110  1  0  0  0
 42111  1  0  0  0
 43 44  1  0  0  0
 44112  1  0  0  0
 45 46  2  0  0  0
 45113  1  0  0  0
 46114  1  0  0  0
 47115  1  0  0  0
 47116  1  0  0  0
 48 56  1  0  0  0
 48 65  1  0  0  0
 48117  1  0  0  0
 49 50  1  0  0  0
 49 53  1  0  0  0
 49 64  1  0  0  0
 49118  1  0  0  0
 50 51  1  0  0  0
 50119  1  0  0  0
 50120  1  0  0  0
 51 52  1  0  0  0
 51121  1  0  0  0
 51122  1  0  0  0
 52123  1  0  0  0
 52124  1  0  0  0
 53 54  1  0  0  0
 54 55  2  0  0  0
 54125  1  0  0  0
 55 57  1  0  0  0
 55126  1  0  0  0
 56 69  2  0  0  0
 57 58  2  0  0  0
 57127  1  0  0  0
 58128  1  0  0  0
 59 60  1  0  0  0
 59 61  1  0  0  0
 59 62  1  0  0  0
 60129  1  0  0  0
 60130  1  0  0  0
 60131  1  0  0  0
 61132  1  0  0  0
 61133  1  0  0  0
 61134  1  0  0  0
 62135  1  0  0  0
 62136  1  0  0  0
 62137  1  0  0  0
 63 65  1  0  0  0
 63138  1  0  0  0
 63139  1  0  0  0
 63140  1  0  0  0
 64141  1  0  0  0
 65142  1  0  0  0
 68 79  1  0  0  0
 71 80  1  0  0  0
 71 81  2  0  0  0
 71 77  1  0  0  0
 72 78  1  0  0  0
 72 80  2  0  0  0
 72 82  1  0  0  0
 73 79  1  0  0  0
 73 81  1  0  0  0
 73 82  2  0  0  0
 74 75  1  0  0  0
 74 77  1  0  0  0
 74143  1  0  0  0
 74144  1  0  0  0
 75 83  1  0  0  0
 75145  1  0  0  0
 75146  1  0  0  0
 76 77  1  0  0  0
 76 83  1  0  0  0
 76147  1  0  0  0
 76148  1  0  0  0
 77149  1  0  0  0
 78150  1  0  0  0
 78151  1  0  0  0
 78152  1  0  0  0
 79153  1  0  0  0
 79154  1  0  0  0
M  ISO  4   1 100  68 101  79 101  83 100
M  END
> <chiral flag>
0

> <version>
0

> <s_m_source_file>
/data/baiqing/PycharmProjects/Reinvent-master-3.2/result/LINK_invent/BTK/process_docking_weight1_custom_sum_contain_oxygen_bond_distance_aromatic_linkinvent_7_9_3/rearranged_h_0182.sdf

> <i_m_source_file_index>
13

> <r_mmod_Potential_Energy-OPLS-2005>
13315.306640625

> <r_mmod_Stretch_Energy-OPLS-2005>
7777.55810546875

> <r_mmod_Bend_Energy-OPLS-2005>
1503.8681640625

> <r_mmod_Torsional_Energy-OPLS-2005>
403.33740234375

> <r_mmod_Improper_Torsional_Energy-OPLS-2005>
25.4280967712402

> <r_mmod_Van_der_Waal_Energy-OPLS-2005>
2242.87280273438

> <r_mmod_Electrostatic_Energy-OPLS-2005>
-844.5625

> <r_mmod_Solvation_Energy-OPLS-2005>
-271.397735595703

> <b_mmod_Minimization_Converged-OPLS-2005>
0

> <r_mmod_RMS_Derivative-OPLS-2005>
10.0115737915039

$$$$
13
                    3D
 Structure written by MMmdl.
144152  0  0  1  0            999 V2000
  -30.2608  -15.7808   20.3108 C   0  0  0  0  0  0
  -30.4136  -13.1957   19.5301 C   0  0  0  0  0  0
  -29.5543  -12.6895   18.3336 C   0  0  0  0  0  0
  -28.1388  -12.3078   18.7866 C   0  0  0  0  0  0
  -27.5908  -13.3263   19.8093 C   0  0  2  0  0  0
  -28.5998  -13.7282   20.9132 C   0  0  0  0  0  0
  -25.2306  -13.8335   20.5848 C   0  0  0  0  0  0
  -24.1702  -13.0459   20.9311 C   0  0  0  0  0  0
  -24.6431  -11.6977   20.8781 C   0  0  0  0  0  0
  -23.9134  -10.4319   21.0412 C   0  0  0  0  0  0
  -24.3659   -9.4227   21.9198 C   0  0  0  0  0  0
  -23.6315   -8.2264   22.0754 C   0  0  0  0  0  0
  -22.4301   -8.0308   21.3544 C   0  0  0  0  0  0
  -21.9949   -9.0298   20.4649 C   0  0  0  0  0  0
  -22.7301  -10.2169   20.3065 C   0  0  0  0  0  0
  -21.6862   -6.0760   22.5285 C   0  0  0  0  0  0
  -21.4021   -6.5650   23.8223 C   0  0  0  0  0  0
  -21.3655   -5.6792   24.9176 C   0  0  0  0  0  0
  -21.6040   -4.3055   24.7217 C   0  0  0  0  0  0
  -21.8820   -3.8161   23.4335 C   0  0  0  0  0  0
  -21.9195   -4.6983   22.3397 C   0  0  0  0  0  0
  -22.7708  -13.5177   21.1945 C   0  0  0  0  0  0
  -22.1672   -4.2168   21.0971 F   0  0  0  0  0  0
  -21.5619   -3.4536   25.7727 F   0  0  0  0  0  0
  -29.7440  -14.3944   20.2375 N   0  0  0  0  0  0
  -26.2766  -12.9696   20.3270 N   0  0  0  0  0  0
  -25.9377  -11.6748   20.5708 N   0  0  0  0  0  0
  -22.0349  -12.8165   22.0484 N   0  0  0  0  0  0
  -25.3887  -15.2082   20.4340 N   0  0  0  0  0  0
  -31.5002  -15.6747   20.1783 O   0  0  0  0  0  0
  -21.6655   -6.8908   21.4250 O   0  0  0  0  0  0
  -22.3389  -14.5482   20.6782 O   0  0  0  0  0  0
  -24.6944  -31.7893   23.1425 C   0  0  0  0  0  0
  -25.9484  -32.4416   23.7994 C   0  0  1  0  0  0
  -27.2244  -26.6003   20.2208 C   0  0  0  0  0  0
  -25.6028  -33.8244   24.1899 N   0  0  0  0  0  0
  -23.5248  -30.3873   21.4988 C   0  0  2  0  0  0
  -24.9797  -28.7041   20.1202 C   0  0  0  0  0  0
  -22.7825  -29.4266   22.4677 C   0  0  0  0  0  0
  -18.0365  -28.1410   22.8471 C   0  0  0  0  0  0
  -24.1495  -36.7130   23.2651 C   0  0  0  0  0  0
  -26.1083  -30.4847   21.4230 C   0  0  0  0  0  0
  -26.1697  -29.0378   20.7767 C   0  0  0  0  0  0
  -27.2714  -28.0167   20.7936 C   0  0  0  0  0  0
  -26.0018  -26.5017   19.5027 C   0  0  0  0  0  0
  -24.9409  -27.4636   19.4583 C   0  0  0  0  0  0
  -23.7832  -29.6752   20.1385 C   0  0  0  0  0  0
  -25.4153  -36.2877   24.0272 C   0  0  1  0  0  0
  -20.6006  -28.3798   23.1114 C   0  0  2  0  0  0
  -20.6850  -26.9456   22.5365 C   0  0  0  0  0  0
  -19.5784  -26.6357   21.5228 C   0  0  0  0  0  0
  -18.1991  -26.7914   22.1685 C   0  0  0  0  0  0
  -19.1631  -28.8930   23.2767 C   0  0  0  0  0  0
  -18.9541  -30.1521   23.8806 C   0  0  0  0  0  0
  -17.6531  -30.6612   24.0540 C   0  0  0  0  0  0
  -25.9147  -34.9269   23.4936 C   0  0  0  0  0  0
  -16.5418  -29.9089   23.6355 C   0  0  0  0  0  0
  -16.7345  -28.6499   23.0386 C   0  0  0  0  0  0
  -26.4618  -31.6488   25.0661 C   0  0  0  0  0  0
  -25.3653  -31.3852   26.1258 C   0  0  0  0  0  0
  -27.0577  -30.2820   24.6642 C   0  0  0  0  0  0
  -27.6050  -32.4353   25.7501 C   0  0  0  0  0  0
  -27.5570  -37.1723   24.8462 C   0  0  0  0  0  0
  -21.4460  -29.3039   22.3429 N   0  0  0  0  0  0
  -26.4273  -37.3653   23.9411 N   0  0  0  0  0  0
  -24.8005  -30.9228   22.0739 N   0  0  0  0  0  0
  -23.4222  -28.7890   23.3070 O   0  0  0  0  0  0
  -28.1801  -25.3426   20.2895 O   0  0  0  0  0  0
  -26.5788  -34.8876   22.4558 O   0  0  0  0  0  0
  -23.5942  -32.1012   23.6316 O   0  0  0  0  0  0
  -29.6105  -18.5230   19.3470 C   0  0  0  0  0  0
  -29.5532  -18.5238   21.2525 C   0  0  0  0  0  0
  -28.9144  -19.7954   20.2781 C   0  0  0  0  0  0
  -29.0438  -21.8102   20.3151 C   0  0  0  0  0  0
  -28.0345  -23.5380   20.1602 C   0  0  0  0  0  0
  -29.5399  -17.2121   20.3016 N   0  0  0  0  0  0
  -31.3887  -13.4838   19.1365 H   0  0  0  0  0  0
  -30.6236  -12.3877   20.2322 H   0  0  0  0  0  0
  -30.0362  -11.8442   17.8403 H   0  0  0  0  0  0
  -29.4913  -13.4804   17.5852 H   0  0  0  0  0  0
  -28.1867  -11.3213   19.2481 H   0  0  0  0  0  0
  -27.4727  -12.2175   17.9280 H   0  0  0  0  0  0
  -27.4311  -14.2279   19.2152 H   0  0  0  0  0  0
  -28.8986  -12.8772   21.5274 H   0  0  0  0  0  0
  -28.1432  -14.4507   21.5902 H   0  0  0  0  0  0
  -25.2789   -9.5704   22.4791 H   0  0  0  0  0  0
  -24.0018   -7.4652   22.7474 H   0  0  0  0  0  0
  -21.0874   -8.8853   19.8948 H   0  0  0  0  0  0
  -22.3774  -10.9723   19.6188 H   0  0  0  0  0  0
  -21.2031   -7.6163   23.9737 H   0  0  0  0  0  0
  -21.1462   -6.0516   25.9078 H   0  0  0  0  0  0
  -22.0595   -2.7623   23.2832 H   0  0  0  0  0  0
  -22.3961  -11.9840   22.4906 H   0  0  0  0  0  0
  -21.0965  -13.1201   22.2658 H   0  0  0  0  0  0
  -24.6225  -15.8586   20.5730 H   0  0  0  0  0  0
  -26.2419  -15.6627   20.1316 H   0  0  0  0  0  0
  -26.7576  -32.4864   23.0699 H   0  0  0  0  0  0
  -25.0074  -33.9248   24.9988 H   0  0  0  0  0  0
  -22.8577  -31.2289   21.3011 H   0  0  0  0  0  0
  -23.3797  -35.9418   23.3238 H   0  0  0  0  0  0
  -24.3570  -36.8872   22.2084 H   0  0  0  0  0  0
  -23.7209  -37.6268   23.6774 H   0  0  0  0  0  0
  -26.3258  -31.2001   20.6280 H   0  0  0  0  0  0
  -26.9552  -30.5544   22.0927 H   0  0  0  0  0  0
  -28.1621  -28.2796   21.3467 H   0  0  0  0  0  0
  -25.8211  -25.5695   18.9859 H   0  0  0  0  0  0
  -24.0469  -27.1997   18.9101 H   0  0  0  0  0  0
  -23.9706  -30.4300   19.3740 H   0  0  0  0  0  0
  -22.8845  -29.1504   19.8102 H   0  0  0  0  0  0
  -25.1362  -36.1627   25.0758 H   0  0  0  0  0  0
  -21.0090  -28.3411   24.1238 H   0  0  0  0  0  0
  -20.5799  -26.2412   23.3617 H   0  0  0  0  0  0
  -21.6694  -26.7444   22.1113 H   0  0  0  0  0  0
  -19.6951  -25.6243   21.1316 H   0  0  0  0  0  0
  -19.6683  -27.3114   20.6713 H   0  0  0  0  0  0
  -17.4222  -26.6593   21.4132 H   0  0  0  0  0  0
  -18.0450  -26.0107   22.9141 H   0  0  0  0  0  0
  -19.8024  -30.7364   24.2119 H   0  0  0  0  0  0
  -17.5094  -31.6293   24.5145 H   0  0  0  0  0  0
  -15.5421  -30.2970   23.7730 H   0  0  0  0  0  0
  -15.8742  -28.0793   22.7153 H   0  0  0  0  0  0
  -24.5816  -30.7241   25.7538 H   0  0  0  0  0  0
  -24.8876  -32.3104   26.4494 H   0  0  0  0  0  0
  -25.7784  -30.9105   27.0167 H   0  0  0  0  0  0
  -26.3324  -29.6394   24.1642 H   0  0  0  0  0  0
  -27.3982  -29.7313   25.5424 H   0  0  0  0  0  0
  -27.9311  -30.3939   24.0212 H   0  0  0  0  0  0
  -27.2577  -33.3713   26.1885 H   0  0  0  0  0  0
  -28.3973  -32.6814   25.0419 H   0  0  0  0  0  0
  -28.0594  -31.8608   26.5583 H   0  0  0  0  0  0
  -28.2534  -38.0070   24.7560 H   0  0  0  0  0  0
  -28.1118  -36.2599   24.6226 H   0  0  0  0  0  0
  -27.2290  -37.1281   25.8864 H   0  0  0  0  0  0
  -20.9783  -29.8665   21.6461 H   0  0  0  0  0  0
  -26.0093  -38.2695   24.1442 H   0  0  0  0  0  0
  -30.6354  -18.7656   19.0526 H   0  0  0  0  0  0
  -29.0530  -18.3864   18.4186 H   0  0  0  0  0  0
  -28.9447  -18.3900   22.1481 H   0  0  0  0  0  0
  -30.5626  -18.7666   21.6006 H   0  0  0  0  0  0
  -27.8423  -19.5972   20.2504 H   0  0  0  0  0  0
  -29.8445  -21.9977   19.5998 H   0  0  0  0  0  0
  -29.5391  -21.9816   21.2705 H   0  0  0  0  0  0
  -27.1761  -23.3618   20.8070 H   0  0  0  0  0  0
  -27.6083  -23.4559   19.1600 H   0  0  0  0  0  0
  1 25  1  0  0  0
  1 30  2  0  0  0
  1 76  1  0  0  0
  2  3  1  0  0  0
  2 25  1  0  0  0
  2 77  1  0  0  0
  2 78  1  0  0  0
  3  4  1  0  0  0
  3 79  1  0  0  0
  3 80  1  0  0  0
  4  5  1  0  0  0
  4 81  1  0  0  0
  4 82  1  0  0  0
  5  6  1  0  0  0
  5 26  1  0  0  0
  5 83  1  0  0  0
  6 25  1  0  0  0
  6 84  1  0  0  0
  6 85  1  0  0  0
  7  8  2  0  0  0
  7 26  1  0  0  0
  7 29  1  0  0  0
  8  9  1  0  0  0
  8 22  1  0  0  0
  9 10  1  0  0  0
  9 27  2  0  0  0
 10 11  2  0  0  0
 10 15  1  0  0  0
 11 12  1  0  0  0
 11 86  1  0  0  0
 12 13  2  0  0  0
 12 87  1  0  0  0
 13 14  1  0  0  0
 13 31  1  0  0  0
 14 15  2  0  0  0
 14 88  1  0  0  0
 15 89  1  0  0  0
 16 17  2  0  0  0
 16 21  1  0  0  0
 16 31  1  0  0  0
 17 18  1  0  0  0
 17 90  1  0  0  0
 18 19  2  0  0  0
 18 91  1  0  0  0
 19 20  1  0  0  0
 19 24  1  0  0  0
 20 21  2  0  0  0
 20 92  1  0  0  0
 21 23  1  0  0  0
 22 28  1  0  0  0
 22 32  2  0  0  0
 26 27  1  0  0  0
 28 93  1  0  0  0
 28 94  1  0  0  0
 29 95  1  0  0  0
 29 96  1  0  0  0
 33 34  1  0  0  0
 33 66  1  0  0  0
 33 70  2  0  0  0
 34 36  1  0  0  0
 34 59  1  0  0  0
 34 97  1  0  0  0
 35 44  2  0  0  0
 35 45  1  0  0  0
 35 68  1  0  0  0
 36 56  1  0  0  0
 36 98  1  0  0  0
 37 39  1  0  0  0
 37 47  1  0  0  0
 37 66  1  0  0  0
 37 99  1  0  0  0
 38 43  2  0  0  0
 38 46  1  0  0  0
 38 47  1  0  0  0
 39 64  1  0  0  0
 39 67  2  0  0  0
 40 52  1  0  0  0
 40 53  2  0  0  0
 40 58  1  0  0  0
 41100  1  0  0  0
 41101  1  0  0  0
 41102  1  0  0  0
 41 48  1  0  0  0
 42 43  1  0  0  0
 42 66  1  0  0  0
 42103  1  0  0  0
 42104  1  0  0  0
 43 44  1  0  0  0
 44105  1  0  0  0
 45 46  2  0  0  0
 45106  1  0  0  0
 46107  1  0  0  0
 47108  1  0  0  0
 47109  1  0  0  0
 48 56  1  0  0  0
 48 65  1  0  0  0
 48110  1  0  0  0
 49 50  1  0  0  0
 49 53  1  0  0  0
 49 64  1  0  0  0
 49111  1  0  0  0
 50 51  1  0  0  0
 50112  1  0  0  0
 50113  1  0  0  0
 51 52  1  0  0  0
 51114  1  0  0  0
 51115  1  0  0  0
 52116  1  0  0  0
 52117  1  0  0  0
 53 54  1  0  0  0
 54 55  2  0  0  0
 54118  1  0  0  0
 55 57  1  0  0  0
 55119  1  0  0  0
 56 69  2  0  0  0
 57 58  2  0  0  0
 57120  1  0  0  0
 58121  1  0  0  0
 59 60  1  0  0  0
 59 61  1  0  0  0
 59 62  1  0  0  0
 60122  1  0  0  0
 60123  1  0  0  0
 60124  1  0  0  0
 61125  1  0  0  0
 61126  1  0  0  0
 61127  1  0  0  0
 62128  1  0  0  0
 62129  1  0  0  0
 62130  1  0  0  0
 63 65  1  0  0  0
 63131  1  0  0  0
 63132  1  0  0  0
 63133  1  0  0  0
 64134  1  0  0  0
 65135  1  0  0  0
 68 75  1  0  0  0
 71 73  1  0  0  0
 71 76  1  0  0  0
 71136  1  0  0  0
 71137  1  0  0  0
 72 73  1  0  0  0
 72 76  1  0  0  0
 72138  1  0  0  0
 72139  1  0  0  0
 73 74  1  0  0  0
 73140  1  0  0  0
 74 75  1  0  0  0
 74141  1  0  0  0
 74142  1  0  0  0
 75143  1  0  0  0
 75144  1  0  0  0
M  ISO  4   1 100  68 101  75 101  76 100
M  END
> <chiral flag>
0

> <version>
0

> <s_m_source_file>
/data/baiqing/PycharmProjects/Reinvent-master-3.2/result/LINK_invent/BTK/process_docking_weight1_custom_sum_contain_oxygen_bond_distance_aromatic_linkinvent_7_9_3/rearranged_h_0182.sdf

> <i_m_source_file_index>
14

> <r_mmod_Potential_Energy-OPLS-2005>
3100.75073242188

> <r_mmod_Stretch_Energy-OPLS-2005>
1315.25085449219

> <r_mmod_Bend_Energy-OPLS-2005>
757.176391601562

> <r_mmod_Torsional_Energy-OPLS-2005>
284.674987792969

> <r_mmod_Improper_Torsional_Energy-OPLS-2005>
12.0282793045044

> <r_mmod_Van_der_Waal_Energy-OPLS-2005>
112.928665161133

> <r_mmod_Electrostatic_Energy-OPLS-2005>
-304.006652832031

> <r_mmod_Solvation_Energy-OPLS-2005>
-205.532928466797

> <b_mmod_Minimization_Converged-OPLS-2005>
0

> <r_mmod_RMS_Derivative-OPLS-2005>
2.24376058578491

$$$$
14
                    3D
 Structure written by MMmdl.
158167  0  0  1  0            999 V2000
  -30.7276  -14.7290   20.4822 C   0  0  0  0  0  0
  -30.4033  -12.4565   19.4914 C   0  0  0  0  0  0
  -29.4972  -12.4906   18.2450 C   0  0  0  0  0  0
  -28.0363  -12.2754   18.6681 C   0  0  0  0  0  0
  -27.6257  -13.2093   19.8296 C   0  0  2  0  0  0
  -28.6711  -13.2584   20.9738 C   0  0  0  0  0  0
  -25.2506  -13.8147   20.5718 C   0  0  0  0  0  0
  -24.1780  -13.0428   20.9243 C   0  0  0  0  0  0
  -24.6357  -11.6894   20.8795 C   0  0  0  0  0  0
  -23.9041  -10.4287   21.0449 C   0  0  0  0  0  0
  -24.3612   -9.4203   21.9209 C   0  0  0  0  0  0
  -23.6286   -8.2234   22.0770 C   0  0  0  0  0  0
  -22.4266   -8.0286   21.3558 C   0  0  0  0  0  0
  -21.9902   -9.0259   20.4650 C   0  0  0  0  0  0
  -22.7232  -10.2145   20.3069 C   0  0  0  0  0  0
  -21.6852   -6.0739   22.5286 C   0  0  0  0  0  0
  -21.4017   -6.5649   23.8220 C   0  0  0  0  0  0
  -21.3659   -5.6803   24.9184 C   0  0  0  0  0  0
  -21.6043   -4.3068   24.7231 C   0  0  0  0  0  0
  -21.8815   -3.8152   23.4357 C   0  0  0  0  0  0
  -21.9197   -4.6968   22.3411 C   0  0  0  0  0  0
  -22.7804  -13.5226   21.1884 C   0  0  0  0  0  0
  -22.1656   -4.2160   21.0982 F   0  0  0  0  0  0
  -21.5630   -3.4544   25.7737 F   0  0  0  0  0  0
  -29.9824  -13.5665   20.3893 N   0  0  0  0  0  0
  -26.2859  -12.9281   20.3241 N   0  0  0  0  0  0
  -25.9262  -11.6471   20.5781 N   0  0  0  0  0  0
  -22.0449  -12.8213   22.0434 N   0  0  0  0  0  0
  -25.4251  -15.1873   20.4172 N   0  0  0  0  0  0
  -31.9127  -14.6761   20.1434 O   0  0  0  0  0  0
  -21.6628   -6.8883   21.4245 O   0  0  0  0  0  0
  -22.3492  -14.5533   20.6733 O   0  0  0  0  0  0
  -24.6286  -31.8600   23.2039 C   0  0  0  0  0  0
  -25.9120  -32.4785   23.8378 C   0  0  1  0  0  0
  -27.2090  -27.2883   20.1201 C   0  0  0  0  0  0
  -25.5921  -33.8585   24.2300 N   0  0  0  0  0  0
  -23.4228  -30.4861   21.5486 C   0  0  2  0  0  0
  -24.8675  -28.9461   20.1048 C   0  0  0  0  0  0
  -22.7481  -29.4622   22.4934 C   0  0  0  0  0  0
  -18.0293  -28.1380   22.8498 C   0  0  0  0  0  0
  -24.1487  -36.7303   23.2638 C   0  0  0  0  0  0
  -25.9678  -30.7807   21.3797 C   0  0  0  0  0  0
  -26.0386  -29.4067   20.7212 C   0  0  0  0  0  0
  -27.2103  -28.5871   20.7247 C   0  0  0  0  0  0
  -26.0254  -26.9133   19.4381 C   0  0  0  0  0  0
  -24.8654  -27.7066   19.4532 C   0  0  0  0  0  0
  -23.6361  -29.8278   20.1615 C   0  0  0  0  0  0
  -25.4111  -36.3097   24.0337 C   0  0  1  0  0  0
  -20.5896  -28.3690   23.1281 C   0  0  2  0  0  0
  -20.6775  -26.9408   22.5416 C   0  0  0  0  0  0
  -19.5745  -26.6380   21.5220 C   0  0  0  0  0  0
  -18.1927  -26.7924   22.1631 C   0  0  0  0  0  0
  -19.1548  -28.8851   23.2883 C   0  0  0  0  0  0
  -18.9460  -30.1451   23.8898 C   0  0  0  0  0  0
  -17.6458  -30.6581   24.0565 C   0  0  0  0  0  0
  -25.9049  -34.9459   23.5123 C   0  0  0  0  0  0
  -16.5352  -29.9076   23.6329 C   0  0  0  0  0  0
  -16.7280  -28.6496   23.0353 C   0  0  0  0  0  0
  -26.4486  -31.6586   25.0747 C   0  0  0  0  0  0
  -25.3713  -31.3720   26.1471 C   0  0  0  0  0  0
  -27.0308  -30.3005   24.6187 C   0  0  0  0  0  0
  -27.6053  -32.4305   25.7512 C   0  0  0  0  0  0
  -27.5583  -37.1806   24.8460 C   0  0  0  0  0  0
  -21.4195  -29.3044   22.3669 N   0  0  0  0  0  0
  -26.4292  -37.3789   23.9411 N   0  0  0  0  0  0
  -24.6932  -31.0582   22.1011 N   0  0  0  0  0  0
  -23.4198  -28.8153   23.3013 O   0  0  0  0  0  0
  -28.2892  -26.3856   20.2292 O   0  0  0  0  0  0
  -26.5618  -34.8919   22.4690 O   0  0  0  0  0  0
  -23.5440  -32.1409   23.7342 O   0  0  0  0  0  0
  -29.5702  -22.9953   22.6506 C   0  0  0  0  0  0
  -28.7752  -23.7749   20.7173 C   0  0  0  0  0  0
  -29.2273  -21.5405   21.0013 C   0  0  0  0  0  0
  -28.4027  -17.8517   20.9098 C   0  0  0  0  0  0
  -30.7054  -18.4338   21.7318 C   0  0  0  0  0  0
  -29.0579  -16.6332   20.1637 C   0  0  0  0  0  0
  -31.1850  -17.1028   21.0325 C   0  0  0  0  0  0
  -29.3144  -19.0363   21.3623 C   0  0  0  0  0  0
  -29.9929  -23.2544   24.0805 C   0  0  0  0  0  0
  -28.0364  -24.9360   19.9427 C   0  0  0  0  0  0
  -29.1643  -24.0548   21.9571 N   0  0  0  0  0  0
  -29.6239  -21.7272   22.2514 N   0  0  0  0  0  0
  -28.8066  -22.5258   20.1771 N   0  0  0  0  0  0
  -30.2040  -15.9822   20.8455 N   0  0  0  0  0  0
  -29.2526  -20.2436   20.4944 O   0  0  0  0  0  0
  -31.4476  -12.5214   19.1852 H   0  0  0  0  0  0
  -30.3098  -11.4986   20.0065 H   0  0  0  0  0  0
  -29.7978  -11.7192   17.5330 H   0  0  0  0  0  0
  -29.6037  -13.4467   17.7297 H   0  0  0  0  0  0
  -27.9313  -11.2352   18.9767 H   0  0  0  0  0  0
  -27.3700  -12.4102   17.8162 H   0  0  0  0  0  0
  -27.5642  -14.1717   19.3403 H   0  0  0  0  0  0
  -28.7050  -12.3113   21.5134 H   0  0  0  0  0  0
  -28.3934  -14.0184   21.7060 H   0  0  0  0  0  0
  -25.2777   -9.5674   22.4770 H   0  0  0  0  0  0
  -24.0014   -7.4620   22.7482 H   0  0  0  0  0  0
  -21.0852   -8.8785   19.8929 H   0  0  0  0  0  0
  -22.3724  -10.9691   19.6168 H   0  0  0  0  0  0
  -21.2008   -7.6154   23.9731 H   0  0  0  0  0  0
  -21.1475   -6.0529   25.9093 H   0  0  0  0  0  0
  -22.0593   -2.7609   23.2855 H   0  0  0  0  0  0
  -22.4080  -11.9875   22.4803 H   0  0  0  0  0  0
  -21.1069  -13.1230   22.2643 H   0  0  0  0  0  0
  -24.6637  -15.8471   20.5409 H   0  0  0  0  0  0
  -26.2834  -15.6274   20.1130 H   0  0  0  0  0  0
  -26.7186  -32.5450   23.1127 H   0  0  0  0  0  0
  -25.0056  -33.9735   25.0436 H   0  0  0  0  0  0
  -22.7186  -31.3092   21.4092 H   0  0  0  0  0  0
  -23.3750  -35.9632   23.3299 H   0  0  0  0  0  0
  -24.3583  -36.8922   22.2052 H   0  0  0  0  0  0
  -23.7228  -37.6503   23.6655 H   0  0  0  0  0  0
  -26.0967  -31.5408   20.6073 H   0  0  0  0  0  0
  -26.8509  -30.8353   22.0053 H   0  0  0  0  0  0
  -28.1020  -28.9258   21.2340 H   0  0  0  0  0  0
  -25.9524  -25.9865   18.8893 H   0  0  0  0  0  0
  -23.9738  -27.3573   18.9504 H   0  0  0  0  0  0
  -23.7511  -30.6081   19.4084 H   0  0  0  0  0  0
  -22.7538  -29.2598   19.8606 H   0  0  0  0  0  0
  -25.1283  -36.1971   25.0830 H   0  0  0  0  0  0
  -20.9998  -28.3266   24.1397 H   0  0  0  0  0  0
  -20.5683  -26.2292   23.3613 H   0  0  0  0  0  0
  -21.6639  -26.7422   22.1208 H   0  0  0  0  0  0
  -19.6898  -25.6295   21.1237 H   0  0  0  0  0  0
  -19.6675  -27.3198   20.6757 H   0  0  0  0  0  0
  -17.4194  -26.6682   21.4034 H   0  0  0  0  0  0
  -18.0312  -26.0068   22.9026 H   0  0  0  0  0  0
  -19.7931  -30.7273   24.2264 H   0  0  0  0  0  0
  -17.5006  -31.6260   24.5163 H   0  0  0  0  0  0
  -15.5350  -30.2971   23.7648 H   0  0  0  0  0  0
  -15.8680  -28.0809   22.7061 H   0  0  0  0  0  0
  -24.5900  -30.7052   25.7807 H   0  0  0  0  0  0
  -24.8885  -32.2877   26.4890 H   0  0  0  0  0  0
  -25.8044  -30.8912   27.0249 H   0  0  0  0  0  0
  -26.2869  -29.6777   24.1201 H   0  0  0  0  0  0
  -27.3984  -29.7243   25.4687 H   0  0  0  0  0  0
  -27.8756  -30.4286   23.9418 H   0  0  0  0  0  0
  -27.2684  -33.3615   26.2077 H   0  0  0  0  0  0
  -28.3867  -32.6835   25.0337 H   0  0  0  0  0  0
  -28.0704  -31.8425   26.5432 H   0  0  0  0  0  0
  -28.2592  -38.0114   24.7531 H   0  0  0  0  0  0
  -28.1091  -36.2646   24.6263 H   0  0  0  0  0  0
  -27.2303  -37.1429   25.8863 H   0  0  0  0  0  0
  -20.9362  -29.8781   21.6897 H   0  0  0  0  0  0
  -26.0182  -38.2867   24.1418 H   0  0  0  0  0  0
  -27.9224  -17.4468   21.8033 H   0  0  0  0  0  0
  -27.5850  -18.2509   20.3096 H   0  0  0  0  0  0
  -31.4686  -19.2044   21.6109 H   0  0  0  0  0  0
  -30.6933  -18.2318   22.8037 H   0  0  0  0  0  0
  -29.3788  -16.9466   19.1691 H   0  0  0  0  0  0
  -28.2685  -15.9184   20.0058 H   0  0  0  0  0  0
  -32.0441  -16.7387   21.6003 H   0  0  0  0  0  0
  -31.5809  -17.3596   20.0477 H   0  0  0  0  0  0
  -28.8701  -19.3480   22.3084 H   0  0  0  0  0  0
  -29.9689  -24.3172   24.3231 H   0  0  0  0  0  0
  -31.0067  -22.8935   24.2494 H   0  0  0  0  0  0
  -29.3258  -22.7358   24.7698 H   0  0  0  0  0  0
  -26.9983  -24.6993   20.1752 H   0  0  0  0  0  0
  -28.1597  -24.7680   18.8720 H   0  0  0  0  0  0
  1 25  1  0  0  0
  1 30  2  0  0  0
  1 84  1  0  0  0
  2  3  1  0  0  0
  2 25  1  0  0  0
  2 86  1  0  0  0
  2 87  1  0  0  0
  3  4  1  0  0  0
  3 88  1  0  0  0
  3 89  1  0  0  0
  4  5  1  0  0  0
  4 90  1  0  0  0
  4 91  1  0  0  0
  5  6  1  0  0  0
  5 26  1  0  0  0
  5 92  1  0  0  0
  6 25  1  0  0  0
  6 93  1  0  0  0
  6 94  1  0  0  0
  7  8  2  0  0  0
  7 26  1  0  0  0
  7 29  1  0  0  0
  8  9  1  0  0  0
  8 22  1  0  0  0
  9 10  1  0  0  0
  9 27  2  0  0  0
 10 11  2  0  0  0
 10 15  1  0  0  0
 11 12  1  0  0  0
 11 95  1  0  0  0
 12 13  2  0  0  0
 12 96  1  0  0  0
 13 14  1  0  0  0
 13 31  1  0  0  0
 14 15  2  0  0  0
 14 97  1  0  0  0
 15 98  1  0  0  0
 16 17  2  0  0  0
 16 21  1  0  0  0
 16 31  1  0  0  0
 17 18  1  0  0  0
 17 99  1  0  0  0
 18 19  2  0  0  0
 18100  1  0  0  0
 19 20  1  0  0  0
 19 24  1  0  0  0
 20 21  2  0  0  0
 20101  1  0  0  0
 21 23  1  0  0  0
 22 28  1  0  0  0
 22 32  2  0  0  0
 26 27  1  0  0  0
 28102  1  0  0  0
 28103  1  0  0  0
 29104  1  0  0  0
 29105  1  0  0  0
 33 34  1  0  0  0
 33 66  1  0  0  0
 33 70  2  0  0  0
 34 36  1  0  0  0
 34 59  1  0  0  0
 34106  1  0  0  0
 35 44  2  0  0  0
 35 45  1  0  0  0
 35 68  1  0  0  0
 36 56  1  0  0  0
 36107  1  0  0  0
 37 39  1  0  0  0
 37 47  1  0  0  0
 37 66  1  0  0  0
 37108  1  0  0  0
 38 43  2  0  0  0
 38 46  1  0  0  0
 38 47  1  0  0  0
 39 64  1  0  0  0
 39 67  2  0  0  0
 40 52  1  0  0  0
 40 53  2  0  0  0
 40 58  1  0  0  0
 41109  1  0  0  0
 41110  1  0  0  0
 41111  1  0  0  0
 41 48  1  0  0  0
 42 43  1  0  0  0
 42 66  1  0  0  0
 42112  1  0  0  0
 42113  1  0  0  0
 43 44  1  0  0  0
 44114  1  0  0  0
 45 46  2  0  0  0
 45115  1  0  0  0
 46116  1  0  0  0
 47117  1  0  0  0
 47118  1  0  0  0
 48 56  1  0  0  0
 48 65  1  0  0  0
 48119  1  0  0  0
 49 50  1  0  0  0
 49 53  1  0  0  0
 49 64  1  0  0  0
 49120  1  0  0  0
 50 51  1  0  0  0
 50121  1  0  0  0
 50122  1  0  0  0
 51 52  1  0  0  0
 51123  1  0  0  0
 51124  1  0  0  0
 52125  1  0  0  0
 52126  1  0  0  0
 53 54  1  0  0  0
 54 55  2  0  0  0
 54127  1  0  0  0
 55 57  1  0  0  0
 55128  1  0  0  0
 56 69  2  0  0  0
 57 58  2  0  0  0
 57129  1  0  0  0
 58130  1  0  0  0
 59 60  1  0  0  0
 59 61  1  0  0  0
 59 62  1  0  0  0
 60131  1  0  0  0
 60132  1  0  0  0
 60133  1  0  0  0
 61134  1  0  0  0
 61135  1  0  0  0
 61136  1  0  0  0
 62137  1  0  0  0
 62138  1  0  0  0
 62139  1  0  0  0
 63 65  1  0  0  0
 63140  1  0  0  0
 63141  1  0  0  0
 63142  1  0  0  0
 64143  1  0  0  0
 65144  1  0  0  0
 68 80  1  0  0  0
 71 79  1  0  0  0
 71 81  2  0  0  0
 71 82  1  0  0  0
 72 80  1  0  0  0
 72 81  1  0  0  0
 72 83  2  0  0  0
 73 82  2  0  0  0
 73 83  1  0  0  0
 73 85  1  0  0  0
 74 76  1  0  0  0
 74 78  1  0  0  0
 74145  1  0  0  0
 74146  1  0  0  0
 75 77  1  0  0  0
 75 78  1  0  0  0
 75147  1  0  0  0
 75148  1  0  0  0
 76 84  1  0  0  0
 76149  1  0  0  0
 76150  1  0  0  0
 77 84  1  0  0  0
 77151  1  0  0  0
 77152  1  0  0  0
 78 85  1  0  0  0
 78153  1  0  0  0
 79154  1  0  0  0
 79155  1  0  0  0
 79156  1  0  0  0
 80157  1  0  0  0
 80158  1  0  0  0
M  ISO  4   1 100  68 101  80 101  84 100
M  END
> <chiral flag>
0

> <version>
0

> <s_m_source_file>
/data/baiqing/PycharmProjects/Reinvent-master-3.2/result/LINK_invent/BTK/process_docking_weight1_custom_sum_contain_oxygen_bond_distance_aromatic_linkinvent_7_9_3/rearranged_h_0182.sdf

> <i_m_source_file_index>
15

> <r_mmod_Potential_Energy-OPLS-2005>
-230.667282104492

> <r_mmod_Stretch_Energy-OPLS-2005>
101.532035827637

> <r_mmod_Bend_Energy-OPLS-2005>
203.530899047852

> <r_mmod_Torsional_Energy-OPLS-2005>
325.877868652344

> <r_mmod_Improper_Torsional_Energy-OPLS-2005>
7.72657585144043

> <r_mmod_Van_der_Waal_Energy-OPLS-2005>
184.423492431641

> <r_mmod_Electrostatic_Energy-OPLS-2005>
-916.1748046875

> <r_mmod_Solvation_Energy-OPLS-2005>
-225.994186401367

> <b_mmod_Minimization_Converged-OPLS-2005>
0

> <r_mmod_RMS_Derivative-OPLS-2005>
2.26271462440491

$$$$
15
                    3D
 Structure written by MMmdl.
155165  0  0  1  0            999 V2000
  -30.3912  -15.3794   20.3965 C   0  0  0  0  0  0
  -30.4290  -12.8828   19.5458 C   0  0  0  0  0  0
  -29.5387  -12.5974   18.3045 C   0  0  0  0  0  0
  -28.0927  -12.2972   18.7285 C   0  0  0  0  0  0
  -27.6087  -13.2745   19.8251 C   0  0  2  0  0  0
  -28.6390  -13.4409   20.9597 C   0  0  0  0  0  0
  -25.2379  -13.8233   20.5738 C   0  0  0  0  0  0
  -24.1731  -13.0422   20.9238 C   0  0  0  0  0  0
  -24.6381  -11.6920   20.8742 C   0  0  0  0  0  0
  -23.9077  -10.4292   21.0380 C   0  0  0  0  0  0
  -24.3627   -9.4225   21.9175 C   0  0  0  0  0  0
  -23.6310   -8.2260   22.0768 C   0  0  0  0  0  0
  -22.4297   -8.0280   21.3549 C   0  0  0  0  0  0
  -21.9906   -9.0250   20.4659 C   0  0  0  0  0  0
  -22.7230  -10.2125   20.3055 C   0  0  0  0  0  0
  -21.6866   -6.0728   22.5276 C   0  0  0  0  0  0
  -21.4025   -6.5645   23.8205 C   0  0  0  0  0  0
  -21.3664   -5.6806   24.9174 C   0  0  0  0  0  0
  -21.6035   -4.3066   24.7231 C   0  0  0  0  0  0
  -21.8822   -3.8144   23.4362 C   0  0  0  0  0  0
  -21.9202   -4.6952   22.3405 C   0  0  0  0  0  0
  -22.7760  -13.5180   21.1909 C   0  0  0  0  0  0
  -22.1667   -4.2148   21.0985 F   0  0  0  0  0  0
  -21.5622   -3.4550   25.7741 F   0  0  0  0  0  0
  -29.8473  -14.0375   20.3565 N   0  0  0  0  0  0
  -26.2785  -12.9497   20.3202 N   0  0  0  0  0  0
  -25.9323  -11.6608   20.5717 N   0  0  0  0  0  0
  -22.0440  -12.8158   22.0481 N   0  0  0  0  0  0
  -25.4016  -15.1973   20.4202 N   0  0  0  0  0  0
  -31.5857  -15.3441   20.0473 O   0  0  0  0  0  0
  -21.6661   -6.8874   21.4246 O   0  0  0  0  0  0
  -22.3453  -14.5493   20.6776 O   0  0  0  0  0  0
  -24.6701  -31.8136   23.1634 C   0  0  0  0  0  0
  -25.9345  -32.4541   23.8112 C   0  0  1  0  0  0
  -27.2178  -26.8460   20.1827 C   0  0  0  0  0  0
  -25.5986  -33.8357   24.2027 N   0  0  0  0  0  0
  -23.4923  -30.4227   21.5146 C   0  0  2  0  0  0
  -24.9432  -28.7968   20.1076 C   0  0  0  0  0  0
  -22.7739  -29.4372   22.4742 C   0  0  0  0  0  0
  -18.0336  -28.1430   22.8475 C   0  0  0  0  0  0
  -24.1507  -36.7186   23.2657 C   0  0  0  0  0  0
  -26.0642  -30.5944   21.4012 C   0  0  0  0  0  0
  -26.1291  -29.1773   20.7428 C   0  0  0  0  0  0
  -27.2586  -28.2269   20.7496 C   0  0  0  0  0  0
  -26.0005  -26.6373   19.4938 C   0  0  0  0  0  0
  -24.9108  -27.5543   19.4542 C   0  0  0  0  0  0
  -23.7349  -29.7367   20.1440 C   0  0  0  0  0  0
  -25.4140  -36.2939   24.0313 C   0  0  1  0  0  0
  -20.5976  -28.3763   23.1177 C   0  0  2  0  0  0
  -20.6814  -26.9431   22.5397 C   0  0  0  0  0  0
  -19.5774  -26.6357   21.5237 C   0  0  0  0  0  0
  -18.1958  -26.7958   22.1643 C   0  0  0  0  0  0
  -19.1610  -28.8920   23.2817 C   0  0  0  0  0  0
  -18.9522  -30.1525   23.8824 C   0  0  0  0  0  0
  -17.6519  -30.6607   24.0572 C   0  0  0  0  0  0
  -25.9113  -34.9326   23.4993 C   0  0  0  0  0  0
  -16.5408  -29.9099   23.6349 C   0  0  0  0  0  0
  -16.7322  -28.6528   23.0345 C   0  0  0  0  0  0
  -26.4542  -31.6524   25.0674 C   0  0  0  0  0  0
  -25.3626  -31.3805   26.1301 C   0  0  0  0  0  0
  -27.0459  -30.2888   24.6469 C   0  0  0  0  0  0
  -27.6044  -32.4351   25.7448 C   0  0  0  0  0  0
  -27.5564  -37.1738   24.8476 C   0  0  0  0  0  0
  -21.4404  -29.3036   22.3533 N   0  0  0  0  0  0
  -26.4266  -37.3685   23.9439 N   0  0  0  0  0  0
  -24.7645  -30.9717   22.0812 N   0  0  0  0  0  0
  -23.4232  -28.7905   23.3000 O   0  0  0  0  0  0
  -28.2120  -25.7066   20.2823 O   0  0  0  0  0  0
  -26.5727  -34.8878   22.4602 O   0  0  0  0  0  0
  -23.5747  -32.1125   23.6692 O   0  0  0  0  0  0
  -28.8827  -20.6756   20.0515 C   0  0  0  0  0  0
  -28.4637  -19.1811   18.3679 C   0  0  0  0  0  0
  -29.4223  -18.1308   20.1607 C   0  0  0  0  0  0
  -28.7820  -17.6782   23.0513 C   0  0  0  0  0  0
  -28.5349  -16.2047   23.0430 C   0  0  0  0  0  0
  -29.5149  -23.5052   19.8203 C   0  0  0  0  0  0
  -28.7540  -22.4154   20.5352 C   0  0  1  0  0  0
  -29.7149  -16.7634   22.2570 C   0  0  0  0  0  0
  -28.0927  -24.0384   19.9804 C   0  0  2  0  0  0
  -27.8451  -18.9852   16.9993 C   0  0  0  0  0  0
  -28.4077  -20.4411   18.8332 N   0  0  0  0  0  0
  -29.4052  -19.4888   20.7352 N   0  0  0  0  0  0
  -28.9405  -18.0544   18.9258 N   0  0  0  0  0  0
  -29.7360  -16.6962   20.8073 N   0  0  0  0  0  0
  -31.4486  -13.0807   19.2196 H   0  0  0  0  0  0
  -30.5134  -11.9800   20.1530 H   0  0  0  0  0  0
  -29.9389  -11.7581   17.7318 H   0  0  0  0  0  0
  -29.5540  -13.4595   17.6370 H   0  0  0  0  0  0
  -28.0707  -11.2788   19.1197 H   0  0  0  0  0  0
  -27.4206  -12.3088   17.8684 H   0  0  0  0  0  0
  -27.5232  -14.2423   19.3289 H   0  0  0  0  0  0
  -28.8427  -12.4810   21.4373 H   0  0  0  0  0  0
  -28.2408  -14.0613   21.7476 H   0  0  0  0  0  0
  -25.2770   -9.5728   22.4754 H   0  0  0  0  0  0
  -24.0018   -7.4666   22.7511 H   0  0  0  0  0  0
  -21.0822   -8.8760   19.8989 H   0  0  0  0  0  0
  -22.3659  -10.9664   19.6183 H   0  0  0  0  0  0
  -21.2025   -7.6162   23.9711 H   0  0  0  0  0  0
  -21.1472   -6.0538   25.9073 H   0  0  0  0  0  0
  -22.0589   -2.7618   23.2860 H   0  0  0  0  0  0
  -22.4086  -11.9802   22.4817 H   0  0  0  0  0  0
  -21.1084  -13.1210   22.2776 H   0  0  0  0  0  0
  -24.6241  -15.8388   20.5391 H   0  0  0  0  0  0
  -26.2410  -15.6478   20.0790 H   0  0  0  0  0  0
  -26.7404  -32.5036   23.0794 H   0  0  0  0  0  0
  -25.0101  -33.9451   25.0155 H   0  0  0  0  0  0
  -22.8123  -31.2570   21.3368 H   0  0  0  0  0  0
  -23.3783  -35.9506   23.3279 H   0  0  0  0  0  0
  -24.3569  -36.8864   22.2079 H   0  0  0  0  0  0
  -23.7240  -37.6350   23.6725 H   0  0  0  0  0  0
  -26.2537  -31.3319   20.6186 H   0  0  0  0  0  0
  -26.9205  -30.6479   22.0604 H   0  0  0  0  0  0
  -28.1558  -28.5224   21.2745 H   0  0  0  0  0  0
  -25.8458  -25.6847   19.0051 H   0  0  0  0  0  0
  -24.0122  -27.2690   18.9224 H   0  0  0  0  0  0
  -23.8958  -30.5016   19.3850 H   0  0  0  0  0  0
  -22.8402  -29.1983   19.8285 H   0  0  0  0  0  0
  -25.1337  -36.1702   25.0792 H   0  0  0  0  0  0
  -21.0079  -28.3333   24.1297 H   0  0  0  0  0  0
  -20.5761  -26.2366   23.3653 H   0  0  0  0  0  0
  -21.6665  -26.7411   22.1171 H   0  0  0  0  0  0
  -19.6963  -25.6260   21.1285 H   0  0  0  0  0  0
  -19.6730  -27.3155   20.6765 H   0  0  0  0  0  0
  -17.4261  -26.6758   21.4015 H   0  0  0  0  0  0
  -18.0297  -26.0125   22.9045 H   0  0  0  0  0  0
  -19.8001  -30.7379   24.2119 H   0  0  0  0  0  0
  -17.5062  -31.6261   24.5220 H   0  0  0  0  0  0
  -15.5408  -30.2987   23.7696 H   0  0  0  0  0  0
  -15.8726  -28.0831   22.7061 H   0  0  0  0  0  0
  -24.5840  -30.7146   25.7542 H   0  0  0  0  0  0
  -24.8776  -32.3040   26.4497 H   0  0  0  0  0  0
  -25.7750  -30.9062   27.0224 H   0  0  0  0  0  0
  -26.3141  -29.6543   24.1454 H   0  0  0  0  0  0
  -27.3969  -29.7256   25.5125 H   0  0  0  0  0  0
  -27.9074  -30.4067   23.9896 H   0  0  0  0  0  0
  -27.2621  -33.3747   26.1788 H   0  0  0  0  0  0
  -28.3885  -32.6766   25.0266 H   0  0  0  0  0  0
  -28.0666  -31.8646   26.5520 H   0  0  0  0  0  0
  -28.2528  -38.0078   24.7489 H   0  0  0  0  0  0
  -28.1090  -36.2582   24.6291 H   0  0  0  0  0  0
  -27.2284  -37.1351   25.8878 H   0  0  0  0  0  0
  -20.9689  -29.8727   21.6643 H   0  0  0  0  0  0
  -26.0109  -38.2736   24.1439 H   0  0  0  0  0  0
  -29.1694  -18.1143   23.9709 H   0  0  0  0  0  0
  -28.0019  -18.2558   22.5617 H   0  0  0  0  0  0
  -27.6179  -15.9232   22.5309 H   0  0  0  0  0  0
  -28.7497  -15.6512   23.9569 H   0  0  0  0  0  0
  -29.8247  -23.2844   18.8016 H   0  0  0  0  0  0
  -30.2971  -23.9837   20.4066 H   0  0  0  0  0  0
  -28.8518  -22.3772   21.6178 H   0  0  0  0  0  0
  -30.6916  -16.6415   22.7244 H   0  0  0  0  0  0
  -27.4297  -23.9319   19.1238 H   0  0  0  0  0  0
  -27.2448  -19.8452   16.6983 H   0  0  0  0  0  0
  -27.1947  -18.1110   16.9914 H   0  0  0  0  0  0
  -28.6200  -18.8366   16.2477 H   0  0  0  0  0  0
  1 25  1  0  0  0
  1 30  2  0  0  0
  1 84  1  0  0  0
  2  3  1  0  0  0
  2 25  1  0  0  0
  2 85  1  0  0  0
  2 86  1  0  0  0
  3  4  1  0  0  0
  3 87  1  0  0  0
  3 88  1  0  0  0
  4  5  1  0  0  0
  4 89  1  0  0  0
  4 90  1  0  0  0
  5  6  1  0  0  0
  5 26  1  0  0  0
  5 91  1  0  0  0
  6 25  1  0  0  0
  6 92  1  0  0  0
  6 93  1  0  0  0
  7  8  2  0  0  0
  7 26  1  0  0  0
  7 29  1  0  0  0
  8  9  1  0  0  0
  8 22  1  0  0  0
  9 10  1  0  0  0
  9 27  2  0  0  0
 10 11  2  0  0  0
 10 15  1  0  0  0
 11 12  1  0  0  0
 11 94  1  0  0  0
 12 13  2  0  0  0
 12 95  1  0  0  0
 13 14  1  0  0  0
 13 31  1  0  0  0
 14 15  2  0  0  0
 14 96  1  0  0  0
 15 97  1  0  0  0
 16 17  2  0  0  0
 16 21  1  0  0  0
 16 31  1  0  0  0
 17 18  1  0  0  0
 17 98  1  0  0  0
 18 19  2  0  0  0
 18 99  1  0  0  0
 19 20  1  0  0  0
 19 24  1  0  0  0
 20 21  2  0  0  0
 20100  1  0  0  0
 21 23  1  0  0  0
 22 28  1  0  0  0
 22 32  2  0  0  0
 26 27  1  0  0  0
 28101  1  0  0  0
 28102  1  0  0  0
 29103  1  0  0  0
 29104  1  0  0  0
 33 34  1  0  0  0
 33 66  1  0  0  0
 33 70  2  0  0  0
 34 36  1  0  0  0
 34 59  1  0  0  0
 34105  1  0  0  0
 35 44  2  0  0  0
 35 45  1  0  0  0
 35 68  1  0  0  0
 36 56  1  0  0  0
 36106  1  0  0  0
 37 39  1  0  0  0
 37 47  1  0  0  0
 37 66  1  0  0  0
 37107  1  0  0  0
 38 43  2  0  0  0
 38 46  1  0  0  0
 38 47  1  0  0  0
 39 64  1  0  0  0
 39 67  2  0  0  0
 40 52  1  0  0  0
 40 53  2  0  0  0
 40 58  1  0  0  0
 41108  1  0  0  0
 41109  1  0  0  0
 41110  1  0  0  0
 41 48  1  0  0  0
 42 43  1  0  0  0
 42 66  1  0  0  0
 42111  1  0  0  0
 42112  1  0  0  0
 43 44  1  0  0  0
 44113  1  0  0  0
 45 46  2  0  0  0
 45114  1  0  0  0
 46115  1  0  0  0
 47116  1  0  0  0
 47117  1  0  0  0
 48 56  1  0  0  0
 48 65  1  0  0  0
 48118  1  0  0  0
 49 50  1  0  0  0
 49 53  1  0  0  0
 49 64  1  0  0  0
 49119  1  0  0  0
 50 51  1  0  0  0
 50120  1  0  0  0
 50121  1  0  0  0
 51 52  1  0  0  0
 51122  1  0  0  0
 51123  1  0  0  0
 52124  1  0  0  0
 52125  1  0  0  0
 53 54  1  0  0  0
 54 55  2  0  0  0
 54126  1  0  0  0
 55 57  1  0  0  0
 55127  1  0  0  0
 56 69  2  0  0  0
 57 58  2  0  0  0
 57128  1  0  0  0
 58129  1  0  0  0
 59 60  1  0  0  0
 59 61  1  0  0  0
 59 62  1  0  0  0
 60130  1  0  0  0
 60131  1  0  0  0
 60132  1  0  0  0
 61133  1  0  0  0
 61134  1  0  0  0
 61135  1  0  0  0
 62136  1  0  0  0
 62137  1  0  0  0
 62138  1  0  0  0
 63 65  1  0  0  0
 63139  1  0  0  0
 63140  1  0  0  0
 63141  1  0  0  0
 64142  1  0  0  0
 65143  1  0  0  0
 68 79  1  0  0  0
 71 81  1  0  0  0
 71 82  2  0  0  0
 71 77  1  0  0  0
 72 80  1  0  0  0
 72 81  2  0  0  0
 72 83  1  0  0  0
 73 82  1  0  0  0
 73 83  2  0  0  0
 73 84  1  0  0  0
 74 75  1  0  0  0
 74 78  1  0  0  0
 74144  1  0  0  0
 74145  1  0  0  0
 75 78  1  0  0  0
 75146  1  0  0  0
 75147  1  0  0  0
 76 77  1  0  0  0
 76 79  1  0  0  0
 76148  1  0  0  0
 76149  1  0  0  0
 77 79  1  0  0  0
 77150  1  0  0  0
 78 84  1  0  0  0
 78151  1  0  0  0
 79152  1  0  0  0
 80153  1  0  0  0
 80154  1  0  0  0
 80155  1  0  0  0
M  ISO  4   1 100  68 101  79 101  84 100
M  END
> <chiral flag>
0

> <version>
0

> <s_m_source_file>
/data/baiqing/PycharmProjects/Reinvent-master-3.2/result/LINK_invent/BTK/process_docking_weight1_custom_sum_contain_oxygen_bond_distance_aromatic_linkinvent_7_9_3/rearranged_h_0182.sdf

> <i_m_source_file_index>
16

> <r_mmod_Potential_Energy-OPLS-2005>
1277.91918945312

> <r_mmod_Stretch_Energy-OPLS-2005>
763.385620117188

> <r_mmod_Bend_Energy-OPLS-2005>
516.164367675781

> <r_mmod_Torsional_Energy-OPLS-2005>
351.691619873047

> <r_mmod_Improper_Torsional_Energy-OPLS-2005>
3.3656952381134

> <r_mmod_Van_der_Waal_Energy-OPLS-2005>
142.786148071289

> <r_mmod_Electrostatic_Energy-OPLS-2005>
-849.049377441406

> <r_mmod_Solvation_Energy-OPLS-2005>
-220.525573730469

> <b_mmod_Minimization_Converged-OPLS-2005>
0

> <r_mmod_RMS_Derivative-OPLS-2005>
4.04312086105347

$$$$
16
                    3D
 Structure written by MMmdl.
148157  0  0  1  0            999 V2000
  -30.3939  -15.4202   20.3483 C   0  0  0  0  0  0
  -30.4338  -12.9211   19.5390 C   0  0  0  0  0  0
  -29.5437  -12.6021   18.3090 C   0  0  0  0  0  0
  -28.1037  -12.2913   18.7455 C   0  0  0  0  0  0
  -27.6048  -13.2884   19.8187 C   0  0  2  0  0  0
  -28.6298  -13.5388   20.9479 C   0  0  0  0  0  0
  -25.2365  -13.8263   20.5781 C   0  0  0  0  0  0
  -24.1729  -13.0437   20.9275 C   0  0  0  0  0  0
  -24.6399  -11.6938   20.8761 C   0  0  0  0  0  0
  -23.9097  -10.4291   21.0400 C   0  0  0  0  0  0
  -24.3638   -9.4205   21.9183 C   0  0  0  0  0  0
  -23.6302   -8.2245   22.0754 C   0  0  0  0  0  0
  -22.4284   -8.0284   21.3543 C   0  0  0  0  0  0
  -21.9927   -9.0259   20.4647 C   0  0  0  0  0  0
  -22.7264  -10.2133   20.3054 C   0  0  0  0  0  0
  -21.6855   -6.0735   22.5279 C   0  0  0  0  0  0
  -21.4016   -6.5638   23.8211 C   0  0  0  0  0  0
  -21.3657   -5.6792   24.9174 C   0  0  0  0  0  0
  -21.6044   -4.3053   24.7224 C   0  0  0  0  0  0
  -21.8819   -3.8145   23.4345 C   0  0  0  0  0  0
  -21.9194   -4.6963   22.3402 C   0  0  0  0  0  0
  -22.7742  -13.5184   21.1909 C   0  0  0  0  0  0
  -22.1663   -4.2147   21.0980 F   0  0  0  0  0  0
  -21.5626   -3.4538   25.7739 F   0  0  0  0  0  0
  -29.8400  -14.0906   20.3089 N   0  0  0  0  0  0
  -26.2795  -12.9561   20.3226 N   0  0  0  0  0  0
  -25.9340  -11.6650   20.5710 N   0  0  0  0  0  0
  -22.0397  -12.8172   22.0462 N   0  0  0  0  0  0
  -25.3988  -15.2000   20.4236 N   0  0  0  0  0  0
  -31.6184  -15.3776   20.1446 O   0  0  0  0  0  0
  -21.6641   -6.8881   21.4243 O   0  0  0  0  0  0
  -22.3423  -14.5481   20.6737 O   0  0  0  0  0  0
  -24.6715  -31.8138   23.1628 C   0  0  0  0  0  0
  -25.9352  -32.4536   23.8129 C   0  0  1  0  0  0
  -27.2205  -26.8332   20.1921 C   0  0  0  0  0  0
  -25.5980  -33.8356   24.2027 N   0  0  0  0  0  0
  -23.4917  -30.4213   21.5133 C   0  0  2  0  0  0
  -24.9482  -28.7911   20.1118 C   0  0  0  0  0  0
  -22.7714  -29.4385   22.4744 C   0  0  0  0  0  0
  -18.0334  -28.1415   22.8463 C   0  0  0  0  0  0
  -24.1491  -36.7184   23.2651 C   0  0  0  0  0  0
  -26.0663  -30.5880   21.4093 C   0  0  0  0  0  0
  -26.1337  -29.1683   20.7544 C   0  0  0  0  0  0
  -27.2595  -28.2116   20.7698 C   0  0  0  0  0  0
  -26.0082  -26.6371   19.4895 C   0  0  0  0  0  0
  -24.9169  -27.5487   19.4575 C   0  0  0  0  0  0
  -23.7382  -29.7301   20.1430 C   0  0  0  0  0  0
  -25.4134  -36.2937   24.0295 C   0  0  1  0  0  0
  -20.5963  -28.3765   23.1166 C   0  0  2  0  0  0
  -20.6803  -26.9431   22.5406 C   0  0  0  0  0  0
  -19.5777  -26.6374   21.5218 C   0  0  0  0  0  0
  -18.1959  -26.7949   22.1620 C   0  0  0  0  0  0
  -19.1599  -28.8911   23.2798 C   0  0  0  0  0  0
  -18.9510  -30.1499   23.8835 C   0  0  0  0  0  0
  -17.6501  -30.6600   24.0555 C   0  0  0  0  0  0
  -25.9110  -34.9321   23.4991 C   0  0  0  0  0  0
  -16.5388  -29.9087   23.6349 C   0  0  0  0  0  0
  -16.7315  -28.6512   23.0364 C   0  0  0  0  0  0
  -26.4568  -31.6522   25.0698 C   0  0  0  0  0  0
  -25.3672  -31.3797   26.1342 C   0  0  0  0  0  0
  -27.0489  -30.2879   24.6512 C   0  0  0  0  0  0
  -27.6041  -32.4360   25.7499 C   0  0  0  0  0  0
  -27.5570  -37.1736   24.8462 C   0  0  0  0  0  0
  -21.4372  -29.3037   22.3499 N   0  0  0  0  0  0
  -26.4270  -37.3686   23.9417 N   0  0  0  0  0  0
  -24.7654  -30.9704   22.0816 N   0  0  0  0  0  0
  -23.4217  -28.7960   23.3025 O   0  0  0  0  0  0
  -28.1862  -25.6648   20.2962 O   0  0  0  0  0  0
  -26.5740  -34.8875   22.4602 O   0  0  0  0  0  0
  -23.5761  -32.1156   23.6662 O   0  0  0  0  0  0
  -29.5301  -22.0689   21.5181 C   0  0  0  0  0  0
  -29.8823  -20.7038   21.4773 C   0  0  0  0  0  0
  -28.6988  -22.4337   20.3923 C   0  0  0  0  0  0
  -30.8688  -19.8332   22.1670 C   0  0  0  0  0  0
  -31.2171  -18.6711   21.1803 C   0  0  0  0  0  0
  -30.0240  -18.4121   20.2074 C   0  0  2  0  0  0
  -27.9195  -24.0211   19.9824 C   0  0  0  0  0  0
  -28.6319  -21.0869   19.7719 N   0  0  0  0  0  0
  -29.3034  -19.9476   20.4835 N   0  0  0  0  0  0
  -29.6606  -16.7495   20.4200 N   0  0  0  0  0  0
  -31.4432  -13.1444   19.1914 H   0  0  0  0  0  0
  -30.5401  -12.0449   20.1804 H   0  0  0  0  0  0
  -29.9567  -11.7635   17.7466 H   0  0  0  0  0  0
  -29.5436  -13.4569   17.6311 H   0  0  0  0  0  0
  -28.0960  -11.2817   19.1583 H   0  0  0  0  0  0
  -27.4336  -12.2772   17.8854 H   0  0  0  0  0  0
  -27.4961  -14.2332   19.2842 H   0  0  0  0  0  0
  -28.8363  -12.6295   21.5143 H   0  0  0  0  0  0
  -28.2369  -14.2660   21.6603 H   0  0  0  0  0  0
  -25.2777   -9.5679   22.4764 H   0  0  0  0  0  0
  -24.0002   -7.4638   22.7479 H   0  0  0  0  0  0
  -21.0853   -8.8788   19.8955 H   0  0  0  0  0  0
  -22.3721  -10.9677   19.6164 H   0  0  0  0  0  0
  -21.2011   -7.6147   23.9715 H   0  0  0  0  0  0
  -21.1477   -6.0520   25.9076 H   0  0  0  0  0  0
  -22.0598   -2.7607   23.2848 H   0  0  0  0  0  0
  -22.4021  -11.9852   22.4879 H   0  0  0  0  0  0
  -21.1005  -13.1178   22.2639 H   0  0  0  0  0  0
  -24.6302  -15.8503   20.5466 H   0  0  0  0  0  0
  -26.2398  -15.6438   20.0797 H   0  0  0  0  0  0
  -26.7425  -32.5047   23.0839 H   0  0  0  0  0  0
  -25.0038  -33.9410   25.0117 H   0  0  0  0  0  0
  -22.8101  -31.2555   21.3345 H   0  0  0  0  0  0
  -23.3778  -35.9487   23.3260 H   0  0  0  0  0  0
  -24.3565  -36.8896   22.2078 H   0  0  0  0  0  0
  -23.7226  -37.6339   23.6755 H   0  0  0  0  0  0
  -26.2574  -31.3227   20.6264 H   0  0  0  0  0  0
  -26.9211  -30.6487   22.0703 H   0  0  0  0  0  0
  -28.1506  -28.4962   21.3112 H   0  0  0  0  0  0
  -25.8618  -25.6918   18.9869 H   0  0  0  0  0  0
  -24.0190  -27.2542   18.9316 H   0  0  0  0  0  0
  -23.9034  -30.4958   19.3846 H   0  0  0  0  0  0
  -22.8458  -29.1899   19.8220 H   0  0  0  0  0  0
  -25.1335  -36.1717   25.0785 H   0  0  0  0  0  0
  -21.0052  -28.3390   24.1293 H   0  0  0  0  0  0
  -20.5683  -26.2383   23.3660 H   0  0  0  0  0  0
  -21.6665  -26.7394   22.1212 H   0  0  0  0  0  0
  -19.6931  -25.6272   21.1282 H   0  0  0  0  0  0
  -19.6723  -27.3155   20.6724 H   0  0  0  0  0  0
  -17.4233  -26.6704   21.4016 H   0  0  0  0  0  0
  -18.0333  -26.0096   22.9020 H   0  0  0  0  0  0
  -19.7984  -30.7329   24.2176 H   0  0  0  0  0  0
  -17.5055  -31.6274   24.5171 H   0  0  0  0  0  0
  -15.5386  -30.2970   23.7714 H   0  0  0  0  0  0
  -15.8715  -28.0814   22.7106 H   0  0  0  0  0  0
  -24.5874  -30.7122   25.7653 H   0  0  0  0  0  0
  -24.8833  -32.2999   26.4621 H   0  0  0  0  0  0
  -25.7880  -30.9063   27.0223 H   0  0  0  0  0  0
  -26.3184  -29.6511   24.1508 H   0  0  0  0  0  0
  -27.3971  -29.7292   25.5209 H   0  0  0  0  0  0
  -27.9139  -30.4034   23.9980 H   0  0  0  0  0  0
  -27.2606  -33.3727   26.1899 H   0  0  0  0  0  0
  -28.3930  -32.6819   25.0379 H   0  0  0  0  0  0
  -28.0622  -31.8613   26.5557 H   0  0  0  0  0  0
  -28.2544  -38.0074   24.7543 H   0  0  0  0  0  0
  -28.1111  -36.2600   24.6247 H   0  0  0  0  0  0
  -27.2289  -37.1326   25.8863 H   0  0  0  0  0  0
  -20.9652  -29.8718   21.6601 H   0  0  0  0  0  0
  -26.0112  -38.2733   24.1463 H   0  0  0  0  0  0
  -29.8917  -22.7642   22.2629 H   0  0  0  0  0  0
  -30.4212  -19.4328   23.0770 H   0  0  0  0  0  0
  -31.7596  -20.3909   22.4567 H   0  0  0  0  0  0
  -31.5471  -17.7876   21.7257 H   0  0  0  0  0  0
  -32.0694  -18.9867   20.5774 H   0  0  0  0  0  0
  -30.3975  -18.4575   19.1837 H   0  0  0  0  0  0
  -26.8852  -23.8992   20.3042 H   0  0  0  0  0  0
  -27.8371  -24.0145   18.8959 H   0  0  0  0  0  0
  -28.6724  -16.6088   20.5698 H   0  0  0  0  0  0
  1 25  1  0  0  0
  1 30  2  0  0  0
  1 80  1  0  0  0
  2  3  1  0  0  0
  2 25  1  0  0  0
  2 81  1  0  0  0
  2 82  1  0  0  0
  3  4  1  0  0  0
  3 83  1  0  0  0
  3 84  1  0  0  0
  4  5  1  0  0  0
  4 85  1  0  0  0
  4 86  1  0  0  0
  5  6  1  0  0  0
  5 26  1  0  0  0
  5 87  1  0  0  0
  6 25  1  0  0  0
  6 88  1  0  0  0
  6 89  1  0  0  0
  7  8  2  0  0  0
  7 26  1  0  0  0
  7 29  1  0  0  0
  8  9  1  0  0  0
  8 22  1  0  0  0
  9 10  1  0  0  0
  9 27  2  0  0  0
 10 11  2  0  0  0
 10 15  1  0  0  0
 11 12  1  0  0  0
 11 90  1  0  0  0
 12 13  2  0  0  0
 12 91  1  0  0  0
 13 14  1  0  0  0
 13 31  1  0  0  0
 14 15  2  0  0  0
 14 92  1  0  0  0
 15 93  1  0  0  0
 16 17  2  0  0  0
 16 21  1  0  0  0
 16 31  1  0  0  0
 17 18  1  0  0  0
 17 94  1  0  0  0
 18 19  2  0  0  0
 18 95  1  0  0  0
 19 20  1  0  0  0
 19 24  1  0  0  0
 20 21  2  0  0  0
 20 96  1  0  0  0
 21 23  1  0  0  0
 22 28  1  0  0  0
 22 32  2  0  0  0
 26 27  1  0  0  0
 28 97  1  0  0  0
 28 98  1  0  0  0
 29 99  1  0  0  0
 29100  1  0  0  0
 33 34  1  0  0  0
 33 66  1  0  0  0
 33 70  2  0  0  0
 34 36  1  0  0  0
 34 59  1  0  0  0
 34101  1  0  0  0
 35 44  2  0  0  0
 35 45  1  0  0  0
 35 68  1  0  0  0
 36 56  1  0  0  0
 36102  1  0  0  0
 37 39  1  0  0  0
 37 47  1  0  0  0
 37 66  1  0  0  0
 37103  1  0  0  0
 38 43  2  0  0  0
 38 46  1  0  0  0
 38 47  1  0  0  0
 39 64  1  0  0  0
 39 67  2  0  0  0
 40 52  1  0  0  0
 40 53  2  0  0  0
 40 58  1  0  0  0
 41104  1  0  0  0
 41105  1  0  0  0
 41106  1  0  0  0
 41 48  1  0  0  0
 42 43  1  0  0  0
 42 66  1  0  0  0
 42107  1  0  0  0
 42108  1  0  0  0
 43 44  1  0  0  0
 44109  1  0  0  0
 45 46  2  0  0  0
 45110  1  0  0  0
 46111  1  0  0  0
 47112  1  0  0  0
 47113  1  0  0  0
 48 56  1  0  0  0
 48 65  1  0  0  0
 48114  1  0  0  0
 49 50  1  0  0  0
 49 53  1  0  0  0
 49 64  1  0  0  0
 49115  1  0  0  0
 50 51  1  0  0  0
 50116  1  0  0  0
 50117  1  0  0  0
 51 52  1  0  0  0
 51118  1  0  0  0
 51119  1  0  0  0
 52120  1  0  0  0
 52121  1  0  0  0
 53 54  1  0  0  0
 54 55  2  0  0  0
 54122  1  0  0  0
 55 57  1  0  0  0
 55123  1  0  0  0
 56 69  2  0  0  0
 57 58  2  0  0  0
 57124  1  0  0  0
 58125  1  0  0  0
 59 60  1  0  0  0
 59 61  1  0  0  0
 59 62  1  0  0  0
 60126  1  0  0  0
 60127  1  0  0  0
 60128  1  0  0  0
 61129  1  0  0  0
 61130  1  0  0  0
 61131  1  0  0  0
 62132  1  0  0  0
 62133  1  0  0  0
 62134  1  0  0  0
 63 65  1  0  0  0
 63135  1  0  0  0
 63136  1  0  0  0
 63137  1  0  0  0
 64138  1  0  0  0
 65139  1  0  0  0
 68 77  1  0  0  0
 71 72  2  0  0  0
 71 73  1  0  0  0
 71140  1  0  0  0
 72 74  1  0  0  0
 72 79  1  0  0  0
 73 77  1  0  0  0
 73 78  2  0  0  0
 74 75  1  0  0  0
 74141  1  0  0  0
 74142  1  0  0  0
 75 76  1  0  0  0
 75143  1  0  0  0
 75144  1  0  0  0
 76 79  1  0  0  0
 76 80  1  0  0  0
 76145  1  0  0  0
 77146  1  0  0  0
 77147  1  0  0  0
 78 79  1  0  0  0
 80148  1  0  0  0
M  ISO  4   1 100  68 101  77 101  80 100
M  END
> <chiral flag>
0

> <version>
0

> <s_m_source_file>
/data/baiqing/PycharmProjects/Reinvent-master-3.2/result/LINK_invent/BTK/process_docking_weight1_custom_sum_contain_oxygen_bond_distance_aromatic_linkinvent_7_9_3/rearranged_h_0182.sdf

> <i_m_source_file_index>
17

> <r_mmod_Potential_Energy-OPLS-2005>
1730.29968261719

> <r_mmod_Stretch_Energy-OPLS-2005>
742.847961425781

> <r_mmod_Bend_Energy-OPLS-2005>
619.934020996094

> <r_mmod_Torsional_Energy-OPLS-2005>
253.291351318359

> <r_mmod_Improper_Torsional_Energy-OPLS-2005>
13.580659866333

> <r_mmod_Van_der_Waal_Energy-OPLS-2005>
106.293907165527

> <r_mmod_Electrostatic_Energy-OPLS-2005>
-400.513916015625

> <r_mmod_Solvation_Energy-OPLS-2005>
-234.005874633789

> <b_mmod_Minimization_Converged-OPLS-2005>
0

> <r_mmod_RMS_Derivative-OPLS-2005>
0.914947330951691

$$$$
17
                    3D
 Structure written by MMmdl.
158167  0  0  1  0            999 V2000
  -30.6603  -14.7294   20.4695 C   0  0  0  0  0  0
  -30.4274  -12.4608   19.4502 C   0  0  0  0  0  0
  -29.4945  -12.4950   18.2216 C   0  0  0  0  0  0
  -28.0276  -12.2948   18.6497 C   0  0  0  0  0  0
  -27.6355  -13.1953   19.8480 C   0  0  2  0  0  0
  -28.6959  -13.1368   20.9740 C   0  0  0  0  0  0
  -25.2500  -13.8085   20.5683 C   0  0  0  0  0  0
  -24.1775  -13.0380   20.9225 C   0  0  0  0  0  0
  -24.6340  -11.6852   20.8793 C   0  0  0  0  0  0
  -23.9018  -10.4255   21.0443 C   0  0  0  0  0  0
  -24.3585   -9.4173   21.9209 C   0  0  0  0  0  0
  -23.6270   -8.2206   22.0761 C   0  0  0  0  0  0
  -22.4255   -8.0254   21.3544 C   0  0  0  0  0  0
  -21.9886   -9.0228   20.4650 C   0  0  0  0  0  0
  -22.7205  -10.2109   20.3074 C   0  0  0  0  0  0
  -21.6841   -6.0719   22.5279 C   0  0  0  0  0  0
  -21.4004   -6.5629   23.8210 C   0  0  0  0  0  0
  -21.3658   -5.6786   24.9176 C   0  0  0  0  0  0
  -21.6045   -4.3049   24.7230 C   0  0  0  0  0  0
  -21.8821   -3.8137   23.4353 C   0  0  0  0  0  0
  -21.9189   -4.6950   22.3406 C   0  0  0  0  0  0
  -22.7809  -13.5201   21.1874 C   0  0  0  0  0  0
  -22.1660   -4.2135   21.0984 F   0  0  0  0  0  0
  -21.5633   -3.4536   25.7745 F   0  0  0  0  0  0
  -29.9779  -13.5305   20.3746 N   0  0  0  0  0  0
  -26.2901  -12.9222   20.3323 N   0  0  0  0  0  0
  -25.9260  -11.6408   20.5822 N   0  0  0  0  0  0
  -22.0442  -12.8211   22.0434 N   0  0  0  0  0  0
  -25.4151  -15.1801   20.4021 N   0  0  0  0  0  0
  -31.8656  -14.7390   20.2010 O   0  0  0  0  0  0
  -21.6621   -6.8855   21.4238 O   0  0  0  0  0  0
  -22.3513  -14.5513   20.6714 O   0  0  0  0  0  0
  -24.6279  -31.8582   23.2009 C   0  0  0  0  0  0
  -25.9120  -32.4769   23.8344 C   0  0  1  0  0  0
  -27.2305  -27.3058   20.1050 C   0  0  0  0  0  0
  -25.5929  -33.8570   24.2270 N   0  0  0  0  0  0
  -23.4221  -30.4817   21.5440 C   0  0  2  0  0  0
  -24.8681  -28.9349   20.1097 C   0  0  0  0  0  0
  -22.7482  -29.4617   22.4928 C   0  0  0  0  0  0
  -18.0288  -28.1386   22.8486 C   0  0  0  0  0  0
  -24.1489  -36.7288   23.2639 C   0  0  0  0  0  0
  -25.9647  -30.7837   21.3742 C   0  0  0  0  0  0
  -26.0375  -29.4104   20.7142 C   0  0  0  0  0  0
  -27.2164  -28.6056   20.7061 C   0  0  0  0  0  0
  -26.0250  -26.8765   19.5005 C   0  0  0  0  0  0
  -24.8641  -27.6730   19.4978 C   0  0  0  0  0  0
  -23.6371  -29.8168   20.1592 C   0  0  0  0  0  0
  -25.4114  -36.3078   24.0329 C   0  0  1  0  0  0
  -20.5889  -28.3691   23.1280 C   0  0  2  0  0  0
  -20.6777  -26.9413   22.5409 C   0  0  0  0  0  0
  -19.5752  -26.6385   21.5211 C   0  0  0  0  0  0
  -18.1933  -26.7929   22.1625 C   0  0  0  0  0  0
  -19.1541  -28.8855   23.2879 C   0  0  0  0  0  0
  -18.9463  -30.1458   23.8896 C   0  0  0  0  0  0
  -17.6462  -30.6588   24.0563 C   0  0  0  0  0  0
  -25.9053  -34.9448   23.5101 C   0  0  0  0  0  0
  -16.5354  -29.9086   23.6331 C   0  0  0  0  0  0
  -16.7275  -28.6504   23.0352 C   0  0  0  0  0  0
  -26.4497  -31.6584   25.0720 C   0  0  0  0  0  0
  -25.3728  -31.3733   26.1448 C   0  0  0  0  0  0
  -27.0337  -30.3003   24.6185 C   0  0  0  0  0  0
  -27.6057  -32.4319   25.7491 C   0  0  0  0  0  0
  -27.5581  -37.1798   24.8464 C   0  0  0  0  0  0
  -21.4193  -29.3042   22.3671 N   0  0  0  0  0  0
  -26.4290  -37.3775   23.9411 N   0  0  0  0  0  0
  -24.6905  -31.0582   22.0965 N   0  0  0  0  0  0
  -23.4199  -28.8157   23.3015 O   0  0  0  0  0  0
  -28.3634  -26.4714   20.1805 O   0  0  0  0  0  0
  -26.5621  -34.8918   22.4667 O   0  0  0  0  0  0
  -23.5438  -32.1388   23.7327 O   0  0  0  0  0  0
  -29.9764  -22.2298   21.4665 C   0  0  0  0  0  0
  -28.4539  -22.6429   19.2641 C   0  0  0  0  0  0
  -29.6210  -23.5726   21.1272 C   0  0  0  0  0  0
  -28.8306  -23.8210   19.9754 C   0  0  0  0  0  0
  -29.5728  -21.1235   20.6769 C   0  0  0  0  0  0
  -28.4435  -17.8217   20.9567 C   0  0  0  0  0  0
  -28.5916  -16.3157   20.6436 C   0  0  0  0  0  0
  -30.7221  -17.2956   20.6360 C   0  0  0  0  0  0
  -29.6962  -18.4778   20.3942 C   0  0  2  0  0  0
  -30.1264  -24.7197   21.9812 C   0  0  0  0  0  0
  -28.5184  -25.2476   19.3571 C   0  0  0  0  0  0
  -28.8007  -21.3533   19.5899 N   0  0  0  0  0  0
  -30.0202  -15.9625   20.6522 N   0  0  0  0  0  0
  -30.0162  -19.8012   21.0206 N   0  0  0  0  0  0
  -31.4623  -12.5867   19.1281 H   0  0  0  0  0  0
  -30.3901  -11.4860   19.9391 H   0  0  0  0  0  0
  -29.7833  -11.7245   17.5055 H   0  0  0  0  0  0
  -29.6003  -13.4498   17.7039 H   0  0  0  0  0  0
  -27.9027  -11.2459   18.9220 H   0  0  0  0  0  0
  -27.3586  -12.4713   17.8065 H   0  0  0  0  0  0
  -27.6090  -14.1911   19.4268 H   0  0  0  0  0  0
  -28.7608  -12.1244   21.3756 H   0  0  0  0  0  0
  -28.4403  -13.7586   21.8294 H   0  0  0  0  0  0
  -25.2729   -9.5648   22.4786 H   0  0  0  0  0  0
  -23.9980   -7.4590   22.7472 H   0  0  0  0  0  0
  -21.0820   -8.8744   19.8952 H   0  0  0  0  0  0
  -22.3668  -10.9655   19.6187 H   0  0  0  0  0  0
  -21.1991   -7.6137   23.9708 H   0  0  0  0  0  0
  -21.1482   -6.0519   25.9078 H   0  0  0  0  0  0
  -22.0605   -2.7600   23.2857 H   0  0  0  0  0  0
  -22.4043  -11.9868   22.4826 H   0  0  0  0  0  0
  -21.1067  -13.1256   22.2642 H   0  0  0  0  0  0
  -24.6457  -15.8309   20.5156 H   0  0  0  0  0  0
  -26.2644  -15.6238   20.0805 H   0  0  0  0  0  0
  -26.7185  -32.5431   23.1089 H   0  0  0  0  0  0
  -25.0078  -33.9712   25.0417 H   0  0  0  0  0  0
  -22.7170  -31.3032   21.4005 H   0  0  0  0  0  0
  -23.3753  -35.9618   23.3298 H   0  0  0  0  0  0
  -24.3583  -36.8911   22.2054 H   0  0  0  0  0  0
  -23.7238  -37.6487   23.6662 H   0  0  0  0  0  0
  -26.0995  -31.5475   20.6070 H   0  0  0  0  0  0
  -26.8440  -30.8308   22.0050 H   0  0  0  0  0  0
  -28.1132  -28.9671   21.1894 H   0  0  0  0  0  0
  -25.9216  -25.8990   19.0589 H   0  0  0  0  0  0
  -23.9615  -27.2945   19.0380 H   0  0  0  0  0  0
  -23.7585  -30.5936   19.4034 H   0  0  0  0  0  0
  -22.7565  -29.2480   19.8556 H   0  0  0  0  0  0
  -25.1294  -36.1929   25.0821 H   0  0  0  0  0  0
  -20.9984  -28.3268   24.1400 H   0  0  0  0  0  0
  -20.5678  -26.2300   23.3610 H   0  0  0  0  0  0
  -21.6645  -26.7445   22.1203 H   0  0  0  0  0  0
  -19.6915  -25.6296   21.1241 H   0  0  0  0  0  0
  -19.6690  -27.3196   20.6741 H   0  0  0  0  0  0
  -17.4202  -26.6676   21.4028 H   0  0  0  0  0  0
  -18.0336  -26.0072   22.9024 H   0  0  0  0  0  0
  -19.7939  -30.7272   24.2267 H   0  0  0  0  0  0
  -17.5018  -31.6268   24.5166 H   0  0  0  0  0  0
  -15.5354  -30.2987   23.7656 H   0  0  0  0  0  0
  -15.8676  -28.0822   22.7069 H   0  0  0  0  0  0
  -24.5895  -30.7090   25.7780 H   0  0  0  0  0  0
  -24.8930  -32.2904   26.4875 H   0  0  0  0  0  0
  -25.8050  -30.8908   27.0224 H   0  0  0  0  0  0
  -26.2911  -29.6755   24.1208 H   0  0  0  0  0  0
  -27.4026  -29.7261   25.4694 H   0  0  0  0  0  0
  -27.8786  -30.4282   23.9414 H   0  0  0  0  0  0
  -27.2671  -33.3625   26.2059 H   0  0  0  0  0  0
  -28.3873  -32.6869   25.0321 H   0  0  0  0  0  0
  -28.0717  -31.8448   26.5415 H   0  0  0  0  0  0
  -28.2593  -38.0100   24.7520 H   0  0  0  0  0  0
  -28.1081  -36.2632   24.6277 H   0  0  0  0  0  0
  -27.2302  -37.1434   25.8867 H   0  0  0  0  0  0
  -20.9373  -29.8762   21.6877 H   0  0  0  0  0  0
  -26.0170  -38.2849   24.1416 H   0  0  0  0  0  0
  -30.5945  -22.0588   22.3380 H   0  0  0  0  0  0
  -27.8778  -22.7372   18.3553 H   0  0  0  0  0  0
  -28.4024  -17.9579   22.0389 H   0  0  0  0  0  0
  -27.5288  -18.2469   20.5408 H   0  0  0  0  0  0
  -28.2167  -16.1611   19.6336 H   0  0  0  0  0  0
  -27.9946  -15.7452   21.3491 H   0  0  0  0  0  0
  -31.2139  -17.4115   21.6027 H   0  0  0  0  0  0
  -31.5077  -17.3184   19.8787 H   0  0  0  0  0  0
  -29.5686  -18.6189   19.3194 H   0  0  0  0  0  0
  -30.7663  -24.3665   22.7898 H   0  0  0  0  0  0
  -29.2904  -25.2583   22.4277 H   0  0  0  0  0  0
  -30.7050  -25.4206   21.3791 H   0  0  0  0  0  0
  -27.7401  -25.1295   18.6090 H   0  0  0  0  0  0
  -29.3950  -25.4635   18.7459 H   0  0  0  0  0  0
  -30.6125  -19.7477   21.8393 H   0  0  0  0  0  0
  1 25  1  0  0  0
  1 30  2  0  0  0
  1 83  1  0  0  0
  2  3  1  0  0  0
  2 25  1  0  0  0
  2 85  1  0  0  0
  2 86  1  0  0  0
  3  4  1  0  0  0
  3 87  1  0  0  0
  3 88  1  0  0  0
  4  5  1  0  0  0
  4 89  1  0  0  0
  4 90  1  0  0  0
  5  6  1  0  0  0
  5 26  1  0  0  0
  5 91  1  0  0  0
  6 25  1  0  0  0
  6 92  1  0  0  0
  6 93  1  0  0  0
  7  8  2  0  0  0
  7 26  1  0  0  0
  7 29  1  0  0  0
  8  9  1  0  0  0
  8 22  1  0  0  0
  9 10  1  0  0  0
  9 27  2  0  0  0
 10 11  2  0  0  0
 10 15  1  0  0  0
 11 12  1  0  0  0
 11 94  1  0  0  0
 12 13  2  0  0  0
 12 95  1  0  0  0
 13 14  1  0  0  0
 13 31  1  0  0  0
 14 15  2  0  0  0
 14 96  1  0  0  0
 15 97  1  0  0  0
 16 17  2  0  0  0
 16 21  1  0  0  0
 16 31  1  0  0  0
 17 18  1  0  0  0
 17 98  1  0  0  0
 18 19  2  0  0  0
 18 99  1  0  0  0
 19 20  1  0  0  0
 19 24  1  0  0  0
 20 21  2  0  0  0
 20100  1  0  0  0
 21 23  1  0  0  0
 22 28  1  0  0  0
 22 32  2  0  0  0
 26 27  1  0  0  0
 28101  1  0  0  0
 28102  1  0  0  0
 29103  1  0  0  0
 29104  1  0  0  0
 33 34  1  0  0  0
 33 66  1  0  0  0
 33 70  2  0  0  0
 34 36  1  0  0  0
 34 59  1  0  0  0
 34105  1  0  0  0
 35 44  2  0  0  0
 35 45  1  0  0  0
 35 68  1  0  0  0
 36 56  1  0  0  0
 36106  1  0  0  0
 37 39  1  0  0  0
 37 47  1  0  0  0
 37 66  1  0  0  0
 37107  1  0  0  0
 38 43  2  0  0  0
 38 46  1  0  0  0
 38 47  1  0  0  0
 39 64  1  0  0  0
 39 67  2  0  0  0
 40 52  1  0  0  0
 40 53  2  0  0  0
 40 58  1  0  0  0
 41108  1  0  0  0
 41109  1  0  0  0
 41110  1  0  0  0
 41 48  1  0  0  0
 42 43  1  0  0  0
 42 66  1  0  0  0
 42111  1  0  0  0
 42112  1  0  0  0
 43 44  1  0  0  0
 44113  1  0  0  0
 45 46  2  0  0  0
 45114  1  0  0  0
 46115  1  0  0  0
 47116  1  0  0  0
 47117  1  0  0  0
 48 56  1  0  0  0
 48 65  1  0  0  0
 48118  1  0  0  0
 49 50  1  0  0  0
 49 53  1  0  0  0
 49 64  1  0  0  0
 49119  1  0  0  0
 50 51  1  0  0  0
 50120  1  0  0  0
 50121  1  0  0  0
 51 52  1  0  0  0
 51122  1  0  0  0
 51123  1  0  0  0
 52124  1  0  0  0
 52125  1  0  0  0
 53 54  1  0  0  0
 54 55  2  0  0  0
 54126  1  0  0  0
 55 57  1  0  0  0
 55127  1  0  0  0
 56 69  2  0  0  0
 57 58  2  0  0  0
 57128  1  0  0  0
 58129  1  0  0  0
 59 60  1  0  0  0
 59 61  1  0  0  0
 59 62  1  0  0  0
 60130  1  0  0  0
 60131  1  0  0  0
 60132  1  0  0  0
 61133  1  0  0  0
 61134  1  0  0  0
 61135  1  0  0  0
 62136  1  0  0  0
 62137  1  0  0  0
 62138  1  0  0  0
 63 65  1  0  0  0
 63139  1  0  0  0
 63140  1  0  0  0
 63141  1  0  0  0
 64142  1  0  0  0
 65143  1  0  0  0
 68 81  1  0  0  0
 71 73  2  0  0  0
 71 75  1  0  0  0
 71144  1  0  0  0
 72 74  2  0  0  0
 72 82  1  0  0  0
 72145  1  0  0  0
 73 74  1  0  0  0
 73 80  1  0  0  0
 74 81  1  0  0  0
 75 82  2  0  0  0
 75 84  1  0  0  0
 76 77  1  0  0  0
 76 79  1  0  0  0
 76146  1  0  0  0
 76147  1  0  0  0
 77 83  1  0  0  0
 77148  1  0  0  0
 77149  1  0  0  0
 78 79  1  0  0  0
 78 83  1  0  0  0
 78150  1  0  0  0
 78151  1  0  0  0
 79 84  1  0  0  0
 79152  1  0  0  0
 80153  1  0  0  0
 80154  1  0  0  0
 80155  1  0  0  0
 81156  1  0  0  0
 81157  1  0  0  0
 84158  1  0  0  0
M  ISO  4   1 100  68 101  81 101  83 100
M  END
> <chiral flag>
0

> <version>
0

> <s_m_source_file>
/data/baiqing/PycharmProjects/Reinvent-master-3.2/result/LINK_invent/BTK/process_docking_weight1_custom_sum_contain_oxygen_bond_distance_aromatic_linkinvent_7_9_3/rearranged_h_0182.sdf

> <i_m_source_file_index>
18

> <r_mmod_Potential_Energy-OPLS-2005>
102.35245513916

> <r_mmod_Stretch_Energy-OPLS-2005>
89.396484375

> <r_mmod_Bend_Energy-OPLS-2005>
218.793182373047

> <r_mmod_Torsional_Energy-OPLS-2005>
299.673400878906

> <r_mmod_Improper_Torsional_Energy-OPLS-2005>
5.50185632705688

> <r_mmod_Van_der_Waal_Energy-OPLS-2005>
146.876449584961

> <r_mmod_Electrostatic_Energy-OPLS-2005>
-497.650421142578

> <r_mmod_Solvation_Energy-OPLS-2005>
-230.908264160156

> <b_mmod_Minimization_Converged-OPLS-2005>
0

> <r_mmod_RMS_Derivative-OPLS-2005>
0.252457916736603

$$$$
18
                    3D
 Structure written by MMmdl.
166175  0  0  1  0            999 V2000
  -30.6821  -14.7047   20.4530 C   0  0  0  0  0  0
  -30.4203  -12.4346   19.4588 C   0  0  0  0  0  0
  -29.4879  -12.4700   18.2309 C   0  0  0  0  0  0
  -28.0270  -12.2565   18.6684 C   0  0  0  0  0  0
  -27.6197  -13.1768   19.8431 C   0  0  2  0  0  0
  -28.6825  -13.1946   20.9712 C   0  0  0  0  0  0
  -25.2478  -13.7976   20.5763 C   0  0  0  0  0  0
  -24.1739  -13.0318   20.9246 C   0  0  0  0  0  0
  -24.6293  -11.6779   20.8841 C   0  0  0  0  0  0
  -23.8958  -10.4218   21.0463 C   0  0  0  0  0  0
  -24.3537   -9.4138   21.9217 C   0  0  0  0  0  0
  -23.6235   -8.2172   22.0761 C   0  0  0  0  0  0
  -22.4227   -8.0226   21.3532 C   0  0  0  0  0  0
  -21.9853   -9.0200   20.4644 C   0  0  0  0  0  0
  -22.7164  -10.2082   20.3068 C   0  0  0  0  0  0
  -21.6829   -6.0707   22.5271 C   0  0  0  0  0  0
  -21.4001   -6.5627   23.8202 C   0  0  0  0  0  0
  -21.3657   -5.6792   24.9172 C   0  0  0  0  0  0
  -21.6025   -4.3052   24.7233 C   0  0  0  0  0  0
  -21.8817   -3.8127   23.4362 C   0  0  0  0  0  0
  -21.9191   -4.6936   22.3410 C   0  0  0  0  0  0
  -22.7783  -13.5179   21.1868 C   0  0  0  0  0  0
  -22.1678   -4.2123   21.0994 F   0  0  0  0  0  0
  -21.5606   -3.4552   25.7756 F   0  0  0  0  0  0
  -29.9867  -13.5167   20.3713 N   0  0  0  0  0  0
  -26.2835  -12.9070   20.3384 N   0  0  0  0  0  0
  -25.9200  -11.6277   20.5870 N   0  0  0  0  0  0
  -22.0405  -12.8197   22.0416 N   0  0  0  0  0  0
  -25.4144  -15.1716   20.4153 N   0  0  0  0  0  0
  -31.8910  -14.7171   20.2093 O   0  0  0  0  0  0
  -21.6587   -6.8839   21.4227 O   0  0  0  0  0  0
  -22.3530  -14.5527   20.6732 O   0  0  0  0  0  0
  -24.6221  -31.8609   23.2050 C   0  0  0  0  0  0
  -25.9068  -32.4793   23.8386 C   0  0  1  0  0  0
  -27.2368  -27.3274   20.1150 C   0  0  0  0  0  0
  -25.5896  -33.8597   24.2320 N   0  0  0  0  0  0
  -23.4198  -30.4840   21.5436 C   0  0  2  0  0  0
  -24.8693  -28.9453   20.1060 C   0  0  0  0  0  0
  -22.7499  -29.4603   22.4893 C   0  0  0  0  0  0
  -18.0344  -28.1382   22.8474 C   0  0  0  0  0  0
  -24.1496  -36.7305   23.2650 C   0  0  0  0  0  0
  -25.9567  -30.7911   21.3796 C   0  0  0  0  0  0
  -26.0303  -29.4157   20.7315 C   0  0  0  0  0  0
  -27.2078  -28.6126   20.7389 C   0  0  0  0  0  0
  -26.0595  -26.9220   19.4467 C   0  0  0  0  0  0
  -24.8899  -27.7061   19.4499 C   0  0  0  0  0  0
  -23.6342  -29.8230   20.1569 C   0  0  0  0  0  0
  -25.4112  -36.3104   24.0352 C   0  0  1  0  0  0
  -20.5934  -28.3710   23.1304 C   0  0  2  0  0  0
  -20.6841  -26.9421   22.5529 C   0  0  0  0  0  0
  -19.5878  -26.6388   21.5268 C   0  0  0  0  0  0
  -18.2020  -26.7931   22.1605 C   0  0  0  0  0  0
  -19.1583  -28.8849   23.2875 C   0  0  0  0  0  0
  -18.9503  -30.1451   23.8893 C   0  0  0  0  0  0
  -17.6513  -30.6598   24.0537 C   0  0  0  0  0  0
  -25.9049  -34.9462   23.5149 C   0  0  0  0  0  0
  -16.5406  -29.9096   23.6312 C   0  0  0  0  0  0
  -16.7323  -28.6495   23.0359 C   0  0  0  0  0  0
  -26.4500  -31.6577   25.0726 C   0  0  0  0  0  0
  -25.3769  -31.3673   26.1473 C   0  0  0  0  0  0
  -27.0333  -30.3007   24.6119 C   0  0  0  0  0  0
  -27.6084  -32.4289   25.7494 C   0  0  0  0  0  0
  -27.5572  -37.1804   24.8453 C   0  0  0  0  0  0
  -21.4209  -29.3011   22.3640 N   0  0  0  0  0  0
  -26.4288  -37.3794   23.9403 N   0  0  0  0  0  0
  -24.6838  -31.0639   22.0995 N   0  0  0  0  0  0
  -23.4223  -28.8143   23.2970 O   0  0  0  0  0  0
  -28.3811  -26.5164   20.1845 O   0  0  0  0  0  0
  -26.5621  -34.8914   22.4714 O   0  0  0  0  0  0
  -23.5383  -32.1389   23.7366 O   0  0  0  0  0  0
  -27.8294  -20.1719   18.3133 C   0  0  0  0  0  0
  -27.1582  -22.3220   18.7330 C   0  0  0  0  0  0
  -28.0897  -22.4447   19.8022 C   0  0  0  0  0  0
  -28.6114  -20.1104   19.5004 C   0  0  0  0  0  0
  -28.8904  -17.6431   19.0546 C   0  0  0  0  0  0
  -28.8975  -16.2547   19.7505 C   0  0  0  0  0  0
  -29.8029  -18.4984   21.1698 C   0  0  0  0  0  0
  -30.6774  -17.1671   21.1542 C   0  0  1  0  0  0
  -26.0736  -23.3278   18.4118 C   0  0  0  0  0  0
  -31.2574  -16.9493   22.5624 C   0  0  0  0  0  0
  -29.3778  -23.7858   21.5834 C   0  0  0  0  0  0
  -28.4658  -25.1466   19.6226 C   0  0  0  0  0  0
  -28.2479  -23.8439   20.5409 C   0  0  1  0  0  0
  -27.0852  -21.2300   17.9578 N   0  0  0  0  0  0
  -28.7759  -21.2922   20.2158 N   0  0  0  0  0  0
  -29.1691  -18.8256   19.8897 N   0  0  0  0  0  0
  -30.0135  -15.9128   20.6459 N   0  0  0  0  0  0
  -31.4587  -12.5425   19.1418 H   0  0  0  0  0  0
  -30.3603  -11.4660   19.9592 H   0  0  0  0  0  0
  -29.7766  -11.6966   17.5186 H   0  0  0  0  0  0
  -29.5850  -13.4261   17.7114 H   0  0  0  0  0  0
  -27.9234  -11.2132   18.9703 H   0  0  0  0  0  0
  -27.3504  -12.3947   17.8238 H   0  0  0  0  0  0
  -27.5308  -14.1473   19.3876 H   0  0  0  0  0  0
  -28.7290  -12.2291   21.4778 H   0  0  0  0  0  0
  -28.4156  -13.9272   21.7333 H   0  0  0  0  0  0
  -25.2669   -9.5626   22.4804 H   0  0  0  0  0  0
  -23.9944   -7.4561   22.7481 H   0  0  0  0  0  0
  -21.0779   -8.8703   19.8960 H   0  0  0  0  0  0
  -22.3609  -10.9627   19.6188 H   0  0  0  0  0  0
  -21.2001   -7.6143   23.9705 H   0  0  0  0  0  0
  -21.1477   -6.0526   25.9078 H   0  0  0  0  0  0
  -22.0602   -2.7590   23.2863 H   0  0  0  0  0  0
  -22.4025  -11.9861   22.4794 H   0  0  0  0  0  0
  -21.1022  -13.1200   22.2655 H   0  0  0  0  0  0
  -24.6379  -15.8153   20.5217 H   0  0  0  0  0  0
  -26.2630  -15.6179   20.1005 H   0  0  0  0  0  0
  -26.7137  -32.5489   23.1149 H   0  0  0  0  0  0
  -25.0034  -33.9779   25.0449 H   0  0  0  0  0  0
  -22.7112  -31.3013   21.4103 H   0  0  0  0  0  0
  -23.3760  -35.9640   23.3310 H   0  0  0  0  0  0
  -24.3588  -36.8919   22.2067 H   0  0  0  0  0  0
  -23.7263  -37.6513   23.6668 H   0  0  0  0  0  0
  -26.0801  -31.5445   20.6011 H   0  0  0  0  0  0
  -26.8384  -30.8497   22.0056 H   0  0  0  0  0  0
  -28.0903  -28.9683   21.2481 H   0  0  0  0  0  0
  -26.0111  -26.0032   18.8953 H   0  0  0  0  0  0
  -24.0159  -27.3514   18.9228 H   0  0  0  0  0  0
  -23.7451  -30.6044   19.4035 H   0  0  0  0  0  0
  -22.7522  -29.2525   19.8602 H   0  0  0  0  0  0
  -25.1297  -36.1983   25.0855 H   0  0  0  0  0  0
  -21.0065  -28.3399   24.1406 H   0  0  0  0  0  0
  -20.5661  -26.2372   23.3778 H   0  0  0  0  0  0
  -21.6752  -26.7415   22.1437 H   0  0  0  0  0  0
  -19.7107  -25.6301   21.1284 H   0  0  0  0  0  0
  -19.6886  -27.3248   20.6860 H   0  0  0  0  0  0
  -17.4333  -26.6685   21.3962 H   0  0  0  0  0  0
  -18.0427  -26.0071   22.9013 H   0  0  0  0  0  0
  -19.7962  -30.7283   24.2259 H   0  0  0  0  0  0
  -17.5097  -31.6298   24.5084 H   0  0  0  0  0  0
  -15.5416  -30.3026   23.7606 H   0  0  0  0  0  0
  -15.8713  -28.0810   22.7126 H   0  0  0  0  0  0
  -24.5970  -30.6994   25.7798 H   0  0  0  0  0  0
  -24.8939  -32.2834   26.4892 H   0  0  0  0  0  0
  -25.8126  -30.8864   27.0248 H   0  0  0  0  0  0
  -26.2880  -29.6754   24.1194 H   0  0  0  0  0  0
  -27.4130  -29.7244   25.4567 H   0  0  0  0  0  0
  -27.8718  -30.4305   23.9266 H   0  0  0  0  0  0
  -27.2721  -33.3598   26.2074 H   0  0  0  0  0  0
  -28.3907  -32.6823   25.0323 H   0  0  0  0  0  0
  -28.0760  -31.8413   26.5412 H   0  0  0  0  0  0
  -28.2601  -38.0091   24.7491 H   0  0  0  0  0  0
  -28.1064  -36.2621   24.6297 H   0  0  0  0  0  0
  -27.2276  -37.1469   25.8853 H   0  0  0  0  0  0
  -20.9370  -29.8715   21.6845 H   0  0  0  0  0  0
  -26.0170  -38.2877   24.1388 H   0  0  0  0  0  0
  -27.7146  -19.3562   17.6217 H   0  0  0  0  0  0
  -27.8866  -17.6879   18.6350 H   0  0  0  0  0  0
  -29.5877  -17.6421   18.2158 H   0  0  0  0  0  0
  -28.8909  -15.5621   18.9097 H   0  0  0  0  0  0
  -27.9765  -16.1312   20.3193 H   0  0  0  0  0  0
  -30.4306  -19.3410   21.4598 H   0  0  0  0  0  0
  -29.0259  -18.4293   21.9339 H   0  0  0  0  0  0
  -31.5188  -17.3578   20.4842 H   0  0  0  0  0  0
  -26.3571  -23.9550   17.5652 H   0  0  0  0  0  0
  -25.8135  -23.9351   19.2747 H   0  0  0  0  0  0
  -25.1589  -22.8015   18.1363 H   0  0  0  0  0  0
  -30.4711  -16.6899   23.2710 H   0  0  0  0  0  0
  -31.7462  -17.8530   22.9320 H   0  0  0  0  0  0
  -31.9991  -16.1505   22.5855 H   0  0  0  0  0  0
  -29.5127  -24.7499   22.0736 H   0  0  0  0  0  0
  -30.3232  -23.5162   21.1104 H   0  0  0  0  0  0
  -29.1703  -23.0489   22.3594 H   0  0  0  0  0  0
  -27.8922  -25.1018   18.7068 H   0  0  0  0  0  0
  -29.4856  -25.0661   19.2460 H   0  0  0  0  0  0
  -27.3149  -24.0039   21.0821 H   0  0  0  0  0  0
  1 25  1  0  0  0
  1 30  2  0  0  0
  1 87  1  0  0  0
  2  3  1  0  0  0
  2 25  1  0  0  0
  2 88  1  0  0  0
  2 89  1  0  0  0
  3  4  1  0  0  0
  3 90  1  0  0  0
  3 91  1  0  0  0
  4  5  1  0  0  0
  4 92  1  0  0  0
  4 93  1  0  0  0
  5  6  1  0  0  0
  5 26  1  0  0  0
  5 94  1  0  0  0
  6 25  1  0  0  0
  6 95  1  0  0  0
  6 96  1  0  0  0
  7  8  2  0  0  0
  7 26  1  0  0  0
  7 29  1  0  0  0
  8  9  1  0  0  0
  8 22  1  0  0  0
  9 10  1  0  0  0
  9 27  2  0  0  0
 10 11  2  0  0  0
 10 15  1  0  0  0
 11 12  1  0  0  0
 11 97  1  0  0  0
 12 13  2  0  0  0
 12 98  1  0  0  0
 13 14  1  0  0  0
 13 31  1  0  0  0
 14 15  2  0  0  0
 14 99  1  0  0  0
 15100  1  0  0  0
 16 17  2  0  0  0
 16 21  1  0  0  0
 16 31  1  0  0  0
 17 18  1  0  0  0
 17101  1  0  0  0
 18 19  2  0  0  0
 18102  1  0  0  0
 19 20  1  0  0  0
 19 24  1  0  0  0
 20 21  2  0  0  0
 20103  1  0  0  0
 21 23  1  0  0  0
 22 28  1  0  0  0
 22 32  2  0  0  0
 26 27  1  0  0  0
 28104  1  0  0  0
 28105  1  0  0  0
 29106  1  0  0  0
 29107  1  0  0  0
 33 34  1  0  0  0
 33 66  1  0  0  0
 33 70  2  0  0  0
 34 36  1  0  0  0
 34 59  1  0  0  0
 34108  1  0  0  0
 35 44  2  0  0  0
 35 45  1  0  0  0
 35 68  1  0  0  0
 36 56  1  0  0  0
 36109  1  0  0  0
 37 39  1  0  0  0
 37 47  1  0  0  0
 37 66  1  0  0  0
 37110  1  0  0  0
 38 43  2  0  0  0
 38 46  1  0  0  0
 38 47  1  0  0  0
 39 64  1  0  0  0
 39 67  2  0  0  0
 40 52  1  0  0  0
 40 53  2  0  0  0
 40 58  1  0  0  0
 41111  1  0  0  0
 41112  1  0  0  0
 41113  1  0  0  0
 41 48  1  0  0  0
 42 43  1  0  0  0
 42 66  1  0  0  0
 42114  1  0  0  0
 42115  1  0  0  0
 43 44  1  0  0  0
 44116  1  0  0  0
 45 46  2  0  0  0
 45117  1  0  0  0
 46118  1  0  0  0
 47119  1  0  0  0
 47120  1  0  0  0
 48 56  1  0  0  0
 48 65  1  0  0  0
 48121  1  0  0  0
 49 50  1  0  0  0
 49 53  1  0  0  0
 49 64  1  0  0  0
 49122  1  0  0  0
 50 51  1  0  0  0
 50123  1  0  0  0
 50124  1  0  0  0
 51 52  1  0  0  0
 51125  1  0  0  0
 51126  1  0  0  0
 52127  1  0  0  0
 52128  1  0  0  0
 53 54  1  0  0  0
 54 55  2  0  0  0
 54129  1  0  0  0
 55 57  1  0  0  0
 55130  1  0  0  0
 56 69  2  0  0  0
 57 58  2  0  0  0
 57131  1  0  0  0
 58132  1  0  0  0
 59 60  1  0  0  0
 59 61  1  0  0  0
 59 62  1  0  0  0
 60133  1  0  0  0
 60134  1  0  0  0
 60135  1  0  0  0
 61136  1  0  0  0
 61137  1  0  0  0
 61138  1  0  0  0
 62139  1  0  0  0
 62140  1  0  0  0
 62141  1  0  0  0
 63 65  1  0  0  0
 63142  1  0  0  0
 63143  1  0  0  0
 63144  1  0  0  0
 64145  1  0  0  0
 65146  1  0  0  0
 68 82  1  0  0  0
 71 74  2  0  0  0
 71 84  1  0  0  0
 71147  1  0  0  0
 72 73  1  0  0  0
 72 79  1  0  0  0
 72 84  2  0  0  0
 73 83  1  0  0  0
 73 85  2  0  0  0
 74 85  1  0  0  0
 74 86  1  0  0  0
 75 76  1  0  0  0
 75 86  1  0  0  0
 75148  1  0  0  0
 75149  1  0  0  0
 76 87  1  0  0  0
 76150  1  0  0  0
 76151  1  0  0  0
 77 78  1  0  0  0
 77 86  1  0  0  0
 77152  1  0  0  0
 77153  1  0  0  0
 78 80  1  0  0  0
 78 87  1  0  0  0
 78154  1  0  0  0
 79155  1  0  0  0
 79156  1  0  0  0
 79157  1  0  0  0
 80158  1  0  0  0
 80159  1  0  0  0
 80160  1  0  0  0
 81161  1  0  0  0
 81162  1  0  0  0
 81163  1  0  0  0
 81 83  1  0  0  0
 82 83  1  0  0  0
 82164  1  0  0  0
 82165  1  0  0  0
 83166  1  0  0  0
M  ISO  4   1 100  68 101  82 101  87 100
M  END
> <chiral flag>
0

> <version>
0

> <s_m_source_file>
/data/baiqing/PycharmProjects/Reinvent-master-3.2/result/LINK_invent/BTK/process_docking_weight1_custom_sum_contain_oxygen_bond_distance_aromatic_linkinvent_7_9_3/rearranged_h_0182.sdf

> <i_m_source_file_index>
19

> <r_mmod_Potential_Energy-OPLS-2005>
425.058837890625

> <r_mmod_Stretch_Energy-OPLS-2005>
103.700050354004

> <r_mmod_Bend_Energy-OPLS-2005>
205.628845214844

> <r_mmod_Torsional_Energy-OPLS-2005>
350.5546875

> <r_mmod_Improper_Torsional_Energy-OPLS-2005>
6.32172822952271

> <r_mmod_Van_der_Waal_Energy-OPLS-2005>
180.108444213867

> <r_mmod_Electrostatic_Energy-OPLS-2005>
-265.752532958984

> <r_mmod_Solvation_Energy-OPLS-2005>
-223.681030273438

> <b_mmod_Minimization_Converged-OPLS-2005>
0

> <r_mmod_RMS_Derivative-OPLS-2005>
3.78424000740051

$$$$
19
                    3D
 Structure written by MMmdl.
157166  0  0  1  0            999 V2000
  -30.6549  -14.6948   20.4894 C   0  0  0  0  0  0
  -30.4265  -12.4336   19.4591 C   0  0  0  0  0  0
  -29.5016  -12.5144   18.2260 C   0  0  0  0  0  0
  -28.0254  -12.3507   18.6385 C   0  0  0  0  0  0
  -27.6461  -13.2274   19.8624 C   0  0  2  0  0  0
  -28.6964  -13.1087   20.9880 C   0  0  0  0  0  0
  -25.2507  -13.8176   20.5675 C   0  0  0  0  0  0
  -24.1802  -13.0427   20.9203 C   0  0  0  0  0  0
  -24.6401  -11.6909   20.8766 C   0  0  0  0  0  0
  -23.9075  -10.4291   21.0415 C   0  0  0  0  0  0
  -24.3619   -9.4200   21.9192 C   0  0  0  0  0  0
  -23.6291   -8.2238   22.0752 C   0  0  0  0  0  0
  -22.4274   -8.0284   21.3541 C   0  0  0  0  0  0
  -21.9917   -9.0258   20.4641 C   0  0  0  0  0  0
  -22.7250  -10.2137   20.3056 C   0  0  0  0  0  0
  -21.6846   -6.0742   22.5277 C   0  0  0  0  0  0
  -21.4007   -6.5648   23.8212 C   0  0  0  0  0  0
  -21.3659   -5.6794   24.9173 C   0  0  0  0  0  0
  -21.6043   -4.3059   24.7220 C   0  0  0  0  0  0
  -21.8814   -3.8154   23.4338 C   0  0  0  0  0  0
  -21.9189   -4.6969   22.3395 C   0  0  0  0  0  0
  -22.7823  -13.5213   21.1853 C   0  0  0  0  0  0
  -22.1658   -4.2160   21.0975 F   0  0  0  0  0  0
  -21.5630   -3.4543   25.7729 F   0  0  0  0  0  0
  -29.9917  -13.4871   20.4066 N   0  0  0  0  0  0
  -26.2961  -12.9388   20.3352 N   0  0  0  0  0  0
  -25.9338  -11.6531   20.5805 N   0  0  0  0  0  0
  -22.0473  -12.8206   22.0413 N   0  0  0  0  0  0
  -25.4147  -15.1893   20.4001 N   0  0  0  0  0  0
  -31.8348  -14.7522   20.1267 O   0  0  0  0  0  0
  -21.6631   -6.8887   21.4242 O   0  0  0  0  0  0
  -22.3504  -14.5522   20.6708 O   0  0  0  0  0  0
  -24.6287  -31.8583   23.2019 C   0  0  0  0  0  0
  -25.9133  -32.4766   23.8355 C   0  0  1  0  0  0
  -27.2200  -27.3030   20.1213 C   0  0  0  0  0  0
  -25.5948  -33.8568   24.2288 N   0  0  0  0  0  0
  -23.4242  -30.4820   21.5438 C   0  0  2  0  0  0
  -24.8732  -28.9363   20.1090 C   0  0  0  0  0  0
  -22.7488  -29.4621   22.4920 C   0  0  0  0  0  0
  -18.0289  -28.1385   22.8481 C   0  0  0  0  0  0
  -24.1483  -36.7273   23.2640 C   0  0  0  0  0  0
  -25.9676  -30.7824   21.3775 C   0  0  0  0  0  0
  -26.0436  -29.4093   20.7188 C   0  0  0  0  0  0
  -27.2247  -28.6042   20.7164 C   0  0  0  0  0  0
  -26.0346  -26.8931   19.4764 C   0  0  0  0  0  0
  -24.8712  -27.6837   19.4766 C   0  0  0  0  0  0
  -23.6418  -29.8178   20.1590 C   0  0  0  0  0  0
  -25.4111  -36.3072   24.0335 C   0  0  1  0  0  0
  -20.5890  -28.3692   23.1268 C   0  0  2  0  0  0
  -20.6775  -26.9410   22.5405 C   0  0  0  0  0  0
  -19.5757  -26.6383   21.5203 C   0  0  0  0  0  0
  -18.1935  -26.7935   22.1604 C   0  0  0  0  0  0
  -19.1542  -28.8853   23.2875 C   0  0  0  0  0  0
  -18.9466  -30.1450   23.8898 C   0  0  0  0  0  0
  -17.6466  -30.6585   24.0560 C   0  0  0  0  0  0
  -25.9052  -34.9446   23.5105 C   0  0  0  0  0  0
  -16.5356  -29.9082   23.6335 C   0  0  0  0  0  0
  -16.7273  -28.6498   23.0358 C   0  0  0  0  0  0
  -26.4517  -31.6575   25.0729 C   0  0  0  0  0  0
  -25.3746  -31.3702   26.1451 C   0  0  0  0  0  0
  -27.0361  -30.2999   24.6187 C   0  0  0  0  0  0
  -27.6077  -32.4310   25.7502 C   0  0  0  0  0  0
  -27.5579  -37.1791   24.8466 C   0  0  0  0  0  0
  -21.4198  -29.3045   22.3661 N   0  0  0  0  0  0
  -26.4283  -37.3777   23.9420 N   0  0  0  0  0  0
  -24.6921  -31.0579   22.0978 N   0  0  0  0  0  0
  -23.4201  -28.8162   23.3010 O   0  0  0  0  0  0
  -28.2868  -26.3888   20.1574 O   0  0  0  0  0  0
  -26.5610  -34.8920   22.4663 O   0  0  0  0  0  0
  -23.5446  -32.1386   23.7335 O   0  0  0  0  0  0
  -29.8884  -23.3137   20.9358 C   0  0  0  0  0  0
  -28.5953  -23.7082   20.5289 C   0  0  0  0  0  0
  -27.8283  -22.6095   20.0413 C   0  0  0  0  0  0
  -29.5114  -21.0610   20.4696 C   0  0  0  0  0  0
  -28.9425  -17.8049   21.7486 C   0  0  0  0  0  0
  -28.9571  -16.2572   21.6117 C   0  0  0  0  0  0
  -30.3734  -17.1915   19.9715 C   0  0  0  0  0  0
  -29.4191  -18.3735   20.4096 C   0  0  2  0  0  0
  -26.4069  -22.7937   19.5457 C   0  0  0  0  0  0
  -27.9850  -25.1309   20.8904 C   0  0  0  0  0  0
  -30.3300  -22.0200   20.8942 N   0  0  0  0  0  0
  -28.2848  -21.3147   20.0223 N   0  0  0  0  0  0
  -29.9378  -15.8869   20.5815 N   0  0  0  0  0  0
  -30.0356  -19.7408   20.5050 N   0  0  0  0  0  0
  -31.4676  -12.5440   19.1514 H   0  0  0  0  0  0
  -30.3649  -11.4483   19.9241 H   0  0  0  0  0  0
  -29.7734  -11.7514   17.4960 H   0  0  0  0  0  0
  -29.6387  -13.4750   17.7268 H   0  0  0  0  0  0
  -27.8635  -11.2982   18.8741 H   0  0  0  0  0  0
  -27.3694  -12.5768   17.7971 H   0  0  0  0  0  0
  -27.6529  -14.2597   19.5115 H   0  0  0  0  0  0
  -28.7349  -12.0852   21.3648 H   0  0  0  0  0  0
  -28.4347  -13.7189   21.8488 H   0  0  0  0  0  0
  -25.2756   -9.5678   22.4779 H   0  0  0  0  0  0
  -23.9997   -7.4624   22.7466 H   0  0  0  0  0  0
  -21.0854   -8.8778   19.8937 H   0  0  0  0  0  0
  -22.3710  -10.9680   19.6169 H   0  0  0  0  0  0
  -21.1997   -7.6152   23.9721 H   0  0  0  0  0  0
  -21.1485   -6.0522   25.9078 H   0  0  0  0  0  0
  -22.0594   -2.7616   23.2828 H   0  0  0  0  0  0
  -22.4087  -11.9857   22.4781 H   0  0  0  0  0  0
  -21.1094  -13.1231   22.2631 H   0  0  0  0  0  0
  -24.6373  -15.8354   20.4819 H   0  0  0  0  0  0
  -26.2586  -15.6277   20.0554 H   0  0  0  0  0  0
  -26.7203  -32.5431   23.1105 H   0  0  0  0  0  0
  -25.0141  -33.9710   25.0466 H   0  0  0  0  0  0
  -22.7196  -31.3035   21.3991 H   0  0  0  0  0  0
  -23.3757  -35.9589   23.3291 H   0  0  0  0  0  0
  -24.3581  -36.8896   22.2055 H   0  0  0  0  0  0
  -23.7219  -37.6467   23.6662 H   0  0  0  0  0  0
  -26.1032  -31.5449   20.6097 H   0  0  0  0  0  0
  -26.8465  -30.8308   22.0081 H   0  0  0  0  0  0
  -28.1201  -28.9577   21.2083 H   0  0  0  0  0  0
  -25.9985  -25.9298   18.9888 H   0  0  0  0  0  0
  -23.9776  -27.3176   18.9899 H   0  0  0  0  0  0
  -23.7646  -30.5958   19.4046 H   0  0  0  0  0  0
  -22.7611  -29.2500   19.8524 H   0  0  0  0  0  0
  -25.1292  -36.1916   25.0827 H   0  0  0  0  0  0
  -20.9981  -28.3264   24.1386 H   0  0  0  0  0  0
  -20.5656  -26.2303   23.3610 H   0  0  0  0  0  0
  -21.6645  -26.7431   22.1200 H   0  0  0  0  0  0
  -19.6913  -25.6291   21.1242 H   0  0  0  0  0  0
  -19.6703  -27.3188   20.6732 H   0  0  0  0  0  0
  -17.4206  -26.6686   21.4004 H   0  0  0  0  0  0
  -18.0327  -26.0072   22.8991 H   0  0  0  0  0  0
  -19.7943  -30.7266   24.2270 H   0  0  0  0  0  0
  -17.5023  -31.6272   24.5154 H   0  0  0  0  0  0
  -15.5360  -30.2983   23.7673 H   0  0  0  0  0  0
  -15.8667  -28.0820   22.7085 H   0  0  0  0  0  0
  -24.5962  -30.7002   25.7787 H   0  0  0  0  0  0
  -24.8890  -32.2849   26.4854 H   0  0  0  0  0  0
  -25.8083  -30.8916   27.0239 H   0  0  0  0  0  0
  -26.2931  -29.6740   24.1231 H   0  0  0  0  0  0
  -27.4082  -29.7270   25.4691 H   0  0  0  0  0  0
  -27.8795  -30.4288   23.9399 H   0  0  0  0  0  0
  -27.2705  -33.3631   26.2049 H   0  0  0  0  0  0
  -28.3909  -32.6828   25.0338 H   0  0  0  0  0  0
  -28.0718  -31.8444   26.5441 H   0  0  0  0  0  0
  -28.2582  -38.0102   24.7534 H   0  0  0  0  0  0
  -28.1089  -36.2639   24.6261 H   0  0  0  0  0  0
  -27.2304  -37.1391   25.8869 H   0  0  0  0  0  0
  -20.9381  -29.8767   21.6869 H   0  0  0  0  0  0
  -26.0158  -38.2842   24.1444 H   0  0  0  0  0  0
  -30.5638  -24.0322   21.3761 H   0  0  0  0  0  0
  -29.6369  -18.0947   22.5387 H   0  0  0  0  0  0
  -27.9604  -18.1854   22.0327 H   0  0  0  0  0  0
  -27.9715  -15.9123   21.3040 H   0  0  0  0  0  0
  -29.1912  -15.7898   22.5697 H   0  0  0  0  0  0
  -31.3921  -17.3937   20.3054 H   0  0  0  0  0  0
  -30.4096  -17.1065   18.8845 H   0  0  0  0  0  0
  -28.5713  -18.4180   19.7231 H   0  0  0  0  0  0
  -26.3703  -23.5669   18.7792 H   0  0  0  0  0  0
  -25.7460  -23.0811   20.3626 H   0  0  0  0  0  0
  -26.0149  -21.8759   19.1071 H   0  0  0  0  0  0
  -28.3123  -25.3265   21.9123 H   0  0  0  0  0  0
  -26.9098  -24.9995   21.0037 H   0  0  0  0  0  0
  -31.0002  -19.7273   20.8103 H   0  0  0  0  0  0
  1 25  1  0  0  0
  1 30  2  0  0  0
  1 83  1  0  0  0
  2  3  1  0  0  0
  2 25  1  0  0  0
  2 85  1  0  0  0
  2 86  1  0  0  0
  3  4  1  0  0  0
  3 87  1  0  0  0
  3 88  1  0  0  0
  4  5  1  0  0  0
  4 89  1  0  0  0
  4 90  1  0  0  0
  5  6  1  0  0  0
  5 26  1  0  0  0
  5 91  1  0  0  0
  6 25  1  0  0  0
  6 92  1  0  0  0
  6 93  1  0  0  0
  7  8  2  0  0  0
  7 26  1  0  0  0
  7 29  1  0  0  0
  8  9  1  0  0  0
  8 22  1  0  0  0
  9 10  1  0  0  0
  9 27  2  0  0  0
 10 11  2  0  0  0
 10 15  1  0  0  0
 11 12  1  0  0  0
 11 94  1  0  0  0
 12 13  2  0  0  0
 12 95  1  0  0  0
 13 14  1  0  0  0
 13 31  1  0  0  0
 14 15  2  0  0  0
 14 96  1  0  0  0
 15 97  1  0  0  0
 16 17  2  0  0  0
 16 21  1  0  0  0
 16 31  1  0  0  0
 17 18  1  0  0  0
 17 98  1  0  0  0
 18 19  2  0  0  0
 18 99  1  0  0  0
 19 20  1  0  0  0
 19 24  1  0  0  0
 20 21  2  0  0  0
 20100  1  0  0  0
 21 23  1  0  0  0
 22 28  1  0  0  0
 22 32  2  0  0  0
 26 27  1  0  0  0
 28101  1  0  0  0
 28102  1  0  0  0
 29103  1  0  0  0
 29104  1  0  0  0
 33 34  1  0  0  0
 33 66  1  0  0  0
 33 70  2  0  0  0
 34 36  1  0  0  0
 34 59  1  0  0  0
 34105  1  0  0  0
 35 44  2  0  0  0
 35 45  1  0  0  0
 35 68  1  0  0  0
 36 56  1  0  0  0
 36106  1  0  0  0
 37 39  1  0  0  0
 37 47  1  0  0  0
 37 66  1  0  0  0
 37107  1  0  0  0
 38 43  2  0  0  0
 38 46  1  0  0  0
 38 47  1  0  0  0
 39 64  1  0  0  0
 39 67  2  0  0  0
 40 52  1  0  0  0
 40 53  2  0  0  0
 40 58  1  0  0  0
 41108  1  0  0  0
 41109  1  0  0  0
 41110  1  0  0  0
 41 48  1  0  0  0
 42 43  1  0  0  0
 42 66  1  0  0  0
 42111  1  0  0  0
 42112  1  0  0  0
 43 44  1  0  0  0
 44113  1  0  0  0
 45 46  2  0  0  0
 45114  1  0  0  0
 46115  1  0  0  0
 47116  1  0  0  0
 47117  1  0  0  0
 48 56  1  0  0  0
 48 65  1  0  0  0
 48118  1  0  0  0
 49 50  1  0  0  0
 49 53  1  0  0  0
 49 64  1  0  0  0
 49119  1  0  0  0
 50 51  1  0  0  0
 50120  1  0  0  0
 50121  1  0  0  0
 51 52  1  0  0  0
 51122  1  0  0  0
 51123  1  0  0  0
 52124  1  0  0  0
 52125  1  0  0  0
 53 54  1  0  0  0
 54 55  2  0  0  0
 54126  1  0  0  0
 55 57  1  0  0  0
 55127  1  0  0  0
 56 69  2  0  0  0
 57 58  2  0  0  0
 57128  1  0  0  0
 58129  1  0  0  0
 59 60  1  0  0  0
 59 61  1  0  0  0
 59 62  1  0  0  0
 60130  1  0  0  0
 60131  1  0  0  0
 60132  1  0  0  0
 61133  1  0  0  0
 61134  1  0  0  0
 61135  1  0  0  0
 62136  1  0  0  0
 62137  1  0  0  0
 62138  1  0  0  0
 63 65  1  0  0  0
 63139  1  0  0  0
 63140  1  0  0  0
 63141  1  0  0  0
 64142  1  0  0  0
 65143  1  0  0  0
 68 80  1  0  0  0
 71 72  2  0  0  0
 71 81  1  0  0  0
 71144  1  0  0  0
 72 73  1  0  0  0
 72 80  1  0  0  0
 73 79  1  0  0  0
 73 82  2  0  0  0
 74 81  2  0  0  0
 74 82  1  0  0  0
 74 84  1  0  0  0
 75 76  1  0  0  0
 75 78  1  0  0  0
 75145  1  0  0  0
 75146  1  0  0  0
 76 83  1  0  0  0
 76147  1  0  0  0
 76148  1  0  0  0
 77 78  1  0  0  0
 77 83  1  0  0  0
 77149  1  0  0  0
 77150  1  0  0  0
 78 84  1  0  0  0
 78151  1  0  0  0
 79152  1  0  0  0
 79153  1  0  0  0
 79154  1  0  0  0
 80155  1  0  0  0
 80156  1  0  0  0
 84157  1  0  0  0
M  ISO  4   1 100  68 101  80 101  83 100
M  END
> <chiral flag>
0

> <version>
0

> <s_m_source_file>
/data/baiqing/PycharmProjects/Reinvent-master-3.2/result/LINK_invent/BTK/process_docking_weight1_custom_sum_contain_oxygen_bond_distance_aromatic_linkinvent_7_9_3/rearranged_h_0182.sdf

> <i_m_source_file_index>
20

> <r_mmod_Potential_Energy-OPLS-2005>
-214.688247680664

> <r_mmod_Stretch_Energy-OPLS-2005>
86.5154876708984

> <r_mmod_Bend_Energy-OPLS-2005>
190.556076049805

> <r_mmod_Torsional_Energy-OPLS-2005>
338.353942871094

> <r_mmod_Improper_Torsional_Energy-OPLS-2005>
15.0767135620117

> <r_mmod_Van_der_Waal_Energy-OPLS-2005>
142.029724121094

> <r_mmod_Electrostatic_Energy-OPLS-2005>
-818.404357910156

> <r_mmod_Solvation_Energy-OPLS-2005>
-233.702056884766

> <b_mmod_Minimization_Converged-OPLS-2005>
0

> <r_mmod_RMS_Derivative-OPLS-2005>
1.25563061237335

$$$$
20
                    3D
 Structure written by MMmdl.
147156  0  0  1  0            999 V2000
  -30.2336  -15.8010   20.3450 C   0  0  0  0  0  0
  -30.4148  -13.2008   19.5577 C   0  0  0  0  0  0
  -29.5602  -12.7070   18.3482 C   0  0  0  0  0  0
  -28.1450  -12.3099   18.7891 C   0  0  0  0  0  0
  -27.5930  -13.3220   19.8137 C   0  0  2  0  0  0
  -28.5940  -13.7025   20.9323 C   0  0  0  0  0  0
  -25.2312  -13.8307   20.5808 C   0  0  0  0  0  0
  -24.1709  -13.0438   20.9280 C   0  0  0  0  0  0
  -24.6426  -11.6952   20.8746 C   0  0  0  0  0  0
  -23.9131  -10.4295   21.0385 C   0  0  0  0  0  0
  -24.3662   -9.4209   21.9172 C   0  0  0  0  0  0
  -23.6318   -8.2252   22.0751 C   0  0  0  0  0  0
  -22.4298   -8.0292   21.3544 C   0  0  0  0  0  0
  -21.9946   -9.0266   20.4641 C   0  0  0  0  0  0
  -22.7293  -10.2136   20.3041 C   0  0  0  0  0  0
  -21.6862   -6.0743   22.5279 C   0  0  0  0  0  0
  -21.4020   -6.5643   23.8213 C   0  0  0  0  0  0
  -21.3661   -5.6794   24.9173 C   0  0  0  0  0  0
  -21.6044   -4.3056   24.7223 C   0  0  0  0  0  0
  -21.8818   -3.8150   23.4343 C   0  0  0  0  0  0
  -21.9195   -4.6969   22.3401 C   0  0  0  0  0  0
  -22.7719  -13.5159   21.1920 C   0  0  0  0  0  0
  -22.1662   -4.2154   21.0979 F   0  0  0  0  0  0
  -21.5627   -3.4539   25.7735 F   0  0  0  0  0  0
  -29.7502  -14.3918   20.2909 N   0  0  0  0  0  0
  -26.2766  -12.9657   20.3231 N   0  0  0  0  0  0
  -25.9378  -11.6713   20.5672 N   0  0  0  0  0  0
  -22.0392  -12.8129   22.0473 N   0  0  0  0  0  0
  -25.3914  -15.2055   20.4298 N   0  0  0  0  0  0
  -31.4536  -15.7287   20.0720 O   0  0  0  0  0  0
  -21.6652   -6.8893   21.4244 O   0  0  0  0  0  0
  -22.3388  -14.5457   20.6761 O   0  0  0  0  0  0
  -24.6949  -31.7854   23.1409 C   0  0  0  0  0  0
  -25.9472  -32.4394   23.7999 C   0  0  1  0  0  0
  -27.2351  -26.5816   20.2235 C   0  0  0  0  0  0
  -25.6002  -33.8226   24.1874 N   0  0  0  0  0  0
  -23.5276  -30.3813   21.4967 C   0  0  2  0  0  0
  -24.9887  -28.6979   20.1173 C   0  0  0  0  0  0
  -22.7821  -29.4234   22.4665 C   0  0  0  0  0  0
  -18.0348  -28.1429   22.8450 C   0  0  0  0  0  0
  -24.1496  -36.7120   23.2657 C   0  0  0  0  0  0
  -26.1130  -30.4774   21.4254 C   0  0  0  0  0  0
  -26.1776  -29.0293   20.7766 C   0  0  0  0  0  0
  -27.2770  -28.0013   20.7974 C   0  0  0  0  0  0
  -26.0153  -26.4934   19.4964 C   0  0  0  0  0  0
  -24.9542  -27.4577   19.4529 C   0  0  0  0  0  0
  -23.7896  -29.6672   20.1366 C   0  0  0  0  0  0
  -25.4151  -36.2852   24.0273 C   0  0  1  0  0  0
  -20.5990  -28.3793   23.1119 C   0  0  2  0  0  0
  -20.6808  -26.9440   22.5407 C   0  0  0  0  0  0
  -19.5785  -26.6365   21.5220 C   0  0  0  0  0  0
  -18.1967  -26.7954   22.1618 C   0  0  0  0  0  0
  -19.1618  -28.8938   23.2763 C   0  0  0  0  0  0
  -18.9521  -30.1517   23.8815 C   0  0  0  0  0  0
  -17.6510  -30.6608   24.0548 C   0  0  0  0  0  0
  -25.9139  -34.9246   23.4919 C   0  0  0  0  0  0
  -16.5399  -29.9088   23.6354 C   0  0  0  0  0  0
  -16.7328  -28.6511   23.0370 C   0  0  0  0  0  0
  -26.4613  -31.6483   25.0676 C   0  0  0  0  0  0
  -25.3644  -31.3838   26.1267 C   0  0  0  0  0  0
  -27.0566  -30.2807   24.6669 C   0  0  0  0  0  0
  -27.6039  -32.4373   25.7499 C   0  0  0  0  0  0
  -27.5559  -37.1717   24.8467 C   0  0  0  0  0  0
  -21.4455  -29.3016   22.3421 N   0  0  0  0  0  0
  -26.4265  -37.3627   23.9409 N   0  0  0  0  0  0
  -24.8031  -30.9177   22.0730 N   0  0  0  0  0  0
  -23.4208  -28.7855   23.3066 O   0  0  0  0  0  0
  -28.1716  -25.3021   20.3418 O   0  0  0  0  0  0
  -26.5797  -34.8849   22.4550 O   0  0  0  0  0  0
  -23.5941  -32.0986   23.6284 O   0  0  0  0  0  0
  -29.7289  -20.6296   22.5210 C   0  0  0  0  0  0
  -29.3300  -21.8148   21.8379 C   0  0  0  0  0  0
  -29.7122  -19.3119   21.9714 C   0  0  0  0  0  0
  -28.8066  -21.8179   20.5307 C   0  0  0  0  0  0
  -29.4166  -18.9688   20.6433 C   0  0  0  0  0  0
  -29.8187  -18.0934   22.8439 C   0  0  0  0  0  0
  -29.1057  -16.9795   22.0546 C   0  0  0  0  0  0
  -28.0658  -23.5154   19.9961 C   0  0  0  0  0  0
  -28.8850  -20.3191   20.0115 N   0  0  0  0  0  0
  -29.4573  -17.1818   20.6334 N   0  0  0  0  0  0
  -31.3977  -13.4829   19.1793 H   0  0  0  0  0  0
  -30.6151  -12.3783   20.2466 H   0  0  0  0  0  0
  -30.0494  -11.8692   17.8494 H   0  0  0  0  0  0
  -29.4956  -13.5079   17.6104 H   0  0  0  0  0  0
  -28.1986  -11.3217   19.2474 H   0  0  0  0  0  0
  -27.4805  -12.2190   17.9289 H   0  0  0  0  0  0
  -27.4405  -14.2291   19.2271 H   0  0  0  0  0  0
  -28.8877  -12.8353   21.5258 H   0  0  0  0  0  0
  -28.1064  -14.3857   21.6261 H   0  0  0  0  0  0
  -25.2803   -9.5682   22.4755 H   0  0  0  0  0  0
  -24.0017   -7.4646   22.7479 H   0  0  0  0  0  0
  -21.0874   -8.8795   19.8950 H   0  0  0  0  0  0
  -22.3751  -10.9674   19.6150 H   0  0  0  0  0  0
  -21.2015   -7.6152   23.9718 H   0  0  0  0  0  0
  -21.1482   -6.0523   25.9077 H   0  0  0  0  0  0
  -22.0595   -2.7612   23.2843 H   0  0  0  0  0  0
  -22.4041  -11.9808   22.4868 H   0  0  0  0  0  0
  -21.0995  -13.1115   22.2672 H   0  0  0  0  0  0
  -24.6214  -15.8545   20.5511 H   0  0  0  0  0  0
  -26.2401  -15.6536   20.1093 H   0  0  0  0  0  0
  -26.7564  -32.4833   23.0715 H   0  0  0  0  0  0
  -25.0046  -33.9245   24.9959 H   0  0  0  0  0  0
  -22.8600  -31.2218   21.2957 H   0  0  0  0  0  0
  -23.3780  -35.9427   23.3258 H   0  0  0  0  0  0
  -24.3559  -36.8849   22.2083 H   0  0  0  0  0  0
  -23.7235  -37.6269   23.6783 H   0  0  0  0  0  0
  -26.3297  -31.1945   20.6325 H   0  0  0  0  0  0
  -26.9588  -30.5494   22.0964 H   0  0  0  0  0  0
  -28.1635  -28.2621   21.3580 H   0  0  0  0  0  0
  -25.8289  -25.5609   18.9829 H   0  0  0  0  0  0
  -24.0611  -27.1940   18.9033 H   0  0  0  0  0  0
  -23.9743  -30.4230   19.3722 H   0  0  0  0  0  0
  -22.8923  -29.1395   19.8088 H   0  0  0  0  0  0
  -25.1366  -36.1596   25.0762 H   0  0  0  0  0  0
  -21.0072  -28.3431   24.1246 H   0  0  0  0  0  0
  -20.5661  -26.2422   23.3681 H   0  0  0  0  0  0
  -21.6667  -26.7362   22.1231 H   0  0  0  0  0  0
  -19.6939  -25.6253   21.1305 H   0  0  0  0  0  0
  -19.6733  -27.3130   20.6715 H   0  0  0  0  0  0
  -17.4237  -26.6701   21.4020 H   0  0  0  0  0  0
  -18.0348  -26.0117   22.9032 H   0  0  0  0  0  0
  -19.7998  -30.7354   24.2149 H   0  0  0  0  0  0
  -17.5061  -31.6281   24.5165 H   0  0  0  0  0  0
  -15.5396  -30.2965   23.7726 H   0  0  0  0  0  0
  -15.8728  -28.0802   22.7135 H   0  0  0  0  0  0
  -24.5863  -30.7156   25.7556 H   0  0  0  0  0  0
  -24.8799  -32.3073   26.4448 H   0  0  0  0  0  0
  -25.7787  -30.9155   27.0204 H   0  0  0  0  0  0
  -26.3309  -29.6381   24.1678 H   0  0  0  0  0  0
  -27.3962  -29.7307   25.5455 H   0  0  0  0  0  0
  -27.9299  -30.3904   24.0237 H   0  0  0  0  0  0
  -27.2568  -33.3764   26.1821 H   0  0  0  0  0  0
  -28.3978  -32.6789   25.0420 H   0  0  0  0  0  0
  -28.0567  -31.8676   26.5624 H   0  0  0  0  0  0
  -28.2536  -38.0047   24.7513 H   0  0  0  0  0  0
  -28.1092  -36.2566   24.6296 H   0  0  0  0  0  0
  -27.2272  -37.1351   25.8869 H   0  0  0  0  0  0
  -20.9788  -29.8654   21.6453 H   0  0  0  0  0  0
  -26.0080  -38.2667   24.1427 H   0  0  0  0  0  0
  -29.9989  -20.7331   23.5625 H   0  0  0  0  0  0
  -29.3451  -22.7506   22.3808 H   0  0  0  0  0  0
  -29.3524  -18.2528   23.8175 H   0  0  0  0  0  0
  -30.8703  -17.8529   23.0075 H   0  0  0  0  0  0
  -28.0246  -17.1023   22.1384 H   0  0  0  0  0  0
  -29.3347  -16.0214   22.5281 H   0  0  0  0  0  0
  -26.9993  -23.3327   20.1260 H   0  0  0  0  0  0
  -28.1969  -23.4874   18.9147 H   0  0  0  0  0  0
  1 25  1  0  0  0
  1 30  2  0  0  0
  1 80  1  0  0  0
  2  3  1  0  0  0
  2 25  1  0  0  0
  2 81  1  0  0  0
  2 82  1  0  0  0
  3  4  1  0  0  0
  3 83  1  0  0  0
  3 84  1  0  0  0
  4  5  1  0  0  0
  4 85  1  0  0  0
  4 86  1  0  0  0
  5  6  1  0  0  0
  5 26  1  0  0  0
  5 87  1  0  0  0
  6 25  1  0  0  0
  6 88  1  0  0  0
  6 89  1  0  0  0
  7  8  2  0  0  0
  7 26  1  0  0  0
  7 29  1  0  0  0
  8  9  1  0  0  0
  8 22  1  0  0  0
  9 10  1  0  0  0
  9 27  2  0  0  0
 10 11  2  0  0  0
 10 15  1  0  0  0
 11 12  1  0  0  0
 11 90  1  0  0  0
 12 13  2  0  0  0
 12 91  1  0  0  0
 13 14  1  0  0  0
 13 31  1  0  0  0
 14 15  2  0  0  0
 14 92  1  0  0  0
 15 93  1  0  0  0
 16 17  2  0  0  0
 16 21  1  0  0  0
 16 31  1  0  0  0
 17 18  1  0  0  0
 17 94  1  0  0  0
 18 19  2  0  0  0
 18 95  1  0  0  0
 19 20  1  0  0  0
 19 24  1  0  0  0
 20 21  2  0  0  0
 20 96  1  0  0  0
 21 23  1  0  0  0
 22 28  1  0  0  0
 22 32  2  0  0  0
 26 27  1  0  0  0
 28 97  1  0  0  0
 28 98  1  0  0  0
 29 99  1  0  0  0
 29100  1  0  0  0
 33 34  1  0  0  0
 33 66  1  0  0  0
 33 70  2  0  0  0
 34 36  1  0  0  0
 34 59  1  0  0  0
 34101  1  0  0  0
 35 44  2  0  0  0
 35 45  1  0  0  0
 35 68  1  0  0  0
 36 56  1  0  0  0
 36102  1  0  0  0
 37 39  1  0  0  0
 37 47  1  0  0  0
 37 66  1  0  0  0
 37103  1  0  0  0
 38 43  2  0  0  0
 38 46  1  0  0  0
 38 47  1  0  0  0
 39 64  1  0  0  0
 39 67  2  0  0  0
 40 52  1  0  0  0
 40 53  2  0  0  0
 40 58  1  0  0  0
 41104  1  0  0  0
 41105  1  0  0  0
 41106  1  0  0  0
 41 48  1  0  0  0
 42 43  1  0  0  0
 42 66  1  0  0  0
 42107  1  0  0  0
 42108  1  0  0  0
 43 44  1  0  0  0
 44109  1  0  0  0
 45 46  2  0  0  0
 45110  1  0  0  0
 46111  1  0  0  0
 47112  1  0  0  0
 47113  1  0  0  0
 48 56  1  0  0  0
 48 65  1  0  0  0
 48114  1  0  0  0
 49 50  1  0  0  0
 49 53  1  0  0  0
 49 64  1  0  0  0
 49115  1  0  0  0
 50 51  1  0  0  0
 50116  1  0  0  0
 50117  1  0  0  0
 51 52  1  0  0  0
 51118  1  0  0  0
 51119  1  0  0  0
 52120  1  0  0  0
 52121  1  0  0  0
 53 54  1  0  0  0
 54 55  2  0  0  0
 54122  1  0  0  0
 55 57  1  0  0  0
 55123  1  0  0  0
 56 69  2  0  0  0
 57 58  2  0  0  0
 57124  1  0  0  0
 58125  1  0  0  0
 59 60  1  0  0  0
 59 61  1  0  0  0
 59 62  1  0  0  0
 60126  1  0  0  0
 60127  1  0  0  0
 60128  1  0  0  0
 61129  1  0  0  0
 61130  1  0  0  0
 61131  1  0  0  0
 62132  1  0  0  0
 62133  1  0  0  0
 62134  1  0  0  0
 63 65  1  0  0  0
 63135  1  0  0  0
 63136  1  0  0  0
 63137  1  0  0  0
 64138  1  0  0  0
 65139  1  0  0  0
 68 78  1  0  0  0
 71 72  2  0  0  0
 71 73  1  0  0  0
 71140  1  0  0  0
 72 74  1  0  0  0
 72141  1  0  0  0
 73 75  2  0  0  0
 73 76  1  0  0  0
 74 78  1  0  0  0
 74 79  2  0  0  0
 75 79  1  0  0  0
 75 80  1  0  0  0
 76 77  1  0  0  0
 76142  1  0  0  0
 76143  1  0  0  0
 77 80  1  0  0  0
 77144  1  0  0  0
 77145  1  0  0  0
 78146  1  0  0  0
 78147  1  0  0  0
M  ISO  4   1 100  68 101  78 101  80 100
M  END
> <chiral flag>
0

> <version>
0

> <s_m_source_file>
/data/baiqing/PycharmProjects/Reinvent-master-3.2/result/LINK_invent/BTK/process_docking_weight1_custom_sum_contain_oxygen_bond_distance_aromatic_linkinvent_7_9_3/rearranged_h_0182.sdf

> <i_m_source_file_index>
21

> <r_mmod_Potential_Energy-OPLS-2005>
3182.072265625

> <r_mmod_Stretch_Energy-OPLS-2005>
1356.40698242188

> <r_mmod_Bend_Energy-OPLS-2005>
831.618041992188

> <r_mmod_Torsional_Energy-OPLS-2005>
309.119506835938

> <r_mmod_Improper_Torsional_Energy-OPLS-2005>
14.9572095870972

> <r_mmod_Van_der_Waal_Energy-OPLS-2005>
129.811187744141

> <r_mmod_Electrostatic_Energy-OPLS-2005>
-404.942535400391

> <r_mmod_Solvation_Energy-OPLS-2005>
-223.2861328125

> <b_mmod_Minimization_Converged-OPLS-2005>
0

> <r_mmod_RMS_Derivative-OPLS-2005>
0.254716515541077

$$$$
21
                    3D
 Structure written by MMmdl.
161170  0  0  1  0            999 V2000
  -30.7018  -14.6241   20.4790 C   0  0  0  0  0  0
  -30.4216  -12.3859   19.4470 C   0  0  0  0  0  0
  -29.4959  -12.4899   18.2178 C   0  0  0  0  0  0
  -28.0238  -12.3256   18.6403 C   0  0  0  0  0  0
  -27.6435  -13.2138   19.8547 C   0  0  2  0  0  0
  -28.6988  -13.1408   20.9816 C   0  0  0  0  0  0
  -25.2543  -13.8142   20.5728 C   0  0  0  0  0  0
  -24.1808  -13.0418   20.9215 C   0  0  0  0  0  0
  -24.6381  -11.6890   20.8770 C   0  0  0  0  0  0
  -23.9048  -10.4278   21.0418 C   0  0  0  0  0  0
  -24.3602   -9.4195   21.9191 C   0  0  0  0  0  0
  -23.6281   -8.2231   22.0751 C   0  0  0  0  0  0
  -22.4259   -8.0268   21.3542 C   0  0  0  0  0  0
  -21.9898   -9.0243   20.4652 C   0  0  0  0  0  0
  -22.7222  -10.2124   20.3062 C   0  0  0  0  0  0
  -21.6848   -6.0729   22.5277 C   0  0  0  0  0  0
  -21.4016   -6.5635   23.8211 C   0  0  0  0  0  0
  -21.3665   -5.6782   24.9170 C   0  0  0  0  0  0
  -21.6038   -4.3041   24.7224 C   0  0  0  0  0  0
  -21.8820   -3.8145   23.4342 C   0  0  0  0  0  0
  -21.9197   -4.6959   22.3397 C   0  0  0  0  0  0
  -22.7835  -13.5229   21.1858 C   0  0  0  0  0  0
  -22.1660   -4.2143   21.0973 F   0  0  0  0  0  0
  -21.5635   -3.4530   25.7748 F   0  0  0  0  0  0
  -30.0106  -13.4430   20.3919 N   0  0  0  0  0  0
  -26.2953  -12.9317   20.3347 N   0  0  0  0  0  0
  -25.9309  -11.6476   20.5795 N   0  0  0  0  0  0
  -22.0458  -12.8234   22.0410 N   0  0  0  0  0  0
  -25.4279  -15.1865   20.4153 N   0  0  0  0  0  0
  -31.8908  -14.6929   20.1612 O   0  0  0  0  0  0
  -21.6623   -6.8866   21.4235 O   0  0  0  0  0  0
  -22.3539  -14.5547   20.6714 O   0  0  0  0  0  0
  -24.6247  -31.8624   23.2066 C   0  0  0  0  0  0
  -25.9104  -32.4792   23.8379 C   0  0  1  0  0  0
  -27.2205  -27.3337   20.1070 C   0  0  0  0  0  0
  -25.5932  -33.8598   24.2301 N   0  0  0  0  0  0
  -23.4173  -30.4892   21.5497 C   0  0  2  0  0  0
  -24.8628  -28.9562   20.1079 C   0  0  0  0  0  0
  -22.7474  -29.4635   22.4948 C   0  0  0  0  0  0
  -18.0288  -28.1380   22.8484 C   0  0  0  0  0  0
  -24.1494  -36.7304   23.2637 C   0  0  0  0  0  0
  -25.9594  -30.7971   21.3789 C   0  0  0  0  0  0
  -26.0324  -29.4282   20.7166 C   0  0  0  0  0  0
  -27.2131  -28.6279   20.7114 C   0  0  0  0  0  0
  -26.0276  -26.9293   19.4544 C   0  0  0  0  0  0
  -24.8621  -27.7111   19.4683 C   0  0  0  0  0  0
  -23.6303  -29.8326   20.1623 C   0  0  0  0  0  0
  -25.4117  -36.3095   24.0330 C   0  0  1  0  0  0
  -20.5887  -28.3686   23.1291 C   0  0  2  0  0  0
  -20.6777  -26.9411   22.5416 C   0  0  0  0  0  0
  -19.5756  -26.6380   21.5215 C   0  0  0  0  0  0
  -18.1932  -26.7926   22.1615 C   0  0  0  0  0  0
  -19.1538  -28.8851   23.2881 C   0  0  0  0  0  0
  -18.9460  -30.1452   23.8896 C   0  0  0  0  0  0
  -17.6459  -30.6585   24.0562 C   0  0  0  0  0  0
  -25.9051  -34.9460   23.5112 C   0  0  0  0  0  0
  -16.5351  -29.9081   23.6330 C   0  0  0  0  0  0
  -16.7273  -28.6498   23.0351 C   0  0  0  0  0  0
  -26.4495  -31.6598   25.0741 C   0  0  0  0  0  0
  -25.3739  -31.3738   26.1478 C   0  0  0  0  0  0
  -27.0327  -30.3018   24.6186 C   0  0  0  0  0  0
  -27.6057  -32.4334   25.7502 C   0  0  0  0  0  0
  -27.5586  -37.1805   24.8463 C   0  0  0  0  0  0
  -21.4191  -29.3039   22.3690 N   0  0  0  0  0  0
  -26.4296  -37.3785   23.9406 N   0  0  0  0  0  0
  -24.6859  -31.0653   22.1017 N   0  0  0  0  0  0
  -23.4206  -28.8164   23.3016 O   0  0  0  0  0  0
  -28.3259  -26.4676   20.1866 O   0  0  0  0  0  0
  -26.5611  -34.8917   22.4674 O   0  0  0  0  0  0
  -23.5413  -32.1421   23.7405 O   0  0  0  0  0  0
  -28.8630  -22.5713   19.8160 C   0  0  0  0  0  0
  -29.6699  -21.5204   20.3295 C   0  0  0  0  0  0
  -28.9960  -23.8863   20.3435 C   0  0  0  0  0  0
  -30.5908  -23.0565   21.7783 C   0  0  0  0  0  0
  -30.4805  -16.7783   21.7067 C   0  0  0  0  0  0
  -29.4921  -16.5085   19.5047 C   0  0  0  0  0  0
  -30.6630  -18.2723   21.2178 C   0  0  0  0  0  0
  -28.6789  -17.7986   19.8458 C   0  0  0  0  0  0
  -31.5827  -23.3322   22.8882 C   0  0  0  0  0  0
  -29.7301  -20.0971   19.6873 C   0  0  0  0  0  0
  -28.0641  -25.0470   19.8685 C   0  0  0  0  0  0
  -30.5230  -21.7963   21.3356 N   0  0  0  0  0  0
  -29.8823  -24.1001   21.3384 N   0  0  0  0  0  0
  -30.0016  -15.7898   20.6954 N   0  0  0  0  0  0
  -29.4675  -18.8684   20.5383 N   0  3  0  0  0  0
  -31.4648  -12.4798   19.1402 H   0  0  0  0  0  0
  -30.3329  -11.4039   19.9137 H   0  0  0  0  0  0
  -29.7616  -11.7296   17.4808 H   0  0  0  0  0  0
  -29.6343  -13.4532   17.7248 H   0  0  0  0  0  0
  -27.8720  -11.2751   18.8919 H   0  0  0  0  0  0
  -27.3642  -12.5354   17.7971 H   0  0  0  0  0  0
  -27.6274  -14.2325   19.4823 H   0  0  0  0  0  0
  -28.7101  -12.1511   21.4406 H   0  0  0  0  0  0
  -28.4551  -13.8465   21.7776 H   0  0  0  0  0  0
  -25.2746   -9.5675   22.4764 H   0  0  0  0  0  0
  -24.0001   -7.4627   22.7463 H   0  0  0  0  0  0
  -21.0832   -8.8759   19.8960 H   0  0  0  0  0  0
  -22.3681  -10.9664   19.6176 H   0  0  0  0  0  0
  -21.1993   -7.6145   23.9712 H   0  0  0  0  0  0
  -21.1492   -6.0508   25.9070 H   0  0  0  0  0  0
  -22.0602   -2.7611   23.2833 H   0  0  0  0  0  0
  -22.4059  -11.9897   22.4806 H   0  0  0  0  0  0
  -21.1085  -13.1293   22.2602 H   0  0  0  0  0  0
  -24.6630  -15.8434   20.5236 H   0  0  0  0  0  0
  -26.2837  -15.6185   20.0963 H   0  0  0  0  0  0
  -26.7168  -32.5465   23.1123 H   0  0  0  0  0  0
  -25.0090  -33.9749   25.0453 H   0  0  0  0  0  0
  -22.7092  -31.3092   21.4123 H   0  0  0  0  0  0
  -23.3750  -35.9642   23.3308 H   0  0  0  0  0  0
  -24.3584  -36.8915   22.2050 H   0  0  0  0  0  0
  -23.7249  -37.6512   23.6651 H   0  0  0  0  0  0
  -26.0925  -31.5643   20.6149 H   0  0  0  0  0  0
  -26.8390  -30.8406   22.0096 H   0  0  0  0  0  0
  -28.1061  -28.9848   21.2050 H   0  0  0  0  0  0
  -25.9476  -25.9903   18.9284 H   0  0  0  0  0  0
  -23.9683  -27.3491   18.9789 H   0  0  0  0  0  0
  -23.7469  -30.6127   19.4091 H   0  0  0  0  0  0
  -22.7506  -29.2614   19.8600 H   0  0  0  0  0  0
  -25.1293  -36.1954   25.0823 H   0  0  0  0  0  0
  -20.9967  -28.3258   24.1417 H   0  0  0  0  0  0
  -20.5681  -26.2298   23.3616 H   0  0  0  0  0  0
  -21.6648  -26.7445   22.1214 H   0  0  0  0  0  0
  -19.6921  -25.6291   21.1250 H   0  0  0  0  0  0
  -19.6697  -27.3189   20.6745 H   0  0  0  0  0  0
  -17.4210  -26.6685   21.4007 H   0  0  0  0  0  0
  -18.0316  -26.0064   22.9005 H   0  0  0  0  0  0
  -19.7936  -30.7268   24.2264 H   0  0  0  0  0  0
  -17.5015  -31.6264   24.5166 H   0  0  0  0  0  0
  -15.5351  -30.2981   23.7655 H   0  0  0  0  0  0
  -15.8672  -28.0814   22.7067 H   0  0  0  0  0  0
  -24.5900  -30.7097   25.7818 H   0  0  0  0  0  0
  -24.8946  -32.2909   26.4916 H   0  0  0  0  0  0
  -25.8074  -30.8909   27.0245 H   0  0  0  0  0  0
  -26.2890  -29.6777   24.1214 H   0  0  0  0  0  0
  -27.4026  -29.7265   25.4683 H   0  0  0  0  0  0
  -27.8766  -30.4296   23.9403 H   0  0  0  0  0  0
  -27.2659  -33.3622   26.2096 H   0  0  0  0  0  0
  -28.3850  -32.6921   25.0321 H   0  0  0  0  0  0
  -28.0748  -31.8457   26.5403 H   0  0  0  0  0  0
  -28.2608  -38.0098   24.7505 H   0  0  0  0  0  0
  -28.1074  -36.2628   24.6290 H   0  0  0  0  0  0
  -27.2304  -37.1463   25.8867 H   0  0  0  0  0  0
  -20.9371  -29.8771   21.6905 H   0  0  0  0  0  0
  -26.0184  -38.2863   24.1403 H   0  0  0  0  0  0
  -28.1654  -22.3857   19.0091 H   0  0  0  0  0  0
  -29.7652  -16.7619   22.5293 H   0  0  0  0  0  0
  -31.4228  -16.4456   22.1456 H   0  0  0  0  0  0
  -30.3288  -16.7683   18.8533 H   0  0  0  0  0  0
  -28.8710  -15.8500   18.9028 H   0  0  0  0  0  0
  -31.5091  -18.2953   20.5304 H   0  0  0  0  0  0
  -30.9442  -18.9104   22.0571 H   0  0  0  0  0  0
  -27.8607  -17.5193   20.5108 H   0  0  0  0  0  0
  -28.1895  -18.1683   18.9450 H   0  0  0  0  0  0
  -32.1562  -22.4401   23.1417 H   0  0  0  0  0  0
  -31.0647  -23.6668   23.7864 H   0  0  0  0  0  0
  -32.2871  -24.1077   22.5873 H   0  0  0  0  0  0
  -30.6869  -19.9898   19.1763 H   0  0  0  0  0  0
  -28.9981  -20.1312   18.8822 H   0  0  0  0  0  0
  -27.1045  -24.7603   20.3009 H   0  0  0  0  0  0
  -27.9707  -24.9571   18.7854 H   0  0  0  0  0  0
  -28.8631  -19.2217   21.2651 H   0  0  0  0  0  0
  1 25  1  0  0  0
  1 30  2  0  0  0
  1 84  1  0  0  0
  2  3  1  0  0  0
  2 25  1  0  0  0
  2 86  1  0  0  0
  2 87  1  0  0  0
  3  4  1  0  0  0
  3 88  1  0  0  0
  3 89  1  0  0  0
  4  5  1  0  0  0
  4 90  1  0  0  0
  4 91  1  0  0  0
  5  6  1  0  0  0
  5 26  1  0  0  0
  5 92  1  0  0  0
  6 25  1  0  0  0
  6 93  1  0  0  0
  6 94  1  0  0  0
  7  8  2  0  0  0
  7 26  1  0  0  0
  7 29  1  0  0  0
  8  9  1  0  0  0
  8 22  1  0  0  0
  9 10  1  0  0  0
  9 27  2  0  0  0
 10 11  2  0  0  0
 10 15  1  0  0  0
 11 12  1  0  0  0
 11 95  1  0  0  0
 12 13  2  0  0  0
 12 96  1  0  0  0
 13 14  1  0  0  0
 13 31  1  0  0  0
 14 15  2  0  0  0
 14 97  1  0  0  0
 15 98  1  0  0  0
 16 17  2  0  0  0
 16 21  1  0  0  0
 16 31  1  0  0  0
 17 18  1  0  0  0
 17 99  1  0  0  0
 18 19  2  0  0  0
 18100  1  0  0  0
 19 20  1  0  0  0
 19 24  1  0  0  0
 20 21  2  0  0  0
 20101  1  0  0  0
 21 23  1  0  0  0
 22 28  1  0  0  0
 22 32  2  0  0  0
 26 27  1  0  0  0
 28102  1  0  0  0
 28103  1  0  0  0
 29104  1  0  0  0
 29105  1  0  0  0
 33 34  1  0  0  0
 33 66  1  0  0  0
 33 70  2  0  0  0
 34 36  1  0  0  0
 34 59  1  0  0  0
 34106  1  0  0  0
 35 44  2  0  0  0
 35 45  1  0  0  0
 35 68  1  0  0  0
 36 56  1  0  0  0
 36107  1  0  0  0
 37 39  1  0  0  0
 37 47  1  0  0  0
 37 66  1  0  0  0
 37108  1  0  0  0
 38 43  2  0  0  0
 38 46  1  0  0  0
 38 47  1  0  0  0
 39 64  1  0  0  0
 39 67  2  0  0  0
 40 52  1  0  0  0
 40 53  2  0  0  0
 40 58  1  0  0  0
 41109  1  0  0  0
 41110  1  0  0  0
 41111  1  0  0  0
 41 48  1  0  0  0
 42 43  1  0  0  0
 42 66  1  0  0  0
 42112  1  0  0  0
 42113  1  0  0  0
 43 44  1  0  0  0
 44114  1  0  0  0
 45 46  2  0  0  0
 45115  1  0  0  0
 46116  1  0  0  0
 47117  1  0  0  0
 47118  1  0  0  0
 48 56  1  0  0  0
 48 65  1  0  0  0
 48119  1  0  0  0
 49 50  1  0  0  0
 49 53  1  0  0  0
 49 64  1  0  0  0
 49120  1  0  0  0
 50 51  1  0  0  0
 50121  1  0  0  0
 50122  1  0  0  0
 51 52  1  0  0  0
 51123  1  0  0  0
 51124  1  0  0  0
 52125  1  0  0  0
 52126  1  0  0  0
 53 54  1  0  0  0
 54 55  2  0  0  0
 54127  1  0  0  0
 55 57  1  0  0  0
 55128  1  0  0  0
 56 69  2  0  0  0
 57 58  2  0  0  0
 57129  1  0  0  0
 58130  1  0  0  0
 59 60  1  0  0  0
 59 61  1  0  0  0
 59 62  1  0  0  0
 60131  1  0  0  0
 60132  1  0  0  0
 60133  1  0  0  0
 61134  1  0  0  0
 61135  1  0  0  0
 61136  1  0  0  0
 62137  1  0  0  0
 62138  1  0  0  0
 62139  1  0  0  0
 63 65  1  0  0  0
 63140  1  0  0  0
 63141  1  0  0  0
 63142  1  0  0  0
 64143  1  0  0  0
 65144  1  0  0  0
 68 81  1  0  0  0
 71 72  2  0  0  0
 71 73  1  0  0  0
 71145  1  0  0  0
 72 80  1  0  0  0
 72 82  1  0  0  0
 73 81  1  0  0  0
 73 83  2  0  0  0
 74 79  1  0  0  0
 74 82  2  0  0  0
 74 83  1  0  0  0
 75 77  1  0  0  0
 75 84  1  0  0  0
 75146  1  0  0  0
 75147  1  0  0  0
 76 78  1  0  0  0
 76 84  1  0  0  0
 76148  1  0  0  0
 76149  1  0  0  0
 77 85  1  0  0  0
 77150  1  0  0  0
 77151  1  0  0  0
 78 85  1  0  0  0
 78152  1  0  0  0
 78153  1  0  0  0
 79154  1  0  0  0
 79155  1  0  0  0
 79156  1  0  0  0
 80157  1  0  0  0
 80158  1  0  0  0
 80 85  1  0  0  0
 81159  1  0  0  0
 81160  1  0  0  0
 85161  1  0  0  0
M  CHG  1  85   1
M  ISO  4   1 100  68 101  81 101  84 100
M  END
> <chiral flag>
0

> <version>
0

> <s_m_source_file>
/data/baiqing/PycharmProjects/Reinvent-master-3.2/result/LINK_invent/BTK/process_docking_weight1_custom_sum_contain_oxygen_bond_distance_aromatic_linkinvent_7_9_3/rearranged_h_0182.sdf

> <i_m_source_file_index>
22

> <r_mmod_Potential_Energy-OPLS-2005>
-327.876800537109

> <r_mmod_Stretch_Energy-OPLS-2005>
71.7117691040039

> <r_mmod_Bend_Energy-OPLS-2005>
144.898056030273

> <r_mmod_Torsional_Energy-OPLS-2005>
395.342407226562

> <r_mmod_Improper_Torsional_Energy-OPLS-2005>
9.4833812713623

> <r_mmod_Van_der_Waal_Energy-OPLS-2005>
170.064422607422

> <r_mmod_Electrostatic_Energy-OPLS-2005>
-690.801025390625

> <r_mmod_Solvation_Energy-OPLS-2005>
-479.623931884766

> <b_mmod_Minimization_Converged-OPLS-2005>
0

> <r_mmod_RMS_Derivative-OPLS-2005>
1.49051856994629

$$$$
22
                    3D
 Structure written by MMmdl.
149158  0  0  1  0            999 V2000
  -30.4605  -15.2554   20.3697 C   0  0  0  0  0  0
  -30.4389  -12.8056   19.5152 C   0  0  0  0  0  0
  -29.5325  -12.5682   18.2809 C   0  0  0  0  0  0
  -28.0806  -12.2981   18.7134 C   0  0  0  0  0  0
  -27.6111  -13.2767   19.8182 C   0  0  2  0  0  0
  -28.6482  -13.4567   20.9477 C   0  0  0  0  0  0
  -25.2379  -13.8251   20.5736 C   0  0  0  0  0  0
  -24.1738  -13.0434   20.9257 C   0  0  0  0  0  0
  -24.6398  -11.6937   20.8761 C   0  0  0  0  0  0
  -23.9107  -10.4286   21.0400 C   0  0  0  0  0  0
  -24.3647   -9.4198   21.9174 C   0  0  0  0  0  0
  -23.6307   -8.2243   22.0741 C   0  0  0  0  0  0
  -22.4284   -8.0280   21.3537 C   0  0  0  0  0  0
  -21.9928   -9.0258   20.4632 C   0  0  0  0  0  0
  -22.7277  -10.2130   20.3042 C   0  0  0  0  0  0
  -21.6851   -6.0733   22.5275 C   0  0  0  0  0  0
  -21.4020   -6.5643   23.8213 C   0  0  0  0  0  0
  -21.3661   -5.6787   24.9172 C   0  0  0  0  0  0
  -21.6047   -4.3049   24.7218 C   0  0  0  0  0  0
  -21.8819   -3.8148   23.4339 C   0  0  0  0  0  0
  -21.9194   -4.6965   22.3394 C   0  0  0  0  0  0
  -22.7752  -13.5177   21.1913 C   0  0  0  0  0  0
  -22.1662   -4.2153   21.0971 F   0  0  0  0  0  0
  -21.5630   -3.4537   25.7738 F   0  0  0  0  0  0
  -29.8800  -13.9563   20.3146 N   0  0  0  0  0  0
  -26.2813  -12.9534   20.3204 N   0  0  0  0  0  0
  -25.9343  -11.6639   20.5725 N   0  0  0  0  0  0
  -22.0407  -12.8148   22.0460 N   0  0  0  0  0  0
  -25.4025  -15.1986   20.4161 N   0  0  0  0  0  0
  -31.6844  -15.2400   20.1818 O   0  0  0  0  0  0
  -21.6635   -6.8882   21.4239 O   0  0  0  0  0  0
  -22.3431  -14.5478   20.6753 O   0  0  0  0  0  0
  -24.6638  -31.8269   23.1725 C   0  0  0  0  0  0
  -25.9337  -32.4599   23.8174 C   0  0  1  0  0  0
  -27.2133  -26.9394   20.1807 C   0  0  0  0  0  0
  -25.6019  -33.8413   24.2102 N   0  0  0  0  0  0
  -23.4749  -30.4412   21.5226 C   0  0  2  0  0  0
  -24.9266  -28.8312   20.1151 C   0  0  0  0  0  0
  -22.7657  -29.4467   22.4798 C   0  0  0  0  0  0
  -18.0329  -28.1398   22.8465 C   0  0  0  0  0  0
  -24.1495  -36.7198   23.2640 C   0  0  0  0  0  0
  -26.0446  -30.6376   21.3995 C   0  0  0  0  0  0
  -26.1128  -29.2280   20.7456 C   0  0  0  0  0  0
  -27.2528  -28.3038   20.7539 C   0  0  0  0  0  0
  -25.9980  -26.6983   19.4981 C   0  0  0  0  0  0
  -24.8940  -27.5856   19.4710 C   0  0  0  0  0  0
  -23.7129  -29.7589   20.1483 C   0  0  0  0  0  0
  -25.4131  -36.2972   24.0306 C   0  0  1  0  0  0
  -20.5953  -28.3744   23.1187 C   0  0  2  0  0  0
  -20.6800  -26.9426   22.5395 C   0  0  0  0  0  0
  -19.5774  -26.6376   21.5204 C   0  0  0  0  0  0
  -18.1958  -26.7932   22.1616 C   0  0  0  0  0  0
  -19.1591  -28.8892   23.2811 C   0  0  0  0  0  0
  -18.9501  -30.1485   23.8842 C   0  0  0  0  0  0
  -17.6492  -30.6586   24.0554 C   0  0  0  0  0  0
  -25.9104  -34.9356   23.5013 C   0  0  0  0  0  0
  -16.5383  -29.9072   23.6340 C   0  0  0  0  0  0
  -16.7311  -28.6495   23.0355 C   0  0  0  0  0  0
  -26.4586  -31.6522   25.0686 C   0  0  0  0  0  0
  -25.3718  -31.3775   26.1347 C   0  0  0  0  0  0
  -27.0475  -30.2892   24.6390 C   0  0  0  0  0  0
  -27.6097  -32.4303   25.7490 C   0  0  0  0  0  0
  -27.5569  -37.1754   24.8461 C   0  0  0  0  0  0
  -21.4334  -29.3044   22.3542 N   0  0  0  0  0  0
  -26.4272  -37.3710   23.9420 N   0  0  0  0  0  0
  -24.7492  -30.9945   22.0853 N   0  0  0  0  0  0
  -23.4219  -28.8039   23.3027 O   0  0  0  0  0  0
  -28.2091  -25.8276   20.2281 O   0  0  0  0  0  0
  -26.5685  -34.8890   22.4590 O   0  0  0  0  0  0
  -23.5720  -32.1239   23.6837 O   0  0  0  0  0  0
  -29.4088  -21.9761   19.2186 C   0  0  0  0  0  0
  -28.6648  -22.7289   20.2019 C   0  0  0  0  0  0
  -28.3018  -21.7596   21.1745 C   0  0  0  0  0  0
  -29.3853  -19.7181   20.2880 C   0  0  0  0  0  0
  -27.3264  -22.4329   22.1197 C   0  0  0  0  0  0
  -27.2038  -23.9533   21.7019 C   0  0  0  0  0  0
  -27.8358  -24.2280   20.3033 C   0  0  1  0  0  0
  -30.1416  -18.1439   20.4465 C   0  0  0  0  0  0
  -29.7518  -20.5947   19.2899 N   0  0  0  0  0  0
  -28.6484  -20.3767   21.2530 N   0  0  0  0  0  0
  -29.7231  -16.5370   20.4341 N   0  0  0  0  0  0
  -31.4552  -13.0106   19.1758 H   0  0  0  0  0  0
  -30.5114  -11.9053   20.1271 H   0  0  0  0  0  0
  -29.9092  -11.7358   17.6839 H   0  0  0  0  0  0
  -29.5622  -13.4455   17.6339 H   0  0  0  0  0  0
  -28.0335  -11.2751   19.0877 H   0  0  0  0  0  0
  -27.4111  -12.3410   17.8539 H   0  0  0  0  0  0
  -27.5243  -14.2413   19.3164 H   0  0  0  0  0  0
  -28.8146  -12.5255   21.4919 H   0  0  0  0  0  0
  -28.2912  -14.1860   21.6770 H   0  0  0  0  0  0
  -25.2789   -9.5681   22.4761 H   0  0  0  0  0  0
  -24.0013   -7.4633   22.7462 H   0  0  0  0  0  0
  -21.0863   -8.8794   19.8934 H   0  0  0  0  0  0
  -22.3743  -10.9674   19.6159 H   0  0  0  0  0  0
  -21.2020   -7.6150   23.9720 H   0  0  0  0  0  0
  -21.1482   -6.0512   25.9077 H   0  0  0  0  0  0
  -22.0600   -2.7609   23.2829 H   0  0  0  0  0  0
  -22.4044  -11.9825   22.4853 H   0  0  0  0  0  0
  -21.1020  -13.1146   22.2659 H   0  0  0  0  0  0
  -24.6342  -15.8496   20.5365 H   0  0  0  0  0  0
  -26.2431  -15.6398   20.0674 H   0  0  0  0  0  0
  -26.7403  -32.5152   23.0887 H   0  0  0  0  0  0
  -25.0177  -33.9488   25.0262 H   0  0  0  0  0  0
  -22.7868  -31.2731   21.3556 H   0  0  0  0  0  0
  -23.3781  -35.9502   23.3265 H   0  0  0  0  0  0
  -24.3576  -36.8872   22.2060 H   0  0  0  0  0  0
  -23.7227  -37.6370   23.6705 H   0  0  0  0  0  0
  -26.2185  -31.3795   20.6192 H   0  0  0  0  0  0
  -26.9075  -30.6974   22.0503 H   0  0  0  0  0  0
  -28.1501  -28.6069   21.2757 H   0  0  0  0  0  0
  -25.8608  -25.7574   18.9881 H   0  0  0  0  0  0
  -23.9946  -27.2784   18.9552 H   0  0  0  0  0  0
  -23.8686  -30.5291   19.3922 H   0  0  0  0  0  0
  -22.8211  -29.2153   19.8307 H   0  0  0  0  0  0
  -25.1326  -36.1756   25.0796 H   0  0  0  0  0  0
  -21.0045  -28.3349   24.1310 H   0  0  0  0  0  0
  -20.5670  -26.2362   23.3633 H   0  0  0  0  0  0
  -21.6664  -26.7391   22.1210 H   0  0  0  0  0  0
  -19.6927  -25.6280   21.1253 H   0  0  0  0  0  0
  -19.6707  -27.3167   20.6720 H   0  0  0  0  0  0
  -17.4223  -26.6688   21.4019 H   0  0  0  0  0  0
  -18.0348  -26.0081   22.9020 H   0  0  0  0  0  0
  -19.7977  -30.7320   24.2178 H   0  0  0  0  0  0
  -17.5043  -31.6257   24.5170 H   0  0  0  0  0  0
  -15.5378  -30.2951   23.7694 H   0  0  0  0  0  0
  -15.8716  -28.0795   22.7085 H   0  0  0  0  0  0
  -24.5949  -30.7050   25.7684 H   0  0  0  0  0  0
  -24.8848  -32.2975   26.4592 H   0  0  0  0  0  0
  -25.7979  -30.9092   27.0230 H   0  0  0  0  0  0
  -26.3144  -29.6573   24.1365 H   0  0  0  0  0  0
  -27.3998  -29.7238   25.5027 H   0  0  0  0  0  0
  -27.9084  -30.4085   23.9809 H   0  0  0  0  0  0
  -27.2701  -33.3668   26.1925 H   0  0  0  0  0  0
  -28.3998  -32.6745   25.0375 H   0  0  0  0  0  0
  -28.0654  -31.8497   26.5522 H   0  0  0  0  0  0
  -28.2559  -38.0079   24.7537 H   0  0  0  0  0  0
  -28.1099  -36.2608   24.6252 H   0  0  0  0  0  0
  -27.2289  -37.1349   25.8864 H   0  0  0  0  0  0
  -20.9585  -29.8736   21.6676 H   0  0  0  0  0  0
  -26.0119  -38.2765   24.1447 H   0  0  0  0  0  0
  -29.7096  -22.4729   18.3082 H   0  0  0  0  0  0
  -27.6538  -22.3286   23.1546 H   0  0  0  0  0  0
  -26.3595  -21.9383   22.0298 H   0  0  0  0  0  0
  -27.7761  -24.5288   22.4288 H   0  0  0  0  0  0
  -26.1796  -24.3204   21.7737 H   0  0  0  0  0  0
  -27.0632  -24.0871   19.5491 H   0  0  0  0  0  0
  -30.6936  -18.2447   21.3803 H   0  0  0  0  0  0
  -30.9256  -18.1833   19.6888 H   0  0  0  0  0  0
  -28.7253  -16.4145   20.5081 H   0  0  0  0  0  0
  1 25  1  0  0  0
  1 30  2  0  0  0
  1 81  1  0  0  0
  2  3  1  0  0  0
  2 25  1  0  0  0
  2 82  1  0  0  0
  2 83  1  0  0  0
  3  4  1  0  0  0
  3 84  1  0  0  0
  3 85  1  0  0  0
  4  5  1  0  0  0
  4 86  1  0  0  0
  4 87  1  0  0  0
  5  6  1  0  0  0
  5 26  1  0  0  0
  5 88  1  0  0  0
  6 25  1  0  0  0
  6 89  1  0  0  0
  6 90  1  0  0  0
  7  8  2  0  0  0
  7 26  1  0  0  0
  7 29  1  0  0  0
  8  9  1  0  0  0
  8 22  1  0  0  0
  9 10  1  0  0  0
  9 27  2  0  0  0
 10 11  2  0  0  0
 10 15  1  0  0  0
 11 12  1  0  0  0
 11 91  1  0  0  0
 12 13  2  0  0  0
 12 92  1  0  0  0
 13 14  1  0  0  0
 13 31  1  0  0  0
 14 15  2  0  0  0
 14 93  1  0  0  0
 15 94  1  0  0  0
 16 17  2  0  0  0
 16 21  1  0  0  0
 16 31  1  0  0  0
 17 18  1  0  0  0
 17 95  1  0  0  0
 18 19  2  0  0  0
 18 96  1  0  0  0
 19 20  1  0  0  0
 19 24  1  0  0  0
 20 21  2  0  0  0
 20 97  1  0  0  0
 21 23  1  0  0  0
 22 28  1  0  0  0
 22 32  2  0  0  0
 26 27  1  0  0  0
 28 98  1  0  0  0
 28 99  1  0  0  0
 29100  1  0  0  0
 29101  1  0  0  0
 33 34  1  0  0  0
 33 66  1  0  0  0
 33 70  2  0  0  0
 34 36  1  0  0  0
 34 59  1  0  0  0
 34102  1  0  0  0
 35 44  2  0  0  0
 35 45  1  0  0  0
 35 68  1  0  0  0
 36 56  1  0  0  0
 36103  1  0  0  0
 37 39  1  0  0  0
 37 47  1  0  0  0
 37 66  1  0  0  0
 37104  1  0  0  0
 38 43  2  0  0  0
 38 46  1  0  0  0
 38 47  1  0  0  0
 39 64  1  0  0  0
 39 67  2  0  0  0
 40 52  1  0  0  0
 40 53  2  0  0  0
 40 58  1  0  0  0
 41105  1  0  0  0
 41106  1  0  0  0
 41107  1  0  0  0
 41 48  1  0  0  0
 42 43  1  0  0  0
 42 66  1  0  0  0
 42108  1  0  0  0
 42109  1  0  0  0
 43 44  1  0  0  0
 44110  1  0  0  0
 45 46  2  0  0  0
 45111  1  0  0  0
 46112  1  0  0  0
 47113  1  0  0  0
 47114  1  0  0  0
 48 56  1  0  0  0
 48 65  1  0  0  0
 48115  1  0  0  0
 49 50  1  0  0  0
 49 53  1  0  0  0
 49 64  1  0  0  0
 49116  1  0  0  0
 50 51  1  0  0  0
 50117  1  0  0  0
 50118  1  0  0  0
 51 52  1  0  0  0
 51119  1  0  0  0
 51120  1  0  0  0
 52121  1  0  0  0
 52122  1  0  0  0
 53 54  1  0  0  0
 54 55  2  0  0  0
 54123  1  0  0  0
 55 57  1  0  0  0
 55124  1  0  0  0
 56 69  2  0  0  0
 57 58  2  0  0  0
 57125  1  0  0  0
 58126  1  0  0  0
 59 60  1  0  0  0
 59 61  1  0  0  0
 59 62  1  0  0  0
 60127  1  0  0  0
 60128  1  0  0  0
 60129  1  0  0  0
 61130  1  0  0  0
 61131  1  0  0  0
 61132  1  0  0  0
 62133  1  0  0  0
 62134  1  0  0  0
 62135  1  0  0  0
 63 65  1  0  0  0
 63136  1  0  0  0
 63137  1  0  0  0
 63138  1  0  0  0
 64139  1  0  0  0
 65140  1  0  0  0
 68 77  1  0  0  0
 71 72  2  0  0  0
 71 79  1  0  0  0
 71141  1  0  0  0
 72 73  1  0  0  0
 72 77  1  0  0  0
 73 75  1  0  0  0
 73 80  2  0  0  0
 74 78  1  0  0  0
 74 79  2  0  0  0
 74 80  1  0  0  0
 75 76  1  0  0  0
 75142  1  0  0  0
 75143  1  0  0  0
 76 77  1  0  0  0
 76144  1  0  0  0
 76145  1  0  0  0
 77146  1  0  0  0
 78 81  1  0  0  0
 78147  1  0  0  0
 78148  1  0  0  0
 81149  1  0  0  0
M  ISO  4   1 100  68 101  77 101  81 100
M  END
> <chiral flag>
0

> <version>
0

> <s_m_source_file>
/data/baiqing/PycharmProjects/Reinvent-master-3.2/result/LINK_invent/BTK/process_docking_weight1_custom_sum_contain_oxygen_bond_distance_aromatic_linkinvent_7_9_3/rearranged_h_0182.sdf

> <i_m_source_file_index>
23

> <r_mmod_Potential_Energy-OPLS-2005>
676.247802734375

> <r_mmod_Stretch_Energy-OPLS-2005>
477.936981201172

> <r_mmod_Bend_Energy-OPLS-2005>
497.839965820312

> <r_mmod_Torsional_Energy-OPLS-2005>
234.567428588867

> <r_mmod_Improper_Torsional_Energy-OPLS-2005>
10.7188177108765

> <r_mmod_Van_der_Waal_Energy-OPLS-2005>
131.741973876953

> <r_mmod_Electrostatic_Energy-OPLS-2005>
-873.85546875

> <r_mmod_Solvation_Energy-OPLS-2005>
-247.687316894531

> <b_mmod_Minimization_Converged-OPLS-2005>
0

> <r_mmod_RMS_Derivative-OPLS-2005>
1.71235775947571

$$$$
23
                    3D
 Structure written by MMmdl.
153162  0  0  1  0            999 V2000
  -30.4638  -15.2186   20.3719 C   0  0  0  0  0  0
  -30.4373  -12.7733   19.5285 C   0  0  0  0  0  0
  -29.5353  -12.5714   18.2858 C   0  0  0  0  0  0
  -28.0798  -12.3076   18.7084 C   0  0  0  0  0  0
  -27.6147  -13.2747   19.8263 C   0  0  2  0  0  0
  -28.6490  -13.4311   20.9622 C   0  0  0  0  0  0
  -25.2400  -13.8251   20.5748 C   0  0  0  0  0  0
  -24.1749  -13.0441   20.9262 C   0  0  0  0  0  0
  -24.6402  -11.6938   20.8761 C   0  0  0  0  0  0
  -23.9096  -10.4296   21.0408 C   0  0  0  0  0  0
  -24.3640   -9.4209   21.9185 C   0  0  0  0  0  0
  -23.6307   -8.2247   22.0755 C   0  0  0  0  0  0
  -22.4286   -8.0287   21.3547 C   0  0  0  0  0  0
  -21.9929   -9.0263   20.4647 C   0  0  0  0  0  0
  -22.7267  -10.2139   20.3056 C   0  0  0  0  0  0
  -21.6856   -6.0742   22.5280 C   0  0  0  0  0  0
  -21.4017   -6.5644   23.8215 C   0  0  0  0  0  0
  -21.3659   -5.6794   24.9173 C   0  0  0  0  0  0
  -21.6045   -4.3057   24.7223 C   0  0  0  0  0  0
  -21.8817   -3.8153   23.4343 C   0  0  0  0  0  0
  -21.9194   -4.6970   22.3400 C   0  0  0  0  0  0
  -22.7765  -13.5193   21.1905 C   0  0  0  0  0  0
  -22.1662   -4.2157   21.0978 F   0  0  0  0  0  0
  -21.5626   -3.4538   25.7735 F   0  0  0  0  0  0
  -29.8898  -13.9194   20.3412 N   0  0  0  0  0  0
  -26.2828  -12.9530   20.3224 N   0  0  0  0  0  0
  -25.9340  -11.6632   20.5723 N   0  0  0  0  0  0
  -22.0415  -12.8175   22.0453 N   0  0  0  0  0  0
  -25.4026  -15.1989   20.4190 N   0  0  0  0  0  0
  -31.6799  -15.2152   20.1354 O   0  0  0  0  0  0
  -21.6644   -6.8889   21.4244 O   0  0  0  0  0  0
  -22.3445  -14.5492   20.6739 O   0  0  0  0  0  0
  -24.6609  -31.8266   23.1741 C   0  0  0  0  0  0
  -25.9301  -32.4607   23.8194 C   0  0  1  0  0  0
  -27.2161  -26.9533   20.1790 C   0  0  0  0  0  0
  -25.5981  -33.8418   24.2101 N   0  0  0  0  0  0
  -23.4743  -30.4402   21.5226 C   0  0  2  0  0  0
  -24.9284  -28.8357   20.1108 C   0  0  0  0  0  0
  -22.7659  -29.4455   22.4791 C   0  0  0  0  0  0
  -18.0323  -28.1406   22.8470 C   0  0  0  0  0  0
  -24.1490  -36.7206   23.2642 C   0  0  0  0  0  0
  -26.0427  -30.6416   21.4015 C   0  0  0  0  0  0
  -26.1117  -29.2346   20.7448 C   0  0  0  0  0  0
  -27.2514  -28.3134   20.7575 C   0  0  0  0  0  0
  -26.0063  -26.7075   19.4892 C   0  0  0  0  0  0
  -24.9002  -27.5923   19.4623 C   0  0  0  0  0  0
  -23.7128  -29.7592   20.1475 C   0  0  0  0  0  0
  -25.4129  -36.2974   24.0302 C   0  0  1  0  0  0
  -20.5947  -28.3746   23.1193 C   0  0  2  0  0  0
  -20.6798  -26.9430   22.5400 C   0  0  0  0  0  0
  -19.5770  -26.6379   21.5212 C   0  0  0  0  0  0
  -18.1955  -26.7941   22.1625 C   0  0  0  0  0  0
  -19.1585  -28.8898   23.2820 C   0  0  0  0  0  0
  -18.9492  -30.1492   23.8850 C   0  0  0  0  0  0
  -17.6484  -30.6596   24.0554 C   0  0  0  0  0  0
  -25.9097  -34.9359   23.5020 C   0  0  0  0  0  0
  -16.5375  -29.9080   23.6347 C   0  0  0  0  0  0
  -16.7305  -28.6501   23.0366 C   0  0  0  0  0  0
  -26.4561  -31.6540   25.0709 C   0  0  0  0  0  0
  -25.3694  -31.3785   26.1370 C   0  0  0  0  0  0
  -27.0456  -30.2909   24.6427 C   0  0  0  0  0  0
  -27.6056  -32.4345   25.7512 C   0  0  0  0  0  0
  -27.5575  -37.1753   24.8459 C   0  0  0  0  0  0
  -21.4330  -29.3040   22.3540 N   0  0  0  0  0  0
  -26.4272  -37.3712   23.9419 N   0  0  0  0  0  0
  -24.7469  -30.9957   22.0863 N   0  0  0  0  0  0
  -23.4220  -28.8024   23.3021 O   0  0  0  0  0  0
  -28.2006  -25.8407   20.2764 O   0  0  0  0  0  0
  -26.5697  -34.8886   22.4611 O   0  0  0  0  0  0
  -23.5686  -32.1221   23.6851 O   0  0  0  0  0  0
  -28.7323  -20.3804   21.5001 C   0  0  0  0  0  0
  -29.3320  -19.6285   20.4193 C   0  0  0  0  0  0
  -28.3700  -21.8222   21.4286 C   0  0  0  0  0  0
  -29.5211  -20.5600   19.3579 C   0  0  0  0  0  0
  -28.5867  -22.7061   20.2818 C   0  0  0  0  0  0
  -30.2628  -19.8273   18.2583 C   0  0  0  0  0  0
  -30.3792  -18.3087   18.6714 C   0  0  0  0  0  0
  -30.0614  -18.0919   20.1828 C   0  0  2  0  0  0
  -27.6859  -22.4101   22.6504 C   0  0  0  0  0  0
  -27.8467  -24.2684   19.9973 C   0  0  0  0  0  0
  -29.1769  -21.9401   19.2621 N   0  0  0  0  0  0
  -29.7155  -16.4920   20.4576 N   0  0  0  0  0  0
  -31.4619  -12.9606   19.2047 H   0  0  0  0  0  0
  -30.4843  -11.8609   20.1254 H   0  0  0  0  0  0
  -29.9059  -11.7465   17.6757 H   0  0  0  0  0  0
  -29.5792  -13.4624   17.6575 H   0  0  0  0  0  0
  -28.0230  -11.2796   19.0678 H   0  0  0  0  0  0
  -27.4143  -12.3681   17.8466 H   0  0  0  0  0  0
  -27.5366  -14.2475   19.3392 H   0  0  0  0  0  0
  -28.8025  -12.4922   21.4963 H   0  0  0  0  0  0
  -28.2980  -14.1547   21.6996 H   0  0  0  0  0  0
  -25.2781   -9.5685   22.4766 H   0  0  0  0  0  0
  -24.0014   -7.4638   22.7474 H   0  0  0  0  0  0
  -21.0861   -8.8792   19.8950 H   0  0  0  0  0  0
  -22.3728  -10.9682   19.6169 H   0  0  0  0  0  0
  -21.2011   -7.6153   23.9722 H   0  0  0  0  0  0
  -21.1480   -6.0521   25.9079 H   0  0  0  0  0  0
  -22.0596   -2.7615   23.2838 H   0  0  0  0  0  0
  -22.4043  -11.9849   22.4854 H   0  0  0  0  0  0
  -21.1027  -13.1190   22.2647 H   0  0  0  0  0  0
  -24.6309  -15.8469   20.5345 H   0  0  0  0  0  0
  -26.2394  -15.6418   20.0631 H   0  0  0  0  0  0
  -26.7370  -32.5154   23.0909 H   0  0  0  0  0  0
  -25.0094  -33.9502   25.0229 H   0  0  0  0  0  0
  -22.7862  -31.2714   21.3550 H   0  0  0  0  0  0
  -23.3770  -35.9518   23.3268 H   0  0  0  0  0  0
  -24.3572  -36.8884   22.2063 H   0  0  0  0  0  0
  -23.7224  -37.6377   23.6716 H   0  0  0  0  0  0
  -26.2207  -31.3858   20.6240 H   0  0  0  0  0  0
  -26.9038  -30.6976   22.0556 H   0  0  0  0  0  0
  -28.1446  -28.6146   21.2869 H   0  0  0  0  0  0
  -25.8705  -25.7610   18.9881 H   0  0  0  0  0  0
  -24.0018  -27.2835   18.9458 H   0  0  0  0  0  0
  -23.8644  -30.5292   19.3902 H   0  0  0  0  0  0
  -22.8233  -29.2114   19.8309 H   0  0  0  0  0  0
  -25.1322  -36.1770   25.0792 H   0  0  0  0  0  0
  -21.0040  -28.3349   24.1314 H   0  0  0  0  0  0
  -20.5682  -26.2360   23.3636 H   0  0  0  0  0  0
  -21.6661  -26.7408   22.1204 H   0  0  0  0  0  0
  -19.6925  -25.6279   21.1270 H   0  0  0  0  0  0
  -19.6709  -27.3166   20.6723 H   0  0  0  0  0  0
  -17.4223  -26.6687   21.4030 H   0  0  0  0  0  0
  -18.0351  -26.0094   22.9033 H   0  0  0  0  0  0
  -19.7966  -30.7327   24.2193 H   0  0  0  0  0  0
  -17.5033  -31.6271   24.5163 H   0  0  0  0  0  0
  -15.5373  -30.2962   23.7699 H   0  0  0  0  0  0
  -15.8708  -28.0802   22.7106 H   0  0  0  0  0  0
  -24.5892  -30.7113   25.7686 H   0  0  0  0  0  0
  -24.8861  -32.2982   26.4673 H   0  0  0  0  0  0
  -25.7932  -30.9038   27.0227 H   0  0  0  0  0  0
  -26.3122  -29.6592   24.1402 H   0  0  0  0  0  0
  -27.3960  -29.7263   25.5078 H   0  0  0  0  0  0
  -27.9076  -30.4098   23.9860 H   0  0  0  0  0  0
  -27.2626  -33.3685   26.1976 H   0  0  0  0  0  0
  -28.3928  -32.6845   25.0387 H   0  0  0  0  0  0
  -28.0658  -31.8546   26.5521 H   0  0  0  0  0  0
  -28.2546  -38.0095   24.7558 H   0  0  0  0  0  0
  -28.1119  -36.2624   24.6222 H   0  0  0  0  0  0
  -27.2301  -37.1317   25.8862 H   0  0  0  0  0  0
  -20.9579  -29.8720   21.6663 H   0  0  0  0  0  0
  -26.0119  -38.2764   24.1460 H   0  0  0  0  0  0
  -28.5491  -19.8537   22.4260 H   0  0  0  0  0  0
  -31.2550  -20.2682   18.1598 H   0  0  0  0  0  0
  -29.7540  -19.9434   17.3011 H   0  0  0  0  0  0
  -31.3357  -17.8743   18.3794 H   0  0  0  0  0  0
  -29.6200  -17.7723   18.1012 H   0  0  0  0  0  0
  -31.0036  -18.2134   20.7195 H   0  0  0  0  0  0
  -28.0526  -21.9432   23.5656 H   0  0  0  0  0  0
  -26.6084  -22.2512   22.5965 H   0  0  0  0  0  0
  -27.8701  -23.4816   22.7354 H   0  0  0  0  0  0
  -26.8623  -24.1468   20.4495 H   0  0  0  0  0  0
  -27.6470  -24.2460   18.9260 H   0  0  0  0  0  0
  -28.7381  -16.3337   20.6530 H   0  0  0  0  0  0
  1 25  1  0  0  0
  1 30  2  0  0  0
  1 82  1  0  0  0
  2  3  1  0  0  0
  2 25  1  0  0  0
  2 83  1  0  0  0
  2 84  1  0  0  0
  3  4  1  0  0  0
  3 85  1  0  0  0
  3 86  1  0  0  0
  4  5  1  0  0  0
  4 87  1  0  0  0
  4 88  1  0  0  0
  5  6  1  0  0  0
  5 26  1  0  0  0
  5 89  1  0  0  0
  6 25  1  0  0  0
  6 90  1  0  0  0
  6 91  1  0  0  0
  7  8  2  0  0  0
  7 26  1  0  0  0
  7 29  1  0  0  0
  8  9  1  0  0  0
  8 22  1  0  0  0
  9 10  1  0  0  0
  9 27  2  0  0  0
 10 11  2  0  0  0
 10 15  1  0  0  0
 11 12  1  0  0  0
 11 92  1  0  0  0
 12 13  2  0  0  0
 12 93  1  0  0  0
 13 14  1  0  0  0
 13 31  1  0  0  0
 14 15  2  0  0  0
 14 94  1  0  0  0
 15 95  1  0  0  0
 16 17  2  0  0  0
 16 21  1  0  0  0
 16 31  1  0  0  0
 17 18  1  0  0  0
 17 96  1  0  0  0
 18 19  2  0  0  0
 18 97  1  0  0  0
 19 20  1  0  0  0
 19 24  1  0  0  0
 20 21  2  0  0  0
 20 98  1  0  0  0
 21 23  1  0  0  0
 22 28  1  0  0  0
 22 32  2  0  0  0
 26 27  1  0  0  0
 28 99  1  0  0  0
 28100  1  0  0  0
 29101  1  0  0  0
 29102  1  0  0  0
 33 34  1  0  0  0
 33 66  1  0  0  0
 33 70  2  0  0  0
 34 36  1  0  0  0
 34 59  1  0  0  0
 34103  1  0  0  0
 35 44  2  0  0  0
 35 45  1  0  0  0
 35 68  1  0  0  0
 36 56  1  0  0  0
 36104  1  0  0  0
 37 39  1  0  0  0
 37 47  1  0  0  0
 37 66  1  0  0  0
 37105  1  0  0  0
 38 43  2  0  0  0
 38 46  1  0  0  0
 38 47  1  0  0  0
 39 64  1  0  0  0
 39 67  2  0  0  0
 40 52  1  0  0  0
 40 53  2  0  0  0
 40 58  1  0  0  0
 41106  1  0  0  0
 41107  1  0  0  0
 41108  1  0  0  0
 41 48  1  0  0  0
 42 43  1  0  0  0
 42 66  1  0  0  0
 42109  1  0  0  0
 42110  1  0  0  0
 43 44  1  0  0  0
 44111  1  0  0  0
 45 46  2  0  0  0
 45112  1  0  0  0
 46113  1  0  0  0
 47114  1  0  0  0
 47115  1  0  0  0
 48 56  1  0  0  0
 48 65  1  0  0  0
 48116  1  0  0  0
 49 50  1  0  0  0
 49 53  1  0  0  0
 49 64  1  0  0  0
 49117  1  0  0  0
 50 51  1  0  0  0
 50118  1  0  0  0
 50119  1  0  0  0
 51 52  1  0  0  0
 51120  1  0  0  0
 51121  1  0  0  0
 52122  1  0  0  0
 52123  1  0  0  0
 53 54  1  0  0  0
 54 55  2  0  0  0
 54124  1  0  0  0
 55 57  1  0  0  0
 55125  1  0  0  0
 56 69  2  0  0  0
 57 58  2  0  0  0
 57126  1  0  0  0
 58127  1  0  0  0
 59 60  1  0  0  0
 59 61  1  0  0  0
 59 62  1  0  0  0
 60128  1  0  0  0
 60129  1  0  0  0
 60130  1  0  0  0
 61131  1  0  0  0
 61132  1  0  0  0
 61133  1  0  0  0
 62134  1  0  0  0
 62135  1  0  0  0
 62136  1  0  0  0
 63 65  1  0  0  0
 63137  1  0  0  0
 63138  1  0  0  0
 63139  1  0  0  0
 64140  1  0  0  0
 65141  1  0  0  0
 68 80  1  0  0  0
 71 72  2  0  0  0
 71 73  1  0  0  0
 71142  1  0  0  0
 72 74  1  0  0  0
 72 78  1  0  0  0
 73 75  2  0  0  0
 73 79  1  0  0  0
 74 76  1  0  0  0
 74 81  2  0  0  0
 75 80  1  0  0  0
 75 81  1  0  0  0
 76 77  1  0  0  0
 76143  1  0  0  0
 76144  1  0  0  0
 77 78  1  0  0  0
 77145  1  0  0  0
 77146  1  0  0  0
 78 82  1  0  0  0
 78147  1  0  0  0
 79148  1  0  0  0
 79149  1  0  0  0
 79150  1  0  0  0
 80151  1  0  0  0
 80152  1  0  0  0
 82153  1  0  0  0
M  ISO  4   1 100  68 101  80 101  82 100
M  END
> <chiral flag>
0

> <version>
0

> <s_m_source_file>
/data/baiqing/PycharmProjects/Reinvent-master-3.2/result/LINK_invent/BTK/process_docking_weight1_custom_sum_contain_oxygen_bond_distance_aromatic_linkinvent_7_9_3/rearranged_h_0182.sdf

> <i_m_source_file_index>
24

> <r_mmod_Potential_Energy-OPLS-2005>
1026.96789550781

> <r_mmod_Stretch_Energy-OPLS-2005>
470.087615966797

> <r_mmod_Bend_Energy-OPLS-2005>
477.464050292969

> <r_mmod_Torsional_Energy-OPLS-2005>
225.975433349609

> <r_mmod_Improper_Torsional_Energy-OPLS-2005>
8.75630760192871

> <r_mmod_Van_der_Waal_Energy-OPLS-2005>
127.280113220215

> <r_mmod_Electrostatic_Energy-OPLS-2005>
-469.146209716797

> <r_mmod_Solvation_Energy-OPLS-2005>
-231.700561523438

> <b_mmod_Minimization_Converged-OPLS-2005>
0

> <r_mmod_RMS_Derivative-OPLS-2005>
0.602071106433868

$$$$
24
                    3D
 Structure written by MMmdl.
154163  0  0  1  0            999 V2000
  -30.6025  -14.7745   20.4735 C   0  0  0  0  0  0
  -30.4325  -12.4784   19.4777 C   0  0  0  0  0  0
  -29.5094  -12.5181   18.2392 C   0  0  0  0  0  0
  -28.0345  -12.3411   18.6515 C   0  0  0  0  0  0
  -27.6414  -13.2337   19.8594 C   0  0  2  0  0  0
  -28.6876  -13.1503   20.9912 C   0  0  0  0  0  0
  -25.2504  -13.8204   20.5730 C   0  0  0  0  0  0
  -24.1791  -13.0442   20.9209 C   0  0  0  0  0  0
  -24.6385  -11.6923   20.8746 C   0  0  0  0  0  0
  -23.9065  -10.4299   21.0402 C   0  0  0  0  0  0
  -24.3618   -9.4215   21.9178 C   0  0  0  0  0  0
  -23.6296   -8.2248   22.0753 C   0  0  0  0  0  0
  -22.4277   -8.0279   21.3545 C   0  0  0  0  0  0
  -21.9910   -9.0253   20.4648 C   0  0  0  0  0  0
  -22.7235  -10.2134   20.3055 C   0  0  0  0  0  0
  -21.6856   -6.0734   22.5279 C   0  0  0  0  0  0
  -21.4013   -6.5641   23.8212 C   0  0  0  0  0  0
  -21.3661   -5.6796   24.9174 C   0  0  0  0  0  0
  -21.6044   -4.3055   24.7223 C   0  0  0  0  0  0
  -21.8822   -3.8148   23.4347 C   0  0  0  0  0  0
  -21.9194   -4.6964   22.3402 C   0  0  0  0  0  0
  -22.7815  -13.5220   21.1867 C   0  0  0  0  0  0
  -22.1664   -4.2150   21.0980 F   0  0  0  0  0  0
  -21.5631   -3.4538   25.7735 F   0  0  0  0  0  0
  -29.9763  -13.5422   20.4082 N   0  0  0  0  0  0
  -26.2935  -12.9415   20.3338 N   0  0  0  0  0  0
  -25.9319  -11.6550   20.5768 N   0  0  0  0  0  0
  -22.0464  -12.8211   22.0424 N   0  0  0  0  0  0
  -25.4201  -15.1929   20.4184 N   0  0  0  0  0  0
  -31.7795  -14.8505   20.1013 O   0  0  0  0  0  0
  -21.6645   -6.8873   21.4239 O   0  0  0  0  0  0
  -22.3495  -14.5521   20.6707 O   0  0  0  0  0  0
  -24.6330  -31.8516   23.1938 C   0  0  0  0  0  0
  -25.9151  -32.4731   23.8292 C   0  0  1  0  0  0
  -27.2221  -27.2370   20.1244 C   0  0  0  0  0  0
  -25.5942  -33.8534   24.2218 N   0  0  0  0  0  0
  -23.4302  -30.4725   21.5377 C   0  0  2  0  0  0
  -24.8764  -28.9130   20.1041 C   0  0  0  0  0  0
  -22.7508  -29.4584   22.4894 C   0  0  0  0  0  0
  -18.0292  -28.1388   22.8483 C   0  0  0  0  0  0
  -24.1492  -36.7266   23.2639 C   0  0  0  0  0  0
  -25.9768  -30.7560   21.3759 C   0  0  0  0  0  0
  -26.0466  -29.3768   20.7154 C   0  0  0  0  0  0
  -27.2169  -28.5500   20.7151 C   0  0  0  0  0  0
  -26.0242  -26.8390   19.4908 C   0  0  0  0  0  0
  -24.8720  -27.6536   19.4815 C   0  0  0  0  0  0
  -23.6473  -29.8024   20.1538 C   0  0  0  0  0  0
  -25.4122  -36.3051   24.0320 C   0  0  1  0  0  0
  -20.5897  -28.3703   23.1258 C   0  0  2  0  0  0
  -20.6777  -26.9418   22.5407 C   0  0  0  0  0  0
  -19.5756  -26.6382   21.5210 C   0  0  0  0  0  0
  -18.1935  -26.7931   22.1621 C   0  0  0  0  0  0
  -19.1547  -28.8865   23.2862 C   0  0  0  0  0  0
  -18.9468  -30.1462   23.8882 C   0  0  0  0  0  0
  -17.6468  -30.6589   24.0565 C   0  0  0  0  0  0
  -25.9063  -34.9426   23.5075 C   0  0  0  0  0  0
  -16.5357  -29.9087   23.6334 C   0  0  0  0  0  0
  -16.7279  -28.6505   23.0352 C   0  0  0  0  0  0
  -26.4509  -31.6572   25.0698 C   0  0  0  0  0  0
  -25.3726  -31.3743   26.1416 C   0  0  0  0  0  0
  -27.0347  -30.2977   24.6209 C   0  0  0  0  0  0
  -27.6048  -32.4333   25.7479 C   0  0  0  0  0  0
  -27.5577  -37.1791   24.8465 C   0  0  0  0  0  0
  -21.4212  -29.3040   22.3639 N   0  0  0  0  0  0
  -26.4291  -37.3758   23.9409 N   0  0  0  0  0  0
  -24.6994  -31.0462   22.0920 N   0  0  0  0  0  0
  -23.4199  -28.8130   23.3006 O   0  0  0  0  0  0
  -28.3319  -26.3590   20.2249 O   0  0  0  0  0  0
  -26.5639  -34.8917   22.4645 O   0  0  0  0  0  0
  -23.5480  -32.1345   23.7227 O   0  0  0  0  0  0
  -29.1223  -22.4009   19.8559 C   0  0  0  0  0  0
  -27.3509  -22.2312   21.7969 C   0  0  0  0  0  0
  -28.4006  -23.5917   20.2656 C   0  0  0  0  0  0
  -28.8856  -21.1270   20.4882 C   0  0  0  0  0  0
  -29.1138  -17.9352   21.8702 C   0  0  0  0  0  0
  -29.0941  -16.3737   21.7799 C   0  0  0  0  0  0
  -30.0858  -17.2593   19.8498 C   0  0  0  0  0  0
  -29.1710  -18.4374   20.4250 C   0  0  2  0  0  0
  -28.4670  -25.0208   19.5300 C   0  0  0  0  0  0
  -27.5106  -23.4484   21.2669 N   0  0  0  0  0  0
  -27.9671  -21.0909   21.4621 N   0  0  0  0  0  0
  -29.8419  -15.9522   20.5816 N   0  0  0  0  0  0
  -29.5852  -19.8891   20.1849 N   0  0  0  0  0  0
  -31.4719  -12.6078   19.1709 H   0  0  0  0  0  0
  -30.3888  -11.5011   19.9607 H   0  0  0  0  0  0
  -29.7956  -11.7422   17.5276 H   0  0  0  0  0  0
  -29.6307  -13.4701   17.7209 H   0  0  0  0  0  0
  -27.8902  -11.2912   18.9075 H   0  0  0  0  0  0
  -27.3768  -12.5392   17.8044 H   0  0  0  0  0  0
  -27.6401  -14.2600   19.4912 H   0  0  0  0  0  0
  -28.7383  -12.1377   21.3950 H   0  0  0  0  0  0
  -28.4156  -13.7850   21.8324 H   0  0  0  0  0  0
  -25.2762   -9.5697   22.4752 H   0  0  0  0  0  0
  -24.0013   -7.4641   22.7473 H   0  0  0  0  0  0
  -21.0842   -8.8766   19.8952 H   0  0  0  0  0  0
  -22.3686  -10.9673   19.6169 H   0  0  0  0  0  0
  -21.2003   -7.6150   23.9714 H   0  0  0  0  0  0
  -21.1479   -6.0523   25.9077 H   0  0  0  0  0  0
  -22.0595   -2.7610   23.2844 H   0  0  0  0  0  0
  -22.4080  -11.9876   22.4822 H   0  0  0  0  0  0
  -21.1085  -13.1238   22.2629 H   0  0  0  0  0  0
  -24.6569  -15.8488   20.5437 H   0  0  0  0  0  0
  -26.2807  -15.6366   20.1243 H   0  0  0  0  0  0
  -26.7215  -32.5361   23.1023 H   0  0  0  0  0  0
  -25.0105  -33.9669   25.0378 H   0  0  0  0  0  0
  -22.7281  -31.2958   21.3893 H   0  0  0  0  0  0
  -23.3758  -35.9596   23.3300 H   0  0  0  0  0  0
  -24.3580  -36.8887   22.2053 H   0  0  0  0  0  0
  -23.7244  -37.6465   23.6669 H   0  0  0  0  0  0
  -26.1220  -31.5171   20.6077 H   0  0  0  0  0  0
  -26.8526  -30.8011   22.0122 H   0  0  0  0  0  0
  -28.1119  -28.9003   21.2099 H   0  0  0  0  0  0
  -25.9335  -25.8661   19.0341 H   0  0  0  0  0  0
  -23.9724  -27.2897   19.0043 H   0  0  0  0  0  0
  -23.7697  -30.5774   19.3962 H   0  0  0  0  0  0
  -22.7644  -29.2357   19.8518 H   0  0  0  0  0  0
  -25.1309  -36.1883   25.0814 H   0  0  0  0  0  0
  -20.9995  -28.3285   24.1377 H   0  0  0  0  0  0
  -20.5664  -26.2318   23.3614 H   0  0  0  0  0  0
  -21.6644  -26.7430   22.1207 H   0  0  0  0  0  0
  -19.6913  -25.6289   21.1247 H   0  0  0  0  0  0
  -19.6691  -27.3187   20.6736 H   0  0  0  0  0  0
  -17.4202  -26.6677   21.4025 H   0  0  0  0  0  0
  -18.0334  -26.0075   22.9019 H   0  0  0  0  0  0
  -19.7945  -30.7282   24.2243 H   0  0  0  0  0  0
  -17.5022  -31.6271   24.5164 H   0  0  0  0  0  0
  -15.5354  -30.2982   23.7669 H   0  0  0  0  0  0
  -15.8680  -28.0819   22.7072 H   0  0  0  0  0  0
  -24.5925  -30.7055   25.7762 H   0  0  0  0  0  0
  -24.8889  -32.2913   26.4787 H   0  0  0  0  0  0
  -25.8043  -30.8975   27.0223 H   0  0  0  0  0  0
  -26.2929  -29.6728   24.1219 H   0  0  0  0  0  0
  -27.3985  -29.7245   25.4745 H   0  0  0  0  0  0
  -27.8833  -30.4224   23.9480 H   0  0  0  0  0  0
  -27.2639  -33.3651   26.2006 H   0  0  0  0  0  0
  -28.3883  -32.6862   25.0325 H   0  0  0  0  0  0
  -28.0687  -31.8490   26.5432 H   0  0  0  0  0  0
  -28.2595  -38.0087   24.7503 H   0  0  0  0  0  0
  -28.1069  -36.2614   24.6302 H   0  0  0  0  0  0
  -27.2293  -37.1453   25.8868 H   0  0  0  0  0  0
  -20.9399  -29.8761   21.6838 H   0  0  0  0  0  0
  -26.0155  -38.2829   24.1408 H   0  0  0  0  0  0
  -29.8373  -22.4762   19.0477 H   0  0  0  0  0  0
  -26.6248  -22.1572   22.5923 H   0  0  0  0  0  0
  -30.0071  -18.2544   22.4098 H   0  0  0  0  0  0
  -28.2501  -18.3249   22.4105 H   0  0  0  0  0  0
  -28.0630  -16.0337   21.6791 H   0  0  0  0  0  0
  -29.5001  -15.9217   22.6865 H   0  0  0  0  0  0
  -31.1392  -17.5175   19.9721 H   0  0  0  0  0  0
  -29.9164  -17.1220   18.7812 H   0  0  0  0  0  0
  -28.1723  -18.3220   19.9995 H   0  0  0  0  0  0
  -27.8173  -24.9719   18.6583 H   0  0  0  0  0  0
  -29.4653  -25.0539   19.0938 H   0  0  0  0  0  0
  -30.3046  -19.9964   19.4771 H   0  0  0  0  0  0
  1 25  1  0  0  0
  1 30  2  0  0  0
  1 82  1  0  0  0
  2  3  1  0  0  0
  2 25  1  0  0  0
  2 84  1  0  0  0
  2 85  1  0  0  0
  3  4  1  0  0  0
  3 86  1  0  0  0
  3 87  1  0  0  0
  4  5  1  0  0  0
  4 88  1  0  0  0
  4 89  1  0  0  0
  5  6  1  0  0  0
  5 26  1  0  0  0
  5 90  1  0  0  0
  6 25  1  0  0  0
  6 91  1  0  0  0
  6 92  1  0  0  0
  7  8  2  0  0  0
  7 26  1  0  0  0
  7 29  1  0  0  0
  8  9  1  0  0  0
  8 22  1  0  0  0
  9 10  1  0  0  0
  9 27  2  0  0  0
 10 11  2  0  0  0
 10 15  1  0  0  0
 11 12  1  0  0  0
 11 93  1  0  0  0
 12 13  2  0  0  0
 12 94  1  0  0  0
 13 14  1  0  0  0
 13 31  1  0  0  0
 14 15  2  0  0  0
 14 95  1  0  0  0
 15 96  1  0  0  0
 16 17  2  0  0  0
 16 21  1  0  0  0
 16 31  1  0  0  0
 17 18  1  0  0  0
 17 97  1  0  0  0
 18 19  2  0  0  0
 18 98  1  0  0  0
 19 20  1  0  0  0
 19 24  1  0  0  0
 20 21  2  0  0  0
 20 99  1  0  0  0
 21 23  1  0  0  0
 22 28  1  0  0  0
 22 32  2  0  0  0
 26 27  1  0  0  0
 28100  1  0  0  0
 28101  1  0  0  0
 29102  1  0  0  0
 29103  1  0  0  0
 33 34  1  0  0  0
 33 66  1  0  0  0
 33 70  2  0  0  0
 34 36  1  0  0  0
 34 59  1  0  0  0
 34104  1  0  0  0
 35 44  2  0  0  0
 35 45  1  0  0  0
 35 68  1  0  0  0
 36 56  1  0  0  0
 36105  1  0  0  0
 37 39  1  0  0  0
 37 47  1  0  0  0
 37 66  1  0  0  0
 37106  1  0  0  0
 38 43  2  0  0  0
 38 46  1  0  0  0
 38 47  1  0  0  0
 39 64  1  0  0  0
 39 67  2  0  0  0
 40 52  1  0  0  0
 40 53  2  0  0  0
 40 58  1  0  0  0
 41107  1  0  0  0
 41108  1  0  0  0
 41109  1  0  0  0
 41 48  1  0  0  0
 42 43  1  0  0  0
 42 66  1  0  0  0
 42110  1  0  0  0
 42111  1  0  0  0
 43 44  1  0  0  0
 44112  1  0  0  0
 45 46  2  0  0  0
 45113  1  0  0  0
 46114  1  0  0  0
 47115  1  0  0  0
 47116  1  0  0  0
 48 56  1  0  0  0
 48 65  1  0  0  0
 48117  1  0  0  0
 49 50  1  0  0  0
 49 53  1  0  0  0
 49 64  1  0  0  0
 49118  1  0  0  0
 50 51  1  0  0  0
 50119  1  0  0  0
 50120  1  0  0  0
 51 52  1  0  0  0
 51121  1  0  0  0
 51122  1  0  0  0
 52123  1  0  0  0
 52124  1  0  0  0
 53 54  1  0  0  0
 54 55  2  0  0  0
 54125  1  0  0  0
 55 57  1  0  0  0
 55126  1  0  0  0
 56 69  2  0  0  0
 57 58  2  0  0  0
 57127  1  0  0  0
 58128  1  0  0  0
 59 60  1  0  0  0
 59 61  1  0  0  0
 59 62  1  0  0  0
 60129  1  0  0  0
 60130  1  0  0  0
 60131  1  0  0  0
 61132  1  0  0  0
 61133  1  0  0  0
 61134  1  0  0  0
 62135  1  0  0  0
 62136  1  0  0  0
 62137  1  0  0  0
 63 65  1  0  0  0
 63138  1  0  0  0
 63139  1  0  0  0
 63140  1  0  0  0
 64141  1  0  0  0
 65142  1  0  0  0
 68 79  1  0  0  0
 71 73  2  0  0  0
 71 74  1  0  0  0
 71143  1  0  0  0
 72 80  2  0  0  0
 72 81  1  0  0  0
 72144  1  0  0  0
 73 79  1  0  0  0
 73 80  1  0  0  0
 74 81  2  0  0  0
 74 83  1  0  0  0
 75 76  1  0  0  0
 75 78  1  0  0  0
 75145  1  0  0  0
 75146  1  0  0  0
 76 82  1  0  0  0
 76147  1  0  0  0
 76148  1  0  0  0
 77 78  1  0  0  0
 77 82  1  0  0  0
 77149  1  0  0  0
 77150  1  0  0  0
 78 83  1  0  0  0
 78151  1  0  0  0
 79152  1  0  0  0
 79153  1  0  0  0
 83154  1  0  0  0
M  ISO  4   1 100  68 101  79 101  82 100
M  END
> <chiral flag>
0

> <version>
0

> <s_m_source_file>
/data/baiqing/PycharmProjects/Reinvent-master-3.2/result/LINK_invent/BTK/process_docking_weight1_custom_sum_contain_oxygen_bond_distance_aromatic_linkinvent_7_9_3/rearranged_h_0182.sdf

> <i_m_source_file_index>
25

> <r_mmod_Potential_Energy-OPLS-2005>
-145.741714477539

> <r_mmod_Stretch_Energy-OPLS-2005>
125.909324645996

> <r_mmod_Bend_Energy-OPLS-2005>
229.370635986328

> <r_mmod_Torsional_Energy-OPLS-2005>
301.350402832031

> <r_mmod_Improper_Torsional_Energy-OPLS-2005>
13.5937643051147

> <r_mmod_Van_der_Waal_Energy-OPLS-2005>
137.006988525391

> <r_mmod_Electrostatic_Energy-OPLS-2005>
-805.532409667969

> <r_mmod_Solvation_Energy-OPLS-2005>
-242.470352172852

> <b_mmod_Minimization_Converged-OPLS-2005>
0

> <r_mmod_RMS_Derivative-OPLS-2005>
1.0029958486557

$$$$
25
                    3D
 Structure written by MMmdl.
161170  0  0  1  0            999 V2000
  -30.6617  -14.6151   20.5020 C   0  0  0  0  0  0
  -30.4329  -12.3841   19.4413 C   0  0  0  0  0  0
  -29.5029  -12.5045   18.2143 C   0  0  0  0  0  0
  -28.0257  -12.3471   18.6271 C   0  0  0  0  0  0
  -27.6490  -13.2168   19.8566 C   0  0  2  0  0  0
  -28.6990  -13.0900   20.9837 C   0  0  0  0  0  0
  -25.2550  -13.8170   20.5687 C   0  0  0  0  0  0
  -24.1820  -13.0430   20.9194 C   0  0  0  0  0  0
  -24.6392  -11.6907   20.8728 C   0  0  0  0  0  0
  -23.9062  -10.4289   21.0390 C   0  0  0  0  0  0
  -24.3618   -9.4214   21.9166 C   0  0  0  0  0  0
  -23.6311   -8.2234   22.0738 C   0  0  0  0  0  0
  -22.4293   -8.0268   21.3535 C   0  0  0  0  0  0
  -21.9929   -9.0224   20.4631 C   0  0  0  0  0  0
  -22.7239  -10.2104   20.3040 C   0  0  0  0  0  0
  -21.6850   -6.0729   22.5284 C   0  0  0  0  0  0
  -21.3989   -6.5641   23.8210 C   0  0  0  0  0  0
  -21.3658   -5.6793   24.9174 C   0  0  0  0  0  0
  -21.6052   -4.3059   24.7228 C   0  0  0  0  0  0
  -21.8809   -3.8147   23.4346 C   0  0  0  0  0  0
  -21.9187   -4.6957   22.3403 C   0  0  0  0  0  0
  -22.7847  -13.5227   21.1844 C   0  0  0  0  0  0
  -22.1657   -4.2134   21.0989 F   0  0  0  0  0  0
  -21.5654   -3.4548   25.7744 F   0  0  0  0  0  0
  -30.0122  -13.4148   20.4080 N   0  0  0  0  0  0
  -26.2965  -12.9348   20.3292 N   0  0  0  0  0  0
  -25.9312  -11.6503   20.5718 N   0  0  0  0  0  0
  -22.0484  -12.8226   22.0382 N   0  0  0  0  0  0
  -25.4278  -15.1881   20.4157 N   0  0  0  0  0  0
  -31.8412  -14.7440   20.1676 O   0  0  0  0  0  0
  -21.6642   -6.8874   21.4251 O   0  0  0  0  0  0
  -22.3549  -14.5525   20.6669 O   0  0  0  0  0  0
  -24.6218  -31.8624   23.2047 C   0  0  0  0  0  0
  -25.9093  -32.4801   23.8358 C   0  0  1  0  0  0
  -27.2194  -27.3766   20.0960 C   0  0  0  0  0  0
  -25.5946  -33.8599   24.2285 N   0  0  0  0  0  0
  -23.4123  -30.4859   21.5449 C   0  0  2  0  0  0
  -24.8604  -28.9533   20.1048 C   0  0  0  0  0  0
  -22.7451  -29.4613   22.4938 C   0  0  0  0  0  0
  -18.0261  -28.1375   22.8476 C   0  0  0  0  0  0
  -24.1490  -36.7305   23.2624 C   0  0  0  0  0  0
  -25.9488  -30.8146   21.3638 C   0  0  0  0  0  0
  -26.0270  -29.4458   20.7065 C   0  0  0  0  0  0
  -27.2167  -28.6652   20.6980 C   0  0  0  0  0  0
  -26.0402  -26.9275   19.4664 C   0  0  0  0  0  0
  -24.8652  -27.6990   19.4778 C   0  0  0  0  0  0
  -23.6229  -29.8225   20.1584 C   0  0  0  0  0  0
  -25.4109  -36.3090   24.0313 C   0  0  1  0  0  0
  -20.5870  -28.3662   23.1314 C   0  0  2  0  0  0
  -20.6761  -26.9400   22.5412 C   0  0  0  0  0  0
  -19.5749  -26.6390   21.5204 C   0  0  0  0  0  0
  -18.1916  -26.7930   22.1602 C   0  0  0  0  0  0
  -19.1517  -28.8838   23.2897 C   0  0  0  0  0  0
  -18.9442  -30.1439   23.8904 C   0  0  0  0  0  0
  -17.6453  -30.6596   24.0534 C   0  0  0  0  0  0
  -25.9051  -34.9468   23.5088 C   0  0  0  0  0  0
  -16.5343  -29.9076   23.6327 C   0  0  0  0  0  0
  -16.7255  -28.6494   23.0351 C   0  0  0  0  0  0
  -26.4504  -31.6601   25.0713 C   0  0  0  0  0  0
  -25.3760  -31.3720   26.1458 C   0  0  0  0  0  0
  -27.0317  -30.3021   24.6128 C   0  0  0  0  0  0
  -27.6074  -32.4315   25.7499 C   0  0  0  0  0  0
  -27.5593  -37.1779   24.8433 C   0  0  0  0  0  0
  -21.4163  -29.3026   22.3723 N   0  0  0  0  0  0
  -26.4261  -37.3815   23.9443 N   0  0  0  0  0  0
  -24.6793  -31.0691   22.0964 N   0  0  0  0  0  0
  -23.4225  -28.8142   23.2964 O   0  0  0  0  0  0
  -28.2988  -26.5066   20.1395 O   0  0  0  0  0  0
  -26.5586  -34.8935   22.4632 O   0  0  0  0  0  0
  -23.5400  -32.1396   23.7410 O   0  0  0  0  0  0
  -29.8382  -22.4672   19.4145 C   0  0  0  0  0  0
  -29.7708  -21.4455   20.4079 C   0  0  0  0  0  0
  -28.5778  -22.9371   21.7405 C   0  0  0  0  0  0
  -28.6811  -23.9747   20.7608 C   0  0  0  0  0  0
  -29.9828  -16.5881   21.9076 C   0  0  0  0  0  0
  -29.3160  -16.4861   19.5652 C   0  0  0  0  0  0
  -30.5659  -18.0272   21.6708 C   0  0  0  0  0  0
  -29.9322  -17.9025   19.3296 C   0  0  0  0  0  0
  -27.8688  -23.1733   23.0600 C   0  0  0  0  0  0
  -30.5962  -20.1290   20.2772 C   0  0  0  0  0  0
  -28.0539  -25.3783   21.0350 C   0  0  0  0  0  0
  -29.3016  -23.7156   19.5797 N   0  0  0  0  0  0
  -29.1170  -21.6913   21.5715 N   0  0  0  0  0  0
  -29.8843  -15.7300   20.7053 N   0  0  0  0  0  0
  -29.9451  -18.7833   20.5373 N   0  3  0  0  0  0
  -31.4738  -12.5054   19.1357 H   0  0  0  0  0  0
  -30.3653  -11.3890   19.8864 H   0  0  0  0  0  0
  -29.7669  -11.7526   17.4690 H   0  0  0  0  0  0
  -29.6475  -13.4724   17.7323 H   0  0  0  0  0  0
  -27.8571  -11.2946   18.8571 H   0  0  0  0  0  0
  -27.3720  -12.5775   17.7851 H   0  0  0  0  0  0
  -27.6564  -14.2468   19.5107 H   0  0  0  0  0  0
  -28.7091  -12.0765   21.3892 H   0  0  0  0  0  0
  -28.4560  -13.7516   21.8173 H   0  0  0  0  0  0
  -25.2737   -9.5702   22.4760 H   0  0  0  0  0  0
  -24.0015   -7.4636   22.7449 H   0  0  0  0  0  0
  -21.0851   -8.8723   19.8958 H   0  0  0  0  0  0
  -22.3670  -10.9634   19.6159 H   0  0  0  0  0  0
  -21.1954   -7.6140   23.9712 H   0  0  0  0  0  0
  -21.1514   -6.0519   25.9079 H   0  0  0  0  0  0
  -22.0600   -2.7607   23.2832 H   0  0  0  0  0  0
  -22.4101  -11.9878   22.4776 H   0  0  0  0  0  0
  -21.1078  -13.1226   22.2556 H   0  0  0  0  0  0
  -24.6632  -15.8461   20.5299 H   0  0  0  0  0  0
  -26.2886  -15.6244   20.1162 H   0  0  0  0  0  0
  -26.7162  -32.5489   23.1117 H   0  0  0  0  0  0
  -25.0114  -33.9752   25.0443 H   0  0  0  0  0  0
  -22.7023  -31.3030   21.4052 H   0  0  0  0  0  0
  -23.3795  -35.9592   23.3195 H   0  0  0  0  0  0
  -24.3623  -36.9020   22.2065 H   0  0  0  0  0  0
  -23.7192  -37.6454   23.6709 H   0  0  0  0  0  0
  -26.0653  -31.5826   20.5966 H   0  0  0  0  0  0
  -26.8364  -30.8642   21.9844 H   0  0  0  0  0  0
  -28.1137  -29.0343   21.1764 H   0  0  0  0  0  0
  -26.0212  -25.9579   18.9868 H   0  0  0  0  0  0
  -23.9679  -27.3208   19.0056 H   0  0  0  0  0  0
  -23.7258  -30.5978   19.3983 H   0  0  0  0  0  0
  -22.7488  -29.2369   19.8638 H   0  0  0  0  0  0
  -25.1284  -36.1897   25.0798 H   0  0  0  0  0  0
  -20.9938  -28.3201   24.1447 H   0  0  0  0  0  0
  -20.5666  -26.2246   23.3582 H   0  0  0  0  0  0
  -21.6621  -26.7441   22.1199 H   0  0  0  0  0  0
  -19.6906  -25.6298   21.1221 H   0  0  0  0  0  0
  -19.6722  -27.3193   20.6732 H   0  0  0  0  0  0
  -17.4201  -26.6676   21.3988 H   0  0  0  0  0  0
  -18.0324  -26.0074   22.8998 H   0  0  0  0  0  0
  -19.7920  -30.7230   24.2308 H   0  0  0  0  0  0
  -17.5009  -31.6281   24.5110 H   0  0  0  0  0  0
  -15.5335  -30.2972   23.7690 H   0  0  0  0  0  0
  -15.8646  -28.0819   22.7075 H   0  0  0  0  0  0
  -24.5923  -30.7082   25.7793 H   0  0  0  0  0  0
  -24.8976  -32.2876   26.4929 H   0  0  0  0  0  0
  -25.8106  -30.8872   27.0205 H   0  0  0  0  0  0
  -26.2845  -29.6804   24.1176 H   0  0  0  0  0  0
  -27.4042  -29.7252   25.4608 H   0  0  0  0  0  0
  -27.8718  -30.4314   23.9302 H   0  0  0  0  0  0
  -27.2686  -33.3601   26.2101 H   0  0  0  0  0  0
  -28.3899  -32.6881   25.0345 H   0  0  0  0  0  0
  -28.0731  -31.8422   26.5412 H   0  0  0  0  0  0
  -28.2489  -38.0194   24.7650 H   0  0  0  0  0  0
  -28.1202  -36.2739   24.6017 H   0  0  0  0  0  0
  -27.2346  -37.1117   25.8830 H   0  0  0  0  0  0
  -20.9324  -29.8772   21.6972 H   0  0  0  0  0  0
  -26.0125  -38.2850   24.1576 H   0  0  0  0  0  0
  -30.3757  -22.2951   18.4934 H   0  0  0  0  0  0
  -28.9782  -16.6776   22.3276 H   0  0  0  0  0  0
  -30.5695  -16.0873   22.6795 H   0  0  0  0  0  0
  -29.4084  -15.9077   18.6436 H   0  0  0  0  0  0
  -28.2431  -16.5894   19.7362 H   0  0  0  0  0  0
  -31.6384  -17.9375   21.4877 H   0  0  0  0  0  0
  -30.4690  -18.6109   22.5899 H   0  0  0  0  0  0
  -29.4001  -18.4062   18.5196 H   0  0  0  0  0  0
  -30.9572  -17.7692   18.9791 H   0  0  0  0  0  0
  -26.8503  -23.5224   22.8894 H   0  0  0  0  0  0
  -28.3948  -23.9281   23.6440 H   0  0  0  0  0  0
  -27.8117  -22.2665   23.6621 H   0  0  0  0  0  0
  -31.4532  -20.2562   20.9405 H   0  0  0  0  0  0
  -31.0393  -20.1293   19.2806 H   0  0  0  0  0  0
  -28.4025  -25.7059   22.0130 H   0  0  0  0  0  0
  -26.9836  -25.1996   21.1604 H   0  0  0  0  0  0
  -28.9888  -18.9870   20.7894 H   0  0  0  0  0  0
  1 25  1  0  0  0
  1 30  2  0  0  0
  1 84  1  0  0  0
  2  3  1  0  0  0
  2 25  1  0  0  0
  2 86  1  0  0  0
  2 87  1  0  0  0
  3  4  1  0  0  0
  3 88  1  0  0  0
  3 89  1  0  0  0
  4  5  1  0  0  0
  4 90  1  0  0  0
  4 91  1  0  0  0
  5  6  1  0  0  0
  5 26  1  0  0  0
  5 92  1  0  0  0
  6 25  1  0  0  0
  6 93  1  0  0  0
  6 94  1  0  0  0
  7  8  2  0  0  0
  7 26  1  0  0  0
  7 29  1  0  0  0
  8  9  1  0  0  0
  8 22  1  0  0  0
  9 10  1  0  0  0
  9 27  2  0  0  0
 10 11  2  0  0  0
 10 15  1  0  0  0
 11 12  1  0  0  0
 11 95  1  0  0  0
 12 13  2  0  0  0
 12 96  1  0  0  0
 13 14  1  0  0  0
 13 31  1  0  0  0
 14 15  2  0  0  0
 14 97  1  0  0  0
 15 98  1  0  0  0
 16 17  2  0  0  0
 16 21  1  0  0  0
 16 31  1  0  0  0
 17 18  1  0  0  0
 17 99  1  0  0  0
 18 19  2  0  0  0
 18100  1  0  0  0
 19 20  1  0  0  0
 19 24  1  0  0  0
 20 21  2  0  0  0
 20101  1  0  0  0
 21 23  1  0  0  0
 22 28  1  0  0  0
 22 32  2  0  0  0
 26 27  1  0  0  0
 28102  1  0  0  0
 28103  1  0  0  0
 29104  1  0  0  0
 29105  1  0  0  0
 33 34  1  0  0  0
 33 66  1  0  0  0
 33 70  2  0  0  0
 34 36  1  0  0  0
 34 59  1  0  0  0
 34106  1  0  0  0
 35 44  2  0  0  0
 35 45  1  0  0  0
 35 68  1  0  0  0
 36 56  1  0  0  0
 36107  1  0  0  0
 37 39  1  0  0  0
 37 47  1  0  0  0
 37 66  1  0  0  0
 37108  1  0  0  0
 38 43  2  0  0  0
 38 46  1  0  0  0
 38 47  1  0  0  0
 39 64  1  0  0  0
 39 67  2  0  0  0
 40 52  1  0  0  0
 40 53  2  0  0  0
 40 58  1  0  0  0
 41109  1  0  0  0
 41110  1  0  0  0
 41111  1  0  0  0
 41 48  1  0  0  0
 42 43  1  0  0  0
 42 66  1  0  0  0
 42112  1  0  0  0
 42113  1  0  0  0
 43 44  1  0  0  0
 44114  1  0  0  0
 45 46  2  0  0  0
 45115  1  0  0  0
 46116  1  0  0  0
 47117  1  0  0  0
 47118  1  0  0  0
 48 56  1  0  0  0
 48 65  1  0  0  0
 48119  1  0  0  0
 49 50  1  0  0  0
 49 53  1  0  0  0
 49 64  1  0  0  0
 49120  1  0  0  0
 50 51  1  0  0  0
 50121  1  0  0  0
 50122  1  0  0  0
 51 52  1  0  0  0
 51123  1  0  0  0
 51124  1  0  0  0
 52125  1  0  0  0
 52126  1  0  0  0
 53 54  1  0  0  0
 54 55  2  0  0  0
 54127  1  0  0  0
 55 57  1  0  0  0
 55128  1  0  0  0
 56 69  2  0  0  0
 57 58  2  0  0  0
 57129  1  0  0  0
 58130  1  0  0  0
 59 60  1  0  0  0
 59 61  1  0  0  0
 59 62  1  0  0  0
 60131  1  0  0  0
 60132  1  0  0  0
 60133  1  0  0  0
 61134  1  0  0  0
 61135  1  0  0  0
 61136  1  0  0  0
 62137  1  0  0  0
 62138  1  0  0  0
 62139  1  0  0  0
 63 65  1  0  0  0
 63140  1  0  0  0
 63141  1  0  0  0
 63142  1  0  0  0
 64143  1  0  0  0
 65144  1  0  0  0
 68 81  1  0  0  0
 71 72  2  0  0  0
 71 82  1  0  0  0
 71145  1  0  0  0
 72 80  1  0  0  0
 72 83  1  0  0  0
 73 74  1  0  0  0
 73 79  1  0  0  0
 73 83  2  0  0  0
 74 81  1  0  0  0
 74 82  2  0  0  0
 75 77  1  0  0  0
 75 84  1  0  0  0
 75146  1  0  0  0
 75147  1  0  0  0
 76 78  1  0  0  0
 76 84  1  0  0  0
 76148  1  0  0  0
 76149  1  0  0  0
 77 85  1  0  0  0
 77150  1  0  0  0
 77151  1  0  0  0
 78 85  1  0  0  0
 78152  1  0  0  0
 78153  1  0  0  0
 79154  1  0  0  0
 79155  1  0  0  0
 79156  1  0  0  0
 80157  1  0  0  0
 80158  1  0  0  0
 80 85  1  0  0  0
 81159  1  0  0  0
 81160  1  0  0  0
 85161  1  0  0  0
M  CHG  1  85   1
M  ISO  4   1 100  68 101  81 101  84 100
M  END
> <chiral flag>
0

> <version>
0

> <s_m_source_file>
/data/baiqing/PycharmProjects/Reinvent-master-3.2/result/LINK_invent/BTK/process_docking_weight1_custom_sum_contain_oxygen_bond_distance_aromatic_linkinvent_7_9_3/rearranged_h_0182.sdf

> <i_m_source_file_index>
26

> <r_mmod_Potential_Energy-OPLS-2005>
164.267730712891

> <r_mmod_Stretch_Energy-OPLS-2005>
66.2424774169922

> <r_mmod_Bend_Energy-OPLS-2005>
126.86644744873

> <r_mmod_Torsional_Energy-OPLS-2005>
423.509918212891

> <r_mmod_Improper_Torsional_Energy-OPLS-2005>
8.8983154296875

> <r_mmod_Van_der_Waal_Energy-OPLS-2005>
147.421310424805

> <r_mmod_Electrostatic_Energy-OPLS-2005>
-198.339447021484

> <r_mmod_Solvation_Energy-OPLS-2005>
-450.588226318359

> <b_mmod_Minimization_Converged-OPLS-2005>
0

> <r_mmod_RMS_Derivative-OPLS-2005>
3.68018794059753

$$$$
26
                    3D
 Structure written by MMmdl.
152161  0  0  1  0            999 V2000
  -30.4480  -15.4298   20.4291 C   0  0  0  0  0  0
  -30.4476  -12.9750   19.5083 C   0  0  0  0  0  0
  -29.5379  -12.6131   18.3037 C   0  0  0  0  0  0
  -28.1113  -12.2936   18.7688 C   0  0  0  0  0  0
  -27.6130  -13.3016   19.8285 C   0  0  2  0  0  0
  -28.6456  -13.5891   20.9448 C   0  0  0  0  0  0
  -25.2380  -13.8319   20.5838 C   0  0  0  0  0  0
  -24.1766  -13.0493   20.9288 C   0  0  0  0  0  0
  -24.6467  -11.6990   20.8834 C   0  0  0  0  0  0
  -23.9189  -10.4334   21.0451 C   0  0  0  0  0  0
  -24.3715   -9.4220   21.9217 C   0  0  0  0  0  0
  -23.6340   -8.2274   22.0771 C   0  0  0  0  0  0
  -22.4311   -8.0334   21.3561 C   0  0  0  0  0  0
  -21.9997   -9.0336   20.4665 C   0  0  0  0  0  0
  -22.7377  -10.2188   20.3087 C   0  0  0  0  0  0
  -21.6864   -6.0784   22.5268 C   0  0  0  0  0  0
  -21.4026   -6.5676   23.8213 C   0  0  0  0  0  0
  -21.3655   -5.6812   24.9169 C   0  0  0  0  0  0
  -21.6027   -4.3076   24.7209 C   0  0  0  0  0  0
  -21.8821   -3.8189   23.4327 C   0  0  0  0  0  0
  -21.9190   -4.7011   22.3389 C   0  0  0  0  0  0
  -22.7766  -13.5188   21.1915 C   0  0  0  0  0  0
  -22.1655   -4.2202   21.0961 F   0  0  0  0  0  0
  -21.5619   -3.4546   25.7712 F   0  0  0  0  0  0
  -29.8503  -14.1298   20.2879 N   0  0  0  0  0  0
  -26.2884  -12.9672   20.3382 N   0  0  0  0  0  0
  -25.9426  -11.6735   20.5830 N   0  0  0  0  0  0
  -22.0446  -12.8161   22.0453 N   0  0  0  0  0  0
  -25.3923  -15.2093   20.4238 N   0  0  0  0  0  0
  -31.6811  -15.3523   20.3239 O   0  0  0  0  0  0
  -21.6664   -6.8953   21.4247 O   0  0  0  0  0  0
  -22.3439  -14.5502   20.6758 O   0  0  0  0  0  0
  -24.6667  -31.8108   23.1592 C   0  0  0  0  0  0
  -25.9315  -32.4487   23.8124 C   0  0  1  0  0  0
  -27.2803  -26.8762   20.2495 C   0  0  0  0  0  0
  -25.5928  -33.8300   24.2020 N   0  0  0  0  0  0
  -23.4963  -30.4083   21.4990 C   0  0  2  0  0  0
  -24.9736  -28.7767   20.1230 C   0  0  0  0  0  0
  -22.7719  -29.4338   22.4683 C   0  0  0  0  0  0
  -18.0333  -28.1342   22.8407 C   0  0  0  0  0  0
  -24.1554  -36.7212   23.2678 C   0  0  0  0  0  0
  -26.0639  -30.6028   21.4088 C   0  0  0  0  0  0
  -26.1478  -29.1835   20.7672 C   0  0  0  0  0  0
  -27.2906  -28.2559   20.8097 C   0  0  0  0  0  0
  -26.0801  -26.6337   19.5454 C   0  0  0  0  0  0
  -24.9671  -27.5192   19.4914 C   0  0  0  0  0  0
  -23.7545  -29.6991   20.1370 C   0  0  0  0  0  0
  -25.4173  -36.2909   24.0320 C   0  0  1  0  0  0
  -20.5962  -28.3693   23.1084 C   0  0  2  0  0  0
  -20.6793  -26.9352   22.5341 C   0  0  0  0  0  0
  -19.5781  -26.6299   21.5134 C   0  0  0  0  0  0
  -18.1960  -26.7873   22.1549 C   0  0  0  0  0  0
  -19.1611  -28.8843   23.2715 C   0  0  0  0  0  0
  -18.9532  -30.1429   23.8757 C   0  0  0  0  0  0
  -17.6529  -30.6527   24.0499 C   0  0  0  0  0  0
  -25.9094  -34.9276   23.5002 C   0  0  0  0  0  0
  -16.5402  -29.9002   23.6329 C   0  0  0  0  0  0
  -16.7316  -28.6431   23.0318 C   0  0  0  0  0  0
  -26.4554  -31.6476   25.0678 C   0  0  0  0  0  0
  -25.3686  -31.3678   26.1336 C   0  0  0  0  0  0
  -27.0523  -30.2830   24.6544 C   0  0  0  0  0  0
  -27.6011  -32.4388   25.7426 C   0  0  0  0  0  0
  -27.5567  -37.1797   24.8488 C   0  0  0  0  0  0
  -21.4371  -29.2989   22.3453 N   0  0  0  0  0  0
  -26.4329  -37.3618   23.9362 N   0  0  0  0  0  0
  -24.7614  -30.9731   22.0730 N   0  0  0  0  0  0
  -23.4214  -28.7890   23.2959 O   0  0  0  0  0  0
  -28.2893  -25.7596   20.3573 O   0  0  0  0  0  0
  -26.5741  -34.8811   22.4610 O   0  0  0  0  0  0
  -23.5711  -32.1085   23.6596 O   0  0  0  0  0  0
  -31.1108  -20.7199   20.9214 C   0  0  0  0  0  0
  -29.8684  -20.1244   20.6266 C   0  0  0  0  0  0
  -31.3381  -22.1228   20.9359 C   0  0  0  0  0  0
  -29.1046  -22.6753   20.4783 C   0  0  0  0  0  0
  -32.1692  -19.7502   21.3811 C   0  0  0  0  0  0
  -31.5880  -18.3343   21.2564 C   0  0  0  0  0  0
  -30.0574  -18.3680   20.9977 C   0  0  2  0  0  0
  -32.7142  -22.7151   21.2740 C   0  0  0  0  0  0
  -28.0495  -24.0998   20.2559 C   0  0  0  0  0  0
  -28.8574  -21.2107   20.4659 N   0  0  0  0  0  0
  -30.3686  -23.0379   20.6966 N   0  0  0  0  0  0
  -29.7508  -16.7709   20.4818 N   0  0  0  0  0  0
  -31.4259  -13.2540   19.1146 H   0  0  0  0  0  0
  -30.6138  -12.1173   20.1597 H   0  0  0  0  0  0
  -29.9526  -11.7677   17.7515 H   0  0  0  0  0  0
  -29.5155  -13.4527   17.6074 H   0  0  0  0  0  0
  -28.1321  -11.2972   19.2091 H   0  0  0  0  0  0
  -27.4250  -12.2534   17.9241 H   0  0  0  0  0  0
  -27.4891  -14.2413   19.2850 H   0  0  0  0  0  0
  -28.8694  -12.7171   21.5577 H   0  0  0  0  0  0
  -28.2503  -14.3565   21.6163 H   0  0  0  0  0  0
  -25.2870   -9.5662   22.4825 H   0  0  0  0  0  0
  -24.0010   -7.4683   22.7526 H   0  0  0  0  0  0
  -21.0907   -8.8947   19.8994 H   0  0  0  0  0  0
  -22.3878  -10.9772   19.6223 H   0  0  0  0  0  0
  -21.2023   -7.6184   23.9731 H   0  0  0  0  0  0
  -21.1460   -6.0537   25.9066 H   0  0  0  0  0  0
  -22.0587   -2.7650   23.2806 H   0  0  0  0  0  0
  -22.4070  -11.9795   22.4794 H   0  0  0  0  0  0
  -21.1094  -13.1230   22.2750 H   0  0  0  0  0  0
  -24.6115  -15.8467   20.5324 H   0  0  0  0  0  0
  -26.2281  -15.6707   20.0926 H   0  0  0  0  0  0
  -26.7369  -32.5028   23.0834 H   0  0  0  0  0  0
  -24.9983  -33.9357   25.0113 H   0  0  0  0  0  0
  -22.8111  -31.2342   21.3006 H   0  0  0  0  0  0
  -23.3723  -35.9645   23.3434 H   0  0  0  0  0  0
  -24.3599  -36.8755   22.2065 H   0  0  0  0  0  0
  -23.7462  -37.6487   23.6686 H   0  0  0  0  0  0
  -26.2652  -31.3362   20.6279 H   0  0  0  0  0  0
  -26.9082  -30.6589   22.0853 H   0  0  0  0  0  0
  -28.1665  -28.5649   21.3640 H   0  0  0  0  0  0
  -25.9771  -25.6698   19.0652 H   0  0  0  0  0  0
  -24.0837  -27.1794   18.9683 H   0  0  0  0  0  0
  -23.9131  -30.4484   19.3609 H   0  0  0  0  0  0
  -22.8775  -29.1302   19.8277 H   0  0  0  0  0  0
  -25.1405  -36.1719   25.0821 H   0  0  0  0  0  0
  -21.0025  -28.3320   24.1204 H   0  0  0  0  0  0
  -20.5576  -26.2310   23.3608 H   0  0  0  0  0  0
  -21.6665  -26.7239   22.1212 H   0  0  0  0  0  0
  -19.6940  -25.6186   21.1198 H   0  0  0  0  0  0
  -19.6762  -27.3061   20.6638 H   0  0  0  0  0  0
  -17.4228  -26.6556   21.3945 H   0  0  0  0  0  0
  -18.0373  -26.0034   22.8963 H   0  0  0  0  0  0
  -19.8047  -30.7225   24.2066 H   0  0  0  0  0  0
  -17.5110  -31.6214   24.5101 H   0  0  0  0  0  0
  -15.5389  -30.2845   23.7767 H   0  0  0  0  0  0
  -15.8716  -28.0713   22.7086 H   0  0  0  0  0  0
  -24.5889  -30.7014   25.7619 H   0  0  0  0  0  0
  -24.8832  -32.2833   26.4724 H   0  0  0  0  0  0
  -25.7918  -30.8866   27.0172 H   0  0  0  0  0  0
  -26.3227  -29.6353   24.1645 H   0  0  0  0  0  0
  -27.4028  -29.7348   25.5299 H   0  0  0  0  0  0
  -27.9191  -30.3923   24.0014 H   0  0  0  0  0  0
  -27.2554  -33.3773   26.1773 H   0  0  0  0  0  0
  -28.3859  -32.6810   25.0247 H   0  0  0  0  0  0
  -28.0650  -31.8705   26.5494 H   0  0  0  0  0  0
  -28.2649  -38.0005   24.7306 H   0  0  0  0  0  0
  -28.0996  -36.2520   24.6642 H   0  0  0  0  0  0
  -27.2240  -37.1805   25.8873 H   0  0  0  0  0  0
  -20.9628  -29.8796   21.6678 H   0  0  0  0  0  0
  -26.0193  -38.2716   24.1174 H   0  0  0  0  0  0
  -32.4338  -19.9628   22.4194 H   0  0  0  0  0  0
  -33.0712  -19.8896   20.7807 H   0  0  0  0  0  0
  -31.8586  -17.6696   22.0815 H   0  0  0  0  0  0
  -32.0706  -17.9239   20.3697 H   0  0  0  0  0  0
  -29.5723  -18.3413   21.9744 H   0  0  0  0  0  0
  -33.2662  -22.9713   20.3675 H   0  0  0  0  0  0
  -33.3632  -22.0538   21.8473 H   0  0  0  0  0  0
  -32.6219  -23.6242   21.8694 H   0  0  0  0  0  0
  -27.1680  -23.9130   20.8726 H   0  0  0  0  0  0
  -27.6814  -23.9799   19.2402 H   0  0  0  0  0  0
  -28.7568  -16.6512   20.3451 H   0  0  0  0  0  0
  1 25  1  0  0  0
  1 30  2  0  0  0
  1 82  1  0  0  0
  2  3  1  0  0  0
  2 25  1  0  0  0
  2 83  1  0  0  0
  2 84  1  0  0  0
  3  4  1  0  0  0
  3 85  1  0  0  0
  3 86  1  0  0  0
  4  5  1  0  0  0
  4 87  1  0  0  0
  4 88  1  0  0  0
  5  6  1  0  0  0
  5 26  1  0  0  0
  5 89  1  0  0  0
  6 25  1  0  0  0
  6 90  1  0  0  0
  6 91  1  0  0  0
  7  8  2  0  0  0
  7 26  1  0  0  0
  7 29  1  0  0  0
  8  9  1  0  0  0
  8 22  1  0  0  0
  9 10  1  0  0  0
  9 27  2  0  0  0
 10 11  2  0  0  0
 10 15  1  0  0  0
 11 12  1  0  0  0
 11 92  1  0  0  0
 12 13  2  0  0  0
 12 93  1  0  0  0
 13 14  1  0  0  0
 13 31  1  0  0  0
 14 15  2  0  0  0
 14 94  1  0  0  0
 15 95  1  0  0  0
 16 17  2  0  0  0
 16 21  1  0  0  0
 16 31  1  0  0  0
 17 18  1  0  0  0
 17 96  1  0  0  0
 18 19  2  0  0  0
 18 97  1  0  0  0
 19 20  1  0  0  0
 19 24  1  0  0  0
 20 21  2  0  0  0
 20 98  1  0  0  0
 21 23  1  0  0  0
 22 28  1  0  0  0
 22 32  2  0  0  0
 26 27  1  0  0  0
 28 99  1  0  0  0
 28100  1  0  0  0
 29101  1  0  0  0
 29102  1  0  0  0
 33 34  1  0  0  0
 33 66  1  0  0  0
 33 70  2  0  0  0
 34 36  1  0  0  0
 34 59  1  0  0  0
 34103  1  0  0  0
 35 44  2  0  0  0
 35 45  1  0  0  0
 35 68  1  0  0  0
 36 56  1  0  0  0
 36104  1  0  0  0
 37 39  1  0  0  0
 37 47  1  0  0  0
 37 66  1  0  0  0
 37105  1  0  0  0
 38 43  2  0  0  0
 38 46  1  0  0  0
 38 47  1  0  0  0
 39 64  1  0  0  0
 39 67  2  0  0  0
 40 52  1  0  0  0
 40 53  2  0  0  0
 40 58  1  0  0  0
 41106  1  0  0  0
 41107  1  0  0  0
 41108  1  0  0  0
 41 48  1  0  0  0
 42 43  1  0  0  0
 42 66  1  0  0  0
 42109  1  0  0  0
 42110  1  0  0  0
 43 44  1  0  0  0
 44111  1  0  0  0
 45 46  2  0  0  0
 45112  1  0  0  0
 46113  1  0  0  0
 47114  1  0  0  0
 47115  1  0  0  0
 48 56  1  0  0  0
 48 65  1  0  0  0
 48116  1  0  0  0
 49 50  1  0  0  0
 49 53  1  0  0  0
 49 64  1  0  0  0
 49117  1  0  0  0
 50 51  1  0  0  0
 50118  1  0  0  0
 50119  1  0  0  0
 51 52  1  0  0  0
 51120  1  0  0  0
 51121  1  0  0  0
 52122  1  0  0  0
 52123  1  0  0  0
 53 54  1  0  0  0
 54 55  2  0  0  0
 54124  1  0  0  0
 55 57  1  0  0  0
 55125  1  0  0  0
 56 69  2  0  0  0
 57 58  2  0  0  0
 57126  1  0  0  0
 58127  1  0  0  0
 59 60  1  0  0  0
 59 61  1  0  0  0
 59 62  1  0  0  0
 60128  1  0  0  0
 60129  1  0  0  0
 60130  1  0  0  0
 61131  1  0  0  0
 61132  1  0  0  0
 61133  1  0  0  0
 62134  1  0  0  0
 62135  1  0  0  0
 62136  1  0  0  0
 63 65  1  0  0  0
 63137  1  0  0  0
 63138  1  0  0  0
 63139  1  0  0  0
 64140  1  0  0  0
 65141  1  0  0  0
 68 79  1  0  0  0
 71 72  1  0  0  0
 71 73  2  0  0  0
 71 75  1  0  0  0
 72 77  1  0  0  0
 72 80  2  0  0  0
 73 78  1  0  0  0
 73 81  1  0  0  0
 74 79  1  0  0  0
 74 80  1  0  0  0
 74 81  2  0  0  0
 75 76  1  0  0  0
 75142  1  0  0  0
 75143  1  0  0  0
 76 77  1  0  0  0
 76144  1  0  0  0
 76145  1  0  0  0
 77 82  1  0  0  0
 77146  1  0  0  0
 78147  1  0  0  0
 78148  1  0  0  0
 78149  1  0  0  0
 79150  1  0  0  0
 79151  1  0  0  0
 82152  1  0  0  0
M  ISO  4   1 100  68 101  79 101  82 100
M  END
> <chiral flag>
0

> <version>
0

> <s_m_source_file>
/data/baiqing/PycharmProjects/Reinvent-master-3.2/result/LINK_invent/BTK/process_docking_weight1_custom_sum_contain_oxygen_bond_distance_aromatic_linkinvent_7_9_3/rearranged_h_0182.sdf

> <i_m_source_file_index>
27

> <r_mmod_Potential_Energy-OPLS-2005>
1241.95971679688

> <r_mmod_Stretch_Energy-OPLS-2005>
710.384033203125

> <r_mmod_Bend_Energy-OPLS-2005>
605.16748046875

> <r_mmod_Torsional_Energy-OPLS-2005>
229.518142700195

> <r_mmod_Improper_Torsional_Energy-OPLS-2005>
10.2281627655029

> <r_mmod_Van_der_Waal_Energy-OPLS-2005>
130.138519287109

> <r_mmod_Electrostatic_Energy-OPLS-2005>
-803.198791503906

> <r_mmod_Solvation_Energy-OPLS-2005>
-259.916076660156

> <b_mmod_Minimization_Converged-OPLS-2005>
0

> <r_mmod_RMS_Derivative-OPLS-2005>
7.93478679656982

$$$$
27
                    3D
 Structure written by MMmdl.
155164  0  0  1  0            999 V2000
  -30.5462  -15.0370   20.4003 C   0  0  0  0  0  0
  -30.4373  -12.6501   19.5038 C   0  0  0  0  0  0
  -29.5265  -12.5554   18.2596 C   0  0  0  0  0  0
  -28.0569  -12.3425   18.6701 C   0  0  0  0  0  0
  -27.6283  -13.2666   19.8427 C   0  0  2  0  0  0
  -28.6757  -13.3203   20.9744 C   0  0  0  0  0  0
  -25.2452  -13.8246   20.5721 C   0  0  0  0  0  0
  -24.1788  -13.0442   20.9222 C   0  0  0  0  0  0
  -24.6431  -11.6936   20.8750 C   0  0  0  0  0  0
  -23.9117  -10.4291   21.0388 C   0  0  0  0  0  0
  -24.3651   -9.4212   21.9180 C   0  0  0  0  0  0
  -23.6311   -8.2256   22.0753 C   0  0  0  0  0  0
  -22.4294   -8.0302   21.3544 C   0  0  0  0  0  0
  -21.9948   -9.0269   20.4638 C   0  0  0  0  0  0
  -22.7283  -10.2139   20.3050 C   0  0  0  0  0  0
  -21.6870   -6.0743   22.5273 C   0  0  0  0  0  0
  -21.4014   -6.5630   23.8201 C   0  0  0  0  0  0
  -21.3672   -5.6780   24.9164 C   0  0  0  0  0  0
  -21.6071   -4.3043   24.7223 C   0  0  0  0  0  0
  -21.8821   -3.8146   23.4336 C   0  0  0  0  0  0
  -21.9197   -4.6971   22.3394 C   0  0  0  0  0  0
  -22.7802  -13.5200   21.1863 C   0  0  0  0  0  0
  -22.1659   -4.2156   21.0972 F   0  0  0  0  0  0
  -21.5645   -3.4527   25.7733 F   0  0  0  0  0  0
  -29.9316  -13.7737   20.3570 N   0  0  0  0  0  0
  -26.2906  -12.9516   20.3292 N   0  0  0  0  0  0
  -25.9379  -11.6613   20.5757 N   0  0  0  0  0  0
  -22.0444  -12.8198   22.0417 N   0  0  0  0  0  0
  -25.4106  -15.1973   20.4123 N   0  0  0  0  0  0
  -31.7489  -15.0365   20.1033 O   0  0  0  0  0  0
  -21.6662   -6.8901   21.4242 O   0  0  0  0  0  0
  -22.3488  -14.5508   20.6707 O   0  0  0  0  0  0
  -24.6501  -31.8383   23.1847 C   0  0  0  0  0  0
  -25.9239  -32.4669   23.8258 C   0  0  1  0  0  0
  -27.2117  -27.0610   20.1597 C   0  0  0  0  0  0
  -25.5984  -33.8485   24.2177 N   0  0  0  0  0  0
  -23.4569  -30.4556   21.5325 C   0  0  2  0  0  0
  -24.9096  -28.8720   20.1142 C   0  0  0  0  0  0
  -22.7583  -29.4511   22.4852 C   0  0  0  0  0  0
  -18.0276  -28.1406   22.8468 C   0  0  0  0  0  0
  -24.1503  -36.7211   23.2645 C   0  0  0  0  0  0
  -26.0207  -30.6882   21.3985 C   0  0  0  0  0  0
  -26.0901  -29.2931   20.7364 C   0  0  0  0  0  0
  -27.2422  -28.4047   20.7389 C   0  0  0  0  0  0
  -26.0019  -26.7627   19.4941 C   0  0  0  0  0  0
  -24.8816  -27.6237   19.4793 C   0  0  0  0  0  0
  -23.6886  -29.7822   20.1543 C   0  0  0  0  0  0
  -25.4149  -36.3025   24.0314 C   0  0  1  0  0  0
  -20.5906  -28.3749   23.1226 C   0  0  2  0  0  0
  -20.6785  -26.9446   22.5413 C   0  0  0  0  0  0
  -19.5760  -26.6392   21.5222 C   0  0  0  0  0  0
  -18.1926  -26.7948   22.1608 C   0  0  0  0  0  0
  -19.1545  -28.8892   23.2831 C   0  0  0  0  0  0
  -18.9466  -30.1483   23.8875 C   0  0  0  0  0  0
  -17.6468  -30.6624   24.0539 C   0  0  0  0  0  0
  -25.9105  -34.9395   23.5058 C   0  0  0  0  0  0
  -16.5355  -29.9107   23.6340 C   0  0  0  0  0  0
  -16.7261  -28.6509   23.0389 C   0  0  0  0  0  0
  -26.4567  -31.6551   25.0708 C   0  0  0  0  0  0
  -25.3734  -31.3720   26.1375 C   0  0  0  0  0  0
  -27.0460  -30.2948   24.6347 C   0  0  0  0  0  0
  -27.6095  -32.4305   25.7485 C   0  0  0  0  0  0
  -27.5586  -37.1769   24.8460 C   0  0  0  0  0  0
  -21.4272  -29.3059   22.3594 N   0  0  0  0  0  0
  -26.4294  -37.3747   23.9412 N   0  0  0  0  0  0
  -24.7286  -31.0174   22.0923 N   0  0  0  0  0  0
  -23.4183  -28.8047   23.3023 O   0  0  0  0  0  0
  -28.2379  -26.0227   20.2231 O   0  0  0  0  0  0
  -26.5675  -34.8893   22.4631 O   0  0  0  0  0  0
  -23.5604  -32.1277   23.7040 O   0  0  0  0  0  0
  -30.2930  -23.4237   20.5005 C   0  0  0  0  0  0
  -29.5603  -20.6659   20.3576 C   0  0  0  0  0  0
  -28.9315  -23.1517   20.2873 C   0  0  0  0  0  0
  -30.8927  -21.1380   20.5685 C   0  0  0  0  0  0
  -28.8003  -18.2958   21.6250 C   0  0  0  0  0  0
  -28.8223  -16.7162   21.4284 C   0  0  0  0  0  0
  -30.2141  -17.7187   19.8691 C   0  0  0  0  0  0
  -29.2307  -18.9966   20.3194 C   0  0  2  0  0  0
  -32.0887  -20.2246   20.7524 C   0  0  0  0  0  0
  -27.8982  -24.4696   20.1292 C   0  0  0  0  0  0
  -31.2327  -22.4545   20.6349 N   0  0  0  0  0  0
  -28.5960  -21.7397   20.2255 N   0  0  0  0  0  0
  -29.8342  -16.3049   20.4326 N   0  0  0  0  0  0
  -31.4701  -12.8019   19.1842 H   0  0  0  0  0  0
  -30.4409  -11.7082   20.0549 H   0  0  0  0  0  0
  -29.8506  -11.7458   17.6063 H   0  0  0  0  0  0
  -29.6187  -13.4781   17.6816 H   0  0  0  0  0  0
  -27.9394  -11.2974   18.9568 H   0  0  0  0  0  0
  -27.4057  -12.4958   17.8091 H   0  0  0  0  0  0
  -27.5799  -14.2701   19.4177 H   0  0  0  0  0  0
  -28.7927  -12.3412   21.4407 H   0  0  0  0  0  0
  -28.3656  -14.0018   21.7677 H   0  0  0  0  0  0
  -25.2778   -9.5688   22.4776 H   0  0  0  0  0  0
  -24.0017   -7.4644   22.7471 H   0  0  0  0  0  0
  -21.0887   -8.8789   19.8918 H   0  0  0  0  0  0
  -22.3738  -10.9691   19.6178 H   0  0  0  0  0  0
  -21.1975   -7.6129   23.9708 H   0  0  0  0  0  0
  -21.1510   -6.0502   25.9065 H   0  0  0  0  0  0
  -22.0593   -2.7611   23.2835 H   0  0  0  0  0  0
  -22.4012  -11.9855   22.4842 H   0  0  0  0  0  0
  -21.1049  -13.1251   22.2554 H   0  0  0  0  0  0
  -24.6498  -15.8584   20.5260 H   0  0  0  0  0  0
  -26.2654  -15.6318   20.0898 H   0  0  0  0  0  0
  -26.7279  -32.5254   23.0956 H   0  0  0  0  0  0
  -25.0133  -33.9590   25.0330 H   0  0  0  0  0  0
  -22.7619  -31.2824   21.3722 H   0  0  0  0  0  0
  -23.3825  -35.9481   23.3278 H   0  0  0  0  0  0
  -24.3586  -36.8872   22.2062 H   0  0  0  0  0  0
  -23.7184  -37.6366   23.6705 H   0  0  0  0  0  0
  -26.1919  -31.4457   20.6331 H   0  0  0  0  0  0
  -26.8814  -30.7338   22.0525 H   0  0  0  0  0  0
  -28.1404  -28.7207   21.2511 H   0  0  0  0  0  0
  -25.8775  -25.8148   18.9958 H   0  0  0  0  0  0
  -23.9764  -27.2962   18.9866 H   0  0  0  0  0  0
  -23.8296  -30.5533   19.3971 H   0  0  0  0  0  0
  -22.8036  -29.2262   19.8413 H   0  0  0  0  0  0
  -25.1358  -36.1851   25.0806 H   0  0  0  0  0  0
  -20.9955  -28.3360   24.1362 H   0  0  0  0  0  0
  -20.5714  -26.2360   23.3646 H   0  0  0  0  0  0
  -21.6650  -26.7474   22.1197 H   0  0  0  0  0  0
  -19.6947  -25.6294   21.1282 H   0  0  0  0  0  0
  -19.6729  -27.3179   20.6741 H   0  0  0  0  0  0
  -17.4213  -26.6680   21.3985 H   0  0  0  0  0  0
  -18.0311  -26.0089   22.9002 H   0  0  0  0  0  0
  -19.7949  -30.7277   24.2260 H   0  0  0  0  0  0
  -17.5036  -31.6315   24.5125 H   0  0  0  0  0  0
  -15.5365  -30.3020   23.7713 H   0  0  0  0  0  0
  -15.8629  -28.0817   22.7193 H   0  0  0  0  0  0
  -24.5951  -30.7033   25.7664 H   0  0  0  0  0  0
  -24.8881  -32.2883   26.4745 H   0  0  0  0  0  0
  -25.8006  -30.8913   27.0181 H   0  0  0  0  0  0
  -26.3110  -29.6627   24.1347 H   0  0  0  0  0  0
  -27.4047  -29.7296   25.4958 H   0  0  0  0  0  0
  -27.9022  -30.4191   23.9712 H   0  0  0  0  0  0
  -27.2736  -33.3653   26.1980 H   0  0  0  0  0  0
  -28.3960  -32.6761   25.0338 H   0  0  0  0  0  0
  -28.0699  -31.8457   26.5460 H   0  0  0  0  0  0
  -28.2588  -38.0089   24.7588 H   0  0  0  0  0  0
  -28.1110  -36.2627   24.6234 H   0  0  0  0  0  0
  -27.2285  -37.1326   25.8852 H   0  0  0  0  0  0
  -20.9512  -29.8738   21.6720 H   0  0  0  0  0  0
  -26.0172  -38.2803   24.1465 H   0  0  0  0  0  0
  -30.6421  -24.4446   20.5601 H   0  0  0  0  0  0
  -29.5194  -18.5646   22.3995 H   0  0  0  0  0  0
  -27.8299  -18.6478   21.9742 H   0  0  0  0  0  0
  -27.8515  -16.3763   21.0708 H   0  0  0  0  0  0
  -28.9965  -16.2136   22.3812 H   0  0  0  0  0  0
  -31.2338  -17.8577   20.2108 H   0  0  0  0  0  0
  -30.2775  -17.6774   18.7805 H   0  0  0  0  0  0
  -28.3628  -18.9303   19.6599 H   0  0  0  0  0  0
  -31.9176  -19.5225   21.5694 H   0  0  0  0  0  0
  -32.9884  -20.7893   21.0021 H   0  0  0  0  0  0
  -32.3072  -19.6862   19.8296 H   0  0  0  0  0  0
  -27.1187  -24.3008   20.8710 H   0  0  0  0  0  0
  -27.4196  -24.3130   19.1636 H   0  0  0  0  0  0
  1 25  1  0  0  0
  1 30  2  0  0  0
  1 83  1  0  0  0
  2  3  1  0  0  0
  2 25  1  0  0  0
  2 84  1  0  0  0
  2 85  1  0  0  0
  3  4  1  0  0  0
  3 86  1  0  0  0
  3 87  1  0  0  0
  4  5  1  0  0  0
  4 88  1  0  0  0
  4 89  1  0  0  0
  5  6  1  0  0  0
  5 26  1  0  0  0
  5 90  1  0  0  0
  6 25  1  0  0  0
  6 91  1  0  0  0
  6 92  1  0  0  0
  7  8  2  0  0  0
  7 26  1  0  0  0
  7 29  1  0  0  0
  8  9  1  0  0  0
  8 22  1  0  0  0
  9 10  1  0  0  0
  9 27  2  0  0  0
 10 11  2  0  0  0
 10 15  1  0  0  0
 11 12  1  0  0  0
 11 93  1  0  0  0
 12 13  2  0  0  0
 12 94  1  0  0  0
 13 14  1  0  0  0
 13 31  1  0  0  0
 14 15  2  0  0  0
 14 95  1  0  0  0
 15 96  1  0  0  0
 16 17  2  0  0  0
 16 21  1  0  0  0
 16 31  1  0  0  0
 17 18  1  0  0  0
 17 97  1  0  0  0
 18 19  2  0  0  0
 18 98  1  0  0  0
 19 20  1  0  0  0
 19 24  1  0  0  0
 20 21  2  0  0  0
 20 99  1  0  0  0
 21 23  1  0  0  0
 22 28  1  0  0  0
 22 32  2  0  0  0
 26 27  1  0  0  0
 28100  1  0  0  0
 28101  1  0  0  0
 29102  1  0  0  0
 29103  1  0  0  0
 33 34  1  0  0  0
 33 66  1  0  0  0
 33 70  2  0  0  0
 34 36  1  0  0  0
 34 59  1  0  0  0
 34104  1  0  0  0
 35 44  2  0  0  0
 35 45  1  0  0  0
 35 68  1  0  0  0
 36 56  1  0  0  0
 36105  1  0  0  0
 37 39  1  0  0  0
 37 47  1  0  0  0
 37 66  1  0  0  0
 37106  1  0  0  0
 38 43  2  0  0  0
 38 46  1  0  0  0
 38 47  1  0  0  0
 39 64  1  0  0  0
 39 67  2  0  0  0
 40 52  1  0  0  0
 40 53  2  0  0  0
 40 58  1  0  0  0
 41107  1  0  0  0
 41108  1  0  0  0
 41109  1  0  0  0
 41 48  1  0  0  0
 42 43  1  0  0  0
 42 66  1  0  0  0
 42110  1  0  0  0
 42111  1  0  0  0
 43 44  1  0  0  0
 44112  1  0  0  0
 45 46  2  0  0  0
 45113  1  0  0  0
 46114  1  0  0  0
 47115  1  0  0  0
 47116  1  0  0  0
 48 56  1  0  0  0
 48 65  1  0  0  0
 48117  1  0  0  0
 49 50  1  0  0  0
 49 53  1  0  0  0
 49 64  1  0  0  0
 49118  1  0  0  0
 50 51  1  0  0  0
 50119  1  0  0  0
 50120  1  0  0  0
 51 52  1  0  0  0
 51121  1  0  0  0
 51122  1  0  0  0
 52123  1  0  0  0
 52124  1  0  0  0
 53 54  1  0  0  0
 54 55  2  0  0  0
 54125  1  0  0  0
 55 57  1  0  0  0
 55126  1  0  0  0
 56 69  2  0  0  0
 57 58  2  0  0  0
 57127  1  0  0  0
 58128  1  0  0  0
 59 60  1  0  0  0
 59 61  1  0  0  0
 59 62  1  0  0  0
 60129  1  0  0  0
 60130  1  0  0  0
 60131  1  0  0  0
 61132  1  0  0  0
 61133  1  0  0  0
 61134  1  0  0  0
 62135  1  0  0  0
 62136  1  0  0  0
 62137  1  0  0  0
 63 65  1  0  0  0
 63138  1  0  0  0
 63139  1  0  0  0
 63140  1  0  0  0
 64141  1  0  0  0
 65142  1  0  0  0
 68 80  1  0  0  0
 71 73  2  0  0  0
 71 81  1  0  0  0
 71143  1  0  0  0
 72 74  1  0  0  0
 72 82  2  0  0  0
 72 78  1  0  0  0
 73 80  1  0  0  0
 73 82  1  0  0  0
 74 79  1  0  0  0
 74 81  2  0  0  0
 75 76  1  0  0  0
 75 78  1  0  0  0
 75144  1  0  0  0
 75145  1  0  0  0
 76 83  1  0  0  0
 76146  1  0  0  0
 76147  1  0  0  0
 77 78  1  0  0  0
 77 83  1  0  0  0
 77148  1  0  0  0
 77149  1  0  0  0
 78150  1  0  0  0
 79151  1  0  0  0
 79152  1  0  0  0
 79153  1  0  0  0
 80154  1  0  0  0
 80155  1  0  0  0
M  ISO  4   1 100  68 101  80 101  83 100
M  END
> <chiral flag>
0

> <version>
0

> <s_m_source_file>
/data/baiqing/PycharmProjects/Reinvent-master-3.2/result/LINK_invent/BTK/process_docking_weight1_custom_sum_contain_oxygen_bond_distance_aromatic_linkinvent_7_9_3/rearranged_h_0182.sdf

> <i_m_source_file_index>
28

> <r_mmod_Potential_Energy-OPLS-2005>
944.363830566406

> <r_mmod_Stretch_Energy-OPLS-2005>
343.669281005859

> <r_mmod_Bend_Energy-OPLS-2005>
332.961547851562

> <r_mmod_Torsional_Energy-OPLS-2005>
308.072357177734

> <r_mmod_Improper_Torsional_Energy-OPLS-2005>
10.001935005188

> <r_mmod_Van_der_Waal_Energy-OPLS-2005>
128.134155273438

> <r_mmod_Electrostatic_Energy-OPLS-2005>
-214.964508056641

> <r_mmod_Solvation_Energy-OPLS-2005>
-221.15544128418

> <b_mmod_Minimization_Converged-OPLS-2005>
0

> <r_mmod_RMS_Derivative-OPLS-2005>
3.22692894935608

$$$$
28
                    3D
 Structure written by MMmdl.
154163  0  0  1  0            999 V2000
  -30.5312  -15.1745   20.3793 C   0  0  0  0  0  0
  -30.4199  -12.7570   19.4998 C   0  0  0  0  0  0
  -29.5160  -12.5558   18.2635 C   0  0  0  0  0  0
  -28.0642  -12.3003   18.7001 C   0  0  0  0  0  0
  -27.6062  -13.2739   19.8160 C   0  0  2  0  0  0
  -28.6481  -13.4509   20.9396 C   0  0  0  0  0  0
  -25.2388  -13.8254   20.5784 C   0  0  0  0  0  0
  -24.1733  -13.0436   20.9258 C   0  0  0  0  0  0
  -24.6388  -11.6934   20.8762 C   0  0  0  0  0  0
  -23.9087  -10.4293   21.0401 C   0  0  0  0  0  0
  -24.3634   -9.4208   21.9181 C   0  0  0  0  0  0
  -23.6306   -8.2244   22.0751 C   0  0  0  0  0  0
  -22.4288   -8.0280   21.3542 C   0  0  0  0  0  0
  -21.9924   -9.0252   20.4646 C   0  0  0  0  0  0
  -22.7255  -10.2131   20.3055 C   0  0  0  0  0  0
  -21.6859   -6.0740   22.5279 C   0  0  0  0  0  0
  -21.4016   -6.5640   23.8212 C   0  0  0  0  0  0
  -21.3662   -5.6792   24.9173 C   0  0  0  0  0  0
  -21.6043   -4.3055   24.7223 C   0  0  0  0  0  0
  -21.8822   -3.8149   23.4345 C   0  0  0  0  0  0
  -21.9193   -4.6967   22.3401 C   0  0  0  0  0  0
  -22.7753  -13.5188   21.1902 C   0  0  0  0  0  0
  -22.1663   -4.2151   21.0979 F   0  0  0  0  0  0
  -21.5628   -3.4541   25.7737 F   0  0  0  0  0  0
  -29.8802  -13.9203   20.2907 N   0  0  0  0  0  0
  -26.2802  -12.9527   20.3238 N   0  0  0  0  0  0
  -25.9321  -11.6631   20.5727 N   0  0  0  0  0  0
  -22.0421  -12.8165   22.0459 N   0  0  0  0  0  0
  -25.4045  -15.1990   20.4273 N   0  0  0  0  0  0
  -31.7599  -15.0750   20.2520 O   0  0  0  0  0  0
  -21.6647   -6.8882   21.4241 O   0  0  0  0  0  0
  -22.3434  -14.5493   20.6749 O   0  0  0  0  0  0
  -24.6569  -31.8301   23.1749 C   0  0  0  0  0  0
  -25.9279  -32.4622   23.8194 C   0  0  1  0  0  0
  -27.2095  -26.9846   20.1830 C   0  0  0  0  0  0
  -25.5976  -33.8434   24.2113 N   0  0  0  0  0  0
  -23.4678  -30.4437   21.5245 C   0  0  2  0  0  0
  -24.9183  -28.8386   20.1173 C   0  0  0  0  0  0
  -22.7633  -29.4477   22.4811 C   0  0  0  0  0  0
  -18.0314  -28.1408   22.8468 C   0  0  0  0  0  0
  -24.1496  -36.7222   23.2645 C   0  0  0  0  0  0
  -26.0333  -30.6566   21.3941 C   0  0  0  0  0  0
  -26.1019  -29.2501   20.7427 C   0  0  0  0  0  0
  -27.2485  -28.3447   20.7476 C   0  0  0  0  0  0
  -25.9974  -26.7087   19.5153 C   0  0  0  0  0  0
  -24.8866  -27.5865   19.4841 C   0  0  0  0  0  0
  -23.7038  -29.7614   20.1496 C   0  0  0  0  0  0
  -25.4132  -36.2988   24.0304 C   0  0  1  0  0  0
  -20.5936  -28.3748   23.1204 C   0  0  2  0  0  0
  -20.6795  -26.9437   22.5404 C   0  0  0  0  0  0
  -19.5771  -26.6382   21.5213 C   0  0  0  0  0  0
  -18.1951  -26.7942   22.1620 C   0  0  0  0  0  0
  -19.1575  -28.8899   23.2822 C   0  0  0  0  0  0
  -18.9486  -30.1491   23.8857 C   0  0  0  0  0  0
  -17.6480  -30.6599   24.0554 C   0  0  0  0  0  0
  -25.9090  -34.9368   23.5022 C   0  0  0  0  0  0
  -16.5370  -29.9087   23.6342 C   0  0  0  0  0  0
  -16.7296  -28.6510   23.0359 C   0  0  0  0  0  0
  -26.4554  -31.6533   25.0690 C   0  0  0  0  0  0
  -25.3696  -31.3760   26.1356 C   0  0  0  0  0  0
  -27.0435  -30.2905   24.6372 C   0  0  0  0  0  0
  -27.6063  -32.4322   25.7488 C   0  0  0  0  0  0
  -27.5569  -37.1768   24.8465 C   0  0  0  0  0  0
  -21.4311  -29.3044   22.3564 N   0  0  0  0  0  0
  -26.4280  -37.3717   23.9407 N   0  0  0  0  0  0
  -24.7407  -31.0022   22.0857 N   0  0  0  0  0  0
  -23.4209  -28.8032   23.3023 O   0  0  0  0  0  0
  -28.2335  -25.9222   20.1893 O   0  0  0  0  0  0
  -26.5691  -34.8888   22.4610 O   0  0  0  0  0  0
  -23.5653  -32.1249   23.6876 O   0  0  0  0  0  0
  -29.4346  -23.5923   18.5587 C   0  0  0  0  0  0
  -29.8658  -21.5018   18.5275 C   0  0  0  0  0  0
  -28.8329  -23.1119   19.7010 C   0  0  0  0  0  0
  -30.5036  -19.3048   20.6610 C   0  0  0  0  0  0
  -28.5042  -18.7978   19.6028 C   0  0  0  0  0  0
  -30.6462  -17.7293   21.1482 C   0  0  0  0  0  0
  -28.6299  -17.1924   20.0709 C   0  0  0  0  0  0
  -29.1063  -20.0872   20.4111 C   0  0  0  0  0  0
  -27.9896  -24.3424   20.4907 C   0  0  0  0  0  0
  -30.0632  -22.6044   17.8294 N   0  0  0  0  0  0
  -29.1830  -21.5770   19.6877 N   0  0  0  0  0  0
  -29.9426  -16.5320   20.4990 N   0  0  0  0  0  0
  -31.4450  -12.9254   19.1666 H   0  0  0  0  0  0
  -30.4560  -11.8511   20.1073 H   0  0  0  0  0  0
  -29.8771  -11.7256   17.6549 H   0  0  0  0  0  0
  -29.5594  -13.4434   17.6302 H   0  0  0  0  0  0
  -28.0076  -11.2735   19.0632 H   0  0  0  0  0  0
  -27.3922  -12.3571   17.8429 H   0  0  0  0  0  0
  -27.5188  -14.2402   19.3186 H   0  0  0  0  0  0
  -28.8050  -12.5252   21.4951 H   0  0  0  0  0  0
  -28.3073  -14.1971   21.6590 H   0  0  0  0  0  0
  -25.2773   -9.5687   22.4764 H   0  0  0  0  0  0
  -24.0015   -7.4636   22.7467 H   0  0  0  0  0  0
  -21.0857   -8.8767   19.8953 H   0  0  0  0  0  0
  -22.3703  -10.9670   19.6169 H   0  0  0  0  0  0
  -21.2012   -7.6149   23.9714 H   0  0  0  0  0  0
  -21.1481   -6.0524   25.9074 H   0  0  0  0  0  0
  -22.0600   -2.7612   23.2843 H   0  0  0  0  0  0
  -22.4061  -11.9831   22.4838 H   0  0  0  0  0  0
  -21.1032  -13.1162   22.2666 H   0  0  0  0  0  0
  -24.6423  -15.8533   20.5662 H   0  0  0  0  0  0
  -26.2618  -15.6449   20.1304 H   0  0  0  0  0  0
  -26.7341  -32.5185   23.0906 H   0  0  0  0  0  0
  -25.0098  -33.9523   25.0246 H   0  0  0  0  0  0
  -22.7778  -31.2733   21.3568 H   0  0  0  0  0  0
  -23.3766  -35.9544   23.3284 H   0  0  0  0  0  0
  -24.3577  -36.8888   22.2064 H   0  0  0  0  0  0
  -23.7247  -37.6404   23.6709 H   0  0  0  0  0  0
  -26.2010  -31.3991   20.6129 H   0  0  0  0  0  0
  -26.8982  -30.7174   22.0428 H   0  0  0  0  0  0
  -28.1523  -28.6608   21.2490 H   0  0  0  0  0  0
  -25.8874  -25.7555   19.0192 H   0  0  0  0  0  0
  -23.9862  -27.2680   18.9774 H   0  0  0  0  0  0
  -23.8573  -30.5302   19.3916 H   0  0  0  0  0  0
  -22.8157  -29.2130   19.8322 H   0  0  0  0  0  0
  -25.1326  -36.1793   25.0795 H   0  0  0  0  0  0
  -21.0013  -28.3347   24.1330 H   0  0  0  0  0  0
  -20.5690  -26.2360   23.3635 H   0  0  0  0  0  0
  -21.6660  -26.7429   22.1203 H   0  0  0  0  0  0
  -19.6933  -25.6282   21.1272 H   0  0  0  0  0  0
  -19.6712  -27.3169   20.6724 H   0  0  0  0  0  0
  -17.4220  -26.6682   21.4023 H   0  0  0  0  0  0
  -18.0349  -26.0095   22.9031 H   0  0  0  0  0  0
  -19.7961  -30.7318   24.2207 H   0  0  0  0  0  0
  -17.5030  -31.6273   24.5170 H   0  0  0  0  0  0
  -15.5370  -30.2973   23.7694 H   0  0  0  0  0  0
  -15.8693  -28.0811   22.7095 H   0  0  0  0  0  0
  -24.5902  -30.7086   25.7657 H   0  0  0  0  0  0
  -24.8859  -32.2952   26.4668 H   0  0  0  0  0  0
  -25.7940  -30.9001   27.0205 H   0  0  0  0  0  0
  -26.3081  -29.6600   24.1363 H   0  0  0  0  0  0
  -27.3973  -29.7249   25.5002 H   0  0  0  0  0  0
  -27.9022  -30.4099   23.9762 H   0  0  0  0  0  0
  -27.2652  -33.3668   26.1953 H   0  0  0  0  0  0
  -28.3933  -32.6806   25.0354 H   0  0  0  0  0  0
  -28.0664  -31.8519   26.5497 H   0  0  0  0  0  0
  -28.2566  -38.0081   24.7505 H   0  0  0  0  0  0
  -28.1083  -36.2606   24.6299 H   0  0  0  0  0  0
  -27.2283  -37.1419   25.8866 H   0  0  0  0  0  0
  -20.9557  -29.8742   21.6707 H   0  0  0  0  0  0
  -26.0134  -38.2778   24.1411 H   0  0  0  0  0  0
  -29.4306  -24.6081   18.1865 H   0  0  0  0  0  0
  -30.2584  -20.5707   18.1474 H   0  0  0  0  0  0
  -31.0913  -19.3626   19.7458 H   0  0  0  0  0  0
  -31.0734  -19.9070   21.3694 H   0  0  0  0  0  0
  -27.4436  -18.9986   19.4481 H   0  0  0  0  0  0
  -28.9182  -18.8280   18.5952 H   0  0  0  0  0  0
  -30.3504  -17.6963   22.1976 H   0  0  0  0  0  0
  -31.7136  -17.5049   21.1637 H   0  0  0  0  0  0
  -28.2277  -16.5835   19.2604 H   0  0  0  0  0  0
  -27.9425  -17.0422   20.9041 H   0  0  0  0  0  0
  -28.5776  -20.2032   21.3579 H   0  0  0  0  0  0
  -28.1485  -24.2160   21.5616 H   0  0  0  0  0  0
  -26.9266  -24.1478   20.3514 H   0  0  0  0  0  0
  1 25  1  0  0  0
  1 30  2  0  0  0
  1 82  1  0  0  0
  2  3  1  0  0  0
  2 25  1  0  0  0
  2 83  1  0  0  0
  2 84  1  0  0  0
  3  4  1  0  0  0
  3 85  1  0  0  0
  3 86  1  0  0  0
  4  5  1  0  0  0
  4 87  1  0  0  0
  4 88  1  0  0  0
  5  6  1  0  0  0
  5 26  1  0  0  0
  5 89  1  0  0  0
  6 25  1  0  0  0
  6 90  1  0  0  0
  6 91  1  0  0  0
  7  8  2  0  0  0
  7 26  1  0  0  0
  7 29  1  0  0  0
  8  9  1  0  0  0
  8 22  1  0  0  0
  9 10  1  0  0  0
  9 27  2  0  0  0
 10 11  2  0  0  0
 10 15  1  0  0  0
 11 12  1  0  0  0
 11 92  1  0  0  0
 12 13  2  0  0  0
 12 93  1  0  0  0
 13 14  1  0  0  0
 13 31  1  0  0  0
 14 15  2  0  0  0
 14 94  1  0  0  0
 15 95  1  0  0  0
 16 17  2  0  0  0
 16 21  1  0  0  0
 16 31  1  0  0  0
 17 18  1  0  0  0
 17 96  1  0  0  0
 18 19  2  0  0  0
 18 97  1  0  0  0
 19 20  1  0  0  0
 19 24  1  0  0  0
 20 21  2  0  0  0
 20 98  1  0  0  0
 21 23  1  0  0  0
 22 28  1  0  0  0
 22 32  2  0  0  0
 26 27  1  0  0  0
 28 99  1  0  0  0
 28100  1  0  0  0
 29101  1  0  0  0
 29102  1  0  0  0
 33 34  1  0  0  0
 33 66  1  0  0  0
 33 70  2  0  0  0
 34 36  1  0  0  0
 34 59  1  0  0  0
 34103  1  0  0  0
 35 44  2  0  0  0
 35 45  1  0  0  0
 35 68  1  0  0  0
 36 56  1  0  0  0
 36104  1  0  0  0
 37 39  1  0  0  0
 37 47  1  0  0  0
 37 66  1  0  0  0
 37105  1  0  0  0
 38 43  2  0  0  0
 38 46  1  0  0  0
 38 47  1  0  0  0
 39 64  1  0  0  0
 39 67  2  0  0  0
 40 52  1  0  0  0
 40 53  2  0  0  0
 40 58  1  0  0  0
 41106  1  0  0  0
 41107  1  0  0  0
 41108  1  0  0  0
 41 48  1  0  0  0
 42 43  1  0  0  0
 42 66  1  0  0  0
 42109  1  0  0  0
 42110  1  0  0  0
 43 44  1  0  0  0
 44111  1  0  0  0
 45 46  2  0  0  0
 45112  1  0  0  0
 46113  1  0  0  0
 47114  1  0  0  0
 47115  1  0  0  0
 48 56  1  0  0  0
 48 65  1  0  0  0
 48116  1  0  0  0
 49 50  1  0  0  0
 49 53  1  0  0  0
 49 64  1  0  0  0
 49117  1  0  0  0
 50 51  1  0  0  0
 50118  1  0  0  0
 50119  1  0  0  0
 51 52  1  0  0  0
 51120  1  0  0  0
 51121  1  0  0  0
 52122  1  0  0  0
 52123  1  0  0  0
 53 54  1  0  0  0
 54 55  2  0  0  0
 54124  1  0  0  0
 55 57  1  0  0  0
 55125  1  0  0  0
 56 69  2  0  0  0
 57 58  2  0  0  0
 57126  1  0  0  0
 58127  1  0  0  0
 59 60  1  0  0  0
 59 61  1  0  0  0
 59 62  1  0  0  0
 60128  1  0  0  0
 60129  1  0  0  0
 60130  1  0  0  0
 61131  1  0  0  0
 61132  1  0  0  0
 61133  1  0  0  0
 62134  1  0  0  0
 62135  1  0  0  0
 62136  1  0  0  0
 63 65  1  0  0  0
 63137  1  0  0  0
 63138  1  0  0  0
 63139  1  0  0  0
 64140  1  0  0  0
 65141  1  0  0  0
 68 79  1  0  0  0
 71 73  2  0  0  0
 71 80  1  0  0  0
 71142  1  0  0  0
 72 80  2  0  0  0
 72 81  1  0  0  0
 72143  1  0  0  0
 73 79  1  0  0  0
 73 81  1  0  0  0
 74 76  1  0  0  0
 74 78  1  0  0  0
 74144  1  0  0  0
 74145  1  0  0  0
 75 77  1  0  0  0
 75 78  1  0  0  0
 75146  1  0  0  0
 75147  1  0  0  0
 76 82  1  0  0  0
 76148  1  0  0  0
 76149  1  0  0  0
 77 82  1  0  0  0
 77150  1  0  0  0
 77151  1  0  0  0
 78 81  1  0  0  0
 78152  1  0  0  0
 79153  1  0  0  0
 79154  1  0  0  0
M  ISO  4   1 100  68 101  79 101  82 100
M  END
> <chiral flag>
0

> <version>
0

> <s_m_source_file>
/data/baiqing/PycharmProjects/Reinvent-master-3.2/result/LINK_invent/BTK/process_docking_weight1_custom_sum_contain_oxygen_bond_distance_aromatic_linkinvent_7_9_3/rearranged_h_0182.sdf

> <i_m_source_file_index>
29

> <r_mmod_Potential_Energy-OPLS-2005>
1346.98095703125

> <r_mmod_Stretch_Energy-OPLS-2005>
464.518493652344

> <r_mmod_Bend_Energy-OPLS-2005>
515.029052734375

> <r_mmod_Torsional_Energy-OPLS-2005>
360.3056640625

> <r_mmod_Improper_Torsional_Energy-OPLS-2005>
2.11408996582031

> <r_mmod_Van_der_Waal_Energy-OPLS-2005>
113.321495056152

> <r_mmod_Electrostatic_Energy-OPLS-2005>
-252.418716430664

> <r_mmod_Solvation_Energy-OPLS-2005>
-224.353942871094

> <b_mmod_Minimization_Converged-OPLS-2005>
0

> <r_mmod_RMS_Derivative-OPLS-2005>
1.00016295909882

$$$$
29
                    3D
 Structure written by MMmdl.
162171  0  0  1  0            999 V2000
  -30.6725  -14.8015   20.4436 C   0  0  0  0  0  0
  -30.4587  -12.5123   19.4569 C   0  0  0  0  0  0
  -29.5147  -12.4836   18.2345 C   0  0  0  0  0  0
  -28.0461  -12.2850   18.6623 C   0  0  0  0  0  0
  -27.6518  -13.1860   19.8612 C   0  0  2  0  0  0
  -28.7277  -13.1692   20.9790 C   0  0  0  0  0  0
  -25.2619  -13.7991   20.5705 C   0  0  0  0  0  0
  -24.1887  -13.0333   20.9225 C   0  0  0  0  0  0
  -24.6362  -11.6816   20.8787 C   0  0  0  0  0  0
  -23.8990  -10.4231   21.0455 C   0  0  0  0  0  0
  -24.3496   -9.4174   21.9229 C   0  0  0  0  0  0
  -23.6211   -8.2181   22.0776 C   0  0  0  0  0  0
  -22.4221   -8.0244   21.3515 C   0  0  0  0  0  0
  -21.9865   -9.0218   20.4616 C   0  0  0  0  0  0
  -22.7164  -10.2106   20.3044 C   0  0  0  0  0  0
  -21.6805   -6.0696   22.5233 C   0  0  0  0  0  0
  -21.3969   -6.5617   23.8173 C   0  0  0  0  0  0
  -21.3672   -5.6759   24.9141 C   0  0  0  0  0  0
  -21.6093   -4.3023   24.7181 C   0  0  0  0  0  0
  -21.8827   -3.8119   23.4328 C   0  0  0  0  0  0
  -21.9164   -4.6935   22.3387 C   0  0  0  0  0  0
  -22.7901  -13.5340   21.1814 C   0  0  0  0  0  0
  -22.1615   -4.2109   21.0936 F   0  0  0  0  0  0
  -21.5664   -3.4522   25.7713 F   0  0  0  0  0  0
  -29.9934  -13.5965   20.3597 N   0  0  0  0  0  0
  -26.3031  -12.9087   20.3404 N   0  0  0  0  0  0
  -25.9291  -11.6305   20.5860 N   0  0  0  0  0  0
  -22.0465  -12.8273   22.0343 N   0  0  0  0  0  0
  -25.4359  -15.1680   20.3955 N   0  0  0  0  0  0
  -31.8824  -14.8058   20.2025 O   0  0  0  0  0  0
  -21.6582   -6.8836   21.4206 O   0  0  0  0  0  0
  -22.3723  -14.5628   20.6740 O   0  0  0  0  0  0
  -24.6415  -31.8589   23.2193 C   0  0  0  0  0  0
  -25.9267  -32.4776   23.8485 C   0  0  1  0  0  0
  -27.1762  -27.2262   20.1002 C   0  0  0  0  0  0
  -25.6144  -33.8562   24.2476 N   0  0  0  0  0  0
  -23.4340  -30.5006   21.5590 C   0  0  2  0  0  0
  -24.8760  -28.9746   20.1174 C   0  0  0  0  0  0
  -22.7471  -29.4698   22.4907 C   0  0  0  0  0  0
  -18.0254  -28.1345   22.8549 C   0  0  0  0  0  0
  -24.1443  -36.7156   23.2674 C   0  0  0  0  0  0
  -25.9905  -30.7654   21.4080 C   0  0  0  0  0  0
  -26.0505  -29.3877   20.7427 C   0  0  0  0  0  0
  -27.2123  -28.5259   20.7425 C   0  0  0  0  0  0
  -25.9859  -26.9474   19.3901 C   0  0  0  0  0  0
  -24.8478  -27.7619   19.4231 C   0  0  0  0  0  0
  -23.6512  -29.8628   20.1676 C   0  0  0  0  0  0
  -25.4085  -36.3060   24.0402 C   0  0  1  0  0  0
  -20.5887  -28.3713   23.1206 C   0  0  2  0  0  0
  -20.6772  -26.9434   22.5343 C   0  0  0  0  0  0
  -19.5737  -26.6381   21.5175 C   0  0  0  0  0  0
  -18.1922  -26.7913   22.1598 C   0  0  0  0  0  0
  -19.1544  -28.8849   23.2907 C   0  0  0  0  0  0
  -18.9443  -30.1424   23.8937 C   0  0  0  0  0  0
  -17.6459  -30.6603   24.0517 C   0  0  0  0  0  0
  -25.9076  -34.9417   23.5179 C   0  0  0  0  0  0
  -16.5327  -29.9076   23.6327 C   0  0  0  0  0  0
  -16.7248  -28.6438   23.0489 C   0  0  0  0  0  0
  -26.4718  -31.6560   25.0804 C   0  0  0  0  0  0
  -25.3986  -31.3437   26.1504 C   0  0  0  0  0  0
  -27.0763  -30.3075   24.6246 C   0  0  0  0  0  0
  -27.6309  -32.4284   25.7562 C   0  0  0  0  0  0
  -27.5530  -37.1756   24.8544 C   0  0  0  0  0  0
  -21.4250  -29.3075   22.3609 N   0  0  0  0  0  0
  -26.4238  -37.3785   23.9506 N   0  0  0  0  0  0
  -24.7068  -31.0573   22.1193 N   0  0  0  0  0  0
  -23.4204  -28.8176   23.3019 O   0  0  0  0  0  0
  -28.1976  -26.2172   20.1304 O   0  0  0  0  0  0
  -26.5498  -34.8887   22.4662 O   0  0  0  0  0  0
  -23.5533  -32.1397   23.7498 O   0  0  0  0  0  0
  -28.3015  -21.4008   19.0093 C   0  0  0  0  0  0
  -29.1406  -21.2079   20.0988 C   0  0  0  0  0  0
  -28.4545  -23.4271   19.9628 C   0  0  0  0  0  0
  -28.3830  -17.8250   20.7494 C   0  0  0  0  0  0
  -28.5898  -16.3313   20.4789 C   0  0  0  0  0  0
  -30.6771  -17.4273   20.4914 C   0  0  0  0  0  0
  -29.5967  -18.5713   20.1872 C   0  0  2  0  0  0
  -26.2842  -19.8333   18.8605 C   0  0  0  0  0  0
  -29.9279  -22.8210   21.9397 C   0  0  0  0  0  0
  -27.5391  -20.4097   18.1337 C   0  0  0  0  0  0
  -27.7060  -24.7888   20.4133 C   0  0  0  0  0  0
  -28.0004  -22.7695   18.8838 N   0  0  0  0  0  0
  -29.2278  -22.5218   20.6910 N   0  0  0  0  0  0
  -30.0219  -16.0479   20.5665 N   0  0  0  0  0  0
  -29.7562  -20.0031   20.6874 N   0  0  0  0  0  0
  -31.4844  -12.6731   19.1227 H   0  0  0  0  0  0
  -30.4662  -11.5573   19.9769 H   0  0  0  0  0  0
  -29.8191  -11.6782   17.5647 H   0  0  0  0  0  0
  -29.6111  -13.4070   17.6662 H   0  0  0  0  0  0
  -27.9104  -11.2353   18.9282 H   0  0  0  0  0  0
  -27.3790  -12.4633   17.8163 H   0  0  0  0  0  0
  -27.6153  -14.1767   19.4335 H   0  0  0  0  0  0
  -28.8488  -12.1672   21.3989 H   0  0  0  0  0  0
  -28.4733  -13.7939   21.8352 H   0  0  0  0  0  0
  -25.2582   -9.5680   22.4896 H   0  0  0  0  0  0
  -23.9888   -7.4592   22.7481 H   0  0  0  0  0  0
  -21.0808   -8.8730   19.8891 H   0  0  0  0  0  0
  -22.3619  -10.9643   19.6187 H   0  0  0  0  0  0
  -21.1912   -7.6091   23.9669 H   0  0  0  0  0  0
  -21.1516   -6.0485   25.9055 H   0  0  0  0  0  0
  -22.0619   -2.7574   23.2803 H   0  0  0  0  0  0
  -22.3934  -11.9793   22.4491 H   0  0  0  0  0  0
  -21.1135  -13.1413   22.2525 H   0  0  0  0  0  0
  -24.6883  -15.8320   20.5706 H   0  0  0  0  0  0
  -26.2766  -15.5890   20.0290 H   0  0  0  0  0  0
  -26.7306  -32.5468   23.1198 H   0  0  0  0  0  0
  -25.0765  -33.9742   25.0923 H   0  0  0  0  0  0
  -22.7360  -31.3306   21.4246 H   0  0  0  0  0  0
  -23.3804  -35.9381   23.3317 H   0  0  0  0  0  0
  -24.3530  -36.8744   22.2099 H   0  0  0  0  0  0
  -23.7026  -37.6289   23.6641 H   0  0  0  0  0  0
  -26.1266  -31.5270   20.6408 H   0  0  0  0  0  0
  -26.8710  -30.8152   22.0357 H   0  0  0  0  0  0
  -28.0949  -28.8358   21.2810 H   0  0  0  0  0  0
  -25.8579  -26.0970   18.7414 H   0  0  0  0  0  0
  -23.9679  -27.4757   18.8699 H   0  0  0  0  0  0
  -23.7751  -30.6515   19.4238 H   0  0  0  0  0  0
  -22.7702  -29.3016   19.8609 H   0  0  0  0  0  0
  -25.1240  -36.1911   25.0892 H   0  0  0  0  0  0
  -21.0019  -28.3222   24.1312 H   0  0  0  0  0  0
  -20.5658  -26.2336   23.3557 H   0  0  0  0  0  0
  -21.6624  -26.7452   22.1098 H   0  0  0  0  0  0
  -19.6914  -25.6280   21.1243 H   0  0  0  0  0  0
  -19.6647  -27.3161   20.6684 H   0  0  0  0  0  0
  -17.4209  -26.6710   21.3993 H   0  0  0  0  0  0
  -18.0291  -25.9961   22.8908 H   0  0  0  0  0  0
  -19.7919  -30.7226   24.2353 H   0  0  0  0  0  0
  -17.5010  -31.6329   24.5049 H   0  0  0  0  0  0
  -15.5333  -30.3038   23.7642 H   0  0  0  0  0  0
  -15.8611  -28.0715   22.7374 H   0  0  0  0  0  0
  -24.6363  -30.6622   25.7731 H   0  0  0  0  0  0
  -24.8990  -32.2441   26.5054 H   0  0  0  0  0  0
  -25.8419  -30.8557   27.0203 H   0  0  0  0  0  0
  -26.3504  -29.6684   24.1244 H   0  0  0  0  0  0
  -27.4596  -29.7419   25.4757 H   0  0  0  0  0  0
  -27.9237  -30.4561   23.9542 H   0  0  0  0  0  0
  -27.3127  -33.3762   26.1888 H   0  0  0  0  0  0
  -28.4263  -32.6472   25.0428 H   0  0  0  0  0  0
  -28.0811  -31.8508   26.5651 H   0  0  0  0  0  0
  -28.2548  -38.0072   24.7669 H   0  0  0  0  0  0
  -28.1014  -36.2589   24.6281 H   0  0  0  0  0  0
  -27.2243  -37.1298   25.8950 H   0  0  0  0  0  0
  -20.9402  -29.8749   21.6767 H   0  0  0  0  0  0
  -26.0085  -38.2834   24.1561 H   0  0  0  0  0  0
  -28.2431  -18.0383   21.8136 H   0  0  0  0  0  0
  -27.4613  -18.0263   20.2316 H   0  0  0  0  0  0
  -28.2801  -16.1806   19.4400 H   0  0  0  0  0  0
  -27.9342  -15.7614   21.1379 H   0  0  0  0  0  0
  -31.1974  -17.6268   21.4300 H   0  0  0  0  0  0
  -31.4429  -17.4393   19.7100 H   0  0  0  0  0  0
  -29.5308  -18.6169   19.0998 H   0  0  0  0  0  0
  -25.9561  -18.8608   18.4647 H   0  0  0  0  0  0
  -25.4374  -20.5209   18.8401 H   0  0  0  0  0  0
  -26.4892  -19.7256   19.9275 H   0  0  0  0  0  0
  -29.2334  -22.6595   22.7715 H   0  0  0  0  0  0
  -30.2481  -23.8674   21.8991 H   0  0  0  0  0  0
  -30.8138  -22.1859   22.0832 H   0  0  0  0  0  0
  -28.1965  -19.6340   17.7368 H   0  0  0  0  0  0
  -27.1699  -20.9206   17.2372 H   0  0  0  0  0  0
  -27.1972  -24.6857   21.3884 H   0  0  0  0  0  0
  -26.8690  -24.6810   19.7411 H   0  0  0  0  0  0
  -30.1669  -20.0946   21.6163 H   0  0  0  0  0  0
  1 25  1  0  0  0
  1 30  2  0  0  0
  1 84  1  0  0  0
  2  3  1  0  0  0
  2 25  1  0  0  0
  2 86  1  0  0  0
  2 87  1  0  0  0
  3  4  1  0  0  0
  3 88  1  0  0  0
  3 89  1  0  0  0
  4  5  1  0  0  0
  4 90  1  0  0  0
  4 91  1  0  0  0
  5  6  1  0  0  0
  5 26  1  0  0  0
  5 92  1  0  0  0
  6 25  1  0  0  0
  6 93  1  0  0  0
  6 94  1  0  0  0
  7  8  2  0  0  0
  7 26  1  0  0  0
  7 29  1  0  0  0
  8  9  1  0  0  0
  8 22  1  0  0  0
  9 10  1  0  0  0
  9 27  2  0  0  0
 10 11  2  0  0  0
 10 15  1  0  0  0
 11 12  1  0  0  0
 11 95  1  0  0  0
 12 13  2  0  0  0
 12 96  1  0  0  0
 13 14  1  0  0  0
 13 31  1  0  0  0
 14 15  2  0  0  0
 14 97  1  0  0  0
 15 98  1  0  0  0
 16 17  2  0  0  0
 16 21  1  0  0  0
 16 31  1  0  0  0
 17 18  1  0  0  0
 17 99  1  0  0  0
 18 19  2  0  0  0
 18100  1  0  0  0
 19 20  1  0  0  0
 19 24  1  0  0  0
 20 21  2  0  0  0
 20101  1  0  0  0
 21 23  1  0  0  0
 22 28  1  0  0  0
 22 32  2  0  0  0
 26 27  1  0  0  0
 28102  1  0  0  0
 28103  1  0  0  0
 29104  1  0  0  0
 29105  1  0  0  0
 33 34  1  0  0  0
 33 66  1  0  0  0
 33 70  2  0  0  0
 34 36  1  0  0  0
 34 59  1  0  0  0
 34106  1  0  0  0
 35 44  2  0  0  0
 35 45  1  0  0  0
 35 68  1  0  0  0
 36 56  1  0  0  0
 36107  1  0  0  0
 37 39  1  0  0  0
 37 47  1  0  0  0
 37 66  1  0  0  0
 37108  1  0  0  0
 38 43  2  0  0  0
 38 46  1  0  0  0
 38 47  1  0  0  0
 39 64  1  0  0  0
 39 67  2  0  0  0
 40 52  1  0  0  0
 40 53  2  0  0  0
 40 58  1  0  0  0
 41109  1  0  0  0
 41110  1  0  0  0
 41111  1  0  0  0
 41 48  1  0  0  0
 42 43  1  0  0  0
 42 66  1  0  0  0
 42112  1  0  0  0
 42113  1  0  0  0
 43 44  1  0  0  0
 44114  1  0  0  0
 45 46  2  0  0  0
 45115  1  0  0  0
 46116  1  0  0  0
 47117  1  0  0  0
 47118  1  0  0  0
 48 56  1  0  0  0
 48 65  1  0  0  0
 48119  1  0  0  0
 49 50  1  0  0  0
 49 53  1  0  0  0
 49 64  1  0  0  0
 49120  1  0  0  0
 50 51  1  0  0  0
 50121  1  0  0  0
 50122  1  0  0  0
 51 52  1  0  0  0
 51123  1  0  0  0
 51124  1  0  0  0
 52125  1  0  0  0
 52126  1  0  0  0
 53 54  1  0  0  0
 54 55  2  0  0  0
 54127  1  0  0  0
 55 57  1  0  0  0
 55128  1  0  0  0
 56 69  2  0  0  0
 57 58  2  0  0  0
 57129  1  0  0  0
 58130  1  0  0  0
 59 60  1  0  0  0
 59 61  1  0  0  0
 59 62  1  0  0  0
 60131  1  0  0  0
 60132  1  0  0  0
 60133  1  0  0  0
 61134  1  0  0  0
 61135  1  0  0  0
 61136  1  0  0  0
 62137  1  0  0  0
 62138  1  0  0  0
 62139  1  0  0  0
 63 65  1  0  0  0
 63140  1  0  0  0
 63141  1  0  0  0
 63142  1  0  0  0
 64143  1  0  0  0
 65144  1  0  0  0
 68 81  1  0  0  0
 71 72  2  0  0  0
 71 80  1  0  0  0
 71 82  1  0  0  0
 72 83  1  0  0  0
 72 85  1  0  0  0
 73 81  1  0  0  0
 73 82  2  0  0  0
 73 83  1  0  0  0
 74 75  1  0  0  0
 74 77  1  0  0  0
 74145  1  0  0  0
 74146  1  0  0  0
 75 84  1  0  0  0
 75147  1  0  0  0
 75148  1  0  0  0
 76 77  1  0  0  0
 76 84  1  0  0  0
 76149  1  0  0  0
 76150  1  0  0  0
 77 85  1  0  0  0
 77151  1  0  0  0
 78 80  1  0  0  0
 78152  1  0  0  0
 78153  1  0  0  0
 78154  1  0  0  0
 79 83  1  0  0  0
 79155  1  0  0  0
 79156  1  0  0  0
 79157  1  0  0  0
 80158  1  0  0  0
 80159  1  0  0  0
 81160  1  0  0  0
 81161  1  0  0  0
 85162  1  0  0  0
M  ISO  4   1 100  68 101  81 101  84 100
M  END
> <chiral flag>
0

> <version>
0

> <s_m_source_file>
/data/baiqing/PycharmProjects/Reinvent-master-3.2/result/LINK_invent/BTK/process_docking_weight1_custom_sum_contain_oxygen_bond_distance_aromatic_linkinvent_7_9_3/rearranged_h_0182.sdf

> <i_m_source_file_index>
30

> <r_mmod_Potential_Energy-OPLS-2005>
499.515014648438

> <r_mmod_Stretch_Energy-OPLS-2005>
167.128143310547

> <r_mmod_Bend_Energy-OPLS-2005>
287.497009277344

> <r_mmod_Torsional_Energy-OPLS-2005>
346.800598144531

> <r_mmod_Improper_Torsional_Energy-OPLS-2005>
11.7420740127563

> <r_mmod_Van_der_Waal_Energy-OPLS-2005>
133.205169677734

> <r_mmod_Electrostatic_Energy-OPLS-2005>
-339.292144775391

> <r_mmod_Solvation_Energy-OPLS-2005>
-231.695816040039

> <b_mmod_Minimization_Converged-OPLS-2005>
0

> <r_mmod_RMS_Derivative-OPLS-2005>
15.2948408126831

$$$$
30
                    3D
 Structure written by MMmdl.
153161  0  0  1  0            999 V2000
  -30.4057  -15.3223   20.3538 C   0  0  0  0  0  0
  -30.4374  -12.8443   19.5408 C   0  0  0  0  0  0
  -29.5430  -12.5933   18.2983 C   0  0  0  0  0  0
  -28.0937  -12.3005   18.7222 C   0  0  0  0  0  0
  -27.6101  -13.2795   19.8209 C   0  0  2  0  0  0
  -28.6362  -13.4765   20.9591 C   0  0  0  0  0  0
  -25.2390  -13.8250   20.5742 C   0  0  0  0  0  0
  -24.1745  -13.0438   20.9255 C   0  0  0  0  0  0
  -24.6400  -11.6936   20.8756 C   0  0  0  0  0  0
  -23.9091  -10.4296   21.0402 C   0  0  0  0  0  0
  -24.3635   -9.4214   21.9184 C   0  0  0  0  0  0
  -23.6305   -8.2252   22.0751 C   0  0  0  0  0  0
  -22.4286   -8.0294   21.3550 C   0  0  0  0  0  0
  -21.9930   -9.0264   20.4647 C   0  0  0  0  0  0
  -22.7264  -10.2138   20.3052 C   0  0  0  0  0  0
  -21.6859   -6.0749   22.5283 C   0  0  0  0  0  0
  -21.4023   -6.5644   23.8223 C   0  0  0  0  0  0
  -21.3650   -5.6791   24.9177 C   0  0  0  0  0  0
  -21.6042   -4.3054   24.7223 C   0  0  0  0  0  0
  -21.8817   -3.8153   23.4339 C   0  0  0  0  0  0
  -21.9192   -4.6974   22.3403 C   0  0  0  0  0  0
  -22.7760  -13.5204   21.1892 C   0  0  0  0  0  0
  -22.1664   -4.2162   21.0979 F   0  0  0  0  0  0
  -21.5616   -3.4534   25.7729 F   0  0  0  0  0  0
  -29.8664  -13.9970   20.3395 N   0  0  0  0  0  0
  -26.2808  -12.9529   20.3186 N   0  0  0  0  0  0
  -25.9337  -11.6627   20.5696 N   0  0  0  0  0  0
  -22.0403  -12.8201   22.0440 N   0  0  0  0  0  0
  -25.4019  -15.1988   20.4176 N   0  0  0  0  0  0
  -31.6181  -15.3290   20.0925 O   0  0  0  0  0  0
  -21.6645   -6.8893   21.4248 O   0  0  0  0  0  0
  -22.3449  -14.5501   20.6719 O   0  0  0  0  0  0
  -24.6656  -31.8190   23.1669 C   0  0  0  0  0  0
  -25.9328  -32.4554   23.8140 C   0  0  1  0  0  0
  -27.2222  -26.8945   20.1872 C   0  0  0  0  0  0
  -25.5979  -33.8372   24.2044 N   0  0  0  0  0  0
  -23.4814  -30.4300   21.5157 C   0  0  2  0  0  0
  -24.9368  -28.8089   20.1076 C   0  0  0  0  0  0
  -22.7671  -29.4426   22.4761 C   0  0  0  0  0  0
  -18.0320  -28.1412   22.8465 C   0  0  0  0  0  0
  -24.1499  -36.7200   23.2647 C   0  0  0  0  0  0
  -26.0517  -30.6140   21.4027 C   0  0  0  0  0  0
  -26.1183  -29.2006   20.7482 C   0  0  0  0  0  0
  -27.2497  -28.2629   20.7665 C   0  0  0  0  0  0
  -26.0156  -26.6669   19.4857 C   0  0  0  0  0  0
  -24.9130  -27.5641   19.4560 C   0  0  0  0  0  0
  -23.7225  -29.7401   20.1429 C   0  0  0  0  0  0
  -25.4138  -36.2950   24.0296 C   0  0  1  0  0  0
  -20.5949  -28.3755   23.1180 C   0  0  2  0  0  0
  -20.6798  -26.9433   22.5401 C   0  0  0  0  0  0
  -19.5773  -26.6375   21.5212 C   0  0  0  0  0  0
  -18.1951  -26.7943   22.1619 C   0  0  0  0  0  0
  -19.1582  -28.8901   23.2811 C   0  0  0  0  0  0
  -18.9493  -30.1490   23.8847 C   0  0  0  0  0  0
  -17.6486  -30.6604   24.0546 C   0  0  0  0  0  0
  -25.9103  -34.9333   23.4997 C   0  0  0  0  0  0
  -16.5373  -29.9087   23.6346 C   0  0  0  0  0  0
  -16.7301  -28.6507   23.0362 C   0  0  0  0  0  0
  -26.4575  -31.6515   25.0683 C   0  0  0  0  0  0
  -25.3696  -31.3779   26.1334 C   0  0  0  0  0  0
  -27.0475  -30.2869   24.6452 C   0  0  0  0  0  0
  -27.6053  -32.4338   25.7491 C   0  0  0  0  0  0
  -27.5577  -37.1751   24.8462 C   0  0  0  0  0  0
  -21.4337  -29.3043   22.3517 N   0  0  0  0  0  0
  -26.4278  -37.3693   23.9408 N   0  0  0  0  0  0
  -24.7544  -30.9830   22.0817 N   0  0  0  0  0  0
  -23.4206  -28.7995   23.3009 O   0  0  0  0  0  0
  -28.2244  -25.7834   20.3191 O   0  0  0  0  0  0
  -26.5724  -34.8884   22.4597 O   0  0  0  0  0  0
  -23.5721  -32.1176   23.6747 O   0  0  0  0  0  0
  -28.8140  -18.7831   18.9137 C   0  0  0  0  0  0
  -28.4041  -20.3509   19.0110 C   0  0  0  0  0  0
  -29.6996  -18.2496   20.1043 C   0  0  1  0  0  0
  -29.3523  -19.6902   21.0003 C   0  0  1  0  0  0
  -30.4075  -19.9288   22.0857 C   0  0  0  0  0  0
  -28.6004  -22.5670   20.6908 C   0  0  0  0  0  0
  -28.2076  -24.1630   19.8954 C   0  0  0  0  0  0
  -29.6203  -16.5914   20.4673 N   0  0  0  0  0  0
  -29.0999  -21.0423   20.1392 N   0  3  2  0  0  0
  -31.4570  -13.0504   19.2126 H   0  0  0  0  0  0
  -30.5091  -11.9441   20.1539 H   0  0  0  0  0  0
  -29.9384  -11.7685   17.7037 H   0  0  0  0  0  0
  -29.5644  -13.4729   17.6534 H   0  0  0  0  0  0
  -28.0616  -11.2797   19.1042 H   0  0  0  0  0  0
  -27.4272  -12.3257   17.8586 H   0  0  0  0  0  0
  -27.5198  -14.2407   19.3122 H   0  0  0  0  0  0
  -28.8116  -12.5506   21.5087 H   0  0  0  0  0  0
  -28.2608  -14.2016   21.6835 H   0  0  0  0  0  0
  -25.2779   -9.5690   22.4761 H   0  0  0  0  0  0
  -24.0011   -7.4641   22.7477 H   0  0  0  0  0  0
  -21.0857   -8.8783   19.8960 H   0  0  0  0  0  0
  -22.3719  -10.9673   19.6157 H   0  0  0  0  0  0
  -21.2031   -7.6155   23.9736 H   0  0  0  0  0  0
  -21.1467   -6.0516   25.9081 H   0  0  0  0  0  0
  -22.0604   -2.7616   23.2834 H   0  0  0  0  0  0
  -22.4003  -11.9876   22.4867 H   0  0  0  0  0  0
  -21.1014  -13.1229   22.2615 H   0  0  0  0  0  0
  -24.6281  -15.8455   20.5249 H   0  0  0  0  0  0
  -26.2363  -15.6363   20.0494 H   0  0  0  0  0  0
  -26.7390  -32.5085   23.0845 H   0  0  0  0  0  0
  -25.0060  -33.9431   25.0148 H   0  0  0  0  0  0
  -22.7973  -31.2629   21.3415 H   0  0  0  0  0  0
  -23.3773  -35.9520   23.3266 H   0  0  0  0  0  0
  -24.3579  -36.8889   22.2072 H   0  0  0  0  0  0
  -23.7247  -37.6370   23.6733 H   0  0  0  0  0  0
  -26.2378  -31.3533   20.6223 H   0  0  0  0  0  0
  -26.9095  -30.6710   22.0608 H   0  0  0  0  0  0
  -28.1375  -28.5587   21.3083 H   0  0  0  0  0  0
  -25.8804  -25.7197   18.9868 H   0  0  0  0  0  0
  -24.0175  -27.2594   18.9327 H   0  0  0  0  0  0
  -23.8764  -30.5061   19.3822 H   0  0  0  0  0  0
  -22.8318  -29.1938   19.8269 H   0  0  0  0  0  0
  -25.1341  -36.1739   25.0787 H   0  0  0  0  0  0
  -21.0042  -28.3372   24.1302 H   0  0  0  0  0  0
  -20.5673  -26.2374   23.3645 H   0  0  0  0  0  0
  -21.6661  -26.7402   22.1211 H   0  0  0  0  0  0
  -19.6930  -25.6271   21.1275 H   0  0  0  0  0  0
  -19.6719  -27.3154   20.6718 H   0  0  0  0  0  0
  -17.4226  -26.6683   21.4021 H   0  0  0  0  0  0
  -18.0345  -26.0099   22.9028 H   0  0  0  0  0  0
  -19.7965  -30.7315   24.2203 H   0  0  0  0  0  0
  -17.5036  -31.6279   24.5151 H   0  0  0  0  0  0
  -15.5370  -30.2966   23.7706 H   0  0  0  0  0  0
  -15.8701  -28.0803   22.7112 H   0  0  0  0  0  0
  -24.5873  -30.7139   25.7641 H   0  0  0  0  0  0
  -24.8894  -32.2986   26.4656 H   0  0  0  0  0  0
  -25.7920  -30.9002   27.0180 H   0  0  0  0  0  0
  -26.3146  -29.6523   24.1453 H   0  0  0  0  0  0
  -27.3974  -29.7266   25.5135 H   0  0  0  0  0  0
  -27.9107  -30.4027   23.9893 H   0  0  0  0  0  0
  -27.2597  -33.3672   26.1950 H   0  0  0  0  0  0
  -28.3926  -32.6844   25.0369 H   0  0  0  0  0  0
  -28.0653  -31.8542   26.5505 H   0  0  0  0  0  0
  -28.2560  -38.0080   24.7525 H   0  0  0  0  0  0
  -28.1104  -36.2602   24.6267 H   0  0  0  0  0  0
  -27.2293  -37.1369   25.8864 H   0  0  0  0  0  0
  -20.9593  -29.8725   21.6637 H   0  0  0  0  0  0
  -26.0125  -38.2751   24.1409 H   0  0  0  0  0  0
  -29.3301  -18.6012   17.9702 H   0  0  0  0  0  0
  -27.8952  -18.1980   18.8597 H   0  0  0  0  0  0
  -27.3300  -20.4232   19.1809 H   0  0  0  0  0  0
  -28.6034  -20.8705   18.0734 H   0  0  0  0  0  0
  -30.7370  -18.3703   19.7890 H   0  0  0  0  0  0
  -28.4087  -19.5085   21.5189 H   0  0  0  0  0  0
  -31.3846  -20.1387   21.6506 H   0  0  0  0  0  0
  -30.5078  -19.0530   22.7264 H   0  0  0  0  0  0
  -30.1358  -20.7704   22.7233 H   0  0  0  0  0  0
  -27.7422  -22.3549   21.3279 H   0  0  0  0  0  0
  -29.3905  -22.8236   21.3955 H   0  0  0  0  0  0
  -27.2243  -24.0055   19.4572 H   0  0  0  0  0  0
  -28.8667  -24.1735   19.0281 H   0  0  0  0  0  0
  -28.6798  -16.3540   20.7456 H   0  0  0  0  0  0
  -30.0103  -21.2420   19.7515 H   0  0  0  0  0  0
  1 25  1  0  0  0
  1 30  2  0  0  0
  1 78  1  0  0  0
  2  3  1  0  0  0
  2 25  1  0  0  0
  2 80  1  0  0  0
  2 81  1  0  0  0
  3  4  1  0  0  0
  3 82  1  0  0  0
  3 83  1  0  0  0
  4  5  1  0  0  0
  4 84  1  0  0  0
  4 85  1  0  0  0
  5  6  1  0  0  0
  5 26  1  0  0  0
  5 86  1  0  0  0
  6 25  1  0  0  0
  6 87  1  0  0  0
  6 88  1  0  0  0
  7  8  2  0  0  0
  7 26  1  0  0  0
  7 29  1  0  0  0
  8  9  1  0  0  0
  8 22  1  0  0  0
  9 10  1  0  0  0
  9 27  2  0  0  0
 10 11  2  0  0  0
 10 15  1  0  0  0
 11 12  1  0  0  0
 11 89  1  0  0  0
 12 13  2  0  0  0
 12 90  1  0  0  0
 13 14  1  0  0  0
 13 31  1  0  0  0
 14 15  2  0  0  0
 14 91  1  0  0  0
 15 92  1  0  0  0
 16 17  2  0  0  0
 16 21  1  0  0  0
 16 31  1  0  0  0
 17 18  1  0  0  0
 17 93  1  0  0  0
 18 19  2  0  0  0
 18 94  1  0  0  0
 19 20  1  0  0  0
 19 24  1  0  0  0
 20 21  2  0  0  0
 20 95  1  0  0  0
 21 23  1  0  0  0
 22 28  1  0  0  0
 22 32  2  0  0  0
 26 27  1  0  0  0
 28 96  1  0  0  0
 28 97  1  0  0  0
 29 98  1  0  0  0
 29 99  1  0  0  0
 33 34  1  0  0  0
 33 66  1  0  0  0
 33 70  2  0  0  0
 34 36  1  0  0  0
 34 59  1  0  0  0
 34100  1  0  0  0
 35 44  2  0  0  0
 35 45  1  0  0  0
 35 68  1  0  0  0
 36 56  1  0  0  0
 36101  1  0  0  0
 37 39  1  0  0  0
 37 47  1  0  0  0
 37 66  1  0  0  0
 37102  1  0  0  0
 38 43  2  0  0  0
 38 46  1  0  0  0
 38 47  1  0  0  0
 39 64  1  0  0  0
 39 67  2  0  0  0
 40 52  1  0  0  0
 40 53  2  0  0  0
 40 58  1  0  0  0
 41103  1  0  0  0
 41104  1  0  0  0
 41105  1  0  0  0
 41 48  1  0  0  0
 42 43  1  0  0  0
 42 66  1  0  0  0
 42106  1  0  0  0
 42107  1  0  0  0
 43 44  1  0  0  0
 44108  1  0  0  0
 45 46  2  0  0  0
 45109  1  0  0  0
 46110  1  0  0  0
 47111  1  0  0  0
 47112  1  0  0  0
 48 56  1  0  0  0
 48 65  1  0  0  0
 48113  1  0  0  0
 49 50  1  0  0  0
 49 53  1  0  0  0
 49 64  1  0  0  0
 49114  1  0  0  0
 50 51  1  0  0  0
 50115  1  0  0  0
 50116  1  0  0  0
 51 52  1  0  0  0
 51117  1  0  0  0
 51118  1  0  0  0
 52119  1  0  0  0
 52120  1  0  0  0
 53 54  1  0  0  0
 54 55  2  0  0  0
 54121  1  0  0  0
 55 57  1  0  0  0
 55122  1  0  0  0
 56 69  2  0  0  0
 57 58  2  0  0  0
 57123  1  0  0  0
 58124  1  0  0  0
 59 60  1  0  0  0
 59 61  1  0  0  0
 59 62  1  0  0  0
 60125  1  0  0  0
 60126  1  0  0  0
 60127  1  0  0  0
 61128  1  0  0  0
 61129  1  0  0  0
 61130  1  0  0  0
 62131  1  0  0  0
 62132  1  0  0  0
 62133  1  0  0  0
 63 65  1  0  0  0
 63134  1  0  0  0
 63135  1  0  0  0
 63136  1  0  0  0
 64137  1  0  0  0
 65138  1  0  0  0
 68 77  1  0  0  0
 71 72  1  0  0  0
 71 73  1  0  0  0
 71139  1  0  0  0
 71140  1  0  0  0
 72 79  1  0  0  0
 72141  1  0  0  0
 72142  1  0  0  0
 73 74  1  0  0  0
 73 78  1  0  0  0
 73143  1  0  0  0
 74 75  1  0  0  0
 74 79  1  0  0  0
 74144  1  0  0  0
 75145  1  0  0  0
 75146  1  0  0  0
 75147  1  0  0  0
 76 77  1  0  0  0
 76148  1  0  0  0
 76149  1  0  0  0
 76 79  1  0  0  0
 77150  1  0  0  0
 77151  1  0  0  0
 78152  1  0  0  0
 79153  1  0  0  0
M  CHG  1  79   1
M  ISO  4   1 100  68 101  77 101  78 100
M  END
> <chiral flag>
0

> <version>
0

> <s_m_source_file>
/data/baiqing/PycharmProjects/Reinvent-master-3.2/result/LINK_invent/BTK/process_docking_weight1_custom_sum_contain_oxygen_bond_distance_aromatic_linkinvent_7_9_3/rearranged_h_0182.sdf

> <i_m_source_file_index>
31

> <r_mmod_Potential_Energy-OPLS-2005>
1354.01721191406

> <r_mmod_Stretch_Energy-OPLS-2005>
630.499572753906

> <r_mmod_Bend_Energy-OPLS-2005>
528.396728515625

> <r_mmod_Torsional_Energy-OPLS-2005>
277.656494140625

> <r_mmod_Improper_Torsional_Energy-OPLS-2005>
4.26094818115234

> <r_mmod_Van_der_Waal_Energy-OPLS-2005>
103.072845458984

> <r_mmod_Electrostatic_Energy-OPLS-2005>
-253.855117797852

> <r_mmod_Solvation_Energy-OPLS-2005>
-453.209991455078

> <b_mmod_Minimization_Converged-OPLS-2005>
0

> <r_mmod_RMS_Derivative-OPLS-2005>
1.34073114395142

$$$$
31
                    3D
 Structure written by MMmdl.
151160  0  0  1  0            999 V2000
  -30.5090  -14.9991   20.4215 C   0  0  0  0  0  0
  -30.4413  -12.6334   19.4719 C   0  0  0  0  0  0
  -29.5081  -12.5251   18.2424 C   0  0  0  0  0  0
  -28.0423  -12.3131   18.6698 C   0  0  0  0  0  0
  -27.6187  -13.2491   19.8305 C   0  0  2  0  0  0
  -28.6693  -13.2797   20.9555 C   0  0  0  0  0  0
  -25.2394  -13.8225   20.5711 C   0  0  0  0  0  0
  -24.1731  -13.0432   20.9256 C   0  0  0  0  0  0
  -24.6373  -11.6929   20.8795 C   0  0  0  0  0  0
  -23.9079  -10.4286   21.0435 C   0  0  0  0  0  0
  -24.3630   -9.4191   21.9205 C   0  0  0  0  0  0
  -23.6292   -8.2228   22.0764 C   0  0  0  0  0  0
  -22.4274   -8.0274   21.3547 C   0  0  0  0  0  0
  -21.9923   -9.0259   20.4654 C   0  0  0  0  0  0
  -22.7266  -10.2129   20.3073 C   0  0  0  0  0  0
  -21.6837   -6.0736   22.5282 C   0  0  0  0  0  0
  -21.4009   -6.5642   23.8224 C   0  0  0  0  0  0
  -21.3658   -5.6786   24.9179 C   0  0  0  0  0  0
  -21.6044   -4.3051   24.7219 C   0  0  0  0  0  0
  -21.8818   -3.8151   23.4342 C   0  0  0  0  0  0
  -21.9187   -4.6967   22.3401 C   0  0  0  0  0  0
  -22.7749  -13.5192   21.1889 C   0  0  0  0  0  0
  -22.1659   -4.2156   21.0978 F   0  0  0  0  0  0
  -21.5620   -3.4545   25.7734 F   0  0  0  0  0  0
  -29.9238  -13.7314   20.3392 N   0  0  0  0  0  0
  -26.2821  -12.9460   20.3246 N   0  0  0  0  0  0
  -25.9297  -11.6588   20.5763 N   0  0  0  0  0  0
  -22.0407  -12.8197   22.0452 N   0  0  0  0  0  0
  -25.4011  -15.1965   20.4109 N   0  0  0  0  0  0
  -31.7311  -15.0540   20.2434 O   0  0  0  0  0  0
  -21.6629   -6.8877   21.4240 O   0  0  0  0  0  0
  -22.3419  -14.5474   20.6686 O   0  0  0  0  0  0
  -24.6521  -31.8400   23.1848 C   0  0  0  0  0  0
  -25.9265  -32.4671   23.8259 C   0  0  1  0  0  0
  -27.2003  -27.0599   20.1540 C   0  0  0  0  0  0
  -25.5987  -33.8479   24.2173 N   0  0  0  0  0  0
  -23.4565  -30.4623   21.5306 C   0  0  2  0  0  0
  -24.9033  -28.8796   20.1097 C   0  0  0  0  0  0
  -22.7599  -29.4571   22.4822 C   0  0  0  0  0  0
  -18.0304  -28.1380   22.8443 C   0  0  0  0  0  0
  -24.1492  -36.7240   23.2636 C   0  0  0  0  0  0
  -26.0202  -30.6848   21.3980 C   0  0  0  0  0  0
  -26.0856  -29.2913   20.7373 C   0  0  0  0  0  0
  -27.2322  -28.3961   20.7469 C   0  0  0  0  0  0
  -25.9909  -26.7792   19.4741 C   0  0  0  0  0  0
  -24.8723  -27.6392   19.4618 C   0  0  0  0  0  0
  -23.6850  -29.7923   20.1510 C   0  0  0  0  0  0
  -25.4129  -36.3014   24.0305 C   0  0  1  0  0  0
  -20.5931  -28.3752   23.1157 C   0  0  2  0  0  0
  -20.6835  -26.9483   22.5268 C   0  0  0  0  0  0
  -19.5737  -26.6306   21.5208 C   0  0  0  0  0  0
  -18.1919  -26.7936   22.1569 C   0  0  0  0  0  0
  -19.1555  -28.8859   23.2793 C   0  0  0  0  0  0
  -18.9476  -30.1443   23.8854 C   0  0  0  0  0  0
  -17.6483  -30.6550   24.0572 C   0  0  0  0  0  0
  -25.9088  -34.9388   23.5045 C   0  0  0  0  0  0
  -16.5360  -29.9045   23.6341 C   0  0  0  0  0  0
  -16.7282  -28.6480   23.0349 C   0  0  0  0  0  0
  -26.4556  -31.6566   25.0726 C   0  0  0  0  0  0
  -25.3720  -31.3779   26.1400 C   0  0  0  0  0  0
  -27.0437  -30.2950   24.6374 C   0  0  0  0  0  0
  -27.6068  -32.4345   25.7535 C   0  0  0  0  0  0
  -27.5575  -37.1782   24.8464 C   0  0  0  0  0  0
  -21.4285  -29.3117   22.3574 N   0  0  0  0  0  0
  -26.4285  -37.3733   23.9411 N   0  0  0  0  0  0
  -24.7297  -31.0190   22.0910 N   0  0  0  0  0  0
  -23.4217  -28.8091   23.2980 O   0  0  0  0  0  0
  -28.2059  -26.0017   20.2300 O   0  0  0  0  0  0
  -26.5665  -34.8893   22.4619 O   0  0  0  0  0  0
  -23.5618  -32.1320   23.7012 O   0  0  0  0  0  0
  -28.1706  -21.7354   20.7071 C   0  0  0  0  0  0
  -28.5967  -23.0199   20.2590 C   0  0  0  0  0  0
  -28.1738  -18.5334   21.8699 C   0  0  0  0  0  0
  -29.2583  -19.2138   21.0553 C   0  0  1  0  0  0
  -30.0479  -17.6618   21.0523 C   0  0  2  0  0  0
  -29.2645  -17.5741   22.4193 C   0  0  2  0  0  0
  -27.7810  -24.4795   20.0822 C   0  0  0  0  0  0
  -29.8627  -22.6673   19.7332 N   0  0  0  0  0  0
  -30.1697  -21.3702   19.8888 N   0  0  0  0  0  0
  -29.1362  -20.6782   20.4681 N   0  0  0  0  0  0
  -29.7285  -16.2007   20.4826 N   0  0  0  0  0  0
  -28.7871  -16.3200   22.8851 O   0  0  0  0  0  0
  -31.4609  -12.8326   19.1405 H   0  0  0  0  0  0
  -30.4856  -11.6887   20.0150 H   0  0  0  0  0  0
  -29.8250  -11.7084   17.5925 H   0  0  0  0  0  0
  -29.5823  -13.4366   17.6481 H   0  0  0  0  0  0
  -27.9365  -11.2739   18.9830 H   0  0  0  0  0  0
  -27.3762  -12.4441   17.8172 H   0  0  0  0  0  0
  -27.5764  -14.2490   19.3999 H   0  0  0  0  0  0
  -28.7818  -12.2954   21.4117 H   0  0  0  0  0  0
  -28.3675  -13.9583   21.7521 H   0  0  0  0  0  0
  -25.2771   -9.5642   22.4806 H   0  0  0  0  0  0
  -23.9995   -7.4602   22.7489 H   0  0  0  0  0  0
  -21.0857   -8.8789   19.8956 H   0  0  0  0  0  0
  -22.3747  -10.9677   19.6191 H   0  0  0  0  0  0
  -21.2011   -7.6159   23.9722 H   0  0  0  0  0  0
  -21.1480   -6.0528   25.9080 H   0  0  0  0  0  0
  -22.0600   -2.7620   23.2843 H   0  0  0  0  0  0
  -22.4030  -11.9882   22.4872 H   0  0  0  0  0  0
  -21.1020  -13.1224   22.2649 H   0  0  0  0  0  0
  -24.6219  -15.8400   20.5007 H   0  0  0  0  0  0
  -26.2420  -15.6443   20.0713 H   0  0  0  0  0  0
  -26.7336  -32.5251   23.0985 H   0  0  0  0  0  0
  -25.0137  -33.9594   25.0321 H   0  0  0  0  0  0
  -22.7635  -31.2918   21.3730 H   0  0  0  0  0  0
  -23.3764  -35.9564   23.3284 H   0  0  0  0  0  0
  -24.3570  -36.8895   22.2055 H   0  0  0  0  0  0
  -23.7251  -37.6425   23.6694 H   0  0  0  0  0  0
  -26.1911  -31.4326   20.6228 H   0  0  0  0  0  0
  -26.8849  -30.7337   22.0474 H   0  0  0  0  0  0
  -28.1230  -28.6956   21.2789 H   0  0  0  0  0  0
  -25.8559  -25.8427   18.9573 H   0  0  0  0  0  0
  -23.9676  -27.3248   18.9561 H   0  0  0  0  0  0
  -23.8306  -30.5657   19.3957 H   0  0  0  0  0  0
  -22.7968  -29.2399   19.8382 H   0  0  0  0  0  0
  -25.1329  -36.1828   25.0801 H   0  0  0  0  0  0
  -21.0034  -28.3333   24.1275 H   0  0  0  0  0  0
  -20.5984  -26.2328   23.3453 H   0  0  0  0  0  0
  -21.6623  -26.7667   22.0812 H   0  0  0  0  0  0
  -19.6886  -25.6124   21.1458 H   0  0  0  0  0  0
  -19.6617  -27.2916   20.6570 H   0  0  0  0  0  0
  -17.4232  -26.6733   21.3912 H   0  0  0  0  0  0
  -18.0261  -26.0106   22.8969 H   0  0  0  0  0  0
  -19.7932  -30.7283   24.2216 H   0  0  0  0  0  0
  -17.5076  -31.6213   24.5197 H   0  0  0  0  0  0
  -15.5365  -30.2959   23.7710 H   0  0  0  0  0  0
  -15.8712  -28.0742   22.7073 H   0  0  0  0  0  0
  -24.5902  -30.7129   25.7712 H   0  0  0  0  0  0
  -24.8903  -32.2967   26.4760 H   0  0  0  0  0  0
  -25.7972  -30.8989   27.0232 H   0  0  0  0  0  0
  -26.3072  -29.6654   24.1360 H   0  0  0  0  0  0
  -27.3998  -29.7280   25.4993 H   0  0  0  0  0  0
  -27.9014  -30.4173   23.9752 H   0  0  0  0  0  0
  -27.2651  -33.3673   26.2049 H   0  0  0  0  0  0
  -28.3928  -32.6876   25.0398 H   0  0  0  0  0  0
  -28.0692  -31.8514   26.5518 H   0  0  0  0  0  0
  -28.2583  -38.0085   24.7513 H   0  0  0  0  0  0
  -28.1085  -36.2618   24.6301 H   0  0  0  0  0  0
  -27.2286  -37.1431   25.8861 H   0  0  0  0  0  0
  -20.9497  -29.8872   21.6784 H   0  0  0  0  0  0
  -26.0144  -38.2794   24.1417 H   0  0  0  0  0  0
  -27.2386  -21.4832   21.1966 H   0  0  0  0  0  0
  -27.4163  -18.0535   21.2490 H   0  0  0  0  0  0
  -27.7142  -19.1685   22.6265 H   0  0  0  0  0  0
  -29.9254  -19.6410   21.8137 H   0  0  0  0  0  0
  -31.1156  -17.7838   21.2315 H   0  0  0  0  0  0
  -29.8314  -18.0377   23.2325 H   0  0  0  0  0  0
  -26.8994  -24.3922   20.7166 H   0  0  0  0  0  0
  -27.3916  -24.4188   19.0672 H   0  0  0  0  0  0
  -28.7433  -15.9919   20.5246 H   0  0  0  0  0  0
  -28.4685  -16.4601   23.7700 H   0  0  0  0  0  0
  1 25  1  0  0  0
  1 30  2  0  0  0
  1 81  1  0  0  0
  2  3  1  0  0  0
  2 25  1  0  0  0
  2 83  1  0  0  0
  2 84  1  0  0  0
  3  4  1  0  0  0
  3 85  1  0  0  0
  3 86  1  0  0  0
  4  5  1  0  0  0
  4 87  1  0  0  0
  4 88  1  0  0  0
  5  6  1  0  0  0
  5 26  1  0  0  0
  5 89  1  0  0  0
  6 25  1  0  0  0
  6 90  1  0  0  0
  6 91  1  0  0  0
  7  8  2  0  0  0
  7 26  1  0  0  0
  7 29  1  0  0  0
  8  9  1  0  0  0
  8 22  1  0  0  0
  9 10  1  0  0  0
  9 27  2  0  0  0
 10 11  2  0  0  0
 10 15  1  0  0  0
 11 12  1  0  0  0
 11 92  1  0  0  0
 12 13  2  0  0  0
 12 93  1  0  0  0
 13 14  1  0  0  0
 13 31  1  0  0  0
 14 15  2  0  0  0
 14 94  1  0  0  0
 15 95  1  0  0  0
 16 17  2  0  0  0
 16 21  1  0  0  0
 16 31  1  0  0  0
 17 18  1  0  0  0
 17 96  1  0  0  0
 18 19  2  0  0  0
 18 97  1  0  0  0
 19 20  1  0  0  0
 19 24  1  0  0  0
 20 21  2  0  0  0
 20 98  1  0  0  0
 21 23  1  0  0  0
 22 28  1  0  0  0
 22 32  2  0  0  0
 26 27  1  0  0  0
 28 99  1  0  0  0
 28100  1  0  0  0
 29101  1  0  0  0
 29102  1  0  0  0
 33 34  1  0  0  0
 33 66  1  0  0  0
 33 70  2  0  0  0
 34 36  1  0  0  0
 34 59  1  0  0  0
 34103  1  0  0  0
 35 44  2  0  0  0
 35 45  1  0  0  0
 35 68  1  0  0  0
 36 56  1  0  0  0
 36104  1  0  0  0
 37 39  1  0  0  0
 37 47  1  0  0  0
 37 66  1  0  0  0
 37105  1  0  0  0
 38 43  2  0  0  0
 38 46  1  0  0  0
 38 47  1  0  0  0
 39 64  1  0  0  0
 39 67  2  0  0  0
 40 52  1  0  0  0
 40 53  2  0  0  0
 40 58  1  0  0  0
 41106  1  0  0  0
 41107  1  0  0  0
 41108  1  0  0  0
 41 48  1  0  0  0
 42 43  1  0  0  0
 42 66  1  0  0  0
 42109  1  0  0  0
 42110  1  0  0  0
 43 44  1  0  0  0
 44111  1  0  0  0
 45 46  2  0  0  0
 45112  1  0  0  0
 46113  1  0  0  0
 47114  1  0  0  0
 47115  1  0  0  0
 48 56  1  0  0  0
 48 65  1  0  0  0
 48116  1  0  0  0
 49 50  1  0  0  0
 49 53  1  0  0  0
 49 64  1  0  0  0
 49117  1  0  0  0
 50 51  1  0  0  0
 50118  1  0  0  0
 50119  1  0  0  0
 51 52  1  0  0  0
 51120  1  0  0  0
 51121  1  0  0  0
 52122  1  0  0  0
 52123  1  0  0  0
 53 54  1  0  0  0
 54 55  2  0  0  0
 54124  1  0  0  0
 55 57  1  0  0  0
 55125  1  0  0  0
 56 69  2  0  0  0
 57 58  2  0  0  0
 57126  1  0  0  0
 58127  1  0  0  0
 59 60  1  0  0  0
 59 61  1  0  0  0
 59 62  1  0  0  0
 60128  1  0  0  0
 60129  1  0  0  0
 60130  1  0  0  0
 61131  1  0  0  0
 61132  1  0  0  0
 61133  1  0  0  0
 62134  1  0  0  0
 62135  1  0  0  0
 62136  1  0  0  0
 63 65  1  0  0  0
 63137  1  0  0  0
 63138  1  0  0  0
 63139  1  0  0  0
 64140  1  0  0  0
 65141  1  0  0  0
 68 77  1  0  0  0
 71 72  2  0  0  0
 71 80  1  0  0  0
 71142  1  0  0  0
 72 77  1  0  0  0
 72 78  1  0  0  0
 73 74  1  0  0  0
 73 76  1  0  0  0
 73143  1  0  0  0
 73144  1  0  0  0
 74 75  1  0  0  0
 74 80  1  0  0  0
 74145  1  0  0  0
 75 76  1  0  0  0
 75 81  1  0  0  0
 75146  1  0  0  0
 76 82  1  0  0  0
 76147  1  0  0  0
 77148  1  0  0  0
 77149  1  0  0  0
 78 79  2  0  0  0
 79 80  1  0  0  0
 81150  1  0  0  0
 82151  1  0  0  0
M  ISO  4   1 100  68 101  77 101  81 100
M  END
> <chiral flag>
0

> <version>
0

> <s_m_source_file>
/data/baiqing/PycharmProjects/Reinvent-master-3.2/result/LINK_invent/BTK/process_docking_weight1_custom_sum_contain_oxygen_bond_distance_aromatic_linkinvent_7_9_3/rearranged_h_0182.sdf

> <i_m_source_file_index>
32

> <r_mmod_Potential_Energy-OPLS-2005>
759.570861816406

> <r_mmod_Stretch_Energy-OPLS-2005>
323.538116455078

> <r_mmod_Bend_Energy-OPLS-2005>
462.876678466797

> <r_mmod_Torsional_Energy-OPLS-2005>
275.157745361328

> <r_mmod_Improper_Torsional_Energy-OPLS-2005>
9.90382862091064

> <r_mmod_Van_der_Waal_Energy-OPLS-2005>
132.432891845703

> <r_mmod_Electrostatic_Energy-OPLS-2005>
-446.53857421875

> <r_mmod_Solvation_Energy-OPLS-2005>
-252.204681396484

> <b_mmod_Minimization_Converged-OPLS-2005>
0

> <r_mmod_RMS_Derivative-OPLS-2005>
3.52161550521851

$$$$
32
                    3D
 Structure written by MMmdl.
153162  0  0  1  0            999 V2000
  -30.6800  -14.5835   20.5317 C   0  0  0  0  0  0
  -30.4301  -12.3647   19.4493 C   0  0  0  0  0  0
  -29.5075  -12.5084   18.2204 C   0  0  0  0  0  0
  -28.0284  -12.3550   18.6291 C   0  0  0  0  0  0
  -27.6558  -13.2197   19.8636 C   0  0  2  0  0  0
  -28.7004  -13.0712   20.9940 C   0  0  0  0  0  0
  -25.2567  -13.8182   20.5693 C   0  0  0  0  0  0
  -24.1835  -13.0448   20.9205 C   0  0  0  0  0  0
  -24.6408  -11.6916   20.8736 C   0  0  0  0  0  0
  -23.9073  -10.4299   21.0404 C   0  0  0  0  0  0
  -24.3624   -9.4217   21.9181 C   0  0  0  0  0  0
  -23.6308   -8.2250   22.0747 C   0  0  0  0  0  0
  -22.4285   -8.0292   21.3540 C   0  0  0  0  0  0
  -21.9917   -9.0262   20.4644 C   0  0  0  0  0  0
  -22.7243  -10.2141   20.3056 C   0  0  0  0  0  0
  -21.6855   -6.0750   22.5282 C   0  0  0  0  0  0
  -21.4012   -6.5641   23.8220 C   0  0  0  0  0  0
  -21.3665   -5.6789   24.9177 C   0  0  0  0  0  0
  -21.6049   -4.3053   24.7222 C   0  0  0  0  0  0
  -21.8814   -3.8153   23.4338 C   0  0  0  0  0  0
  -21.9187   -4.6974   22.3398 C   0  0  0  0  0  0
  -22.7852  -13.5237   21.1862 C   0  0  0  0  0  0
  -22.1658   -4.2163   21.0974 F   0  0  0  0  0  0
  -21.5636   -3.4529   25.7731 F   0  0  0  0  0  0
  -30.0218  -13.3880   20.4303 N   0  0  0  0  0  0
  -26.3004  -12.9373   20.3320 N   0  0  0  0  0  0
  -25.9333  -11.6524   20.5737 N   0  0  0  0  0  0
  -22.0468  -12.8241   22.0405 N   0  0  0  0  0  0
  -25.4256  -15.1904   20.4098 N   0  0  0  0  0  0
  -31.8346  -14.7304   20.1269 O   0  0  0  0  0  0
  -21.6642   -6.8894   21.4248 O   0  0  0  0  0  0
  -22.3538  -14.5551   20.6718 O   0  0  0  0  0  0
  -24.6250  -31.8640   23.2089 C   0  0  0  0  0  0
  -25.9103  -32.4803   23.8405 C   0  0  1  0  0  0
  -27.2170  -27.3381   20.1009 C   0  0  0  0  0  0
  -25.5929  -33.8604   24.2321 N   0  0  0  0  0  0
  -23.4166  -30.4935   21.5508 C   0  0  2  0  0  0
  -24.8616  -28.9631   20.1094 C   0  0  0  0  0  0
  -22.7477  -29.4642   22.4932 C   0  0  0  0  0  0
  -18.0293  -28.1400   22.8477 C   0  0  0  0  0  0
  -24.1490  -36.7305   23.2633 C   0  0  0  0  0  0
  -25.9590  -30.7995   21.3804 C   0  0  0  0  0  0
  -26.0319  -29.4305   20.7198 C   0  0  0  0  0  0
  -27.2112  -28.6275   20.7147 C   0  0  0  0  0  0
  -26.0220  -26.9411   19.4458 C   0  0  0  0  0  0
  -24.8577  -27.7214   19.4661 C   0  0  0  0  0  0
  -23.6315  -29.8420   20.1619 C   0  0  0  0  0  0
  -25.4111  -36.3095   24.0329 C   0  0  1  0  0  0
  -20.5894  -28.3699   23.1284 C   0  0  2  0  0  0
  -20.6786  -26.9425   22.5407 C   0  0  0  0  0  0
  -19.5761  -26.6392   21.5212 C   0  0  0  0  0  0
  -18.1941  -26.7943   22.1624 C   0  0  0  0  0  0
  -19.1544  -28.8866   23.2879 C   0  0  0  0  0  0
  -18.9464  -30.1469   23.8896 C   0  0  0  0  0  0
  -17.6460  -30.6597   24.0564 C   0  0  0  0  0  0
  -25.9041  -34.9460   23.5118 C   0  0  0  0  0  0
  -16.5354  -29.9095   23.6325 C   0  0  0  0  0  0
  -16.7279  -28.6519   23.0335 C   0  0  0  0  0  0
  -26.4496  -31.6601   25.0759 C   0  0  0  0  0  0
  -25.3725  -31.3736   26.1482 C   0  0  0  0  0  0
  -27.0331  -30.3029   24.6191 C   0  0  0  0  0  0
  -27.6070  -32.4319   25.7528 C   0  0  0  0  0  0
  -27.5584  -37.1808   24.8461 C   0  0  0  0  0  0
  -21.4195  -29.3050   22.3676 N   0  0  0  0  0  0
  -26.4293  -37.3784   23.9410 N   0  0  0  0  0  0
  -24.6852  -31.0679   22.1034 N   0  0  0  0  0  0
  -23.4215  -28.8151   23.2979 O   0  0  0  0  0  0
  -28.3204  -26.4685   20.1732 O   0  0  0  0  0  0
  -26.5597  -34.8914   22.4675 O   0  0  0  0  0  0
  -23.5414  -32.1423   23.7427 O   0  0  0  0  0  0
  -30.0175  -23.8608   21.1630 C   0  0  0  0  0  0
  -28.9714  -23.9019   20.2734 C   0  0  0  0  0  0
  -29.4744  -21.5906   20.2389 C   0  0  0  0  0  0
  -29.3087  -18.1524   21.3537 C   0  0  0  0  0  0
  -30.5414  -17.9224   19.7663 C   0  0  0  0  0  0
  -30.3915  -17.0908   21.0508 C   0  0  2  0  0  0
  -28.0386  -25.0566   19.8489 C   0  0  0  0  0  0
  -29.3314  -20.1409   19.7217 C   0  0  0  0  0  0
  -28.7000  -22.6005   19.7752 N   0  0  0  0  0  0
  -29.9487  -15.6602   20.9349 N   0  0  0  0  0  0
  -30.0888  -19.1174   20.5335 N   0  3  1  0  0  0
  -30.6637  -22.2294   21.3798 S   0  0  0  0  0  0
  -31.4757  -12.4651   19.1542 H   0  0  0  0  0  0
  -30.3390  -11.3678   19.8841 H   0  0  0  0  0  0
  -29.7666  -11.7658   17.4647 H   0  0  0  0  0  0
  -29.6636  -13.4834   17.7553 H   0  0  0  0  0  0
  -27.8530  -11.3014   18.8499 H   0  0  0  0  0  0
  -27.3793  -12.6000   17.7868 H   0  0  0  0  0  0
  -27.6768  -14.2569   19.5285 H   0  0  0  0  0  0
  -28.6957  -12.0546   21.3910 H   0  0  0  0  0  0
  -28.4548  -13.7194   21.8361 H   0  0  0  0  0  0
  -25.2773   -9.5702   22.4747 H   0  0  0  0  0  0
  -24.0027   -7.4637   22.7454 H   0  0  0  0  0  0
  -21.0854   -8.8787   19.8941 H   0  0  0  0  0  0
  -22.3713  -10.9684   19.6165 H   0  0  0  0  0  0
  -21.2001   -7.6148   23.9735 H   0  0  0  0  0  0
  -21.1496   -6.0510   25.9086 H   0  0  0  0  0  0
  -22.0586   -2.7619   23.2824 H   0  0  0  0  0  0
  -22.4078  -11.9924   22.4840 H   0  0  0  0  0  0
  -21.1082  -13.1282   22.2571 H   0  0  0  0  0  0
  -24.6520  -15.8395   20.5072 H   0  0  0  0  0  0
  -26.2687  -15.6296   20.0627 H   0  0  0  0  0  0
  -26.7167  -32.5484   23.1156 H   0  0  0  0  0  0
  -25.0087  -33.9767   25.0471 H   0  0  0  0  0  0
  -22.7082  -31.3135   21.4150 H   0  0  0  0  0  0
  -23.3750  -35.9638   23.3287 H   0  0  0  0  0  0
  -24.3582  -36.8930   22.2049 H   0  0  0  0  0  0
  -23.7245  -37.6508   23.6655 H   0  0  0  0  0  0
  -26.0885  -31.5651   20.6144 H   0  0  0  0  0  0
  -26.8408  -30.8481   22.0073 H   0  0  0  0  0  0
  -28.1039  -28.9768   21.2136 H   0  0  0  0  0  0
  -25.9348  -26.0085   18.9095 H   0  0  0  0  0  0
  -23.9633  -27.3638   18.9751 H   0  0  0  0  0  0
  -23.7562  -30.6254   19.4138 H   0  0  0  0  0  0
  -22.7502  -29.2785   19.8512 H   0  0  0  0  0  0
  -25.1285  -36.1950   25.0820 H   0  0  0  0  0  0
  -20.9993  -28.3277   24.1404 H   0  0  0  0  0  0
  -20.5708  -26.2306   23.3603 H   0  0  0  0  0  0
  -21.6654  -26.7467   22.1190 H   0  0  0  0  0  0
  -19.6920  -25.6298   21.1256 H   0  0  0  0  0  0
  -19.6707  -27.3190   20.6732 H   0  0  0  0  0  0
  -17.4210  -26.6685   21.4030 H   0  0  0  0  0  0
  -18.0342  -26.0100   22.9038 H   0  0  0  0  0  0
  -19.7936  -30.7291   24.2270 H   0  0  0  0  0  0
  -17.5010  -31.6276   24.5174 H   0  0  0  0  0  0
  -15.5352  -30.2992   23.7654 H   0  0  0  0  0  0
  -15.8684  -28.0844   22.7032 H   0  0  0  0  0  0
  -24.5900  -30.7086   25.7809 H   0  0  0  0  0  0
  -24.8909  -32.2900   26.4906 H   0  0  0  0  0  0
  -25.8038  -30.8917   27.0263 H   0  0  0  0  0  0
  -26.2901  -29.6800   24.1197 H   0  0  0  0  0  0
  -27.4018  -29.7268   25.4689 H   0  0  0  0  0  0
  -27.8778  -30.4335   23.9421 H   0  0  0  0  0  0
  -27.2702  -33.3621   26.2121 H   0  0  0  0  0  0
  -28.3880  -32.6874   25.0352 H   0  0  0  0  0  0
  -28.0736  -31.8424   26.5435 H   0  0  0  0  0  0
  -28.2586  -38.0121   24.7513 H   0  0  0  0  0  0
  -28.1090  -36.2646   24.6269 H   0  0  0  0  0  0
  -27.2299  -37.1435   25.8863 H   0  0  0  0  0  0
  -20.9362  -29.8801   21.6917 H   0  0  0  0  0  0
  -26.0172  -38.2855   24.1420 H   0  0  0  0  0  0
  -30.4355  -24.6895   21.7208 H   0  0  0  0  0  0
  -29.2306  -18.4338   22.4046 H   0  0  0  0  0  0
  -28.3293  -17.9144   20.9345 H   0  0  0  0  0  0
  -29.8520  -17.6324   18.9696 H   0  0  0  0  0  0
  -31.5637  -18.0054   19.3941 H   0  0  0  0  0  0
  -31.2597  -17.2070   21.7061 H   0  0  0  0  0  0
  -27.0738  -24.7925   20.2837 H   0  0  0  0  0  0
  -27.9155  -25.0005   18.7663 H   0  0  0  0  0  0
  -29.7151  -20.1298   18.7016 H   0  0  0  0  0  0
  -28.2754  -19.8807   19.6597 H   0  0  0  0  0  0
  -29.0022  -15.4524   21.2170 H   0  0  0  0  0  0
  -30.8563  -19.5226   21.0454 H   0  0  0  0  0  0
  1 25  1  0  0  0
  1 30  2  0  0  0
  1 80  1  0  0  0
  2  3  1  0  0  0
  2 25  1  0  0  0
  2 83  1  0  0  0
  2 84  1  0  0  0
  3  4  1  0  0  0
  3 85  1  0  0  0
  3 86  1  0  0  0
  4  5  1  0  0  0
  4 87  1  0  0  0
  4 88  1  0  0  0
  5  6  1  0  0  0
  5 26  1  0  0  0
  5 89  1  0  0  0
  6 25  1  0  0  0
  6 90  1  0  0  0
  6 91  1  0  0  0
  7  8  2  0  0  0
  7 26  1  0  0  0
  7 29  1  0  0  0
  8  9  1  0  0  0
  8 22  1  0  0  0
  9 10  1  0  0  0
  9 27  2  0  0  0
 10 11  2  0  0  0
 10 15  1  0  0  0
 11 12  1  0  0  0
 11 92  1  0  0  0
 12 13  2  0  0  0
 12 93  1  0  0  0
 13 14  1  0  0  0
 13 31  1  0  0  0
 14 15  2  0  0  0
 14 94  1  0  0  0
 15 95  1  0  0  0
 16 17  2  0  0  0
 16 21  1  0  0  0
 16 31  1  0  0  0
 17 18  1  0  0  0
 17 96  1  0  0  0
 18 19  2  0  0  0
 18 97  1  0  0  0
 19 20  1  0  0  0
 19 24  1  0  0  0
 20 21  2  0  0  0
 20 98  1  0  0  0
 21 23  1  0  0  0
 22 28  1  0  0  0
 22 32  2  0  0  0
 26 27  1  0  0  0
 28 99  1  0  0  0
 28100  1  0  0  0
 29101  1  0  0  0
 29102  1  0  0  0
 33 34  1  0  0  0
 33 66  1  0  0  0
 33 70  2  0  0  0
 34 36  1  0  0  0
 34 59  1  0  0  0
 34103  1  0  0  0
 35 44  2  0  0  0
 35 45  1  0  0  0
 35 68  1  0  0  0
 36 56  1  0  0  0
 36104  1  0  0  0
 37 39  1  0  0  0
 37 47  1  0  0  0
 37 66  1  0  0  0
 37105  1  0  0  0
 38 43  2  0  0  0
 38 46  1  0  0  0
 38 47  1  0  0  0
 39 64  1  0  0  0
 39 67  2  0  0  0
 40 52  1  0  0  0
 40 53  2  0  0  0
 40 58  1  0  0  0
 41106  1  0  0  0
 41107  1  0  0  0
 41108  1  0  0  0
 41 48  1  0  0  0
 42 43  1  0  0  0
 42 66  1  0  0  0
 42109  1  0  0  0
 42110  1  0  0  0
 43 44  1  0  0  0
 44111  1  0  0  0
 45 46  2  0  0  0
 45112  1  0  0  0
 46113  1  0  0  0
 47114  1  0  0  0
 47115  1  0  0  0
 48 56  1  0  0  0
 48 65  1  0  0  0
 48116  1  0  0  0
 49 50  1  0  0  0
 49 53  1  0  0  0
 49 64  1  0  0  0
 49117  1  0  0  0
 50 51  1  0  0  0
 50118  1  0  0  0
 50119  1  0  0  0
 51 52  1  0  0  0
 51120  1  0  0  0
 51121  1  0  0  0
 52122  1  0  0  0
 52123  1  0  0  0
 53 54  1  0  0  0
 54 55  2  0  0  0
 54124  1  0  0  0
 55 57  1  0  0  0
 55125  1  0  0  0
 56 69  2  0  0  0
 57 58  2  0  0  0
 57126  1  0  0  0
 58127  1  0  0  0
 59 60  1  0  0  0
 59 61  1  0  0  0
 59 62  1  0  0  0
 60128  1  0  0  0
 60129  1  0  0  0
 60130  1  0  0  0
 61131  1  0  0  0
 61132  1  0  0  0
 61133  1  0  0  0
 62134  1  0  0  0
 62135  1  0  0  0
 62136  1  0  0  0
 63 65  1  0  0  0
 63137  1  0  0  0
 63138  1  0  0  0
 63139  1  0  0  0
 64140  1  0  0  0
 65141  1  0  0  0
 68 77  1  0  0  0
 71 72  2  0  0  0
 71 82  1  0  0  0
 71142  1  0  0  0
 72 77  1  0  0  0
 72 79  1  0  0  0
 73 78  1  0  0  0
 73 79  2  0  0  0
 73 82  1  0  0  0
 74 76  1  0  0  0
 74 81  1  0  0  0
 74143  1  0  0  0
 74144  1  0  0  0
 75 76  1  0  0  0
 75 81  1  0  0  0
 75145  1  0  0  0
 75146  1  0  0  0
 76 80  1  0  0  0
 76147  1  0  0  0
 77148  1  0  0  0
 77149  1  0  0  0
 78150  1  0  0  0
 78151  1  0  0  0
 78 81  1  0  0  0
 80152  1  0  0  0
 81153  1  0  0  0
M  CHG  1  81   1
M  ISO  4   1 100  68 101  77 101  80 100
M  END
> <chiral flag>
0

> <version>
0

> <s_m_source_file>
/data/baiqing/PycharmProjects/Reinvent-master-3.2/result/LINK_invent/BTK/process_docking_weight1_custom_sum_contain_oxygen_bond_distance_aromatic_linkinvent_7_9_3/rearranged_h_0182.sdf

> <i_m_source_file_index>
33

> <r_mmod_Potential_Energy-OPLS-2005>
-149.212615966797

> <r_mmod_Stretch_Energy-OPLS-2005>
65.2429428100586

> <r_mmod_Bend_Energy-OPLS-2005>
164.746688842773

> <r_mmod_Torsional_Energy-OPLS-2005>
241.322525024414

> <r_mmod_Improper_Torsional_Energy-OPLS-2005>
4.25304460525513

> <r_mmod_Van_der_Waal_Energy-OPLS-2005>
132.944152832031

> <r_mmod_Electrostatic_Energy-OPLS-2005>
-307.405731201172

> <r_mmod_Solvation_Energy-OPLS-2005>
-490.539978027344

> <b_mmod_Minimization_Converged-OPLS-2005>
0

> <r_mmod_RMS_Derivative-OPLS-2005>
1.45113623142242

$$$$
33
                    3D
 Structure written by MMmdl.
156165  0  0  1  0            999 V2000
  -30.5152  -15.1482   20.3784 C   0  0  0  0  0  0
  -30.4342  -12.7283   19.5199 C   0  0  0  0  0  0
  -29.5262  -12.5458   18.2820 C   0  0  0  0  0  0
  -28.0687  -12.3054   18.7096 C   0  0  0  0  0  0
  -27.6159  -13.2730   19.8324 C   0  0  2  0  0  0
  -28.6539  -13.4167   20.9668 C   0  0  0  0  0  0
  -25.2409  -13.8259   20.5792 C   0  0  0  0  0  0
  -24.1751  -13.0450   20.9266 C   0  0  0  0  0  0
  -24.6398  -11.6938   20.8774 C   0  0  0  0  0  0
  -23.9079  -10.4295   21.0409 C   0  0  0  0  0  0
  -24.3635   -9.4215   21.9187 C   0  0  0  0  0  0
  -23.6319   -8.2240   22.0759 C   0  0  0  0  0  0
  -22.4295   -8.0279   21.3551 C   0  0  0  0  0  0
  -21.9927   -9.0247   20.4644 C   0  0  0  0  0  0
  -22.7252  -10.2130   20.3059 C   0  0  0  0  0  0
  -21.6855   -6.0736   22.5274 C   0  0  0  0  0  0
  -21.4009   -6.5629   23.8212 C   0  0  0  0  0  0
  -21.3668   -5.6793   24.9176 C   0  0  0  0  0  0
  -21.6043   -4.3051   24.7229 C   0  0  0  0  0  0
  -21.8824   -3.8138   23.4348 C   0  0  0  0  0  0
  -21.9200   -4.6958   22.3405 C   0  0  0  0  0  0
  -22.7753  -13.5181   21.1903 C   0  0  0  0  0  0
  -22.1668   -4.2130   21.0981 F   0  0  0  0  0  0
  -21.5636   -3.4545   25.7744 F   0  0  0  0  0  0
  -29.9014  -13.8762   20.3391 N   0  0  0  0  0  0
  -26.2841  -12.9536   20.3280 N   0  0  0  0  0  0
  -25.9342  -11.6630   20.5766 N   0  0  0  0  0  0
  -22.0433  -12.8147   22.0460 N   0  0  0  0  0  0
  -25.4072  -15.2000   20.4236 N   0  0  0  0  0  0
  -31.7311  -15.1143   20.1464 O   0  0  0  0  0  0
  -21.6658   -6.8880   21.4242 O   0  0  0  0  0  0
  -22.3415  -14.5484   20.6754 O   0  0  0  0  0  0
  -24.6567  -31.8342   23.1770 C   0  0  0  0  0  0
  -25.9290  -32.4624   23.8204 C   0  0  1  0  0  0
  -27.2045  -26.9935   20.1676 C   0  0  0  0  0  0
  -25.5997  -33.8433   24.2126 N   0  0  0  0  0  0
  -23.4658  -30.4473   21.5278 C   0  0  2  0  0  0
  -24.9107  -28.8433   20.1167 C   0  0  0  0  0  0
  -22.7631  -29.4498   22.4835 C   0  0  0  0  0  0
  -18.0318  -28.1381   22.8481 C   0  0  0  0  0  0
  -24.1487  -36.7215   23.2650 C   0  0  0  0  0  0
  -26.0316  -30.6563   21.3977 C   0  0  0  0  0  0
  -26.0968  -29.2520   20.7416 C   0  0  0  0  0  0
  -27.2439  -28.3486   20.7416 C   0  0  0  0  0  0
  -25.9916  -26.7195   19.5005 C   0  0  0  0  0  0
  -24.8794  -27.5937   19.4784 C   0  0  0  0  0  0
  -23.6981  -29.7682   20.1520 C   0  0  0  0  0  0
  -25.4130  -36.2992   24.0306 C   0  0  1  0  0  0
  -20.5940  -28.3737   23.1194 C   0  0  2  0  0  0
  -20.6794  -26.9424   22.5395 C   0  0  0  0  0  0
  -19.5760  -26.6375   21.5207 C   0  0  0  0  0  0
  -18.1947  -26.7921   22.1625 C   0  0  0  0  0  0
  -19.1578  -28.8874   23.2825 C   0  0  0  0  0  0
  -18.9497  -30.1471   23.8861 C   0  0  0  0  0  0
  -17.6489  -30.6582   24.0545 C   0  0  0  0  0  0
  -25.9103  -34.9364   23.5034 C   0  0  0  0  0  0
  -16.5378  -29.9065   23.6327 C   0  0  0  0  0  0
  -16.7307  -28.6473   23.0375 C   0  0  0  0  0  0
  -26.4551  -31.6554   25.0722 C   0  0  0  0  0  0
  -25.3694  -31.3757   26.1396 C   0  0  0  0  0  0
  -27.0441  -30.2934   24.6412 C   0  0  0  0  0  0
  -27.6063  -32.4350   25.7508 C   0  0  0  0  0  0
  -27.5570  -37.1761   24.8471 C   0  0  0  0  0  0
  -21.4314  -29.3054   22.3567 N   0  0  0  0  0  0
  -26.4276  -37.3726   23.9416 N   0  0  0  0  0  0
  -24.7394  -31.0043   22.0881 N   0  0  0  0  0  0
  -23.4205  -28.8087   23.3069 O   0  0  0  0  0  0
  -28.2211  -25.9256   20.1659 O   0  0  0  0  0  0
  -26.5705  -34.8884   22.4624 O   0  0  0  0  0  0
  -23.5662  -32.1292   23.6901 O   0  0  0  0  0  0
  -29.2324  -20.3758   19.9118 C   0  0  0  0  0  0
  -28.6621  -22.9193   19.8917 C   0  0  0  0  0  0
  -29.7537  -20.6163   18.6124 C   0  0  0  0  0  0
  -29.1649  -22.9188   18.5614 C   0  0  0  0  0  0
  -28.9389  -17.3362   19.7516 C   0  0  0  0  0  0
  -30.5731  -17.8023   20.8357 C   0  0  0  0  0  0
  -29.3117  -18.7454   20.4819 C   0  0  0  0  0  0
  -29.1293  -23.9368   16.2976 C   0  0  0  0  0  0
  -27.9263  -24.3577   20.4731 C   0  0  0  0  0  0
  -28.6956  -21.5930   20.5275 N   0  0  0  0  0  0
  -29.7108  -21.8146   17.9794 N   0  0  0  0  0  0
  -29.8680  -16.4521   20.5961 N   0  0  0  0  0  0
  -30.3580  -19.6129   17.8625 N   0  0  0  0  0  0
  -29.0868  -24.0662   17.7546 N   0  0  0  0  0  0
  -31.4590  -12.9006   19.1877 H   0  0  0  0  0  0
  -30.4710  -11.8138   20.1122 H   0  0  0  0  0  0
  -29.8745  -11.7104   17.6739 H   0  0  0  0  0  0
  -29.5872  -13.4347   17.6531 H   0  0  0  0  0  0
  -27.9944  -11.2743   19.0592 H   0  0  0  0  0  0
  -27.4004  -12.3840   17.8515 H   0  0  0  0  0  0
  -27.5415  -14.2489   19.3513 H   0  0  0  0  0  0
  -28.7938  -12.4743   21.4979 H   0  0  0  0  0  0
  -28.3205  -14.1523   21.7039 H   0  0  0  0  0  0
  -25.2781   -9.5676   22.4762 H   0  0  0  0  0  0
  -24.0021   -7.4619   22.7464 H   0  0  0  0  0  0
  -21.0862   -8.8763   19.8941 H   0  0  0  0  0  0
  -22.3711  -10.9674   19.6165 H   0  0  0  0  0  0
  -21.1996   -7.6142   23.9696 H   0  0  0  0  0  0
  -21.1486   -6.0531   25.9073 H   0  0  0  0  0  0
  -22.0601   -2.7597   23.2862 H   0  0  0  0  0  0
  -22.4083  -11.9836   22.4858 H   0  0  0  0  0  0
  -21.1036  -13.1115   22.2664 H   0  0  0  0  0  0
  -24.6496  -15.8594   20.5632 H   0  0  0  0  0  0
  -26.2668  -15.6402   20.1225 H   0  0  0  0  0  0
  -26.7360  -32.5159   23.0922 H   0  0  0  0  0  0
  -25.0085  -33.9508   25.0234 H   0  0  0  0  0  0
  -22.7761  -31.2786   21.3656 H   0  0  0  0  0  0
  -23.3759  -35.9533   23.3297 H   0  0  0  0  0  0
  -24.3576  -36.8881   22.2070 H   0  0  0  0  0  0
  -23.7215  -37.6389   23.6710 H   0  0  0  0  0  0
  -26.2089  -31.3986   20.6185 H   0  0  0  0  0  0
  -26.8927  -30.7079   22.0528 H   0  0  0  0  0  0
  -28.1490  -28.6652   21.2406 H   0  0  0  0  0  0
  -25.8812  -25.7706   18.9951 H   0  0  0  0  0  0
  -23.9785  -27.2748   18.9698 H   0  0  0  0  0  0
  -23.8511  -30.5410   19.3970 H   0  0  0  0  0  0
  -22.8056  -29.2267   19.8335 H   0  0  0  0  0  0
  -25.1309  -36.1806   25.0792 H   0  0  0  0  0  0
  -21.0027  -28.3333   24.1316 H   0  0  0  0  0  0
  -20.5656  -26.2370   23.3633 H   0  0  0  0  0  0
  -21.6651  -26.7391   22.1210 H   0  0  0  0  0  0
  -19.6916  -25.6276   21.1255 H   0  0  0  0  0  0
  -19.6676  -27.3157   20.6705 H   0  0  0  0  0  0
  -17.4214  -26.6681   21.4025 H   0  0  0  0  0  0
  -18.0337  -26.0051   22.9008 H   0  0  0  0  0  0
  -19.7981  -30.7286   24.2222 H   0  0  0  0  0  0
  -17.5049  -31.6259   24.5157 H   0  0  0  0  0  0
  -15.5377  -30.2957   23.7668 H   0  0  0  0  0  0
  -15.8717  -28.0764   22.7134 H   0  0  0  0  0  0
  -24.5901  -30.7089   25.7698 H   0  0  0  0  0  0
  -24.8847  -32.2929   26.4748 H   0  0  0  0  0  0
  -25.7950  -30.8980   27.0235 H   0  0  0  0  0  0
  -26.3089  -29.6633   24.1408 H   0  0  0  0  0  0
  -27.3990  -29.7280   25.5042 H   0  0  0  0  0  0
  -27.9021  -30.4147   23.9798 H   0  0  0  0  0  0
  -27.2661  -33.3702   26.1967 H   0  0  0  0  0  0
  -28.3916  -32.6849   25.0359 H   0  0  0  0  0  0
  -28.0690  -31.8571   26.5526 H   0  0  0  0  0  0
  -28.2572  -38.0079   24.7537 H   0  0  0  0  0  0
  -28.1088  -36.2604   24.6269 H   0  0  0  0  0  0
  -27.2300  -37.1362   25.8882 H   0  0  0  0  0  0
  -20.9569  -29.8771   21.6722 H   0  0  0  0  0  0
  -26.0137  -38.2787   24.1439 H   0  0  0  0  0  0
  -29.2106  -17.3208   18.6943 H   0  0  0  0  0  0
  -27.8825  -17.0881   19.8473 H   0  0  0  0  0  0
  -31.4094  -17.9630   20.1507 H   0  0  0  0  0  0
  -30.9277  -17.9430   21.8578 H   0  0  0  0  0  0
  -28.7019  -18.7839   21.3858 H   0  0  0  0  0  0
  -29.0757  -24.9185   15.8253 H   0  0  0  0  0  0
  -28.2919  -23.3439   15.9215 H   0  0  0  0  0  0
  -30.0540  -23.4626   15.9616 H   0  0  0  0  0  0
  -28.0120  -24.2806   21.5564 H   0  0  0  0  0  0
  -26.8654  -24.1981   20.2835 H   0  0  0  0  0  0
  -30.5135  -18.6846   18.2327 H   0  0  0  0  0  0
  -30.8014  -19.8123   16.9744 H   0  0  0  0  0  0
  -28.6073  -24.8754   18.1425 H   0  0  0  0  0  0
  1 25  1  0  0  0
  1 30  2  0  0  0
  1 82  1  0  0  0
  2  3  1  0  0  0
  2 25  1  0  0  0
  2 85  1  0  0  0
  2 86  1  0  0  0
  3  4  1  0  0  0
  3 87  1  0  0  0
  3 88  1  0  0  0
  4  5  1  0  0  0
  4 89  1  0  0  0
  4 90  1  0  0  0
  5  6  1  0  0  0
  5 26  1  0  0  0
  5 91  1  0  0  0
  6 25  1  0  0  0
  6 92  1  0  0  0
  6 93  1  0  0  0
  7  8  2  0  0  0
  7 26  1  0  0  0
  7 29  1  0  0  0
  8  9  1  0  0  0
  8 22  1  0  0  0
  9 10  1  0  0  0
  9 27  2  0  0  0
 10 11  2  0  0  0
 10 15  1  0  0  0
 11 12  1  0  0  0
 11 94  1  0  0  0
 12 13  2  0  0  0
 12 95  1  0  0  0
 13 14  1  0  0  0
 13 31  1  0  0  0
 14 15  2  0  0  0
 14 96  1  0  0  0
 15 97  1  0  0  0
 16 17  2  0  0  0
 16 21  1  0  0  0
 16 31  1  0  0  0
 17 18  1  0  0  0
 17 98  1  0  0  0
 18 19  2  0  0  0
 18 99  1  0  0  0
 19 20  1  0  0  0
 19 24  1  0  0  0
 20 21  2  0  0  0
 20100  1  0  0  0
 21 23  1  0  0  0
 22 28  1  0  0  0
 22 32  2  0  0  0
 26 27  1  0  0  0
 28101  1  0  0  0
 28102  1  0  0  0
 29103  1  0  0  0
 29104  1  0  0  0
 33 34  1  0  0  0
 33 66  1  0  0  0
 33 70  2  0  0  0
 34 36  1  0  0  0
 34 59  1  0  0  0
 34105  1  0  0  0
 35 44  2  0  0  0
 35 45  1  0  0  0
 35 68  1  0  0  0
 36 56  1  0  0  0
 36106  1  0  0  0
 37 39  1  0  0  0
 37 47  1  0  0  0
 37 66  1  0  0  0
 37107  1  0  0  0
 38 43  2  0  0  0
 38 46  1  0  0  0
 38 47  1  0  0  0
 39 64  1  0  0  0
 39 67  2  0  0  0
 40 52  1  0  0  0
 40 53  2  0  0  0
 40 58  1  0  0  0
 41108  1  0  0  0
 41109  1  0  0  0
 41110  1  0  0  0
 41 48  1  0  0  0
 42 43  1  0  0  0
 42 66  1  0  0  0
 42111  1  0  0  0
 42112  1  0  0  0
 43 44  1  0  0  0
 44113  1  0  0  0
 45 46  2  0  0  0
 45114  1  0  0  0
 46115  1  0  0  0
 47116  1  0  0  0
 47117  1  0  0  0
 48 56  1  0  0  0
 48 65  1  0  0  0
 48118  1  0  0  0
 49 50  1  0  0  0
 49 53  1  0  0  0
 49 64  1  0  0  0
 49119  1  0  0  0
 50 51  1  0  0  0
 50120  1  0  0  0
 50121  1  0  0  0
 51 52  1  0  0  0
 51122  1  0  0  0
 51123  1  0  0  0
 52124  1  0  0  0
 52125  1  0  0  0
 53 54  1  0  0  0
 54 55  2  0  0  0
 54126  1  0  0  0
 55 57  1  0  0  0
 55127  1  0  0  0
 56 69  2  0  0  0
 57 58  2  0  0  0
 57128  1  0  0  0
 58129  1  0  0  0
 59 60  1  0  0  0
 59 61  1  0  0  0
 59 62  1  0  0  0
 60130  1  0  0  0
 60131  1  0  0  0
 60132  1  0  0  0
 61133  1  0  0  0
 61134  1  0  0  0
 61135  1  0  0  0
 62136  1  0  0  0
 62137  1  0  0  0
 62138  1  0  0  0
 63 65  1  0  0  0
 63139  1  0  0  0
 63140  1  0  0  0
 63141  1  0  0  0
 64142  1  0  0  0
 65143  1  0  0  0
 68 79  1  0  0  0
 71 73  2  0  0  0
 71 80  1  0  0  0
 71 77  1  0  0  0
 72 74  1  0  0  0
 72 79  1  0  0  0
 72 80  2  0  0  0
 73 81  1  0  0  0
 73 83  1  0  0  0
 74 81  2  0  0  0
 74 84  1  0  0  0
 75 77  1  0  0  0
 75 82  1  0  0  0
 75144  1  0  0  0
 75145  1  0  0  0
 76 77  1  0  0  0
 76 82  1  0  0  0
 76146  1  0  0  0
 76147  1  0  0  0
 77148  1  0  0  0
 78 84  1  0  0  0
 78149  1  0  0  0
 78150  1  0  0  0
 78151  1  0  0  0
 79152  1  0  0  0
 79153  1  0  0  0
 83154  1  0  0  0
 83155  1  0  0  0
 84156  1  0  0  0
M  ISO  4   1 100  68 101  79 101  82 100
M  END
> <chiral flag>
0

> <version>
0

> <s_m_source_file>
/data/baiqing/PycharmProjects/Reinvent-master-3.2/result/LINK_invent/BTK/process_docking_weight1_custom_sum_contain_oxygen_bond_distance_aromatic_linkinvent_7_9_3/rearranged_h_0182.sdf

> <i_m_source_file_index>
34

> <r_mmod_Potential_Energy-OPLS-2005>
1051.6025390625

> <r_mmod_Stretch_Energy-OPLS-2005>
426.809234619141

> <r_mmod_Bend_Energy-OPLS-2005>
383.982971191406

> <r_mmod_Torsional_Energy-OPLS-2005>
277.910491943359

> <r_mmod_Improper_Torsional_Energy-OPLS-2005>
10.6866645812988

> <r_mmod_Van_der_Waal_Energy-OPLS-2005>
129.193313598633

> <r_mmod_Electrostatic_Energy-OPLS-2005>
-281.636413574219

> <r_mmod_Solvation_Energy-OPLS-2005>
-243.233322143555

> <b_mmod_Minimization_Converged-OPLS-2005>
0

> <r_mmod_RMS_Derivative-OPLS-2005>
2.79223895072937

$$$$
34
                    3D
 Structure written by MMmdl.
153162  0  0  1  0            999 V2000
  -30.4610  -15.3363   20.3455 C   0  0  0  0  0  0
  -30.4211  -12.8703   19.5104 C   0  0  0  0  0  0
  -29.5219  -12.5643   18.2882 C   0  0  0  0  0  0
  -28.0904  -12.2618   18.7493 C   0  0  0  0  0  0
  -27.6018  -13.2772   19.8123 C   0  0  2  0  0  0
  -28.6334  -13.5246   20.9336 C   0  0  0  0  0  0
  -25.2385  -13.8240   20.5799 C   0  0  0  0  0  0
  -24.1724  -13.0436   20.9282 C   0  0  0  0  0  0
  -24.6395  -11.6935   20.8785 C   0  0  0  0  0  0
  -23.9102  -10.4282   21.0427 C   0  0  0  0  0  0
  -24.3645   -9.4181   21.9191 C   0  0  0  0  0  0
  -23.6317   -8.2219   22.0744 C   0  0  0  0  0  0
  -22.4300   -8.0263   21.3546 C   0  0  0  0  0  0
  -21.9946   -9.0241   20.4653 C   0  0  0  0  0  0
  -22.7272  -10.2126   20.3077 C   0  0  0  0  0  0
  -21.6842   -6.0745   22.5289 C   0  0  0  0  0  0
  -21.3992   -6.5650   23.8212 C   0  0  0  0  0  0
  -21.3659   -5.6804   24.9177 C   0  0  0  0  0  0
  -21.6065   -4.3068   24.7220 C   0  0  0  0  0  0
  -21.8826   -3.8168   23.4337 C   0  0  0  0  0  0
  -21.9184   -4.6984   22.3397 C   0  0  0  0  0  0
  -22.7747  -13.5176   21.1902 C   0  0  0  0  0  0
  -22.1665   -4.2169   21.0977 F   0  0  0  0  0  0
  -21.5643   -3.4550   25.7734 F   0  0  0  0  0  0
  -29.8398  -14.0494   20.2687 N   0  0  0  0  0  0
  -26.2794  -12.9523   20.3238 N   0  0  0  0  0  0
  -25.9326  -11.6632   20.5753 N   0  0  0  0  0  0
  -22.0433  -12.8122   22.0459 N   0  0  0  0  0  0
  -25.4096  -15.1956   20.4283 N   0  0  0  0  0  0
  -31.6924  -15.2265   20.2156 O   0  0  0  0  0  0
  -21.6661   -6.8866   21.4240 O   0  0  0  0  0  0
  -22.3421  -14.5463   20.6721 O   0  0  0  0  0  0
  -24.6642  -31.8189   23.1711 C   0  0  0  0  0  0
  -25.9311  -32.4558   23.8162 C   0  0  1  0  0  0
  -27.2007  -26.8673   20.1807 C   0  0  0  0  0  0
  -25.5963  -33.8362   24.2055 N   0  0  0  0  0  0
  -23.4802  -30.4283   21.5238 C   0  0  2  0  0  0
  -24.9322  -28.8112   20.1138 C   0  0  0  0  0  0
  -22.7673  -29.4394   22.4826 C   0  0  0  0  0  0
  -18.0310  -28.1407   22.8457 C   0  0  0  0  0  0
  -24.1483  -36.7186   23.2657 C   0  0  0  0  0  0
  -26.0535  -30.6001   21.4152 C   0  0  0  0  0  0
  -26.1175  -29.1841   20.7615 C   0  0  0  0  0  0
  -27.2443  -28.2333   20.7747 C   0  0  0  0  0  0
  -25.9964  -26.6833   19.4604 C   0  0  0  0  0  0
  -24.8984  -27.5790   19.4476 C   0  0  0  0  0  0
  -23.7220  -29.7465   20.1497 C   0  0  0  0  0  0
  -25.4134  -36.2941   24.0292 C   0  0  1  0  0  0
  -20.5939  -28.3726   23.1226 C   0  0  2  0  0  0
  -20.6785  -26.9395   22.5455 C   0  0  0  0  0  0
  -19.5780  -26.6349   21.5228 C   0  0  0  0  0  0
  -18.1937  -26.7977   22.1551 C   0  0  0  0  0  0
  -19.1576  -28.8879   23.2833 C   0  0  0  0  0  0
  -18.9495  -30.1478   23.8866 C   0  0  0  0  0  0
  -17.6491  -30.6576   24.0565 C   0  0  0  0  0  0
  -25.9094  -34.9324   23.5008 C   0  0  0  0  0  0
  -16.5384  -29.9080   23.6313 C   0  0  0  0  0  0
  -16.7290  -28.6503   23.0316 C   0  0  0  0  0  0
  -26.4548  -31.6532   25.0710 C   0  0  0  0  0  0
  -25.3656  -31.3804   26.1360 C   0  0  0  0  0  0
  -27.0465  -30.2889   24.6493 C   0  0  0  0  0  0
  -27.6019  -32.4373   25.7515 C   0  0  0  0  0  0
  -27.5549  -37.1759   24.8475 C   0  0  0  0  0  0
  -21.4349  -29.3016   22.3581 N   0  0  0  0  0  0
  -26.4282  -37.3679   23.9380 N   0  0  0  0  0  0
  -24.7547  -30.9780   22.0896 N   0  0  0  0  0  0
  -23.4204  -28.7961   23.3091 O   0  0  0  0  0  0
  -28.1834  -25.7192   20.1849 O   0  0  0  0  0  0
  -26.5720  -34.8870   22.4611 O   0  0  0  0  0  0
  -23.5710  -32.1210   23.6771 O   0  0  0  0  0  0
  -26.3404  -22.7787   21.1282 C   0  0  0  0  0  0
  -28.2494  -21.7226   20.4515 C   0  0  0  0  0  0
  -27.8885  -24.2401   20.3738 C   0  0  0  0  0  0
  -30.0487  -19.5676   19.7125 C   0  0  0  0  0  0
  -28.1658  -18.9680   20.8950 C   0  0  0  0  0  0
  -30.6565  -18.0734   20.2477 C   0  0  0  0  0  0
  -28.4743  -17.3692   20.4025 C   0  0  0  0  0  0
  -24.9438  -22.6244   21.6972 C   0  0  0  0  0  0
  -27.0241  -21.6445   20.9541 N   0  0  0  0  0  0
  -26.6836  -24.0375   20.8776 N   0  0  0  0  0  0
  -28.7283  -23.0608   20.1440 N   0  0  0  0  0  0
  -28.8436  -20.2489   20.3528 N   0  0  0  0  0  0
  -29.8695  -16.7299   20.3341 N   0  0  0  0  0  0
  -30.5075  -11.9927   20.1529 H   0  0  0  0  0  0
  -31.4327  -13.0719   19.1571 H   0  0  0  0  0  0
  -29.9209  -11.7208   17.7221 H   0  0  0  0  0  0
  -29.5186  -13.4194   17.6105 H   0  0  0  0  0  0
  -28.0970  -11.2609   19.1853 H   0  0  0  0  0  0
  -27.4045  -12.2148   17.9018 H   0  0  0  0  0  0
  -27.4960  -14.2186   19.2718 H   0  0  0  0  0  0
  -28.8366  -12.6151   21.5030 H   0  0  0  0  0  0
  -28.2580  -14.2611   21.6446 H   0  0  0  0  0  0
  -25.2770   -9.5680   22.4763 H   0  0  0  0  0  0
  -24.0052   -7.4617   22.7444 H   0  0  0  0  0  0
  -21.0886   -8.8756   19.8940 H   0  0  0  0  0  0
  -22.3711  -10.9680   19.6209 H   0  0  0  0  0  0
  -21.1962   -7.6150   23.9712 H   0  0  0  0  0  0
  -21.1487   -6.0535   25.9078 H   0  0  0  0  0  0
  -22.0606   -2.7626   23.2833 H   0  0  0  0  0  0
  -22.4123  -11.9775   22.4768 H   0  0  0  0  0  0
  -21.1065  -13.1099   22.2734 H   0  0  0  0  0  0
  -24.6521  -15.8568   20.5555 H   0  0  0  0  0  0
  -26.2634  -15.6252   20.0990 H   0  0  0  0  0  0
  -26.7372  -32.5079   23.0867 H   0  0  0  0  0  0
  -24.9982  -33.9422   25.0119 H   0  0  0  0  0  0
  -22.7945  -31.2615   21.3543 H   0  0  0  0  0  0
  -23.3739  -35.9526   23.3332 H   0  0  0  0  0  0
  -24.3549  -36.8824   22.2071 H   0  0  0  0  0  0
  -23.7269  -37.6385   23.6717 H   0  0  0  0  0  0
  -26.2455  -31.3365   20.6336 H   0  0  0  0  0  0
  -26.9109  -30.6580   22.0717 H   0  0  0  0  0  0
  -28.1404  -28.5155   21.3081 H   0  0  0  0  0  0
  -25.8614  -25.7549   18.9269 H   0  0  0  0  0  0
  -24.0017  -27.2900   18.9150 H   0  0  0  0  0  0
  -23.8844  -30.5153   19.3938 H   0  0  0  0  0  0
  -22.8281  -29.2057   19.8303 H   0  0  0  0  0  0
  -25.1353  -36.1736   25.0788 H   0  0  0  0  0  0
  -21.0030  -28.3328   24.1344 H   0  0  0  0  0  0
  -20.5651  -26.2374   23.3730 H   0  0  0  0  0  0
  -21.6653  -26.7304   22.1287 H   0  0  0  0  0  0
  -19.6895  -25.6258   21.1308 H   0  0  0  0  0  0
  -19.6814  -27.3117   20.6741 H   0  0  0  0  0  0
  -17.4323  -26.6932   21.3814 H   0  0  0  0  0  0
  -18.0154  -26.0030   22.8812 H   0  0  0  0  0  0
  -19.7990  -30.7293   24.2185 H   0  0  0  0  0  0
  -17.5026  -31.6223   24.5214 H   0  0  0  0  0  0
  -15.5381  -30.2997   23.7606 H   0  0  0  0  0  0
  -15.8685  -28.0866   22.6977 H   0  0  0  0  0  0
  -24.5822  -30.7181   25.7665 H   0  0  0  0  0  0
  -24.8866  -32.3019   26.4677 H   0  0  0  0  0  0
  -25.7861  -30.9030   27.0221 H   0  0  0  0  0  0
  -26.3156  -29.6537   24.1474 H   0  0  0  0  0  0
  -27.3946  -29.7279   25.5180 H   0  0  0  0  0  0
  -27.9126  -30.4058   23.9968 H   0  0  0  0  0  0
  -27.2552  -33.3707   26.1961 H   0  0  0  0  0  0
  -28.3890  -32.6887   25.0393 H   0  0  0  0  0  0
  -28.0620  -31.8597   26.5541 H   0  0  0  0  0  0
  -28.2607  -38.0010   24.7447 H   0  0  0  0  0  0
  -28.1002  -36.2536   24.6423 H   0  0  0  0  0  0
  -27.2238  -37.1560   25.8872 H   0  0  0  0  0  0
  -20.9642  -29.8620   21.6627 H   0  0  0  0  0  0
  -26.0118  -38.2733   24.1381 H   0  0  0  0  0  0
  -29.8130  -19.4713   18.6517 H   0  0  0  0  0  0
  -30.8634  -20.2901   19.7465 H   0  0  0  0  0  0
  -28.2959  -18.9986   21.9770 H   0  0  0  0  0  0
  -27.0926  -19.1042   20.7521 H   0  0  0  0  0  0
  -31.0781  -18.2340   21.2420 H   0  0  0  0  0  0
  -31.5302  -17.8691   19.6225 H   0  0  0  0  0  0
  -28.0391  -17.2393   19.4086 H   0  0  0  0  0  0
  -27.8853  -16.7175   21.0473 H   0  0  0  0  0  0
  -24.8116  -21.6650   22.1964 H   0  0  0  0  0  0
  -24.2002  -22.7062   20.9036 H   0  0  0  0  0  0
  -24.7388  -23.4052   22.4297 H   0  0  0  0  0  0
  1 25  1  0  0  0
  1 30  2  0  0  0
  1 83  1  0  0  0
  2  3  1  0  0  0
  2 25  1  0  0  0
  2 84  1  0  0  0
  2 85  1  0  0  0
  3  4  1  0  0  0
  3 86  1  0  0  0
  3 87  1  0  0  0
  4  5  1  0  0  0
  4 88  1  0  0  0
  4 89  1  0  0  0
  5  6  1  0  0  0
  5 26  1  0  0  0
  5 90  1  0  0  0
  6 25  1  0  0  0
  6 91  1  0  0  0
  6 92  1  0  0  0
  7  8  2  0  0  0
  7 26  1  0  0  0
  7 29  1  0  0  0
  8  9  1  0  0  0
  8 22  1  0  0  0
  9 10  1  0  0  0
  9 27  2  0  0  0
 10 11  2  0  0  0
 10 15  1  0  0  0
 11 12  1  0  0  0
 11 93  1  0  0  0
 12 13  2  0  0  0
 12 94  1  0  0  0
 13 14  1  0  0  0
 13 31  1  0  0  0
 14 15  2  0  0  0
 14 95  1  0  0  0
 15 96  1  0  0  0
 16 17  2  0  0  0
 16 21  1  0  0  0
 16 31  1  0  0  0
 17 18  1  0  0  0
 17 97  1  0  0  0
 18 19  2  0  0  0
 18 98  1  0  0  0
 19 20  1  0  0  0
 19 24  1  0  0  0
 20 21  2  0  0  0
 20 99  1  0  0  0
 21 23  1  0  0  0
 22 28  1  0  0  0
 22 32  2  0  0  0
 26 27  1  0  0  0
 28100  1  0  0  0
 28101  1  0  0  0
 29102  1  0  0  0
 29103  1  0  0  0
 33 34  1  0  0  0
 33 66  1  0  0  0
 33 70  2  0  0  0
 34 36  1  0  0  0
 34 59  1  0  0  0
 34104  1  0  0  0
 35 44  2  0  0  0
 35 45  1  0  0  0
 35 68  1  0  0  0
 36 56  1  0  0  0
 36105  1  0  0  0
 37 39  1  0  0  0
 37 47  1  0  0  0
 37 66  1  0  0  0
 37106  1  0  0  0
 38 43  2  0  0  0
 38 46  1  0  0  0
 38 47  1  0  0  0
 39 64  1  0  0  0
 39 67  2  0  0  0
 40 52  1  0  0  0
 40 53  2  0  0  0
 40 58  1  0  0  0
 41107  1  0  0  0
 41108  1  0  0  0
 41109  1  0  0  0
 41 48  1  0  0  0
 42 43  1  0  0  0
 42 66  1  0  0  0
 42110  1  0  0  0
 42111  1  0  0  0
 43 44  1  0  0  0
 44112  1  0  0  0
 45 46  2  0  0  0
 45113  1  0  0  0
 46114  1  0  0  0
 47115  1  0  0  0
 47116  1  0  0  0
 48 56  1  0  0  0
 48 65  1  0  0  0
 48117  1  0  0  0
 49 50  1  0  0  0
 49 53  1  0  0  0
 49 64  1  0  0  0
 49118  1  0  0  0
 50 51  1  0  0  0
 50119  1  0  0  0
 50120  1  0  0  0
 51 52  1  0  0  0
 51121  1  0  0  0
 51122  1  0  0  0
 52123  1  0  0  0
 52124  1  0  0  0
 53 54  1  0  0  0
 54 55  2  0  0  0
 54125  1  0  0  0
 55 57  1  0  0  0
 55126  1  0  0  0
 56 69  2  0  0  0
 57 58  2  0  0  0
 57127  1  0  0  0
 58128  1  0  0  0
 59 60  1  0  0  0
 59 61  1  0  0  0
 59 62  1  0  0  0
 60129  1  0  0  0
 60130  1  0  0  0
 60131  1  0  0  0
 61132  1  0  0  0
 61133  1  0  0  0
 61134  1  0  0  0
 62135  1  0  0  0
 62136  1  0  0  0
 62137  1  0  0  0
 63 65  1  0  0  0
 63138  1  0  0  0
 63139  1  0  0  0
 63140  1  0  0  0
 64141  1  0  0  0
 65142  1  0  0  0
 68 73  1  0  0  0
 71 78  1  0  0  0
 71 79  2  0  0  0
 71 80  1  0  0  0
 72 79  1  0  0  0
 72 81  2  0  0  0
 72 82  1  0  0  0
 73 80  2  0  0  0
 73 81  1  0  0  0
 74 76  1  0  0  0
 74 82  1  0  0  0
 74143  1  0  0  0
 74144  1  0  0  0
 75 77  1  0  0  0
 75 82  1  0  0  0
 75145  1  0  0  0
 75146  1  0  0  0
 76 83  1  0  0  0
 76147  1  0  0  0
 76148  1  0  0  0
 77 83  1  0  0  0
 77149  1  0  0  0
 77150  1  0  0  0
 78151  1  0  0  0
 78152  1  0  0  0
 78153  1  0  0  0
M  ISO  4   1 100  68 101  73 101  83 100
M  END
> <chiral flag>
0

> <version>
0

> <s_m_source_file>
/data/baiqing/PycharmProjects/Reinvent-master-3.2/result/LINK_invent/BTK/process_docking_weight1_custom_sum_contain_oxygen_bond_distance_aromatic_linkinvent_7_9_3/rearranged_h_0182.sdf

> <i_m_source_file_index>
35

> <r_mmod_Potential_Energy-OPLS-2005>
810.820251464844

> <r_mmod_Stretch_Energy-OPLS-2005>
540.760803222656

> <r_mmod_Bend_Energy-OPLS-2005>
530.830383300781

> <r_mmod_Torsional_Energy-OPLS-2005>
316.351684570312

> <r_mmod_Improper_Torsional_Energy-OPLS-2005>
5.05304622650146

> <r_mmod_Van_der_Waal_Energy-OPLS-2005>
155.130447387695

> <r_mmod_Electrostatic_Energy-OPLS-2005>
-1028.75512695312

> <r_mmod_Solvation_Energy-OPLS-2005>
-249.407333374023

> <b_mmod_Minimization_Converged-OPLS-2005>
0

> <r_mmod_RMS_Derivative-OPLS-2005>
4.15826225280762

$$$$
35
                    3D
 Structure written by MMmdl.
153162  0  0  1  0            999 V2000
  -30.5379  -14.9772   20.4692 C   0  0  0  0  0  0
  -30.4515  -12.6170   19.5125 C   0  0  0  0  0  0
  -29.5419  -12.5199   18.2650 C   0  0  0  0  0  0
  -28.0671  -12.2997   18.6646 C   0  0  0  0  0  0
  -27.6303  -13.2398   19.8206 C   0  0  2  0  0  0
  -28.6628  -13.2827   20.9674 C   0  0  0  0  0  0
  -25.2481  -13.8186   20.5634 C   0  0  0  0  0  0
  -24.1753  -13.0454   20.9159 C   0  0  0  0  0  0
  -24.6298  -11.6909   20.8669 C   0  0  0  0  0  0
  -23.8977  -10.4324   21.0333 C   0  0  0  0  0  0
  -24.3515   -9.4288   21.9149 C   0  0  0  0  0  0
  -23.6250   -8.2293   22.0741 C   0  0  0  0  0  0
  -22.4262   -8.0255   21.3507 C   0  0  0  0  0  0
  -21.9873   -9.0221   20.4609 C   0  0  0  0  0  0
  -22.7142  -10.2140   20.3008 C   0  0  0  0  0  0
  -21.6877   -6.0711   22.5255 C   0  0  0  0  0  0
  -21.4012   -6.5600   23.8201 C   0  0  0  0  0  0
  -21.3677   -5.6741   24.9145 C   0  0  0  0  0  0
  -21.6059   -4.3018   24.7191 C   0  0  0  0  0  0
  -21.8823   -3.8108   23.4316 C   0  0  0  0  0  0
  -21.9204   -4.6924   22.3373 C   0  0  0  0  0  0
  -22.7771  -13.5312   21.1774 C   0  0  0  0  0  0
  -22.1659   -4.2103   21.0964 F   0  0  0  0  0  0
  -21.5666   -3.4496   25.7725 F   0  0  0  0  0  0
  -29.9371  -13.7157   20.3801 N   0  0  0  0  0  0
  -26.2861  -12.9391   20.3100 N   0  0  0  0  0  0
  -25.9229  -11.6531   20.5562 N   0  0  0  0  0  0
  -22.0274  -12.8416   22.0313 N   0  0  0  0  0  0
  -25.4240  -15.1885   20.4064 N   0  0  0  0  0  0
  -31.7501  -15.0265   20.2362 O   0  0  0  0  0  0
  -21.6621   -6.8847   21.4231 O   0  0  0  0  0  0
  -22.3558  -14.5626   20.6570 O   0  0  0  0  0  0
  -24.6544  -31.8433   23.1956 C   0  0  0  0  0  0
  -25.9328  -32.4634   23.8351 C   0  0  1  0  0  0
  -27.2149  -27.1329   20.1514 C   0  0  0  0  0  0
  -25.6108  -33.8456   24.2285 N   0  0  0  0  0  0
  -23.4519  -30.4663   21.5349 C   0  0  2  0  0  0
  -24.9025  -28.9024   20.0979 C   0  0  0  0  0  0
  -22.7625  -29.4535   22.4865 C   0  0  0  0  0  0
  -18.0308  -28.1383   22.8374 C   0  0  0  0  0  0
  -24.1476  -36.7137   23.2635 C   0  0  0  0  0  0
  -26.0157  -30.7116   21.4034 C   0  0  0  0  0  0
  -26.0789  -29.3320   20.7270 C   0  0  0  0  0  0
  -27.2338  -28.4644   20.7304 C   0  0  0  0  0  0
  -26.0180  -26.8162   19.4603 C   0  0  0  0  0  0
  -24.8912  -27.6650   19.4391 C   0  0  0  0  0  0
  -23.6749  -29.8040   20.1492 C   0  0  0  0  0  0
  -25.4091  -36.2952   24.0351 C   0  0  1  0  0  0
  -20.5929  -28.3690   23.1161 C   0  0  2  0  0  0
  -20.6763  -26.9397   22.5318 C   0  0  0  0  0  0
  -19.5750  -26.6372   21.5106 C   0  0  0  0  0  0
  -18.1935  -26.7930   22.1524 C   0  0  0  0  0  0
  -19.1560  -28.8862   23.2744 C   0  0  0  0  0  0
  -18.9469  -30.1464   23.8755 C   0  0  0  0  0  0
  -17.6461  -30.6542   24.0515 C   0  0  0  0  0  0
  -25.9087  -34.9338   23.5076 C   0  0  0  0  0  0
  -16.5333  -29.9022   23.6389 C   0  0  0  0  0  0
  -16.7278  -28.6463   23.0331 C   0  0  0  0  0  0
  -26.4696  -31.6516   25.0805 C   0  0  0  0  0  0
  -25.3939  -31.3627   26.1542 C   0  0  0  0  0  0
  -27.0687  -30.2929   24.6467 C   0  0  0  0  0  0
  -27.6247  -32.4331   25.7546 C   0  0  0  0  0  0
  -27.5561  -37.1708   24.8457 C   0  0  0  0  0  0
  -21.4302  -29.3038   22.3600 N   0  0  0  0  0  0
  -26.4231  -37.3679   23.9460 N   0  0  0  0  0  0
  -24.7247  -31.0296   22.0964 N   0  0  0  0  0  0
  -23.4279  -28.8082   23.3003 O   0  0  0  0  0  0
  -28.2504  -26.1335   20.2615 O   0  0  0  0  0  0
  -26.5543  -34.8842   22.4595 O   0  0  0  0  0  0
  -23.5654  -32.1364   23.7173 O   0  0  0  0  0  0
  -30.4909  -21.2444   21.6254 C   0  0  0  0  0  0
  -28.6315  -21.8941   20.2875 C   0  0  0  0  0  0
  -29.4460  -20.7608   20.7889 C   0  0  0  0  0  0
  -30.7031  -22.6351   21.8688 C   0  0  0  0  0  0
  -28.8657  -23.3303   20.5768 C   0  0  0  0  0  0
  -30.0218  -18.5030   19.3950 C   0  0  0  0  0  0
  -29.2336  -19.1273   20.5212 C   0  0  1  0  0  0
  -30.1518  -17.7083   20.6804 C   0  0  1  0  0  0
  -31.8450  -23.1254   22.7621 C   0  0  0  0  0  0
  -27.9260  -24.6126   20.1238 C   0  0  0  0  0  0
  -29.9280  -23.6293   21.3622 N   0  0  0  0  0  0
  -29.7730  -16.1810   20.6073 N   0  0  0  0  0  0
  -31.4730  -12.8036   19.1919 H   0  0  0  0  0  0
  -30.4724  -11.6693   20.0550 H   0  0  0  0  0  0
  -29.8863  -11.7130   17.6129 H   0  0  0  0  0  0
  -29.6207  -13.4385   17.6852 H   0  0  0  0  0  0
  -27.9611  -11.2601   18.9730 H   0  0  0  0  0  0
  -27.4148  -12.4217   17.7978 H   0  0  0  0  0  0
  -27.5950  -14.2347   19.3746 H   0  0  0  0  0  0
  -28.7675  -12.3058   21.4411 H   0  0  0  0  0  0
  -28.3400  -13.9782   21.7418 H   0  0  0  0  0  0
  -25.2585   -9.5854   22.4741 H   0  0  0  0  0  0
  -23.9950   -7.4753   22.7513 H   0  0  0  0  0  0
  -21.0792   -8.8696   19.8939 H   0  0  0  0  0  0
  -22.3503  -10.9646   19.6115 H   0  0  0  0  0  0
  -21.1963   -7.6084   23.9705 H   0  0  0  0  0  0
  -21.1523   -6.0430   25.9071 H   0  0  0  0  0  0
  -22.0595   -2.7556   23.2781 H   0  0  0  0  0  0
  -22.3688  -12.0088   22.4861 H   0  0  0  0  0  0
  -21.0852  -13.1585   22.2269 H   0  0  0  0  0  0
  -24.6611  -15.8474   20.5093 H   0  0  0  0  0  0
  -26.2817  -15.6202   20.0880 H   0  0  0  0  0  0
  -26.7412  -32.5243   23.1098 H   0  0  0  0  0  0
  -25.0624  -33.9577   25.0661 H   0  0  0  0  0  0
  -22.7548  -31.2932   21.3861 H   0  0  0  0  0  0
  -23.3794  -35.9408   23.3202 H   0  0  0  0  0  0
  -24.3606  -36.8829   22.2066 H   0  0  0  0  0  0
  -23.7150  -37.6268   23.6728 H   0  0  0  0  0  0
  -26.2155  -31.4825   20.6583 H   0  0  0  0  0  0
  -26.8697  -30.7314   22.0683 H   0  0  0  0  0  0
  -28.1313  -28.7844   21.2394 H   0  0  0  0  0  0
  -25.9248  -25.8770   18.9346 H   0  0  0  0  0  0
  -24.0021  -27.3508   18.9085 H   0  0  0  0  0  0
  -23.7978  -30.5850   19.3998 H   0  0  0  0  0  0
  -22.7904  -29.2436   19.8432 H   0  0  0  0  0  0
  -25.1278  -36.1741   25.0842 H   0  0  0  0  0  0
  -20.9967  -28.3208   24.1299 H   0  0  0  0  0  0
  -20.5579  -26.2292   23.3509 H   0  0  0  0  0  0
  -21.6647  -26.7382   22.1161 H   0  0  0  0  0  0
  -19.6916  -25.6287   21.1142 H   0  0  0  0  0  0
  -19.6699  -27.3168   20.6612 H   0  0  0  0  0  0
  -17.4225  -26.6629   21.3919 H   0  0  0  0  0  0
  -18.0339  -26.0089   22.8928 H   0  0  0  0  0  0
  -19.7957  -30.7306   24.2025 H   0  0  0  0  0  0
  -17.5026  -31.6206   24.5134 H   0  0  0  0  0  0
  -15.5341  -30.2836   23.7830 H   0  0  0  0  0  0
  -15.8683  -28.0757   22.7104 H   0  0  0  0  0  0
  -24.6116  -30.6966   25.7876 H   0  0  0  0  0  0
  -24.9163  -32.2769   26.5081 H   0  0  0  0  0  0
  -25.8349  -30.8744   27.0251 H   0  0  0  0  0  0
  -26.3436  -29.6512   24.1471 H   0  0  0  0  0  0
  -27.4283  -29.7337   25.5113 H   0  0  0  0  0  0
  -27.9313  -30.4139   23.9915 H   0  0  0  0  0  0
  -27.2877  -33.3657   26.2065 H   0  0  0  0  0  0
  -28.4088  -32.6837   25.0395 H   0  0  0  0  0  0
  -28.0939  -31.8517   26.5489 H   0  0  0  0  0  0
  -28.2500  -38.0080   24.7679 H   0  0  0  0  0  0
  -28.1146  -36.2650   24.6093 H   0  0  0  0  0  0
  -27.2335  -37.1099   25.8857 H   0  0  0  0  0  0
  -20.9541  -29.8674   21.6704 H   0  0  0  0  0  0
  -26.0068  -38.2719   24.1534 H   0  0  0  0  0  0
  -31.1440  -20.5305   22.1098 H   0  0  0  0  0  0
  -27.7741  -21.6556   19.6658 H   0  0  0  0  0  0
  -30.9123  -19.0368   19.0629 H   0  0  0  0  0  0
  -29.4450  -18.0707   18.5807 H   0  0  0  0  0  0
  -28.1584  -18.9626   20.5235 H   0  0  0  0  0  0
  -31.0211  -17.8975   21.3071 H   0  0  0  0  0  0
  -32.4257  -22.3107   23.1935 H   0  0  0  0  0  0
  -31.4773  -23.7266   23.5955 H   0  0  0  0  0  0
  -32.5420  -23.7564   22.2075 H   0  0  0  0  0  0
  -27.0091  -24.4680   20.6959 H   0  0  0  0  0  0
  -27.6634  -24.4159   19.0811 H   0  0  0  0  0  0
  -28.7861  -16.0040   20.7324 H   0  0  0  0  0  0
  1 25  1  0  0  0
  1 30  2  0  0  0
  1 82  1  0  0  0
  2  3  1  0  0  0
  2 25  1  0  0  0
  2 83  1  0  0  0
  2 84  1  0  0  0
  3  4  1  0  0  0
  3 85  1  0  0  0
  3 86  1  0  0  0
  4  5  1  0  0  0
  4 87  1  0  0  0
  4 88  1  0  0  0
  5  6  1  0  0  0
  5 26  1  0  0  0
  5 89  1  0  0  0
  6 25  1  0  0  0
  6 90  1  0  0  0
  6 91  1  0  0  0
  7  8  2  0  0  0
  7 26  1  0  0  0
  7 29  1  0  0  0
  8  9  1  0  0  0
  8 22  1  0  0  0
  9 10  1  0  0  0
  9 27  2  0  0  0
 10 11  2  0  0  0
 10 15  1  0  0  0
 11 12  1  0  0  0
 11 92  1  0  0  0
 12 13  2  0  0  0
 12 93  1  0  0  0
 13 14  1  0  0  0
 13 31  1  0  0  0
 14 15  2  0  0  0
 14 94  1  0  0  0
 15 95  1  0  0  0
 16 17  2  0  0  0
 16 21  1  0  0  0
 16 31  1  0  0  0
 17 18  1  0  0  0
 17 96  1  0  0  0
 18 19  2  0  0  0
 18 97  1  0  0  0
 19 20  1  0  0  0
 19 24  1  0  0  0
 20 21  2  0  0  0
 20 98  1  0  0  0
 21 23  1  0  0  0
 22 28  1  0  0  0
 22 32  2  0  0  0
 26 27  1  0  0  0
 28 99  1  0  0  0
 28100  1  0  0  0
 29101  1  0  0  0
 29102  1  0  0  0
 33 34  1  0  0  0
 33 66  1  0  0  0
 33 70  2  0  0  0
 34 36  1  0  0  0
 34 59  1  0  0  0
 34103  1  0  0  0
 35 44  2  0  0  0
 35 45  1  0  0  0
 35 68  1  0  0  0
 36 56  1  0  0  0
 36104  1  0  0  0
 37 39  1  0  0  0
 37 47  1  0  0  0
 37 66  1  0  0  0
 37105  1  0  0  0
 38 43  2  0  0  0
 38 46  1  0  0  0
 38 47  1  0  0  0
 39 64  1  0  0  0
 39 67  2  0  0  0
 40 52  1  0  0  0
 40 53  2  0  0  0
 40 58  1  0  0  0
 41106  1  0  0  0
 41107  1  0  0  0
 41108  1  0  0  0
 41 48  1  0  0  0
 42 43  1  0  0  0
 42 66  1  0  0  0
 42109  1  0  0  0
 42110  1  0  0  0
 43 44  1  0  0  0
 44111  1  0  0  0
 45 46  2  0  0  0
 45112  1  0  0  0
 46113  1  0  0  0
 47114  1  0  0  0
 47115  1  0  0  0
 48 56  1  0  0  0
 48 65  1  0  0  0
 48116  1  0  0  0
 49 50  1  0  0  0
 49 53  1  0  0  0
 49 64  1  0  0  0
 49117  1  0  0  0
 50 51  1  0  0  0
 50118  1  0  0  0
 50119  1  0  0  0
 51 52  1  0  0  0
 51120  1  0  0  0
 51121  1  0  0  0
 52122  1  0  0  0
 52123  1  0  0  0
 53 54  1  0  0  0
 54 55  2  0  0  0
 54124  1  0  0  0
 55 57  1  0  0  0
 55125  1  0  0  0
 56 69  2  0  0  0
 57 58  2  0  0  0
 57126  1  0  0  0
 58127  1  0  0  0
 59 60  1  0  0  0
 59 61  1  0  0  0
 59 62  1  0  0  0
 60128  1  0  0  0
 60129  1  0  0  0
 60130  1  0  0  0
 61131  1  0  0  0
 61132  1  0  0  0
 61133  1  0  0  0
 62134  1  0  0  0
 62135  1  0  0  0
 62136  1  0  0  0
 63 65  1  0  0  0
 63137  1  0  0  0
 63138  1  0  0  0
 63139  1  0  0  0
 64140  1  0  0  0
 65141  1  0  0  0
 68 80  1  0  0  0
 71 73  2  0  0  0
 71 74  1  0  0  0
 71142  1  0  0  0
 72 73  1  0  0  0
 72 75  2  0  0  0
 72143  1  0  0  0
 73 77  1  0  0  0
 74 79  1  0  0  0
 74 81  2  0  0  0
 75 80  1  0  0  0
 75 81  1  0  0  0
 76 77  1  0  0  0
 76 78  1  0  0  0
 76144  1  0  0  0
 76145  1  0  0  0
 77 78  1  0  0  0
 77146  1  0  0  0
 78 82  1  0  0  0
 78147  1  0  0  0
 79148  1  0  0  0
 79149  1  0  0  0
 79150  1  0  0  0
 80151  1  0  0  0
 80152  1  0  0  0
 82153  1  0  0  0
M  ISO  4   1 100  68 101  80 101  82 100
M  END
> <chiral flag>
0

> <version>
0

> <s_m_source_file>
/data/baiqing/PycharmProjects/Reinvent-master-3.2/result/LINK_invent/BTK/process_docking_weight1_custom_sum_contain_oxygen_bond_distance_aromatic_linkinvent_7_9_3/rearranged_h_0182.sdf

> <i_m_source_file_index>
36

> <r_mmod_Potential_Energy-OPLS-2005>
421.821990966797

> <r_mmod_Stretch_Energy-OPLS-2005>
283.981475830078

> <r_mmod_Bend_Energy-OPLS-2005>
240.629821777344

> <r_mmod_Torsional_Energy-OPLS-2005>
263.758087158203

> <r_mmod_Improper_Torsional_Energy-OPLS-2005>
4.44572830200195

> <r_mmod_Van_der_Waal_Energy-OPLS-2005>
126.015472412109

> <r_mmod_Electrostatic_Energy-OPLS-2005>
-469.472625732422

> <r_mmod_Solvation_Energy-OPLS-2005>
-238.504745483398

> <b_mmod_Minimization_Converged-OPLS-2005>
0

> <r_mmod_RMS_Derivative-OPLS-2005>
7.7787652015686

$$$$
36
                    3D
 Structure written by MMmdl.
154163  0  0  1  0            999 V2000
  -30.5011  -15.0315   20.4181 C   0  0  0  0  0  0
  -30.4473  -12.6460   19.5197 C   0  0  0  0  0  0
  -29.5399  -12.5469   18.2714 C   0  0  0  0  0  0
  -28.0705  -12.3197   18.6816 C   0  0  0  0  0  0
  -27.6268  -13.2570   19.8354 C   0  0  2  0  0  0
  -28.6632  -13.3108   20.9767 C   0  0  0  0  0  0
  -25.2427  -13.8222   20.5692 C   0  0  0  0  0  0
  -24.1754  -13.0440   20.9215 C   0  0  0  0  0  0
  -24.6384  -11.6935   20.8733 C   0  0  0  0  0  0
  -23.9070  -10.4304   21.0403 C   0  0  0  0  0  0
  -24.3628   -9.4212   21.9169 C   0  0  0  0  0  0
  -23.6302   -8.2247   22.0738 C   0  0  0  0  0  0
  -22.4277   -8.0277   21.3536 C   0  0  0  0  0  0
  -21.9920   -9.0255   20.4636 C   0  0  0  0  0  0
  -22.7248  -10.2135   20.3046 C   0  0  0  0  0  0
  -21.6858   -6.0727   22.5276 C   0  0  0  0  0  0
  -21.4017   -6.5631   23.8209 C   0  0  0  0  0  0
  -21.3671   -5.6783   24.9173 C   0  0  0  0  0  0
  -21.6050   -4.3045   24.7220 C   0  0  0  0  0  0
  -21.8818   -3.8136   23.4340 C   0  0  0  0  0  0
  -21.9200   -4.6955   22.3400 C   0  0  0  0  0  0
  -22.7782  -13.5225   21.1884 C   0  0  0  0  0  0
  -22.1663   -4.2140   21.0972 F   0  0  0  0  0  0
  -21.5640   -3.4531   25.7738 F   0  0  0  0  0  0
  -29.9297  -13.7530   20.3817 N   0  0  0  0  0  0
  -26.2860  -12.9467   20.3211 N   0  0  0  0  0  0
  -25.9311  -11.6586   20.5690 N   0  0  0  0  0  0
  -22.0419  -12.8221   22.0437 N   0  0  0  0  0  0
  -25.4092  -15.1957   20.4109 N   0  0  0  0  0  0
  -31.7023  -15.0925   20.1309 O   0  0  0  0  0  0
  -21.6645   -6.8870   21.4236 O   0  0  0  0  0  0
  -22.3479  -14.5540   20.6725 O   0  0  0  0  0  0
  -24.6461  -31.8397   23.1837 C   0  0  0  0  0  0
  -25.9221  -32.4672   23.8260 C   0  0  1  0  0  0
  -27.2204  -27.0863   20.1756 C   0  0  0  0  0  0
  -25.5950  -33.8479   24.2168 N   0  0  0  0  0  0
  -23.4531  -30.4551   21.5280 C   0  0  2  0  0  0
  -24.9036  -28.8621   20.1184 C   0  0  0  0  0  0
  -22.7569  -29.4529   22.4833 C   0  0  0  0  0  0
  -18.0310  -28.1405   22.8477 C   0  0  0  0  0  0
  -24.1493  -36.7240   23.2645 C   0  0  0  0  0  0
  -26.0096  -30.6964   21.3906 C   0  0  0  0  0  0
  -26.0794  -29.2975   20.7430 C   0  0  0  0  0  0
  -27.2360  -28.4252   20.7542 C   0  0  0  0  0  0
  -26.0228  -26.7565   19.5109 C   0  0  0  0  0  0
  -24.8887  -27.6039   19.4911 C   0  0  0  0  0  0
  -23.6852  -29.7759   20.1512 C   0  0  0  0  0  0
  -25.4126  -36.3011   24.0309 C   0  0  1  0  0  0
  -20.5922  -28.3734   23.1229 C   0  0  2  0  0  0
  -20.6782  -26.9429   22.5407 C   0  0  0  0  0  0
  -19.5756  -26.6378   21.5213 C   0  0  0  0  0  0
  -18.1944  -26.7938   22.1628 C   0  0  0  0  0  0
  -19.1571  -28.8882   23.2850 C   0  0  0  0  0  0
  -18.9481  -30.1478   23.8874 C   0  0  0  0  0  0
  -17.6480  -30.6588   24.0555 C   0  0  0  0  0  0
  -25.9077  -34.9390   23.5052 C   0  0  0  0  0  0
  -16.5372  -29.9084   23.6328 C   0  0  0  0  0  0
  -16.7300  -28.6505   23.0348 C   0  0  0  0  0  0
  -26.4529  -31.6553   25.0715 C   0  0  0  0  0  0
  -25.3697  -31.3749   26.1395 C   0  0  0  0  0  0
  -27.0395  -30.2944   24.6326 C   0  0  0  0  0  0
  -27.6059  -32.4320   25.7498 C   0  0  0  0  0  0
  -27.5576  -37.1774   24.8460 C   0  0  0  0  0  0
  -21.4258  -29.3058   22.3582 N   0  0  0  0  0  0
  -26.4285  -37.3732   23.9409 N   0  0  0  0  0  0
  -24.7235  -31.0214   22.0889 N   0  0  0  0  0  0
  -23.4193  -28.8083   23.2996 O   0  0  0  0  0  0
  -28.2991  -26.1171   20.1724 O   0  0  0  0  0  0
  -26.5673  -34.8898   22.4635 O   0  0  0  0  0  0
  -23.5566  -32.1299   23.7023 O   0  0  0  0  0  0
  -28.2570  -24.6334   20.3405 C   0  0  0  0  0  0
  -27.5382  -23.8082   21.2839 C   0  0  0  0  0  0
  -29.0281  -23.5780   19.7655 C   0  0  0  0  0  0
  -29.7771  -18.5950   21.6924 C   0  0  0  0  0  0
  -29.1247  -19.2236   20.4918 C   0  0  2  0  0  0
  -30.0343  -17.7681   20.4438 C   0  0  2  0  0  0
  -26.5470  -24.2722   22.3122 C   0  0  0  0  0  0
  -30.0588  -23.7483   18.6984 C   0  0  0  0  0  0
  -29.5217  -20.8204   20.0775 C   0  0  0  0  0  0
  -27.8422  -22.4750   21.2642 N   0  0  0  0  0  0
  -28.7926  -22.2433   20.3163 N   0  0  0  0  0  0
  -29.7127  -16.2249   20.5887 N   0  0  0  0  0  0
  -31.4804  -12.8173   19.2137 H   0  0  0  0  0  0
  -30.4581  -11.7033   20.0688 H   0  0  0  0  0  0
  -29.8838  -11.7394   17.6227 H   0  0  0  0  0  0
  -29.6266  -13.4652   17.6877 H   0  0  0  0  0  0
  -27.9774  -11.2810   18.9991 H   0  0  0  0  0  0
  -27.4131  -12.4368   17.8196 H   0  0  0  0  0  0
  -27.5783  -14.2538   19.3952 H   0  0  0  0  0  0
  -28.7694  -12.3380   21.4564 H   0  0  0  0  0  0
  -28.3447  -14.0044   21.7555 H   0  0  0  0  0  0
  -25.2770   -9.5702   22.4734 H   0  0  0  0  0  0
  -24.0015   -7.4649   22.7460 H   0  0  0  0  0  0
  -21.0842   -8.8772   19.8955 H   0  0  0  0  0  0
  -22.3694  -10.9662   19.6147 H   0  0  0  0  0  0
  -21.1993   -7.6137   23.9714 H   0  0  0  0  0  0
  -21.1500   -6.0505   25.9079 H   0  0  0  0  0  0
  -22.0586   -2.7596   23.2839 H   0  0  0  0  0  0
  -22.4054  -11.9924   22.4880 H   0  0  0  0  0  0
  -21.1012  -13.1219   22.2579 H   0  0  0  0  0  0
  -24.6350  -15.8441   20.5069 H   0  0  0  0  0  0
  -26.2461  -15.6318   20.0468 H   0  0  0  0  0  0
  -26.7288  -32.5270   23.0985 H   0  0  0  0  0  0
  -25.0042  -33.9586   25.0282 H   0  0  0  0  0  0
  -22.7600  -31.2824   21.3657 H   0  0  0  0  0  0
  -23.3764  -35.9564   23.3278 H   0  0  0  0  0  0
  -24.3585  -36.8904   22.2067 H   0  0  0  0  0  0
  -23.7235  -37.6420   23.6710 H   0  0  0  0  0  0
  -26.1705  -31.4444   20.6134 H   0  0  0  0  0  0
  -26.8785  -30.7537   22.0349 H   0  0  0  0  0  0
  -28.1384  -28.7550   21.2499 H   0  0  0  0  0  0
  -25.9534  -25.7953   19.0202 H   0  0  0  0  0  0
  -23.9913  -27.2606   18.9960 H   0  0  0  0  0  0
  -23.8355  -30.5463   19.3942 H   0  0  0  0  0  0
  -22.7981  -29.2256   19.8339 H   0  0  0  0  0  0
  -25.1315  -36.1833   25.0801 H   0  0  0  0  0  0
  -21.0047  -28.3330   24.1338 H   0  0  0  0  0  0
  -20.5657  -26.2346   23.3636 H   0  0  0  0  0  0
  -21.6651  -26.7398   22.1224 H   0  0  0  0  0  0
  -19.6908  -25.6279   21.1266 H   0  0  0  0  0  0
  -19.6697  -27.3155   20.6722 H   0  0  0  0  0  0
  -17.4209  -26.6691   21.4039 H   0  0  0  0  0  0
  -18.0344  -26.0096   22.9043 H   0  0  0  0  0  0
  -19.7960  -30.7306   24.2232 H   0  0  0  0  0  0
  -17.5026  -31.6265   24.5168 H   0  0  0  0  0  0
  -15.5370  -30.2969   23.7662 H   0  0  0  0  0  0
  -15.8706  -28.0810   22.7067 H   0  0  0  0  0  0
  -24.5887  -30.7090   25.7703 H   0  0  0  0  0  0
  -24.8869  -32.2925   26.4772 H   0  0  0  0  0  0
  -25.7967  -30.8948   27.0208 H   0  0  0  0  0  0
  -26.3018  -29.6660   24.1324 H   0  0  0  0  0  0
  -27.3971  -29.7265   25.4926 H   0  0  0  0  0  0
  -27.8945  -30.4169   23.9674 H   0  0  0  0  0  0
  -27.2668  -33.3648   26.2023 H   0  0  0  0  0  0
  -28.3903  -32.6836   25.0344 H   0  0  0  0  0  0
  -28.0695  -31.8475   26.5456 H   0  0  0  0  0  0
  -28.2565  -38.0098   24.7526 H   0  0  0  0  0  0
  -28.1103  -36.2625   24.6261 H   0  0  0  0  0  0
  -27.2301  -37.1379   25.8865 H   0  0  0  0  0  0
  -20.9465  -29.8789   21.6782 H   0  0  0  0  0  0
  -26.0140  -38.2795   24.1434 H   0  0  0  0  0  0
  -29.0949  -18.1942   22.4409 H   0  0  0  0  0  0
  -30.6398  -19.1049   22.1172 H   0  0  0  0  0  0
  -28.0550  -19.0551   20.3853 H   0  0  0  0  0  0
  -30.9996  -17.9266   19.9670 H   0  0  0  0  0  0
  -26.8286  -23.9350   23.3111 H   0  0  0  0  0  0
  -25.5513  -23.8849   22.0959 H   0  0  0  0  0  0
  -26.4770  -25.3599   22.3434 H   0  0  0  0  0  0
  -31.0556  -23.8288   19.1319 H   0  0  0  0  0  0
  -29.8696  -24.6520   18.1195 H   0  0  0  0  0  0
  -30.0554  -22.9113   18.0003 H   0  0  0  0  0  0
  -29.6449  -20.7720   18.9965 H   0  0  0  0  0  0
  -30.5391  -20.9685   20.4402 H   0  0  0  0  0  0
  -28.7446  -16.0240   20.7917 H   0  0  0  0  0  0
  1 25  1  0  0  0
  1 30  2  0  0  0
  1 82  1  0  0  0
  2  3  1  0  0  0
  2 25  1  0  0  0
  2 83  1  0  0  0
  2 84  1  0  0  0
  3  4  1  0  0  0
  3 85  1  0  0  0
  3 86  1  0  0  0
  4  5  1  0  0  0
  4 87  1  0  0  0
  4 88  1  0  0  0
  5  6  1  0  0  0
  5 26  1  0  0  0
  5 89  1  0  0  0
  6 25  1  0  0  0
  6 90  1  0  0  0
  6 91  1  0  0  0
  7  8  2  0  0  0
  7 26  1  0  0  0
  7 29  1  0  0  0
  8  9  1  0  0  0
  8 22  1  0  0  0
  9 10  1  0  0  0
  9 27  2  0  0  0
 10 11  2  0  0  0
 10 15  1  0  0  0
 11 12  1  0  0  0
 11 92  1  0  0  0
 12 13  2  0  0  0
 12 93  1  0  0  0
 13 14  1  0  0  0
 13 31  1  0  0  0
 14 15  2  0  0  0
 14 94  1  0  0  0
 15 95  1  0  0  0
 16 17  2  0  0  0
 16 21  1  0  0  0
 16 31  1  0  0  0
 17 18  1  0  0  0
 17 96  1  0  0  0
 18 19  2  0  0  0
 18 97  1  0  0  0
 19 20  1  0  0  0
 19 24  1  0  0  0
 20 21  2  0  0  0
 20 98  1  0  0  0
 21 23  1  0  0  0
 22 28  1  0  0  0
 22 32  2  0  0  0
 26 27  1  0  0  0
 28 99  1  0  0  0
 28100  1  0  0  0
 29101  1  0  0  0
 29102  1  0  0  0
 33 34  1  0  0  0
 33 66  1  0  0  0
 33 70  2  0  0  0
 34 36  1  0  0  0
 34 59  1  0  0  0
 34103  1  0  0  0
 35 44  2  0  0  0
 35 45  1  0  0  0
 35 68  1  0  0  0
 36 56  1  0  0  0
 36104  1  0  0  0
 37 39  1  0  0  0
 37 47  1  0  0  0
 37 66  1  0  0  0
 37105  1  0  0  0
 38 43  2  0  0  0
 38 46  1  0  0  0
 38 47  1  0  0  0
 39 64  1  0  0  0
 39 67  2  0  0  0
 40 52  1  0  0  0
 40 53  2  0  0  0
 40 58  1  0  0  0
 41106  1  0  0  0
 41107  1  0  0  0
 41108  1  0  0  0
 41 48  1  0  0  0
 42 43  1  0  0  0
 42 66  1  0  0  0
 42109  1  0  0  0
 42110  1  0  0  0
 43 44  1  0  0  0
 44111  1  0  0  0
 45 46  2  0  0  0
 45112  1  0  0  0
 46113  1  0  0  0
 47114  1  0  0  0
 47115  1  0  0  0
 48 56  1  0  0  0
 48 65  1  0  0  0
 48116  1  0  0  0
 49 50  1  0  0  0
 49 53  1  0  0  0
 49 64  1  0  0  0
 49117  1  0  0  0
 50 51  1  0  0  0
 50118  1  0  0  0
 50119  1  0  0  0
 51 52  1  0  0  0
 51120  1  0  0  0
 51121  1  0  0  0
 52122  1  0  0  0
 52123  1  0  0  0
 53 54  1  0  0  0
 54 55  2  0  0  0
 54124  1  0  0  0
 55 57  1  0  0  0
 55125  1  0  0  0
 56 69  2  0  0  0
 57 58  2  0  0  0
 57126  1  0  0  0
 58127  1  0  0  0
 59 60  1  0  0  0
 59 61  1  0  0  0
 59 62  1  0  0  0
 60128  1  0  0  0
 60129  1  0  0  0
 60130  1  0  0  0
 61131  1  0  0  0
 61132  1  0  0  0
 61133  1  0  0  0
 62134  1  0  0  0
 62135  1  0  0  0
 62136  1  0  0  0
 63 65  1  0  0  0
 63137  1  0  0  0
 63138  1  0  0  0
 63139  1  0  0  0
 64140  1  0  0  0
 65141  1  0  0  0
 68 71  1  0  0  0
 71 72  1  0  0  0
 71 73  2  0  0  0
 72 77  1  0  0  0
 72 80  2  0  0  0
 73 78  1  0  0  0
 73 81  1  0  0  0
 74 75  1  0  0  0
 74 76  1  0  0  0
 74142  1  0  0  0
 74143  1  0  0  0
 75 76  1  0  0  0
 75 79  1  0  0  0
 75144  1  0  0  0
 76 82  1  0  0  0
 76145  1  0  0  0
 77146  1  0  0  0
 77147  1  0  0  0
 77148  1  0  0  0
 78149  1  0  0  0
 78150  1  0  0  0
 78151  1  0  0  0
 79 81  1  0  0  0
 79152  1  0  0  0
 79153  1  0  0  0
 80 81  1  0  0  0
 82154  1  0  0  0
M  ISO  4   1 100  68 101  71 101  82 100
M  END
> <chiral flag>
0

> <version>
0

> <s_m_source_file>
/data/baiqing/PycharmProjects/Reinvent-master-3.2/result/LINK_invent/BTK/process_docking_weight1_custom_sum_contain_oxygen_bond_distance_aromatic_linkinvent_7_9_3/rearranged_h_0182.sdf

> <i_m_source_file_index>
37

> <r_mmod_Potential_Energy-OPLS-2005>
607.396850585938

> <r_mmod_Stretch_Energy-OPLS-2005>
313.476654052734

> <r_mmod_Bend_Energy-OPLS-2005>
282.976104736328

> <r_mmod_Torsional_Energy-OPLS-2005>
273.791656494141

> <r_mmod_Improper_Torsional_Energy-OPLS-2005>
4.97457313537598

> <r_mmod_Van_der_Waal_Energy-OPLS-2005>
99.1007385253906

> <r_mmod_Electrostatic_Energy-OPLS-2005>
-389.23388671875

> <r_mmod_Solvation_Energy-OPLS-2005>
-218.343780517578

> <b_mmod_Minimization_Converged-OPLS-2005>
0

> <r_mmod_RMS_Derivative-OPLS-2005>
2.54766845703125

$$$$
37
                    3D
 Structure written by MMmdl.
155164  0  0  1  0            999 V2000
  -30.6650  -14.6899   20.4916 C   0  0  0  0  0  0
  -30.4245  -12.4323   19.4563 C   0  0  0  0  0  0
  -29.4995  -12.5088   18.2228 C   0  0  0  0  0  0
  -28.0247  -12.3420   18.6372 C   0  0  0  0  0  0
  -27.6437  -13.2247   19.8556 C   0  0  2  0  0  0
  -28.6941  -13.1125   20.9819 C   0  0  0  0  0  0
  -25.2496  -13.8178   20.5673 C   0  0  0  0  0  0
  -24.1792  -13.0429   20.9203 C   0  0  0  0  0  0
  -24.6384  -11.6907   20.8755 C   0  0  0  0  0  0
  -23.9065  -10.4286   21.0413 C   0  0  0  0  0  0
  -24.3620   -9.4202   21.9186 C   0  0  0  0  0  0
  -23.6293   -8.2238   22.0753 C   0  0  0  0  0  0
  -22.4275   -8.0276   21.3541 C   0  0  0  0  0  0
  -21.9912   -9.0252   20.4645 C   0  0  0  0  0  0
  -22.7242  -10.2132   20.3057 C   0  0  0  0  0  0
  -21.6852   -6.0731   22.5278 C   0  0  0  0  0  0
  -21.4013   -6.5636   23.8210 C   0  0  0  0  0  0
  -21.3660   -5.6790   24.9172 C   0  0  0  0  0  0
  -21.6046   -4.3056   24.7225 C   0  0  0  0  0  0
  -21.8817   -3.8143   23.4347 C   0  0  0  0  0  0
  -21.9191   -4.6957   22.3404 C   0  0  0  0  0  0
  -22.7815  -13.5216   21.1863 C   0  0  0  0  0  0
  -22.1659   -4.2142   21.0982 F   0  0  0  0  0  0
  -21.5631   -3.4542   25.7739 F   0  0  0  0  0  0
  -29.9900  -13.4895   20.4007 N   0  0  0  0  0  0
  -26.2941  -12.9383   20.3309 N   0  0  0  0  0  0
  -25.9319  -11.6532   20.5774 N   0  0  0  0  0  0
  -22.0466  -12.8206   22.0426 N   0  0  0  0  0  0
  -25.4132  -15.1897   20.4030 N   0  0  0  0  0  0
  -31.8478  -14.7346   20.1384 O   0  0  0  0  0  0
  -21.6640   -6.8873   21.4239 O   0  0  0  0  0  0
  -22.3495  -14.5520   20.6710 O   0  0  0  0  0  0
  -24.6283  -31.8579   23.2008 C   0  0  0  0  0  0
  -25.9127  -32.4765   23.8340 C   0  0  1  0  0  0
  -27.2254  -27.3003   20.1016 C   0  0  0  0  0  0
  -25.5938  -33.8567   24.2268 N   0  0  0  0  0  0
  -23.4222  -30.4820   21.5447 C   0  0  2  0  0  0
  -24.8661  -28.9343   20.1099 C   0  0  0  0  0  0
  -22.7484  -29.4619   22.4932 C   0  0  0  0  0  0
  -18.0286  -28.1389   22.8487 C   0  0  0  0  0  0
  -24.1489  -36.7286   23.2629 C   0  0  0  0  0  0
  -25.9650  -30.7811   21.3743 C   0  0  0  0  0  0
  -26.0366  -29.4071   20.7146 C   0  0  0  0  0  0
  -27.2142  -28.5996   20.7059 C   0  0  0  0  0  0
  -26.0173  -26.8735   19.5007 C   0  0  0  0  0  0
  -24.8583  -27.6723   19.4991 C   0  0  0  0  0  0
  -23.6364  -29.8180   20.1595 C   0  0  0  0  0  0
  -25.4107  -36.3072   24.0328 C   0  0  1  0  0  0
  -20.5890  -28.3695   23.1279 C   0  0  2  0  0  0
  -20.6779  -26.9415   22.5407 C   0  0  0  0  0  0
  -19.5752  -26.6386   21.5213 C   0  0  0  0  0  0
  -18.1934  -26.7929   22.1628 C   0  0  0  0  0  0
  -19.1541  -28.8859   23.2877 C   0  0  0  0  0  0
  -18.9464  -30.1462   23.8894 C   0  0  0  0  0  0
  -17.6460  -30.6588   24.0568 C   0  0  0  0  0  0
  -25.9058  -34.9447   23.5099 C   0  0  0  0  0  0
  -16.5352  -29.9085   23.6335 C   0  0  0  0  0  0
  -16.7273  -28.6506   23.0350 C   0  0  0  0  0  0
  -26.4500  -31.6581   25.0720 C   0  0  0  0  0  0
  -25.3735  -31.3741   26.1456 C   0  0  0  0  0  0
  -27.0328  -30.2994   24.6192 C   0  0  0  0  0  0
  -27.6069  -32.4307   25.7484 C   0  0  0  0  0  0
  -27.5597  -37.1764   24.8437 C   0  0  0  0  0  0
  -21.4197  -29.3043   22.3673 N   0  0  0  0  0  0
  -26.4265  -37.3789   23.9447 N   0  0  0  0  0  0
  -24.6913  -31.0574   22.0969 N   0  0  0  0  0  0
  -23.4197  -28.8157   23.3019 O   0  0  0  0  0  0
  -28.3544  -26.4600   20.1656 O   0  0  0  0  0  0
  -26.5630  -34.8923   22.4668 O   0  0  0  0  0  0
  -23.5444  -32.1392   23.7327 O   0  0  0  0  0  0
  -28.2470  -21.3643   19.8652 C   0  0  0  0  0  0
  -27.8675  -22.7215   19.6240 C   0  0  0  0  0  0
  -30.3302  -22.2104   20.6426 C   0  0  0  0  0  0
  -29.5386  -21.0546   20.3673 C   0  0  0  0  0  0
  -28.7537  -23.8021   19.8845 C   0  0  0  0  0  0
  -28.8575  -17.8000   21.6637 C   0  0  0  0  0  0
  -28.8916  -16.2537   21.5187 C   0  0  0  0  0  0
  -30.4773  -17.2037   20.0526 C   0  0  0  0  0  0
  -29.4777  -18.3758   20.3909 C   0  0  2  0  0  0
  -28.4989  -25.2574   19.3054 C   0  0  0  0  0  0
  -29.9726  -23.5125   20.4127 N   0  0  0  0  0  0
  -29.9707  -15.8943   20.5888 N   0  0  0  0  0  0
  -30.0880  -19.7340   20.5776 N   0  0  0  0  0  0
  -31.4649  -12.5408   19.1456 H   0  0  0  0  0  0
  -30.3633  -11.4487   19.9244 H   0  0  0  0  0  0
  -29.7721  -11.7426   17.4960 H   0  0  0  0  0  0
  -29.6326  -13.4682   17.7206 H   0  0  0  0  0  0
  -27.8676  -11.2905   18.8799 H   0  0  0  0  0  0
  -27.3680  -12.5592   17.7938 H   0  0  0  0  0  0
  -27.6487  -14.2525   19.4935 H   0  0  0  0  0  0
  -28.7336  -12.0917   21.3646 H   0  0  0  0  0  0
  -28.4293  -13.7241   21.8408 H   0  0  0  0  0  0
  -25.2766   -9.5681   22.4762 H   0  0  0  0  0  0
  -23.9999   -7.4633   22.7477 H   0  0  0  0  0  0
  -21.0841   -8.8776   19.8957 H   0  0  0  0  0  0
  -22.3700  -10.9673   19.6169 H   0  0  0  0  0  0
  -21.2002   -7.6144   23.9711 H   0  0  0  0  0  0
  -21.1483   -6.0522   25.9076 H   0  0  0  0  0  0
  -22.0596   -2.7604   23.2847 H   0  0  0  0  0  0
  -22.4082  -11.9860   22.4803 H   0  0  0  0  0  0
  -21.1089  -13.1227   22.2645 H   0  0  0  0  0  0
  -24.6460  -15.8427   20.5185 H   0  0  0  0  0  0
  -26.2610  -15.6307   20.0717 H   0  0  0  0  0  0
  -26.7193  -32.5421   23.1082 H   0  0  0  0  0  0
  -25.0083  -33.9709   25.0414 H   0  0  0  0  0  0
  -22.7173  -31.3036   21.4015 H   0  0  0  0  0  0
  -23.3777  -35.9585   23.3211 H   0  0  0  0  0  0
  -24.3609  -36.8990   22.2062 H   0  0  0  0  0  0
  -23.7193  -37.6442   23.6703 H   0  0  0  0  0  0
  -26.0994  -31.5436   20.6062 H   0  0  0  0  0  0
  -26.8444  -30.8279   22.0048 H   0  0  0  0  0  0
  -28.1117  -28.9596   21.1898 H   0  0  0  0  0  0
  -25.9102  -25.8954   19.0604 H   0  0  0  0  0  0
  -23.9539  -27.2960   19.0408 H   0  0  0  0  0  0
  -23.7575  -30.5953   19.4038 H   0  0  0  0  0  0
  -22.7551  -29.2502   19.8559 H   0  0  0  0  0  0
  -25.1271  -36.1902   25.0814 H   0  0  0  0  0  0
  -20.9978  -28.3268   24.1401 H   0  0  0  0  0  0
  -20.5689  -26.2305   23.3608 H   0  0  0  0  0  0
  -21.6647  -26.7449   22.1191 H   0  0  0  0  0  0
  -19.6916  -25.6297   21.1244 H   0  0  0  0  0  0
  -19.6690  -27.3198   20.6743 H   0  0  0  0  0  0
  -17.4202  -26.6672   21.4033 H   0  0  0  0  0  0
  -18.0337  -26.0073   22.9026 H   0  0  0  0  0  0
  -19.7943  -30.7283   24.2253 H   0  0  0  0  0  0
  -17.5017  -31.6270   24.5163 H   0  0  0  0  0  0
  -15.5354  -30.2986   23.7666 H   0  0  0  0  0  0
  -15.8673  -28.0826   22.7059 H   0  0  0  0  0  0
  -24.5866  -30.7147   25.7779 H   0  0  0  0  0  0
  -24.8989  -32.2925   26.4923 H   0  0  0  0  0  0
  -25.8047  -30.8865   27.0209 H   0  0  0  0  0  0
  -26.2897  -29.6747   24.1224 H   0  0  0  0  0  0
  -27.4015  -29.7253   25.4702 H   0  0  0  0  0  0
  -27.8777  -30.4259   23.9421 H   0  0  0  0  0  0
  -27.2692  -33.3615   26.2052 H   0  0  0  0  0  0
  -28.3882  -32.6848   25.0308 H   0  0  0  0  0  0
  -28.0733  -31.8434   26.5404 H   0  0  0  0  0  0
  -28.2502  -38.0173   24.7654 H   0  0  0  0  0  0
  -28.1207  -36.2720   24.6031 H   0  0  0  0  0  0
  -27.2358  -37.1123   25.8840 H   0  0  0  0  0  0
  -20.9379  -29.8765   21.6881 H   0  0  0  0  0  0
  -26.0135  -38.2834   24.1560 H   0  0  0  0  0  0
  -27.5559  -20.5705   19.6209 H   0  0  0  0  0  0
  -26.9064  -22.9211   19.1712 H   0  0  0  0  0  0
  -31.3282  -22.0851   21.0371 H   0  0  0  0  0  0
  -29.4595  -18.0823   22.5292 H   0  0  0  0  0  0
  -27.8493  -18.1773   21.8386 H   0  0  0  0  0  0
  -27.9444  -15.9093   21.1115 H   0  0  0  0  0  0
  -29.0317  -15.7844   22.4932 H   0  0  0  0  0  0
  -31.4482  -17.3957   20.5126 H   0  0  0  0  0  0
  -30.6477  -17.1364   18.9770 H   0  0  0  0  0  0
  -28.7139  -18.4166   19.6115 H   0  0  0  0  0  0
  -27.7409  -25.1854   18.5304 H   0  0  0  0  0  0
  -29.3925  -25.4739   18.7194 H   0  0  0  0  0  0
  -31.0510  -19.7192   20.9086 H   0  0  0  0  0  0
  1 25  1  0  0  0
  1 30  2  0  0  0
  1 82  1  0  0  0
  2  3  1  0  0  0
  2 25  1  0  0  0
  2 84  1  0  0  0
  2 85  1  0  0  0
  3  4  1  0  0  0
  3 86  1  0  0  0
  3 87  1  0  0  0
  4  5  1  0  0  0
  4 88  1  0  0  0
  4 89  1  0  0  0
  5  6  1  0  0  0
  5 26  1  0  0  0
  5 90  1  0  0  0
  6 25  1  0  0  0
  6 91  1  0  0  0
  6 92  1  0  0  0
  7  8  2  0  0  0
  7 26  1  0  0  0
  7 29  1  0  0  0
  8  9  1  0  0  0
  8 22  1  0  0  0
  9 10  1  0  0  0
  9 27  2  0  0  0
 10 11  2  0  0  0
 10 15  1  0  0  0
 11 12  1  0  0  0
 11 93  1  0  0  0
 12 13  2  0  0  0
 12 94  1  0  0  0
 13 14  1  0  0  0
 13 31  1  0  0  0
 14 15  2  0  0  0
 14 95  1  0  0  0
 15 96  1  0  0  0
 16 17  2  0  0  0
 16 21  1  0  0  0
 16 31  1  0  0  0
 17 18  1  0  0  0
 17 97  1  0  0  0
 18 19  2  0  0  0
 18 98  1  0  0  0
 19 20  1  0  0  0
 19 24  1  0  0  0
 20 21  2  0  0  0
 20 99  1  0  0  0
 21 23  1  0  0  0
 22 28  1  0  0  0
 22 32  2  0  0  0
 26 27  1  0  0  0
 28100  1  0  0  0
 28101  1  0  0  0
 29102  1  0  0  0
 29103  1  0  0  0
 33 34  1  0  0  0
 33 66  1  0  0  0
 33 70  2  0  0  0
 34 36  1  0  0  0
 34 59  1  0  0  0
 34104  1  0  0  0
 35 44  2  0  0  0
 35 45  1  0  0  0
 35 68  1  0  0  0
 36 56  1  0  0  0
 36105  1  0  0  0
 37 39  1  0  0  0
 37 47  1  0  0  0
 37 66  1  0  0  0
 37106  1  0  0  0
 38 43  2  0  0  0
 38 46  1  0  0  0
 38 47  1  0  0  0
 39 64  1  0  0  0
 39 67  2  0  0  0
 40 52  1  0  0  0
 40 53  2  0  0  0
 40 58  1  0  0  0
 41107  1  0  0  0
 41108  1  0  0  0
 41109  1  0  0  0
 41 48  1  0  0  0
 42 43  1  0  0  0
 42 66  1  0  0  0
 42110  1  0  0  0
 42111  1  0  0  0
 43 44  1  0  0  0
 44112  1  0  0  0
 45 46  2  0  0  0
 45113  1  0  0  0
 46114  1  0  0  0
 47115  1  0  0  0
 47116  1  0  0  0
 48 56  1  0  0  0
 48 65  1  0  0  0
 48117  1  0  0  0
 49 50  1  0  0  0
 49 53  1  0  0  0
 49 64  1  0  0  0
 49118  1  0  0  0
 50 51  1  0  0  0
 50119  1  0  0  0
 50120  1  0  0  0
 51 52  1  0  0  0
 51121  1  0  0  0
 51122  1  0  0  0
 52123  1  0  0  0
 52124  1  0  0  0
 53 54  1  0  0  0
 54 55  2  0  0  0
 54125  1  0  0  0
 55 57  1  0  0  0
 55126  1  0  0  0
 56 69  2  0  0  0
 57 58  2  0  0  0
 57127  1  0  0  0
 58128  1  0  0  0
 59 60  1  0  0  0
 59 61  1  0  0  0
 59 62  1  0  0  0
 60129  1  0  0  0
 60130  1  0  0  0
 60131  1  0  0  0
 61132  1  0  0  0
 61133  1  0  0  0
 61134  1  0  0  0
 62135  1  0  0  0
 62136  1  0  0  0
 62137  1  0  0  0
 63 65  1  0  0  0
 63138  1  0  0  0
 63139  1  0  0  0
 63140  1  0  0  0
 64141  1  0  0  0
 65142  1  0  0  0
 68 80  1  0  0  0
 71 72  2  0  0  0
 71 74  1  0  0  0
 71143  1  0  0  0
 72 75  1  0  0  0
 72144  1  0  0  0
 73 74  2  0  0  0
 73 81  1  0  0  0
 73145  1  0  0  0
 74 83  1  0  0  0
 75 80  1  0  0  0
 75 81  2  0  0  0
 76 77  1  0  0  0
 76 79  1  0  0  0
 76146  1  0  0  0
 76147  1  0  0  0
 77 82  1  0  0  0
 77148  1  0  0  0
 77149  1  0  0  0
 78 79  1  0  0  0
 78 82  1  0  0  0
 78150  1  0  0  0
 78151  1  0  0  0
 79 83  1  0  0  0
 79152  1  0  0  0
 80153  1  0  0  0
 80154  1  0  0  0
 83155  1  0  0  0
M  ISO  4   1 100  68 101  80 101  82 100
M  END
> <chiral flag>
0

> <version>
0

> <s_m_source_file>
/data/baiqing/PycharmProjects/Reinvent-master-3.2/result/LINK_invent/BTK/process_docking_weight1_custom_sum_contain_oxygen_bond_distance_aromatic_linkinvent_7_9_3/rearranged_h_0182.sdf

> <i_m_source_file_index>
38

> <r_mmod_Potential_Energy-OPLS-2005>
196.321136474609

> <r_mmod_Stretch_Energy-OPLS-2005>
89.2336654663086

> <r_mmod_Bend_Energy-OPLS-2005>
204.422088623047

> <r_mmod_Torsional_Energy-OPLS-2005>
306.938171386719

> <r_mmod_Improper_Torsional_Energy-OPLS-2005>
13.4608154296875

> <r_mmod_Van_der_Waal_Energy-OPLS-2005>
142.240173339844

> <r_mmod_Electrostatic_Energy-OPLS-2005>
-390.033020019531

> <r_mmod_Solvation_Energy-OPLS-2005>
-230.209976196289

> <b_mmod_Minimization_Converged-OPLS-2005>
0

> <r_mmod_RMS_Derivative-OPLS-2005>
0.880199015140533

$$$$
38
                    3D
 Structure written by MMmdl.
161171  0  0  1  0            999 V2000
  -30.4010  -15.3596   20.3714 C   0  0  0  0  0  0
  -30.4428  -12.8831   19.5326 C   0  0  0  0  0  0
  -29.5463  -12.6000   18.2985 C   0  0  0  0  0  0
  -28.0958  -12.3083   18.7223 C   0  0  0  0  0  0
  -27.6078  -13.2857   19.8206 C   0  0  2  0  0  0
  -28.6385  -13.4927   20.9519 C   0  0  0  0  0  0
  -25.2364  -13.8252   20.5786 C   0  0  0  0  0  0
  -24.1722  -13.0441   20.9286 C   0  0  0  0  0  0
  -24.6401  -11.6941   20.8787 C   0  0  0  0  0  0
  -23.9104  -10.4296   21.0431 C   0  0  0  0  0  0
  -24.3656   -9.4214   21.9216 C   0  0  0  0  0  0
  -23.6315   -8.2263   22.0786 C   0  0  0  0  0  0
  -22.4298   -8.0296   21.3570 C   0  0  0  0  0  0
  -21.9935   -9.0274   20.4678 C   0  0  0  0  0  0
  -22.7274  -10.2142   20.3076 C   0  0  0  0  0  0
  -21.6842   -6.0748   22.5288 C   0  0  0  0  0  0
  -21.3997   -6.5642   23.8221 C   0  0  0  0  0  0
  -21.3665   -5.6791   24.9181 C   0  0  0  0  0  0
  -21.6067   -4.3055   24.7222 C   0  0  0  0  0  0
  -21.8813   -3.8148   23.4335 C   0  0  0  0  0  0
  -21.9168   -4.6975   22.3401 C   0  0  0  0  0  0
  -22.7727  -13.5201   21.1897 C   0  0  0  0  0  0
  -22.1654   -4.2167   21.0977 F   0  0  0  0  0  0
  -21.5643   -3.4540   25.7742 F   0  0  0  0  0  0
  -29.8551  -14.0351   20.3211 N   0  0  0  0  0  0
  -26.2790  -12.9552   20.3208 N   0  0  0  0  0  0
  -25.9336  -11.6646   20.5708 N   0  0  0  0  0  0
  -22.0354  -12.8231   22.0444 N   0  0  0  0  0  0
  -25.3982  -15.1994   20.4246 N   0  0  0  0  0  0
  -31.6246  -15.3525   20.1710 O   0  0  0  0  0  0
  -21.6647   -6.8901   21.4251 O   0  0  0  0  0  0
  -22.3445  -14.5524   20.6723 O   0  0  0  0  0  0
  -24.6672  -31.8167   23.1631 C   0  0  0  0  0  0
  -25.9328  -32.4548   23.8117 C   0  0  1  0  0  0
  -27.2210  -26.8613   20.2006 C   0  0  0  0  0  0
  -25.5981  -33.8370   24.2008 N   0  0  0  0  0  0
  -23.4862  -30.4245   21.5151 C   0  0  2  0  0  0
  -24.9434  -28.7991   20.1075 C   0  0  0  0  0  0
  -22.7706  -29.4401   22.4782 C   0  0  0  0  0  0
  -18.0345  -28.1412   22.8479 C   0  0  0  0  0  0
  -24.1504  -36.7194   23.2653 C   0  0  0  0  0  0
  -26.0591  -30.6015   21.4074 C   0  0  0  0  0  0
  -26.1247  -29.1845   20.7535 C   0  0  0  0  0  0
  -27.2520  -28.2363   20.7763 C   0  0  0  0  0  0
  -26.0168  -26.6516   19.4886 C   0  0  0  0  0  0
  -24.9189  -27.5562   19.4530 C   0  0  0  0  0  0
  -23.7311  -29.7337   20.1427 C   0  0  0  0  0  0
  -25.4147  -36.2947   24.0293 C   0  0  1  0  0  0
  -20.5956  -28.3755   23.1211 C   0  0  2  0  0  0
  -20.6815  -26.9429   22.5415 C   0  0  0  0  0  0
  -19.5779  -26.6370   21.5241 C   0  0  0  0  0  0
  -18.1965  -26.7946   22.1631 C   0  0  0  0  0  0
  -19.1599  -28.8914   23.2824 C   0  0  0  0  0  0
  -18.9503  -30.1514   23.8836 C   0  0  0  0  0  0
  -17.6490  -30.6596   24.0564 C   0  0  0  0  0  0
  -25.9113  -34.9339   23.4975 C   0  0  0  0  0  0
  -16.5383  -29.9068   23.6355 C   0  0  0  0  0  0
  -16.7324  -28.6496   23.0362 C   0  0  0  0  0  0
  -26.4558  -31.6532   25.0685 C   0  0  0  0  0  0
  -25.3662  -31.3786   26.1329 C   0  0  0  0  0  0
  -27.0464  -30.2894   24.6452 C   0  0  0  0  0  0
  -27.6050  -32.4355   25.7481 C   0  0  0  0  0  0
  -27.5571  -37.1755   24.8464 C   0  0  0  0  0  0
  -21.4367  -29.3026   22.3544 N   0  0  0  0  0  0
  -26.4277  -37.3688   23.9403 N   0  0  0  0  0  0
  -24.7593  -30.9754   22.0818 N   0  0  0  0  0  0
  -23.4244  -28.8036   23.3083 O   0  0  0  0  0  0
  -28.2067  -25.7254   20.3370 O   0  0  0  0  0  0
  -26.5734  -34.8893   22.4577 O   0  0  0  0  0  0
  -23.5728  -32.1178   23.6679 O   0  0  0  0  0  0
  -30.7832  -20.7885   23.3195 C   0  0  0  0  0  0
  -31.7623  -20.3789   22.2645 C   0  0  0  0  0  0
  -28.0038  -19.9228   21.3318 C   0  0  0  0  0  0
  -30.0483  -22.0357   21.0946 C   0  0  0  0  0  0
  -28.2108  -20.7943   20.0724 C   0  0  1  0  0  0
  -29.4114  -19.3281   21.6171 C   0  0  1  0  0  0
  -28.6003  -22.4188   20.5867 C   0  0  2  0  0  0
  -29.8446  -18.3399   20.4057 C   0  0  1  0  0  0
  -29.1217  -19.4984   19.3986 C   0  0  1  0  0  0
  -30.3144  -20.6326   21.8775 C   0  0  0  0  0  0
  -28.1165  -24.0890   19.9438 C   0  0  0  0  0  0
  -29.6290  -16.6473   20.4493 N   0  0  0  0  0  0
  -30.0914  -20.0126   18.4160 N   0  3  0  0  0  0
  -31.4562  -13.1090   19.1963 H   0  0  0  0  0  0
  -30.5413  -11.9953   20.1597 H   0  0  0  0  0  0
  -29.9481  -11.7612   17.7271 H   0  0  0  0  0  0
  -29.5694  -13.4663   17.6341 H   0  0  0  0  0  0
  -28.0624  -11.2842   19.0998 H   0  0  0  0  0  0
  -27.4316  -12.3410   17.8565 H   0  0  0  0  0  0
  -27.5090  -14.2481   19.3171 H   0  0  0  0  0  0
  -28.8343  -12.5684   21.4947 H   0  0  0  0  0  0
  -28.2625  -14.2106   21.6828 H   0  0  0  0  0  0
  -25.2798   -9.5677   22.4800 H   0  0  0  0  0  0
  -24.0000   -7.4644   22.7513 H   0  0  0  0  0  0
  -21.0856   -8.8783   19.8996 H   0  0  0  0  0  0
  -22.3726  -10.9685   19.6182 H   0  0  0  0  0  0
  -21.1986   -7.6147   23.9725 H   0  0  0  0  0  0
  -21.1509   -6.0528   25.9096 H   0  0  0  0  0  0
  -22.0587   -2.7608   23.2823 H   0  0  0  0  0  0
  -22.3899  -11.9873   22.4851 H   0  0  0  0  0  0
  -21.0981  -13.1297   22.2625 H   0  0  0  0  0  0
  -24.6274  -15.8453   20.5603 H   0  0  0  0  0  0
  -26.2155  -15.6403   20.0273 H   0  0  0  0  0  0
  -26.7426  -32.5063   23.0857 H   0  0  0  0  0  0
  -25.0093  -33.9429   25.0138 H   0  0  0  0  0  0
  -22.8020  -31.2588   21.3403 H   0  0  0  0  0  0
  -23.3784  -35.9502   23.3263 H   0  0  0  0  0  0
  -24.3586  -36.8879   22.2072 H   0  0  0  0  0  0
  -23.7242  -37.6362   23.6743 H   0  0  0  0  0  0
  -26.2457  -31.3395   20.6263 H   0  0  0  0  0  0
  -26.9178  -30.6602   22.0637 H   0  0  0  0  0  0
  -28.1391  -28.5274   21.3207 H   0  0  0  0  0  0
  -25.8799  -25.7055   18.9881 H   0  0  0  0  0  0
  -24.0242  -27.2577   18.9238 H   0  0  0  0  0  0
  -23.8897  -30.5038   19.3865 H   0  0  0  0  0  0
  -22.8389  -29.1902   19.8226 H   0  0  0  0  0  0
  -25.1353  -36.1734   25.0781 H   0  0  0  0  0  0
  -21.0031  -28.3347   24.1342 H   0  0  0  0  0  0
  -20.5731  -26.2348   23.3655 H   0  0  0  0  0  0
  -21.6680  -26.7426   22.1199 H   0  0  0  0  0  0
  -19.6914  -25.6272   21.1296 H   0  0  0  0  0  0
  -19.6712  -27.3174   20.6774 H   0  0  0  0  0  0
  -17.4235  -26.6741   21.4023 H   0  0  0  0  0  0
  -18.0317  -26.0112   22.9042 H   0  0  0  0  0  0
  -19.7978  -30.7371   24.2140 H   0  0  0  0  0  0
  -17.5029  -31.6270   24.5173 H   0  0  0  0  0  0
  -15.5366  -30.2936   23.7713 H   0  0  0  0  0  0
  -15.8741  -28.0794   22.7071 H   0  0  0  0  0  0
  -24.5873  -30.7112   25.7620 H   0  0  0  0  0  0
  -24.8833  -32.2991   26.4623 H   0  0  0  0  0  0
  -25.7883  -30.9031   27.0194 H   0  0  0  0  0  0
  -26.3134  -29.6559   24.1446 H   0  0  0  0  0  0
  -27.3979  -29.7270   25.5114 H   0  0  0  0  0  0
  -27.9088  -30.4068   23.9886 H   0  0  0  0  0  0
  -27.2621  -33.3715   26.1904 H   0  0  0  0  0  0
  -28.3936  -32.6806   25.0355 H   0  0  0  0  0  0
  -28.0650  -31.8583   26.5509 H   0  0  0  0  0  0
  -28.2562  -38.0080   24.7542 H   0  0  0  0  0  0
  -28.1094  -36.2605   24.6266 H   0  0  0  0  0  0
  -27.2292  -37.1379   25.8869 H   0  0  0  0  0  0
  -20.9627  -29.8662   21.6632 H   0  0  0  0  0  0
  -26.0121  -38.2737   24.1422 H   0  0  0  0  0  0
  -30.8696  -21.7921   23.7309 H   0  0  0  0  0  0
  -30.5080  -20.0264   24.0472 H   0  0  0  0  0  0
  -32.1214  -19.3521   22.3059 H   0  0  0  0  0  0
  -32.5059  -21.1123   21.9564 H   0  0  0  0  0  0
  -27.2904  -19.1180   21.1439 H   0  0  0  0  0  0
  -27.6102  -20.4850   22.1800 H   0  0  0  0  0  0
  -30.3864  -22.8439   21.7420 H   0  0  0  0  0  0
  -30.7213  -22.0699   20.2389 H   0  0  0  0  0  0
  -27.2616  -20.8632   19.5408 H   0  0  0  0  0  0
  -29.3759  -18.7337   22.5317 H   0  0  0  0  0  0
  -28.0343  -22.5028   21.5149 H   0  0  0  0  0  0
  -30.9271  -18.4320   20.3094 H   0  0  0  0  0  0
  -28.4059  -18.9288   18.8036 H   0  0  0  0  0  0
  -27.0476  -23.9591   19.7869 H   0  0  0  0  0  0
  -28.5203  -24.0864   18.9319 H   0  0  0  0  0  0
  -28.6516  -16.4269   20.5695 H   0  0  0  0  0  0
  -30.8000  -20.5670   18.8597 H   0  0  0  0  0  0
  -29.6245  -20.5774   17.7264 H   0  0  0  0  0  0
  -30.5385  -19.2477   17.9413 H   0  0  0  0  0  0
  1 25  1  0  0  0
  1 30  2  0  0  0
  1 82  1  0  0  0
  2  3  1  0  0  0
  2 25  1  0  0  0
  2 84  1  0  0  0
  2 85  1  0  0  0
  3  4  1  0  0  0
  3 86  1  0  0  0
  3 87  1  0  0  0
  4  5  1  0  0  0
  4 88  1  0  0  0
  4 89  1  0  0  0
  5  6  1  0  0  0
  5 26  1  0  0  0
  5 90  1  0  0  0
  6 25  1  0  0  0
  6 91  1  0  0  0
  6 92  1  0  0  0
  7  8  2  0  0  0
  7 26  1  0  0  0
  7 29  1  0  0  0
  8  9  1  0  0  0
  8 22  1  0  0  0
  9 10  1  0  0  0
  9 27  2  0  0  0
 10 11  2  0  0  0
 10 15  1  0  0  0
 11 12  1  0  0  0
 11 93  1  0  0  0
 12 13  2  0  0  0
 12 94  1  0  0  0
 13 14  1  0  0  0
 13 31  1  0  0  0
 14 15  2  0  0  0
 14 95  1  0  0  0
 15 96  1  0  0  0
 16 17  2  0  0  0
 16 21  1  0  0  0
 16 31  1  0  0  0
 17 18  1  0  0  0
 17 97  1  0  0  0
 18 19  2  0  0  0
 18 98  1  0  0  0
 19 20  1  0  0  0
 19 24  1  0  0  0
 20 21  2  0  0  0
 20 99  1  0  0  0
 21 23  1  0  0  0
 22 28  1  0  0  0
 22 32  2  0  0  0
 26 27  1  0  0  0
 28100  1  0  0  0
 28101  1  0  0  0
 29102  1  0  0  0
 29103  1  0  0  0
 33 34  1  0  0  0
 33 66  1  0  0  0
 33 70  2  0  0  0
 34 36  1  0  0  0
 34 59  1  0  0  0
 34104  1  0  0  0
 35 44  2  0  0  0
 35 45  1  0  0  0
 35 68  1  0  0  0
 36 56  1  0  0  0
 36105  1  0  0  0
 37 39  1  0  0  0
 37 47  1  0  0  0
 37 66  1  0  0  0
 37106  1  0  0  0
 38 43  2  0  0  0
 38 46  1  0  0  0
 38 47  1  0  0  0
 39 64  1  0  0  0
 39 67  2  0  0  0
 40 52  1  0  0  0
 40 53  2  0  0  0
 40 58  1  0  0  0
 41107  1  0  0  0
 41108  1  0  0  0
 41109  1  0  0  0
 41 48  1  0  0  0
 42 43  1  0  0  0
 42 66  1  0  0  0
 42110  1  0  0  0
 42111  1  0  0  0
 43 44  1  0  0  0
 44112  1  0  0  0
 45 46  2  0  0  0
 45113  1  0  0  0
 46114  1  0  0  0
 47115  1  0  0  0
 47116  1  0  0  0
 48 56  1  0  0  0
 48 65  1  0  0  0
 48117  1  0  0  0
 49 50  1  0  0  0
 49 53  1  0  0  0
 49 64  1  0  0  0
 49118  1  0  0  0
 50 51  1  0  0  0
 50119  1  0  0  0
 50120  1  0  0  0
 51 52  1  0  0  0
 51121  1  0  0  0
 51122  1  0  0  0
 52123  1  0  0  0
 52124  1  0  0  0
 53 54  1  0  0  0
 54 55  2  0  0  0
 54125  1  0  0  0
 55 57  1  0  0  0
 55126  1  0  0  0
 56 69  2  0  0  0
 57 58  2  0  0  0
 57127  1  0  0  0
 58128  1  0  0  0
 59 60  1  0  0  0
 59 61  1  0  0  0
 59 62  1  0  0  0
 60129  1  0  0  0
 60130  1  0  0  0
 60131  1  0  0  0
 61132  1  0  0  0
 61133  1  0  0  0
 61134  1  0  0  0
 62135  1  0  0  0
 62136  1  0  0  0
 62137  1  0  0  0
 63 65  1  0  0  0
 63138  1  0  0  0
 63139  1  0  0  0
 63140  1  0  0  0
 64141  1  0  0  0
 65142  1  0  0  0
 68 81  1  0  0  0
 71 72  1  0  0  0
 71143  1  0  0  0
 71144  1  0  0  0
 71 80  1  0  0  0
 72 80  1  0  0  0
 72145  1  0  0  0
 72146  1  0  0  0
 73147  1  0  0  0
 73148  1  0  0  0
 73 75  1  0  0  0
 73 76  1  0  0  0
 74 77  1  0  0  0
 74 80  1  0  0  0
 74149  1  0  0  0
 74150  1  0  0  0
 75 77  1  0  0  0
 75 79  1  0  0  0
 75151  1  0  0  0
 76 78  1  0  0  0
 76 80  1  0  0  0
 76152  1  0  0  0
 77 81  1  0  0  0
 77153  1  0  0  0
 78 79  1  0  0  0
 78 82  1  0  0  0
 78154  1  0  0  0
 79 83  1  0  0  0
 79155  1  0  0  0
 81156  1  0  0  0
 81157  1  0  0  0
 82158  1  0  0  0
 83159  1  0  0  0
 83160  1  0  0  0
 83161  1  0  0  0
M  CHG  1  83   1
M  ISO  4   1 100  68 101  81 101  82 100
M  END
> <chiral flag>
0

> <version>
0

> <s_m_source_file>
/data/baiqing/PycharmProjects/Reinvent-master-3.2/result/LINK_invent/BTK/process_docking_weight1_custom_sum_contain_oxygen_bond_distance_aromatic_linkinvent_7_9_3/rearranged_h_0182.sdf

> <i_m_source_file_index>
39

> <r_mmod_Potential_Energy-OPLS-2005>
1511.27673339844

> <r_mmod_Stretch_Energy-OPLS-2005>
672.3369140625

> <r_mmod_Bend_Energy-OPLS-2005>
637.934448242188

> <r_mmod_Torsional_Energy-OPLS-2005>
390.316192626953

> <r_mmod_Improper_Torsional_Energy-OPLS-2005>
4.0571551322937

> <r_mmod_Van_der_Waal_Energy-OPLS-2005>
116.384033203125

> <r_mmod_Electrostatic_Energy-OPLS-2005>
-369.495300292969

> <r_mmod_Solvation_Energy-OPLS-2005>
-507.056640625

> <b_mmod_Minimization_Converged-OPLS-2005>
0

> <r_mmod_RMS_Derivative-OPLS-2005>
3.52168488502502

$$$$
39
                    3D
 Structure written by MMmdl.
152161  0  0  1  0            999 V2000
  -30.5098  -14.9781   20.4392 C   0  0  0  0  0  0
  -30.4426  -12.6055   19.5138 C   0  0  0  0  0  0
  -29.5276  -12.5446   18.2669 C   0  0  0  0  0  0
  -28.0587  -12.3269   18.6763 C   0  0  0  0  0  0
  -27.6312  -13.2500   19.8479 C   0  0  2  0  0  0
  -28.6694  -13.2699   20.9901 C   0  0  0  0  0  0
  -25.2454  -13.8222   20.5701 C   0  0  0  0  0  0
  -24.1769  -13.0439   20.9206 C   0  0  0  0  0  0
  -24.6381  -11.6918   20.8731 C   0  0  0  0  0  0
  -23.9075  -10.4290   21.0392 C   0  0  0  0  0  0
  -24.3624   -9.4206   21.9168 C   0  0  0  0  0  0
  -23.6282   -8.2257   22.0762 C   0  0  0  0  0  0
  -22.4271   -8.0278   21.3553 C   0  0  0  0  0  0
  -21.9910   -9.0248   20.4658 C   0  0  0  0  0  0
  -22.7243  -10.2128   20.3040 C   0  0  0  0  0  0
  -21.6849   -6.0717   22.5261 C   0  0  0  0  0  0
  -21.4023   -6.5628   23.8191 C   0  0  0  0  0  0
  -21.3668   -5.6788   24.9160 C   0  0  0  0  0  0
  -21.6045   -4.3046   24.7220 C   0  0  0  0  0  0
  -21.8826   -3.8135   23.4342 C   0  0  0  0  0  0
  -21.9198   -4.6948   22.3395 C   0  0  0  0  0  0
  -22.7796  -13.5211   21.1861 C   0  0  0  0  0  0
  -22.1664   -4.2125   21.0979 F   0  0  0  0  0  0
  -21.5638   -3.4535   25.7748 F   0  0  0  0  0  0
  -29.9436  -13.6998   20.4027 N   0  0  0  0  0  0
  -26.2883  -12.9452   20.3261 N   0  0  0  0  0  0
  -25.9327  -11.6583   20.5746 N   0  0  0  0  0  0
  -22.0472  -12.8179   22.0426 N   0  0  0  0  0  0
  -25.4126  -15.1959   20.4121 N   0  0  0  0  0  0
  -31.7018  -15.0653   20.1236 O   0  0  0  0  0  0
  -21.6647   -6.8859   21.4225 O   0  0  0  0  0  0
  -22.3478  -14.5517   20.6711 O   0  0  0  0  0  0
  -24.6478  -31.8407   23.1807 C   0  0  0  0  0  0
  -25.9220  -32.4676   23.8231 C   0  0  1  0  0  0
  -27.2176  -27.0825   20.1937 C   0  0  0  0  0  0
  -25.5957  -33.8486   24.2156 N   0  0  0  0  0  0
  -23.4526  -30.4576   21.5281 C   0  0  2  0  0  0
  -24.9016  -28.8569   20.1279 C   0  0  0  0  0  0
  -22.7568  -29.4562   22.4839 C   0  0  0  0  0  0
  -18.0315  -28.1405   22.8472 C   0  0  0  0  0  0
  -24.1506  -36.7251   23.2641 C   0  0  0  0  0  0
  -26.0119  -30.6973   21.3850 C   0  0  0  0  0  0
  -26.0807  -29.2976   20.7436 C   0  0  0  0  0  0
  -27.2413  -28.4302   20.7514 C   0  0  0  0  0  0
  -26.0133  -26.7432   19.5476 C   0  0  0  0  0  0
  -24.8808  -27.5910   19.5164 C   0  0  0  0  0  0
  -23.6839  -29.7703   20.1558 C   0  0  0  0  0  0
  -25.4131  -36.3018   24.0312 C   0  0  1  0  0  0
  -20.5919  -28.3738   23.1210 C   0  0  2  0  0  0
  -20.6792  -26.9437   22.5396 C   0  0  0  0  0  0
  -19.5777  -26.6388   21.5200 C   0  0  0  0  0  0
  -18.1957  -26.7947   22.1611 C   0  0  0  0  0  0
  -19.1566  -28.8887   23.2837 C   0  0  0  0  0  0
  -18.9483  -30.1475   23.8885 C   0  0  0  0  0  0
  -17.6480  -30.6594   24.0565 C   0  0  0  0  0  0
  -25.9084  -34.9400   23.5047 C   0  0  0  0  0  0
  -16.5367  -29.9089   23.6339 C   0  0  0  0  0  0
  -16.7300  -28.6501   23.0364 C   0  0  0  0  0  0
  -26.4513  -31.6557   25.0702 C   0  0  0  0  0  0
  -25.3688  -31.3760   26.1393 C   0  0  0  0  0  0
  -27.0372  -30.2944   24.6299 C   0  0  0  0  0  0
  -27.6037  -32.4329   25.7500 C   0  0  0  0  0  0
  -27.5573  -37.1782   24.8458 C   0  0  0  0  0  0
  -21.4254  -29.3067   22.3586 N   0  0  0  0  0  0
  -26.4275  -37.3734   23.9413 N   0  0  0  0  0  0
  -24.7251  -31.0225   22.0859 N   0  0  0  0  0  0
  -23.4192  -28.8123   23.3029 O   0  0  0  0  0  0
  -28.2842  -26.1031   20.1673 O   0  0  0  0  0  0
  -26.5684  -34.8892   22.4636 O   0  0  0  0  0  0
  -23.5584  -32.1317   23.6991 O   0  0  0  0  0  0
  -27.6457  -23.1212   18.8138 C   0  0  0  0  0  0
  -28.5020  -20.6335   19.9290 C   0  0  0  0  0  0
  -28.3046  -23.1745   20.0491 C   0  0  0  0  0  0
  -27.6486  -20.7807   18.7780 C   0  0  0  0  0  0
  -29.0129  -18.1208   19.2796 C   0  0  0  0  0  0
  -28.8225  -19.0458   20.4723 C   0  0  1  0  0  0
  -29.8929  -17.6829   20.3582 C   0  0  1  0  0  0
  -26.8564  -19.6465   18.1473 C   0  0  0  0  0  0
  -28.2427  -24.6597   20.8059 C   0  0  0  0  0  0
  -27.3153  -21.9648   18.2101 N   0  0  0  0  0  0
  -28.7657  -21.8997   20.5764 N   0  0  0  0  0  0
  -29.6933  -16.1414   20.6163 N   0  0  0  0  0  0
  -31.4769  -12.7681   19.2071 H   0  0  0  0  0  0
  -30.4403  -11.6487   20.0382 H   0  0  0  0  0  0
  -29.8495  -11.7526   17.5895 H   0  0  0  0  0  0
  -29.6165  -13.4777   17.7101 H   0  0  0  0  0  0
  -27.9450  -11.2826   18.9684 H   0  0  0  0  0  0
  -27.3977  -12.4732   17.8214 H   0  0  0  0  0  0
  -27.5973  -14.2541   19.4232 H   0  0  0  0  0  0
  -28.7589  -12.2884   21.4569 H   0  0  0  0  0  0
  -28.3646  -13.9526   21.7833 H   0  0  0  0  0  0
  -25.2772   -9.5691   22.4737 H   0  0  0  0  0  0
  -23.9987   -7.4660   22.7501 H   0  0  0  0  0  0
  -21.0846   -8.8761   19.8966 H   0  0  0  0  0  0
  -22.3684  -10.9654   19.6152 H   0  0  0  0  0  0
  -21.2008   -7.6134   23.9672 H   0  0  0  0  0  0
  -21.1494   -6.0532   25.9057 H   0  0  0  0  0  0
  -22.0600   -2.7592   23.2854 H   0  0  0  0  0  0
  -22.4123  -11.9826   22.4746 H   0  0  0  0  0  0
  -21.1105  -13.1190   22.2664 H   0  0  0  0  0  0
  -24.6428  -15.8468   20.5233 H   0  0  0  0  0  0
  -26.2451  -15.6318   20.0386 H   0  0  0  0  0  0
  -26.7301  -32.5275   23.0975 H   0  0  0  0  0  0
  -25.0086  -33.9600   25.0283 H   0  0  0  0  0  0
  -22.7572  -31.2836   21.3617 H   0  0  0  0  0  0
  -23.3760  -35.9585   23.3280 H   0  0  0  0  0  0
  -24.3586  -36.8914   22.2059 H   0  0  0  0  0  0
  -23.7258  -37.6438   23.6698 H   0  0  0  0  0  0
  -26.1680  -31.4350   20.5961 H   0  0  0  0  0  0
  -26.8852  -30.7620   22.0235 H   0  0  0  0  0  0
  -28.1455  -28.7722   21.2358 H   0  0  0  0  0  0
  -25.9359  -25.7753   19.0756 H   0  0  0  0  0  0
  -23.9760  -27.2393   19.0378 H   0  0  0  0  0  0
  -23.8296  -30.5355   19.3930 H   0  0  0  0  0  0
  -22.7975  -29.2133   19.8478 H   0  0  0  0  0  0
  -25.1318  -36.1833   25.0798 H   0  0  0  0  0  0
  -21.0021  -28.3367   24.1320 H   0  0  0  0  0  0
  -20.5657  -26.2385   23.3633 H   0  0  0  0  0  0
  -21.6670  -26.7442   22.1210 H   0  0  0  0  0  0
  -19.6942  -25.6288   21.1267 H   0  0  0  0  0  0
  -19.6709  -27.3167   20.6703 H   0  0  0  0  0  0
  -17.4218  -26.6678   21.4023 H   0  0  0  0  0  0
  -18.0367  -26.0094   22.9016 H   0  0  0  0  0  0
  -19.7949  -30.7294   24.2254 H   0  0  0  0  0  0
  -17.5027  -31.6280   24.5167 H   0  0  0  0  0  0
  -15.5364  -30.2988   23.7663 H   0  0  0  0  0  0
  -15.8696  -28.0814   22.7090 H   0  0  0  0  0  0
  -24.5867  -30.7104   25.7711 H   0  0  0  0  0  0
  -24.8872  -32.2954   26.4743 H   0  0  0  0  0  0
  -25.7963  -30.8984   27.0217 H   0  0  0  0  0  0
  -26.2985  -29.6673   24.1291 H   0  0  0  0  0  0
  -27.3954  -29.7236   25.4873 H   0  0  0  0  0  0
  -27.8911  -30.4166   23.9630 H   0  0  0  0  0  0
  -27.2608  -33.3637   26.2025 H   0  0  0  0  0  0
  -28.3874  -32.6880   25.0358 H   0  0  0  0  0  0
  -28.0675  -31.8497   26.5465 H   0  0  0  0  0  0
  -28.2572  -38.0099   24.7509 H   0  0  0  0  0  0
  -28.1099  -36.2628   24.6278 H   0  0  0  0  0  0
  -27.2306  -37.1415   25.8864 H   0  0  0  0  0  0
  -20.9460  -29.8797   21.6764 H   0  0  0  0  0  0
  -26.0149  -38.2803   24.1391 H   0  0  0  0  0  0
  -27.2656  -24.0193   18.3509 H   0  0  0  0  0  0
  -29.5356  -18.5117   18.4085 H   0  0  0  0  0  0
  -28.1761  -17.4719   19.0278 H   0  0  0  0  0  0
  -28.0098  -18.8353   21.1670 H   0  0  0  0  0  0
  -30.9396  -17.9793   20.3068 H   0  0  0  0  0  0
  -26.4678  -18.9822   18.9209 H   0  0  0  0  0  0
  -27.4657  -19.0910   17.4363 H   0  0  0  0  0  0
  -25.9890  -20.0083   17.5912 H   0  0  0  0  0  0
  -29.0732  -24.6430   21.5114 H   0  0  0  0  0  0
  -27.3593  -24.6269   21.4439 H   0  0  0  0  0  0
  -28.7532  -15.8996   20.8897 H   0  0  0  0  0  0
  1 25  1  0  0  0
  1 30  2  0  0  0
  1 82  1  0  0  0
  2  3  1  0  0  0
  2 25  1  0  0  0
  2 83  1  0  0  0
  2 84  1  0  0  0
  3  4  1  0  0  0
  3 85  1  0  0  0
  3 86  1  0  0  0
  4  5  1  0  0  0
  4 87  1  0  0  0
  4 88  1  0  0  0
  5  6  1  0  0  0
  5 26  1  0  0  0
  5 89  1  0  0  0
  6 25  1  0  0  0
  6 90  1  0  0  0
  6 91  1  0  0  0
  7  8  2  0  0  0
  7 26  1  0  0  0
  7 29  1  0  0  0
  8  9  1  0  0  0
  8 22  1  0  0  0
  9 10  1  0  0  0
  9 27  2  0  0  0
 10 11  2  0  0  0
 10 15  1  0  0  0
 11 12  1  0  0  0
 11 92  1  0  0  0
 12 13  2  0  0  0
 12 93  1  0  0  0
 13 14  1  0  0  0
 13 31  1  0  0  0
 14 15  2  0  0  0
 14 94  1  0  0  0
 15 95  1  0  0  0
 16 17  2  0  0  0
 16 21  1  0  0  0
 16 31  1  0  0  0
 17 18  1  0  0  0
 17 96  1  0  0  0
 18 19  2  0  0  0
 18 97  1  0  0  0
 19 20  1  0  0  0
 19 24  1  0  0  0
 20 21  2  0  0  0
 20 98  1  0  0  0
 21 23  1  0  0  0
 22 28  1  0  0  0
 22 32  2  0  0  0
 26 27  1  0  0  0
 28 99  1  0  0  0
 28100  1  0  0  0
 29101  1  0  0  0
 29102  1  0  0  0
 33 34  1  0  0  0
 33 66  1  0  0  0
 33 70  2  0  0  0
 34 36  1  0  0  0
 34 59  1  0  0  0
 34103  1  0  0  0
 35 44  2  0  0  0
 35 45  1  0  0  0
 35 68  1  0  0  0
 36 56  1  0  0  0
 36104  1  0  0  0
 37 39  1  0  0  0
 37 47  1  0  0  0
 37 66  1  0  0  0
 37105  1  0  0  0
 38 43  2  0  0  0
 38 46  1  0  0  0
 38 47  1  0  0  0
 39 64  1  0  0  0
 39 67  2  0  0  0
 40 52  1  0  0  0
 40 53  2  0  0  0
 40 58  1  0  0  0
 41106  1  0  0  0
 41107  1  0  0  0
 41108  1  0  0  0
 41 48  1  0  0  0
 42 43  1  0  0  0
 42 66  1  0  0  0
 42109  1  0  0  0
 42110  1  0  0  0
 43 44  1  0  0  0
 44111  1  0  0  0
 45 46  2  0  0  0
 45112  1  0  0  0
 46113  1  0  0  0
 47114  1  0  0  0
 47115  1  0  0  0
 48 56  1  0  0  0
 48 65  1  0  0  0
 48116  1  0  0  0
 49 50  1  0  0  0
 49 53  1  0  0  0
 49 64  1  0  0  0
 49117  1  0  0  0
 50 51  1  0  0  0
 50118  1  0  0  0
 50119  1  0  0  0
 51 52  1  0  0  0
 51120  1  0  0  0
 51121  1  0  0  0
 52122  1  0  0  0
 52123  1  0  0  0
 53 54  1  0  0  0
 54 55  2  0  0  0
 54124  1  0  0  0
 55 57  1  0  0  0
 55125  1  0  0  0
 56 69  2  0  0  0
 57 58  2  0  0  0
 57126  1  0  0  0
 58127  1  0  0  0
 59 60  1  0  0  0
 59 61  1  0  0  0
 59 62  1  0  0  0
 60128  1  0  0  0
 60129  1  0  0  0
 60130  1  0  0  0
 61131  1  0  0  0
 61132  1  0  0  0
 61133  1  0  0  0
 62134  1  0  0  0
 62135  1  0  0  0
 62136  1  0  0  0
 63 65  1  0  0  0
 63137  1  0  0  0
 63138  1  0  0  0
 63139  1  0  0  0
 64140  1  0  0  0
 65141  1  0  0  0
 68 79  1  0  0  0
 71 73  2  0  0  0
 71 80  1  0  0  0
 71142  1  0  0  0
 72 74  1  0  0  0
 72 81  2  0  0  0
 72 76  1  0  0  0
 73 79  1  0  0  0
 73 81  1  0  0  0
 74 78  1  0  0  0
 74 80  2  0  0  0
 75 76  1  0  0  0
 75 77  1  0  0  0
 75143  1  0  0  0
 75144  1  0  0  0
 76 77  1  0  0  0
 76145  1  0  0  0
 77 82  1  0  0  0
 77146  1  0  0  0
 78147  1  0  0  0
 78148  1  0  0  0
 78149  1  0  0  0
 79150  1  0  0  0
 79151  1  0  0  0
 82152  1  0  0  0
M  ISO  4   1 100  68 101  79 101  82 100
M  END
> <chiral flag>
0

> <version>
0

> <s_m_source_file>
/data/baiqing/PycharmProjects/Reinvent-master-3.2/result/LINK_invent/BTK/process_docking_weight1_custom_sum_contain_oxygen_bond_distance_aromatic_linkinvent_7_9_3/rearranged_h_0182.sdf

> <i_m_source_file_index>
40

> <r_mmod_Potential_Energy-OPLS-2005>
847.268371582031

> <r_mmod_Stretch_Energy-OPLS-2005>
362.009216308594

> <r_mmod_Bend_Energy-OPLS-2005>
343.343414306641

> <r_mmod_Torsional_Energy-OPLS-2005>
292.931427001953

> <r_mmod_Improper_Torsional_Energy-OPLS-2005>
8.10974025726318

> <r_mmod_Van_der_Waal_Energy-OPLS-2005>
137.763442993164

> <r_mmod_Electrostatic_Energy-OPLS-2005>
-282.781677246094

> <r_mmod_Solvation_Energy-OPLS-2005>
-234.391311645508

> <b_mmod_Minimization_Converged-OPLS-2005>
0

> <r_mmod_RMS_Derivative-OPLS-2005>
3.20458006858826

$$$$
40
                    3D
 Structure written by MMmdl.
156164  0  0  1  0            999 V2000
  -30.3715  -15.4369   20.3505 C   0  0  0  0  0  0
  -30.4357  -12.9343   19.5303 C   0  0  0  0  0  0
  -29.5426  -12.6094   18.3028 C   0  0  0  0  0  0
  -28.1023  -12.2954   18.7393 C   0  0  0  0  0  0
  -27.6039  -13.2881   19.8164 C   0  0  2  0  0  0
  -28.6312  -13.5360   20.9432 C   0  0  0  0  0  0
  -25.2362  -13.8260   20.5766 C   0  0  0  0  0  0
  -24.1731  -13.0433   20.9279 C   0  0  0  0  0  0
  -24.6404  -11.6936   20.8767 C   0  0  0  0  0  0
  -23.9101  -10.4291   21.0403 C   0  0  0  0  0  0
  -24.3642   -9.4205   21.9183 C   0  0  0  0  0  0
  -23.6306   -8.2245   22.0754 C   0  0  0  0  0  0
  -22.4287   -8.0286   21.3544 C   0  0  0  0  0  0
  -21.9928   -9.0261   20.4645 C   0  0  0  0  0  0
  -22.7268  -10.2135   20.3054 C   0  0  0  0  0  0
  -21.6857   -6.0739   22.5277 C   0  0  0  0  0  0
  -21.4017   -6.5641   23.8211 C   0  0  0  0  0  0
  -21.3660   -5.6793   24.9173 C   0  0  0  0  0  0
  -21.6044   -4.3055   24.7223 C   0  0  0  0  0  0
  -21.8819   -3.8149   23.4344 C   0  0  0  0  0  0
  -21.9193   -4.6966   22.3400 C   0  0  0  0  0  0
  -22.7747  -13.5178   21.1915 C   0  0  0  0  0  0
  -22.1662   -4.2151   21.0977 F   0  0  0  0  0  0
  -21.5627   -3.4539   25.7736 F   0  0  0  0  0  0
  -29.8359  -14.0986   20.3016 N   0  0  0  0  0  0
  -26.2792  -12.9554   20.3215 N   0  0  0  0  0  0
  -25.9343  -11.6647   20.5710 N   0  0  0  0  0  0
  -22.0405  -12.8159   22.0466 N   0  0  0  0  0  0
  -25.3974  -15.1998   20.4188 N   0  0  0  0  0  0
  -31.6007  -15.4172   20.1715 O   0  0  0  0  0  0
  -21.6646   -6.8885   21.4241 O   0  0  0  0  0  0
  -22.3429  -14.5481   20.6753 O   0  0  0  0  0  0
  -24.6737  -31.8119   23.1614 C   0  0  0  0  0  0
  -25.9367  -32.4530   23.8119 C   0  0  1  0  0  0
  -27.2224  -26.8167   20.1996 C   0  0  0  0  0  0
  -25.5988  -33.8349   24.2018 N   0  0  0  0  0  0
  -23.4942  -30.4192   21.5130 C   0  0  2  0  0  0
  -24.9499  -28.7843   20.1158 C   0  0  0  0  0  0
  -22.7720  -29.4380   22.4746 C   0  0  0  0  0  0
  -18.0333  -28.1414   22.8460 C   0  0  0  0  0  0
  -24.1495  -36.7182   23.2648 C   0  0  0  0  0  0
  -26.0698  -30.5830   21.4082 C   0  0  0  0  0  0
  -26.1373  -29.1603   20.7557 C   0  0  0  0  0  0
  -27.2645  -28.2015   20.7679 C   0  0  0  0  0  0
  -26.0032  -26.6222   19.5072 C   0  0  0  0  0  0
  -24.9152  -27.5382   19.4691 C   0  0  0  0  0  0
  -23.7414  -29.7261   20.1438 C   0  0  0  0  0  0
  -25.4141  -36.2935   24.0291 C   0  0  1  0  0  0
  -20.5963  -28.3767   23.1163 C   0  0  2  0  0  0
  -20.6803  -26.9436   22.5402 C   0  0  0  0  0  0
  -19.5778  -26.6374   21.5213 C   0  0  0  0  0  0
  -18.1962  -26.7944   22.1621 C   0  0  0  0  0  0
  -19.1597  -28.8913   23.2796 C   0  0  0  0  0  0
  -18.9503  -30.1499   23.8838 C   0  0  0  0  0  0
  -17.6493  -30.6599   24.0552 C   0  0  0  0  0  0
  -25.9112  -34.9319   23.4985 C   0  0  0  0  0  0
  -16.5385  -29.9082   23.6343 C   0  0  0  0  0  0
  -16.7314  -28.6504   23.0361 C   0  0  0  0  0  0
  -26.4581  -31.6517   25.0693 C   0  0  0  0  0  0
  -25.3678  -31.3799   26.1330 C   0  0  0  0  0  0
  -27.0489  -30.2867   24.6508 C   0  0  0  0  0  0
  -27.6055  -32.4348   25.7503 C   0  0  0  0  0  0
  -27.5571  -37.1750   24.8466 C   0  0  0  0  0  0
  -21.4378  -29.3037   22.3497 N   0  0  0  0  0  0
  -26.4279  -37.3682   23.9407 N   0  0  0  0  0  0
  -24.7683  -30.9677   22.0808 N   0  0  0  0  0  0
  -23.4215  -28.7962   23.3038 O   0  0  0  0  0  0
  -28.1980  -25.6477   20.2706 O   0  0  0  0  0  0
  -26.5738  -34.8873   22.4592 O   0  0  0  0  0  0
  -23.5781  -32.1138   23.6638 O   0  0  0  0  0  0
  -29.1437  -21.1672   19.1144 C   0  0  0  0  0  0
  -29.1377  -19.4527   19.1515 C   0  0  0  0  0  0
  -28.4793  -22.1757   20.2501 C   0  0  1  0  0  0
  -29.0303  -21.2151   21.4878 C   0  0  1  0  0  0
  -29.7060  -18.4702   20.3668 C   0  0  1  0  0  0
  -28.9852  -19.4876   21.4764 C   0  0  1  0  0  0
  -30.4389  -21.7010   21.8788 C   0  0  0  0  0  0
  -27.8847  -23.9789   20.1571 C   0  0  0  0  0  0
  -29.5881  -16.7399   20.4115 N   0  0  0  0  0  0
  -29.2813  -18.9635   22.8189 N   0  3  0  0  0  0
  -31.4416  -13.1702   19.1811 H   0  0  0  0  0  0
  -30.5508  -12.0577   20.1699 H   0  0  0  0  0  0
  -29.9561  -11.7719   17.7392 H   0  0  0  0  0  0
  -29.5385  -13.4643   17.6247 H   0  0  0  0  0  0
  -28.0931  -11.2833   19.1457 H   0  0  0  0  0  0
  -27.4320  -12.2875   17.8788 H   0  0  0  0  0  0
  -27.4941  -14.2337   19.2840 H   0  0  0  0  0  0
  -28.8441  -12.6241   21.5033 H   0  0  0  0  0  0
  -28.2364  -14.2559   21.6618 H   0  0  0  0  0  0
  -25.2782   -9.5680   22.4766 H   0  0  0  0  0  0
  -24.0009   -7.4636   22.7478 H   0  0  0  0  0  0
  -21.0858   -8.8786   19.8952 H   0  0  0  0  0  0
  -22.3723  -10.9677   19.6169 H   0  0  0  0  0  0
  -21.2011   -7.6149   23.9714 H   0  0  0  0  0  0
  -21.1481   -6.0523   25.9076 H   0  0  0  0  0  0
  -22.0596   -2.7610   23.2843 H   0  0  0  0  0  0
  -22.4035  -11.9828   22.4857 H   0  0  0  0  0  0
  -21.1014  -13.1163   22.2663 H   0  0  0  0  0  0
  -24.6183  -15.8420   20.5167 H   0  0  0  0  0  0
  -26.2209  -15.6353   20.0266 H   0  0  0  0  0  0
  -26.7443  -32.5038   23.0833 H   0  0  0  0  0  0
  -25.0060  -33.9406   25.0119 H   0  0  0  0  0  0
  -22.8136  -31.2540   21.3330 H   0  0  0  0  0  0
  -23.3773  -35.9496   23.3271 H   0  0  0  0  0  0
  -24.3566  -36.8874   22.2070 H   0  0  0  0  0  0
  -23.7237  -37.6350   23.6737 H   0  0  0  0  0  0
  -26.2602  -31.3163   20.6235 H   0  0  0  0  0  0
  -26.9255  -30.6460   22.0683 H   0  0  0  0  0  0
  -28.1605  -28.4917   21.2982 H   0  0  0  0  0  0
  -25.8514  -25.6755   19.0101 H   0  0  0  0  0  0
  -24.0163  -27.2430   18.9453 H   0  0  0  0  0  0
  -23.9077  -30.4905   19.3840 H   0  0  0  0  0  0
  -22.8486  -29.1872   19.8222 H   0  0  0  0  0  0
  -25.1344  -36.1718   25.0782 H   0  0  0  0  0  0
  -21.0050  -28.3384   24.1287 H   0  0  0  0  0  0
  -20.5670  -26.2388   23.3654 H   0  0  0  0  0  0
  -21.6666  -26.7391   22.1218 H   0  0  0  0  0  0
  -19.6934  -25.6270   21.1280 H   0  0  0  0  0  0
  -19.6718  -27.3151   20.6716 H   0  0  0  0  0  0
  -17.4229  -26.6684   21.4027 H   0  0  0  0  0  0
  -18.0357  -26.0101   22.9032 H   0  0  0  0  0  0
  -19.7976  -30.7333   24.2181 H   0  0  0  0  0  0
  -17.5041  -31.6271   24.5168 H   0  0  0  0  0  0
  -15.5381  -30.2963   23.7699 H   0  0  0  0  0  0
  -15.8716  -28.0801   22.7109 H   0  0  0  0  0  0
  -24.5887  -30.7120   25.7639 H   0  0  0  0  0  0
  -24.8838  -32.3007   26.4594 H   0  0  0  0  0  0
  -25.7886  -30.9076   27.0216 H   0  0  0  0  0  0
  -26.3178  -29.6519   24.1493 H   0  0  0  0  0  0
  -27.3950  -29.7268   25.5206 H   0  0  0  0  0  0
  -27.9148  -30.4016   23.9986 H   0  0  0  0  0  0
  -27.2615  -33.3706   26.1919 H   0  0  0  0  0  0
  -28.3949  -32.6817   25.0391 H   0  0  0  0  0  0
  -28.0631  -31.8582   26.5552 H   0  0  0  0  0  0
  -28.2565  -38.0066   24.7511 H   0  0  0  0  0  0
  -28.1090  -36.2591   24.6298 H   0  0  0  0  0  0
  -27.2283  -37.1393   25.8867 H   0  0  0  0  0  0
  -20.9658  -29.8711   21.6596 H   0  0  0  0  0  0
  -26.0120  -38.2737   24.1412 H   0  0  0  0  0  0
  -28.6867  -21.4469   18.1644 H   0  0  0  0  0  0
  -30.1839  -21.4725   18.9957 H   0  0  0  0  0  0
  -29.6477  -19.1300   18.2433 H   0  0  0  0  0  0
  -28.1008  -19.1592   18.9810 H   0  0  0  0  0  0
  -27.4611  -21.7870   20.1977 H   0  0  0  0  0  0
  -28.3871  -21.4978   22.3226 H   0  0  0  0  0  0
  -30.7799  -18.6513   20.4277 H   0  0  0  0  0  0
  -27.9190  -19.2751   21.3706 H   0  0  0  0  0  0
  -31.1889  -21.3897   21.1515 H   0  0  0  0  0  0
  -30.7465  -21.3210   22.8525 H   0  0  0  0  0  0
  -30.4726  -22.7893   21.9397 H   0  0  0  0  0  0
  -27.0517  -23.9383   20.8595 H   0  0  0  0  0  0
  -27.3978  -23.9648   19.1824 H   0  0  0  0  0  0
  -28.6136  -16.4847   20.4820 H   0  0  0  0  0  0
  -30.2493  -19.0945   23.0503 H   0  0  0  0  0  0
  -29.0823  -17.9801   22.8514 H   0  0  0  0  0  0
  -28.7166  -19.4198   23.5126 H   0  0  0  0  0  0
  1 25  1  0  0  0
  1 30  2  0  0  0
  1 79  1  0  0  0
  2  3  1  0  0  0
  2 25  1  0  0  0
  2 81  1  0  0  0
  2 82  1  0  0  0
  3  4  1  0  0  0
  3 83  1  0  0  0
  3 84  1  0  0  0
  4  5  1  0  0  0
  4 85  1  0  0  0
  4 86  1  0  0  0
  5  6  1  0  0  0
  5 26  1  0  0  0
  5 87  1  0  0  0
  6 25  1  0  0  0
  6 88  1  0  0  0
  6 89  1  0  0  0
  7  8  2  0  0  0
  7 26  1  0  0  0
  7 29  1  0  0  0
  8  9  1  0  0  0
  8 22  1  0  0  0
  9 10  1  0  0  0
  9 27  2  0  0  0
 10 11  2  0  0  0
 10 15  1  0  0  0
 11 12  1  0  0  0
 11 90  1  0  0  0
 12 13  2  0  0  0
 12 91  1  0  0  0
 13 14  1  0  0  0
 13 31  1  0  0  0
 14 15  2  0  0  0
 14 92  1  0  0  0
 15 93  1  0  0  0
 16 17  2  0  0  0
 16 21  1  0  0  0
 16 31  1  0  0  0
 17 18  1  0  0  0
 17 94  1  0  0  0
 18 19  2  0  0  0
 18 95  1  0  0  0
 19 20  1  0  0  0
 19 24  1  0  0  0
 20 21  2  0  0  0
 20 96  1  0  0  0
 21 23  1  0  0  0
 22 28  1  0  0  0
 22 32  2  0  0  0
 26 27  1  0  0  0
 28 97  1  0  0  0
 28 98  1  0  0  0
 29 99  1  0  0  0
 29100  1  0  0  0
 33 34  1  0  0  0
 33 66  1  0  0  0
 33 70  2  0  0  0
 34 36  1  0  0  0
 34 59  1  0  0  0
 34101  1  0  0  0
 35 44  2  0  0  0
 35 45  1  0  0  0
 35 68  1  0  0  0
 36 56  1  0  0  0
 36102  1  0  0  0
 37 39  1  0  0  0
 37 47  1  0  0  0
 37 66  1  0  0  0
 37103  1  0  0  0
 38 43  2  0  0  0
 38 46  1  0  0  0
 38 47  1  0  0  0
 39 64  1  0  0  0
 39 67  2  0  0  0
 40 52  1  0  0  0
 40 53  2  0  0  0
 40 58  1  0  0  0
 41104  1  0  0  0
 41105  1  0  0  0
 41106  1  0  0  0
 41 48  1  0  0  0
 42 43  1  0  0  0
 42 66  1  0  0  0
 42107  1  0  0  0
 42108  1  0  0  0
 43 44  1  0  0  0
 44109  1  0  0  0
 45 46  2  0  0  0
 45110  1  0  0  0
 46111  1  0  0  0
 47112  1  0  0  0
 47113  1  0  0  0
 48 56  1  0  0  0
 48 65  1  0  0  0
 48114  1  0  0  0
 49 50  1  0  0  0
 49 53  1  0  0  0
 49 64  1  0  0  0
 49115  1  0  0  0
 50 51  1  0  0  0
 50116  1  0  0  0
 50117  1  0  0  0
 51 52  1  0  0  0
 51118  1  0  0  0
 51119  1  0  0  0
 52120  1  0  0  0
 52121  1  0  0  0
 53 54  1  0  0  0
 54 55  2  0  0  0
 54122  1  0  0  0
 55 57  1  0  0  0
 55123  1  0  0  0
 56 69  2  0  0  0
 57 58  2  0  0  0
 57124  1  0  0  0
 58125  1  0  0  0
 59 60  1  0  0  0
 59 61  1  0  0  0
 59 62  1  0  0  0
 60126  1  0  0  0
 60127  1  0  0  0
 60128  1  0  0  0
 61129  1  0  0  0
 61130  1  0  0  0
 61131  1  0  0  0
 62132  1  0  0  0
 62133  1  0  0  0
 62134  1  0  0  0
 63 65  1  0  0  0
 63135  1  0  0  0
 63136  1  0  0  0
 63137  1  0  0  0
 64138  1  0  0  0
 65139  1  0  0  0
 68 78  1  0  0  0
 71 72  1  0  0  0
 71 73  1  0  0  0
 71140  1  0  0  0
 71141  1  0  0  0
 72 75  1  0  0  0
 72142  1  0  0  0
 72143  1  0  0  0
 73 74  1  0  0  0
 73 78  1  0  0  0
 73144  1  0  0  0
 74 76  1  0  0  0
 74 77  1  0  0  0
 74145  1  0  0  0
 75 76  1  0  0  0
 75 79  1  0  0  0
 75146  1  0  0  0
 76 80  1  0  0  0
 76147  1  0  0  0
 77148  1  0  0  0
 77149  1  0  0  0
 77150  1  0  0  0
 78151  1  0  0  0
 78152  1  0  0  0
 79153  1  0  0  0
 80154  1  0  0  0
 80155  1  0  0  0
 80156  1  0  0  0
M  CHG  1  80   1
M  ISO  4   1 100  68 101  78 101  79 100
M  END
> <chiral flag>
0

> <version>
0

> <s_m_source_file>
/data/baiqing/PycharmProjects/Reinvent-master-3.2/result/LINK_invent/BTK/process_docking_weight1_custom_sum_contain_oxygen_bond_distance_aromatic_linkinvent_7_9_3/rearranged_h_0182.sdf

> <i_m_source_file_index>
41

> <r_mmod_Potential_Energy-OPLS-2005>
1625.8466796875

> <r_mmod_Stretch_Energy-OPLS-2005>
770.4306640625

> <r_mmod_Bend_Energy-OPLS-2005>
669.070129394531

> <r_mmod_Torsional_Energy-OPLS-2005>
284.335632324219

> <r_mmod_Improper_Torsional_Energy-OPLS-2005>
3.86040711402893

> <r_mmod_Van_der_Waal_Energy-OPLS-2005>
111.792213439941

> <r_mmod_Electrostatic_Energy-OPLS-2005>
-346.283081054688

> <r_mmod_Solvation_Energy-OPLS-2005>
-519.419616699219

> <b_mmod_Minimization_Converged-OPLS-2005>
0

> <r_mmod_RMS_Derivative-OPLS-2005>
0.316402554512024

$$$$
41
                    3D
 Structure written by MMmdl.
157166  0  0  1  0            999 V2000
  -30.5924  -14.9099   20.4240 C   0  0  0  0  0  0
  -30.4283  -12.5634   19.4982 C   0  0  0  0  0  0
  -29.5162  -12.5217   18.2530 C   0  0  0  0  0  0
  -28.0483  -12.3191   18.6710 C   0  0  0  0  0  0
  -27.6292  -13.2518   19.8389 C   0  0  2  0  0  0
  -28.6722  -13.2872   20.9758 C   0  0  0  0  0  0
  -25.2468  -13.8229   20.5728 C   0  0  0  0  0  0
  -24.1780  -13.0448   20.9222 C   0  0  0  0  0  0
  -24.6398  -11.6935   20.8746 C   0  0  0  0  0  0
  -23.9084  -10.4302   21.0397 C   0  0  0  0  0  0
  -24.3625   -9.4215   21.9176 C   0  0  0  0  0  0
  -23.6307   -8.2248   22.0746 C   0  0  0  0  0  0
  -22.4289   -8.0280   21.3538 C   0  0  0  0  0  0
  -21.9925   -9.0257   20.4640 C   0  0  0  0  0  0
  -22.7252  -10.2138   20.3051 C   0  0  0  0  0  0
  -21.6858   -6.0736   22.5277 C   0  0  0  0  0  0
  -21.4015   -6.5639   23.8210 C   0  0  0  0  0  0
  -21.3664   -5.6791   24.9171 C   0  0  0  0  0  0
  -21.6046   -4.3055   24.7219 C   0  0  0  0  0  0
  -21.8819   -3.8147   23.4341 C   0  0  0  0  0  0
  -21.9194   -4.6962   22.3398 C   0  0  0  0  0  0
  -22.7801  -13.5222   21.1875 C   0  0  0  0  0  0
  -22.1662   -4.2148   21.0975 F   0  0  0  0  0  0
  -21.5634   -3.4539   25.7732 F   0  0  0  0  0  0
  -29.9491  -13.6762   20.3677 N   0  0  0  0  0  0
  -26.2893  -12.9466   20.3267 N   0  0  0  0  0  0
  -25.9331  -11.6591   20.5742 N   0  0  0  0  0  0
  -22.0449  -12.8212   22.0428 N   0  0  0  0  0  0
  -25.4158  -15.1956   20.4174 N   0  0  0  0  0  0
  -31.7961  -14.9146   20.1399 O   0  0  0  0  0  0
  -21.6646   -6.8880   21.4241 O   0  0  0  0  0  0
  -22.3483  -14.5525   20.6719 O   0  0  0  0  0  0
  -24.6433  -31.8460   23.1906 C   0  0  0  0  0  0
  -25.9210  -32.4704   23.8289 C   0  0  1  0  0  0
  -27.2061  -27.1455   20.1389 C   0  0  0  0  0  0
  -25.5963  -33.8510   24.2207 N   0  0  0  0  0  0
  -23.4452  -30.4686   21.5369 C   0  0  2  0  0  0
  -24.8915  -28.9017   20.1080 C   0  0  0  0  0  0
  -22.7568  -29.4562   22.4869 C   0  0  0  0  0  0
  -18.0302  -28.1400   22.8478 C   0  0  0  0  0  0
  -24.1492  -36.7266   23.2641 C   0  0  0  0  0  0
  -26.0021  -30.7220   21.3886 C   0  0  0  0  0  0
  -26.0708  -29.3355   20.7268 C   0  0  0  0  0  0
  -27.2305  -28.4729   20.7277 C   0  0  0  0  0  0
  -26.0011  -26.8184   19.4752 C   0  0  0  0  0  0
  -24.8692  -27.6563   19.4675 C   0  0  0  0  0  0
  -23.6697  -29.8039   20.1540 C   0  0  0  0  0  0
  -25.4123  -36.3041   24.0318 C   0  0  1  0  0  0
  -20.5916  -28.3726   23.1239 C   0  0  2  0  0  0
  -20.6790  -26.9432   22.5402 C   0  0  0  0  0  0
  -19.5760  -26.6384   21.5216 C   0  0  0  0  0  0
  -18.1942  -26.7937   22.1625 C   0  0  0  0  0  0
  -19.1559  -28.8880   23.2851 C   0  0  0  0  0  0
  -18.9478  -30.1476   23.8876 C   0  0  0  0  0  0
  -17.6474  -30.6595   24.0559 C   0  0  0  0  0  0
  -25.9072  -34.9413   23.5070 C   0  0  0  0  0  0
  -16.5364  -29.9089   23.6335 C   0  0  0  0  0  0
  -16.7286  -28.6507   23.0355 C   0  0  0  0  0  0
  -26.4521  -31.6568   25.0731 C   0  0  0  0  0  0
  -25.3702  -31.3765   26.1428 C   0  0  0  0  0  0
  -27.0378  -30.2961   24.6310 C   0  0  0  0  0  0
  -27.6050  -32.4332   25.7517 C   0  0  0  0  0  0
  -27.5580  -37.1787   24.8461 C   0  0  0  0  0  0
  -21.4263  -29.3054   22.3616 N   0  0  0  0  0  0
  -26.4284  -37.3757   23.9410 N   0  0  0  0  0  0
  -24.7167  -31.0326   22.0938 N   0  0  0  0  0  0
  -23.4219  -28.8108   23.3011 O   0  0  0  0  0  0
  -28.2408  -26.1449   20.2184 O   0  0  0  0  0  0
  -26.5657  -34.8905   22.4645 O   0  0  0  0  0  0
  -23.5551  -32.1340   23.7129 O   0  0  0  0  0  0
  -28.4816  -21.9148   20.1281 C   0  0  0  0  0  0
  -28.8186  -23.3356   20.3285 C   0  0  0  0  0  0
  -29.4027  -20.8340   20.4734 C   0  0  0  0  0  0
  -30.8335  -22.5407   21.1349 C   0  0  0  0  0  0
  -30.1708  -18.6744   19.4035 C   0  0  0  0  0  0
  -29.3650  -18.5145   21.5579 C   0  0  0  0  0  0
  -29.9978  -17.0901   19.1772 C   0  0  0  0  0  0
  -29.1891  -16.9041   21.4383 C   0  0  0  0  0  0
  -32.1940  -22.8864   21.6979 C   0  0  0  0  0  0
  -27.8854  -24.6462   20.0007 C   0  0  0  0  0  0
  -30.0389  -23.5764   20.8461 N   0  0  0  0  0  0
  -30.5809  -21.2348   20.9807 N   0  0  0  0  0  0
  -29.2360  -19.3630   20.3331 N   0  0  0  0  0  0
  -29.8763  -16.1420   20.3404 N   0  0  0  0  0  0
  -31.4666  -12.6914   19.1892 H   0  0  0  0  0  0
  -30.3970  -11.6137   20.0350 H   0  0  0  0  0  0
  -29.8307  -11.7225   17.5803 H   0  0  0  0  0  0
  -29.6144  -13.4529   17.6919 H   0  0  0  0  0  0
  -27.9377  -11.2784   18.9771 H   0  0  0  0  0  0
  -27.3858  -12.4555   17.8154 H   0  0  0  0  0  0
  -27.5934  -14.2548   19.4126 H   0  0  0  0  0  0
  -28.7497  -12.3200   21.4746 H   0  0  0  0  0  0
  -28.3799  -14.0102   21.7388 H   0  0  0  0  0  0
  -25.2761   -9.5703   22.4759 H   0  0  0  0  0  0
  -24.0019   -7.4640   22.7470 H   0  0  0  0  0  0
  -21.0852   -8.8778   19.8953 H   0  0  0  0  0  0
  -22.3699  -10.9678   19.6173 H   0  0  0  0  0  0
  -21.2005   -7.6146   23.9714 H   0  0  0  0  0  0
  -21.1492   -6.0516   25.9076 H   0  0  0  0  0  0
  -22.0596   -2.7610   23.2832 H   0  0  0  0  0  0
  -22.4068  -11.9888   22.4840 H   0  0  0  0  0  0
  -21.1061  -13.1232   22.2614 H   0  0  0  0  0  0
  -24.6531  -15.8525   20.5391 H   0  0  0  0  0  0
  -26.2718  -15.6356   20.1033 H   0  0  0  0  0  0
  -26.7283  -32.5314   23.1024 H   0  0  0  0  0  0
  -25.0070  -33.9624   25.0326 H   0  0  0  0  0  0
  -22.7471  -31.2951   21.3862 H   0  0  0  0  0  0
  -23.3759  -35.9592   23.3281 H   0  0  0  0  0  0
  -24.3584  -36.8918   22.2061 H   0  0  0  0  0  0
  -23.7235  -37.6452   23.6688 H   0  0  0  0  0  0
  -26.1585  -31.4782   20.6181 H   0  0  0  0  0  0
  -26.8730  -30.7692   22.0306 H   0  0  0  0  0  0
  -28.1273  -28.7971   21.2369 H   0  0  0  0  0  0
  -25.8861  -25.8720   18.9701 H   0  0  0  0  0  0
  -23.9689  -27.3210   18.9701 H   0  0  0  0  0  0
  -23.8080  -30.5814   19.4015 H   0  0  0  0  0  0
  -22.7834  -29.2490   19.8417 H   0  0  0  0  0  0
  -25.1305  -36.1871   25.0809 H   0  0  0  0  0  0
  -21.0002  -28.3314   24.1363 H   0  0  0  0  0  0
  -20.5692  -26.2344   23.3621 H   0  0  0  0  0  0
  -21.6656  -26.7446   22.1196 H   0  0  0  0  0  0
  -19.6922  -25.6290   21.1261 H   0  0  0  0  0  0
  -19.6691  -27.3180   20.6733 H   0  0  0  0  0  0
  -17.4213  -26.6681   21.4026 H   0  0  0  0  0  0
  -18.0339  -26.0086   22.9028 H   0  0  0  0  0  0
  -19.7956  -30.7296   24.2238 H   0  0  0  0  0  0
  -17.5028  -31.6270   24.5169 H   0  0  0  0  0  0
  -15.5365  -30.2981   23.7670 H   0  0  0  0  0  0
  -15.8688  -28.0816   22.7079 H   0  0  0  0  0  0
  -24.5865  -30.7134   25.7749 H   0  0  0  0  0  0
  -24.8908  -32.2952   26.4820 H   0  0  0  0  0  0
  -25.7976  -30.8951   27.0233 H   0  0  0  0  0  0
  -26.2992  -29.6690   24.1305 H   0  0  0  0  0  0
  -27.3975  -29.7257   25.4884 H   0  0  0  0  0  0
  -27.8911  -30.4195   23.9637 H   0  0  0  0  0  0
  -27.2635  -33.3638   26.2064 H   0  0  0  0  0  0
  -28.3876  -32.6889   25.0361 H   0  0  0  0  0  0
  -28.0705  -31.8485   26.5461 H   0  0  0  0  0  0
  -28.2577  -38.0102   24.7527 H   0  0  0  0  0  0
  -28.1091  -36.2633   24.6255 H   0  0  0  0  0  0
  -27.2304  -37.1402   25.8863 H   0  0  0  0  0  0
  -20.9477  -29.8780   21.6805 H   0  0  0  0  0  0
  -26.0152  -38.2822   24.1417 H   0  0  0  0  0  0
  -27.5151  -21.6637   19.7120 H   0  0  0  0  0  0
  -30.0998  -19.1727   18.4354 H   0  0  0  0  0  0
  -31.1898  -18.8631   19.7459 H   0  0  0  0  0  0
  -30.3473  -18.7146   21.9909 H   0  0  0  0  0  0
  -28.6552  -18.8895   22.2962 H   0  0  0  0  0  0
  -30.8105  -16.7543   18.5303 H   0  0  0  0  0  0
  -29.0956  -16.9397   18.5833 H   0  0  0  0  0  0
  -28.1250  -16.6909   21.3327 H   0  0  0  0  0  0
  -29.4743  -16.4572   22.3922 H   0  0  0  0  0  0
  -32.2575  -23.9398   21.9724 H   0  0  0  0  0  0
  -32.9687  -22.6811   20.9598 H   0  0  0  0  0  0
  -32.4012  -22.2955   22.5894 H   0  0  0  0  0  0
  -26.9583  -24.4621   20.5447 H   0  0  0  0  0  0
  -27.6361  -24.5404   18.9447 H   0  0  0  0  0  0
  1 25  1  0  0  0
  1 30  2  0  0  0
  1 84  1  0  0  0
  2  3  1  0  0  0
  2 25  1  0  0  0
  2 85  1  0  0  0
  2 86  1  0  0  0
  3  4  1  0  0  0
  3 87  1  0  0  0
  3 88  1  0  0  0
  4  5  1  0  0  0
  4 89  1  0  0  0
  4 90  1  0  0  0
  5  6  1  0  0  0
  5 26  1  0  0  0
  5 91  1  0  0  0
  6 25  1  0  0  0
  6 92  1  0  0  0
  6 93  1  0  0  0
  7  8  2  0  0  0
  7 26  1  0  0  0
  7 29  1  0  0  0
  8  9  1  0  0  0
  8 22  1  0  0  0
  9 10  1  0  0  0
  9 27  2  0  0  0
 10 11  2  0  0  0
 10 15  1  0  0  0
 11 12  1  0  0  0
 11 94  1  0  0  0
 12 13  2  0  0  0
 12 95  1  0  0  0
 13 14  1  0  0  0
 13 31  1  0  0  0
 14 15  2  0  0  0
 14 96  1  0  0  0
 15 97  1  0  0  0
 16 17  2  0  0  0
 16 21  1  0  0  0
 16 31  1  0  0  0
 17 18  1  0  0  0
 17 98  1  0  0  0
 18 19  2  0  0  0
 18 99  1  0  0  0
 19 20  1  0  0  0
 19 24  1  0  0  0
 20 21  2  0  0  0
 20100  1  0  0  0
 21 23  1  0  0  0
 22 28  1  0  0  0
 22 32  2  0  0  0
 26 27  1  0  0  0
 28101  1  0  0  0
 28102  1  0  0  0
 29103  1  0  0  0
 29104  1  0  0  0
 33 34  1  0  0  0
 33 66  1  0  0  0
 33 70  2  0  0  0
 34 36  1  0  0  0
 34 59  1  0  0  0
 34105  1  0  0  0
 35 44  2  0  0  0
 35 45  1  0  0  0
 35 68  1  0  0  0
 36 56  1  0  0  0
 36106  1  0  0  0
 37 39  1  0  0  0
 37 47  1  0  0  0
 37 66  1  0  0  0
 37107  1  0  0  0
 38 43  2  0  0  0
 38 46  1  0  0  0
 38 47  1  0  0  0
 39 64  1  0  0  0
 39 67  2  0  0  0
 40 52  1  0  0  0
 40 53  2  0  0  0
 40 58  1  0  0  0
 41108  1  0  0  0
 41109  1  0  0  0
 41110  1  0  0  0
 41 48  1  0  0  0
 42 43  1  0  0  0
 42 66  1  0  0  0
 42111  1  0  0  0
 42112  1  0  0  0
 43 44  1  0  0  0
 44113  1  0  0  0
 45 46  2  0  0  0
 45114  1  0  0  0
 46115  1  0  0  0
 47116  1  0  0  0
 47117  1  0  0  0
 48 56  1  0  0  0
 48 65  1  0  0  0
 48118  1  0  0  0
 49 50  1  0  0  0
 49 53  1  0  0  0
 49 64  1  0  0  0
 49119  1  0  0  0
 50 51  1  0  0  0
 50120  1  0  0  0
 50121  1  0  0  0
 51 52  1  0  0  0
 51122  1  0  0  0
 51123  1  0  0  0
 52124  1  0  0  0
 52125  1  0  0  0
 53 54  1  0  0  0
 54 55  2  0  0  0
 54126  1  0  0  0
 55 57  1  0  0  0
 55127  1  0  0  0
 56 69  2  0  0  0
 57 58  2  0  0  0
 57128  1  0  0  0
 58129  1  0  0  0
 59 60  1  0  0  0
 59 61  1  0  0  0
 59 62  1  0  0  0
 60130  1  0  0  0
 60131  1  0  0  0
 60132  1  0  0  0
 61133  1  0  0  0
 61134  1  0  0  0
 61135  1  0  0  0
 62136  1  0  0  0
 62137  1  0  0  0
 62138  1  0  0  0
 63 65  1  0  0  0
 63139  1  0  0  0
 63140  1  0  0  0
 63141  1  0  0  0
 64142  1  0  0  0
 65143  1  0  0  0
 68 80  1  0  0  0
 71 72  2  0  0  0
 71 73  1  0  0  0
 71144  1  0  0  0
 72 80  1  0  0  0
 72 81  1  0  0  0
 73 82  2  0  0  0
 73 83  1  0  0  0
 74 79  1  0  0  0
 74 81  2  0  0  0
 74 82  1  0  0  0
 75 77  1  0  0  0
 75 83  1  0  0  0
 75145  1  0  0  0
 75146  1  0  0  0
 76 78  1  0  0  0
 76 83  1  0  0  0
 76147  1  0  0  0
 76148  1  0  0  0
 77 84  1  0  0  0
 77149  1  0  0  0
 77150  1  0  0  0
 78 84  1  0  0  0
 78151  1  0  0  0
 78152  1  0  0  0
 79153  1  0  0  0
 79154  1  0  0  0
 79155  1  0  0  0
 80156  1  0  0  0
 80157  1  0  0  0
M  ISO  4   1 100  68 101  80 101  84 100
M  END
> <chiral flag>
0

> <version>
0

> <s_m_source_file>
/data/baiqing/PycharmProjects/Reinvent-master-3.2/result/LINK_invent/BTK/process_docking_weight1_custom_sum_contain_oxygen_bond_distance_aromatic_linkinvent_7_9_3/rearranged_h_0182.sdf

> <i_m_source_file_index>
42

> <r_mmod_Potential_Energy-OPLS-2005>
86.1469268798828

> <r_mmod_Stretch_Energy-OPLS-2005>
198.10188293457

> <r_mmod_Bend_Energy-OPLS-2005>
242.389770507812

> <r_mmod_Torsional_Energy-OPLS-2005>
363.217712402344

> <r_mmod_Improper_Torsional_Energy-OPLS-2005>
20.4750194549561

> <r_mmod_Van_der_Waal_Energy-OPLS-2005>
147.790512084961

> <r_mmod_Electrostatic_Energy-OPLS-2005>
-819.910583496094

> <r_mmod_Solvation_Energy-OPLS-2005>
-243.180969238281

> <b_mmod_Minimization_Converged-OPLS-2005>
0

> <r_mmod_RMS_Derivative-OPLS-2005>
1.05898225307465

$$$$
42
                    3D
 Structure written by MMmdl.
142150  0  0  1  0            999 V2000
  -30.2872  -15.6325   20.3272 C   0  0  0  0  0  0
  -30.4291  -13.0732   19.5486 C   0  0  0  0  0  0
  -29.5546  -12.6586   18.3291 C   0  0  0  0  0  0
  -28.1261  -12.3024   18.7676 C   0  0  0  0  0  0
  -27.5988  -13.3069   19.8166 C   0  0  2  0  0  0
  -28.6136  -13.6285   20.9400 C   0  0  0  0  0  0
  -25.2329  -13.8283   20.5784 C   0  0  0  0  0  0
  -24.1720  -13.0434   20.9291 C   0  0  0  0  0  0
  -24.6418  -11.6945   20.8766 C   0  0  0  0  0  0
  -23.9119  -10.4293   21.0398 C   0  0  0  0  0  0
  -24.3653   -9.4205   21.9180 C   0  0  0  0  0  0
  -23.6313   -8.2247   22.0754 C   0  0  0  0  0  0
  -22.4294   -8.0288   21.3545 C   0  0  0  0  0  0
  -21.9941   -9.0264   20.4644 C   0  0  0  0  0  0
  -22.7285  -10.2135   20.3050 C   0  0  0  0  0  0
  -21.6859   -6.0741   22.5279 C   0  0  0  0  0  0
  -21.4019   -6.5643   23.8212 C   0  0  0  0  0  0
  -21.3661   -5.6794   24.9174 C   0  0  0  0  0  0
  -21.6044   -4.3057   24.7223 C   0  0  0  0  0  0
  -21.8818   -3.8150   23.4344 C   0  0  0  0  0  0
  -21.9194   -4.6968   22.3401 C   0  0  0  0  0  0
  -22.7731  -13.5166   21.1924 C   0  0  0  0  0  0
  -22.1662   -4.2153   21.0978 F   0  0  0  0  0  0
  -21.5627   -3.4540   25.7735 F   0  0  0  0  0  0
  -29.7940  -14.2523   20.2962 N   0  0  0  0  0  0
  -26.2780  -12.9612   20.3229 N   0  0  0  0  0  0
  -25.9365  -11.6685   20.5699 N   0  0  0  0  0  0
  -22.0395  -12.8141   22.0474 N   0  0  0  0  0  0
  -25.3913  -15.2024   20.4199 N   0  0  0  0  0  0
  -31.5174  -15.5962   20.1227 O   0  0  0  0  0  0
  -21.6649   -6.8889   21.4243 O   0  0  0  0  0  0
  -22.3407  -14.5464   20.6758 O   0  0  0  0  0  0
  -24.6851  -31.7978   23.1503 C   0  0  0  0  0  0
  -25.9424  -32.4457   23.8056 C   0  0  1  0  0  0
  -27.2296  -26.6900   20.2133 C   0  0  0  0  0  0
  -25.5995  -33.8284   24.1939 N   0  0  0  0  0  0
  -23.5124  -30.3988   21.5041 C   0  0  2  0  0  0
  -24.9718  -28.7385   20.1157 C   0  0  0  0  0  0
  -22.7775  -29.4302   22.4702 C   0  0  0  0  0  0
  -18.0340  -28.1422   22.8454 C   0  0  0  0  0  0
  -24.1496  -36.7150   23.2652 C   0  0  0  0  0  0
  -26.0936  -30.5260   21.4180 C   0  0  0  0  0  0
  -26.1598  -29.0898   20.7673 C   0  0  0  0  0  0
  -27.2718  -28.0929   20.7860 C   0  0  0  0  0  0
  -26.0111  -26.5544   19.4987 C   0  0  0  0  0  0
  -24.9374  -27.4966   19.4577 C   0  0  0  0  0  0
  -23.7677  -29.6945   20.1397 C   0  0  0  0  0  0
  -25.4146  -36.2890   24.0280 C   0  0  1  0  0  0
  -20.5977  -28.3783   23.1138 C   0  0  2  0  0  0
  -20.6805  -26.9440   22.5404 C   0  0  0  0  0  0
  -19.5781  -26.6369   21.5217 C   0  0  0  0  0  0
  -18.1964  -26.7949   22.1619 C   0  0  0  0  0  0
  -19.1607  -28.8928   23.2776 C   0  0  0  0  0  0
  -18.9512  -30.1510   23.8823 C   0  0  0  0  0  0
  -17.6501  -30.6604   24.0550 C   0  0  0  0  0  0
  -25.9127  -34.9280   23.4949 C   0  0  0  0  0  0
  -16.5391  -29.9085   23.6350 C   0  0  0  0  0  0
  -16.7320  -28.6508   23.0367 C   0  0  0  0  0  0
  -26.4597  -31.6500   25.0686 C   0  0  0  0  0  0
  -25.3658  -31.3821   26.1296 C   0  0  0  0  0  0
  -27.0535  -30.2836   24.6601 C   0  0  0  0  0  0
  -27.6040  -32.4368   25.7507 C   0  0  0  0  0  0
  -27.5565  -37.1730   24.8465 C   0  0  0  0  0  0
  -21.4420  -29.3025   22.3454 N   0  0  0  0  0  0
  -26.4270  -37.3653   23.9408 N   0  0  0  0  0  0
  -24.7872  -30.9409   22.0766 N   0  0  0  0  0  0
  -23.4211  -28.7906   23.3055 O   0  0  0  0  0  0
  -28.1756  -25.4546   20.3156 O   0  0  0  0  0  0
  -26.5772  -34.8861   22.4569 O   0  0  0  0  0  0
  -23.5867  -32.1059   23.6447 O   0  0  0  0  0  0
  -29.7933  -21.2172   19.7624 C   0  0  0  0  0  0
  -28.1800  -19.4796   20.8621 C   0  0  0  0  0  0
  -28.6271  -22.0045   20.2895 C   0  0  0  0  0  0
  -29.3406  -18.6795   20.3618 C   0  0  0  0  0  0
  -27.9313  -23.7351   20.0128 C   0  0  0  0  0  0
  -27.8685  -20.9156   20.8252 N   0  0  0  0  0  0
  -30.1110  -19.7665   19.8139 N   0  0  0  0  0  0
  -29.4655  -16.9531   20.4425 N   0  0  0  0  0  0
  -31.4239  -13.3354   19.1867 H   0  0  0  0  0  0
  -30.5875  -12.2245   20.2163 H   0  0  0  0  0  0
  -30.0077  -11.8192   17.8000 H   0  0  0  0  0  0
  -29.5187  -13.4859   17.6187 H   0  0  0  0  0  0
  -28.1496  -11.3023   19.2021 H   0  0  0  0  0  0
  -27.4584  -12.2503   17.9066 H   0  0  0  0  0  0
  -27.4657  -14.2316   19.2534 H   0  0  0  0  0  0
  -28.8683  -12.7411   21.5216 H   0  0  0  0  0  0
  -28.1795  -14.3402   21.6438 H   0  0  0  0  0  0
  -25.2793   -9.5678   22.4765 H   0  0  0  0  0  0
  -24.0014   -7.4639   22.7479 H   0  0  0  0  0  0
  -21.0871   -8.8793   19.8950 H   0  0  0  0  0  0
  -22.3744  -10.9677   19.6162 H   0  0  0  0  0  0
  -21.2014   -7.6151   23.9717 H   0  0  0  0  0  0
  -21.1483   -6.0524   25.9077 H   0  0  0  0  0  0
  -22.0595   -2.7612   23.2843 H   0  0  0  0  0  0
  -22.4037  -11.9817   22.4869 H   0  0  0  0  0  0
  -21.1000  -13.1135   22.2671 H   0  0  0  0  0  0
  -24.6099  -15.8421   20.5153 H   0  0  0  0  0  0
  -26.2108  -15.6371   20.0186 H   0  0  0  0  0  0
  -26.7508  -32.4926   23.0769 H   0  0  0  0  0  0
  -25.0048  -33.9320   25.0029 H   0  0  0  0  0  0
  -22.8386  -31.2366   21.3129 H   0  0  0  0  0  0
  -23.3777  -35.9460   23.3261 H   0  0  0  0  0  0
  -24.3563  -36.8866   22.2077 H   0  0  0  0  0  0
  -23.7237  -37.6307   23.6765 H   0  0  0  0  0  0
  -26.2990  -31.2506   20.6290 H   0  0  0  0  0  0
  -26.9434  -30.5937   22.0847 H   0  0  0  0  0  0
  -28.1613  -28.3655   21.3361 H   0  0  0  0  0  0
  -25.8413  -25.6147   18.9929 H   0  0  0  0  0  0
  -24.0418  -27.2190   18.9190 H   0  0  0  0  0  0
  -23.9429  -30.4543   19.3772 H   0  0  0  0  0  0
  -22.8726  -29.1609   19.8155 H   0  0  0  0  0  0
  -25.1356  -36.1649   25.0770 H   0  0  0  0  0  0
  -21.0059  -28.3411   24.1264 H   0  0  0  0  0  0
  -20.5666  -26.2408   23.3669 H   0  0  0  0  0  0
  -21.6666  -26.7378   22.1224 H   0  0  0  0  0  0
  -19.6937  -25.6260   21.1296 H   0  0  0  0  0  0
  -19.6726  -27.3138   20.6714 H   0  0  0  0  0  0
  -17.4234  -26.6691   21.4023 H   0  0  0  0  0  0
  -18.0352  -26.0110   22.9033 H   0  0  0  0  0  0
  -19.7987  -30.7346   24.2159 H   0  0  0  0  0  0
  -17.5051  -31.6276   24.5167 H   0  0  0  0  0  0
  -15.5388  -30.2963   23.7717 H   0  0  0  0  0  0
  -15.8721  -28.0801   22.7125 H   0  0  0  0  0  0
  -24.5875  -30.7136   25.7597 H   0  0  0  0  0  0
  -24.8810  -32.3043   26.4511 H   0  0  0  0  0  0
  -25.7831  -30.9126   27.0213 H   0  0  0  0  0  0
  -26.3257  -29.6442   24.1596 H   0  0  0  0  0  0
  -27.3957  -29.7294   25.5351 H   0  0  0  0  0  0
  -27.9240  -30.3958   24.0136 H   0  0  0  0  0  0
  -27.2573  -33.3740   26.1875 H   0  0  0  0  0  0
  -28.3957  -32.6819   25.0415 H   0  0  0  0  0  0
  -28.0591  -31.8640   26.5597 H   0  0  0  0  0  0
  -28.2543  -38.0061   24.7521 H   0  0  0  0  0  0
  -28.1099  -36.2584   24.6282 H   0  0  0  0  0  0
  -27.2280  -37.1352   25.8866 H   0  0  0  0  0  0
  -20.9729  -29.8678   21.6514 H   0  0  0  0  0  0
  -26.0096  -38.2699   24.1426 H   0  0  0  0  0  0
  -30.5284  -21.7785   19.2042 H   0  0  0  0  0  0
  -27.3909  -18.9117   21.3330 H   0  0  0  0  0  0
  -26.9170  -23.6055   20.3899 H   0  0  0  0  0  0
  -27.7999  -23.7314   18.9309 H   0  0  0  0  0  0
  -28.5439  -16.6176   20.6785 H   0  0  0  0  0  0
  1 25  1  0  0  0
  1 30  2  0  0  0
  1 78  1  0  0  0
  2  3  1  0  0  0
  2 25  1  0  0  0
  2 79  1  0  0  0
  2 80  1  0  0  0
  3  4  1  0  0  0
  3 81  1  0  0  0
  3 82  1  0  0  0
  4  5  1  0  0  0
  4 83  1  0  0  0
  4 84  1  0  0  0
  5  6  1  0  0  0
  5 26  1  0  0  0
  5 85  1  0  0  0
  6 25  1  0  0  0
  6 86  1  0  0  0
  6 87  1  0  0  0
  7  8  2  0  0  0
  7 26  1  0  0  0
  7 29  1  0  0  0
  8  9  1  0  0  0
  8 22  1  0  0  0
  9 10  1  0  0  0
  9 27  2  0  0  0
 10 11  2  0  0  0
 10 15  1  0  0  0
 11 12  1  0  0  0
 11 88  1  0  0  0
 12 13  2  0  0  0
 12 89  1  0  0  0
 13 14  1  0  0  0
 13 31  1  0  0  0
 14 15  2  0  0  0
 14 90  1  0  0  0
 15 91  1  0  0  0
 16 17  2  0  0  0
 16 21  1  0  0  0
 16 31  1  0  0  0
 17 18  1  0  0  0
 17 92  1  0  0  0
 18 19  2  0  0  0
 18 93  1  0  0  0
 19 20  1  0  0  0
 19 24  1  0  0  0
 20 21  2  0  0  0
 20 94  1  0  0  0
 21 23  1  0  0  0
 22 28  1  0  0  0
 22 32  2  0  0  0
 26 27  1  0  0  0
 28 95  1  0  0  0
 28 96  1  0  0  0
 29 97  1  0  0  0
 29 98  1  0  0  0
 33 34  1  0  0  0
 33 66  1  0  0  0
 33 70  2  0  0  0
 34 36  1  0  0  0
 34 59  1  0  0  0
 34 99  1  0  0  0
 35 44  2  0  0  0
 35 45  1  0  0  0
 35 68  1  0  0  0
 36 56  1  0  0  0
 36100  1  0  0  0
 37 39  1  0  0  0
 37 47  1  0  0  0
 37 66  1  0  0  0
 37101  1  0  0  0
 38 43  2  0  0  0
 38 46  1  0  0  0
 38 47  1  0  0  0
 39 64  1  0  0  0
 39 67  2  0  0  0
 40 52  1  0  0  0
 40 53  2  0  0  0
 40 58  1  0  0  0
 41102  1  0  0  0
 41103  1  0  0  0
 41104  1  0  0  0
 41 48  1  0  0  0
 42 43  1  0  0  0
 42 66  1  0  0  0
 42105  1  0  0  0
 42106  1  0  0  0
 43 44  1  0  0  0
 44107  1  0  0  0
 45 46  2  0  0  0
 45108  1  0  0  0
 46109  1  0  0  0
 47110  1  0  0  0
 47111  1  0  0  0
 48 56  1  0  0  0
 48 65  1  0  0  0
 48112  1  0  0  0
 49 50  1  0  0  0
 49 53  1  0  0  0
 49 64  1  0  0  0
 49113  1  0  0  0
 50 51  1  0  0  0
 50114  1  0  0  0
 50115  1  0  0  0
 51 52  1  0  0  0
 51116  1  0  0  0
 51117  1  0  0  0
 52118  1  0  0  0
 52119  1  0  0  0
 53 54  1  0  0  0
 54 55  2  0  0  0
 54120  1  0  0  0
 55 57  1  0  0  0
 55121  1  0  0  0
 56 69  2  0  0  0
 57 58  2  0  0  0
 57122  1  0  0  0
 58123  1  0  0  0
 59 60  1  0  0  0
 59 61  1  0  0  0
 59 62  1  0  0  0
 60124  1  0  0  0
 60125  1  0  0  0
 60126  1  0  0  0
 61127  1  0  0  0
 61128  1  0  0  0
 61129  1  0  0  0
 62130  1  0  0  0
 62131  1  0  0  0
 62132  1  0  0  0
 63 65  1  0  0  0
 63133  1  0  0  0
 63134  1  0  0  0
 63135  1  0  0  0
 64136  1  0  0  0
 65137  1  0  0  0
 68 75  1  0  0  0
 71 73  2  0  0  0
 71 77  1  0  0  0
 71138  1  0  0  0
 72 74  1  0  0  0
 72 76  2  0  0  0
 72139  1  0  0  0
 73 75  1  0  0  0
 73 76  1  0  0  0
 74 77  2  0  0  0
 74 78  1  0  0  0
 75140  1  0  0  0
 75141  1  0  0  0
 78142  1  0  0  0
M  ISO  4   1 100  68 101  75 101  78 100
M  END
> <chiral flag>
0

> <version>
0

> <s_m_source_file>
/data/baiqing/PycharmProjects/Reinvent-master-3.2/result/LINK_invent/BTK/process_docking_weight1_custom_sum_contain_oxygen_bond_distance_aromatic_linkinvent_7_9_3/rearranged_h_0182.sdf

> <i_m_source_file_index>
43

> <r_mmod_Potential_Energy-OPLS-2005>
2409.27001953125

> <r_mmod_Stretch_Energy-OPLS-2005>
983.280944824219

> <r_mmod_Bend_Energy-OPLS-2005>
688.848022460938

> <r_mmod_Torsional_Energy-OPLS-2005>
216.758361816406

> <r_mmod_Improper_Torsional_Energy-OPLS-2005>
5.29224109649658

> <r_mmod_Van_der_Waal_Energy-OPLS-2005>
135.029052734375

> <r_mmod_Electrostatic_Energy-OPLS-2005>
-291.82080078125

> <r_mmod_Solvation_Energy-OPLS-2005>
-244.097106933594

> <b_mmod_Minimization_Converged-OPLS-2005>
1

> <r_mmod_RMS_Derivative-OPLS-2005>
0.0412764474749565

$$$$
43
                    3D
 Structure written by MMmdl.
167176  0  0  1  0            999 V2000
  -30.5742  -14.6556   20.5120 C   0  0  0  0  0  0
  -30.4400  -12.4102   19.4612 C   0  0  0  0  0  0
  -29.5082  -12.5176   18.2335 C   0  0  0  0  0  0
  -28.0388  -12.3195   18.6566 C   0  0  0  0  0  0
  -27.6509  -13.1993   19.8746 C   0  0  2  0  0  0
  -28.6885  -13.0572   21.0059 C   0  0  0  0  0  0
  -25.2568  -13.8121   20.5703 C   0  0  0  0  0  0
  -24.1840  -13.0427   20.9196 C   0  0  0  0  0  0
  -24.6396  -11.6871   20.8778 C   0  0  0  0  0  0
  -23.9051  -10.4277   21.0480 C   0  0  0  0  0  0
  -24.3631   -9.4201   21.9229 C   0  0  0  0  0  0
  -23.6319   -8.2236   22.0817 C   0  0  0  0  0  0
  -22.4303   -8.0293   21.3586 C   0  0  0  0  0  0
  -21.9944   -9.0257   20.4666 C   0  0  0  0  0  0
  -22.7258  -10.2124   20.3087 C   0  0  0  0  0  0
  -21.6835   -6.0754   22.5290 C   0  0  0  0  0  0
  -21.4001   -6.5670   23.8225 C   0  0  0  0  0  0
  -21.3655   -5.6832   24.9176 C   0  0  0  0  0  0
  -21.6052   -4.3095   24.7212 C   0  0  0  0  0  0
  -21.8819   -3.8168   23.4339 C   0  0  0  0  0  0
  -21.9195   -4.6983   22.3387 C   0  0  0  0  0  0
  -22.7836  -13.5197   21.1838 C   0  0  0  0  0  0
  -22.1667   -4.2178   21.0962 F   0  0  0  0  0  0
  -21.5641   -3.4568   25.7718 F   0  0  0  0  0  0
  -30.0001  -13.4163   20.4464 N   0  0  0  0  0  0
  -26.2964  -12.9283   20.3361 N   0  0  0  0  0  0
  -25.9292  -11.6458   20.5787 N   0  0  0  0  0  0
  -22.0474  -12.8199   22.0407 N   0  0  0  0  0  0
  -25.4252  -15.1860   20.4004 N   0  0  0  0  0  0
  -31.7306  -14.8493   20.1115 O   0  0  0  0  0  0
  -21.6654   -6.8897   21.4274 O   0  0  0  0  0  0
  -22.3541  -14.5518   20.6696 O   0  0  0  0  0  0
  -24.6147  -31.8692   23.2156 C   0  0  0  0  0  0
  -25.9024  -32.4896   23.8391 C   0  0  1  0  0  0
  -27.2271  -27.3719   20.1468 C   0  0  0  0  0  0
  -25.5854  -33.8688   24.2352 N   0  0  0  0  0  0
  -23.4085  -30.4959   21.5553 C   0  0  2  0  0  0
  -24.8612  -28.9607   20.1142 C   0  0  0  0  0  0
  -22.7444  -29.4671   22.5004 C   0  0  0  0  0  0
  -18.0228  -28.1425   22.8556 C   0  0  0  0  0  0
  -24.1466  -36.7310   23.2669 C   0  0  0  0  0  0
  -25.9451  -30.8279   21.3670 C   0  0  0  0  0  0
  -26.0245  -29.4537   20.7219 C   0  0  0  0  0  0
  -27.2131  -28.6727   20.7263 C   0  0  0  0  0  0
  -26.0492  -26.9173   19.5202 C   0  0  0  0  0  0
  -24.8762  -27.6955   19.5022 C   0  0  0  0  0  0
  -23.6234  -29.8384   20.1659 C   0  0  0  0  0  0
  -25.4120  -36.3198   24.0360 C   0  0  1  0  0  0
  -20.5852  -28.3728   23.1364 C   0  0  2  0  0  0
  -20.6777  -26.9431   22.5534 C   0  0  0  0  0  0
  -19.5733  -26.6391   21.5360 C   0  0  0  0  0  0
  -18.1874  -26.7966   22.1681 C   0  0  0  0  0  0
  -19.1482  -28.8885   23.2963 C   0  0  0  0  0  0
  -18.9422  -30.1500   23.8978 C   0  0  0  0  0  0
  -17.6431  -30.6662   24.0595 C   0  0  0  0  0  0
  -25.9052  -34.9542   23.5185 C   0  0  0  0  0  0
  -16.5332  -29.9205   23.6322 C   0  0  0  0  0  0
  -16.7211  -28.6597   23.0389 C   0  0  0  0  0  0
  -26.4402  -31.6655   25.0726 C   0  0  0  0  0  0
  -25.3631  -31.3645   26.1425 C   0  0  0  0  0  0
  -27.0262  -30.3150   24.6050 C   0  0  0  0  0  0
  -27.6000  -32.4331   25.7487 C   0  0  0  0  0  0
  -27.5570  -37.1826   24.8467 C   0  0  0  0  0  0
  -21.4157  -29.3097   22.3774 N   0  0  0  0  0  0
  -26.4292  -37.3903   23.9417 N   0  0  0  0  0  0
  -24.6762  -31.0747   22.1077 N   0  0  0  0  0  0
  -23.4218  -28.8188   23.3026 O   0  0  0  0  0  0
  -28.3527  -26.5508   20.1507 O   0  0  0  0  0  0
  -26.5691  -34.8950   22.4814 O   0  0  0  0  0  0
  -23.5322  -32.1386   23.7581 O   0  0  0  0  0  0
  -28.9180  -24.1353   20.0548 C   0  0  0  0  0  0
  -28.8667  -22.8652   20.6939 C   0  0  0  0  0  0
  -28.3080  -25.2461   20.6785 C   0  0  0  0  0  0
  -27.7123  -23.8557   22.4205 C   0  0  0  0  0  0
  -28.6601  -17.7792   19.8282 C   0  0  0  0  0  0
  -28.8318  -19.2934   19.4591 C   0  0  0  0  0  0
  -30.2751  -19.5917   21.4288 C   0  0  0  0  0  0
  -29.9973  -18.0928   21.8603 C   0  0  1  0  0  0
  -29.8730  -17.1745   20.5941 C   0  0  1  0  0  0
  -27.0912  -23.7581   23.8069 C   0  0  0  0  0  0
  -30.9415  -18.1288   24.3037 C   0  0  0  0  0  0
  -29.5377  -21.6076   20.0651 C   0  0  0  0  0  0
  -31.0221  -17.5420   22.8826 C   0  0  0  0  0  0
  -28.2435  -22.7458   21.8877 N   0  0  0  0  0  0
  -27.7065  -25.0727   21.8734 N   0  0  0  0  0  0
  -29.7334  -15.6902   20.8353 N   0  0  0  0  0  0
  -29.1984  -20.2196   20.5851 N   0  3  1  0  0  0
  -31.4787  -12.5529   19.1610 H   0  0  0  0  0  0
  -30.3782  -11.4186   19.9089 H   0  0  0  0  0  0
  -29.7873  -11.7814   17.4777 H   0  0  0  0  0  0
  -29.6254  -13.4945   17.7650 H   0  0  0  0  0  0
  -27.9109  -11.2629   18.9046 H   0  0  0  0  0  0
  -27.3773  -12.5284   17.8160 H   0  0  0  0  0  0
  -27.6727  -14.2290   19.5307 H   0  0  0  0  0  0
  -28.7096  -12.0343   21.3880 H   0  0  0  0  0  0
  -28.4204  -13.6812   21.8583 H   0  0  0  0  0  0
  -25.2771   -9.5642   22.4792 H   0  0  0  0  0  0
  -24.0005   -7.4629   22.7567 H   0  0  0  0  0  0
  -21.0881   -8.8765   19.8929 H   0  0  0  0  0  0
  -22.3780  -10.9671   19.6192 H   0  0  0  0  0  0
  -21.1997   -7.6167   23.9710 H   0  0  0  0  0  0
  -21.1492   -6.0572   25.9088 H   0  0  0  0  0  0
  -22.0598   -2.7623   23.2847 H   0  0  0  0  0  0
  -22.4150  -11.9874   22.4694 H   0  0  0  0  0  0
  -21.1070  -13.1252   22.2603 H   0  0  0  0  0  0
  -24.6353  -15.8191   20.4659 H   0  0  0  0  0  0
  -26.2271  -15.6074   19.9523 H   0  0  0  0  0  0
  -26.7154  -32.5562   23.1179 H   0  0  0  0  0  0
  -24.9841  -33.9873   25.0373 H   0  0  0  0  0  0
  -22.6940  -31.3138   21.4256 H   0  0  0  0  0  0
  -23.3788  -35.9575   23.3356 H   0  0  0  0  0  0
  -24.3497  -36.8907   22.2057 H   0  0  0  0  0  0
  -23.7103  -37.6474   23.6679 H   0  0  0  0  0  0
  -26.0435  -31.5823   20.5864 H   0  0  0  0  0  0
  -26.8502  -30.9144   21.9578 H   0  0  0  0  0  0
  -28.1086  -29.0640   21.1867 H   0  0  0  0  0  0
  -26.0271  -25.9426   19.0553 H   0  0  0  0  0  0
  -23.9859  -27.3087   19.0235 H   0  0  0  0  0  0
  -23.7368  -30.6281   19.4226 H   0  0  0  0  0  0
  -22.7384  -29.2803   19.8553 H   0  0  0  0  0  0
  -25.1305  -36.2113   25.0858 H   0  0  0  0  0  0
  -20.9953  -28.3374   24.1476 H   0  0  0  0  0  0
  -20.5820  -26.2317   23.3762 H   0  0  0  0  0  0
  -21.6620  -26.7542   22.1240 H   0  0  0  0  0  0
  -19.6902  -25.6321   21.1360 H   0  0  0  0  0  0
  -19.6693  -27.3248   20.6939 H   0  0  0  0  0  0
  -17.4211  -26.6798   21.4017 H   0  0  0  0  0  0
  -18.0112  -26.0111   22.9034 H   0  0  0  0  0  0
  -19.7896  -30.7316   24.2384 H   0  0  0  0  0  0
  -17.4990  -31.6323   24.5220 H   0  0  0  0  0  0
  -15.5358  -30.3193   23.7607 H   0  0  0  0  0  0
  -15.8551  -28.1009   22.7102 H   0  0  0  0  0  0
  -24.5928  -30.6920   25.7642 H   0  0  0  0  0  0
  -24.8632  -32.2726   26.4813 H   0  0  0  0  0  0
  -25.7925  -30.8792   27.0213 H   0  0  0  0  0  0
  -26.2818  -29.6932   24.1097 H   0  0  0  0  0  0
  -27.4096  -29.7360   25.4457 H   0  0  0  0  0  0
  -27.8581  -30.4564   23.9164 H   0  0  0  0  0  0
  -27.2735  -33.3636   26.2141 H   0  0  0  0  0  0
  -28.3763  -32.6920   25.0285 H   0  0  0  0  0  0
  -28.0751  -31.8390   26.5304 H   0  0  0  0  0  0
  -28.2704  -38.0035   24.7627 H   0  0  0  0  0  0
  -28.1005  -36.2621   24.6288 H   0  0  0  0  0  0
  -27.2265  -37.1429   25.8861 H   0  0  0  0  0  0
  -20.9352  -29.8763   21.6933 H   0  0  0  0  0  0
  -26.0202  -38.2988   24.1490 H   0  0  0  0  0  0
  -29.4257  -24.2518   19.1074 H   0  0  0  0  0  0
  -28.4878  -17.2186   18.9080 H   0  0  0  0  0  0
  -27.7483  -17.6512   20.4120 H   0  0  0  0  0  0
  -27.9151  -19.6506   18.9865 H   0  0  0  0  0  0
  -29.6080  -19.3563   18.6962 H   0  0  0  0  0  0
  -31.2122  -19.6114   20.8670 H   0  0  0  0  0  0
  -30.4345  -20.2173   22.3073 H   0  0  0  0  0  0
  -29.0357  -18.0915   22.3772 H   0  0  0  0  0  0
  -30.7581  -17.3083   19.9721 H   0  0  0  0  0  0
  -26.9780  -22.7273   24.1450 H   0  0  0  0  0  0
  -26.1133  -24.2454   23.8368 H   0  0  0  0  0  0
  -27.7365  -24.2621   24.5257 H   0  0  0  0  0  0
  -31.7878  -17.7789   24.8988 H   0  0  0  0  0  0
  -30.0324  -17.8021   24.8133 H   0  0  0  0  0  0
  -30.9582  -19.2176   24.3239 H   0  0  0  0  0  0
  -30.6184  -21.7554   20.0624 H   0  0  0  0  0  0
  -29.2491  -21.6696   19.0157 H   0  0  0  0  0  0
  -32.0367  -17.6457   22.5035 H   0  0  0  0  0  0
  -30.8622  -16.4740   23.0016 H   0  0  0  0  0  0
  -28.8224  -15.3891   21.1473 H   0  0  0  0  0  0
  -28.3903  -20.3781   21.1729 H   0  0  0  0  0  0
  1 25  1  0  0  0
  1 30  2  0  0  0
  1 86  1  0  0  0
  2  3  1  0  0  0
  2 25  1  0  0  0
  2 88  1  0  0  0
  2 89  1  0  0  0
  3  4  1  0  0  0
  3 90  1  0  0  0
  3 91  1  0  0  0
  4  5  1  0  0  0
  4 92  1  0  0  0
  4 93  1  0  0  0
  5  6  1  0  0  0
  5 26  1  0  0  0
  5 94  1  0  0  0
  6 25  1  0  0  0
  6 95  1  0  0  0
  6 96  1  0  0  0
  7  8  2  0  0  0
  7 26  1  0  0  0
  7 29  1  0  0  0
  8  9  1  0  0  0
  8 22  1  0  0  0
  9 10  1  0  0  0
  9 27  2  0  0  0
 10 11  2  0  0  0
 10 15  1  0  0  0
 11 12  1  0  0  0
 11 97  1  0  0  0
 12 13  2  0  0  0
 12 98  1  0  0  0
 13 14  1  0  0  0
 13 31  1  0  0  0
 14 15  2  0  0  0
 14 99  1  0  0  0
 15100  1  0  0  0
 16 17  2  0  0  0
 16 21  1  0  0  0
 16 31  1  0  0  0
 17 18  1  0  0  0
 17101  1  0  0  0
 18 19  2  0  0  0
 18102  1  0  0  0
 19 20  1  0  0  0
 19 24  1  0  0  0
 20 21  2  0  0  0
 20103  1  0  0  0
 21 23  1  0  0  0
 22 28  1  0  0  0
 22 32  2  0  0  0
 26 27  1  0  0  0
 28104  1  0  0  0
 28105  1  0  0  0
 29106  1  0  0  0
 29107  1  0  0  0
 33 34  1  0  0  0
 33 66  1  0  0  0
 33 70  2  0  0  0
 34 36  1  0  0  0
 34 59  1  0  0  0
 34108  1  0  0  0
 35 44  2  0  0  0
 35 45  1  0  0  0
 35 68  1  0  0  0
 36 56  1  0  0  0
 36109  1  0  0  0
 37 39  1  0  0  0
 37 47  1  0  0  0
 37 66  1  0  0  0
 37110  1  0  0  0
 38 43  2  0  0  0
 38 46  1  0  0  0
 38 47  1  0  0  0
 39 64  1  0  0  0
 39 67  2  0  0  0
 40 52  1  0  0  0
 40 53  2  0  0  0
 40 58  1  0  0  0
 41111  1  0  0  0
 41112  1  0  0  0
 41113  1  0  0  0
 41 48  1  0  0  0
 42 43  1  0  0  0
 42 66  1  0  0  0
 42114  1  0  0  0
 42115  1  0  0  0
 43 44  1  0  0  0
 44116  1  0  0  0
 45 46  2  0  0  0
 45117  1  0  0  0
 46118  1  0  0  0
 47119  1  0  0  0
 47120  1  0  0  0
 48 56  1  0  0  0
 48 65  1  0  0  0
 48121  1  0  0  0
 49 50  1  0  0  0
 49 53  1  0  0  0
 49 64  1  0  0  0
 49122  1  0  0  0
 50 51  1  0  0  0
 50123  1  0  0  0
 50124  1  0  0  0
 51 52  1  0  0  0
 51125  1  0  0  0
 51126  1  0  0  0
 52127  1  0  0  0
 52128  1  0  0  0
 53 54  1  0  0  0
 54 55  2  0  0  0
 54129  1  0  0  0
 55 57  1  0  0  0
 55130  1  0  0  0
 56 69  2  0  0  0
 57 58  2  0  0  0
 57131  1  0  0  0
 58132  1  0  0  0
 59 60  1  0  0  0
 59 61  1  0  0  0
 59 62  1  0  0  0
 60133  1  0  0  0
 60134  1  0  0  0
 60135  1  0  0  0
 61136  1  0  0  0
 61137  1  0  0  0
 61138  1  0  0  0
 62139  1  0  0  0
 62140  1  0  0  0
 62141  1  0  0  0
 63 65  1  0  0  0
 63142  1  0  0  0
 63143  1  0  0  0
 63144  1  0  0  0
 64145  1  0  0  0
 65146  1  0  0  0
 68 73  1  0  0  0
 71 72  2  0  0  0
 71 73  1  0  0  0
 71147  1  0  0  0
 72 82  1  0  0  0
 72 84  1  0  0  0
 73 85  2  0  0  0
 74 80  1  0  0  0
 74 84  2  0  0  0
 74 85  1  0  0  0
 75 76  1  0  0  0
 75 79  1  0  0  0
 75148  1  0  0  0
 75149  1  0  0  0
 76 87  1  0  0  0
 76150  1  0  0  0
 76151  1  0  0  0
 77 78  1  0  0  0
 77 87  1  0  0  0
 77152  1  0  0  0
 77153  1  0  0  0
 78 79  1  0  0  0
 78 83  1  0  0  0
 78154  1  0  0  0
 79 86  1  0  0  0
 79155  1  0  0  0
 80156  1  0  0  0
 80157  1  0  0  0
 80158  1  0  0  0
 81 83  1  0  0  0
 81159  1  0  0  0
 81160  1  0  0  0
 81161  1  0  0  0
 82162  1  0  0  0
 82163  1  0  0  0
 82 87  1  0  0  0
 83164  1  0  0  0
 83165  1  0  0  0
 86166  1  0  0  0
 87167  1  0  0  0
M  CHG  1  87   1
M  ISO  4   1 100  68 101  73 101  86 100
M  END
> <chiral flag>
0

> <version>
0

> <s_m_source_file>
/data/baiqing/PycharmProjects/Reinvent-master-3.2/result/LINK_invent/BTK/process_docking_weight1_custom_sum_contain_oxygen_bond_distance_aromatic_linkinvent_7_9_3/rearranged_h_0182.sdf

> <i_m_source_file_index>
44

> <r_mmod_Potential_Energy-OPLS-2005>
-569.463806152344

> <r_mmod_Stretch_Energy-OPLS-2005>
67.5522689819336

> <r_mmod_Bend_Energy-OPLS-2005>
135.919235229492

> <r_mmod_Torsional_Energy-OPLS-2005>
254.558319091797

> <r_mmod_Improper_Torsional_Energy-OPLS-2005>
6.23179912567139

> <r_mmod_Van_der_Waal_Energy-OPLS-2005>
150.197937011719

> <r_mmod_Electrostatic_Energy-OPLS-2005>
-770.019592285156

> <r_mmod_Solvation_Energy-OPLS-2005>
-457.670867919922

> <b_mmod_Minimization_Converged-OPLS-2005>
0

> <r_mmod_RMS_Derivative-OPLS-2005>
7.5764741897583

$$$$
44
                    3D
 Structure written by MMmdl.
153162  0  0  1  0            999 V2000
  -30.4323  -15.2333   20.3646 C   0  0  0  0  0  0
  -30.4489  -12.7794   19.5270 C   0  0  0  0  0  0
  -29.5413  -12.5725   18.2880 C   0  0  0  0  0  0
  -28.0837  -12.3078   18.7094 C   0  0  0  0  0  0
  -27.6198  -13.2721   19.8287 C   0  0  2  0  0  0
  -28.6565  -13.4145   20.9652 C   0  0  0  0  0  0
  -25.2411  -13.8252   20.5760 C   0  0  0  0  0  0
  -24.1750  -13.0441   20.9253 C   0  0  0  0  0  0
  -24.6408  -11.6935   20.8752 C   0  0  0  0  0  0
  -23.9099  -10.4293   21.0386 C   0  0  0  0  0  0
  -24.3639   -9.4203   21.9166 C   0  0  0  0  0  0
  -23.6305   -8.2239   22.0747 C   0  0  0  0  0  0
  -22.4280   -8.0279   21.3539 C   0  0  0  0  0  0
  -21.9918   -9.0260   20.4648 C   0  0  0  0  0  0
  -22.7262  -10.2134   20.3044 C   0  0  0  0  0  0
  -21.6850   -6.0733   22.5273 C   0  0  0  0  0  0
  -21.4020   -6.5635   23.8212 C   0  0  0  0  0  0
  -21.3669   -5.6785   24.9171 C   0  0  0  0  0  0
  -21.6050   -4.3049   24.7217 C   0  0  0  0  0  0
  -21.8820   -3.8141   23.4342 C   0  0  0  0  0  0
  -21.9193   -4.6962   22.3399 C   0  0  0  0  0  0
  -22.7762  -13.5190   21.1904 C   0  0  0  0  0  0
  -22.1658   -4.2147   21.0978 F   0  0  0  0  0  0
  -21.5630   -3.4538   25.7732 F   0  0  0  0  0  0
  -29.8991  -13.9139   20.3517 N   0  0  0  0  0  0
  -26.2851  -12.9524   20.3228 N   0  0  0  0  0  0
  -25.9345  -11.6637   20.5705 N   0  0  0  0  0  0
  -22.0419  -12.8173   22.0462 N   0  0  0  0  0  0
  -25.4049  -15.1995   20.4238 N   0  0  0  0  0  0
  -31.6436  -15.2700   20.0979 O   0  0  0  0  0  0
  -21.6637   -6.8875   21.4235 O   0  0  0  0  0  0
  -22.3437  -14.5501   20.6760 O   0  0  0  0  0  0
  -24.6587  -31.8277   23.1726 C   0  0  0  0  0  0
  -25.9277  -32.4617   23.8200 C   0  0  1  0  0  0
  -27.2329  -26.9758   20.1738 C   0  0  0  0  0  0
  -25.5954  -33.8429   24.2108 N   0  0  0  0  0  0
  -23.4719  -30.4379   21.5205 C   0  0  2  0  0  0
  -24.9290  -28.8319   20.1103 C   0  0  0  0  0  0
  -22.7657  -29.4448   22.4797 C   0  0  0  0  0  0
  -18.0325  -28.1402   22.8471 C   0  0  0  0  0  0
  -24.1495  -36.7215   23.2650 C   0  0  0  0  0  0
  -26.0380  -30.6488   21.3965 C   0  0  0  0  0  0
  -26.1098  -29.2425   20.7403 C   0  0  0  0  0  0
  -27.2547  -28.3347   20.7480 C   0  0  0  0  0  0
  -26.0218  -26.7025   19.4989 C   0  0  0  0  0  0
  -24.9074  -27.5805   19.4717 C   0  0  0  0  0  0
  -23.7105  -29.7522   20.1463 C   0  0  0  0  0  0
  -25.4130  -36.2986   24.0313 C   0  0  1  0  0  0
  -20.5951  -28.3739   23.1204 C   0  0  2  0  0  0
  -20.6797  -26.9422   22.5406 C   0  0  0  0  0  0
  -19.5770  -26.6374   21.5219 C   0  0  0  0  0  0
  -18.1954  -26.7936   22.1630 C   0  0  0  0  0  0
  -19.1585  -28.8894   23.2822 C   0  0  0  0  0  0
  -18.9492  -30.1486   23.8853 C   0  0  0  0  0  0
  -17.6484  -30.6591   24.0559 C   0  0  0  0  0  0
  -25.9086  -34.9367   23.5032 C   0  0  0  0  0  0
  -16.5375  -29.9080   23.6341 C   0  0  0  0  0  0
  -16.7307  -28.6503   23.0355 C   0  0  0  0  0  0
  -26.4535  -31.6548   25.0716 C   0  0  0  0  0  0
  -25.3666  -31.3779   26.1377 C   0  0  0  0  0  0
  -27.0434  -30.2928   24.6406 C   0  0  0  0  0  0
  -27.6044  -32.4342   25.7499 C   0  0  0  0  0  0
  -27.5569  -37.1766   24.8466 C   0  0  0  0  0  0
  -21.4334  -29.3028   22.3554 N   0  0  0  0  0  0
  -26.4282  -37.3713   23.9407 N   0  0  0  0  0  0
  -24.7435  -30.9972   22.0836 N   0  0  0  0  0  0
  -23.4216  -28.8013   23.3025 O   0  0  0  0  0  0
  -28.2618  -25.9130   20.2583 O   0  0  0  0  0  0
  -26.5699  -34.8885   22.4632 O   0  0  0  0  0  0
  -23.5663  -32.1236   23.6835 O   0  0  0  0  0  0
  -28.4243  -20.2942   21.2082 C   0  0  0  0  0  0
  -28.6161  -18.8293   21.2312 C   0  0  0  0  0  0
  -29.1034  -21.2528   20.3567 C   0  0  0  0  0  0
  -29.9814  -20.3921   19.5482 C   0  0  0  0  0  0
  -29.5446  -18.0473   20.4351 C   0  0  0  0  0  0
  -30.5641  -23.5173   20.7416 C   0  0  0  0  0  0
  -29.6935  -23.3504   21.9406 C   0  0  0  0  0  0
  -29.1406  -22.9978   20.5666 C   0  0  0  0  0  0
  -30.8636  -21.0656   18.5133 C   0  0  0  0  0  0
  -28.1000  -24.2989   20.0356 C   0  0  0  0  0  0
  -30.1784  -18.9699   19.5918 N   0  0  0  0  0  0
  -29.6008  -16.4388   20.5503 N   0  0  0  0  0  0
  -31.4690  -12.9815   19.1963 H   0  0  0  0  0  0
  -30.5145  -11.8665   20.1209 H   0  0  0  0  0  0
  -29.9140  -11.7480   17.6793 H   0  0  0  0  0  0
  -29.5820  -13.4618   17.6562 H   0  0  0  0  0  0
  -28.0250  -11.2799   19.0683 H   0  0  0  0  0  0
  -27.4170  -12.3690   17.8482 H   0  0  0  0  0  0
  -27.5469  -14.2474   19.3462 H   0  0  0  0  0  0
  -28.8103  -12.4692   21.4865 H   0  0  0  0  0  0
  -28.3042  -14.1236   21.7153 H   0  0  0  0  0  0
  -25.2786   -9.5692   22.4740 H   0  0  0  0  0  0
  -24.0023   -7.4637   22.7477 H   0  0  0  0  0  0
  -21.0841   -8.8803   19.8959 H   0  0  0  0  0  0
  -22.3724  -10.9680   19.6157 H   0  0  0  0  0  0
  -21.2019   -7.6143   23.9718 H   0  0  0  0  0  0
  -21.1485   -6.0507   25.9078 H   0  0  0  0  0  0
  -22.0592   -2.7604   23.2833 H   0  0  0  0  0  0
  -22.4048  -11.9856   22.4879 H   0  0  0  0  0  0
  -21.1036  -13.1203   22.2671 H   0  0  0  0  0  0
  -24.6351  -15.8467   20.5561 H   0  0  0  0  0  0
  -26.2397  -15.6475   20.0710 H   0  0  0  0  0  0
  -26.7350  -32.5169   23.0923 H   0  0  0  0  0  0
  -25.0047  -33.9519   25.0219 H   0  0  0  0  0  0
  -22.7825  -31.2677   21.3507 H   0  0  0  0  0  0
  -23.3757  -35.9544   23.3314 H   0  0  0  0  0  0
  -24.3562  -36.8851   22.2060 H   0  0  0  0  0  0
  -23.7248  -37.6409   23.6694 H   0  0  0  0  0  0
  -26.2144  -31.3944   20.6197 H   0  0  0  0  0  0
  -26.8997  -30.7058   22.0496 H   0  0  0  0  0  0
  -28.1497  -28.6463   21.2682 H   0  0  0  0  0  0
  -25.9093  -25.7445   19.0107 H   0  0  0  0  0  0
  -24.0097  -27.2595   18.9614 H   0  0  0  0  0  0
  -23.8598  -30.5208   19.3875 H   0  0  0  0  0  0
  -22.8223  -29.2012   19.8330 H   0  0  0  0  0  0
  -25.1323  -36.1803   25.0804 H   0  0  0  0  0  0
  -21.0043  -28.3337   24.1330 H   0  0  0  0  0  0
  -20.5684  -26.2349   23.3639 H   0  0  0  0  0  0
  -21.6658  -26.7402   22.1207 H   0  0  0  0  0  0
  -19.6917  -25.6274   21.1273 H   0  0  0  0  0  0
  -19.6699  -27.3173   20.6738 H   0  0  0  0  0  0
  -17.4216  -26.6687   21.4038 H   0  0  0  0  0  0
  -18.0337  -26.0091   22.9042 H   0  0  0  0  0  0
  -19.7961  -30.7322   24.2195 H   0  0  0  0  0  0
  -17.5027  -31.6264   24.5176 H   0  0  0  0  0  0
  -15.5368  -30.2961   23.7682 H   0  0  0  0  0  0
  -15.8713  -28.0806   22.7087 H   0  0  0  0  0  0
  -24.5860  -30.7121   25.7671 H   0  0  0  0  0  0
  -24.8835  -32.2976   26.4690 H   0  0  0  0  0  0
  -25.7906  -30.9012   27.0227 H   0  0  0  0  0  0
  -26.3105  -29.6600   24.1395 H   0  0  0  0  0  0
  -27.3977  -29.7285   25.5039 H   0  0  0  0  0  0
  -27.9032  -30.4128   23.9815 H   0  0  0  0  0  0
  -27.2643  -33.3685   26.1970 H   0  0  0  0  0  0
  -28.3906  -32.6834   25.0364 H   0  0  0  0  0  0
  -28.0661  -31.8541   26.5496 H   0  0  0  0  0  0
  -28.2584  -38.0062   24.7504 H   0  0  0  0  0  0
  -28.1074  -36.2593   24.6319 H   0  0  0  0  0  0
  -27.2287  -37.1439   25.8869 H   0  0  0  0  0  0
  -20.9582  -29.8720   21.6691 H   0  0  0  0  0  0
  -26.0143  -38.2783   24.1392 H   0  0  0  0  0  0
  -27.7400  -20.7009   21.9385 H   0  0  0  0  0  0
  -28.0113  -18.2871   21.9438 H   0  0  0  0  0  0
  -31.3981  -22.8263   20.6426 H   0  0  0  0  0  0
  -30.7749  -24.5377   20.4241 H   0  0  0  0  0  0
  -29.3505  -24.2661   22.4214 H   0  0  0  0  0  0
  -29.9239  -22.5337   22.6211 H   0  0  0  0  0  0
  -30.4992  -22.0633   18.2678 H   0  0  0  0  0  0
  -30.8821  -20.4922   17.5870 H   0  0  0  0  0  0
  -31.8860  -21.1547   18.8809 H   0  0  0  0  0  0
  -27.1081  -24.0517   20.4119 H   0  0  0  0  0  0
  -28.0207  -24.1814   18.9544 H   0  0  0  0  0  0
  -28.7092  -16.1098   20.8833 H   0  0  0  0  0  0
  1 25  1  0  0  0
  1 30  2  0  0  0
  1 82  1  0  0  0
  2  3  1  0  0  0
  2 25  1  0  0  0
  2 83  1  0  0  0
  2 84  1  0  0  0
  3  4  1  0  0  0
  3 85  1  0  0  0
  3 86  1  0  0  0
  4  5  1  0  0  0
  4 87  1  0  0  0
  4 88  1  0  0  0
  5  6  1  0  0  0
  5 26  1  0  0  0
  5 89  1  0  0  0
  6 25  1  0  0  0
  6 90  1  0  0  0
  6 91  1  0  0  0
  7  8  2  0  0  0
  7 26  1  0  0  0
  7 29  1  0  0  0
  8  9  1  0  0  0
  8 22  1  0  0  0
  9 10  1  0  0  0
  9 27  2  0  0  0
 10 11  2  0  0  0
 10 15  1  0  0  0
 11 12  1  0  0  0
 11 92  1  0  0  0
 12 13  2  0  0  0
 12 93  1  0  0  0
 13 14  1  0  0  0
 13 31  1  0  0  0
 14 15  2  0  0  0
 14 94  1  0  0  0
 15 95  1  0  0  0
 16 17  2  0  0  0
 16 21  1  0  0  0
 16 31  1  0  0  0
 17 18  1  0  0  0
 17 96  1  0  0  0
 18 19  2  0  0  0
 18 97  1  0  0  0
 19 20  1  0  0  0
 19 24  1  0  0  0
 20 21  2  0  0  0
 20 98  1  0  0  0
 21 23  1  0  0  0
 22 28  1  0  0  0
 22 32  2  0  0  0
 26 27  1  0  0  0
 28 99  1  0  0  0
 28100  1  0  0  0
 29101  1  0  0  0
 29102  1  0  0  0
 33 34  1  0  0  0
 33 66  1  0  0  0
 33 70  2  0  0  0
 34 36  1  0  0  0
 34 59  1  0  0  0
 34103  1  0  0  0
 35 44  2  0  0  0
 35 45  1  0  0  0
 35 68  1  0  0  0
 36 56  1  0  0  0
 36104  1  0  0  0
 37 39  1  0  0  0
 37 47  1  0  0  0
 37 66  1  0  0  0
 37105  1  0  0  0
 38 43  2  0  0  0
 38 46  1  0  0  0
 38 47  1  0  0  0
 39 64  1  0  0  0
 39 67  2  0  0  0
 40 52  1  0  0  0
 40 53  2  0  0  0
 40 58  1  0  0  0
 41106  1  0  0  0
 41107  1  0  0  0
 41108  1  0  0  0
 41 48  1  0  0  0
 42 43  1  0  0  0
 42 66  1  0  0  0
 42109  1  0  0  0
 42110  1  0  0  0
 43 44  1  0  0  0
 44111  1  0  0  0
 45 46  2  0  0  0
 45112  1  0  0  0
 46113  1  0  0  0
 47114  1  0  0  0
 47115  1  0  0  0
 48 56  1  0  0  0
 48 65  1  0  0  0
 48116  1  0  0  0
 49 50  1  0  0  0
 49 53  1  0  0  0
 49 64  1  0  0  0
 49117  1  0  0  0
 50 51  1  0  0  0
 50118  1  0  0  0
 50119  1  0  0  0
 51 52  1  0  0  0
 51120  1  0  0  0
 51121  1  0  0  0
 52122  1  0  0  0
 52123  1  0  0  0
 53 54  1  0  0  0
 54 55  2  0  0  0
 54124  1  0  0  0
 55 57  1  0  0  0
 55125  1  0  0  0
 56 69  2  0  0  0
 57 58  2  0  0  0
 57126  1  0  0  0
 58127  1  0  0  0
 59 60  1  0  0  0
 59 61  1  0  0  0
 59 62  1  0  0  0
 60128  1  0  0  0
 60129  1  0  0  0
 60130  1  0  0  0
 61131  1  0  0  0
 61132  1  0  0  0
 61133  1  0  0  0
 62134  1  0  0  0
 62135  1  0  0  0
 62136  1  0  0  0
 63 65  1  0  0  0
 63137  1  0  0  0
 63138  1  0  0  0
 63139  1  0  0  0
 64140  1  0  0  0
 65141  1  0  0  0
 68 80  1  0  0  0
 71 72  2  0  0  0
 71 73  1  0  0  0
 71142  1  0  0  0
 72 75  1  0  0  0
 72143  1  0  0  0
 73 74  2  0  0  0
 73 78  1  0  0  0
 74 79  1  0  0  0
 74 81  1  0  0  0
 75 81  2  0  0  0
 75 82  1  0  0  0
 76 77  1  0  0  0
 76 78  1  0  0  0
 76144  1  0  0  0
 76145  1  0  0  0
 77 78  1  0  0  0
 77146  1  0  0  0
 77147  1  0  0  0
 78 80  1  0  0  0
 79148  1  0  0  0
 79149  1  0  0  0
 79150  1  0  0  0
 80151  1  0  0  0
 80152  1  0  0  0
 82153  1  0  0  0
M  ISO  4   1 100  68 101  80 101  82 100
M  END
> <chiral flag>
0

> <version>
0

> <s_m_source_file>
/data/baiqing/PycharmProjects/Reinvent-master-3.2/result/LINK_invent/BTK/process_docking_weight1_custom_sum_contain_oxygen_bond_distance_aromatic_linkinvent_7_9_3/rearranged_h_0182.sdf

> <i_m_source_file_index>
45

> <r_mmod_Potential_Energy-OPLS-2005>
975.769592285156

> <r_mmod_Stretch_Energy-OPLS-2005>
487.905487060547

> <r_mmod_Bend_Energy-OPLS-2005>
424.847808837891

> <r_mmod_Torsional_Energy-OPLS-2005>
250.416152954102

> <r_mmod_Improper_Torsional_Energy-OPLS-2005>
5.9805736541748

> <r_mmod_Van_der_Waal_Energy-OPLS-2005>
126.650581359863

> <r_mmod_Electrostatic_Energy-OPLS-2005>
-496.721588134766

> <r_mmod_Solvation_Energy-OPLS-2005>
-230.342346191406

> <b_mmod_Minimization_Converged-OPLS-2005>
0

> <r_mmod_RMS_Derivative-OPLS-2005>
2.17435669898987

$$$$
45
                    3D
 Structure written by MMmdl.
164173  0  0  1  0            999 V2000
  -30.4979  -14.9068   20.4280 C   0  0  0  0  0  0
  -30.4519  -12.5575   19.4905 C   0  0  0  0  0  0
  -29.5314  -12.5553   18.2460 C   0  0  0  0  0  0
  -28.0501  -12.3657   18.6397 C   0  0  0  0  0  0
  -27.6366  -13.2497   19.8432 C   0  0  2  0  0  0
  -28.6804  -13.2012   20.9780 C   0  0  0  0  0  0
  -25.2465  -13.8184   20.5687 C   0  0  0  0  0  0
  -24.1780  -13.0409   20.9211 C   0  0  0  0  0  0
  -24.6407  -11.6903   20.8727 C   0  0  0  0  0  0
  -23.9066  -10.4286   21.0403 C   0  0  0  0  0  0
  -24.3612   -9.4193   21.9177 C   0  0  0  0  0  0
  -23.6287   -8.2222   22.0751 C   0  0  0  0  0  0
  -22.4261   -8.0270   21.3545 C   0  0  0  0  0  0
  -21.9902   -9.0252   20.4653 C   0  0  0  0  0  0
  -22.7237  -10.2127   20.3050 C   0  0  0  0  0  0
  -21.6856   -6.0719   22.5280 C   0  0  0  0  0  0
  -21.4022   -6.5621   23.8209 C   0  0  0  0  0  0
  -21.3659   -5.6769   24.9166 C   0  0  0  0  0  0
  -21.6036   -4.3034   24.7202 C   0  0  0  0  0  0
  -21.8815   -3.8130   23.4329 C   0  0  0  0  0  0
  -21.9197   -4.6951   22.3397 C   0  0  0  0  0  0
  -22.7801  -13.5214   21.1855 C   0  0  0  0  0  0
  -22.1668   -4.2140   21.0973 F   0  0  0  0  0  0
  -21.5629   -3.4518   25.7711 F   0  0  0  0  0  0
  -29.9637  -13.6251   20.4028 N   0  0  0  0  0  0
  -26.2911  -12.9446   20.3196 N   0  0  0  0  0  0
  -25.9338  -11.6567   20.5646 N   0  0  0  0  0  0
  -22.0433  -12.8238   22.0416 N   0  0  0  0  0  0
  -25.4092  -15.1928   20.4154 N   0  0  0  0  0  0
  -31.6883  -15.0416   20.1103 O   0  0  0  0  0  0
  -21.6623   -6.8873   21.4248 O   0  0  0  0  0  0
  -22.3485  -14.5513   20.6680 O   0  0  0  0  0  0
  -24.6456  -31.8475   23.1865 C   0  0  0  0  0  0
  -25.9242  -32.4698   23.8281 C   0  0  1  0  0  0
  -27.2119  -27.1564   20.1588 C   0  0  0  0  0  0
  -25.6005  -33.8484   24.2193 N   0  0  0  0  0  0
  -23.4462  -30.4669   21.5311 C   0  0  2  0  0  0
  -24.8940  -28.8925   20.1121 C   0  0  0  0  0  0
  -22.7585  -29.4571   22.4839 C   0  0  0  0  0  0
  -18.0322  -28.1402   22.8490 C   0  0  0  0  0  0
  -24.1504  -36.7221   23.2636 C   0  0  0  0  0  0
  -26.0016  -30.7316   21.3807 C   0  0  0  0  0  0
  -26.0723  -29.3431   20.7219 C   0  0  0  0  0  0
  -27.2393  -28.4944   20.7159 C   0  0  0  0  0  0
  -26.0068  -26.7890   19.5299 C   0  0  0  0  0  0
  -24.8730  -27.6305   19.4976 C   0  0  0  0  0  0
  -23.6717  -29.7933   20.1509 C   0  0  0  0  0  0
  -25.4122  -36.2983   24.0307 C   0  0  1  0  0  0
  -20.5939  -28.3717   23.1224 C   0  0  2  0  0  0
  -20.6786  -26.9420   22.5391 C   0  0  0  0  0  0
  -19.5748  -26.6372   21.5214 C   0  0  0  0  0  0
  -18.1930  -26.7940   22.1629 C   0  0  0  0  0  0
  -19.1582  -28.8879   23.2852 C   0  0  0  0  0  0
  -18.9462  -30.1472   23.8877 C   0  0  0  0  0  0
  -17.6451  -30.6597   24.0537 C   0  0  0  0  0  0
  -25.9083  -34.9395   23.5049 C   0  0  0  0  0  0
  -16.5357  -29.9067   23.6334 C   0  0  0  0  0  0
  -16.7292  -28.6484   23.0371 C   0  0  0  0  0  0
  -26.4565  -31.6577   25.0738 C   0  0  0  0  0  0
  -25.3751  -31.3777   26.1438 C   0  0  0  0  0  0
  -27.0407  -30.2964   24.6335 C   0  0  0  0  0  0
  -27.6109  -32.4363   25.7512 C   0  0  0  0  0  0
  -27.5568  -37.1762   24.8442 C   0  0  0  0  0  0
  -21.4280  -29.3051   22.3593 N   0  0  0  0  0  0
  -26.4254  -37.3713   23.9413 N   0  0  0  0  0  0
  -24.7178  -31.0364   22.0884 N   0  0  0  0  0  0
  -23.4239  -28.8137   23.2992 O   0  0  0  0  0  0
  -28.2801  -26.1981   20.1461 O   0  0  0  0  0  0
  -26.5628  -34.8901   22.4600 O   0  0  0  0  0  0
  -23.5580  -32.1321   23.7120 O   0  0  0  0  0  0
  -28.3850  -18.2038   20.9657 C   0  0  0  0  0  0
  -29.1332  -20.3986   20.4152 C   0  0  0  0  0  0
  -30.2954  -19.7355   19.9794 C   0  0  0  0  0  0
  -29.5792  -17.5074   20.5256 C   0  0  0  0  0  0
  -29.3323  -22.0135   20.5186 C   0  0  2  0  0  0
  -31.3253  -20.7694   19.5982 C   0  0  1  0  0  0
  -31.7975  -20.5595   18.1483 C   0  0  0  0  0  0
  -31.8227  -24.1220   18.8602 C   0  0  0  0  0  0
  -32.7785  -23.0021   20.9268 C   0  0  0  0  0  0
  -28.3219  -23.2472   19.9780 C   0  0  0  0  0  0
  -28.1197  -24.7601   20.6976 C   0  0  0  0  0  0
  -31.4961  -23.3016   20.1224 C   0  0  0  0  0  0
  -28.1640  -19.5866   20.9482 N   0  0  0  0  0  0
  -30.5451  -18.3588   20.0222 N   0  0  0  0  0  0
  -29.6207  -15.9886   20.6554 N   0  0  0  0  0  0
  -30.6458  -22.1128   19.7813 N   0  3  2  0  0  0
  -31.4888  -12.7265   19.1939 H   0  0  0  0  0  0
  -30.4407  -11.5865   19.9902 H   0  0  0  0  0  0
  -29.8414  -11.7800   17.5443 H   0  0  0  0  0  0
  -29.6403  -13.5052   17.7155 H   0  0  0  0  0  0
  -27.8945  -11.3146   18.8817 H   0  0  0  0  0  0
  -27.4046  -12.5836   17.7883 H   0  0  0  0  0  0
  -27.6169  -14.2694   19.4576 H   0  0  0  0  0  0
  -28.7533  -12.1929   21.3876 H   0  0  0  0  0  0
  -28.3927  -13.8469   21.8085 H   0  0  0  0  0  0
  -25.2760   -9.5665   22.4738 H   0  0  0  0  0  0
  -24.0002   -7.4597   22.7456 H   0  0  0  0  0  0
  -21.0827   -8.8774   19.8966 H   0  0  0  0  0  0
  -22.3706  -10.9650   19.6135 H   0  0  0  0  0  0
  -21.2032   -7.6129   23.9709 H   0  0  0  0  0  0
  -21.1493   -6.0495   25.9064 H   0  0  0  0  0  0
  -22.0612   -2.7596   23.2810 H   0  0  0  0  0  0
  -22.4043  -11.9915   22.4828 H   0  0  0  0  0  0
  -21.1058  -13.1293   22.2598 H   0  0  0  0  0  0
  -24.6191  -15.8266   20.5036 H   0  0  0  0  0  0
  -26.2136  -15.6214   19.9780 H   0  0  0  0  0  0
  -26.7307  -32.5297   23.1008 H   0  0  0  0  0  0
  -25.0233  -33.9588   25.0403 H   0  0  0  0  0  0
  -22.7454  -31.2912   21.3739 H   0  0  0  0  0  0
  -23.3783  -35.9531   23.3213 H   0  0  0  0  0  0
  -24.3613  -36.8941   22.2070 H   0  0  0  0  0  0
  -23.7261  -37.6389   23.6731 H   0  0  0  0  0  0
  -26.1582  -31.4958   20.6174 H   0  0  0  0  0  0
  -26.8706  -30.7769   22.0278 H   0  0  0  0  0  0
  -28.1498  -28.8440   21.1811 H   0  0  0  0  0  0
  -25.9331  -25.8159   19.0668 H   0  0  0  0  0  0
  -23.9725  -27.2856   19.0095 H   0  0  0  0  0  0
  -23.8042  -30.5638   19.3898 H   0  0  0  0  0  0
  -22.7891  -29.2319   19.8423 H   0  0  0  0  0  0
  -25.1326  -36.1750   25.0790 H   0  0  0  0  0  0
  -21.0047  -28.3284   24.1334 H   0  0  0  0  0  0
  -20.5671  -26.2331   23.3600 H   0  0  0  0  0  0
  -21.6633  -26.7406   22.1180 H   0  0  0  0  0  0
  -19.6890  -25.6253   21.1296 H   0  0  0  0  0  0
  -19.6694  -27.3129   20.6686 H   0  0  0  0  0  0
  -17.4197  -26.6697   21.4025 H   0  0  0  0  0  0
  -18.0324  -26.0101   22.9042 H   0  0  0  0  0  0
  -19.7922  -30.7306   24.2255 H   0  0  0  0  0  0
  -17.4986  -31.6281   24.5113 H   0  0  0  0  0  0
  -15.5341  -30.2942   23.7672 H   0  0  0  0  0  0
  -15.8701  -28.0777   22.7113 H   0  0  0  0  0  0
  -24.5840  -30.7266   25.7708 H   0  0  0  0  0  0
  -24.9067  -32.2965   26.4956 H   0  0  0  0  0  0
  -25.8020  -30.8817   27.0157 H   0  0  0  0  0  0
  -26.2991  -29.6700   24.1355 H   0  0  0  0  0  0
  -27.3979  -29.7300   25.4942 H   0  0  0  0  0  0
  -27.8940  -30.4163   23.9665 H   0  0  0  0  0  0
  -27.2703  -33.3698   26.1992 H   0  0  0  0  0  0
  -28.3951  -32.6857   25.0360 H   0  0  0  0  0  0
  -28.0734  -31.8561   26.5494 H   0  0  0  0  0  0
  -28.2517  -38.0130   24.7525 H   0  0  0  0  0  0
  -28.1135  -36.2640   24.6194 H   0  0  0  0  0  0
  -27.2288  -37.1321   25.8850 H   0  0  0  0  0  0
  -20.9502  -29.8771   21.6780 H   0  0  0  0  0  0
  -26.0099  -38.2765   24.1434 H   0  0  0  0  0  0
  -27.5653  -17.6254   21.3644 H   0  0  0  0  0  0
  -29.5074  -22.1917   21.5805 H   0  0  0  0  0  0
  -32.1549  -20.6205   20.2872 H   0  0  0  0  0  0
  -30.9821  -20.6924   17.4367 H   0  0  0  0  0  0
  -32.1777  -19.5453   18.0199 H   0  0  0  0  0  0
  -32.6044  -21.2408   17.8798 H   0  0  0  0  0  0
  -32.4984  -24.9431   19.0954 H   0  0  0  0  0  0
  -30.9270  -24.5741   18.4329 H   0  0  0  0  0  0
  -32.3044  -23.5231   18.0874 H   0  0  0  0  0  0
  -33.2474  -23.9256   21.2677 H   0  0  0  0  0  0
  -33.5262  -22.4806   20.3299 H   0  0  0  0  0  0
  -32.5676  -22.4144   21.8181 H   0  0  0  0  0  0
  -27.3278  -22.8009   20.0174 H   0  0  0  0  0  0
  -28.4751  -23.3896   18.9087 H   0  0  0  0  0  0
  -28.7685  -24.7540   21.5730 H   0  0  0  0  0  0
  -27.1281  -24.7302   21.1534 H   0  0  0  0  0  0
  -30.9035  -23.9578   20.7605 H   0  0  0  0  0  0
  -28.7311  -15.6296   20.9664 H   0  0  0  0  0  0
  -30.3118  -22.3020   18.8485 H   0  0  0  0  0  0
  1 25  1  0  0  0
  1 30  2  0  0  0
  1 85  1  0  0  0
  2  3  1  0  0  0
  2 25  1  0  0  0
  2 87  1  0  0  0
  2 88  1  0  0  0
  3  4  1  0  0  0
  3 89  1  0  0  0
  3 90  1  0  0  0
  4  5  1  0  0  0
  4 91  1  0  0  0
  4 92  1  0  0  0
  5  6  1  0  0  0
  5 26  1  0  0  0
  5 93  1  0  0  0
  6 25  1  0  0  0
  6 94  1  0  0  0
  6 95  1  0  0  0
  7  8  2  0  0  0
  7 26  1  0  0  0
  7 29  1  0  0  0
  8  9  1  0  0  0
  8 22  1  0  0  0
  9 10  1  0  0  0
  9 27  2  0  0  0
 10 11  2  0  0  0
 10 15  1  0  0  0
 11 12  1  0  0  0
 11 96  1  0  0  0
 12 13  2  0  0  0
 12 97  1  0  0  0
 13 14  1  0  0  0
 13 31  1  0  0  0
 14 15  2  0  0  0
 14 98  1  0  0  0
 15 99  1  0  0  0
 16 17  2  0  0  0
 16 21  1  0  0  0
 16 31  1  0  0  0
 17 18  1  0  0  0
 17100  1  0  0  0
 18 19  2  0  0  0
 18101  1  0  0  0
 19 20  1  0  0  0
 19 24  1  0  0  0
 20 21  2  0  0  0
 20102  1  0  0  0
 21 23  1  0  0  0
 22 28  1  0  0  0
 22 32  2  0  0  0
 26 27  1  0  0  0
 28103  1  0  0  0
 28104  1  0  0  0
 29105  1  0  0  0
 29106  1  0  0  0
 33 34  1  0  0  0
 33 66  1  0  0  0
 33 70  2  0  0  0
 34 36  1  0  0  0
 34 59  1  0  0  0
 34107  1  0  0  0
 35 44  2  0  0  0
 35 45  1  0  0  0
 35 68  1  0  0  0
 36 56  1  0  0  0
 36108  1  0  0  0
 37 39  1  0  0  0
 37 47  1  0  0  0
 37 66  1  0  0  0
 37109  1  0  0  0
 38 43  2  0  0  0
 38 46  1  0  0  0
 38 47  1  0  0  0
 39 64  1  0  0  0
 39 67  2  0  0  0
 40 52  1  0  0  0
 40 53  2  0  0  0
 40 58  1  0  0  0
 41110  1  0  0  0
 41111  1  0  0  0
 41112  1  0  0  0
 41 48  1  0  0  0
 42 43  1  0  0  0
 42 66  1  0  0  0
 42113  1  0  0  0
 42114  1  0  0  0
 43 44  1  0  0  0
 44115  1  0  0  0
 45 46  2  0  0  0
 45116  1  0  0  0
 46117  1  0  0  0
 47118  1  0  0  0
 47119  1  0  0  0
 48 56  1  0  0  0
 48 65  1  0  0  0
 48120  1  0  0  0
 49 50  1  0  0  0
 49 53  1  0  0  0
 49 64  1  0  0  0
 49121  1  0  0  0
 50 51  1  0  0  0
 50122  1  0  0  0
 50123  1  0  0  0
 51 52  1  0  0  0
 51124  1  0  0  0
 51125  1  0  0  0
 52126  1  0  0  0
 52127  1  0  0  0
 53 54  1  0  0  0
 54 55  2  0  0  0
 54128  1  0  0  0
 55 57  1  0  0  0
 55129  1  0  0  0
 56 69  2  0  0  0
 57 58  2  0  0  0
 57130  1  0  0  0
 58131  1  0  0  0
 59 60  1  0  0  0
 59 61  1  0  0  0
 59 62  1  0  0  0
 60132  1  0  0  0
 60133  1  0  0  0
 60134  1  0  0  0
 61135  1  0  0  0
 61136  1  0  0  0
 61137  1  0  0  0
 62138  1  0  0  0
 62139  1  0  0  0
 62140  1  0  0  0
 63 65  1  0  0  0
 63141  1  0  0  0
 63142  1  0  0  0
 63143  1  0  0  0
 64144  1  0  0  0
 65145  1  0  0  0
 68 81  1  0  0  0
 71 74  2  0  0  0
 71 83  1  0  0  0
 71146  1  0  0  0
 72 73  1  0  0  0
 72 75  1  0  0  0
 72 83  2  0  0  0
 73 76  1  0  0  0
 73 84  2  0  0  0
 74 84  1  0  0  0
 74 85  1  0  0  0
 75 80  1  0  0  0
 75 86  1  0  0  0
 75147  1  0  0  0
 76 77  1  0  0  0
 76 86  1  0  0  0
 76148  1  0  0  0
 77149  1  0  0  0
 77150  1  0  0  0
 77151  1  0  0  0
 78152  1  0  0  0
 78153  1  0  0  0
 78154  1  0  0  0
 78 82  1  0  0  0
 79 82  1  0  0  0
 79155  1  0  0  0
 79156  1  0  0  0
 79157  1  0  0  0
 80 81  1  0  0  0
 80158  1  0  0  0
 80159  1  0  0  0
 81160  1  0  0  0
 81161  1  0  0  0
 82162  1  0  0  0
 82 86  1  0  0  0
 85163  1  0  0  0
 86164  1  0  0  0
M  CHG  1  86   1
M  ISO  4   1 100  68 101  81 101  85 100
M  END
> <chiral flag>
0

> <version>
0

> <s_m_source_file>
/data/baiqing/PycharmProjects/Reinvent-master-3.2/result/LINK_invent/BTK/process_docking_weight1_custom_sum_contain_oxygen_bond_distance_aromatic_linkinvent_7_9_3/rearranged_h_0182.sdf

> <i_m_source_file_index>
46

> <r_mmod_Potential_Energy-OPLS-2005>
389.605621337891

> <r_mmod_Stretch_Energy-OPLS-2005>
224.012115478516

> <r_mmod_Bend_Energy-OPLS-2005>
333.606292724609

> <r_mmod_Torsional_Energy-OPLS-2005>
261.201477050781

> <r_mmod_Improper_Torsional_Energy-OPLS-2005>
7.56925487518311

> <r_mmod_Van_der_Waal_Energy-OPLS-2005>
125.956352233887

> <r_mmod_Electrostatic_Energy-OPLS-2005>
-265.655487060547

> <r_mmod_Solvation_Energy-OPLS-2005>
-463.968841552734

> <b_mmod_Minimization_Converged-OPLS-2005>
0

> <r_mmod_RMS_Derivative-OPLS-2005>
4.612144947052

$$$$
46
                    3D
 Structure written by MMmdl.
158167  0  0  1  0            999 V2000
  -30.7082  -14.4887   20.5378 C   0  0  0  0  0  0
  -30.4203  -12.3041   19.4350 C   0  0  0  0  0  0
  -29.5053  -12.4997   18.2092 C   0  0  0  0  0  0
  -28.0228  -12.3706   18.6158 C   0  0  0  0  0  0
  -27.6639  -13.2141   19.8712 C   0  0  2  0  0  0
  -28.7060  -13.0173   20.9974 C   0  0  0  0  0  0
  -25.2591  -13.8163   20.5677 C   0  0  0  0  0  0
  -24.1847  -13.0435   20.9173 C   0  0  0  0  0  0
  -24.6413  -11.6899   20.8714 C   0  0  0  0  0  0
  -23.9071  -10.4281   21.0385 C   0  0  0  0  0  0
  -24.3622   -9.4201   21.9168 C   0  0  0  0  0  0
  -23.6294   -8.2244   22.0749 C   0  0  0  0  0  0
  -22.4276   -8.0282   21.3546 C   0  0  0  0  0  0
  -21.9909   -9.0254   20.4648 C   0  0  0  0  0  0
  -22.7239  -10.2131   20.3044 C   0  0  0  0  0  0
  -21.6857   -6.0743   22.5272 C   0  0  0  0  0  0
  -21.4017   -6.5643   23.8214 C   0  0  0  0  0  0
  -21.3655   -5.6786   24.9165 C   0  0  0  0  0  0
  -21.6039   -4.3047   24.7216 C   0  0  0  0  0  0
  -21.8818   -3.8150   23.4328 C   0  0  0  0  0  0
  -21.9187   -4.6968   22.3392 C   0  0  0  0  0  0
  -22.7866  -13.5245   21.1801 C   0  0  0  0  0  0
  -22.1650   -4.2158   21.0965 F   0  0  0  0  0  0
  -21.5634   -3.4531   25.7725 F   0  0  0  0  0  0
  -30.0371  -13.3080   20.4407 N   0  0  0  0  0  0
  -26.3039  -12.9351   20.3341 N   0  0  0  0  0  0
  -25.9338  -11.6502   20.5744 N   0  0  0  0  0  0
  -22.0481  -12.8279   22.0364 N   0  0  0  0  0  0
  -25.4301  -15.1882   20.4073 N   0  0  0  0  0  0
  -31.8419  -14.6480   20.0773 O   0  0  0  0  0  0
  -21.6638   -6.8878   21.4238 O   0  0  0  0  0  0
  -22.3560  -14.5542   20.6618 O   0  0  0  0  0  0
  -24.6172  -31.8657   23.2087 C   0  0  0  0  0  0
  -25.9052  -32.4815   23.8389 C   0  0  1  0  0  0
  -27.2256  -27.4089   20.1110 C   0  0  0  0  0  0
  -25.5892  -33.8613   24.2317 N   0  0  0  0  0  0
  -23.4068  -30.4901   21.5490 C   0  0  2  0  0  0
  -24.8543  -28.9558   20.1129 C   0  0  0  0  0  0
  -22.7433  -29.4642   22.4970 C   0  0  0  0  0  0
  -18.0271  -28.1385   22.8484 C   0  0  0  0  0  0
  -24.1491  -36.7319   23.2635 C   0  0  0  0  0  0
  -25.9389  -30.8257   21.3666 C   0  0  0  0  0  0
  -26.0160  -29.4589   20.7127 C   0  0  0  0  0  0
  -27.2086  -28.6941   20.7060 C   0  0  0  0  0  0
  -26.0508  -26.9337   19.4905 C   0  0  0  0  0  0
  -24.8672  -27.6939   19.4961 C   0  0  0  0  0  0
  -23.6169  -29.8236   20.1632 C   0  0  0  0  0  0
  -25.4110  -36.3106   24.0335 C   0  0  1  0  0  0
  -20.5869  -28.3663   23.1319 C   0  0  2  0  0  0
  -20.6765  -26.9394   22.5421 C   0  0  0  0  0  0
  -19.5741  -26.6379   21.5222 C   0  0  0  0  0  0
  -18.1919  -26.7928   22.1627 C   0  0  0  0  0  0
  -19.1522  -28.8838   23.2898 C   0  0  0  0  0  0
  -18.9446  -30.1457   23.8895 C   0  0  0  0  0  0
  -17.6449  -30.6589   24.0563 C   0  0  0  0  0  0
  -25.9029  -34.9470   23.5124 C   0  0  0  0  0  0
  -16.5338  -29.9088   23.6333 C   0  0  0  0  0  0
  -16.7265  -28.6513   23.0333 C   0  0  0  0  0  0
  -26.4466  -31.6600   25.0727 C   0  0  0  0  0  0
  -25.3732  -31.3718   26.1483 C   0  0  0  0  0  0
  -27.0295  -30.3037   24.6121 C   0  0  0  0  0  0
  -27.6041  -32.4319   25.7489 C   0  0  0  0  0  0
  -27.5583  -37.1811   24.8459 C   0  0  0  0  0  0
  -21.4154  -29.3030   22.3726 N   0  0  0  0  0  0
  -26.4294  -37.3793   23.9406 N   0  0  0  0  0  0
  -24.6727  -31.0745   22.0995 N   0  0  0  0  0  0
  -23.4202  -28.8167   23.3003 O   0  0  0  0  0  0
  -28.3619  -26.6221   20.1194 O   0  0  0  0  0  0
  -26.5597  -34.8927   22.4689 O   0  0  0  0  0  0
  -23.5357  -32.1407   23.7462 O   0  0  0  0  0  0
  -29.8367  -24.3604   19.0118 C   0  0  0  0  0  0
  -29.0610  -24.1835   20.1776 C   0  0  0  0  0  0
  -30.6081  -22.1807   19.1712 C   0  0  0  0  0  0
  -29.8137  -21.9636   20.3348 C   0  0  0  0  0  0
  -30.9501  -17.7431   21.7660 C   0  0  0  0  0  0
  -30.3384  -16.9251   20.6478 C   0  0  2  0  0  0
  -29.5879  -18.1330   21.2400 C   0  0  2  0  0  0
  -31.5363  -21.1283   18.5866 C   0  0  0  0  0  0
  -29.8651  -20.6589   21.1711 C   0  0  0  0  0  0
  -28.1968  -25.3223   20.7455 C   0  0  0  0  0  0
  -30.6048  -23.3643   18.5088 N   0  0  0  0  0  0
  -29.0411  -22.9800   20.8271 N   0  0  0  0  0  0
  -30.0012  -15.5526   20.9716 N   0  0  0  0  0  0
  -29.6095  -19.3906   20.4280 N   0  3  0  0  0  0
  -31.4705  -12.3794   19.1467 H   0  0  0  0  0  0
  -30.2991  -11.3004   19.8450 H   0  0  0  0  0  0
  -29.7498  -11.7668   17.4372 H   0  0  0  0  0  0
  -29.6825  -13.4795   17.7650 H   0  0  0  0  0  0
  -27.8260  -11.3164   18.8091 H   0  0  0  0  0  0
  -27.3795  -12.6497   17.7803 H   0  0  0  0  0  0
  -27.7020  -14.2597   19.5635 H   0  0  0  0  0  0
  -28.6842  -11.9902   21.3648 H   0  0  0  0  0  0
  -28.4779  -13.6407   21.8625 H   0  0  0  0  0  0
  -25.2776   -9.5700   22.4737 H   0  0  0  0  0  0
  -23.9997   -7.4663   22.7491 H   0  0  0  0  0  0
  -21.0840   -8.8787   19.8980 H   0  0  0  0  0  0
  -22.3696  -10.9669   19.6154 H   0  0  0  0  0  0
  -21.2019   -7.6156   23.9714 H   0  0  0  0  0  0
  -21.1475   -6.0517   25.9067 H   0  0  0  0  0  0
  -22.0604   -2.7616   23.2820 H   0  0  0  0  0  0
  -22.4058  -11.9981   22.4851 H   0  0  0  0  0  0
  -21.1089  -13.1333   22.2486 H   0  0  0  0  0  0
  -24.6643  -15.8447   20.5180 H   0  0  0  0  0  0
  -26.2784  -15.6264   20.0731 H   0  0  0  0  0  0
  -26.7120  -32.5524   23.1152 H   0  0  0  0  0  0
  -25.0051  -33.9776   25.0468 H   0  0  0  0  0  0
  -22.6973  -31.3086   21.4106 H   0  0  0  0  0  0
  -23.3746  -35.9659   23.3300 H   0  0  0  0  0  0
  -24.3584  -36.8934   22.2050 H   0  0  0  0  0  0
  -23.7262  -37.6530   23.6651 H   0  0  0  0  0  0
  -26.0560  -31.5905   20.5978 H   0  0  0  0  0  0
  -26.8257  -30.8774   21.9868 H   0  0  0  0  0  0
  -28.1040  -29.0737   21.1774 H   0  0  0  0  0  0
  -26.0449  -25.9681   19.0043 H   0  0  0  0  0  0
  -23.9759  -27.3043   19.0239 H   0  0  0  0  0  0
  -23.7265  -30.5998   19.4052 H   0  0  0  0  0  0
  -22.7416  -29.2428   19.8646 H   0  0  0  0  0  0
  -25.1293  -36.1960   25.0828 H   0  0  0  0  0  0
  -20.9968  -28.3225   24.1440 H   0  0  0  0  0  0
  -20.5682  -26.2261   23.3608 H   0  0  0  0  0  0
  -21.6636  -26.7440   22.1209 H   0  0  0  0  0  0
  -19.6895  -25.6294   21.1241 H   0  0  0  0  0  0
  -19.6689  -27.3200   20.6764 H   0  0  0  0  0  0
  -17.4198  -26.6681   21.4023 H   0  0  0  0  0  0
  -18.0305  -26.0077   22.9028 H   0  0  0  0  0  0
  -19.7928  -30.7273   24.2252 H   0  0  0  0  0  0
  -17.5005  -31.6276   24.5163 H   0  0  0  0  0  0
  -15.5333  -30.2977   23.7675 H   0  0  0  0  0  0
  -15.8673  -28.0848   22.7012 H   0  0  0  0  0  0
  -24.5885  -30.7084   25.7831 H   0  0  0  0  0  0
  -24.8943  -32.2877   26.4954 H   0  0  0  0  0  0
  -25.8085  -30.8869   27.0229 H   0  0  0  0  0  0
  -26.2843  -29.6808   24.1156 H   0  0  0  0  0  0
  -27.4033  -29.7273   25.4595 H   0  0  0  0  0  0
  -27.8697  -30.4356   23.9300 H   0  0  0  0  0  0
  -27.2654  -33.3600   26.2111 H   0  0  0  0  0  0
  -28.3825  -32.6908   25.0298 H   0  0  0  0  0  0
  -28.0737  -31.8412   26.5368 H   0  0  0  0  0  0
  -28.2599  -38.0112   24.7512 H   0  0  0  0  0  0
  -28.1078  -36.2639   24.6268 H   0  0  0  0  0  0
  -27.2298  -37.1461   25.8862 H   0  0  0  0  0  0
  -20.9302  -29.8768   21.6971 H   0  0  0  0  0  0
  -26.0175  -38.2868   24.1405 H   0  0  0  0  0  0
  -29.8471  -25.3011   18.4820 H   0  0  0  0  0  0
  -31.8219  -18.3438   21.5070 H   0  0  0  0  0  0
  -30.9917  -17.2893   22.7542 H   0  0  0  0  0  0
  -30.7715  -17.0736   19.6586 H   0  0  0  0  0  0
  -28.7155  -18.0036   21.8811 H   0  0  0  0  0  0
  -32.1316  -20.6462   19.3614 H   0  0  0  0  0  0
  -32.2352  -21.5768   17.8803 H   0  0  0  0  0  0
  -30.9721  -20.3725   18.0401 H   0  0  0  0  0  0
  -29.1427  -20.7268   21.9852 H   0  0  0  0  0  0
  -30.8455  -20.6079   21.6450 H   0  0  0  0  0  0
  -28.4464  -25.4394   21.8012 H   0  0  0  0  0  0
  -27.1653  -24.9707   20.7301 H   0  0  0  0  0  0
  -29.0765  -15.3643   21.3322 H   0  0  0  0  0  0
  -28.7102  -19.4830   19.9823 H   0  0  0  0  0  0
  -30.2905  -19.3023   19.6958 H   0  0  0  0  0  0
  1 25  1  0  0  0
  1 30  2  0  0  0
  1 83  1  0  0  0
  2  3  1  0  0  0
  2 25  1  0  0  0
  2 85  1  0  0  0
  2 86  1  0  0  0
  3  4  1  0  0  0
  3 87  1  0  0  0
  3 88  1  0  0  0
  4  5  1  0  0  0
  4 89  1  0  0  0
  4 90  1  0  0  0
  5  6  1  0  0  0
  5 26  1  0  0  0
  5 91  1  0  0  0
  6 25  1  0  0  0
  6 92  1  0  0  0
  6 93  1  0  0  0
  7  8  2  0  0  0
  7 26  1  0  0  0
  7 29  1  0  0  0
  8  9  1  0  0  0
  8 22  1  0  0  0
  9 10  1  0  0  0
  9 27  2  0  0  0
 10 11  2  0  0  0
 10 15  1  0  0  0
 11 12  1  0  0  0
 11 94  1  0  0  0
 12 13  2  0  0  0
 12 95  1  0  0  0
 13 14  1  0  0  0
 13 31  1  0  0  0
 14 15  2  0  0  0
 14 96  1  0  0  0
 15 97  1  0  0  0
 16 17  2  0  0  0
 16 21  1  0  0  0
 16 31  1  0  0  0
 17 18  1  0  0  0
 17 98  1  0  0  0
 18 19  2  0  0  0
 18 99  1  0  0  0
 19 20  1  0  0  0
 19 24  1  0  0  0
 20 21  2  0  0  0
 20100  1  0  0  0
 21 23  1  0  0  0
 22 28  1  0  0  0
 22 32  2  0  0  0
 26 27  1  0  0  0
 28101  1  0  0  0
 28102  1  0  0  0
 29103  1  0  0  0
 29104  1  0  0  0
 33 34  1  0  0  0
 33 66  1  0  0  0
 33 70  2  0  0  0
 34 36  1  0  0  0
 34 59  1  0  0  0
 34105  1  0  0  0
 35 44  2  0  0  0
 35 45  1  0  0  0
 35 68  1  0  0  0
 36 56  1  0  0  0
 36106  1  0  0  0
 37 39  1  0  0  0
 37 47  1  0  0  0
 37 66  1  0  0  0
 37107  1  0  0  0
 38 43  2  0  0  0
 38 46  1  0  0  0
 38 47  1  0  0  0
 39 64  1  0  0  0
 39 67  2  0  0  0
 40 52  1  0  0  0
 40 53  2  0  0  0
 40 58  1  0  0  0
 41108  1  0  0  0
 41109  1  0  0  0
 41110  1  0  0  0
 41 48  1  0  0  0
 42 43  1  0  0  0
 42 66  1  0  0  0
 42111  1  0  0  0
 42112  1  0  0  0
 43 44  1  0  0  0
 44113  1  0  0  0
 45 46  2  0  0  0
 45114  1  0  0  0
 46115  1  0  0  0
 47116  1  0  0  0
 47117  1  0  0  0
 48 56  1  0  0  0
 48 65  1  0  0  0
 48118  1  0  0  0
 49 50  1  0  0  0
 49 53  1  0  0  0
 49 64  1  0  0  0
 49119  1  0  0  0
 50 51  1  0  0  0
 50120  1  0  0  0
 50121  1  0  0  0
 51 52  1  0  0  0
 51122  1  0  0  0
 51123  1  0  0  0
 52124  1  0  0  0
 52125  1  0  0  0
 53 54  1  0  0  0
 54 55  2  0  0  0
 54126  1  0  0  0
 55 57  1  0  0  0
 55127  1  0  0  0
 56 69  2  0  0  0
 57 58  2  0  0  0
 57128  1  0  0  0
 58129  1  0  0  0
 59 60  1  0  0  0
 59 61  1  0  0  0
 59 62  1  0  0  0
 60130  1  0  0  0
 60131  1  0  0  0
 60132  1  0  0  0
 61133  1  0  0  0
 61134  1  0  0  0
 61135  1  0  0  0
 62136  1  0  0  0
 62137  1  0  0  0
 62138  1  0  0  0
 63 65  1  0  0  0
 63139  1  0  0  0
 63140  1  0  0  0
 63141  1  0  0  0
 64142  1  0  0  0
 65143  1  0  0  0
 68 80  1  0  0  0
 71 72  2  0  0  0
 71 81  1  0  0  0
 71144  1  0  0  0
 72 80  1  0  0  0
 72 82  1  0  0  0
 73 74  1  0  0  0
 73 78  1  0  0  0
 73 81  2  0  0  0
 74 79  1  0  0  0
 74 82  2  0  0  0
 75 76  1  0  0  0
 75 77  1  0  0  0
 75145  1  0  0  0
 75146  1  0  0  0
 76 77  1  0  0  0
 76 83  1  0  0  0
 76147  1  0  0  0
 77 84  1  0  0  0
 77148  1  0  0  0
 78149  1  0  0  0
 78150  1  0  0  0
 78151  1  0  0  0
 79 84  1  0  0  0
 79152  1  0  0  0
 79153  1  0  0  0
 80154  1  0  0  0
 80155  1  0  0  0
 83156  1  0  0  0
 84157  1  0  0  0
 84158  1  0  0  0
M  CHG  1  84   1
M  ISO  4   1 100  68 101  80 101  83 100
M  END
> <chiral flag>
0

> <version>
0

> <s_m_source_file>
/data/baiqing/PycharmProjects/Reinvent-master-3.2/result/LINK_invent/BTK/process_docking_weight1_custom_sum_contain_oxygen_bond_distance_aromatic_linkinvent_7_9_3/rearranged_h_0182.sdf

> <i_m_source_file_index>
47

> <r_mmod_Potential_Energy-OPLS-2005>
-140.813552856445

> <r_mmod_Stretch_Energy-OPLS-2005>
47.1066474914551

> <r_mmod_Bend_Energy-OPLS-2005>
104.119453430176

> <r_mmod_Torsional_Energy-OPLS-2005>
301.7158203125

> <r_mmod_Improper_Torsional_Energy-OPLS-2005>
5.6427903175354

> <r_mmod_Van_der_Waal_Energy-OPLS-2005>
151.559555053711

> <r_mmod_Electrostatic_Energy-OPLS-2005>
-252.845291137695

> <r_mmod_Solvation_Energy-OPLS-2005>
-515.140014648438

> <b_mmod_Minimization_Converged-OPLS-2005>
0

> <r_mmod_RMS_Derivative-OPLS-2005>
2.38425898551941

$$$$
47
                    3D
 Structure written by MMmdl.
156164  0  0  1  0            999 V2000
  -30.5654  -14.9650   20.4995 C   0  0  0  0  0  0
  -30.4404  -12.6131   19.5301 C   0  0  0  0  0  0
  -29.5299  -12.5488   18.2807 C   0  0  0  0  0  0
  -28.0647  -12.3243   18.6912 C   0  0  0  0  0  0
  -27.6343  -13.2555   19.8520 C   0  0  2  0  0  0
  -28.6666  -13.2847   21.0000 C   0  0  0  0  0  0
  -25.2450  -13.8197   20.5676 C   0  0  0  0  0  0
  -24.1776  -13.0420   20.9202 C   0  0  0  0  0  0
  -24.6404  -11.6919   20.8763 C   0  0  0  0  0  0
  -23.9097  -10.4283   21.0408 C   0  0  0  0  0  0
  -24.3646   -9.4197   21.9184 C   0  0  0  0  0  0
  -23.6321   -8.2238   22.0758 C   0  0  0  0  0  0
  -22.4308   -8.0290   21.3549 C   0  0  0  0  0  0
  -21.9934   -9.0262   20.4661 C   0  0  0  0  0  0
  -22.7261  -10.2139   20.3067 C   0  0  0  0  0  0
  -21.6850   -6.0752   22.5281 C   0  0  0  0  0  0
  -21.4008   -6.5648   23.8217 C   0  0  0  0  0  0
  -21.3663   -5.6794   24.9171 C   0  0  0  0  0  0
  -21.6056   -4.3055   24.7224 C   0  0  0  0  0  0
  -21.8819   -3.8157   23.4345 C   0  0  0  0  0  0
  -21.9192   -4.6981   22.3405 C   0  0  0  0  0  0
  -22.7800  -13.5203   21.1846 C   0  0  0  0  0  0
  -22.1671   -4.2163   21.0984 F   0  0  0  0  0  0
  -21.5625   -3.4539   25.7731 F   0  0  0  0  0  0
  -29.9554  -13.7054   20.4311 N   0  0  0  0  0  0
  -26.2910  -12.9456   20.3295 N   0  0  0  0  0  0
  -25.9358  -11.6586   20.5785 N   0  0  0  0  0  0
  -22.0465  -12.8219   22.0441 N   0  0  0  0  0  0
  -25.4044  -15.1898   20.3985 N   0  0  0  0  0  0
  -31.7046  -15.0514   20.0264 O   0  0  0  0  0  0
  -21.6650   -6.8904   21.4248 O   0  0  0  0  0  0
  -22.3480  -14.5515   20.6695 O   0  0  0  0  0  0
  -24.6400  -31.8440   23.1890 C   0  0  0  0  0  0
  -25.9179  -32.4697   23.8259 C   0  0  1  0  0  0
  -27.2249  -27.1299   20.1482 C   0  0  0  0  0  0
  -25.5958  -33.8504   24.2186 N   0  0  0  0  0  0
  -23.4468  -30.4613   21.5333 C   0  0  2  0  0  0
  -24.8979  -28.8878   20.1072 C   0  0  0  0  0  0
  -22.7573  -29.4523   22.4864 C   0  0  0  0  0  0
  -18.0312  -28.1394   22.8497 C   0  0  0  0  0  0
  -24.1500  -36.7246   23.2642 C   0  0  0  0  0  0
  -26.0009  -30.7150   21.3884 C   0  0  0  0  0  0
  -26.0732  -29.3254   20.7300 C   0  0  0  0  0  0
  -27.2303  -28.4602   20.7380 C   0  0  0  0  0  0
  -26.0254  -26.7974   19.4772 C   0  0  0  0  0  0
  -24.8874  -27.6385   19.4660 C   0  0  0  0  0  0
  -23.6739  -29.7891   20.1532 C   0  0  0  0  0  0
  -25.4138  -36.3032   24.0320 C   0  0  1  0  0  0
  -20.5928  -28.3699   23.1264 C   0  0  2  0  0  0
  -20.6809  -26.9404   22.5427 C   0  0  0  0  0  0
  -19.5762  -26.6377   21.5248 C   0  0  0  0  0  0
  -18.1939  -26.7933   22.1647 C   0  0  0  0  0  0
  -19.1576  -28.8868   23.2865 C   0  0  0  0  0  0
  -18.9470  -30.1471   23.8871 C   0  0  0  0  0  0
  -17.6467  -30.6588   24.0570 C   0  0  0  0  0  0
  -25.9078  -34.9410   23.5064 C   0  0  0  0  0  0
  -16.5360  -29.9077   23.6357 C   0  0  0  0  0  0
  -16.7301  -28.6509   23.0350 C   0  0  0  0  0  0
  -26.4513  -31.6566   25.0693 C   0  0  0  0  0  0
  -25.3725  -31.3734   26.1403 C   0  0  0  0  0  0
  -27.0372  -30.2968   24.6260 C   0  0  0  0  0  0
  -27.6050  -32.4324   25.7477 C   0  0  0  0  0  0
  -27.5584  -37.1767   24.8463 C   0  0  0  0  0  0
  -21.4265  -29.3019   22.3620 N   0  0  0  0  0  0
  -26.4293  -37.3759   23.9414 N   0  0  0  0  0  0
  -24.7155  -31.0281   22.0921 N   0  0  0  0  0  0
  -23.4226  -28.8072   23.3010 O   0  0  0  0  0  0
  -28.3034  -26.1733   20.2662 O   0  0  0  0  0  0
  -26.5651  -34.8897   22.4623 O   0  0  0  0  0  0
  -23.5517  -32.1323   23.7114 O   0  0  0  0  0  0
  -28.7882  -17.0831   22.9807 C   0  0  0  0  0  0
  -28.0845  -17.4854   21.6945 C   0  0  0  0  0  0
  -29.9288  -16.1571   22.5434 C   0  0  0  0  0  0
  -29.1848  -17.4554   20.6238 C   0  0  1  0  0  0
  -29.7794  -19.0447   20.4970 C   0  0  0  0  0  0
  -28.8350  -20.4612   20.6487 C   0  0  0  0  0  0
  -28.5989  -23.2742   20.6941 C   0  0  0  0  0  0
  -28.3420  -24.6817   19.7869 C   0  0  0  0  0  0
  -29.9383  -16.1207   21.0751 N   0  0  0  0  0  0
  -29.1998  -21.9127   20.1121 N   0  3  0  0  0  0
  -31.4742  -12.7645   19.2197 H   0  0  0  0  0  0
  -30.4441  -11.6603   20.0597 H   0  0  0  0  0  0
  -29.8596  -11.7503   17.6154 H   0  0  0  0  0  0
  -29.6205  -13.4765   17.7125 H   0  0  0  0  0  0
  -27.9670  -11.2829   19.0016 H   0  0  0  0  0  0
  -27.4026  -12.4560   17.8353 H   0  0  0  0  0  0
  -27.6020  -14.2608   19.4322 H   0  0  0  0  0  0
  -28.7467  -12.3106   21.4828 H   0  0  0  0  0  0
  -28.3330  -13.9790   21.7705 H   0  0  0  0  0  0
  -25.2791   -9.5669   22.4765 H   0  0  0  0  0  0
  -24.0031   -7.4604   22.7484 H   0  0  0  0  0  0
  -21.0861   -8.8790   19.8970 H   0  0  0  0  0  0
  -22.3716  -10.9685   19.6199 H   0  0  0  0  0  0
  -21.2008   -7.6147   23.9723 H   0  0  0  0  0  0
  -21.1478   -6.0517   25.9067 H   0  0  0  0  0  0
  -22.0599   -2.7621   23.2826 H   0  0  0  0  0  0
  -22.4092  -11.9912   22.4860 H   0  0  0  0  0  0
  -21.1090  -13.1236   22.2650 H   0  0  0  0  0  0
  -24.6384  -15.8445   20.5182 H   0  0  0  0  0  0
  -26.2531  -15.6241   20.0572 H   0  0  0  0  0  0
  -26.7242  -32.5314   23.0985 H   0  0  0  0  0  0
  -25.0122  -33.9623   25.0343 H   0  0  0  0  0  0
  -22.7502  -31.2889   21.3795 H   0  0  0  0  0  0
  -23.3778  -35.9556   23.3272 H   0  0  0  0  0  0
  -24.3604  -36.8920   22.2066 H   0  0  0  0  0  0
  -23.7218  -37.6421   23.6690 H   0  0  0  0  0  0
  -26.1561  -31.4717   20.6191 H   0  0  0  0  0  0
  -26.8732  -30.7710   22.0287 H   0  0  0  0  0  0
  -28.1228  -28.7851   21.2546 H   0  0  0  0  0  0
  -25.9126  -25.8473   18.9804 H   0  0  0  0  0  0
  -23.9894  -27.3048   18.9645 H   0  0  0  0  0  0
  -23.8027  -30.5643   19.3970 H   0  0  0  0  0  0
  -22.7886  -29.2301   19.8467 H   0  0  0  0  0  0
  -25.1308  -36.1876   25.0814 H   0  0  0  0  0  0
  -21.0010  -28.3282   24.1387 H   0  0  0  0  0  0
  -20.5745  -26.2285   23.3624 H   0  0  0  0  0  0
  -21.6652  -26.7447   22.1164 H   0  0  0  0  0  0
  -19.6913  -25.6286   21.1256 H   0  0  0  0  0  0
  -19.6691  -27.3211   20.6784 H   0  0  0  0  0  0
  -17.4206  -26.6698   21.4043 H   0  0  0  0  0  0
  -18.0309  -26.0085   22.9041 H   0  0  0  0  0  0
  -19.7941  -30.7315   24.2195 H   0  0  0  0  0  0
  -17.5014  -31.6269   24.5160 H   0  0  0  0  0  0
  -15.5349  -30.2955   23.7704 H   0  0  0  0  0  0
  -15.8706  -28.0841   22.7028 H   0  0  0  0  0  0
  -24.5900  -30.7085   25.7733 H   0  0  0  0  0  0
  -24.8895  -32.2900   26.4792 H   0  0  0  0  0  0
  -25.8021  -30.8938   27.0212 H   0  0  0  0  0  0
  -26.2979  -29.6690   24.1270 H   0  0  0  0  0  0
  -27.4011  -29.7258   25.4811 H   0  0  0  0  0  0
  -27.8887  -30.4209   23.9569 H   0  0  0  0  0  0
  -27.2656  -33.3655   26.1978 H   0  0  0  0  0  0
  -28.3887  -32.6836   25.0325 H   0  0  0  0  0  0
  -28.0679  -31.8498   26.5447 H   0  0  0  0  0  0
  -28.2557  -38.0103   24.7557 H   0  0  0  0  0  0
  -28.1115  -36.2625   24.6228 H   0  0  0  0  0  0
  -27.2296  -37.1359   25.8864 H   0  0  0  0  0  0
  -20.9450  -29.8736   21.6825 H   0  0  0  0  0  0
  -26.0152  -38.2821   24.1459 H   0  0  0  0  0  0
  -28.1021  -16.5937   23.6732 H   0  0  0  0  0  0
  -29.1851  -17.9639   23.4885 H   0  0  0  0  0  0
  -27.5590  -18.4344   21.7926 H   0  0  0  0  0  0
  -27.3253  -16.7393   21.4668 H   0  0  0  0  0  0
  -29.8019  -15.1653   22.9781 H   0  0  0  0  0  0
  -30.8859  -16.5383   22.9023 H   0  0  0  0  0  0
  -28.7106  -17.2357   19.6657 H   0  0  0  0  0  0
  -30.2830  -19.1032   19.5318 H   0  0  0  0  0  0
  -30.5841  -19.1440   21.2284 H   0  0  0  0  0  0
  -28.6414  -20.5873   21.7146 H   0  0  0  0  0  0
  -27.8584  -20.2486   20.2143 H   0  0  0  0  0  0
  -27.6603  -23.0316   21.1922 H   0  0  0  0  0  0
  -29.2753  -23.5444   21.5062 H   0  0  0  0  0  0
  -27.4706  -24.4843   19.1682 H   0  0  0  0  0  0
  -29.1563  -24.6960   19.0607 H   0  0  0  0  0  0
  -29.0004  -21.8994   19.1250 H   0  0  0  0  0  0
  -30.2007  -22.0063   20.1762 H   0  0  0  0  0  0
  1 25  1  0  0  0
  1 30  2  0  0  0
  1 79  1  0  0  0
  2  3  1  0  0  0
  2 25  1  0  0  0
  2 81  1  0  0  0
  2 82  1  0  0  0
  3  4  1  0  0  0
  3 83  1  0  0  0
  3 84  1  0  0  0
  4  5  1  0  0  0
  4 85  1  0  0  0
  4 86  1  0  0  0
  5  6  1  0  0  0
  5 26  1  0  0  0
  5 87  1  0  0  0
  6 25  1  0  0  0
  6 88  1  0  0  0
  6 89  1  0  0  0
  7  8  2  0  0  0
  7 26  1  0  0  0
  7 29  1  0  0  0
  8  9  1  0  0  0
  8 22  1  0  0  0
  9 10  1  0  0  0
  9 27  2  0  0  0
 10 11  2  0  0  0
 10 15  1  0  0  0
 11 12  1  0  0  0
 11 90  1  0  0  0
 12 13  2  0  0  0
 12 91  1  0  0  0
 13 14  1  0  0  0
 13 31  1  0  0  0
 14 15  2  0  0  0
 14 92  1  0  0  0
 15 93  1  0  0  0
 16 17  2  0  0  0
 16 21  1  0  0  0
 16 31  1  0  0  0
 17 18  1  0  0  0
 17 94  1  0  0  0
 18 19  2  0  0  0
 18 95  1  0  0  0
 19 20  1  0  0  0
 19 24  1  0  0  0
 20 21  2  0  0  0
 20 96  1  0  0  0
 21 23  1  0  0  0
 22 28  1  0  0  0
 22 32  2  0  0  0
 26 27  1  0  0  0
 28 97  1  0  0  0
 28 98  1  0  0  0
 29 99  1  0  0  0
 29100  1  0  0  0
 33 34  1  0  0  0
 33 66  1  0  0  0
 33 70  2  0  0  0
 34 36  1  0  0  0
 34 59  1  0  0  0
 34101  1  0  0  0
 35 44  2  0  0  0
 35 45  1  0  0  0
 35 68  1  0  0  0
 36 56  1  0  0  0
 36102  1  0  0  0
 37 39  1  0  0  0
 37 47  1  0  0  0
 37 66  1  0  0  0
 37103  1  0  0  0
 38 43  2  0  0  0
 38 46  1  0  0  0
 38 47  1  0  0  0
 39 64  1  0  0  0
 39 67  2  0  0  0
 40 52  1  0  0  0
 40 53  2  0  0  0
 40 58  1  0  0  0
 41104  1  0  0  0
 41105  1  0  0  0
 41106  1  0  0  0
 41 48  1  0  0  0
 42 43  1  0  0  0
 42 66  1  0  0  0
 42107  1  0  0  0
 42108  1  0  0  0
 43 44  1  0  0  0
 44109  1  0  0  0
 45 46  2  0  0  0
 45110  1  0  0  0
 46111  1  0  0  0
 47112  1  0  0  0
 47113  1  0  0  0
 48 56  1  0  0  0
 48 65  1  0  0  0
 48114  1  0  0  0
 49 50  1  0  0  0
 49 53  1  0  0  0
 49 64  1  0  0  0
 49115  1  0  0  0
 50 51  1  0  0  0
 50116  1  0  0  0
 50117  1  0  0  0
 51 52  1  0  0  0
 51118  1  0  0  0
 51119  1  0  0  0
 52120  1  0  0  0
 52121  1  0  0  0
 53 54  1  0  0  0
 54 55  2  0  0  0
 54122  1  0  0  0
 55 57  1  0  0  0
 55123  1  0  0  0
 56 69  2  0  0  0
 57 58  2  0  0  0
 57124  1  0  0  0
 58125  1  0  0  0
 59 60  1  0  0  0
 59 61  1  0  0  0
 59 62  1  0  0  0
 60126  1  0  0  0
 60127  1  0  0  0
 60128  1  0  0  0
 61129  1  0  0  0
 61130  1  0  0  0
 61131  1  0  0  0
 62132  1  0  0  0
 62133  1  0  0  0
 62134  1  0  0  0
 63 65  1  0  0  0
 63135  1  0  0  0
 63136  1  0  0  0
 63137  1  0  0  0
 64138  1  0  0  0
 65139  1  0  0  0
 68 78  1  0  0  0
 71 72  1  0  0  0
 71 73  1  0  0  0
 71140  1  0  0  0
 71141  1  0  0  0
 72 74  1  0  0  0
 72142  1  0  0  0
 72143  1  0  0  0
 73 79  1  0  0  0
 73144  1  0  0  0
 73145  1  0  0  0
 74 75  1  0  0  0
 74 79  1  0  0  0
 74146  1  0  0  0
 75 76  1  0  0  0
 75147  1  0  0  0
 75148  1  0  0  0
 76 80  1  0  0  0
 76149  1  0  0  0
 76150  1  0  0  0
 77 78  1  0  0  0
 77 80  1  0  0  0
 77151  1  0  0  0
 77152  1  0  0  0
 78153  1  0  0  0
 78154  1  0  0  0
 80155  1  0  0  0
 80156  1  0  0  0
M  CHG  1  80   1
M  ISO  4   1 100  68 101  78 101  79 100
M  END
> <chiral flag>
0

> <version>
0

> <s_m_source_file>
/data/baiqing/PycharmProjects/Reinvent-master-3.2/result/LINK_invent/BTK/process_docking_weight1_custom_sum_contain_oxygen_bond_distance_aromatic_linkinvent_7_9_3/rearranged_h_0182.sdf

> <i_m_source_file_index>
48

> <r_mmod_Potential_Energy-OPLS-2005>
748.124084472656

> <r_mmod_Stretch_Energy-OPLS-2005>
298.18896484375

> <r_mmod_Bend_Energy-OPLS-2005>
345.956695556641

> <r_mmod_Torsional_Energy-OPLS-2005>
384.813110351562

> <r_mmod_Improper_Torsional_Energy-OPLS-2005>
1.7129670381546

> <r_mmod_Van_der_Waal_Energy-OPLS-2005>
108.474510192871

> <r_mmod_Electrostatic_Energy-OPLS-2005>
-138.363433837891

> <r_mmod_Solvation_Energy-OPLS-2005>
-450.158142089844

> <b_mmod_Minimization_Converged-OPLS-2005>
0

> <r_mmod_RMS_Derivative-OPLS-2005>
3.65916347503662

$$$$
48
                    3D
 Structure written by MMmdl.
152160  0  0  1  0            999 V2000
  -30.6011  -14.7841   20.4534 C   0  0  0  0  0  0
  -30.4388  -12.4783   19.4982 C   0  0  0  0  0  0
  -29.5216  -12.5006   18.2521 C   0  0  0  0  0  0
  -28.0467  -12.3234   18.6615 C   0  0  0  0  0  0
  -27.6414  -13.2338   19.8510 C   0  0  2  0  0  0
  -28.6810  -13.1822   20.9921 C   0  0  0  0  0  0
  -25.2499  -13.8206   20.5686 C   0  0  0  0  0  0
  -24.1783  -13.0459   20.9230 C   0  0  0  0  0  0
  -24.6376  -11.6936   20.8773 C   0  0  0  0  0  0
  -23.9038  -10.4314   21.0407 C   0  0  0  0  0  0
  -24.3592   -9.4223   21.9172 C   0  0  0  0  0  0
  -23.6285   -8.2250   22.0734 C   0  0  0  0  0  0
  -22.4266   -8.0276   21.3533 C   0  0  0  0  0  0
  -21.9886   -9.0245   20.4633 C   0  0  0  0  0  0
  -22.7202  -10.2141   20.3050 C   0  0  0  0  0  0
  -21.6860   -6.0721   22.5274 C   0  0  0  0  0  0
  -21.4013   -6.5622   23.8205 C   0  0  0  0  0  0
  -21.3667   -5.6779   24.9167 C   0  0  0  0  0  0
  -21.6055   -4.3046   24.7219 C   0  0  0  0  0  0
  -21.8820   -3.8131   23.4342 C   0  0  0  0  0  0
  -21.9196   -4.6949   22.3396 C   0  0  0  0  0  0
  -22.7804  -13.5250   21.1893 C   0  0  0  0  0  0
  -22.1664   -4.2134   21.0980 F   0  0  0  0  0  0
  -21.5645   -3.4534   25.7736 F   0  0  0  0  0  0
  -29.9833  -13.5490   20.4193 N   0  0  0  0  0  0
  -26.2920  -12.9402   20.3250 N   0  0  0  0  0  0
  -25.9300  -11.6550   20.5722 N   0  0  0  0  0  0
  -22.0419  -12.8264   22.0446 N   0  0  0  0  0  0
  -25.4216  -15.1920   20.4101 N   0  0  0  0  0  0
  -31.7763  -14.8805   20.0932 O   0  0  0  0  0  0
  -21.6638   -6.8865   21.4231 O   0  0  0  0  0  0
  -22.3503  -14.5539   20.6712 O   0  0  0  0  0  0
  -24.6318  -31.8518   23.1968 C   0  0  0  0  0  0
  -25.9139  -32.4751   23.8312 C   0  0  1  0  0  0
  -27.2212  -27.2310   20.1329 C   0  0  0  0  0  0
  -25.5955  -33.8557   24.2238 N   0  0  0  0  0  0
  -23.4306  -30.4735   21.5387 C   0  0  2  0  0  0
  -24.8814  -28.9150   20.1090 C   0  0  0  0  0  0
  -22.7504  -29.4572   22.4880 C   0  0  0  0  0  0
  -18.0281  -28.1388   22.8452 C   0  0  0  0  0  0
  -24.1489  -36.7277   23.2636 C   0  0  0  0  0  0
  -25.9782  -30.7553   21.3819 C   0  0  0  0  0  0
  -26.0521  -29.3749   20.7246 C   0  0  0  0  0  0
  -27.2231  -28.5444   20.7248 C   0  0  0  0  0  0
  -26.0286  -26.8568   19.4701 C   0  0  0  0  0  0
  -24.8776  -27.6673   19.4676 C   0  0  0  0  0  0
  -23.6542  -29.8050   20.1554 C   0  0  0  0  0  0
  -25.4125  -36.3060   24.0302 C   0  0  1  0  0  0
  -20.5886  -28.3695   23.1238 C   0  0  2  0  0  0
  -20.6773  -26.9412   22.5389 C   0  0  0  0  0  0
  -19.5763  -26.6374   21.5180 C   0  0  0  0  0  0
  -18.1936  -26.7919   22.1598 C   0  0  0  0  0  0
  -19.1538  -28.8856   23.2835 C   0  0  0  0  0  0
  -18.9479  -30.1457   23.8847 C   0  0  0  0  0  0
  -17.6486  -30.6587   24.0557 C   0  0  0  0  0  0
  -25.9061  -34.9440   23.5066 C   0  0  0  0  0  0
  -16.5363  -29.9093   23.6343 C   0  0  0  0  0  0
  -16.7271  -28.6518   23.0330 C   0  0  0  0  0  0
  -26.4524  -31.6589   25.0716 C   0  0  0  0  0  0
  -25.3751  -31.3762   26.1445 C   0  0  0  0  0  0
  -27.0381  -30.3004   24.6211 C   0  0  0  0  0  0
  -27.6052  -32.4352   25.7512 C   0  0  0  0  0  0
  -27.5561  -37.1797   24.8459 C   0  0  0  0  0  0
  -21.4197  -29.3034   22.3635 N   0  0  0  0  0  0
  -26.4285  -37.3767   23.9391 N   0  0  0  0  0  0
  -24.6990  -31.0465   22.0954 N   0  0  0  0  0  0
  -23.4195  -28.8082   23.2970 O   0  0  0  0  0  0
  -28.3040  -26.3102   20.2152 O   0  0  0  0  0  0
  -26.5627  -34.8917   22.4628 O   0  0  0  0  0  0
  -23.5459  -32.1339   23.7258 O   0  0  0  0  0  0
  -29.7938  -19.8977   22.6799 C   0  0  0  0  0  0
  -29.7156  -18.6959   20.7968 C   0  0  0  0  0  0
  -29.2638  -20.9737   20.7953 C   0  0  0  0  0  0
  -30.0715  -19.9490   24.1739 C   0  0  0  0  0  0
  -30.0738  -17.3263   20.0572 C   0  0  0  0  0  0
  -29.0824  -23.6579   20.5484 C   0  0  0  0  0  0
  -28.0788  -24.8248   19.9922 C   0  0  0  0  0  0
  -29.9164  -18.6985   22.1088 N   0  0  0  0  0  0
  -29.4876  -21.0609   22.0954 N   0  0  0  0  0  0
  -29.3615  -19.8159   20.0884 N   0  0  0  0  0  0
  -28.8735  -22.1958   20.1398 N   0  0  0  0  0  0
  -29.8347  -15.9272   20.6470 N   0  0  0  0  0  0
  -31.4815  -12.6031   19.2050 H   0  0  0  0  0  0
  -30.3890  -11.5103   20.0001 H   0  0  0  0  0  0
  -29.8181  -11.7071   17.5632 H   0  0  0  0  0  0
  -29.6442  -13.4405   17.7098 H   0  0  0  0  0  0
  -27.9226  -11.2807   18.9513 H   0  0  0  0  0  0
  -27.3876  -12.4896   17.8070 H   0  0  0  0  0  0
  -27.6344  -14.2493   19.4571 H   0  0  0  0  0  0
  -28.7217  -12.1846   21.4317 H   0  0  0  0  0  0
  -28.4021  -13.8610   21.7983 H   0  0  0  0  0  0
  -25.2735   -9.5735   22.4738 H   0  0  0  0  0  0
  -24.0020   -7.4646   22.7449 H   0  0  0  0  0  0
  -21.0812   -8.8758   19.8936 H   0  0  0  0  0  0
  -22.3639  -10.9678   19.6165 H   0  0  0  0  0  0
  -21.1984   -7.6132   23.9716 H   0  0  0  0  0  0
  -21.1494   -6.0500   25.9083 H   0  0  0  0  0  0
  -22.0585   -2.7596   23.2845 H   0  0  0  0  0  0
  -22.4010  -11.9964   22.4927 H   0  0  0  0  0  0
  -21.1014  -13.1275   22.2558 H   0  0  0  0  0  0
  -24.6539  -15.8472   20.5102 H   0  0  0  0  0  0
  -26.2548  -15.6185   20.0261 H   0  0  0  0  0  0
  -26.7176  -32.5391   23.1029 H   0  0  0  0  0  0
  -25.0158  -33.9717   25.0421 H   0  0  0  0  0  0
  -22.7246  -31.2926   21.3891 H   0  0  0  0  0  0
  -23.3747  -35.9612   23.3323 H   0  0  0  0  0  0
  -24.3546  -36.8889   22.2038 H   0  0  0  0  0  0
  -23.7255  -37.6489   23.6658 H   0  0  0  0  0  0
  -26.1148  -31.5129   20.6096 H   0  0  0  0  0  0
  -26.8577  -30.8100   22.0122 H   0  0  0  0  0  0
  -28.1162  -28.8903   21.2270 H   0  0  0  0  0  0
  -25.9561  -25.9087   18.9587 H   0  0  0  0  0  0
  -23.9858  -27.3175   18.9665 H   0  0  0  0  0  0
  -23.7825  -30.5810   19.4001 H   0  0  0  0  0  0
  -22.7723  -29.2379   19.8497 H   0  0  0  0  0  0
  -25.1307  -36.1894   25.0787 H   0  0  0  0  0  0
  -20.9957  -28.3288   24.1369 H   0  0  0  0  0  0
  -20.5638  -26.2307   23.3594 H   0  0  0  0  0  0
  -21.6643  -26.7413   22.1204 H   0  0  0  0  0  0
  -19.6940  -25.6276   21.1226 H   0  0  0  0  0  0
  -19.6727  -27.3160   20.6687 H   0  0  0  0  0  0
  -17.4195  -26.6604   21.4019 H   0  0  0  0  0  0
  -18.0396  -26.0083   22.9022 H   0  0  0  0  0  0
  -19.7965  -30.7277   24.2180 H   0  0  0  0  0  0
  -17.5056  -31.6259   24.5177 H   0  0  0  0  0  0
  -15.5368  -30.2989   23.7712 H   0  0  0  0  0  0
  -15.8659  -28.0853   22.7044 H   0  0  0  0  0  0
  -24.5913  -30.7120   25.7804 H   0  0  0  0  0  0
  -24.8974  -32.2939   26.4871 H   0  0  0  0  0  0
  -25.8087  -30.8953   27.0218 H   0  0  0  0  0  0
  -26.2972  -29.6756   24.1218 H   0  0  0  0  0  0
  -27.4036  -29.7278   25.4743 H   0  0  0  0  0  0
  -27.8852  -30.4292   23.9476 H   0  0  0  0  0  0
  -27.2627  -33.3642   26.2087 H   0  0  0  0  0  0
  -28.3892  -32.6933   25.0383 H   0  0  0  0  0  0
  -28.0687  -31.8481   26.5455 H   0  0  0  0  0  0
  -28.2588  -38.0088   24.7487 H   0  0  0  0  0  0
  -28.1046  -36.2609   24.6315 H   0  0  0  0  0  0
  -27.2257  -37.1471   25.8860 H   0  0  0  0  0  0
  -20.9380  -29.8799   21.6876 H   0  0  0  0  0  0
  -26.0153  -38.2820   24.1454 H   0  0  0  0  0  0
  -30.9991  -20.4861   24.3708 H   0  0  0  0  0  0
  -30.1641  -18.9510   24.6089 H   0  0  0  0  0  0
  -29.2673  -20.4581   24.7025 H   0  0  0  0  0  0
  -31.1309  -17.4030   19.7962 H   0  0  0  0  0  0
  -29.5474  -17.3509   19.1014 H   0  0  0  0  0  0
  -29.1152  -23.7087   21.6368 H   0  0  0  0  0  0
  -30.0884  -23.9176   20.2158 H   0  0  0  0  0  0
  -27.0997  -24.5728   20.3993 H   0  0  0  0  0  0
  -27.9924  -24.6967   18.9108 H   0  0  0  0  0  0
  -28.6689  -22.0645   19.1559 H   0  0  0  0  0  0
  -28.9125  -15.7909   21.0271 H   0  0  0  0  0  0
  1 25  1  0  0  0
  1 30  2  0  0  0
  1 82  1  0  0  0
  2  3  1  0  0  0
  2 25  1  0  0  0
  2 83  1  0  0  0
  2 84  1  0  0  0
  3  4  1  0  0  0
  3 85  1  0  0  0
  3 86  1  0  0  0
  4  5  1  0  0  0
  4 87  1  0  0  0
  4 88  1  0  0  0
  5  6  1  0  0  0
  5 26  1  0  0  0
  5 89  1  0  0  0
  6 25  1  0  0  0
  6 90  1  0  0  0
  6 91  1  0  0  0
  7  8  2  0  0  0
  7 26  1  0  0  0
  7 29  1  0  0  0
  8  9  1  0  0  0
  8 22  1  0  0  0
  9 10  1  0  0  0
  9 27  2  0  0  0
 10 11  2  0  0  0
 10 15  1  0  0  0
 11 12  1  0  0  0
 11 92  1  0  0  0
 12 13  2  0  0  0
 12 93  1  0  0  0
 13 14  1  0  0  0
 13 31  1  0  0  0
 14 15  2  0  0  0
 14 94  1  0  0  0
 15 95  1  0  0  0
 16 17  2  0  0  0
 16 21  1  0  0  0
 16 31  1  0  0  0
 17 18  1  0  0  0
 17 96  1  0  0  0
 18 19  2  0  0  0
 18 97  1  0  0  0
 19 20  1  0  0  0
 19 24  1  0  0  0
 20 21  2  0  0  0
 20 98  1  0  0  0
 21 23  1  0  0  0
 22 28  1  0  0  0
 22 32  2  0  0  0
 26 27  1  0  0  0
 28 99  1  0  0  0
 28100  1  0  0  0
 29101  1  0  0  0
 29102  1  0  0  0
 33 34  1  0  0  0
 33 66  1  0  0  0
 33 70  2  0  0  0
 34 36  1  0  0  0
 34 59  1  0  0  0
 34103  1  0  0  0
 35 44  2  0  0  0
 35 45  1  0  0  0
 35 68  1  0  0  0
 36 56  1  0  0  0
 36104  1  0  0  0
 37 39  1  0  0  0
 37 47  1  0  0  0
 37 66  1  0  0  0
 37105  1  0  0  0
 38 43  2  0  0  0
 38 46  1  0  0  0
 38 47  1  0  0  0
 39 64  1  0  0  0
 39 67  2  0  0  0
 40 52  1  0  0  0
 40 53  2  0  0  0
 40 58  1  0  0  0
 41106  1  0  0  0
 41107  1  0  0  0
 41108  1  0  0  0
 41 48  1  0  0  0
 42 43  1  0  0  0
 42 66  1  0  0  0
 42109  1  0  0  0
 42110  1  0  0  0
 43 44  1  0  0  0
 44111  1  0  0  0
 45 46  2  0  0  0
 45112  1  0  0  0
 46113  1  0  0  0
 47114  1  0  0  0
 47115  1  0  0  0
 48 56  1  0  0  0
 48 65  1  0  0  0
 48116  1  0  0  0
 49 50  1  0  0  0
 49 53  1  0  0  0
 49 64  1  0  0  0
 49117  1  0  0  0
 50 51  1  0  0  0
 50118  1  0  0  0
 50119  1  0  0  0
 51 52  1  0  0  0
 51120  1  0  0  0
 51121  1  0  0  0
 52122  1  0  0  0
 52123  1  0  0  0
 53 54  1  0  0  0
 54 55  2  0  0  0
 54124  1  0  0  0
 55 57  1  0  0  0
 55125  1  0  0  0
 56 69  2  0  0  0
 57 58  2  0  0  0
 57126  1  0  0  0
 58127  1  0  0  0
 59 60  1  0  0  0
 59 61  1  0  0  0
 59 62  1  0  0  0
 60128  1  0  0  0
 60129  1  0  0  0
 60130  1  0  0  0
 61131  1  0  0  0
 61132  1  0  0  0
 61133  1  0  0  0
 62134  1  0  0  0
 62135  1  0  0  0
 62136  1  0  0  0
 63 65  1  0  0  0
 63137  1  0  0  0
 63138  1  0  0  0
 63139  1  0  0  0
 64140  1  0  0  0
 65141  1  0  0  0
 68 77  1  0  0  0
 71 74  1  0  0  0
 71 78  2  0  0  0
 71 79  1  0  0  0
 72 75  1  0  0  0
 72 78  1  0  0  0
 72 80  2  0  0  0
 73 79  2  0  0  0
 73 80  1  0  0  0
 73 81  1  0  0  0
 74142  1  0  0  0
 74143  1  0  0  0
 74144  1  0  0  0
 75 82  1  0  0  0
 75145  1  0  0  0
 75146  1  0  0  0
 76 77  1  0  0  0
 76 81  1  0  0  0
 76147  1  0  0  0
 76148  1  0  0  0
 77149  1  0  0  0
 77150  1  0  0  0
 81151  1  0  0  0
 82152  1  0  0  0
M  ISO  4   1 100  68 101  77 101  82 100
M  END
> <chiral flag>
0

> <version>
0

> <s_m_source_file>
/data/baiqing/PycharmProjects/Reinvent-master-3.2/result/LINK_invent/BTK/process_docking_weight1_custom_sum_contain_oxygen_bond_distance_aromatic_linkinvent_7_9_3/rearranged_h_0182.sdf

> <i_m_source_file_index>
49

> <r_mmod_Potential_Energy-OPLS-2005>
-817.855895996094

> <r_mmod_Stretch_Energy-OPLS-2005>
130.623931884766

> <r_mmod_Bend_Energy-OPLS-2005>
174.19775390625

> <r_mmod_Torsional_Energy-OPLS-2005>
200.458526611328

> <r_mmod_Improper_Torsional_Energy-OPLS-2005>
7.97117376327515

> <r_mmod_Van_der_Waal_Energy-OPLS-2005>
156.867980957031

> <r_mmod_Electrostatic_Energy-OPLS-2005>
-1338.88549804688

> <r_mmod_Solvation_Energy-OPLS-2005>
-254.249572753906

> <b_mmod_Minimization_Converged-OPLS-2005>
0

> <r_mmod_RMS_Derivative-OPLS-2005>
3.51107454299927

$$$$
49
                    3D
 Structure written by MMmdl.
148156  0  0  1  0            999 V2000
  -30.2880  -15.6316   20.3280 C   0  0  0  0  0  0
  -30.4294  -13.0726   19.5481 C   0  0  0  0  0  0
  -29.5548  -12.6595   18.3281 C   0  0  0  0  0  0
  -28.1247  -12.3056   18.7646 C   0  0  0  0  0  0
  -27.5987  -13.3080   19.8165 C   0  0  2  0  0  0
  -28.6142  -13.6266   20.9401 C   0  0  0  0  0  0
  -25.2327  -13.8283   20.5783 C   0  0  0  0  0  0
  -24.1722  -13.0436   20.9300 C   0  0  0  0  0  0
  -24.6416  -11.6946   20.8766 C   0  0  0  0  0  0
  -23.9115  -10.4294   21.0398 C   0  0  0  0  0  0
  -24.3650   -9.4206   21.9178 C   0  0  0  0  0  0
  -23.6312   -8.2246   22.0751 C   0  0  0  0  0  0
  -22.4293   -8.0287   21.3544 C   0  0  0  0  0  0
  -21.9938   -9.0264   20.4645 C   0  0  0  0  0  0
  -22.7280  -10.2137   20.3050 C   0  0  0  0  0  0
  -21.6857   -6.0738   22.5277 C   0  0  0  0  0  0
  -21.4020   -6.5641   23.8212 C   0  0  0  0  0  0
  -21.3661   -5.6793   24.9172 C   0  0  0  0  0  0
  -21.6043   -4.3055   24.7222 C   0  0  0  0  0  0
  -21.8818   -3.8148   23.4342 C   0  0  0  0  0  0
  -21.9196   -4.6964   22.3401 C   0  0  0  0  0  0
  -22.7732  -13.5169   21.1929 C   0  0  0  0  0  0
  -22.1662   -4.2148   21.0978 F   0  0  0  0  0  0
  -21.5628   -3.4538   25.7735 F   0  0  0  0  0  0
  -29.7947  -14.2512   20.2967 N   0  0  0  0  0  0
  -26.2779  -12.9616   20.3227 N   0  0  0  0  0  0
  -25.9364  -11.6688   20.5697 N   0  0  0  0  0  0
  -22.0391  -12.8146   22.0477 N   0  0  0  0  0  0
  -25.3910  -15.2019   20.4180 N   0  0  0  0  0  0
  -31.5182  -15.5952   20.1236 O   0  0  0  0  0  0
  -21.6650   -6.8886   21.4243 O   0  0  0  0  0  0
  -22.3411  -14.5466   20.6759 O   0  0  0  0  0  0
  -24.6854  -31.7980   23.1500 C   0  0  0  0  0  0
  -25.9427  -32.4457   23.8050 C   0  0  1  0  0  0
  -27.2298  -26.6889   20.2123 C   0  0  0  0  0  0
  -25.6000  -33.8284   24.1934 N   0  0  0  0  0  0
  -23.5127  -30.3989   21.5040 C   0  0  2  0  0  0
  -24.9716  -28.7380   20.1156 C   0  0  0  0  0  0
  -22.7777  -29.4304   22.4704 C   0  0  0  0  0  0
  -18.0343  -28.1425   22.8457 C   0  0  0  0  0  0
  -24.1494  -36.7145   23.2652 C   0  0  0  0  0  0
  -26.0939  -30.5254   21.4181 C   0  0  0  0  0  0
  -26.1598  -29.0892   20.7671 C   0  0  0  0  0  0
  -27.2719  -28.0922   20.7847 C   0  0  0  0  0  0
  -26.0106  -26.5535   19.4986 C   0  0  0  0  0  0
  -24.9372  -27.4960   19.4577 C   0  0  0  0  0  0
  -23.7676  -29.6946   20.1397 C   0  0  0  0  0  0
  -25.4148  -36.2891   24.0278 C   0  0  1  0  0  0
  -20.5980  -28.3786   23.1141 C   0  0  2  0  0  0
  -20.6808  -26.9443   22.5408 C   0  0  0  0  0  0
  -19.5785  -26.6372   21.5222 C   0  0  0  0  0  0
  -18.1966  -26.7953   22.1621 C   0  0  0  0  0  0
  -19.1609  -28.8930   23.2778 C   0  0  0  0  0  0
  -18.9512  -30.1513   23.8824 C   0  0  0  0  0  0
  -17.6501  -30.6606   24.0551 C   0  0  0  0  0  0
  -25.9129  -34.9282   23.4944 C   0  0  0  0  0  0
  -16.5391  -29.9088   23.6353 C   0  0  0  0  0  0
  -16.7322  -28.6511   23.0369 C   0  0  0  0  0  0
  -26.4598  -31.6501   25.0682 C   0  0  0  0  0  0
  -25.3656  -31.3835   26.1294 C   0  0  0  0  0  0
  -27.0524  -30.2830   24.6602 C   0  0  0  0  0  0
  -27.6044  -32.4367   25.7498 C   0  0  0  0  0  0
  -27.5565  -37.1734   24.8465 C   0  0  0  0  0  0
  -21.4421  -29.3024   22.3452 N   0  0  0  0  0  0
  -26.4271  -37.3655   23.9407 N   0  0  0  0  0  0
  -24.7875  -30.9414   22.0761 N   0  0  0  0  0  0
  -23.4214  -28.7910   23.3058 O   0  0  0  0  0  0
  -28.1769  -25.4535   20.3137 O   0  0  0  0  0  0
  -26.5772  -34.8865   22.4563 O   0  0  0  0  0  0
  -23.5870  -32.1059   23.6448 O   0  0  0  0  0  0
  -29.8004  -21.2154   19.7526 C   0  0  0  0  0  0
  -28.6349  -22.0027   20.2852 C   0  0  0  0  0  0
  -28.1755  -19.4771   20.8695 C   0  0  0  0  0  0
  -29.3375  -18.6786   20.3648 C   0  0  0  0  0  0
  -30.8463  -21.9844   18.9734 C   0  0  0  0  0  0
  -27.0706  -18.6927   21.5473 C   0  0  0  0  0  0
  -27.9335  -23.7334   20.0124 C   0  0  0  0  0  0
  -27.8795  -20.9162   20.8249 N   0  0  0  0  0  0
  -30.1066  -19.7634   19.8148 N   0  0  0  0  0  0
  -29.4657  -16.9518   20.4449 N   0  0  0  0  0  0
  -31.4239  -13.3352   19.1858 H   0  0  0  0  0  0
  -30.5880  -12.2233   20.2150 H   0  0  0  0  0  0
  -30.0074  -11.8194   17.7994 H   0  0  0  0  0  0
  -29.5210  -13.4871   17.6178 H   0  0  0  0  0  0
  -28.1443  -11.3036   19.1946 H   0  0  0  0  0  0
  -27.4579  -12.2592   17.9028 H   0  0  0  0  0  0
  -27.4664  -14.2343   19.2555 H   0  0  0  0  0  0
  -28.8693  -12.7378   21.5195 H   0  0  0  0  0  0
  -28.1809  -14.3365   21.6463 H   0  0  0  0  0  0
  -25.2790   -9.5681   22.4759 H   0  0  0  0  0  0
  -24.0015   -7.4638   22.7475 H   0  0  0  0  0  0
  -21.0866   -8.8791   19.8954 H   0  0  0  0  0  0
  -22.3737  -10.9677   19.6163 H   0  0  0  0  0  0
  -21.2014   -7.6150   23.9716 H   0  0  0  0  0  0
  -21.1483   -6.0521   25.9076 H   0  0  0  0  0  0
  -22.0595   -2.7608   23.2843 H   0  0  0  0  0  0
  -22.4032  -11.9827   22.4880 H   0  0  0  0  0  0
  -21.0995  -13.1143   22.2668 H   0  0  0  0  0  0
  -24.6038  -15.8360   20.5015 H   0  0  0  0  0  0
  -26.1966  -15.6252   19.9790 H   0  0  0  0  0  0
  -26.7510  -32.4922   23.0764 H   0  0  0  0  0  0
  -25.0061  -33.9317   25.0030 H   0  0  0  0  0  0
  -22.8386  -31.2366   21.3133 H   0  0  0  0  0  0
  -23.3775  -35.9455   23.3272 H   0  0  0  0  0  0
  -24.3560  -36.8851   22.2074 H   0  0  0  0  0  0
  -23.7237  -37.6307   23.6755 H   0  0  0  0  0  0
  -26.3014  -31.2506   20.6301 H   0  0  0  0  0  0
  -26.9429  -30.5911   22.0859 H   0  0  0  0  0  0
  -28.1623  -28.3657   21.3333 H   0  0  0  0  0  0
  -25.8404  -25.6139   18.9928 H   0  0  0  0  0  0
  -24.0410  -27.2189   18.9194 H   0  0  0  0  0  0
  -23.9425  -30.4544   19.3772 H   0  0  0  0  0  0
  -22.8720  -29.1615   19.8158 H   0  0  0  0  0  0
  -25.1361  -36.1649   25.0766 H   0  0  0  0  0  0
  -21.0062  -28.3416   24.1268 H   0  0  0  0  0  0
  -20.5674  -26.2413   23.3674 H   0  0  0  0  0  0
  -21.6669  -26.7385   22.1227 H   0  0  0  0  0  0
  -19.6942  -25.6264   21.1301 H   0  0  0  0  0  0
  -19.6730  -27.3143   20.6721 H   0  0  0  0  0  0
  -17.4239  -26.6698   21.4019 H   0  0  0  0  0  0
  -18.0349  -26.0113   22.9032 H   0  0  0  0  0  0
  -19.7986  -30.7349   24.2161 H   0  0  0  0  0  0
  -17.5051  -31.6279   24.5168 H   0  0  0  0  0  0
  -15.5389  -30.2965   23.7719 H   0  0  0  0  0  0
  -15.8723  -28.0805   22.7126 H   0  0  0  0  0  0
  -24.5864  -30.7160   25.7597 H   0  0  0  0  0  0
  -24.8819  -32.3063   26.4505 H   0  0  0  0  0  0
  -25.7823  -30.9139   27.0212 H   0  0  0  0  0  0
  -26.3238  -29.6447   24.1591 H   0  0  0  0  0  0
  -27.3929  -29.7281   25.5355 H   0  0  0  0  0  0
  -27.9235  -30.3942   24.0143 H   0  0  0  0  0  0
  -27.2579  -33.3738   26.1869 H   0  0  0  0  0  0
  -28.3956  -32.6821   25.0401 H   0  0  0  0  0  0
  -28.0600  -31.8637   26.5584 H   0  0  0  0  0  0
  -28.2555  -38.0054   24.7511 H   0  0  0  0  0  0
  -28.1087  -36.2577   24.6294 H   0  0  0  0  0  0
  -27.2280  -37.1373   25.8867 H   0  0  0  0  0  0
  -20.9733  -29.8665   21.6500 H   0  0  0  0  0  0
  -26.0096  -38.2701   24.1419 H   0  0  0  0  0  0
  -30.7096  -23.0605   19.0798 H   0  0  0  0  0  0
  -30.7870  -21.7367   17.9137 H   0  0  0  0  0  0
  -31.8471  -21.7375   19.3275 H   0  0  0  0  0  0
  -27.4467  -18.2186   22.4540 H   0  0  0  0  0  0
  -26.6937  -17.9155   20.8833 H   0  0  0  0  0  0
  -26.2300  -19.3301   21.8224 H   0  0  0  0  0  0
  -26.9205  -23.6016   20.3915 H   0  0  0  0  0  0
  -27.8005  -23.7296   18.9307 H   0  0  0  0  0  0
  -28.5468  -16.6113   20.6804 H   0  0  0  0  0  0
  1 25  1  0  0  0
  1 30  2  0  0  0
  1 80  1  0  0  0
  2  3  1  0  0  0
  2 25  1  0  0  0
  2 81  1  0  0  0
  2 82  1  0  0  0
  3  4  1  0  0  0
  3 83  1  0  0  0
  3 84  1  0  0  0
  4  5  1  0  0  0
  4 85  1  0  0  0
  4 86  1  0  0  0
  5  6  1  0  0  0
  5 26  1  0  0  0
  5 87  1  0  0  0
  6 25  1  0  0  0
  6 88  1  0  0  0
  6 89  1  0  0  0
  7  8  2  0  0  0
  7 26  1  0  0  0
  7 29  1  0  0  0
  8  9  1  0  0  0
  8 22  1  0  0  0
  9 10  1  0  0  0
  9 27  2  0  0  0
 10 11  2  0  0  0
 10 15  1  0  0  0
 11 12  1  0  0  0
 11 90  1  0  0  0
 12 13  2  0  0  0
 12 91  1  0  0  0
 13 14  1  0  0  0
 13 31  1  0  0  0
 14 15  2  0  0  0
 14 92  1  0  0  0
 15 93  1  0  0  0
 16 17  2  0  0  0
 16 21  1  0  0  0
 16 31  1  0  0  0
 17 18  1  0  0  0
 17 94  1  0  0  0
 18 19  2  0  0  0
 18 95  1  0  0  0
 19 20  1  0  0  0
 19 24  1  0  0  0
 20 21  2  0  0  0
 20 96  1  0  0  0
 21 23  1  0  0  0
 22 28  1  0  0  0
 22 32  2  0  0  0
 26 27  1  0  0  0
 28 97  1  0  0  0
 28 98  1  0  0  0
 29 99  1  0  0  0
 29100  1  0  0  0
 33 34  1  0  0  0
 33 66  1  0  0  0
 33 70  2  0  0  0
 34 36  1  0  0  0
 34 59  1  0  0  0
 34101  1  0  0  0
 35 44  2  0  0  0
 35 45  1  0  0  0
 35 68  1  0  0  0
 36 56  1  0  0  0
 36102  1  0  0  0
 37 39  1  0  0  0
 37 47  1  0  0  0
 37 66  1  0  0  0
 37103  1  0  0  0
 38 43  2  0  0  0
 38 46  1  0  0  0
 38 47  1  0  0  0
 39 64  1  0  0  0
 39 67  2  0  0  0
 40 52  1  0  0  0
 40 53  2  0  0  0
 40 58  1  0  0  0
 41104  1  0  0  0
 41105  1  0  0  0
 41106  1  0  0  0
 41 48  1  0  0  0
 42 43  1  0  0  0
 42 66  1  0  0  0
 42107  1  0  0  0
 42108  1  0  0  0
 43 44  1  0  0  0
 44109  1  0  0  0
 45 46  2  0  0  0
 45110  1  0  0  0
 46111  1  0  0  0
 47112  1  0  0  0
 47113  1  0  0  0
 48 56  1  0  0  0
 48 65  1  0  0  0
 48114  1  0  0  0
 49 50  1  0  0  0
 49 53  1  0  0  0
 49 64  1  0  0  0
 49115  1  0  0  0
 50 51  1  0  0  0
 50116  1  0  0  0
 50117  1  0  0  0
 51 52  1  0  0  0
 51118  1  0  0  0
 51119  1  0  0  0
 52120  1  0  0  0
 52121  1  0  0  0
 53 54  1  0  0  0
 54 55  2  0  0  0
 54122  1  0  0  0
 55 57  1  0  0  0
 55123  1  0  0  0
 56 69  2  0  0  0
 57 58  2  0  0  0
 57124  1  0  0  0
 58125  1  0  0  0
 59 60  1  0  0  0
 59 61  1  0  0  0
 59 62  1  0  0  0
 60126  1  0  0  0
 60127  1  0  0  0
 60128  1  0  0  0
 61129  1  0  0  0
 61130  1  0  0  0
 61131  1  0  0  0
 62132  1  0  0  0
 62133  1  0  0  0
 62134  1  0  0  0
 63 65  1  0  0  0
 63135  1  0  0  0
 63136  1  0  0  0
 63137  1  0  0  0
 64138  1  0  0  0
 65139  1  0  0  0
 68 77  1  0  0  0
 71 72  2  0  0  0
 71 75  1  0  0  0
 71 79  1  0  0  0
 72 77  1  0  0  0
 72 78  1  0  0  0
 73 74  1  0  0  0
 73 76  1  0  0  0
 73 78  2  0  0  0
 74 79  2  0  0  0
 74 80  1  0  0  0
 75140  1  0  0  0
 75141  1  0  0  0
 75142  1  0  0  0
 76143  1  0  0  0
 76144  1  0  0  0
 76145  1  0  0  0
 77146  1  0  0  0
 77147  1  0  0  0
 80148  1  0  0  0
M  ISO  4   1 100  68 101  77 101  80 100
M  END
> <chiral flag>
0

> <version>
0

> <s_m_source_file>
/data/baiqing/PycharmProjects/Reinvent-master-3.2/result/LINK_invent/BTK/process_docking_weight1_custom_sum_contain_oxygen_bond_distance_aromatic_linkinvent_7_9_3/rearranged_h_0182.sdf

> <i_m_source_file_index>
50

> <r_mmod_Potential_Energy-OPLS-2005>
2366.32885742188

> <r_mmod_Stretch_Energy-OPLS-2005>
986.053649902344

> <r_mmod_Bend_Energy-OPLS-2005>
690.638488769531

> <r_mmod_Torsional_Energy-OPLS-2005>
217.272232055664

> <r_mmod_Improper_Torsional_Energy-OPLS-2005>
5.54288768768311

> <r_mmod_Van_der_Waal_Energy-OPLS-2005>
130.847946166992

> <r_mmod_Electrostatic_Energy-OPLS-2005>
-338.939605712891

> <r_mmod_Solvation_Energy-OPLS-2005>
-240.300765991211

> <b_mmod_Minimization_Converged-OPLS-2005>
0

> <r_mmod_RMS_Derivative-OPLS-2005>
0.543693542480469

$$$$
50
                    3D
 Structure written by MMmdl.
163172  0  0  1  0            999 V2000
  -30.4462  -15.2531   20.3684 C   0  0  0  0  0  0
  -30.4382  -12.8007   19.5237 C   0  0  0  0  0  0
  -29.5364  -12.5868   18.2812 C   0  0  0  0  0  0
  -28.0796  -12.3234   18.6976 C   0  0  0  0  0  0
  -27.6133  -13.2820   19.8229 C   0  0  2  0  0  0
  -28.6490  -13.4428   20.9572 C   0  0  0  0  0  0
  -25.2393  -13.8285   20.5728 C   0  0  0  0  0  0
  -24.1757  -13.0451   20.9242 C   0  0  0  0  0  0
  -24.6434  -11.6950   20.8758 C   0  0  0  0  0  0
  -23.9154  -10.4294   21.0394 C   0  0  0  0  0  0
  -24.3688   -9.4201   21.9179 C   0  0  0  0  0  0
  -23.6342   -8.2245   22.0753 C   0  0  0  0  0  0
  -22.4319   -8.0298   21.3545 C   0  0  0  0  0  0
  -21.9963   -9.0274   20.4636 C   0  0  0  0  0  0
  -22.7316  -10.2136   20.3047 C   0  0  0  0  0  0
  -21.6859   -6.0760   22.5282 C   0  0  0  0  0  0
  -21.4010   -6.5659   23.8221 C   0  0  0  0  0  0
  -21.3667   -5.6806   24.9180 C   0  0  0  0  0  0
  -21.6049   -4.3066   24.7225 C   0  0  0  0  0  0
  -21.8822   -3.8169   23.4345 C   0  0  0  0  0  0
  -21.9195   -4.6988   22.3403 C   0  0  0  0  0  0
  -22.7765  -13.5178   21.1891 C   0  0  0  0  0  0
  -22.1658   -4.2176   21.0981 F   0  0  0  0  0  0
  -21.5625   -3.4546   25.7737 F   0  0  0  0  0  0
  -29.8846  -13.9452   20.3359 N   0  0  0  0  0  0
  -26.2835  -12.9564   20.3206 N   0  0  0  0  0  0
  -25.9379  -11.6666   20.5721 N   0  0  0  0  0  0
  -22.0434  -12.8152   22.0448 N   0  0  0  0  0  0
  -25.4012  -15.2020   20.4127 N   0  0  0  0  0  0
  -31.6636  -15.2574   20.1339 O   0  0  0  0  0  0
  -21.6666   -6.8907   21.4245 O   0  0  0  0  0  0
  -22.3433  -14.5480   20.6743 O   0  0  0  0  0  0
  -24.6605  -31.8211   23.1703 C   0  0  0  0  0  0
  -25.9301  -32.4565   23.8157 C   0  0  1  0  0  0
  -27.2199  -26.9382   20.1865 C   0  0  0  0  0  0
  -25.5979  -33.8378   24.2047 N   0  0  0  0  0  0
  -23.4736  -30.4351   21.5167 C   0  0  2  0  0  0
  -24.9297  -28.8261   20.1091 C   0  0  0  0  0  0
  -22.7638  -29.4434   22.4744 C   0  0  0  0  0  0
  -18.0306  -28.1414   22.8447 C   0  0  0  0  0  0
  -24.1497  -36.7209   23.2641 C   0  0  0  0  0  0
  -26.0421  -30.6327   21.3993 C   0  0  0  0  0  0
  -26.1106  -29.2245   20.7471 C   0  0  0  0  0  0
  -27.2481  -28.3016   20.7630 C   0  0  0  0  0  0
  -26.0148  -26.6965   19.4848 C   0  0  0  0  0  0
  -24.9078  -27.5823   19.4603 C   0  0  0  0  0  0
  -23.7134  -29.7506   20.1434 C   0  0  0  0  0  0
  -25.4134  -36.2934   24.0279 C   0  0  1  0  0  0
  -20.5927  -28.3763   23.1160 C   0  0  2  0  0  0
  -20.6780  -26.9436   22.5383 C   0  0  0  0  0  0
  -19.5769  -26.6367   21.5190 C   0  0  0  0  0  0
  -18.1946  -26.7943   22.1593 C   0  0  0  0  0  0
  -19.1563  -28.8902   23.2794 C   0  0  0  0  0  0
  -18.9486  -30.1492   23.8848 C   0  0  0  0  0  0
  -17.6485  -30.6604   24.0555 C   0  0  0  0  0  0
  -25.9100  -34.9329   23.4972 C   0  0  0  0  0  0
  -16.5373  -29.9093   23.6353 C   0  0  0  0  0  0
  -16.7282  -28.6510   23.0369 C   0  0  0  0  0  0
  -26.4566  -31.6536   25.0697 C   0  0  0  0  0  0
  -25.3709  -31.3813   26.1368 C   0  0  0  0  0  0
  -27.0457  -30.2890   24.6466 C   0  0  0  0  0  0
  -27.6036  -32.4370   25.7510 C   0  0  0  0  0  0
  -27.5564  -37.1745   24.8446 C   0  0  0  0  0  0
  -21.4304  -29.3059   22.3515 N   0  0  0  0  0  0
  -26.4266  -37.3686   23.9406 N   0  0  0  0  0  0
  -24.7465  -30.9908   22.0822 N   0  0  0  0  0  0
  -23.4192  -28.7981   23.2958 O   0  0  0  0  0  0
  -28.2203  -25.8396   20.3176 O   0  0  0  0  0  0
  -26.5712  -34.8872   22.4574 O   0  0  0  0  0  0
  -23.5679  -32.1159   23.6826 O   0  0  0  0  0  0
  -28.7042  -21.0453   15.9256 C   0  0  0  0  0  0
  -28.1759  -22.4492   16.0404 C   0  0  0  0  0  0
  -30.0778  -18.3536   18.7516 C   0  0  0  0  0  0
  -28.5746  -18.6673   18.7640 C   0  0  0  0  0  0
  -28.8400  -21.7971   17.2369 C   0  0  0  0  0  0
  -29.9408  -18.1683   20.2495 C   0  0  1  0  0  0
  -28.7633  -19.5323   20.0674 C   0  0  1  0  0  0
  -27.7420  -22.2858   21.7534 C   0  0  0  0  0  0
  -27.9987  -21.4656   18.4617 C   0  0  0  0  0  0
  -28.1067  -24.2447   19.9076 C   0  0  0  0  0  0
  -28.6330  -22.6174   20.5450 C   0  0  2  0  0  0
  -29.6820  -16.5213   20.4625 N   0  0  0  0  0  0
  -28.8392  -21.1992   19.6732 N   0  3  1  0  0  0
  -31.4569  -13.0021   19.1928 H   0  0  0  0  0  0
  -30.4968  -11.8866   20.1188 H   0  0  0  0  0  0
  -29.9090  -11.7592   17.6766 H   0  0  0  0  0  0
  -29.5794  -13.4751   17.6474 H   0  0  0  0  0  0
  -28.0136  -11.2899   19.0403 H   0  0  0  0  0  0
  -27.4196  -12.4011   17.8329 H   0  0  0  0  0  0
  -27.5278  -14.2561   19.3414 H   0  0  0  0  0  0
  -28.8082  -12.5041   21.4877 H   0  0  0  0  0  0
  -28.2944  -14.1606   21.6980 H   0  0  0  0  0  0
  -25.2821   -9.5674   22.4766 H   0  0  0  0  0  0
  -24.0042   -7.4648   22.7481 H   0  0  0  0  0  0
  -21.0892   -8.8826   19.8940 H   0  0  0  0  0  0
  -22.3796  -10.9698   19.6173 H   0  0  0  0  0  0
  -21.1996   -7.6164   23.9724 H   0  0  0  0  0  0
  -21.1475   -6.0537   25.9084 H   0  0  0  0  0  0
  -22.0589   -2.7629   23.2845 H   0  0  0  0  0  0
  -22.4086  -11.9847   22.4870 H   0  0  0  0  0  0
  -21.1024  -13.1123   22.2602 H   0  0  0  0  0  0
  -24.6254  -15.8481   20.5108 H   0  0  0  0  0  0
  -26.2333  -15.6354   20.0372 H   0  0  0  0  0  0
  -26.7357  -32.5094   23.0854 H   0  0  0  0  0  0
  -25.0116  -33.9466   25.0187 H   0  0  0  0  0  0
  -22.7881  -31.2672   21.3442 H   0  0  0  0  0  0
  -23.3754  -35.9542   23.3228 H   0  0  0  0  0  0
  -24.3573  -36.8946   22.2070 H   0  0  0  0  0  0
  -23.7274  -37.6377   23.6762 H   0  0  0  0  0  0
  -26.2234  -31.3689   20.6152 H   0  0  0  0  0  0
  -26.9027  -30.6892   22.0541 H   0  0  0  0  0  0
  -28.1390  -28.6073   21.2938 H   0  0  0  0  0  0
  -25.8798  -25.7537   18.9782 H   0  0  0  0  0  0
  -24.0120  -27.2728   18.9390 H   0  0  0  0  0  0
  -23.8647  -30.5148   19.3802 H   0  0  0  0  0  0
  -22.8255  -29.1983   19.8298 H   0  0  0  0  0  0
  -25.1337  -36.1699   25.0770 H   0  0  0  0  0  0
  -21.0024  -28.3378   24.1276 H   0  0  0  0  0  0
  -20.5618  -26.2393   23.3633 H   0  0  0  0  0  0
  -21.6654  -26.7382   22.1221 H   0  0  0  0  0  0
  -19.6931  -25.6255   21.1277 H   0  0  0  0  0  0
  -19.6726  -27.3132   20.6690 H   0  0  0  0  0  0
  -17.4206  -26.6657   21.4004 H   0  0  0  0  0  0
  -18.0366  -26.0100   22.9010 H   0  0  0  0  0  0
  -19.7971  -30.7309   24.2196 H   0  0  0  0  0  0
  -17.5048  -31.6292   24.5159 H   0  0  0  0  0  0
  -15.5376  -30.2995   23.7720 H   0  0  0  0  0  0
  -15.8670  -28.0823   22.7135 H   0  0  0  0  0  0
  -24.5908  -30.7126   25.7708 H   0  0  0  0  0  0
  -24.8895  -32.3032   26.4639 H   0  0  0  0  0  0
  -25.7966  -30.9100   27.0238 H   0  0  0  0  0  0
  -26.3127  -29.6566   24.1446 H   0  0  0  0  0  0
  -27.3922  -29.7264   25.5147 H   0  0  0  0  0  0
  -27.9096  -30.4019   23.9917 H   0  0  0  0  0  0
  -27.2564  -33.3708   26.1946 H   0  0  0  0  0  0
  -28.3938  -32.6885   25.0422 H   0  0  0  0  0  0
  -28.0613  -31.8613   26.5563 H   0  0  0  0  0  0
  -28.2510  -38.0108   24.7521 H   0  0  0  0  0  0
  -28.1128  -36.2622   24.6216 H   0  0  0  0  0  0
  -27.2278  -37.1319   25.8849 H   0  0  0  0  0  0
  -20.9545  -29.8783   21.6684 H   0  0  0  0  0  0
  -26.0077  -38.2716   24.1482 H   0  0  0  0  0  0
  -29.6098  -20.8920   15.3428 H   0  0  0  0  0  0
  -27.9629  -20.2517   15.8463 H   0  0  0  0  0  0
  -27.0940  -22.5733   16.0567 H   0  0  0  0  0  0
  -28.7234  -23.2447   15.5397 H   0  0  0  0  0  0
  -30.7020  -19.2030   18.4650 H   0  0  0  0  0  0
  -30.3539  -17.4666   18.1802 H   0  0  0  0  0  0
  -27.9439  -17.7893   18.9233 H   0  0  0  0  0  0
  -28.3054  -19.0843   17.8020 H   0  0  0  0  0  0
  -29.8226  -22.2057   17.4707 H   0  0  0  0  0  0
  -30.8359  -18.4959   20.7811 H   0  0  0  0  0  0
  -27.9162  -19.3949   20.7402 H   0  0  0  0  0  0
  -27.6787  -23.1269   22.4442 H   0  0  0  0  0  0
  -28.1242  -21.4297   22.3116 H   0  0  0  0  0  0
  -26.7285  -22.0476   21.4291 H   0  0  0  0  0  0
  -27.2418  -20.7149   18.2591 H   0  0  0  0  0  0
  -27.3209  -22.2956   18.6129 H   0  0  0  0  0  0
  -27.0371  -24.1166   19.7623 H   0  0  0  0  0  0
  -28.5139  -24.2762   18.8974 H   0  0  0  0  0  0
  -29.6298  -22.8016   20.9449 H   0  0  0  0  0  0
  -28.7141  -16.3274   20.6756 H   0  0  0  0  0  0
  -29.7764  -21.2982   19.3108 H   0  0  0  0  0  0
  1 25  1  0  0  0
  1 30  2  0  0  0
  1 82  1  0  0  0
  2  3  1  0  0  0
  2 25  1  0  0  0
  2 84  1  0  0  0
  2 85  1  0  0  0
  3  4  1  0  0  0
  3 86  1  0  0  0
  3 87  1  0  0  0
  4  5  1  0  0  0
  4 88  1  0  0  0
  4 89  1  0  0  0
  5  6  1  0  0  0
  5 26  1  0  0  0
  5 90  1  0  0  0
  6 25  1  0  0  0
  6 91  1  0  0  0
  6 92  1  0  0  0
  7  8  2  0  0  0
  7 26  1  0  0  0
  7 29  1  0  0  0
  8  9  1  0  0  0
  8 22  1  0  0  0
  9 10  1  0  0  0
  9 27  2  0  0  0
 10 11  2  0  0  0
 10 15  1  0  0  0
 11 12  1  0  0  0
 11 93  1  0  0  0
 12 13  2  0  0  0
 12 94  1  0  0  0
 13 14  1  0  0  0
 13 31  1  0  0  0
 14 15  2  0  0  0
 14 95  1  0  0  0
 15 96  1  0  0  0
 16 17  2  0  0  0
 16 21  1  0  0  0
 16 31  1  0  0  0
 17 18  1  0  0  0
 17 97  1  0  0  0
 18 19  2  0  0  0
 18 98  1  0  0  0
 19 20  1  0  0  0
 19 24  1  0  0  0
 20 21  2  0  0  0
 20 99  1  0  0  0
 21 23  1  0  0  0
 22 28  1  0  0  0
 22 32  2  0  0  0
 26 27  1  0  0  0
 28100  1  0  0  0
 28101  1  0  0  0
 29102  1  0  0  0
 29103  1  0  0  0
 33 34  1  0  0  0
 33 66  1  0  0  0
 33 70  2  0  0  0
 34 36  1  0  0  0
 34 59  1  0  0  0
 34104  1  0  0  0
 35 44  2  0  0  0
 35 45  1  0  0  0
 35 68  1  0  0  0
 36 56  1  0  0  0
 36105  1  0  0  0
 37 39  1  0  0  0
 37 47  1  0  0  0
 37 66  1  0  0  0
 37106  1  0  0  0
 38 43  2  0  0  0
 38 46  1  0  0  0
 38 47  1  0  0  0
 39 64  1  0  0  0
 39 67  2  0  0  0
 40 52  1  0  0  0
 40 53  2  0  0  0
 40 58  1  0  0  0
 41107  1  0  0  0
 41108  1  0  0  0
 41109  1  0  0  0
 41 48  1  0  0  0
 42 43  1  0  0  0
 42 66  1  0  0  0
 42110  1  0  0  0
 42111  1  0  0  0
 43 44  1  0  0  0
 44112  1  0  0  0
 45 46  2  0  0  0
 45113  1  0  0  0
 46114  1  0  0  0
 47115  1  0  0  0
 47116  1  0  0  0
 48 56  1  0  0  0
 48 65  1  0  0  0
 48117  1  0  0  0
 49 50  1  0  0  0
 49 53  1  0  0  0
 49 64  1  0  0  0
 49118  1  0  0  0
 50 51  1  0  0  0
 50119  1  0  0  0
 50120  1  0  0  0
 51 52  1  0  0  0
 51121  1  0  0  0
 51122  1  0  0  0
 52123  1  0  0  0
 52124  1  0  0  0
 53 54  1  0  0  0
 54 55  2  0  0  0
 54125  1  0  0  0
 55 57  1  0  0  0
 55126  1  0  0  0
 56 69  2  0  0  0
 57 58  2  0  0  0
 57127  1  0  0  0
 58128  1  0  0  0
 59 60  1  0  0  0
 59 61  1  0  0  0
 59 62  1  0  0  0
 60129  1  0  0  0
 60130  1  0  0  0
 60131  1  0  0  0
 61132  1  0  0  0
 61133  1  0  0  0
 61134  1  0  0  0
 62135  1  0  0  0
 62136  1  0  0  0
 62137  1  0  0  0
 63 65  1  0  0  0
 63138  1  0  0  0
 63139  1  0  0  0
 63140  1  0  0  0
 64141  1  0  0  0
 65142  1  0  0  0
 68 80  1  0  0  0
 71 72  1  0  0  0
 71 75  1  0  0  0
 71143  1  0  0  0
 71144  1  0  0  0
 72 75  1  0  0  0
 72145  1  0  0  0
 72146  1  0  0  0
 73 74  1  0  0  0
 73 76  1  0  0  0
 73147  1  0  0  0
 73148  1  0  0  0
 74149  1  0  0  0
 74150  1  0  0  0
 74 77  1  0  0  0
 75 79  1  0  0  0
 75151  1  0  0  0
 76 77  1  0  0  0
 76 82  1  0  0  0
 76152  1  0  0  0
 77 83  1  0  0  0
 77153  1  0  0  0
 78154  1  0  0  0
 78155  1  0  0  0
 78156  1  0  0  0
 78 81  1  0  0  0
 79157  1  0  0  0
 79158  1  0  0  0
 79 83  1  0  0  0
 80 81  1  0  0  0
 80159  1  0  0  0
 80160  1  0  0  0
 81 83  1  0  0  0
 81161  1  0  0  0
 82162  1  0  0  0
 83163  1  0  0  0
M  CHG  1  83   1
M  ISO  4   1 100  68 101  80 101  82 100
M  END
> <chiral flag>
0

> <version>
0

> <s_m_source_file>
/data/baiqing/PycharmProjects/Reinvent-master-3.2/result/LINK_invent/BTK/process_docking_weight1_custom_sum_contain_oxygen_bond_distance_aromatic_linkinvent_7_9_3/rearranged_h_0182.sdf

> <i_m_source_file_index>
51

> <r_mmod_Potential_Energy-OPLS-2005>
1445.51184082031

> <r_mmod_Stretch_Energy-OPLS-2005>
655.963256835938

> <r_mmod_Bend_Energy-OPLS-2005>
533.060302734375

> <r_mmod_Torsional_Energy-OPLS-2005>
318.921600341797

> <r_mmod_Improper_Torsional_Energy-OPLS-2005>
4.18082761764526

> <r_mmod_Van_der_Waal_Energy-OPLS-2005>
131.763046264648

> <r_mmod_Electrostatic_Energy-OPLS-2005>
-201.979782104492

> <r_mmod_Solvation_Energy-OPLS-2005>
-442.180725097656

> <b_mmod_Minimization_Converged-OPLS-2005>
0

> <r_mmod_RMS_Derivative-OPLS-2005>
2.78241062164307

$$$$
51
                    3D
 Structure written by MMmdl.
150159  0  0  1  0            999 V2000
  -30.4040  -15.3458   20.3556 C   0  0  0  0  0  0
  -30.4368  -12.8642   19.5346 C   0  0  0  0  0  0
  -29.5400  -12.5915   18.2989 C   0  0  0  0  0  0
  -28.0926  -12.2987   18.7288 C   0  0  0  0  0  0
  -27.6081  -13.2819   19.8221 C   0  0  2  0  0  0
  -28.6374  -13.4904   20.9546 C   0  0  0  0  0  0
  -25.2371  -13.8255   20.5761 C   0  0  0  0  0  0
  -24.1733  -13.0435   20.9269 C   0  0  0  0  0  0
  -24.6400  -11.6935   20.8767 C   0  0  0  0  0  0
  -23.9097  -10.4291   21.0408 C   0  0  0  0  0  0
  -24.3640   -9.4204   21.9186 C   0  0  0  0  0  0
  -23.6306   -8.2243   22.0755 C   0  0  0  0  0  0
  -22.4286   -8.0285   21.3545 C   0  0  0  0  0  0
  -21.9929   -9.0260   20.4647 C   0  0  0  0  0  0
  -22.7267  -10.2135   20.3057 C   0  0  0  0  0  0
  -21.6856   -6.0740   22.5281 C   0  0  0  0  0  0
  -21.4017   -6.5643   23.8214 C   0  0  0  0  0  0
  -21.3658   -5.6796   24.9176 C   0  0  0  0  0  0
  -21.6042   -4.3058   24.7225 C   0  0  0  0  0  0
  -21.8818   -3.8151   23.4346 C   0  0  0  0  0  0
  -21.9193   -4.6968   22.3403 C   0  0  0  0  0  0
  -22.7749  -13.5182   21.1913 C   0  0  0  0  0  0
  -22.1661   -4.2153   21.0979 F   0  0  0  0  0  0
  -21.5626   -3.4541   25.7737 F   0  0  0  0  0  0
  -29.8589  -14.0210   20.3238 N   0  0  0  0  0  0
  -26.2802  -12.9542   20.3225 N   0  0  0  0  0  0
  -25.9337  -11.6640   20.5722 N   0  0  0  0  0  0
  -22.0410  -12.8160   22.0465 N   0  0  0  0  0  0
  -25.3989  -15.1994   20.4197 N   0  0  0  0  0  0
  -31.6253  -15.3403   20.1367 O   0  0  0  0  0  0
  -21.6644   -6.8885   21.4244 O   0  0  0  0  0  0
  -22.3428  -14.5483   20.6752 O   0  0  0  0  0  0
  -24.6673  -31.8178   23.1651 C   0  0  0  0  0  0
  -25.9332  -32.4558   23.8136 C   0  0  1  0  0  0
  -27.2226  -26.8768   20.1918 C   0  0  0  0  0  0
  -25.5977  -33.8374   24.2036 N   0  0  0  0  0  0
  -23.4850  -30.4262   21.5152 C   0  0  2  0  0  0
  -24.9398  -28.8011   20.1125 C   0  0  0  0  0  0
  -22.7688  -29.4408   22.4762 C   0  0  0  0  0  0
  -18.0326  -28.1412   22.8465 C   0  0  0  0  0  0
  -24.1492  -36.7194   23.2648 C   0  0  0  0  0  0
  -26.0564  -30.6078   21.4027 C   0  0  0  0  0  0
  -26.1243  -29.1915   20.7489 C   0  0  0  0  0  0
  -27.2576  -28.2521   20.7608 C   0  0  0  0  0  0
  -26.0082  -26.6496   19.5045 C   0  0  0  0  0  0
  -24.9102  -27.5521   19.4692 C   0  0  0  0  0  0
  -23.7280  -29.7356   20.1439 C   0  0  0  0  0  0
  -25.4135  -36.2948   24.0294 C   0  0  1  0  0  0
  -20.5953  -28.3760   23.1178 C   0  0  2  0  0  0
  -20.6800  -26.9437   22.5403 C   0  0  0  0  0  0
  -19.5774  -26.6376   21.5216 C   0  0  0  0  0  0
  -18.1956  -26.7944   22.1623 C   0  0  0  0  0  0
  -19.1589  -28.8908   23.2807 C   0  0  0  0  0  0
  -18.9498  -30.1496   23.8846 C   0  0  0  0  0  0
  -17.6491  -30.6601   24.0555 C   0  0  0  0  0  0
  -25.9106  -34.9334   23.4991 C   0  0  0  0  0  0
  -16.5381  -29.9087   23.6345 C   0  0  0  0  0  0
  -16.7308  -28.6507   23.0364 C   0  0  0  0  0  0
  -26.4566  -31.6528   25.0690 C   0  0  0  0  0  0
  -25.3676  -31.3796   26.1336 C   0  0  0  0  0  0
  -27.0474  -30.2888   24.6465 C   0  0  0  0  0  0
  -27.6042  -32.4355   25.7501 C   0  0  0  0  0  0
  -27.5570  -37.1748   24.8462 C   0  0  0  0  0  0
  -21.4352  -29.3039   22.3516 N   0  0  0  0  0  0
  -26.4272  -37.3695   23.9414 N   0  0  0  0  0  0
  -24.7580  -30.9791   22.0811 N   0  0  0  0  0  0
  -23.4211  -28.7990   23.3032 O   0  0  0  0  0  0
  -28.2205  -25.7523   20.2824 O   0  0  0  0  0  0
  -26.5728  -34.8884   22.4596 O   0  0  0  0  0  0
  -23.5731  -32.1171   23.6714 O   0  0  0  0  0  0
  -31.4365  -21.5379   21.6896 C   0  0  0  0  0  0
  -31.2103  -22.9144   21.6336 C   0  0  0  0  0  0
  -30.4986  -20.6612   21.1388 C   0  0  0  0  0  0
  -29.3256  -21.1908   20.5210 C   0  0  0  0  0  0
  -29.1075  -22.7802   20.5261 C   0  0  0  0  0  0
  -30.7275  -19.1009   21.2297 C   0  0  0  0  0  0
  -28.7173  -19.6810   20.0801 C   0  0  0  0  0  0
  -29.8148  -18.3132   20.2425 C   0  0  2  0  0  0
  -28.0139  -24.0933   20.0980 C   0  0  0  0  0  0
  -30.1174  -23.4823   21.0925 N   0  0  0  0  0  0
  -29.6283  -16.6300   20.4359 N   0  0  0  0  0  0
  -31.4518  -13.0792   19.1983 H   0  0  0  0  0  0
  -30.5216  -11.9716   20.1568 H   0  0  0  0  0  0
  -29.9352  -11.7585   17.7158 H   0  0  0  0  0  0
  -29.5563  -13.4624   17.6420 H   0  0  0  0  0  0
  -28.0641  -11.2797   19.1168 H   0  0  0  0  0  0
  -27.4237  -12.3179   17.8675 H   0  0  0  0  0  0
  -27.5120  -14.2393   19.3086 H   0  0  0  0  0  0
  -28.8240  -12.5668   21.5044 H   0  0  0  0  0  0
  -28.2609  -14.2132   21.6804 H   0  0  0  0  0  0
  -25.2781   -9.5677   22.4769 H   0  0  0  0  0  0
  -24.0009   -7.4633   22.7476 H   0  0  0  0  0  0
  -21.0859   -8.8787   19.8953 H   0  0  0  0  0  0
  -22.3726  -10.9677   19.6171 H   0  0  0  0  0  0
  -21.2013   -7.6152   23.9719 H   0  0  0  0  0  0
  -21.1480   -6.0525   25.9078 H   0  0  0  0  0  0
  -22.0597   -2.7613   23.2846 H   0  0  0  0  0  0
  -22.4047  -11.9829   22.4851 H   0  0  0  0  0  0
  -21.1022  -13.1165   22.2673 H   0  0  0  0  0  0
  -24.6258  -15.8463   20.5317 H   0  0  0  0  0  0
  -26.2337  -15.6413   20.0586 H   0  0  0  0  0  0
  -26.7403  -32.5079   23.0849 H   0  0  0  0  0  0
  -25.0057  -33.9441   25.0141 H   0  0  0  0  0  0
  -22.8011  -31.2591   21.3392 H   0  0  0  0  0  0
  -23.3774  -35.9501   23.3253 H   0  0  0  0  0  0
  -24.3572  -36.8903   22.2074 H   0  0  0  0  0  0
  -23.7225  -37.6352   23.6748 H   0  0  0  0  0  0
  -26.2415  -31.3452   20.6205 H   0  0  0  0  0  0
  -26.9143  -30.6678   22.0604 H   0  0  0  0  0  0
  -28.1527  -28.5505   21.2883 H   0  0  0  0  0  0
  -25.8735  -25.6955   19.0152 H   0  0  0  0  0  0
  -24.0110  -27.2468   18.9516 H   0  0  0  0  0  0
  -23.8877  -30.5013   19.3839 H   0  0  0  0  0  0
  -22.8364  -29.1925   19.8256 H   0  0  0  0  0  0
  -25.1334  -36.1731   25.0783 H   0  0  0  0  0  0
  -21.0042  -28.3374   24.1302 H   0  0  0  0  0  0
  -20.5676  -26.2381   23.3649 H   0  0  0  0  0  0
  -21.6663  -26.7403   22.1214 H   0  0  0  0  0  0
  -19.6932  -25.6273   21.1281 H   0  0  0  0  0  0
  -19.6714  -27.3156   20.6722 H   0  0  0  0  0  0
  -17.4225  -26.6686   21.4027 H   0  0  0  0  0  0
  -18.0351  -26.0099   22.9032 H   0  0  0  0  0  0
  -19.7974  -30.7326   24.2193 H   0  0  0  0  0  0
  -17.5043  -31.6276   24.5166 H   0  0  0  0  0  0
  -15.5379  -30.2973   23.7698 H   0  0  0  0  0  0
  -15.8708  -28.0808   22.7110 H   0  0  0  0  0  0
  -24.5877  -30.7127   25.7643 H   0  0  0  0  0  0
  -24.8846  -32.3003   26.4618 H   0  0  0  0  0  0
  -25.7894  -30.9057   27.0208 H   0  0  0  0  0  0
  -26.3154  -29.6548   24.1453 H   0  0  0  0  0  0
  -27.3965  -29.7276   25.5144 H   0  0  0  0  0  0
  -27.9109  -30.4058   23.9915 H   0  0  0  0  0  0
  -27.2595  -33.3705   26.1932 H   0  0  0  0  0  0
  -28.3930  -32.6840   25.0388 H   0  0  0  0  0  0
  -28.0625  -31.8582   26.5541 H   0  0  0  0  0  0
  -28.2548  -38.0082   24.7537 H   0  0  0  0  0  0
  -28.1105  -36.2609   24.6253 H   0  0  0  0  0  0
  -27.2291  -37.1342   25.8864 H   0  0  0  0  0  0
  -20.9619  -29.8715   21.6626 H   0  0  0  0  0  0
  -26.0112  -38.2744   24.1447 H   0  0  0  0  0  0
  -32.3348  -21.1620   22.1606 H   0  0  0  0  0  0
  -31.9351  -23.5955   22.0547 H   0  0  0  0  0  0
  -30.5041  -18.7948   22.2518 H   0  0  0  0  0  0
  -31.7768  -18.8624   21.0530 H   0  0  0  0  0  0
  -28.3428  -19.7336   19.0574 H   0  0  0  0  0  0
  -27.8440  -19.4997   20.7075 H   0  0  0  0  0  0
  -30.3605  -18.3466   19.2986 H   0  0  0  0  0  0
  -27.0807  -23.8601   20.6105 H   0  0  0  0  0  0
  -27.7903  -23.9449   19.0415 H   0  0  0  0  0  0
  -28.6574  -16.4092   20.6038 H   0  0  0  0  0  0
  1 25  1  0  0  0
  1 30  2  0  0  0
  1 81  1  0  0  0
  2  3  1  0  0  0
  2 25  1  0  0  0
  2 82  1  0  0  0
  2 83  1  0  0  0
  3  4  1  0  0  0
  3 84  1  0  0  0
  3 85  1  0  0  0
  4  5  1  0  0  0
  4 86  1  0  0  0
  4 87  1  0  0  0
  5  6  1  0  0  0
  5 26  1  0  0  0
  5 88  1  0  0  0
  6 25  1  0  0  0
  6 89  1  0  0  0
  6 90  1  0  0  0
  7  8  2  0  0  0
  7 26  1  0  0  0
  7 29  1  0  0  0
  8  9  1  0  0  0
  8 22  1  0  0  0
  9 10  1  0  0  0
  9 27  2  0  0  0
 10 11  2  0  0  0
 10 15  1  0  0  0
 11 12  1  0  0  0
 11 91  1  0  0  0
 12 13  2  0  0  0
 12 92  1  0  0  0
 13 14  1  0  0  0
 13 31  1  0  0  0
 14 15  2  0  0  0
 14 93  1  0  0  0
 15 94  1  0  0  0
 16 17  2  0  0  0
 16 21  1  0  0  0
 16 31  1  0  0  0
 17 18  1  0  0  0
 17 95  1  0  0  0
 18 19  2  0  0  0
 18 96  1  0  0  0
 19 20  1  0  0  0
 19 24  1  0  0  0
 20 21  2  0  0  0
 20 97  1  0  0  0
 21 23  1  0  0  0
 22 28  1  0  0  0
 22 32  2  0  0  0
 26 27  1  0  0  0
 28 98  1  0  0  0
 28 99  1  0  0  0
 29100  1  0  0  0
 29101  1  0  0  0
 33 34  1  0  0  0
 33 66  1  0  0  0
 33 70  2  0  0  0
 34 36  1  0  0  0
 34 59  1  0  0  0
 34102  1  0  0  0
 35 44  2  0  0  0
 35 45  1  0  0  0
 35 68  1  0  0  0
 36 56  1  0  0  0
 36103  1  0  0  0
 37 39  1  0  0  0
 37 47  1  0  0  0
 37 66  1  0  0  0
 37104  1  0  0  0
 38 43  2  0  0  0
 38 46  1  0  0  0
 38 47  1  0  0  0
 39 64  1  0  0  0
 39 67  2  0  0  0
 40 52  1  0  0  0
 40 53  2  0  0  0
 40 58  1  0  0  0
 41105  1  0  0  0
 41106  1  0  0  0
 41107  1  0  0  0
 41 48  1  0  0  0
 42 43  1  0  0  0
 42 66  1  0  0  0
 42108  1  0  0  0
 42109  1  0  0  0
 43 44  1  0  0  0
 44110  1  0  0  0
 45 46  2  0  0  0
 45111  1  0  0  0
 46112  1  0  0  0
 47113  1  0  0  0
 47114  1  0  0  0
 48 56  1  0  0  0
 48 65  1  0  0  0
 48115  1  0  0  0
 49 50  1  0  0  0
 49 53  1  0  0  0
 49 64  1  0  0  0
 49116  1  0  0  0
 50 51  1  0  0  0
 50117  1  0  0  0
 50118  1  0  0  0
 51 52  1  0  0  0
 51119  1  0  0  0
 51120  1  0  0  0
 52121  1  0  0  0
 52122  1  0  0  0
 53 54  1  0  0  0
 54 55  2  0  0  0
 54123  1  0  0  0
 55 57  1  0  0  0
 55124  1  0  0  0
 56 69  2  0  0  0
 57 58  2  0  0  0
 57125  1  0  0  0
 58126  1  0  0  0
 59 60  1  0  0  0
 59 61  1  0  0  0
 59 62  1  0  0  0
 60127  1  0  0  0
 60128  1  0  0  0
 60129  1  0  0  0
 61130  1  0  0  0
 61131  1  0  0  0
 61132  1  0  0  0
 62133  1  0  0  0
 62134  1  0  0  0
 62135  1  0  0  0
 63 65  1  0  0  0
 63136  1  0  0  0
 63137  1  0  0  0
 63138  1  0  0  0
 64139  1  0  0  0
 65140  1  0  0  0
 68 79  1  0  0  0
 71 72  2  0  0  0
 71 73  1  0  0  0
 71141  1  0  0  0
 72 80  1  0  0  0
 72142  1  0  0  0
 73 74  2  0  0  0
 73 76  1  0  0  0
 74 75  1  0  0  0
 74 77  1  0  0  0
 75 79  1  0  0  0
 75 80  2  0  0  0
 76 78  1  0  0  0
 76143  1  0  0  0
 76144  1  0  0  0
 77 78  1  0  0  0
 77145  1  0  0  0
 77146  1  0  0  0
 78 81  1  0  0  0
 78147  1  0  0  0
 79148  1  0  0  0
 79149  1  0  0  0
 81150  1  0  0  0
M  ISO  4   1 100  68 101  79 101  81 100
M  END
> <chiral flag>
0

> <version>
0

> <s_m_source_file>
/data/baiqing/PycharmProjects/Reinvent-master-3.2/result/LINK_invent/BTK/process_docking_weight1_custom_sum_contain_oxygen_bond_distance_aromatic_linkinvent_7_9_3/rearranged_h_0182.sdf

> <i_m_source_file_index>
52

> <r_mmod_Potential_Energy-OPLS-2005>
1381.82360839844

> <r_mmod_Stretch_Energy-OPLS-2005>
653.497619628906

> <r_mmod_Bend_Energy-OPLS-2005>
581.773681640625

> <r_mmod_Torsional_Energy-OPLS-2005>
203.763092041016

> <r_mmod_Improper_Torsional_Energy-OPLS-2005>
3.95974898338318

> <r_mmod_Van_der_Waal_Energy-OPLS-2005>
120.392768859863

> <r_mmod_Electrostatic_Energy-OPLS-2005>
-479.183044433594

> <r_mmod_Solvation_Energy-OPLS-2005>
-245.351913452148

> <b_mmod_Minimization_Converged-OPLS-2005>
0

> <r_mmod_RMS_Derivative-OPLS-2005>
0.330438137054443

$$$$
52
                    3D
 Structure written by MMmdl.
162170  0  0  1  0            999 V2000
  -30.5717  -15.0034   20.4507 C   0  0  0  0  0  0
  -30.4457  -12.6305   19.5174 C   0  0  0  0  0  0
  -29.5514  -12.5713   18.2604 C   0  0  0  0  0  0
  -28.0749  -12.3628   18.6533 C   0  0  0  0  0  0
  -27.6408  -13.2651   19.8408 C   0  0  2  0  0  0
  -28.6831  -13.2968   20.9807 C   0  0  0  0  0  0
  -25.2583  -13.8213   20.5925 C   0  0  0  0  0  0
  -24.1910  -13.0434   20.9373 C   0  0  0  0  0  0
  -24.6491  -11.6937   20.8723 C   0  0  0  0  0  0
  -23.9150  -10.4315   21.0318 C   0  0  0  0  0  0
  -24.3714   -9.4246   21.9103 C   0  0  0  0  0  0
  -23.6356   -8.2304   22.0740 C   0  0  0  0  0  0
  -22.4328   -8.0310   21.3540 C   0  0  0  0  0  0
  -21.9957   -9.0288   20.4653 C   0  0  0  0  0  0
  -22.7316  -10.2138   20.2979 C   0  0  0  0  0  0
  -21.6874   -6.0734   22.5255 C   0  0  0  0  0  0
  -21.4068   -6.5638   23.8194 C   0  0  0  0  0  0
  -21.3664   -5.6779   24.9150 C   0  0  0  0  0  0
  -21.6015   -4.3032   24.7197 C   0  0  0  0  0  0
  -21.8838   -3.8130   23.4327 C   0  0  0  0  0  0
  -21.9243   -4.6962   22.3388 C   0  0  0  0  0  0
  -22.7908  -13.5206   21.1910 C   0  0  0  0  0  0
  -22.1672   -4.2142   21.0963 F   0  0  0  0  0  0
  -21.5610   -3.4513   25.7709 F   0  0  0  0  0  0
  -29.9576  -13.7409   20.3986 N   0  0  0  0  0  0
  -26.2970  -12.9484   20.3188 N   0  0  0  0  0  0
  -25.9412  -11.6605   20.5576 N   0  0  0  0  0  0
  -22.0424  -12.8290   22.0406 N   0  0  0  0  0  0
  -25.4228  -15.1983   20.4570 N   0  0  0  0  0  0
  -31.7316  -15.0542   20.0246 O   0  0  0  0  0  0
  -21.6685   -6.8905   21.4229 O   0  0  0  0  0  0
  -22.3660  -14.5476   20.6631 O   0  0  0  0  0  0
  -24.6413  -31.8452   23.1891 C   0  0  0  0  0  0
  -25.9186  -32.4711   23.8271 C   0  0  1  0  0  0
  -27.2318  -27.1634   20.1441 C   0  0  0  0  0  0
  -25.5926  -33.8523   24.2185 N   0  0  0  0  0  0
  -23.4435  -30.4606   21.5370 C   0  0  2  0  0  0
  -24.8911  -28.8852   20.1142 C   0  0  0  0  0  0
  -22.7531  -29.4570   22.4930 C   0  0  0  0  0  0
  -18.0301  -28.1394   22.8486 C   0  0  0  0  0  0
  -24.1489  -36.7277   23.2655 C   0  0  0  0  0  0
  -25.9954  -30.7266   21.3795 C   0  0  0  0  0  0
  -26.0681  -29.3388   20.7251 C   0  0  0  0  0  0
  -27.2425  -28.4964   20.7143 C   0  0  0  0  0  0
  -26.0255  -26.8002   19.5060 C   0  0  0  0  0  0
  -24.8816  -27.6318   19.4887 C   0  0  0  0  0  0
  -23.6640  -29.7862   20.1584 C   0  0  0  0  0  0
  -25.4114  -36.3062   24.0328 C   0  0  1  0  0  0
  -20.5898  -28.3710   23.1273 C   0  0  2  0  0  0
  -20.6794  -26.9426   22.5420 C   0  0  0  0  0  0
  -19.5775  -26.6367   21.5237 C   0  0  0  0  0  0
  -18.1939  -26.7925   22.1627 C   0  0  0  0  0  0
  -19.1543  -28.8861   23.2861 C   0  0  0  0  0  0
  -18.9460  -30.1471   23.8886 C   0  0  0  0  0  0
  -17.6477  -30.6598   24.0559 C   0  0  0  0  0  0
  -25.9069  -34.9422   23.5066 C   0  0  0  0  0  0
  -16.5348  -29.9084   23.6345 C   0  0  0  0  0  0
  -16.7269  -28.6523   23.0377 C   0  0  0  0  0  0
  -26.4502  -31.6568   25.0687 C   0  0  0  0  0  0
  -25.3674  -31.3754   26.1353 C   0  0  0  0  0  0
  -27.0376  -30.2982   24.6241 C   0  0  0  0  0  0
  -27.6058  -32.4316   25.7465 C   0  0  0  0  0  0
  -27.5579  -37.1787   24.8457 C   0  0  0  0  0  0
  -21.4224  -29.3014   22.3630 N   0  0  0  0  0  0
  -26.4291  -37.3755   23.9419 N   0  0  0  0  0  0
  -24.7140  -31.0336   22.0895 N   0  0  0  0  0  0
  -23.4169  -28.8106   23.3074 O   0  0  0  0  0  0
  -28.3229  -26.2287   20.1261 O   0  0  0  0  0  0
  -26.5683  -34.8937   22.4663 O   0  0  0  0  0  0
  -23.5523  -32.1316   23.7118 O   0  0  0  0  0  0
  -29.5824  -16.4413   22.2227 C   0  0  0  0  0  0
  -28.0781  -16.7637   22.4601 C   0  0  0  0  0  0
  -27.9916  -17.5708   20.0631 C   0  0  0  0  0  0
  -29.5355  -17.5949   20.0653 C   0  0  1  0  0  0
  -30.2814  -22.1426   21.7005 C   0  0  0  0  0  0
  -29.9287  -19.1691   20.5994 C   0  0  0  0  0  0
  -28.8889  -23.3674   19.8580 C   0  0  0  0  0  0
  -28.1713  -24.7387   20.5378 C   0  0  0  0  0  0
  -29.1784  -21.8935   20.6515 C   0  0  1  0  0  0
  -29.8779  -16.2203   20.8020 N   0  0  0  0  0  0
  -27.4590  -17.6656   21.4510 N   0  3  0  0  0  0
  -29.4587  -20.5224   19.8892 N   0  3  0  0  0  0
  -31.4891  -12.7601   19.2291 H   0  0  0  0  0  0
  -30.4078  -11.6738   20.0418 H   0  0  0  0  0  0
  -29.8810  -11.7662   17.6066 H   0  0  0  0  0  0
  -29.6624  -13.4903   17.6809 H   0  0  0  0  0  0
  -27.9417  -11.3120   18.9133 H   0  0  0  0  0  0
  -27.4444  -12.5437   17.7830 H   0  0  0  0  0  0
  -27.5957  -14.2752   19.4335 H   0  0  0  0  0  0
  -28.7872  -12.3222   21.4610 H   0  0  0  0  0  0
  -28.3636  -13.9775   21.7666 H   0  0  0  0  0  0
  -25.2853   -9.5720   22.4673 H   0  0  0  0  0  0
  -24.0005   -7.4735   22.7516 H   0  0  0  0  0  0
  -21.0825   -8.8856   19.9030 H   0  0  0  0  0  0
  -22.3760  -10.9663   19.6075 H   0  0  0  0  0  0
  -21.2065   -7.6149   23.9698 H   0  0  0  0  0  0
  -21.1443   -6.0498   25.9052 H   0  0  0  0  0  0
  -22.0624   -2.7578   23.2830 H   0  0  0  0  0  0
  -22.3964  -11.9999   22.4940 H   0  0  0  0  0  0
  -21.0958  -13.1263   22.2252 H   0  0  0  0  0  0
  -24.5522  -15.7147   20.5049 H   0  0  0  0  0  0
  -26.0096  -15.5089   19.6952 H   0  0  0  0  0  0
  -26.7237  -32.5349   23.1014 H   0  0  0  0  0  0
  -24.9967  -33.9624   25.0262 H   0  0  0  0  0  0
  -22.7496  -31.2883   21.3831 H   0  0  0  0  0  0
  -23.3763  -35.9599   23.3279 H   0  0  0  0  0  0
  -24.3599  -36.8921   22.2078 H   0  0  0  0  0  0
  -23.7198  -37.6445   23.6710 H   0  0  0  0  0  0
  -26.1437  -31.4805   20.6033 H   0  0  0  0  0  0
  -26.8730  -30.7836   22.0132 H   0  0  0  0  0  0
  -28.1500  -28.8510   21.1829 H   0  0  0  0  0  0
  -25.9625  -25.8422   19.0096 H   0  0  0  0  0  0
  -23.9852  -27.2811   18.9981 H   0  0  0  0  0  0
  -23.7911  -30.5583   19.3996 H   0  0  0  0  0  0
  -22.7808  -29.2202   19.8552 H   0  0  0  0  0  0
  -25.1301  -36.1901   25.0811 H   0  0  0  0  0  0
  -20.9995  -28.3288   24.1410 H   0  0  0  0  0  0
  -20.5712  -26.2316   23.3626 H   0  0  0  0  0  0
  -21.6651  -26.7461   22.1200 H   0  0  0  0  0  0
  -19.6945  -25.6275   21.1284 H   0  0  0  0  0  0
  -19.6733  -27.3173   20.6769 H   0  0  0  0  0  0
  -17.4220  -26.6664   21.4022 H   0  0  0  0  0  0
  -18.0351  -26.0079   22.9029 H   0  0  0  0  0  0
  -19.7943  -30.7272   24.2250 H   0  0  0  0  0  0
  -17.5034  -31.6289   24.5121 H   0  0  0  0  0  0
  -15.5361  -30.2995   23.7699 H   0  0  0  0  0  0
  -15.8666  -28.0828   22.7127 H   0  0  0  0  0  0
  -24.5873  -30.7091   25.7654 H   0  0  0  0  0  0
  -24.8836  -32.2918   26.4737 H   0  0  0  0  0  0
  -25.7911  -30.8925   27.0168 H   0  0  0  0  0  0
  -26.2978  -29.6698   24.1258 H   0  0  0  0  0  0
  -27.3993  -29.7287   25.4826 H   0  0  0  0  0  0
  -27.8889  -30.4237   23.9558 H   0  0  0  0  0  0
  -27.2681  -33.3648   26.2003 H   0  0  0  0  0  0
  -28.3897  -32.6791   25.0300 H   0  0  0  0  0  0
  -28.0696  -31.8433   26.5396 H   0  0  0  0  0  0
  -28.2562  -38.0123   24.7563 H   0  0  0  0  0  0
  -28.1088  -36.2647   24.6199 H   0  0  0  0  0  0
  -27.2308  -37.1321   25.8858 H   0  0  0  0  0  0
  -20.9454  -29.8689   21.6776 H   0  0  0  0  0  0
  -26.0156  -38.2820   24.1422 H   0  0  0  0  0  0
  -29.8806  -15.5949   22.8393 H   0  0  0  0  0  0
  -30.2123  -17.2585   22.5800 H   0  0  0  0  0  0
  -27.9551  -17.2164   23.4459 H   0  0  0  0  0  0
  -27.4964  -15.8448   22.4860 H   0  0  0  0  0  0
  -27.6249  -16.6618   19.5859 H   0  0  0  0  0  0
  -27.5869  -18.3921   19.4689 H   0  0  0  0  0  0
  -29.8938  -17.4927   19.0364 H   0  0  0  0  0  0
  -30.0094  -22.9612   22.3688 H   0  0  0  0  0  0
  -31.2284  -22.4141   21.2292 H   0  0  0  0  0  0
  -30.4611  -21.2772   22.3386 H   0  0  0  0  0  0
  -31.0160  -19.2266   20.6719 H   0  0  0  0  0  0
  -29.5936  -19.2636   21.6309 H   0  0  0  0  0  0
  -29.8532  -23.6921   19.4627 H   0  0  0  0  0  0
  -28.3013  -23.1420   18.9665 H   0  0  0  0  0  0
  -28.4835  -24.7438   21.5818 H   0  0  0  0  0  0
  -27.1036  -24.5269   20.5959 H   0  0  0  0  0  0
  -28.2642  -21.6877   21.2089 H   0  0  0  0  0  0
  -27.5653  -18.6117   21.7808 H   0  0  0  0  0  0
  -26.4636  -17.4927   21.4449 H   0  0  0  0  0  0
  -28.6278  -20.3350   19.3458 H   0  0  0  0  0  0
  -30.1722  -20.7189   19.2009 H   0  0  0  0  0  0
  1 25  1  0  0  0
  1 30  2  0  0  0
  1 80  1  0  0  0
  2  3  1  0  0  0
  2 25  1  0  0  0
  2 83  1  0  0  0
  2 84  1  0  0  0
  3  4  1  0  0  0
  3 85  1  0  0  0
  3 86  1  0  0  0
  4  5  1  0  0  0
  4 87  1  0  0  0
  4 88  1  0  0  0
  5  6  1  0  0  0
  5 26  1  0  0  0
  5 89  1  0  0  0
  6 25  1  0  0  0
  6 90  1  0  0  0
  6 91  1  0  0  0
  7  8  2  0  0  0
  7 26  1  0  0  0
  7 29  1  0  0  0
  8  9  1  0  0  0
  8 22  1  0  0  0
  9 10  1  0  0  0
  9 27  2  0  0  0
 10 11  2  0  0  0
 10 15  1  0  0  0
 11 12  1  0  0  0
 11 92  1  0  0  0
 12 13  2  0  0  0
 12 93  1  0  0  0
 13 14  1  0  0  0
 13 31  1  0  0  0
 14 15  2  0  0  0
 14 94  1  0  0  0
 15 95  1  0  0  0
 16 17  2  0  0  0
 16 21  1  0  0  0
 16 31  1  0  0  0
 17 18  1  0  0  0
 17 96  1  0  0  0
 18 19  2  0  0  0
 18 97  1  0  0  0
 19 20  1  0  0  0
 19 24  1  0  0  0
 20 21  2  0  0  0
 20 98  1  0  0  0
 21 23  1  0  0  0
 22 28  1  0  0  0
 22 32  2  0  0  0
 26 27  1  0  0  0
 28 99  1  0  0  0
 28100  1  0  0  0
 29101  1  0  0  0
 29102  1  0  0  0
 33 34  1  0  0  0
 33 66  1  0  0  0
 33 70  2  0  0  0
 34 36  1  0  0  0
 34 59  1  0  0  0
 34103  1  0  0  0
 35 44  2  0  0  0
 35 45  1  0  0  0
 35 68  1  0  0  0
 36 56  1  0  0  0
 36104  1  0  0  0
 37 39  1  0  0  0
 37 47  1  0  0  0
 37 66  1  0  0  0
 37105  1  0  0  0
 38 43  2  0  0  0
 38 46  1  0  0  0
 38 47  1  0  0  0
 39 64  1  0  0  0
 39 67  2  0  0  0
 40 52  1  0  0  0
 40 53  2  0  0  0
 40 58  1  0  0  0
 41106  1  0  0  0
 41107  1  0  0  0
 41108  1  0  0  0
 41 48  1  0  0  0
 42 43  1  0  0  0
 42 66  1  0  0  0
 42109  1  0  0  0
 42110  1  0  0  0
 43 44  1  0  0  0
 44111  1  0  0  0
 45 46  2  0  0  0
 45112  1  0  0  0
 46113  1  0  0  0
 47114  1  0  0  0
 47115  1  0  0  0
 48 56  1  0  0  0
 48 65  1  0  0  0
 48116  1  0  0  0
 49 50  1  0  0  0
 49 53  1  0  0  0
 49 64  1  0  0  0
 49117  1  0  0  0
 50 51  1  0  0  0
 50118  1  0  0  0
 50119  1  0  0  0
 51 52  1  0  0  0
 51120  1  0  0  0
 51121  1  0  0  0
 52122  1  0  0  0
 52123  1  0  0  0
 53 54  1  0  0  0
 54 55  2  0  0  0
 54124  1  0  0  0
 55 57  1  0  0  0
 55125  1  0  0  0
 56 69  2  0  0  0
 57 58  2  0  0  0
 57126  1  0  0  0
 58127  1  0  0  0
 59 60  1  0  0  0
 59 61  1  0  0  0
 59 62  1  0  0  0
 60128  1  0  0  0
 60129  1  0  0  0
 60130  1  0  0  0
 61131  1  0  0  0
 61132  1  0  0  0
 61133  1  0  0  0
 62134  1  0  0  0
 62135  1  0  0  0
 62136  1  0  0  0
 63 65  1  0  0  0
 63137  1  0  0  0
 63138  1  0  0  0
 63139  1  0  0  0
 64140  1  0  0  0
 65141  1  0  0  0
 68 78  1  0  0  0
 71 72  1  0  0  0
 71 80  1  0  0  0
 71142  1  0  0  0
 71143  1  0  0  0
 72 81  1  0  0  0
 72144  1  0  0  0
 72145  1  0  0  0
 73 74  1  0  0  0
 73 81  1  0  0  0
 73146  1  0  0  0
 73147  1  0  0  0
 74 76  1  0  0  0
 74 80  1  0  0  0
 74148  1  0  0  0
 75149  1  0  0  0
 75150  1  0  0  0
 75151  1  0  0  0
 75 79  1  0  0  0
 76 82  1  0  0  0
 76152  1  0  0  0
 76153  1  0  0  0
 77 78  1  0  0  0
 77 79  1  0  0  0
 77154  1  0  0  0
 77155  1  0  0  0
 78156  1  0  0  0
 78157  1  0  0  0
 79 82  1  0  0  0
 79158  1  0  0  0
 81159  1  0  0  0
 81160  1  0  0  0
 82161  1  0  0  0
 82162  1  0  0  0
M  CHG  2  81   1  82   1
M  ISO  4   1 100  68 101  78 101  80 100
M  END
> <chiral flag>
0

> <version>
0

> <s_m_source_file>
/data/baiqing/PycharmProjects/Reinvent-master-3.2/result/LINK_invent/BTK/process_docking_weight1_custom_sum_contain_oxygen_bond_distance_aromatic_linkinvent_7_9_3/rearranged_h_0182.sdf

> <i_m_source_file_index>
53

> <r_mmod_Potential_Energy-OPLS-2005>
472.855712890625

> <r_mmod_Stretch_Energy-OPLS-2005>
294.358612060547

> <r_mmod_Bend_Energy-OPLS-2005>
297.714019775391

> <r_mmod_Torsional_Energy-OPLS-2005>
453.128601074219

> <r_mmod_Improper_Torsional_Energy-OPLS-2005>
8.48639011383057

> <r_mmod_Van_der_Waal_Energy-OPLS-2005>
111.173454284668

> <r_mmod_Electrostatic_Energy-OPLS-2005>
159.23844909668

> <r_mmod_Solvation_Energy-OPLS-2005>
-1042.82104492188

> <b_mmod_Minimization_Converged-OPLS-2005>
0

> <r_mmod_RMS_Derivative-OPLS-2005>
6.41953802108765

$$$$
53
                    3D
 Structure written by MMmdl.
152161  0  0  1  0            999 V2000
  -30.4848  -15.0205   20.4373 C   0  0  0  0  0  0
  -30.4557  -12.6412   19.5085 C   0  0  0  0  0  0
  -29.5336  -12.5323   18.2694 C   0  0  0  0  0  0
  -28.0716  -12.2950   18.6928 C   0  0  0  0  0  0
  -27.6326  -13.2425   19.8399 C   0  0  2  0  0  0
  -28.6714  -13.2864   20.9800 C   0  0  0  0  0  0
  -25.2509  -13.8208   20.5709 C   0  0  0  0  0  0
  -24.1809  -13.0442   20.9215 C   0  0  0  0  0  0
  -24.6416  -11.6922   20.8751 C   0  0  0  0  0  0
  -23.9093  -10.4290   21.0415 C   0  0  0  0  0  0
  -24.3642   -9.4197   21.9189 C   0  0  0  0  0  0
  -23.6302   -8.2238   22.0754 C   0  0  0  0  0  0
  -22.4277   -8.0289   21.3550 C   0  0  0  0  0  0
  -21.9929   -9.0273   20.4655 C   0  0  0  0  0  0
  -22.7269  -10.2141   20.3062 C   0  0  0  0  0  0
  -21.6859   -6.0742   22.5281 C   0  0  0  0  0  0
  -21.4015   -6.5641   23.8216 C   0  0  0  0  0  0
  -21.3650   -5.6786   24.9175 C   0  0  0  0  0  0
  -21.6048   -4.3051   24.7223 C   0  0  0  0  0  0
  -21.8822   -3.8152   23.4341 C   0  0  0  0  0  0
  -21.9193   -4.6968   22.3403 C   0  0  0  0  0  0
  -22.7827  -13.5229   21.1856 C   0  0  0  0  0  0
  -22.1662   -4.2157   21.0977 F   0  0  0  0  0  0
  -21.5625   -3.4532   25.7734 F   0  0  0  0  0  0
  -29.9359  -13.7347   20.3821 N   0  0  0  0  0  0
  -26.2914  -12.9416   20.3241 N   0  0  0  0  0  0
  -25.9342  -11.6554   20.5743 N   0  0  0  0  0  0
  -22.0466  -12.8242   22.0410 N   0  0  0  0  0  0
  -25.4229  -15.1941   20.4156 N   0  0  0  0  0  0
  -31.6772  -15.1162   20.1160 O   0  0  0  0  0  0
  -21.6639   -6.8892   21.4245 O   0  0  0  0  0  0
  -22.3520  -14.5525   20.6673 O   0  0  0  0  0  0
  -24.6470  -31.8400   23.1844 C   0  0  0  0  0  0
  -25.9246  -32.4674   23.8221 C   0  0  1  0  0  0
  -27.2009  -27.0804   20.1676 C   0  0  0  0  0  0
  -25.6007  -33.8486   24.2149 N   0  0  0  0  0  0
  -23.4499  -30.4586   21.5303 C   0  0  2  0  0  0
  -24.8971  -28.8758   20.1086 C   0  0  0  0  0  0
  -22.7571  -29.4522   22.4838 C   0  0  0  0  0  0
  -18.0306  -28.1407   22.8479 C   0  0  0  0  0  0
  -24.1493  -36.7242   23.2631 C   0  0  0  0  0  0
  -26.0072  -30.6991   21.3860 C   0  0  0  0  0  0
  -26.0756  -29.3019   20.7336 C   0  0  0  0  0  0
  -27.2273  -28.4209   20.7467 C   0  0  0  0  0  0
  -26.0018  -26.7694   19.4942 C   0  0  0  0  0  0
  -24.8765  -27.6255   19.4702 C   0  0  0  0  0  0
  -23.6794  -29.7897   20.1482 C   0  0  0  0  0  0
  -25.4123  -36.3010   24.0294 C   0  0  1  0  0  0
  -20.5920  -28.3730   23.1250 C   0  0  2  0  0  0
  -20.6806  -26.9440   22.5416 C   0  0  0  0  0  0
  -19.5779  -26.6391   21.5228 C   0  0  0  0  0  0
  -18.1951  -26.7947   22.1624 C   0  0  0  0  0  0
  -19.1562  -28.8882   23.2856 C   0  0  0  0  0  0
  -18.9483  -30.1479   23.8879 C   0  0  0  0  0  0
  -17.6479  -30.6606   24.0563 C   0  0  0  0  0  0
  -25.9082  -34.9397   23.5013 C   0  0  0  0  0  0
  -16.5370  -29.9096   23.6344 C   0  0  0  0  0  0
  -16.7294  -28.6518   23.0359 C   0  0  0  0  0  0
  -26.4560  -31.6542   25.0659 C   0  0  0  0  0  0
  -25.3738  -31.3773   26.1348 C   0  0  0  0  0  0
  -27.0423  -30.2934   24.6254 C   0  0  0  0  0  0
  -27.6079  -32.4306   25.7470 C   0  0  0  0  0  0
  -27.5562  -37.1775   24.8464 C   0  0  0  0  0  0
  -21.4259  -29.3054   22.3609 N   0  0  0  0  0  0
  -26.4272  -37.3738   23.9405 N   0  0  0  0  0  0
  -24.7215  -31.0205   22.0906 N   0  0  0  0  0  0
  -23.4204  -28.8075   23.3002 O   0  0  0  0  0  0
  -28.2308  -26.0601   20.2525 O   0  0  0  0  0  0
  -26.5660  -34.8915   22.4588 O   0  0  0  0  0  0
  -23.5586  -32.1307   23.7043 O   0  0  0  0  0  0
  -32.4470  -19.5912   21.3766 C   0  0  0  0  0  0
  -31.4341  -18.6951   21.0383 C   0  0  0  0  0  0
  -32.1617  -20.9463   21.3389 C   0  0  0  0  0  0
  -30.1327  -19.1032   20.6494 C   0  0  0  0  0  0
  -29.9140  -20.6328   20.6356 C   0  0  0  0  0  0
  -28.9309  -16.8290   21.5595 C   0  0  0  0  0  0
  -29.3183  -17.6993   20.3315 C   0  0  2  0  0  0
  -29.0172  -23.2241   20.4984 C   0  0  0  0  0  0
  -27.9648  -24.5085   20.0835 C   0  0  0  0  0  0
  -30.9554  -21.4159   20.9928 N   0  0  0  0  0  0
  -29.6109  -16.1664   20.5143 N   0  0  0  0  0  0
  -28.8463  -21.6366   20.3284 N   0  0  0  0  0  0
  -31.4804  -12.8350   19.1868 H   0  0  0  0  0  0
  -30.4934  -11.6972   20.0564 H   0  0  0  0  0  0
  -29.8751  -11.7257   17.6185 H   0  0  0  0  0  0
  -29.5979  -13.4510   17.6834 H   0  0  0  0  0  0
  -27.9971  -11.2591   19.0284 H   0  0  0  0  0  0
  -27.4038  -12.3875   17.8359 H   0  0  0  0  0  0
  -27.5930  -14.2380   19.3972 H   0  0  0  0  0  0
  -28.7822  -12.3112   21.4570 H   0  0  0  0  0  0
  -28.3533  -13.9780   21.7598 H   0  0  0  0  0  0
  -25.2791   -9.5659   22.4763 H   0  0  0  0  0  0
  -24.0009   -7.4626   22.7470 H   0  0  0  0  0  0
  -21.0855   -8.8811   19.8966 H   0  0  0  0  0  0
  -22.3745  -10.9688   19.6167 H   0  0  0  0  0  0
  -21.2008   -7.6149   23.9727 H   0  0  0  0  0  0
  -21.1464   -6.0511   25.9080 H   0  0  0  0  0  0
  -22.0608   -2.7614   23.2842 H   0  0  0  0  0  0
  -22.4084  -11.9919   22.4844 H   0  0  0  0  0  0
  -21.1068  -13.1276   22.2572 H   0  0  0  0  0  0
  -24.6644  -15.8540   20.5446 H   0  0  0  0  0  0
  -26.2801  -15.6283   20.0997 H   0  0  0  0  0  0
  -26.7292  -32.5261   23.0929 H   0  0  0  0  0  0
  -25.0201  -33.9607   25.0334 H   0  0  0  0  0  0
  -22.7538  -31.2856   21.3769 H   0  0  0  0  0  0
  -23.3751  -35.9578   23.3286 H   0  0  0  0  0  0
  -24.3571  -36.8889   22.2044 H   0  0  0  0  0  0
  -23.7267  -37.6440   23.6686 H   0  0  0  0  0  0
  -26.1565  -31.4472   20.6065 H   0  0  0  0  0  0
  -26.8812  -30.7587   22.0232 H   0  0  0  0  0  0
  -28.1183  -28.7415   21.2672 H   0  0  0  0  0  0
  -25.9018  -25.8135   19.0011 H   0  0  0  0  0  0
  -23.9801  -27.2941   18.9637 H   0  0  0  0  0  0
  -23.8329  -30.5701   19.4025 H   0  0  0  0  0  0
  -22.7899  -29.2471   19.8235 H   0  0  0  0  0  0
  -25.1319  -36.1798   25.0785 H   0  0  0  0  0  0
  -21.0006  -28.3320   24.1372 H   0  0  0  0  0  0
  -20.5729  -26.2339   23.3625 H   0  0  0  0  0  0
  -21.6664  -26.7473   22.1186 H   0  0  0  0  0  0
  -19.6949  -25.6293   21.1273 H   0  0  0  0  0  0
  -19.6716  -27.3189   20.6742 H   0  0  0  0  0  0
  -17.4225  -26.6700   21.4020 H   0  0  0  0  0  0
  -18.0337  -26.0094   22.9020 H   0  0  0  0  0  0
  -19.7958  -30.7309   24.2226 H   0  0  0  0  0  0
  -17.5038  -31.6284   24.5169 H   0  0  0  0  0  0
  -15.5372  -30.3001   23.7684 H   0  0  0  0  0  0
  -15.8691  -28.0842   22.7078 H   0  0  0  0  0  0
  -24.5908  -30.7141   25.7664 H   0  0  0  0  0  0
  -24.8949  -32.2983   26.4672 H   0  0  0  0  0  0
  -25.7986  -30.8991   27.0182 H   0  0  0  0  0  0
  -26.3041  -29.6651   24.1260 H   0  0  0  0  0  0
  -27.4052  -29.7230   25.4814 H   0  0  0  0  0  0
  -27.8945  -30.4159   23.9567 H   0  0  0  0  0  0
  -27.2666  -33.3630   26.1981 H   0  0  0  0  0  0
  -28.3948  -32.6822   25.0348 H   0  0  0  0  0  0
  -28.0698  -31.8470   26.5449 H   0  0  0  0  0  0
  -28.2566  -38.0084   24.7494 H   0  0  0  0  0  0
  -28.1066  -36.2603   24.6296 H   0  0  0  0  0  0
  -27.2279  -37.1429   25.8871 H   0  0  0  0  0  0
  -20.9456  -29.8763   21.6797 H   0  0  0  0  0  0
  -26.0112  -38.2794   24.1437 H   0  0  0  0  0  0
  -33.4323  -19.2430   21.6530 H   0  0  0  0  0  0
  -31.6929  -17.6485   21.0808 H   0  0  0  0  0  0
  -32.9170  -21.6798   21.5746 H   0  0  0  0  0  0
  -27.8770  -16.5949   21.6992 H   0  0  0  0  0  0
  -29.4969  -16.9485   22.4826 H   0  0  0  0  0  0
  -28.5340  -17.9246   19.6109 H   0  0  0  0  0  0
  -29.9467  -23.4678   19.9823 H   0  0  0  0  0  0
  -29.2375  -23.3700   21.5580 H   0  0  0  0  0  0
  -27.0197  -24.3086   20.5902 H   0  0  0  0  0  0
  -27.7425  -24.3721   19.0254 H   0  0  0  0  0  0
  -27.9384  -21.2932   20.0262 H   0  0  0  0  0  0
  1 25  1  0  0  0
  1 30  2  0  0  0
  1 81  1  0  0  0
  2  3  1  0  0  0
  2 25  1  0  0  0
  2 83  1  0  0  0
  2 84  1  0  0  0
  3  4  1  0  0  0
  3 85  1  0  0  0
  3 86  1  0  0  0
  4  5  1  0  0  0
  4 87  1  0  0  0
  4 88  1  0  0  0
  5  6  1  0  0  0
  5 26  1  0  0  0
  5 89  1  0  0  0
  6 25  1  0  0  0
  6 90  1  0  0  0
  6 91  1  0  0  0
  7  8  2  0  0  0
  7 26  1  0  0  0
  7 29  1  0  0  0
  8  9  1  0  0  0
  8 22  1  0  0  0
  9 10  1  0  0  0
  9 27  2  0  0  0
 10 11  2  0  0  0
 10 15  1  0  0  0
 11 12  1  0  0  0
 11 92  1  0  0  0
 12 13  2  0  0  0
 12 93  1  0  0  0
 13 14  1  0  0  0
 13 31  1  0  0  0
 14 15  2  0  0  0
 14 94  1  0  0  0
 15 95  1  0  0  0
 16 17  2  0  0  0
 16 21  1  0  0  0
 16 31  1  0  0  0
 17 18  1  0  0  0
 17 96  1  0  0  0
 18 19  2  0  0  0
 18 97  1  0  0  0
 19 20  1  0  0  0
 19 24  1  0  0  0
 20 21  2  0  0  0
 20 98  1  0  0  0
 21 23  1  0  0  0
 22 28  1  0  0  0
 22 32  2  0  0  0
 26 27  1  0  0  0
 28 99  1  0  0  0
 28100  1  0  0  0
 29101  1  0  0  0
 29102  1  0  0  0
 33 34  1  0  0  0
 33 66  1  0  0  0
 33 70  2  0  0  0
 34 36  1  0  0  0
 34 59  1  0  0  0
 34103  1  0  0  0
 35 44  2  0  0  0
 35 45  1  0  0  0
 35 68  1  0  0  0
 36 56  1  0  0  0
 36104  1  0  0  0
 37 39  1  0  0  0
 37 47  1  0  0  0
 37 66  1  0  0  0
 37105  1  0  0  0
 38 43  2  0  0  0
 38 46  1  0  0  0
 38 47  1  0  0  0
 39 64  1  0  0  0
 39 67  2  0  0  0
 40 52  1  0  0  0
 40 53  2  0  0  0
 40 58  1  0  0  0
 41106  1  0  0  0
 41107  1  0  0  0
 41108  1  0  0  0
 41 48  1  0  0  0
 42 43  1  0  0  0
 42 66  1  0  0  0
 42109  1  0  0  0
 42110  1  0  0  0
 43 44  1  0  0  0
 44111  1  0  0  0
 45 46  2  0  0  0
 45112  1  0  0  0
 46113  1  0  0  0
 47114  1  0  0  0
 47115  1  0  0  0
 48 56  1  0  0  0
 48 65  1  0  0  0
 48116  1  0  0  0
 49 50  1  0  0  0
 49 53  1  0  0  0
 49 64  1  0  0  0
 49117  1  0  0  0
 50 51  1  0  0  0
 50118  1  0  0  0
 50119  1  0  0  0
 51 52  1  0  0  0
 51120  1  0  0  0
 51121  1  0  0  0
 52122  1  0  0  0
 52123  1  0  0  0
 53 54  1  0  0  0
 54 55  2  0  0  0
 54124  1  0  0  0
 55 57  1  0  0  0
 55125  1  0  0  0
 56 69  2  0  0  0
 57 58  2  0  0  0
 57126  1  0  0  0
 58127  1  0  0  0
 59 60  1  0  0  0
 59 61  1  0  0  0
 59 62  1  0  0  0
 60128  1  0  0  0
 60129  1  0  0  0
 60130  1  0  0  0
 61131  1  0  0  0
 61132  1  0  0  0
 61133  1  0  0  0
 62134  1  0  0  0
 62135  1  0  0  0
 62136  1  0  0  0
 63 65  1  0  0  0
 63137  1  0  0  0
 63138  1  0  0  0
 63139  1  0  0  0
 64140  1  0  0  0
 65141  1  0  0  0
 68 79  1  0  0  0
 71 72  2  0  0  0
 71 73  1  0  0  0
 71142  1  0  0  0
 72 74  1  0  0  0
 72143  1  0  0  0
 73 80  2  0  0  0
 73144  1  0  0  0
 74 75  2  0  0  0
 74 77  1  0  0  0
 75 80  1  0  0  0
 75 82  1  0  0  0
 76 77  1  0  0  0
 76 81  1  0  0  0
 76145  1  0  0  0
 76146  1  0  0  0
 77 81  1  0  0  0
 77147  1  0  0  0
 78 79  1  0  0  0
 78 82  1  0  0  0
 78148  1  0  0  0
 78149  1  0  0  0
 79150  1  0  0  0
 79151  1  0  0  0
 82152  1  0  0  0
M  ISO  4   1 100  68 101  79 101  81 100
M  END
> <chiral flag>
0

> <version>
0

> <s_m_source_file>
/data/baiqing/PycharmProjects/Reinvent-master-3.2/result/LINK_invent/BTK/process_docking_weight1_custom_sum_contain_oxygen_bond_distance_aromatic_linkinvent_7_9_3/rearranged_h_0182.sdf

> <i_m_source_file_index>
54

> <r_mmod_Potential_Energy-OPLS-2005>
729.145690917969

> <r_mmod_Stretch_Energy-OPLS-2005>
341.610321044922

> <r_mmod_Bend_Energy-OPLS-2005>
461.190673828125

> <r_mmod_Torsional_Energy-OPLS-2005>
268.919067382812

> <r_mmod_Improper_Torsional_Energy-OPLS-2005>
15.334077835083

> <r_mmod_Van_der_Waal_Energy-OPLS-2005>
138.953369140625

> <r_mmod_Electrostatic_Energy-OPLS-2005>
-503.549224853516

> <r_mmod_Solvation_Energy-OPLS-2005>
-242.408020019531

> <b_mmod_Minimization_Converged-OPLS-2005>
0

> <r_mmod_RMS_Derivative-OPLS-2005>
3.11025071144104

$$$$
54
                    3D
 Structure written by MMmdl.
180190  0  0  1  0            999 V2000
  -30.7499  -14.4748   20.6266 C   0  0  0  0  0  0
  -30.4154  -12.3328   19.4288 C   0  0  0  0  0  0
  -29.4863  -12.5055   18.2114 C   0  0  0  0  0  0
  -28.0149  -12.3327   18.6285 C   0  0  0  0  0  0
  -27.6549  -13.1906   19.8664 C   0  0  2  0  0  0
  -28.6989  -13.0048   20.9971 C   0  0  0  0  0  0
  -25.2579  -13.8119   20.5669 C   0  0  0  0  0  0
  -24.1825  -13.0417   20.9196 C   0  0  0  0  0  0
  -24.6366  -11.6881   20.8761 C   0  0  0  0  0  0
  -23.9035  -10.4277   21.0432 C   0  0  0  0  0  0
  -24.3593   -9.4190   21.9201 C   0  0  0  0  0  0
  -23.6277   -8.2225   22.0757 C   0  0  0  0  0  0
  -22.4262   -8.0270   21.3542 C   0  0  0  0  0  0
  -21.9895   -9.0245   20.4647 C   0  0  0  0  0  0
  -22.7216  -10.2126   20.3070 C   0  0  0  0  0  0
  -21.6842   -6.0729   22.5276 C   0  0  0  0  0  0
  -21.4005   -6.5636   23.8210 C   0  0  0  0  0  0
  -21.3658   -5.6791   24.9173 C   0  0  0  0  0  0
  -21.6049   -4.3057   24.7229 C   0  0  0  0  0  0
  -21.8818   -3.8144   23.4349 C   0  0  0  0  0  0
  -21.9188   -4.6958   22.3402 C   0  0  0  0  0  0
  -22.7854  -13.5234   21.1864 C   0  0  0  0  0  0
  -22.1656   -4.2147   21.0978 F   0  0  0  0  0  0
  -21.5634   -3.4541   25.7740 F   0  0  0  0  0  0
  -30.0290  -13.3238   20.4538 N   0  0  0  0  0  0
  -26.2982  -12.9253   20.3331 N   0  0  0  0  0  0
  -25.9279  -11.6439   20.5780 N   0  0  0  0  0  0
  -22.0487  -12.8230   22.0415 N   0  0  0  0  0  0
  -25.4308  -15.1834   20.4045 N   0  0  0  0  0  0
  -31.8313  -14.6398   20.0529 O   0  0  0  0  0  0
  -21.6623   -6.8869   21.4236 O   0  0  0  0  0  0
  -22.3550  -14.5550   20.6718 O   0  0  0  0  0  0
  -24.6166  -31.8679   23.2109 C   0  0  0  0  0  0
  -25.9059  -32.4822   23.8406 C   0  0  1  0  0  0
  -27.2242  -27.4178   20.0976 C   0  0  0  0  0  0
  -25.5913  -33.8622   24.2335 N   0  0  0  0  0  0
  -23.4050  -30.4944   21.5514 C   0  0  2  0  0  0
  -24.8524  -28.9703   20.1066 C   0  0  0  0  0  0
  -22.7425  -29.4663   22.4970 C   0  0  0  0  0  0
  -18.0277  -28.1376   22.8485 C   0  0  0  0  0  0
  -24.1482  -36.7305   23.2632 C   0  0  0  0  0  0
  -25.9383  -30.8291   21.3699 C   0  0  0  0  0  0
  -26.0156  -29.4658   20.7106 C   0  0  0  0  0  0
  -27.2076  -28.6979   20.7036 C   0  0  0  0  0  0
  -26.0497  -26.9637   19.4537 C   0  0  0  0  0  0
  -24.8665  -27.7200   19.4709 C   0  0  0  0  0  0
  -23.6139  -29.8360   20.1630 C   0  0  0  0  0  0
  -25.4097  -36.3106   24.0340 C   0  0  1  0  0  0
  -20.5868  -28.3671   23.1305 C   0  0  2  0  0  0
  -20.6765  -26.9399   22.5422 C   0  0  0  0  0  0
  -19.5748  -26.6382   21.5208 C   0  0  0  0  0  0
  -18.1918  -26.7930   22.1602 C   0  0  0  0  0  0
  -19.1527  -28.8839   23.2893 C   0  0  0  0  0  0
  -18.9458  -30.1445   23.8906 C   0  0  0  0  0  0
  -17.6461  -30.6582   24.0565 C   0  0  0  0  0  0
  -25.9040  -34.9476   23.5133 C   0  0  0  0  0  0
  -16.5352  -29.9080   23.6334 C   0  0  0  0  0  0
  -16.7267  -28.6498   23.0350 C   0  0  0  0  0  0
  -26.4471  -31.6598   25.0738 C   0  0  0  0  0  0
  -25.3729  -31.3727   26.1490 C   0  0  0  0  0  0
  -27.0294  -30.3029   24.6132 C   0  0  0  0  0  0
  -27.6061  -32.4309   25.7485 C   0  0  0  0  0  0
  -27.5596  -37.1778   24.8443 C   0  0  0  0  0  0
  -21.4150  -29.3038   22.3712 N   0  0  0  0  0  0
  -26.4273  -37.3806   23.9442 N   0  0  0  0  0  0
  -24.6713  -31.0776   22.1018 N   0  0  0  0  0  0
  -23.4194  -28.8197   23.3008 O   0  0  0  0  0  0
  -28.3357  -26.5947   20.1669 O   0  0  0  0  0  0
  -26.5600  -34.8929   22.4695 O   0  0  0  0  0  0
  -23.5355  -32.1440   23.7493 O   0  0  0  0  0  0
  -31.2028  -23.4256   21.8098 C   0  0  0  0  0  0
  -30.3327  -24.5019   21.5193 C   0  0  0  0  0  0
  -30.7957  -22.1361   21.4111 C   0  0  0  0  0  0
  -29.6180  -21.9803   20.7153 C   0  0  0  0  0  0
  -29.1085  -24.2472   20.8603 C   0  0  0  0  0  0
  -31.5981  -17.5622   21.7108 C   0  0  0  0  0  0
  -29.2800  -17.5526   20.8246 C   0  0  0  0  0  0
  -31.3196  -16.1659   22.3309 C   0  0  0  0  0  0
  -29.0783  -16.1608   21.4748 C   0  0  0  0  0  0
  -29.3793  -20.5167   20.3840 C   0  0  1  0  0  0
  -30.3146  -18.4346   21.5848 C   0  0  0  0  0  0
  -31.4355  -20.7934   21.7181 C   0  0  0  0  0  0
  -31.4169  -20.6136   23.2567 C   0  0  0  0  0  0
  -32.8816  -20.7702   21.1852 C   0  0  0  0  0  0
  -27.0033  -19.5044   18.5242 C   0  0  0  0  0  0
  -28.1439  -20.6421   16.7841 C   0  0  0  0  0  0
  -28.0090  -25.3132   20.7616 C   0  0  0  0  0  0
  -29.2889  -20.2683   18.8471 C   0  0  0  0  0  0
  -28.7620  -22.9961   20.4478 N   0  0  0  0  0  0
  -30.3360  -15.3956   21.5475 N   0  0  0  0  0  0
  -27.9825  -20.5520   18.2337 N   0  0  0  0  0  0
  -30.5736  -19.7961   20.9594 N   0  3  2  0  0  0
  -31.4577  -12.4242   19.1189 H   0  0  0  0  0  0
  -30.3260  -11.3246   19.8364 H   0  0  0  0  0  0
  -29.7418  -11.7813   17.4370 H   0  0  0  0  0  0
  -29.6315  -13.4926   17.7696 H   0  0  0  0  0  0
  -27.8518  -11.2768   18.8492 H   0  0  0  0  0  0
  -27.3542  -12.5741   17.7949 H   0  0  0  0  0  0
  -27.6804  -14.2180   19.5117 H   0  0  0  0  0  0
  -28.6885  -11.9711   21.3465 H   0  0  0  0  0  0
  -28.4474  -13.5976   21.8758 H   0  0  0  0  0  0
  -25.2736   -9.5662   22.4782 H   0  0  0  0  0  0
  -23.9984   -7.4606   22.7468 H   0  0  0  0  0  0
  -21.0829   -8.8765   19.8947 H   0  0  0  0  0  0
  -22.3682  -10.9673   19.6184 H   0  0  0  0  0  0
  -21.1992   -7.6143   23.9712 H   0  0  0  0  0  0
  -21.1486   -6.0523   25.9077 H   0  0  0  0  0  0
  -22.0603   -2.7606   23.2850 H   0  0  0  0  0  0
  -22.4081  -11.9875   22.4787 H   0  0  0  0  0  0
  -21.1111  -13.1268   22.2636 H   0  0  0  0  0  0
  -24.6625  -15.8372   20.5091 H   0  0  0  0  0  0
  -26.2771  -15.6180   20.0615 H   0  0  0  0  0  0
  -26.7137  -32.5528   23.1180 H   0  0  0  0  0  0
  -25.0080  -33.9786   25.0494 H   0  0  0  0  0  0
  -22.6938  -31.3120   21.4150 H   0  0  0  0  0  0
  -23.3770  -35.9606   23.3231 H   0  0  0  0  0  0
  -24.3601  -36.8986   22.2062 H   0  0  0  0  0  0
  -23.7188  -37.6468   23.6691 H   0  0  0  0  0  0
  -26.0576  -31.5981   20.6054 H   0  0  0  0  0  0
  -26.8230  -30.8769   21.9929 H   0  0  0  0  0  0
  -28.0989  -29.0670   21.1912 H   0  0  0  0  0  0
  -26.0296  -26.0165   18.9346 H   0  0  0  0  0  0
  -23.9783  -27.3399   18.9849 H   0  0  0  0  0  0
  -23.7195  -30.6158   19.4075 H   0  0  0  0  0  0
  -22.7372  -29.2583   19.8647 H   0  0  0  0  0  0
  -25.1258  -36.1962   25.0828 H   0  0  0  0  0  0
  -20.9958  -28.3245   24.1428 H   0  0  0  0  0  0
  -20.5652  -26.2280   23.3612 H   0  0  0  0  0  0
  -21.6636  -26.7423   22.1230 H   0  0  0  0  0  0
  -19.6911  -25.6295   21.1230 H   0  0  0  0  0  0
  -19.6703  -27.3201   20.6743 H   0  0  0  0  0  0
  -17.4199  -26.6713   21.3987 H   0  0  0  0  0  0
  -18.0290  -26.0053   22.8972 H   0  0  0  0  0  0
  -19.7933  -30.7259   24.2276 H   0  0  0  0  0  0
  -17.5015  -31.6263   24.5164 H   0  0  0  0  0  0
  -15.5353  -30.2986   23.7656 H   0  0  0  0  0  0
  -15.8666  -28.0825   22.7058 H   0  0  0  0  0  0
  -24.5927  -30.7034   25.7850 H   0  0  0  0  0  0
  -24.8889  -32.2882   26.4896 H   0  0  0  0  0  0
  -25.8084  -30.8948   27.0273 H   0  0  0  0  0  0
  -26.2846  -29.6794   24.1172 H   0  0  0  0  0  0
  -27.4029  -29.7267   25.4606 H   0  0  0  0  0  0
  -27.8697  -30.4326   23.9311 H   0  0  0  0  0  0
  -27.2712  -33.3624   26.2060 H   0  0  0  0  0  0
  -28.3870  -32.6837   25.0302 H   0  0  0  0  0  0
  -28.0725  -31.8424   26.5395 H   0  0  0  0  0  0
  -28.2534  -38.0155   24.7613 H   0  0  0  0  0  0
  -28.1168  -36.2698   24.6090 H   0  0  0  0  0  0
  -27.2349  -37.1218   25.8847 H   0  0  0  0  0  0
  -20.9313  -29.8777   21.6948 H   0  0  0  0  0  0
  -26.0152  -38.2858   24.1532 H   0  0  0  0  0  0
  -32.1178  -23.5817   22.3630 H   0  0  0  0  0  0
  -30.5665  -25.5022   21.8583 H   0  0  0  0  0  0
  -32.0528  -17.4320   20.7277 H   0  0  0  0  0  0
  -32.3568  -18.0454   22.3207 H   0  0  0  0  0  0
  -28.3041  -18.0332   20.7884 H   0  0  0  0  0  0
  -29.5956  -17.4023   19.7920 H   0  0  0  0  0  0
  -30.9478  -16.2796   23.3504 H   0  0  0  0  0  0
  -32.2554  -15.6113   22.4279 H   0  0  0  0  0  0
  -28.3119  -15.6420   20.9149 H   0  0  0  0  0  0
  -28.6738  -16.2712   22.4827 H   0  0  0  0  0  0
  -28.4744  -20.2209   20.9119 H   0  0  0  0  0  0
  -29.8998  -18.5929   22.5812 H   0  0  0  0  0  0
  -31.9672  -21.4170   23.7470 H   0  0  0  0  0  0
  -31.8790  -19.6897   23.5954 H   0  0  0  0  0  0
  -30.4018  -20.6425   23.6529 H   0  0  0  0  0  0
  -33.4922  -21.5332   21.6686 H   0  0  0  0  0  0
  -32.9205  -20.9629   20.1129 H   0  0  0  0  0  0
  -33.3740  -19.8155   21.3650 H   0  0  0  0  0  0
  -26.0527  -19.7207   18.0331 H   0  0  0  0  0  0
  -26.7926  -19.4290   19.5912 H   0  0  0  0  0  0
  -27.3393  -18.5254   18.1755 H   0  0  0  0  0  0
  -27.1943  -20.8709   16.2971 H   0  0  0  0  0  0
  -28.5230  -19.7098   16.3598 H   0  0  0  0  0  0
  -28.8403  -21.4394   16.5172 H   0  0  0  0  0  0
  -27.6558  -25.4941   21.7783 H   0  0  0  0  0  0
  -27.1785  -24.8325   20.2469 H   0  0  0  0  0  0
  -29.5504  -19.2388   18.6053 H   0  0  0  0  0  0
  -30.0575  -20.8793   18.3692 H   0  0  0  0  0  0
  -31.1205  -19.6052   20.1352 H   0  0  0  0  0  0
  1 25  1  0  0  0
  1 30  2  0  0  0
  1 90  1  0  0  0
  2  3  1  0  0  0
  2 25  1  0  0  0
  2 93  1  0  0  0
  2 94  1  0  0  0
  3  4  1  0  0  0
  3 95  1  0  0  0
  3 96  1  0  0  0
  4  5  1  0  0  0
  4 97  1  0  0  0
  4 98  1  0  0  0
  5  6  1  0  0  0
  5 26  1  0  0  0
  5 99  1  0  0  0
  6 25  1  0  0  0
  6100  1  0  0  0
  6101  1  0  0  0
  7  8  2  0  0  0
  7 26  1  0  0  0
  7 29  1  0  0  0
  8  9  1  0  0  0
  8 22  1  0  0  0
  9 10  1  0  0  0
  9 27  2  0  0  0
 10 11  2  0  0  0
 10 15  1  0  0  0
 11 12  1  0  0  0
 11102  1  0  0  0
 12 13  2  0  0  0
 12103  1  0  0  0
 13 14  1  0  0  0
 13 31  1  0  0  0
 14 15  2  0  0  0
 14104  1  0  0  0
 15105  1  0  0  0
 16 17  2  0  0  0
 16 21  1  0  0  0
 16 31  1  0  0  0
 17 18  1  0  0  0
 17106  1  0  0  0
 18 19  2  0  0  0
 18107  1  0  0  0
 19 20  1  0  0  0
 19 24  1  0  0  0
 20 21  2  0  0  0
 20108  1  0  0  0
 21 23  1  0  0  0
 22 28  1  0  0  0
 22 32  2  0  0  0
 26 27  1  0  0  0
 28109  1  0  0  0
 28110  1  0  0  0
 29111  1  0  0  0
 29112  1  0  0  0
 33 34  1  0  0  0
 33 66  1  0  0  0
 33 70  2  0  0  0
 34 36  1  0  0  0
 34 59  1  0  0  0
 34113  1  0  0  0
 35 44  2  0  0  0
 35 45  1  0  0  0
 35 68  1  0  0  0
 36 56  1  0  0  0
 36114  1  0  0  0
 37 39  1  0  0  0
 37 47  1  0  0  0
 37 66  1  0  0  0
 37115  1  0  0  0
 38 43  2  0  0  0
 38 46  1  0  0  0
 38 47  1  0  0  0
 39 64  1  0  0  0
 39 67  2  0  0  0
 40 52  1  0  0  0
 40 53  2  0  0  0
 40 58  1  0  0  0
 41116  1  0  0  0
 41117  1  0  0  0
 41118  1  0  0  0
 41 48  1  0  0  0
 42 43  1  0  0  0
 42 66  1  0  0  0
 42119  1  0  0  0
 42120  1  0  0  0
 43 44  1  0  0  0
 44121  1  0  0  0
 45 46  2  0  0  0
 45122  1  0  0  0
 46123  1  0  0  0
 47124  1  0  0  0
 47125  1  0  0  0
 48 56  1  0  0  0
 48 65  1  0  0  0
 48126  1  0  0  0
 49 50  1  0  0  0
 49 53  1  0  0  0
 49 64  1  0  0  0
 49127  1  0  0  0
 50 51  1  0  0  0
 50128  1  0  0  0
 50129  1  0  0  0
 51 52  1  0  0  0
 51130  1  0  0  0
 51131  1  0  0  0
 52132  1  0  0  0
 52133  1  0  0  0
 53 54  1  0  0  0
 54 55  2  0  0  0
 54134  1  0  0  0
 55 57  1  0  0  0
 55135  1  0  0  0
 56 69  2  0  0  0
 57 58  2  0  0  0
 57136  1  0  0  0
 58137  1  0  0  0
 59 60  1  0  0  0
 59 61  1  0  0  0
 59 62  1  0  0  0
 60138  1  0  0  0
 60139  1  0  0  0
 60140  1  0  0  0
 61141  1  0  0  0
 61142  1  0  0  0
 61143  1  0  0  0
 62144  1  0  0  0
 62145  1  0  0  0
 62146  1  0  0  0
 63 65  1  0  0  0
 63147  1  0  0  0
 63148  1  0  0  0
 63149  1  0  0  0
 64150  1  0  0  0
 65151  1  0  0  0
 68 87  1  0  0  0
 71 72  2  0  0  0
 71 73  1  0  0  0
 71152  1  0  0  0
 72 75  1  0  0  0
 72153  1  0  0  0
 73 74  2  0  0  0
 73 82  1  0  0  0
 74 80  1  0  0  0
 74 89  1  0  0  0
 75 87  1  0  0  0
 75 89  2  0  0  0
 76 78  1  0  0  0
 76154  1  0  0  0
 76155  1  0  0  0
 76 81  1  0  0  0
 77 79  1  0  0  0
 77 81  1  0  0  0
 77156  1  0  0  0
 77157  1  0  0  0
 78 90  1  0  0  0
 78158  1  0  0  0
 78159  1  0  0  0
 79 90  1  0  0  0
 79160  1  0  0  0
 79161  1  0  0  0
 80 88  1  0  0  0
 80 92  1  0  0  0
 80162  1  0  0  0
 81163  1  0  0  0
 81 92  1  0  0  0
 82 83  1  0  0  0
 82 84  1  0  0  0
 82 92  1  0  0  0
 83164  1  0  0  0
 83165  1  0  0  0
 83166  1  0  0  0
 84167  1  0  0  0
 84168  1  0  0  0
 84169  1  0  0  0
 85 91  1  0  0  0
 85170  1  0  0  0
 85171  1  0  0  0
 85172  1  0  0  0
 86 91  1  0  0  0
 86173  1  0  0  0
 86174  1  0  0  0
 86175  1  0  0  0
 87176  1  0  0  0
 87177  1  0  0  0
 88 91  1  0  0  0
 88178  1  0  0  0
 88179  1  0  0  0
 92180  1  0  0  0
M  CHG  1  92   1
M  ISO  4   1 100  68 101  87 101  90 100
M  END
> <chiral flag>
0

> <version>
0

> <s_m_source_file>
/data/baiqing/PycharmProjects/Reinvent-master-3.2/result/LINK_invent/BTK/process_docking_weight1_custom_sum_contain_oxygen_bond_distance_aromatic_linkinvent_7_9_3/rearranged_h_0182.sdf

> <i_m_source_file_index>
55

> <r_mmod_Potential_Energy-OPLS-2005>
196.979705810547

> <r_mmod_Stretch_Energy-OPLS-2005>
58.1102142333984

> <r_mmod_Bend_Energy-OPLS-2005>
172.435623168945

> <r_mmod_Torsional_Energy-OPLS-2005>
355.737121582031

> <r_mmod_Improper_Torsional_Energy-OPLS-2005>
6.14120531082153

> <r_mmod_Van_der_Waal_Energy-OPLS-2005>
164.399291992188

> <r_mmod_Electrostatic_Energy-OPLS-2005>
-152.060501098633

> <r_mmod_Solvation_Energy-OPLS-2005>
-426.147430419922

> <b_mmod_Minimization_Converged-OPLS-2005>
0

> <r_mmod_RMS_Derivative-OPLS-2005>
1.02788400650024

$$$$
55
                    3D
 Structure written by MMmdl.
151160  0  0  1  0            999 V2000
  -30.5213  -15.2019   20.3704 C   0  0  0  0  0  0
  -30.4190  -12.7748   19.5112 C   0  0  0  0  0  0
  -29.5203  -12.5553   18.2737 C   0  0  0  0  0  0
  -28.0699  -12.2940   18.7093 C   0  0  0  0  0  0
  -27.6051  -13.2770   19.8148 C   0  0  2  0  0  0
  -28.6417  -13.4674   20.9417 C   0  0  0  0  0  0
  -25.2380  -13.8263   20.5769 C   0  0  0  0  0  0
  -24.1726  -13.0445   20.9263 C   0  0  0  0  0  0
  -24.6381  -11.6943   20.8768 C   0  0  0  0  0  0
  -23.9081  -10.4298   21.0408 C   0  0  0  0  0  0
  -24.3628   -9.4214   21.9181 C   0  0  0  0  0  0
  -23.6307   -8.2243   22.0741 C   0  0  0  0  0  0
  -22.4291   -8.0274   21.3529 C   0  0  0  0  0  0
  -21.9927   -9.0250   20.4636 C   0  0  0  0  0  0
  -22.7254  -10.2133   20.3055 C   0  0  0  0  0  0
  -21.6858   -6.0734   22.5278 C   0  0  0  0  0  0
  -21.4019   -6.5638   23.8212 C   0  0  0  0  0  0
  -21.3665   -5.6787   24.9172 C   0  0  0  0  0  0
  -21.6045   -4.3050   24.7222 C   0  0  0  0  0  0
  -21.8821   -3.8143   23.4343 C   0  0  0  0  0  0
  -21.9198   -4.6962   22.3402 C   0  0  0  0  0  0
  -22.7748  -13.5197   21.1912 C   0  0  0  0  0  0
  -22.1665   -4.2151   21.0977 F   0  0  0  0  0  0
  -21.5633   -3.4531   25.7734 F   0  0  0  0  0  0
  -29.8728  -13.9429   20.2948 N   0  0  0  0  0  0
  -26.2789  -12.9536   20.3216 N   0  0  0  0  0  0
  -25.9314  -11.6637   20.5720 N   0  0  0  0  0  0
  -22.0400  -12.8175   22.0463 N   0  0  0  0  0  0
  -25.4055  -15.1991   20.4243 N   0  0  0  0  0  0
  -31.7469  -15.1054   20.2207 O   0  0  0  0  0  0
  -21.6647   -6.8875   21.4237 O   0  0  0  0  0  0
  -22.3436  -14.5502   20.6758 O   0  0  0  0  0  0
  -24.6589  -31.8284   23.1725 C   0  0  0  0  0  0
  -25.9293  -32.4608   23.8175 C   0  0  1  0  0  0
  -27.2078  -26.9652   20.1800 C   0  0  0  0  0  0
  -25.5980  -33.8421   24.2092 N   0  0  0  0  0  0
  -23.4705  -30.4423   21.5211 C   0  0  2  0  0  0
  -24.9200  -28.8368   20.1095 C   0  0  0  0  0  0
  -22.7647  -29.4469   22.4791 C   0  0  0  0  0  0
  -18.0326  -28.1412   22.8481 C   0  0  0  0  0  0
  -24.1491  -36.7216   23.2648 C   0  0  0  0  0  0
  -26.0370  -30.6478   21.3955 C   0  0  0  0  0  0
  -26.1029  -29.2410   20.7408 C   0  0  0  0  0  0
  -27.2435  -28.3256   20.7527 C   0  0  0  0  0  0
  -25.9976  -26.7033   19.5012 C   0  0  0  0  0  0
  -24.8904  -27.5869   19.4702 C   0  0  0  0  0  0
  -23.7063  -29.7621   20.1448 C   0  0  0  0  0  0
  -25.4133  -36.2978   24.0302 C   0  0  1  0  0  0
  -20.5949  -28.3751   23.1210 C   0  0  2  0  0  0
  -20.6806  -26.9442   22.5407 C   0  0  0  0  0  0
  -19.5773  -26.6385   21.5225 C   0  0  0  0  0  0
  -18.1957  -26.7947   22.1632 C   0  0  0  0  0  0
  -19.1585  -28.8902   23.2832 C   0  0  0  0  0  0
  -18.9495  -30.1496   23.8861 C   0  0  0  0  0  0
  -17.6485  -30.6603   24.0561 C   0  0  0  0  0  0
  -25.9091  -34.9359   23.5015 C   0  0  0  0  0  0
  -16.5378  -29.9094   23.6346 C   0  0  0  0  0  0
  -16.7304  -28.6513   23.0370 C   0  0  0  0  0  0
  -26.4561  -31.6537   25.0685 C   0  0  0  0  0  0
  -25.3694  -31.3790   26.1348 C   0  0  0  0  0  0
  -27.0459  -30.2910   24.6391 C   0  0  0  0  0  0
  -27.6044  -32.4345   25.7497 C   0  0  0  0  0  0
  -27.5567  -37.1771   24.8472 C   0  0  0  0  0  0
  -21.4321  -29.3046   22.3552 N   0  0  0  0  0  0
  -26.4279  -37.3710   23.9406 N   0  0  0  0  0  0
  -24.7432  -30.9995   22.0831 N   0  0  0  0  0  0
  -23.4221  -28.8048   23.3018 O   0  0  0  0  0  0
  -28.2156  -25.8810   20.2598 O   0  0  0  0  0  0
  -26.5702  -34.8890   22.4608 O   0  0  0  0  0  0
  -23.5673  -32.1229   23.6846 O   0  0  0  0  0  0
  -30.6872  -17.9231   20.5052 C   0  0  0  0  0  0
  -28.6801  -17.4159   20.2423 C   0  0  0  0  0  0
  -29.0461  -20.1547   21.3303 C   0  0  0  0  0  0
  -29.3062  -20.1899   19.3544 C   0  0  0  0  0  0
  -29.3997  -18.8927   20.3527 C   0  0  0  0  0  0
  -28.9625  -22.8278   20.3909 C   0  0  0  0  0  0
  -27.9536  -24.2691   20.1082 C   0  0  0  0  0  0
  -29.9548  -16.5726   20.4506 N   0  0  0  0  0  0
  -28.6092  -21.2065   20.2846 N   0  3  0  0  0  0
  -31.4432  -12.9448   19.1765 H   0  0  0  0  0  0
  -30.4590  -11.8758   20.1291 H   0  0  0  0  0  0
  -29.8915  -11.7218   17.6752 H   0  0  0  0  0  0
  -29.5590  -13.4374   17.6328 H   0  0  0  0  0  0
  -28.0242  -11.2728   19.0888 H   0  0  0  0  0  0
  -27.3977  -12.3296   17.8510 H   0  0  0  0  0  0
  -27.5159  -14.2414   19.3123 H   0  0  0  0  0  0
  -28.8031  -12.5469   21.5051 H   0  0  0  0  0  0
  -28.2934  -14.2184   21.6522 H   0  0  0  0  0  0
  -25.2765   -9.5703   22.4766 H   0  0  0  0  0  0
  -24.0026   -7.4642   22.7465 H   0  0  0  0  0  0
  -21.0854   -8.8766   19.8951 H   0  0  0  0  0  0
  -22.3697  -10.9670   19.6176 H   0  0  0  0  0  0
  -21.2006   -7.6145   23.9715 H   0  0  0  0  0  0
  -21.1490   -6.0513   25.9077 H   0  0  0  0  0  0
  -22.0598   -2.7606   23.2834 H   0  0  0  0  0  0
  -22.4023  -11.9852   22.4871 H   0  0  0  0  0  0
  -21.1007  -13.1181   22.2651 H   0  0  0  0  0  0
  -24.6419  -15.8552   20.5468 H   0  0  0  0  0  0
  -26.2609  -15.6368   20.1083 H   0  0  0  0  0  0
  -26.7369  -32.5155   23.0896 H   0  0  0  0  0  0
  -25.0084  -33.9503   25.0214 H   0  0  0  0  0  0
  -22.7807  -31.2723   21.3559 H   0  0  0  0  0  0
  -23.3750  -35.9550   23.3302 H   0  0  0  0  0  0
  -24.3569  -36.8861   22.2063 H   0  0  0  0  0  0
  -23.7251  -37.6406   23.6704 H   0  0  0  0  0  0
  -26.2144  -31.3914   20.6173 H   0  0  0  0  0  0
  -26.8987  -30.7019   22.0497 H   0  0  0  0  0  0
  -28.1390  -28.6328   21.2749 H   0  0  0  0  0  0
  -25.8704  -25.7501   19.0104 H   0  0  0  0  0  0
  -23.9907  -27.2713   18.9589 H   0  0  0  0  0  0
  -23.8582  -30.5329   19.3878 H   0  0  0  0  0  0
  -22.8156  -29.2155   19.8290 H   0  0  0  0  0  0
  -25.1330  -36.1775   25.0794 H   0  0  0  0  0  0
  -21.0040  -28.3350   24.1330 H   0  0  0  0  0  0
  -20.5711  -26.2364   23.3640 H   0  0  0  0  0  0
  -21.6669  -26.7437   22.1197 H   0  0  0  0  0  0
  -19.6928  -25.6288   21.1280 H   0  0  0  0  0  0
  -19.6705  -27.3179   20.6745 H   0  0  0  0  0  0
  -17.4228  -26.6702   21.4033 H   0  0  0  0  0  0
  -18.0338  -26.0102   22.9041 H   0  0  0  0  0  0
  -19.7971  -30.7333   24.2198 H   0  0  0  0  0  0
  -17.5040  -31.6276   24.5180 H   0  0  0  0  0  0
  -15.5380  -30.2988   23.7686 H   0  0  0  0  0  0
  -15.8706  -28.0819   22.7105 H   0  0  0  0  0  0
  -24.5890  -30.7119   25.7677 H   0  0  0  0  0  0
  -24.8865  -32.2989   26.4644 H   0  0  0  0  0  0
  -25.7932  -30.9054   27.0208 H   0  0  0  0  0  0
  -26.3125  -29.6587   24.1376 H   0  0  0  0  0  0
  -27.3996  -29.7274   25.5035 H   0  0  0  0  0  0
  -27.9061  -30.4116   23.9801 H   0  0  0  0  0  0
  -27.2602  -33.3682   26.1961 H   0  0  0  0  0  0
  -28.3921  -32.6846   25.0375 H   0  0  0  0  0  0
  -28.0640  -31.8540   26.5508 H   0  0  0  0  0  0
  -28.2584  -38.0068   24.7498 H   0  0  0  0  0  0
  -28.1060  -36.2590   24.6324 H   0  0  0  0  0  0
  -27.2279  -37.1448   25.8875 H   0  0  0  0  0  0
  -20.9560  -29.8726   21.6686 H   0  0  0  0  0  0
  -26.0125  -38.2769   24.1395 H   0  0  0  0  0  0
  -31.3947  -18.0560   19.6848 H   0  0  0  0  0  0
  -31.2107  -18.0832   21.4483 H   0  0  0  0  0  0
  -27.9307  -17.2613   21.0196 H   0  0  0  0  0  0
  -28.2251  -17.2519   19.2640 H   0  0  0  0  0  0
  -29.9328  -20.4973   21.8665 H   0  0  0  0  0  0
  -28.2585  -19.9367   22.0521 H   0  0  0  0  0  0
  -28.7295  -20.0000   18.4487 H   0  0  0  0  0  0
  -30.2987  -20.5460   19.0742 H   0  0  0  0  0  0
  -29.3124  -22.9439   21.4161 H   0  0  0  0  0  0
  -29.8620  -22.9625   19.7910 H   0  0  0  0  0  0
  -27.0517  -24.0994   20.6967 H   0  0  0  0  0  0
  -27.6183  -24.1640   19.0766 H   0  0  0  0  0  0
  -27.6116  -21.1102   20.1616 H   0  0  0  0  0  0
  1 25  1  0  0  0
  1 30  2  0  0  0
  1 78  1  0  0  0
  2  3  1  0  0  0
  2 25  1  0  0  0
  2 80  1  0  0  0
  2 81  1  0  0  0
  3  4  1  0  0  0
  3 82  1  0  0  0
  3 83  1  0  0  0
  4  5  1  0  0  0
  4 84  1  0  0  0
  4 85  1  0  0  0
  5  6  1  0  0  0
  5 26  1  0  0  0
  5 86  1  0  0  0
  6 25  1  0  0  0
  6 87  1  0  0  0
  6 88  1  0  0  0
  7  8  2  0  0  0
  7 26  1  0  0  0
  7 29  1  0  0  0
  8  9  1  0  0  0
  8 22  1  0  0  0
  9 10  1  0  0  0
  9 27  2  0  0  0
 10 11  2  0  0  0
 10 15  1  0  0  0
 11 12  1  0  0  0
 11 89  1  0  0  0
 12 13  2  0  0  0
 12 90  1  0  0  0
 13 14  1  0  0  0
 13 31  1  0  0  0
 14 15  2  0  0  0
 14 91  1  0  0  0
 15 92  1  0  0  0
 16 17  2  0  0  0
 16 21  1  0  0  0
 16 31  1  0  0  0
 17 18  1  0  0  0
 17 93  1  0  0  0
 18 19  2  0  0  0
 18 94  1  0  0  0
 19 20  1  0  0  0
 19 24  1  0  0  0
 20 21  2  0  0  0
 20 95  1  0  0  0
 21 23  1  0  0  0
 22 28  1  0  0  0
 22 32  2  0  0  0
 26 27  1  0  0  0
 28 96  1  0  0  0
 28 97  1  0  0  0
 29 98  1  0  0  0
 29 99  1  0  0  0
 33 34  1  0  0  0
 33 66  1  0  0  0
 33 70  2  0  0  0
 34 36  1  0  0  0
 34 59  1  0  0  0
 34100  1  0  0  0
 35 44  2  0  0  0
 35 45  1  0  0  0
 35 68  1  0  0  0
 36 56  1  0  0  0
 36101  1  0  0  0
 37 39  1  0  0  0
 37 47  1  0  0  0
 37 66  1  0  0  0
 37102  1  0  0  0
 38 43  2  0  0  0
 38 46  1  0  0  0
 38 47  1  0  0  0
 39 64  1  0  0  0
 39 67  2  0  0  0
 40 52  1  0  0  0
 40 53  2  0  0  0
 40 58  1  0  0  0
 41103  1  0  0  0
 41104  1  0  0  0
 41105  1  0  0  0
 41 48  1  0  0  0
 42 43  1  0  0  0
 42 66  1  0  0  0
 42106  1  0  0  0
 42107  1  0  0  0
 43 44  1  0  0  0
 44108  1  0  0  0
 45 46  2  0  0  0
 45109  1  0  0  0
 46110  1  0  0  0
 47111  1  0  0  0
 47112  1  0  0  0
 48 56  1  0  0  0
 48 65  1  0  0  0
 48113  1  0  0  0
 49 50  1  0  0  0
 49 53  1  0  0  0
 49 64  1  0  0  0
 49114  1  0  0  0
 50 51  1  0  0  0
 50115  1  0  0  0
 50116  1  0  0  0
 51 52  1  0  0  0
 51117  1  0  0  0
 51118  1  0  0  0
 52119  1  0  0  0
 52120  1  0  0  0
 53 54  1  0  0  0
 54 55  2  0  0  0
 54121  1  0  0  0
 55 57  1  0  0  0
 55122  1  0  0  0
 56 69  2  0  0  0
 57 58  2  0  0  0
 57123  1  0  0  0
 58124  1  0  0  0
 59 60  1  0  0  0
 59 61  1  0  0  0
 59 62  1  0  0  0
 60125  1  0  0  0
 60126  1  0  0  0
 60127  1  0  0  0
 61128  1  0  0  0
 61129  1  0  0  0
 61130  1  0  0  0
 62131  1  0  0  0
 62132  1  0  0  0
 62133  1  0  0  0
 63 65  1  0  0  0
 63134  1  0  0  0
 63135  1  0  0  0
 63136  1  0  0  0
 64137  1  0  0  0
 65138  1  0  0  0
 68 77  1  0  0  0
 71 78  1  0  0  0
 71139  1  0  0  0
 71140  1  0  0  0
 71 75  1  0  0  0
 72 75  1  0  0  0
 72 78  1  0  0  0
 72141  1  0  0  0
 72142  1  0  0  0
 73 75  1  0  0  0
 73 79  1  0  0  0
 73143  1  0  0  0
 73144  1  0  0  0
 74 75  1  0  0  0
 74 79  1  0  0  0
 74145  1  0  0  0
 74146  1  0  0  0
 76 77  1  0  0  0
 76147  1  0  0  0
 76148  1  0  0  0
 76 79  1  0  0  0
 77149  1  0  0  0
 77150  1  0  0  0
 79151  1  0  0  0
M  CHG  1  79   1
M  ISO  4   1 100  68 101  77 101  78 100
M  END
> <chiral flag>
0

> <version>
0

> <s_m_source_file>
/data/baiqing/PycharmProjects/Reinvent-master-3.2/result/LINK_invent/BTK/process_docking_weight1_custom_sum_contain_oxygen_bond_distance_aromatic_linkinvent_7_9_3/rearranged_h_0182.sdf

> <i_m_source_file_index>
56

> <r_mmod_Potential_Energy-OPLS-2005>
1041.91235351562

> <r_mmod_Stretch_Energy-OPLS-2005>
443.748107910156

> <r_mmod_Bend_Energy-OPLS-2005>
462.051696777344

> <r_mmod_Torsional_Energy-OPLS-2005>
328.104187011719

> <r_mmod_Improper_Torsional_Energy-OPLS-2005>
3.6418354511261

> <r_mmod_Van_der_Waal_Energy-OPLS-2005>
105.514457702637

> <r_mmod_Electrostatic_Energy-OPLS-2005>
-226.592071533203

> <r_mmod_Solvation_Energy-OPLS-2005>
-474.07373046875

> <b_mmod_Minimization_Converged-OPLS-2005>
0

> <r_mmod_RMS_Derivative-OPLS-2005>
1.40565180778503

$$$$
56
                    3D
 Structure written by MMmdl.
154163  0  0  1  0            999 V2000
  -30.5259  -15.0222   20.4553 C   0  0  0  0  0  0
  -30.4436  -12.6511   19.4973 C   0  0  0  0  0  0
  -29.5239  -12.5502   18.2568 C   0  0  0  0  0  0
  -28.0591  -12.3182   18.6736 C   0  0  0  0  0  0
  -27.6266  -13.2499   19.8340 C   0  0  2  0  0  0
  -28.6681  -13.2750   20.9672 C   0  0  0  0  0  0
  -25.2464  -13.8218   20.5718 C   0  0  0  0  0  0
  -24.1777  -13.0440   20.9223 C   0  0  0  0  0  0
  -24.6393  -11.6924   20.8745 C   0  0  0  0  0  0
  -23.9077  -10.4294   21.0406 C   0  0  0  0  0  0
  -24.3626   -9.4209   21.9184 C   0  0  0  0  0  0
  -23.6299   -8.2244   22.0752 C   0  0  0  0  0  0
  -22.4281   -8.0282   21.3543 C   0  0  0  0  0  0
  -21.9916   -9.0257   20.4645 C   0  0  0  0  0  0
  -22.7247  -10.2135   20.3056 C   0  0  0  0  0  0
  -21.6856   -6.0738   22.5281 C   0  0  0  0  0  0
  -21.4015   -6.5641   23.8214 C   0  0  0  0  0  0
  -21.3660   -5.6792   24.9175 C   0  0  0  0  0  0
  -21.6045   -4.3055   24.7224 C   0  0  0  0  0  0
  -21.8819   -3.8148   23.4344 C   0  0  0  0  0  0
  -21.9193   -4.6965   22.3402 C   0  0  0  0  0  0
  -22.7799  -13.5212   21.1886 C   0  0  0  0  0  0
  -22.1662   -4.2153   21.0978 F   0  0  0  0  0  0
  -21.5627   -3.4537   25.7734 F   0  0  0  0  0  0
  -29.9279  -13.7520   20.3724 N   0  0  0  0  0  0
  -26.2871  -12.9442   20.3218 N   0  0  0  0  0  0
  -25.9321  -11.6571   20.5713 N   0  0  0  0  0  0
  -22.0449  -12.8199   22.0440 N   0  0  0  0  0  0
  -25.4173  -15.1948   20.4189 N   0  0  0  0  0  0
  -31.7215  -15.0673   20.1393 O   0  0  0  0  0  0
  -21.6643   -6.8881   21.4242 O   0  0  0  0  0  0
  -22.3479  -14.5515   20.6730 O   0  0  0  0  0  0
  -24.6506  -31.8385   23.1843 C   0  0  0  0  0  0
  -25.9252  -32.4664   23.8249 C   0  0  1  0  0  0
  -27.2180  -27.0791   20.1386 C   0  0  0  0  0  0
  -25.5975  -33.8472   24.2162 N   0  0  0  0  0  0
  -23.4559  -30.4588   21.5320 C   0  0  2  0  0  0
  -24.9036  -28.8800   20.1082 C   0  0  0  0  0  0
  -22.7603  -29.4524   22.4841 C   0  0  0  0  0  0
  -18.0311  -28.1399   22.8473 C   0  0  0  0  0  0
  -24.1493  -36.7240   23.2643 C   0  0  0  0  0  0
  -26.0178  -30.6945   21.3902 C   0  0  0  0  0  0
  -26.0869  -29.3026   20.7259 C   0  0  0  0  0  0
  -27.2407  -28.4203   20.7224 C   0  0  0  0  0  0
  -25.9896  -26.7662   19.5100 C   0  0  0  0  0  0
  -24.8712  -27.6260   19.4861 C   0  0  0  0  0  0
  -23.6844  -29.7899   20.1515 C   0  0  0  0  0  0
  -25.4128  -36.3012   24.0310 C   0  0  1  0  0  0
  -20.5929  -28.3732   23.1218 C   0  0  2  0  0  0
  -20.6796  -26.9430   22.5397 C   0  0  0  0  0  0
  -19.5767  -26.6382   21.5209 C   0  0  0  0  0  0
  -18.1950  -26.7935   22.1624 C   0  0  0  0  0  0
  -19.1570  -28.8887   23.2835 C   0  0  0  0  0  0
  -18.9483  -30.1482   23.8862 C   0  0  0  0  0  0
  -17.6478  -30.6594   24.0559 C   0  0  0  0  0  0
  -25.9084  -34.9390   23.5045 C   0  0  0  0  0  0
  -16.5369  -29.9082   23.6340 C   0  0  0  0  0  0
  -16.7295  -28.6503   23.0357 C   0  0  0  0  0  0
  -26.4548  -31.6553   25.0716 C   0  0  0  0  0  0
  -25.3715  -31.3756   26.1400 C   0  0  0  0  0  0
  -27.0427  -30.2942   24.6342 C   0  0  0  0  0  0
  -27.6066  -32.4332   25.7506 C   0  0  0  0  0  0
  -27.5573  -37.1778   24.8467 C   0  0  0  0  0  0
  -21.4289  -29.3048   22.3588 N   0  0  0  0  0  0
  -26.4285  -37.3732   23.9408 N   0  0  0  0  0  0
  -24.7288  -31.0192   22.0903 N   0  0  0  0  0  0
  -23.4221  -28.8073   23.3012 O   0  0  0  0  0  0
  -28.2585  -26.0573   20.2388 O   0  0  0  0  0  0
  -26.5671  -34.8897   22.4625 O   0  0  0  0  0  0
  -23.5611  -32.1287   23.7030 O   0  0  0  0  0  0
  -27.8166  -24.4255   18.4077 C   0  0  0  0  0  0
  -28.7203  -22.1466   19.8429 C   0  0  0  0  0  0
  -28.1900  -22.1007   18.5145 C   0  0  0  0  0  0
  -28.2220  -24.6548   19.7391 C   0  0  0  0  0  0
  -29.3283  -20.7738   20.5529 C   0  0  0  0  0  0
  -29.9911  -17.6144   22.2130 C   0  0  0  0  0  0
  -29.0445  -16.4551   21.9040 C   0  0  0  0  0  0
  -30.1240  -17.8295   20.7157 C   0  0  2  0  0  0
  -28.0468  -20.8319   17.6918 C   0  0  0  0  0  0
  -29.2343  -19.1496   20.0740 C   0  0  0  0  0  0
  -27.7750  -23.2012   17.8311 N   0  0  0  0  0  0
  -28.7151  -23.4814   20.4215 N   0  0  0  0  0  0
  -29.7757  -16.2509   20.6441 N   0  0  0  0  0  0
  -29.9442  -20.9371   21.6116 O   0  0  0  0  0  0
  -31.4701  -12.8311   19.1747 H   0  0  0  0  0  0
  -30.4711  -11.7040   20.0385 H   0  0  0  0  0  0
  -29.8593  -11.7475   17.5988 H   0  0  0  0  0  0
  -29.5957  -13.4717   17.6772 H   0  0  0  0  0  0
  -27.9671  -11.2774   18.9861 H   0  0  0  0  0  0
  -27.3946  -12.4400   17.8174 H   0  0  0  0  0  0
  -27.5884  -14.2540   19.4099 H   0  0  0  0  0  0
  -28.7866  -12.2851   21.4102 H   0  0  0  0  0  0
  -28.3231  -13.9154   21.7730 H   0  0  0  0  0  0
  -25.2769   -9.5687   22.4760 H   0  0  0  0  0  0
  -24.0009   -7.4637   22.7471 H   0  0  0  0  0  0
  -21.0847   -8.8779   19.8953 H   0  0  0  0  0  0
  -22.3705  -10.9675   19.6168 H   0  0  0  0  0  0
  -21.2011   -7.6150   23.9720 H   0  0  0  0  0  0
  -21.1481   -6.0521   25.9079 H   0  0  0  0  0  0
  -22.0599   -2.7610   23.2843 H   0  0  0  0  0  0
  -22.4068  -11.9865   22.4835 H   0  0  0  0  0  0
  -21.1067  -13.1224   22.2648 H   0  0  0  0  0  0
  -24.6560  -15.8536   20.5411 H   0  0  0  0  0  0
  -26.2758  -15.6321   20.1083 H   0  0  0  0  0  0
  -26.7319  -32.5245   23.0973 H   0  0  0  0  0  0
  -25.0103  -33.9575   25.0298 H   0  0  0  0  0  0
  -22.7617  -31.2873   21.3763 H   0  0  0  0  0  0
  -23.3760  -35.9565   23.3288 H   0  0  0  0  0  0
  -24.3575  -36.8894   22.2061 H   0  0  0  0  0  0
  -23.7246  -37.6428   23.6697 H   0  0  0  0  0  0
  -26.1820  -31.4486   20.6195 H   0  0  0  0  0  0
  -26.8847  -30.7422   22.0375 H   0  0  0  0  0  0
  -28.1398  -28.7401   21.2303 H   0  0  0  0  0  0
  -25.8240  -25.7961   19.0730 H   0  0  0  0  0  0
  -23.9617  -27.2875   19.0083 H   0  0  0  0  0  0
  -23.8279  -30.5654   19.3982 H   0  0  0  0  0  0
  -22.7965  -29.2386   19.8369 H   0  0  0  0  0  0
  -25.1320  -36.1828   25.0801 H   0  0  0  0  0  0
  -21.0016  -28.3324   24.1341 H   0  0  0  0  0  0
  -20.5691  -26.2347   23.3622 H   0  0  0  0  0  0
  -21.6661  -26.7433   22.1194 H   0  0  0  0  0  0
  -19.6927  -25.6284   21.1261 H   0  0  0  0  0  0
  -19.6700  -27.3175   20.6725 H   0  0  0  0  0  0
  -17.4217  -26.6675   21.4031 H   0  0  0  0  0  0
  -18.0353  -26.0086   22.9031 H   0  0  0  0  0  0
  -19.7959  -30.7311   24.2211 H   0  0  0  0  0  0
  -17.5029  -31.6269   24.5168 H   0  0  0  0  0  0
  -15.5368  -30.2971   23.7685 H   0  0  0  0  0  0
  -15.8696  -28.0811   22.7086 H   0  0  0  0  0  0
  -24.5902  -30.7097   25.7716 H   0  0  0  0  0  0
  -24.8897  -32.2941   26.4761 H   0  0  0  0  0  0
  -25.7985  -30.8969   27.0223 H   0  0  0  0  0  0
  -26.3063  -29.6646   24.1333 H   0  0  0  0  0  0
  -27.4004  -29.7264   25.4942 H   0  0  0  0  0  0
  -27.8985  -30.4165   23.9699 H   0  0  0  0  0  0
  -27.2653  -33.3660   26.2008 H   0  0  0  0  0  0
  -28.3916  -32.6849   25.0361 H   0  0  0  0  0  0
  -28.0692  -31.8509   26.5486 H   0  0  0  0  0  0
  -28.2582  -38.0082   24.7513 H   0  0  0  0  0  0
  -28.1077  -36.2611   24.6297 H   0  0  0  0  0  0
  -27.2289  -37.1428   25.8869 H   0  0  0  0  0  0
  -20.9514  -29.8760   21.6755 H   0  0  0  0  0  0
  -26.0144  -38.2795   24.1411 H   0  0  0  0  0  0
  -27.5193  -25.2478   17.7741 H   0  0  0  0  0  0
  -30.9214  -17.2959   22.6887 H   0  0  0  0  0  0
  -29.5269  -18.4342   22.7622 H   0  0  0  0  0  0
  -28.0035  -16.7541   21.7677 H   0  0  0  0  0  0
  -29.1361  -15.6727   22.6576 H   0  0  0  0  0  0
  -31.1801  -17.9858   20.4897 H   0  0  0  0  0  0
  -29.0237  -20.4444   17.4046 H   0  0  0  0  0  0
  -27.5019  -21.0196   16.7655 H   0  0  0  0  0  0
  -27.4822  -20.0715   18.2297 H   0  0  0  0  0  0
  -29.4469  -19.1498   19.0097 H   0  0  0  0  0  0
  -28.1751  -18.9062   20.1483 H   0  0  0  0  0  0
  1 25  1  0  0  0
  1 30  2  0  0  0
  1 83  1  0  0  0
  2  3  1  0  0  0
  2 25  1  0  0  0
  2 85  1  0  0  0
  2 86  1  0  0  0
  3  4  1  0  0  0
  3 87  1  0  0  0
  3 88  1  0  0  0
  4  5  1  0  0  0
  4 89  1  0  0  0
  4 90  1  0  0  0
  5  6  1  0  0  0
  5 26  1  0  0  0
  5 91  1  0  0  0
  6 25  1  0  0  0
  6 92  1  0  0  0
  6 93  1  0  0  0
  7  8  2  0  0  0
  7 26  1  0  0  0
  7 29  1  0  0  0
  8  9  1  0  0  0
  8 22  1  0  0  0
  9 10  1  0  0  0
  9 27  2  0  0  0
 10 11  2  0  0  0
 10 15  1  0  0  0
 11 12  1  0  0  0
 11 94  1  0  0  0
 12 13  2  0  0  0
 12 95  1  0  0  0
 13 14  1  0  0  0
 13 31  1  0  0  0
 14 15  2  0  0  0
 14 96  1  0  0  0
 15 97  1  0  0  0
 16 17  2  0  0  0
 16 21  1  0  0  0
 16 31  1  0  0  0
 17 18  1  0  0  0
 17 98  1  0  0  0
 18 19  2  0  0  0
 18 99  1  0  0  0
 19 20  1  0  0  0
 19 24  1  0  0  0
 20 21  2  0  0  0
 20100  1  0  0  0
 21 23  1  0  0  0
 22 28  1  0  0  0
 22 32  2  0  0  0
 26 27  1  0  0  0
 28101  1  0  0  0
 28102  1  0  0  0
 29103  1  0  0  0
 29104  1  0  0  0
 33 34  1  0  0  0
 33 66  1  0  0  0
 33 70  2  0  0  0
 34 36  1  0  0  0
 34 59  1  0  0  0
 34105  1  0  0  0
 35 44  2  0  0  0
 35 45  1  0  0  0
 35 68  1  0  0  0
 36 56  1  0  0  0
 36106  1  0  0  0
 37 39  1  0  0  0
 37 47  1  0  0  0
 37 66  1  0  0  0
 37107  1  0  0  0
 38 43  2  0  0  0
 38 46  1  0  0  0
 38 47  1  0  0  0
 39 64  1  0  0  0
 39 67  2  0  0  0
 40 52  1  0  0  0
 40 53  2  0  0  0
 40 58  1  0  0  0
 41108  1  0  0  0
 41109  1  0  0  0
 41110  1  0  0  0
 41 48  1  0  0  0
 42 43  1  0  0  0
 42 66  1  0  0  0
 42111  1  0  0  0
 42112  1  0  0  0
 43 44  1  0  0  0
 44113  1  0  0  0
 45 46  2  0  0  0
 45114  1  0  0  0
 46115  1  0  0  0
 47116  1  0  0  0
 47117  1  0  0  0
 48 56  1  0  0  0
 48 65  1  0  0  0
 48118  1  0  0  0
 49 50  1  0  0  0
 49 53  1  0  0  0
 49 64  1  0  0  0
 49119  1  0  0  0
 50 51  1  0  0  0
 50120  1  0  0  0
 50121  1  0  0  0
 51 52  1  0  0  0
 51122  1  0  0  0
 51123  1  0  0  0
 52124  1  0  0  0
 52125  1  0  0  0
 53 54  1  0  0  0
 54 55  2  0  0  0
 54126  1  0  0  0
 55 57  1  0  0  0
 55127  1  0  0  0
 56 69  2  0  0  0
 57 58  2  0  0  0
 57128  1  0  0  0
 58129  1  0  0  0
 59 60  1  0  0  0
 59 61  1  0  0  0
 59 62  1  0  0  0
 60130  1  0  0  0
 60131  1  0  0  0
 60132  1  0  0  0
 61133  1  0  0  0
 61134  1  0  0  0
 61135  1  0  0  0
 62136  1  0  0  0
 62137  1  0  0  0
 62138  1  0  0  0
 63 65  1  0  0  0
 63139  1  0  0  0
 63140  1  0  0  0
 63141  1  0  0  0
 64142  1  0  0  0
 65143  1  0  0  0
 68 74  1  0  0  0
 71 74  2  0  0  0
 71 81  1  0  0  0
 71144  1  0  0  0
 72 73  1  0  0  0
 72 75  1  0  0  0
 72 82  2  0  0  0
 73 79  1  0  0  0
 73 81  2  0  0  0
 74 82  1  0  0  0
 75 80  1  0  0  0
 75 84  2  0  0  0
 76 77  1  0  0  0
 76 78  1  0  0  0
 76145  1  0  0  0
 76146  1  0  0  0
 77 83  1  0  0  0
 77147  1  0  0  0
 77148  1  0  0  0
 78 80  1  0  0  0
 78 83  1  0  0  0
 78149  1  0  0  0
 79150  1  0  0  0
 79151  1  0  0  0
 79152  1  0  0  0
 80153  1  0  0  0
 80154  1  0  0  0
M  ISO  4   1 100  68 101  74 101  83 100
M  END
> <chiral flag>
0

> <version>
0

> <s_m_source_file>
/data/baiqing/PycharmProjects/Reinvent-master-3.2/result/LINK_invent/BTK/process_docking_weight1_custom_sum_contain_oxygen_bond_distance_aromatic_linkinvent_7_9_3/rearranged_h_0182.sdf

> <i_m_source_file_index>
57

> <r_mmod_Potential_Energy-OPLS-2005>
957.736877441406

> <r_mmod_Stretch_Energy-OPLS-2005>
358.708435058594

> <r_mmod_Bend_Energy-OPLS-2005>
307.163116455078

> <r_mmod_Torsional_Energy-OPLS-2005>
278.829193115234

> <r_mmod_Improper_Torsional_Energy-OPLS-2005>
12.671727180481

> <r_mmod_Van_der_Waal_Energy-OPLS-2005>
141.008834838867

> <r_mmod_Electrostatic_Energy-OPLS-2005>
-145.157333374023

> <r_mmod_Solvation_Energy-OPLS-2005>
-238.548492431641

> <b_mmod_Minimization_Converged-OPLS-2005>
0

> <r_mmod_RMS_Derivative-OPLS-2005>
0.360904932022095

$$$$
57
                    3D
 Structure written by MMmdl.
158167  0  0  1  0            999 V2000
  -30.6786  -14.5708   20.5640 C   0  0  0  0  0  0
  -30.4435  -12.3721   19.4399 C   0  0  0  0  0  0
  -29.5049  -12.4853   18.2204 C   0  0  0  0  0  0
  -28.0270  -12.3394   18.6359 C   0  0  0  0  0  0
  -27.6597  -13.2115   19.8650 C   0  0  2  0  0  0
  -28.7026  -13.0583   20.9951 C   0  0  0  0  0  0
  -25.2641  -13.8150   20.5717 C   0  0  0  0  0  0
  -24.1892  -13.0435   20.9179 C   0  0  0  0  0  0
  -24.6425  -11.6906   20.8740 C   0  0  0  0  0  0
  -23.9071  -10.4294   21.0385 C   0  0  0  0  0  0
  -24.3610   -9.4219   21.9168 C   0  0  0  0  0  0
  -23.6296   -8.2266   22.0756 C   0  0  0  0  0  0
  -22.4288   -8.0280   21.3536 C   0  0  0  0  0  0
  -21.9892   -9.0253   20.4648 C   0  0  0  0  0  0
  -22.7226  -10.2135   20.3045 C   0  0  0  0  0  0
  -21.6847   -6.0742   22.5264 C   0  0  0  0  0  0
  -21.4027   -6.5661   23.8194 C   0  0  0  0  0  0
  -21.3659   -5.6817   24.9156 C   0  0  0  0  0  0
  -21.6039   -4.3075   24.7217 C   0  0  0  0  0  0
  -21.8821   -3.8158   23.4337 C   0  0  0  0  0  0
  -21.9214   -4.6970   22.3397 C   0  0  0  0  0  0
  -22.7902  -13.5211   21.1840 C   0  0  0  0  0  0
  -22.1674   -4.2161   21.0965 F   0  0  0  0  0  0
  -21.5615   -3.4555   25.7726 F   0  0  0  0  0  0
  -30.0217  -13.3808   20.4263 N   0  0  0  0  0  0
  -26.3055  -12.9322   20.3335 N   0  0  0  0  0  0
  -25.9370  -11.6489   20.5792 N   0  0  0  0  0  0
  -22.0561  -12.8205   22.0381 N   0  0  0  0  0  0
  -25.4452  -15.1874   20.4197 N   0  0  0  0  0  0
  -31.8337  -14.7386   20.1660 O   0  0  0  0  0  0
  -21.6648   -6.8875   21.4219 O   0  0  0  0  0  0
  -22.3608  -14.5559   20.6726 O   0  0  0  0  0  0
  -24.6216  -31.8634   23.2057 C   0  0  0  0  0  0
  -25.9081  -32.4789   23.8377 C   0  0  1  0  0  0
  -27.2219  -27.3532   20.1461 C   0  0  0  0  0  0
  -25.5913  -33.8586   24.2309 N   0  0  0  0  0  0
  -23.4133  -30.4881   21.5431 C   0  0  2  0  0  0
  -24.8614  -28.9433   20.1099 C   0  0  0  0  0  0
  -22.7441  -29.4656   22.4912 C   0  0  0  0  0  0
  -18.0295  -28.1394   22.8475 C   0  0  0  0  0  0
  -24.1496  -36.7306   23.2644 C   0  0  0  0  0  0
  -25.9495  -30.8065   21.3703 C   0  0  0  0  0  0
  -26.0233  -29.4358   20.7172 C   0  0  0  0  0  0
  -27.2074  -28.6531   20.7214 C   0  0  0  0  0  0
  -26.0425  -26.8956   19.5154 C   0  0  0  0  0  0
  -24.8708  -27.6792   19.4970 C   0  0  0  0  0  0
  -23.6293  -29.8233   20.1555 C   0  0  0  0  0  0
  -25.4115  -36.3089   24.0341 C   0  0  1  0  0  0
  -20.5885  -28.3727   23.1293 C   0  0  2  0  0  0
  -20.6793  -26.9426   22.5486 C   0  0  0  0  0  0
  -19.5787  -26.6317   21.5292 C   0  0  0  0  0  0
  -18.1947  -26.7914   22.1658 C   0  0  0  0  0  0
  -19.1529  -28.8864   23.2866 C   0  0  0  0  0  0
  -18.9451  -30.1470   23.8890 C   0  0  0  0  0  0
  -17.6460  -30.6606   24.0548 C   0  0  0  0  0  0
  -25.9047  -34.9456   23.5137 C   0  0  0  0  0  0
  -16.5347  -29.9096   23.6303 C   0  0  0  0  0  0
  -16.7265  -28.6511   23.0344 C   0  0  0  0  0  0
  -26.4500  -31.6565   25.0722 C   0  0  0  0  0  0
  -25.3761  -31.3670   26.1471 C   0  0  0  0  0  0
  -27.0348  -30.3005   24.6128 C   0  0  0  0  0  0
  -27.6076  -32.4290   25.7483 C   0  0  0  0  0  0
  -27.5580  -37.1807   24.8463 C   0  0  0  0  0  0
  -21.4164  -29.3071   22.3664 N   0  0  0  0  0  0
  -26.4290  -37.3777   23.9410 N   0  0  0  0  0  0
  -24.6794  -31.0693   22.0969 N   0  0  0  0  0  0
  -23.4189  -28.8205   23.2978 O   0  0  0  0  0  0
  -28.3579  -26.5523   20.2161 O   0  0  0  0  0  0
  -26.5601  -34.8914   22.4691 O   0  0  0  0  0  0
  -23.5385  -32.1407   23.7406 O   0  0  0  0  0  0
  -28.1068  -19.2564   20.1802 C   0  0  0  0  0  0
  -27.3396  -20.4232   20.3045 C   0  0  0  0  0  0
  -29.4748  -19.3439   20.4569 C   0  0  0  0  0  0
  -29.2033  -21.6374   20.8565 C   0  0  0  0  0  0
  -29.2031  -23.7716   22.4309 C   0  0  0  0  0  0
  -29.8145  -22.9734   21.3128 C   0  0  2  0  0  0
  -29.4030  -24.4620   21.0828 C   0  0  2  0  0  0
  -25.8448  -20.4013   20.0751 C   0  0  0  0  0  0
  -30.3735  -18.0892   20.2833 C   0  0  0  0  0  0
  -28.1864  -25.1063   20.3832 C   0  0  0  0  0  0
  -30.3516  -16.9940   21.4113 C   0  0  0  0  0  0
  -27.8938  -21.6075   20.6332 N   0  0  0  0  0  0
  -30.0046  -20.5493   20.8152 N   0  0  0  0  0  0
  -29.9396  -15.6044   21.0378 N   0  0  0  0  0  0
  -31.4811  -12.5066   19.1283 H   0  0  0  0  0  0
  -30.3894  -11.3780   19.8847 H   0  0  0  0  0  0
  -29.7593  -11.7281   17.4798 H   0  0  0  0  0  0
  -29.6564  -13.4493   17.7333 H   0  0  0  0  0  0
  -27.8471  -11.2879   18.8648 H   0  0  0  0  0  0
  -27.3746  -12.5794   17.7988 H   0  0  0  0  0  0
  -27.6824  -14.2508   19.5273 H   0  0  0  0  0  0
  -28.7065  -12.0422   21.3894 H   0  0  0  0  0  0
  -28.4482  -13.6955   21.8441 H   0  0  0  0  0  0
  -25.2745   -9.5723   22.4745 H   0  0  0  0  0  0
  -24.0020   -7.4655   22.7472 H   0  0  0  0  0  0
  -21.0824   -8.8747   19.8948 H   0  0  0  0  0  0
  -22.3647  -10.9668   19.6173 H   0  0  0  0  0  0
  -21.2020   -7.6163   23.9686 H   0  0  0  0  0  0
  -21.1470   -6.0550   25.9055 H   0  0  0  0  0  0
  -22.0607   -2.7619   23.2824 H   0  0  0  0  0  0
  -22.4198  -11.9847   22.4710 H   0  0  0  0  0  0
  -21.1180  -13.1224   22.2613 H   0  0  0  0  0  0
  -24.6974  -15.8550   20.5784 H   0  0  0  0  0  0
  -26.3121  -15.6160   20.1254 H   0  0  0  0  0  0
  -26.7147  -32.5477   23.1123 H   0  0  0  0  0  0
  -25.0076  -33.9725   25.0467 H   0  0  0  0  0  0
  -22.7052  -31.3084   21.4016 H   0  0  0  0  0  0
  -23.3752  -35.9643   23.3311 H   0  0  0  0  0  0
  -24.3593  -36.8915   22.2055 H   0  0  0  0  0  0
  -23.7244  -37.6517   23.6654 H   0  0  0  0  0  0
  -26.0774  -31.5697   20.6017 H   0  0  0  0  0  0
  -26.8314  -30.8573   21.9968 H   0  0  0  0  0  0
  -28.0999  -29.0219   21.2086 H   0  0  0  0  0  0
  -26.0138  -25.9223   19.0465 H   0  0  0  0  0  0
  -23.9822  -27.2962   19.0174 H   0  0  0  0  0  0
  -23.7548  -30.6048   19.4035 H   0  0  0  0  0  0
  -22.7487  -29.2577   19.8458 H   0  0  0  0  0  0
  -25.1289  -36.1965   25.0830 H   0  0  0  0  0  0
  -20.9943  -28.3344   24.1417 H   0  0  0  0  0  0
  -20.5662  -26.2374   23.3723 H   0  0  0  0  0  0
  -21.6673  -26.7405   22.1324 H   0  0  0  0  0  0
  -19.6941  -25.6171   21.1459 H   0  0  0  0  0  0
  -19.6756  -27.3018   20.6733 H   0  0  0  0  0  0
  -17.4236  -26.6608   21.4060 H   0  0  0  0  0  0
  -18.0333  -26.0108   22.9099 H   0  0  0  0  0  0
  -19.7931  -30.7274   24.2272 H   0  0  0  0  0  0
  -17.5003  -31.6280   24.5127 H   0  0  0  0  0  0
  -15.5346  -30.3004   23.7607 H   0  0  0  0  0  0
  -15.8662  -28.0809   22.7075 H   0  0  0  0  0  0
  -24.5965  -30.6973   25.7819 H   0  0  0  0  0  0
  -24.8919  -32.2815   26.4907 H   0  0  0  0  0  0
  -25.8134  -30.8868   27.0233 H   0  0  0  0  0  0
  -26.2903  -29.6736   24.1215 H   0  0  0  0  0  0
  -27.4147  -29.7274   25.4591 H   0  0  0  0  0  0
  -27.8723  -30.4326   23.9281 H   0  0  0  0  0  0
  -27.2712  -33.3593   26.2068 H   0  0  0  0  0  0
  -28.3885  -32.6828   25.0305 H   0  0  0  0  0  0
  -28.0747  -31.8403   26.5383 H   0  0  0  0  0  0
  -28.2605  -38.0102   24.7510 H   0  0  0  0  0  0
  -28.1074  -36.2630   24.6297 H   0  0  0  0  0  0
  -27.2299  -37.1467   25.8867 H   0  0  0  0  0  0
  -20.9344  -29.8786   21.6876 H   0  0  0  0  0  0
  -26.0192  -38.2863   24.1399 H   0  0  0  0  0  0
  -27.6727  -18.3159   19.8659 H   0  0  0  0  0  0
  -29.8434  -24.0877   23.2515 H   0  0  0  0  0  0
  -28.1972  -23.4794   22.7248 H   0  0  0  0  0  0
  -30.8855  -22.8175   21.4070 H   0  0  0  0  0  0
  -30.2704  -25.1148   21.0131 H   0  0  0  0  0  0
  -25.3667  -21.2637   20.5398 H   0  0  0  0  0  0
  -25.4020  -19.5012   20.5055 H   0  0  0  0  0  0
  -25.6233  -20.4162   19.0076 H   0  0  0  0  0  0
  -31.3982  -18.4537   20.1944 H   0  0  0  0  0  0
  -30.1572  -17.6299   19.3209 H   0  0  0  0  0  0
  -27.2973  -24.8943   20.9806 H   0  0  0  0  0  0
  -28.0438  -24.6346   19.4109 H   0  0  0  0  0  0
  -29.7047  -17.3349   22.2209 H   0  0  0  0  0  0
  -31.3464  -16.9398   21.8541 H   0  0  0  0  0  0
  -28.9852  -15.3662   21.2614 H   0  0  0  0  0  0
  1 25  1  0  0  0
  1 30  2  0  0  0
  1 84  1  0  0  0
  2  3  1  0  0  0
  2 25  1  0  0  0
  2 85  1  0  0  0
  2 86  1  0  0  0
  3  4  1  0  0  0
  3 87  1  0  0  0
  3 88  1  0  0  0
  4  5  1  0  0  0
  4 89  1  0  0  0
  4 90  1  0  0  0
  5  6  1  0  0  0
  5 26  1  0  0  0
  5 91  1  0  0  0
  6 25  1  0  0  0
  6 92  1  0  0  0
  6 93  1  0  0  0
  7  8  2  0  0  0
  7 26  1  0  0  0
  7 29  1  0  0  0
  8  9  1  0  0  0
  8 22  1  0  0  0
  9 10  1  0  0  0
  9 27  2  0  0  0
 10 11  2  0  0  0
 10 15  1  0  0  0
 11 12  1  0  0  0
 11 94  1  0  0  0
 12 13  2  0  0  0
 12 95  1  0  0  0
 13 14  1  0  0  0
 13 31  1  0  0  0
 14 15  2  0  0  0
 14 96  1  0  0  0
 15 97  1  0  0  0
 16 17  2  0  0  0
 16 21  1  0  0  0
 16 31  1  0  0  0
 17 18  1  0  0  0
 17 98  1  0  0  0
 18 19  2  0  0  0
 18 99  1  0  0  0
 19 20  1  0  0  0
 19 24  1  0  0  0
 20 21  2  0  0  0
 20100  1  0  0  0
 21 23  1  0  0  0
 22 28  1  0  0  0
 22 32  2  0  0  0
 26 27  1  0  0  0
 28101  1  0  0  0
 28102  1  0  0  0
 29103  1  0  0  0
 29104  1  0  0  0
 33 34  1  0  0  0
 33 66  1  0  0  0
 33 70  2  0  0  0
 34 36  1  0  0  0
 34 59  1  0  0  0
 34105  1  0  0  0
 35 44  2  0  0  0
 35 45  1  0  0  0
 35 68  1  0  0  0
 36 56  1  0  0  0
 36106  1  0  0  0
 37 39  1  0  0  0
 37 47  1  0  0  0
 37 66  1  0  0  0
 37107  1  0  0  0
 38 43  2  0  0  0
 38 46  1  0  0  0
 38 47  1  0  0  0
 39 64  1  0  0  0
 39 67  2  0  0  0
 40 52  1  0  0  0
 40 53  2  0  0  0
 40 58  1  0  0  0
 41108  1  0  0  0
 41109  1  0  0  0
 41110  1  0  0  0
 41 48  1  0  0  0
 42 43  1  0  0  0
 42 66  1  0  0  0
 42111  1  0  0  0
 42112  1  0  0  0
 43 44  1  0  0  0
 44113  1  0  0  0
 45 46  2  0  0  0
 45114  1  0  0  0
 46115  1  0  0  0
 47116  1  0  0  0
 47117  1  0  0  0
 48 56  1  0  0  0
 48 65  1  0  0  0
 48118  1  0  0  0
 49 50  1  0  0  0
 49 53  1  0  0  0
 49 64  1  0  0  0
 49119  1  0  0  0
 50 51  1  0  0  0
 50120  1  0  0  0
 50121  1  0  0  0
 51 52  1  0  0  0
 51122  1  0  0  0
 51123  1  0  0  0
 52124  1  0  0  0
 52125  1  0  0  0
 53 54  1  0  0  0
 54 55  2  0  0  0
 54126  1  0  0  0
 55 57  1  0  0  0
 55127  1  0  0  0
 56 69  2  0  0  0
 57 58  2  0  0  0
 57128  1  0  0  0
 58129  1  0  0  0
 59 60  1  0  0  0
 59 61  1  0  0  0
 59 62  1  0  0  0
 60130  1  0  0  0
 60131  1  0  0  0
 60132  1  0  0  0
 61133  1  0  0  0
 61134  1  0  0  0
 61135  1  0  0  0
 62136  1  0  0  0
 62137  1  0  0  0
 62138  1  0  0  0
 63 65  1  0  0  0
 63139  1  0  0  0
 63140  1  0  0  0
 63141  1  0  0  0
 64142  1  0  0  0
 65143  1  0  0  0
 68 80  1  0  0  0
 71 72  2  0  0  0
 71 73  1  0  0  0
 71144  1  0  0  0
 72 78  1  0  0  0
 72 82  1  0  0  0
 73 79  1  0  0  0
 73 83  2  0  0  0
 74 82  2  0  0  0
 74 83  1  0  0  0
 74 76  1  0  0  0
 75 76  1  0  0  0
 75 77  1  0  0  0
 75145  1  0  0  0
 75146  1  0  0  0
 76 77  1  0  0  0
 76147  1  0  0  0
 77 80  1  0  0  0
 77148  1  0  0  0
 78149  1  0  0  0
 78150  1  0  0  0
 78151  1  0  0  0
 79 81  1  0  0  0
 79152  1  0  0  0
 79153  1  0  0  0
 80154  1  0  0  0
 80155  1  0  0  0
 81 84  1  0  0  0
 81156  1  0  0  0
 81157  1  0  0  0
 84158  1  0  0  0
M  ISO  4   1 100  68 101  80 101  84 100
M  END
> <chiral flag>
0

> <version>
0

> <s_m_source_file>
/data/baiqing/PycharmProjects/Reinvent-master-3.2/result/LINK_invent/BTK/process_docking_weight1_custom_sum_contain_oxygen_bond_distance_aromatic_linkinvent_7_9_3/rearranged_h_0182.sdf

> <i_m_source_file_index>
58

> <r_mmod_Potential_Energy-OPLS-2005>
-391.957580566406

> <r_mmod_Stretch_Energy-OPLS-2005>
56.7299537658691

> <r_mmod_Bend_Energy-OPLS-2005>
137.215576171875

> <r_mmod_Torsional_Energy-OPLS-2005>
242.341903686523

> <r_mmod_Improper_Torsional_Energy-OPLS-2005>
3.23879361152649

> <r_mmod_Van_der_Waal_Energy-OPLS-2005>
146.426788330078

> <r_mmod_Electrostatic_Energy-OPLS-2005>
-776.711669921875

> <r_mmod_Solvation_Energy-OPLS-2005>
-235.736251831055

> <b_mmod_Minimization_Converged-OPLS-2005>
0

> <r_mmod_RMS_Derivative-OPLS-2005>
4.61299610137939

$$$$
58
                    3D
 Structure written by MMmdl.
160170  0  0  1  0            999 V2000
  -30.5316  -14.9837   20.4179 C   0  0  0  0  0  0
  -30.4395  -12.6133   19.4989 C   0  0  0  0  0  0
  -29.5226  -12.5345   18.2562 C   0  0  0  0  0  0
  -28.0568  -12.3159   18.6756 C   0  0  0  0  0  0
  -27.6270  -13.2535   19.8343 C   0  0  2  0  0  0
  -28.6682  -13.3002   20.9716 C   0  0  0  0  0  0
  -25.2457  -13.8226   20.5718 C   0  0  0  0  0  0
  -24.1771  -13.0442   20.9214 C   0  0  0  0  0  0
  -24.6391  -11.6927   20.8734 C   0  0  0  0  0  0
  -23.9077  -10.4294   21.0392 C   0  0  0  0  0  0
  -24.3627   -9.4211   21.9171 C   0  0  0  0  0  0
  -23.6301   -8.2244   22.0747 C   0  0  0  0  0  0
  -22.4283   -8.0278   21.3541 C   0  0  0  0  0  0
  -21.9916   -9.0252   20.4646 C   0  0  0  0  0  0
  -22.7244  -10.2129   20.3049 C   0  0  0  0  0  0
  -21.6858   -6.0733   22.5277 C   0  0  0  0  0  0
  -21.4016   -6.5639   23.8209 C   0  0  0  0  0  0
  -21.3660   -5.6793   24.9173 C   0  0  0  0  0  0
  -21.6043   -4.3054   24.7223 C   0  0  0  0  0  0
  -21.8819   -3.8143   23.4346 C   0  0  0  0  0  0
  -21.9194   -4.6959   22.3401 C   0  0  0  0  0  0
  -22.7792  -13.5209   21.1878 C   0  0  0  0  0  0
  -22.1662   -4.2141   21.0980 F   0  0  0  0  0  0
  -21.5631   -3.4540   25.7739 F   0  0  0  0  0  0
  -29.9379  -13.7197   20.3667 N   0  0  0  0  0  0
  -26.2878  -12.9463   20.3234 N   0  0  0  0  0  0
  -25.9324  -11.6588   20.5712 N   0  0  0  0  0  0
  -22.0453  -12.8194   22.0438 N   0  0  0  0  0  0
  -25.4152  -15.1953   20.4198 N   0  0  0  0  0  0
  -31.7389  -15.0373   20.1571 O   0  0  0  0  0  0
  -21.6645   -6.8875   21.4239 O   0  0  0  0  0  0
  -22.3471  -14.5513   20.6723 O   0  0  0  0  0  0
  -24.6483  -31.8409   23.1868 C   0  0  0  0  0  0
  -25.9244  -32.4673   23.8261 C   0  0  1  0  0  0
  -27.2075  -27.0902   20.1485 C   0  0  0  0  0  0
  -25.5981  -33.8481   24.2175 N   0  0  0  0  0  0
  -23.4534  -30.4620   21.5335 C   0  0  2  0  0  0
  -24.9029  -28.8888   20.1069 C   0  0  0  0  0  0
  -22.7592  -29.4536   22.4842 C   0  0  0  0  0  0
  -18.0307  -28.1403   22.8470 C   0  0  0  0  0  0
  -24.1493  -36.7242   23.2639 C   0  0  0  0  0  0
  -26.0146  -30.6977   21.3961 C   0  0  0  0  0  0
  -26.0830  -29.3066   20.7350 C   0  0  0  0  0  0
  -27.2348  -28.4231   20.7436 C   0  0  0  0  0  0
  -26.0049  -26.8025   19.4602 C   0  0  0  0  0  0
  -24.8800  -27.6514   19.4527 C   0  0  0  0  0  0
  -23.6823  -29.7957   20.1521 C   0  0  0  0  0  0
  -25.4126  -36.3016   24.0313 C   0  0  1  0  0  0
  -20.5921  -28.3735   23.1216 C   0  0  2  0  0  0
  -20.6790  -26.9431   22.5404 C   0  0  0  0  0  0
  -19.5769  -26.6382   21.5208 C   0  0  0  0  0  0
  -18.1949  -26.7942   22.1614 C   0  0  0  0  0  0
  -19.1564  -28.8886   23.2836 C   0  0  0  0  0  0
  -18.9480  -30.1480   23.8866 C   0  0  0  0  0  0
  -17.6476  -30.6596   24.0558 C   0  0  0  0  0  0
  -25.9085  -34.9395   23.5052 C   0  0  0  0  0  0
  -16.5367  -29.9087   23.6337 C   0  0  0  0  0  0
  -16.7291  -28.6507   23.0355 C   0  0  0  0  0  0
  -26.4544  -31.6553   25.0720 C   0  0  0  0  0  0
  -25.3712  -31.3774   26.1405 C   0  0  0  0  0  0
  -27.0402  -30.2929   24.6351 C   0  0  0  0  0  0
  -27.6073  -32.4320   25.7503 C   0  0  0  0  0  0
  -27.5579  -37.1773   24.8459 C   0  0  0  0  0  0
  -21.4280  -29.3054   22.3586 N   0  0  0  0  0  0
  -26.4280  -37.3738   23.9416 N   0  0  0  0  0  0
  -24.7254  -31.0225   22.0929 N   0  0  0  0  0  0
  -23.4217  -28.8078   23.3004 O   0  0  0  0  0  0
  -28.2143  -26.0402   20.2431 O   0  0  0  0  0  0
  -26.5664  -34.8899   22.4627 O   0  0  0  0  0  0
  -23.5593  -32.1306   23.7063 O   0  0  0  0  0  0
  -28.5077  -20.7587   21.3468 C   0  0  0  0  0  0
  -28.1340  -22.1710   21.2869 C   0  0  0  0  0  0
  -28.5463  -23.0639   20.2272 C   0  0  0  0  0  0
  -29.3072  -20.0901   20.3634 C   0  0  0  0  0  0
  -29.3683  -22.3191   19.3008 C   0  0  0  0  0  0
  -27.5796  -23.9101   23.1716 C   0  0  0  0  0  0
  -27.5694  -22.5463   23.8205 C   0  0  0  0  0  0
  -29.8053  -17.3525   21.4946 C   0  0  0  0  0  0
  -29.4533  -17.2430   19.4577 C   0  0  0  0  0  0
  -27.2203  -22.6884   22.3573 C   0  0  0  0  0  0
  -29.8116  -18.4845   20.3789 C   0  0  0  0  0  0
  -29.8864  -23.0177   18.0598 C   0  0  0  0  0  0
  -27.8285  -24.5519   19.9148 C   0  0  0  0  0  0
  -29.7218  -20.9613   19.3750 N   0  0  0  0  0  0
  -29.7497  -16.1847   20.5147 N   0  0  0  0  0  0
  -31.4723  -12.7759   19.1865 H   0  0  0  0  0  0
  -30.4388  -11.6670   20.0425 H   0  0  0  0  0  0
  -29.8489  -11.7314   17.5940 H   0  0  0  0  0  0
  -29.6045  -13.4586   17.6815 H   0  0  0  0  0  0
  -27.9589  -11.2762   18.9898 H   0  0  0  0  0  0
  -27.3931  -12.4386   17.8186 H   0  0  0  0  0  0
  -27.5844  -14.2527   19.3991 H   0  0  0  0  0  0
  -28.7629  -12.3317   21.4644 H   0  0  0  0  0  0
  -28.3621  -14.0148   21.7378 H   0  0  0  0  0  0
  -25.2769   -9.5691   22.4746 H   0  0  0  0  0  0
  -24.0011   -7.4639   22.7471 H   0  0  0  0  0  0
  -21.0842   -8.8772   19.8957 H   0  0  0  0  0  0
  -22.3695  -10.9667   19.6161 H   0  0  0  0  0  0
  -21.2007   -7.6148   23.9712 H   0  0  0  0  0  0
  -21.1485   -6.0523   25.9077 H   0  0  0  0  0  0
  -22.0596   -2.7604   23.2848 H   0  0  0  0  0  0
  -22.4083  -11.9865   22.4830 H   0  0  0  0  0  0
  -21.1066  -13.1207   22.2648 H   0  0  0  0  0  0
  -24.6546  -15.8540   20.5458 H   0  0  0  0  0  0
  -26.2822  -15.6371   20.1404 H   0  0  0  0  0  0
  -26.7309  -32.5259   23.0983 H   0  0  0  0  0  0
  -25.0114  -33.9587   25.0314 H   0  0  0  0  0  0
  -22.7583  -31.2898   21.3792 H   0  0  0  0  0  0
  -23.3767  -35.9559   23.3267 H   0  0  0  0  0  0
  -24.3586  -36.8910   22.2061 H   0  0  0  0  0  0
  -23.7230  -37.6421   23.6698 H   0  0  0  0  0  0
  -26.1787  -31.4499   20.6235 H   0  0  0  0  0  0
  -26.8822  -30.7459   22.0424 H   0  0  0  0  0  0
  -28.1254  -28.7337   21.2714 H   0  0  0  0  0  0
  -25.8783  -25.8690   18.9348 H   0  0  0  0  0  0
  -23.9839  -27.3298   18.9394 H   0  0  0  0  0  0
  -23.8238  -30.5722   19.3996 H   0  0  0  0  0  0
  -22.7955  -29.2429   19.8370 H   0  0  0  0  0  0
  -25.1312  -36.1833   25.0803 H   0  0  0  0  0  0
  -21.0009  -28.3330   24.1339 H   0  0  0  0  0  0
  -20.5668  -26.2353   23.3632 H   0  0  0  0  0  0
  -21.6659  -26.7426   22.1210 H   0  0  0  0  0  0
  -19.6929  -25.6284   21.1265 H   0  0  0  0  0  0
  -19.6713  -27.3171   20.6722 H   0  0  0  0  0  0
  -17.4219  -26.6684   21.4016 H   0  0  0  0  0  0
  -18.0347  -26.0093   22.9015 H   0  0  0  0  0  0
  -19.7955  -30.7302   24.2225 H   0  0  0  0  0  0
  -17.5030  -31.6270   24.5169 H   0  0  0  0  0  0
  -15.5366  -30.2978   23.7685 H   0  0  0  0  0  0
  -15.8691  -28.0820   22.7084 H   0  0  0  0  0  0
  -24.5922  -30.7077   25.7745 H   0  0  0  0  0  0
  -24.8860  -32.2960   26.4711 H   0  0  0  0  0  0
  -25.7984  -30.9047   27.0257 H   0  0  0  0  0  0
  -26.3028  -29.6649   24.1336 H   0  0  0  0  0  0
  -27.3953  -29.7242   25.4956 H   0  0  0  0  0  0
  -27.8971  -30.4132   23.9719 H   0  0  0  0  0  0
  -27.2673  -33.3652   26.2008 H   0  0  0  0  0  0
  -28.3921  -32.6828   25.0354 H   0  0  0  0  0  0
  -28.0697  -31.8488   26.5477 H   0  0  0  0  0  0
  -28.2565  -38.0098   24.7526 H   0  0  0  0  0  0
  -28.1102  -36.2627   24.6247 H   0  0  0  0  0  0
  -27.2305  -37.1374   25.8862 H   0  0  0  0  0  0
  -20.9499  -29.8775   21.6766 H   0  0  0  0  0  0
  -26.0140  -38.2799   24.1437 H   0  0  0  0  0  0
  -28.1442  -20.1676   22.1772 H   0  0  0  0  0  0
  -28.5469  -24.3740   22.9889 H   0  0  0  0  0  0
  -26.7757  -24.5933   23.4383 H   0  0  0  0  0  0
  -26.7588  -22.3373   24.5157 H   0  0  0  0  0  0
  -28.5318  -22.1069   24.0755 H   0  0  0  0  0  0
  -28.9127  -17.4061   22.1196 H   0  0  0  0  0  0
  -30.6931  -17.3757   22.1275 H   0  0  0  0  0  0
  -30.0801  -17.1845   18.5667 H   0  0  0  0  0  0
  -28.4030  -17.2480   19.1637 H   0  0  0  0  0  0
  -26.1770  -22.5554   22.0764 H   0  0  0  0  0  0
  -30.8754  -18.6418   20.1937 H   0  0  0  0  0  0
  -30.2903  -23.9984   18.3128 H   0  0  0  0  0  0
  -29.0819  -23.1531   17.3371 H   0  0  0  0  0  0
  -30.6796  -22.4460   17.5773 H   0  0  0  0  0  0
  -26.8282  -24.4236   20.3275 H   0  0  0  0  0  0
  -27.6758  -24.5434   18.8358 H   0  0  0  0  0  0
  1 25  1  0  0  0
  1 30  2  0  0  0
  1 85  1  0  0  0
  2  3  1  0  0  0
  2 25  1  0  0  0
  2 86  1  0  0  0
  2 87  1  0  0  0
  3  4  1  0  0  0
  3 88  1  0  0  0
  3 89  1  0  0  0
  4  5  1  0  0  0
  4 90  1  0  0  0
  4 91  1  0  0  0
  5  6  1  0  0  0
  5 26  1  0  0  0
  5 92  1  0  0  0
  6 25  1  0  0  0
  6 93  1  0  0  0
  6 94  1  0  0  0
  7  8  2  0  0  0
  7 26  1  0  0  0
  7 29  1  0  0  0
  8  9  1  0  0  0
  8 22  1  0  0  0
  9 10  1  0  0  0
  9 27  2  0  0  0
 10 11  2  0  0  0
 10 15  1  0  0  0
 11 12  1  0  0  0
 11 95  1  0  0  0
 12 13  2  0  0  0
 12 96  1  0  0  0
 13 14  1  0  0  0
 13 31  1  0  0  0
 14 15  2  0  0  0
 14 97  1  0  0  0
 15 98  1  0  0  0
 16 17  2  0  0  0
 16 21  1  0  0  0
 16 31  1  0  0  0
 17 18  1  0  0  0
 17 99  1  0  0  0
 18 19  2  0  0  0
 18100  1  0  0  0
 19 20  1  0  0  0
 19 24  1  0  0  0
 20 21  2  0  0  0
 20101  1  0  0  0
 21 23  1  0  0  0
 22 28  1  0  0  0
 22 32  2  0  0  0
 26 27  1  0  0  0
 28102  1  0  0  0
 28103  1  0  0  0
 29104  1  0  0  0
 29105  1  0  0  0
 33 34  1  0  0  0
 33 66  1  0  0  0
 33 70  2  0  0  0
 34 36  1  0  0  0
 34 59  1  0  0  0
 34106  1  0  0  0
 35 44  2  0  0  0
 35 45  1  0  0  0
 35 68  1  0  0  0
 36 56  1  0  0  0
 36107  1  0  0  0
 37 39  1  0  0  0
 37 47  1  0  0  0
 37 66  1  0  0  0
 37108  1  0  0  0
 38 43  2  0  0  0
 38 46  1  0  0  0
 38 47  1  0  0  0
 39 64  1  0  0  0
 39 67  2  0  0  0
 40 52  1  0  0  0
 40 53  2  0  0  0
 40 58  1  0  0  0
 41109  1  0  0  0
 41110  1  0  0  0
 41111  1  0  0  0
 41 48  1  0  0  0
 42 43  1  0  0  0
 42 66  1  0  0  0
 42112  1  0  0  0
 42113  1  0  0  0
 43 44  1  0  0  0
 44114  1  0  0  0
 45 46  2  0  0  0
 45115  1  0  0  0
 46116  1  0  0  0
 47117  1  0  0  0
 47118  1  0  0  0
 48 56  1  0  0  0
 48 65  1  0  0  0
 48119  1  0  0  0
 49 50  1  0  0  0
 49 53  1  0  0  0
 49 64  1  0  0  0
 49120  1  0  0  0
 50 51  1  0  0  0
 50121  1  0  0  0
 50122  1  0  0  0
 51 52  1  0  0  0
 51123  1  0  0  0
 51124  1  0  0  0
 52125  1  0  0  0
 52126  1  0  0  0
 53 54  1  0  0  0
 54 55  2  0  0  0
 54127  1  0  0  0
 55 57  1  0  0  0
 55128  1  0  0  0
 56 69  2  0  0  0
 57 58  2  0  0  0
 57129  1  0  0  0
 58130  1  0  0  0
 59 60  1  0  0  0
 59 61  1  0  0  0
 59 62  1  0  0  0
 60131  1  0  0  0
 60132  1  0  0  0
 60133  1  0  0  0
 61134  1  0  0  0
 61135  1  0  0  0
 61136  1  0  0  0
 62137  1  0  0  0
 62138  1  0  0  0
 62139  1  0  0  0
 63 65  1  0  0  0
 63140  1  0  0  0
 63141  1  0  0  0
 63142  1  0  0  0
 64143  1  0  0  0
 65144  1  0  0  0
 68 83  1  0  0  0
 71 72  2  0  0  0
 71 74  1  0  0  0
 71145  1  0  0  0
 72 73  1  0  0  0
 72 80  1  0  0  0
 73 75  2  0  0  0
 73 83  1  0  0  0
 74 84  2  0  0  0
 74 81  1  0  0  0
 75 82  1  0  0  0
 75 84  1  0  0  0
 76 77  1  0  0  0
 76 80  1  0  0  0
 76146  1  0  0  0
 76147  1  0  0  0
 77 80  1  0  0  0
 77148  1  0  0  0
 77149  1  0  0  0
 78 81  1  0  0  0
 78 85  1  0  0  0
 78150  1  0  0  0
 78151  1  0  0  0
 79 81  1  0  0  0
 79 85  1  0  0  0
 79152  1  0  0  0
 79153  1  0  0  0
 80154  1  0  0  0
 81155  1  0  0  0
 82156  1  0  0  0
 82157  1  0  0  0
 82158  1  0  0  0
 83159  1  0  0  0
 83160  1  0  0  0
M  ISO  4   1 100  68 101  83 101  85 100
M  END
> <chiral flag>
0

> <version>
0

> <s_m_source_file>
/data/baiqing/PycharmProjects/Reinvent-master-3.2/result/LINK_invent/BTK/process_docking_weight1_custom_sum_contain_oxygen_bond_distance_aromatic_linkinvent_7_9_3/rearranged_h_0182.sdf

> <i_m_source_file_index>
59

> <r_mmod_Potential_Energy-OPLS-2005>
579.371520996094

> <r_mmod_Stretch_Energy-OPLS-2005>
260.136566162109

> <r_mmod_Bend_Energy-OPLS-2005>
302.504302978516

> <r_mmod_Torsional_Energy-OPLS-2005>
321.716064453125

> <r_mmod_Improper_Torsional_Energy-OPLS-2005>
14.3663549423218

> <r_mmod_Van_der_Waal_Energy-OPLS-2005>
127.55541229248

> <r_mmod_Electrostatic_Energy-OPLS-2005>
-467.443725585938

> <r_mmod_Solvation_Energy-OPLS-2005>
-212.85075378418

> <b_mmod_Minimization_Converged-OPLS-2005>
0

> <r_mmod_RMS_Derivative-OPLS-2005>
0.772919774055481

$$$$
59
                    3D
 Structure written by MMmdl.
147156  0  0  1  0            999 V2000
  -30.4133  -15.2622   20.3695 C   0  0  0  0  0  0
  -30.4455  -12.8010   19.5268 C   0  0  0  0  0  0
  -29.5389  -12.5797   18.2883 C   0  0  0  0  0  0
  -28.0854  -12.3039   18.7128 C   0  0  0  0  0  0
  -27.6152  -13.2716   19.8269 C   0  0  2  0  0  0
  -28.6498  -13.4258   20.9627 C   0  0  0  0  0  0
  -25.2399  -13.8238   20.5736 C   0  0  0  0  0  0
  -24.1750  -13.0431   20.9256 C   0  0  0  0  0  0
  -24.6401  -11.6928   20.8760 C   0  0  0  0  0  0
  -23.9094  -10.4290   21.0405 C   0  0  0  0  0  0
  -24.3637   -9.4203   21.9184 C   0  0  0  0  0  0
  -23.6304   -8.2242   22.0754 C   0  0  0  0  0  0
  -22.4285   -8.0283   21.3545 C   0  0  0  0  0  0
  -21.9927   -9.0257   20.4646 C   0  0  0  0  0  0
  -22.7263  -10.2132   20.3054 C   0  0  0  0  0  0
  -21.6856   -6.0738   22.5279 C   0  0  0  0  0  0
  -21.4016   -6.5641   23.8212 C   0  0  0  0  0  0
  -21.3660   -5.6793   24.9174 C   0  0  0  0  0  0
  -21.6044   -4.3056   24.7225 C   0  0  0  0  0  0
  -21.8819   -3.8148   23.4346 C   0  0  0  0  0  0
  -21.9193   -4.6965   22.3402 C   0  0  0  0  0  0
  -22.7767  -13.5186   21.1902 C   0  0  0  0  0  0
  -22.1662   -4.2150   21.0980 F   0  0  0  0  0  0
  -21.5628   -3.4539   25.7737 F   0  0  0  0  0  0
  -29.8852  -13.9379   20.3454 N   0  0  0  0  0  0
  -26.2829  -12.9507   20.3218 N   0  0  0  0  0  0
  -25.9339  -11.6616   20.5720 N   0  0  0  0  0  0
  -22.0424  -12.8169   22.0456 N   0  0  0  0  0  0
  -25.4012  -15.1975   20.4161 N   0  0  0  0  0  0
  -31.6323  -15.2890   20.1282 O   0  0  0  0  0  0
  -21.6644   -6.8882   21.4242 O   0  0  0  0  0  0
  -22.3447  -14.5489   20.6743 O   0  0  0  0  0  0
  -24.6622  -31.8234   23.1699 C   0  0  0  0  0  0
  -25.9305  -32.4587   23.8165 C   0  0  1  0  0  0
  -27.2227  -26.9333   20.1853 C   0  0  0  0  0  0
  -25.5973  -33.8401   24.2071 N   0  0  0  0  0  0
  -23.4770  -30.4339   21.5190 C   0  0  2  0  0  0
  -24.9312  -28.8197   20.1122 C   0  0  0  0  0  0
  -22.7664  -29.4438   22.4783 C   0  0  0  0  0  0
  -18.0321  -28.1408   22.8466 C   0  0  0  0  0  0
  -24.1494  -36.7207   23.2648 C   0  0  0  0  0  0
  -26.0453  -30.6320   21.3989 C   0  0  0  0  0  0
  -26.1143  -29.2218   20.7442 C   0  0  0  0  0  0
  -27.2544  -28.2998   20.7546 C   0  0  0  0  0  0
  -26.0104  -26.6800   19.5055 C   0  0  0  0  0  0
  -24.9042  -27.5693   19.4725 C   0  0  0  0  0  0
  -23.7167  -29.7470   20.1459 C   0  0  0  0  0  0
  -25.4135  -36.2967   24.0299 C   0  0  1  0  0  0
  -20.5945  -28.3751   23.1190 C   0  0  2  0  0  0
  -20.6797  -26.9433   22.5404 C   0  0  0  0  0  0
  -19.5772  -26.6376   21.5214 C   0  0  0  0  0  0
  -18.1954  -26.7941   22.1622 C   0  0  0  0  0  0
  -19.1583  -28.8901   23.2815 C   0  0  0  0  0  0
  -18.9493  -30.1490   23.8850 C   0  0  0  0  0  0
  -17.6486  -30.6597   24.0554 C   0  0  0  0  0  0
  -25.9099  -34.9349   23.5007 C   0  0  0  0  0  0
  -16.5377  -29.9084   23.6343 C   0  0  0  0  0  0
  -16.7303  -28.6504   23.0362 C   0  0  0  0  0  0
  -26.4558  -31.6533   25.0694 C   0  0  0  0  0  0
  -25.3685  -31.3783   26.1351 C   0  0  0  0  0  0
  -27.0458  -30.2902   24.6428 C   0  0  0  0  0  0
  -27.6046  -32.4347   25.7499 C   0  0  0  0  0  0
  -27.5570  -37.1761   24.8466 C   0  0  0  0  0  0
  -21.4333  -29.3040   22.3536 N   0  0  0  0  0  0
  -26.4280  -37.3703   23.9407 N   0  0  0  0  0  0
  -24.7494  -30.9901   22.0830 N   0  0  0  0  0  0
  -23.4212  -28.8013   23.3029 O   0  0  0  0  0  0
  -28.2334  -25.8390   20.2694 O   0  0  0  0  0  0
  -26.5713  -34.8886   22.4606 O   0  0  0  0  0  0
  -23.5693  -32.1202   23.6796 O   0  0  0  0  0  0
  -27.9767  -20.0123   20.8385 C   0  0  0  0  0  0
  -28.8636  -21.0583   20.4032 C   0  0  0  0  0  0
  -30.0421  -20.3907   20.0151 C   0  0  0  0  0  0
  -29.4484  -18.0341   20.4434 C   0  0  0  0  0  0
  -30.3610  -22.6935   19.6593 C   0  0  0  0  0  0
  -29.0133  -22.7521   20.4581 C   0  0  1  0  0  0
  -28.0121  -24.2109   20.0957 C   0  0  0  0  0  0
  -28.2638  -18.6205   20.8307 N   0  0  0  0  0  0
  -30.3530  -18.9953   20.0234 N   0  0  0  0  0  0
  -29.5681  -16.4742   20.5006 N   0  0  0  0  0  0
  -30.9706  -21.3476   19.6715 O   0  0  0  0  0  0
  -31.4635  -13.0111   19.1958 H   0  0  0  0  0  0
  -30.5158  -11.8900   20.1235 H   0  0  0  0  0  0
  -29.9165  -11.7555   17.6816 H   0  0  0  0  0  0
  -29.5704  -13.4669   17.6540 H   0  0  0  0  0  0
  -28.0377  -11.2771   19.0773 H   0  0  0  0  0  0
  -27.4180  -12.3546   17.8516 H   0  0  0  0  0  0
  -27.5353  -14.2430   19.3377 H   0  0  0  0  0  0
  -28.8147  -12.4809   21.4829 H   0  0  0  0  0  0
  -28.2894  -14.1312   21.7131 H   0  0  0  0  0  0
  -25.2779   -9.5678   22.4764 H   0  0  0  0  0  0
  -24.0008   -7.4634   22.7476 H   0  0  0  0  0  0
  -21.0857   -8.8782   19.8951 H   0  0  0  0  0  0
  -22.3722  -10.9673   19.6165 H   0  0  0  0  0  0
  -21.2010   -7.6149   23.9716 H   0  0  0  0  0  0
  -21.1482   -6.0523   25.9077 H   0  0  0  0  0  0
  -22.0597   -2.7610   23.2846 H   0  0  0  0  0  0
  -22.4056  -11.9839   22.4849 H   0  0  0  0  0  0
  -21.1035  -13.1175   22.2658 H   0  0  0  0  0  0
  -24.6241  -15.8398   20.5280 H   0  0  0  0  0  0
  -26.2276  -15.6448   20.0430 H   0  0  0  0  0  0
  -26.7374  -32.5127   23.0881 H   0  0  0  0  0  0
  -25.0063  -33.9478   25.0183 H   0  0  0  0  0  0
  -22.7901  -31.2652   21.3472 H   0  0  0  0  0  0
  -23.3767  -35.9526   23.3278 H   0  0  0  0  0  0
  -24.3570  -36.8887   22.2068 H   0  0  0  0  0  0
  -23.7240  -37.6382   23.6726 H   0  0  0  0  0  0
  -26.2241  -31.3733   20.6188 H   0  0  0  0  0  0
  -26.9057  -30.6897   22.0537 H   0  0  0  0  0  0
  -28.1502  -28.6060   21.2764 H   0  0  0  0  0  0
  -25.8858  -25.7233   19.0194 H   0  0  0  0  0  0
  -24.0048  -27.2552   18.9607 H   0  0  0  0  0  0
  -23.8711  -30.5142   19.3864 H   0  0  0  0  0  0
  -22.8266  -29.2002   19.8296 H   0  0  0  0  0  0
  -25.1334  -36.1762   25.0790 H   0  0  0  0  0  0
  -21.0033  -28.3358   24.1313 H   0  0  0  0  0  0
  -20.5676  -26.2370   23.3644 H   0  0  0  0  0  0
  -21.6661  -26.7408   22.1212 H   0  0  0  0  0  0
  -19.6931  -25.6275   21.1275 H   0  0  0  0  0  0
  -19.6711  -27.3160   20.6723 H   0  0  0  0  0  0
  -17.4223  -26.6683   21.4026 H   0  0  0  0  0  0
  -18.0349  -26.0094   22.9030 H   0  0  0  0  0  0
  -19.7969  -30.7319   24.2198 H   0  0  0  0  0  0
  -17.5037  -31.6272   24.5165 H   0  0  0  0  0  0
  -15.5375  -30.2970   23.7694 H   0  0  0  0  0  0
  -15.8704  -28.0806   22.7104 H   0  0  0  0  0  0
  -24.5882  -30.7116   25.7659 H   0  0  0  0  0  0
  -24.8857  -32.2984   26.4653 H   0  0  0  0  0  0
  -25.7917  -30.9031   27.0209 H   0  0  0  0  0  0
  -26.3127  -29.6573   24.1416 H   0  0  0  0  0  0
  -27.3973  -29.7271   25.5084 H   0  0  0  0  0  0
  -27.9073  -30.4084   23.9852 H   0  0  0  0  0  0
  -27.2610  -33.3690   26.1950 H   0  0  0  0  0  0
  -28.3924  -32.6840   25.0378 H   0  0  0  0  0  0
  -28.0641  -31.8559   26.5522 H   0  0  0  0  0  0
  -28.2568  -38.0075   24.7514 H   0  0  0  0  0  0
  -28.1087  -36.2601   24.6293 H   0  0  0  0  0  0
  -27.2286  -37.1402   25.8868 H   0  0  0  0  0  0
  -20.9589  -29.8724   21.6659 H   0  0  0  0  0  0
  -26.0127  -38.2761   24.1415 H   0  0  0  0  0  0
  -27.0148  -20.2787   21.2510 H   0  0  0  0  0  0
  -31.0670  -23.4389   20.0262 H   0  0  0  0  0  0
  -30.1637  -22.9405   18.6155 H   0  0  0  0  0  0
  -29.2792  -22.9014   21.5051 H   0  0  0  0  0  0
  -27.0840  -24.0364   20.6403 H   0  0  0  0  0  0
  -27.7293  -24.1014   19.0487 H   0  0  0  0  0  0
  -28.6524  -16.1227   20.7207 H   0  0  0  0  0  0
  1 25  1  0  0  0
  1 30  2  0  0  0
  1 80  1  0  0  0
  2  3  1  0  0  0
  2 25  1  0  0  0
  2 82  1  0  0  0
  2 83  1  0  0  0
  3  4  1  0  0  0
  3 84  1  0  0  0
  3 85  1  0  0  0
  4  5  1  0  0  0
  4 86  1  0  0  0
  4 87  1  0  0  0
  5  6  1  0  0  0
  5 26  1  0  0  0
  5 88  1  0  0  0
  6 25  1  0  0  0
  6 89  1  0  0  0
  6 90  1  0  0  0
  7  8  2  0  0  0
  7 26  1  0  0  0
  7 29  1  0  0  0
  8  9  1  0  0  0
  8 22  1  0  0  0
  9 10  1  0  0  0
  9 27  2  0  0  0
 10 11  2  0  0  0
 10 15  1  0  0  0
 11 12  1  0  0  0
 11 91  1  0  0  0
 12 13  2  0  0  0
 12 92  1  0  0  0
 13 14  1  0  0  0
 13 31  1  0  0  0
 14 15  2  0  0  0
 14 93  1  0  0  0
 15 94  1  0  0  0
 16 17  2  0  0  0
 16 21  1  0  0  0
 16 31  1  0  0  0
 17 18  1  0  0  0
 17 95  1  0  0  0
 18 19  2  0  0  0
 18 96  1  0  0  0
 19 20  1  0  0  0
 19 24  1  0  0  0
 20 21  2  0  0  0
 20 97  1  0  0  0
 21 23  1  0  0  0
 22 28  1  0  0  0
 22 32  2  0  0  0
 26 27  1  0  0  0
 28 98  1  0  0  0
 28 99  1  0  0  0
 29100  1  0  0  0
 29101  1  0  0  0
 33 34  1  0  0  0
 33 66  1  0  0  0
 33 70  2  0  0  0
 34 36  1  0  0  0
 34 59  1  0  0  0
 34102  1  0  0  0
 35 44  2  0  0  0
 35 45  1  0  0  0
 35 68  1  0  0  0
 36 56  1  0  0  0
 36103  1  0  0  0
 37 39  1  0  0  0
 37 47  1  0  0  0
 37 66  1  0  0  0
 37104  1  0  0  0
 38 43  2  0  0  0
 38 46  1  0  0  0
 38 47  1  0  0  0
 39 64  1  0  0  0
 39 67  2  0  0  0
 40 52  1  0  0  0
 40 53  2  0  0  0
 40 58  1  0  0  0
 41105  1  0  0  0
 41106  1  0  0  0
 41107  1  0  0  0
 41 48  1  0  0  0
 42 43  1  0  0  0
 42 66  1  0  0  0
 42108  1  0  0  0
 42109  1  0  0  0
 43 44  1  0  0  0
 44110  1  0  0  0
 45 46  2  0  0  0
 45111  1  0  0  0
 46112  1  0  0  0
 47113  1  0  0  0
 47114  1  0  0  0
 48 56  1  0  0  0
 48 65  1  0  0  0
 48115  1  0  0  0
 49 50  1  0  0  0
 49 53  1  0  0  0
 49 64  1  0  0  0
 49116  1  0  0  0
 50 51  1  0  0  0
 50117  1  0  0  0
 50118  1  0  0  0
 51 52  1  0  0  0
 51119  1  0  0  0
 51120  1  0  0  0
 52121  1  0  0  0
 52122  1  0  0  0
 53 54  1  0  0  0
 54 55  2  0  0  0
 54123  1  0  0  0
 55 57  1  0  0  0
 55124  1  0  0  0
 56 69  2  0  0  0
 57 58  2  0  0  0
 57125  1  0  0  0
 58126  1  0  0  0
 59 60  1  0  0  0
 59 61  1  0  0  0
 59 62  1  0  0  0
 60127  1  0  0  0
 60128  1  0  0  0
 60129  1  0  0  0
 61130  1  0  0  0
 61131  1  0  0  0
 61132  1  0  0  0
 62133  1  0  0  0
 62134  1  0  0  0
 62135  1  0  0  0
 63 65  1  0  0  0
 63136  1  0  0  0
 63137  1  0  0  0
 63138  1  0  0  0
 64139  1  0  0  0
 65140  1  0  0  0
 68 77  1  0  0  0
 71 72  2  0  0  0
 71 78  1  0  0  0
 71141  1  0  0  0
 72 73  1  0  0  0
 72 76  1  0  0  0
 73 79  2  0  0  0
 73 81  1  0  0  0
 74 78  2  0  0  0
 74 79  1  0  0  0
 74 80  1  0  0  0
 75 76  1  0  0  0
 75 81  1  0  0  0
 75142  1  0  0  0
 75143  1  0  0  0
 76 77  1  0  0  0
 76144  1  0  0  0
 77145  1  0  0  0
 77146  1  0  0  0
 80147  1  0  0  0
M  ISO  4   1 100  68 101  77 101  80 100
M  END
> <chiral flag>
0

> <version>
0

> <s_m_source_file>
/data/baiqing/PycharmProjects/Reinvent-master-3.2/result/LINK_invent/BTK/process_docking_weight1_custom_sum_contain_oxygen_bond_distance_aromatic_linkinvent_7_9_3/rearranged_h_0182.sdf

> <i_m_source_file_index>
60

> <r_mmod_Potential_Energy-OPLS-2005>
771.2294921875

> <r_mmod_Stretch_Energy-OPLS-2005>
491.686492919922

> <r_mmod_Bend_Energy-OPLS-2005>
531.006774902344

> <r_mmod_Torsional_Energy-OPLS-2005>
211.64501953125

> <r_mmod_Improper_Torsional_Energy-OPLS-2005>
5.47312545776367

> <r_mmod_Van_der_Waal_Energy-OPLS-2005>
128.85270690918

> <r_mmod_Electrostatic_Energy-OPLS-2005>
-807.281677246094

> <r_mmod_Solvation_Energy-OPLS-2005>
-241.383361816406

> <b_mmod_Minimization_Converged-OPLS-2005>
1

> <r_mmod_RMS_Derivative-OPLS-2005>
0.038904644548893

$$$$
60
                    3D
 Structure written by MMmdl.
156165  0  0  1  0            999 V2000
  -30.5388  -14.9835   20.4126 C   0  0  0  0  0  0
  -30.4379  -12.6128   19.4986 C   0  0  0  0  0  0
  -29.5208  -12.5288   18.2564 C   0  0  0  0  0  0
  -28.0551  -12.3122   18.6775 C   0  0  0  0  0  0
  -27.6256  -13.2524   19.8347 C   0  0  2  0  0  0
  -28.6686  -13.3019   20.9701 C   0  0  0  0  0  0
  -25.2432  -13.8207   20.5701 C   0  0  0  0  0  0
  -24.1758  -13.0428   20.9241 C   0  0  0  0  0  0
  -24.6384  -11.6916   20.8773 C   0  0  0  0  0  0
  -23.9058  -10.4292   21.0422 C   0  0  0  0  0  0
  -24.3608   -9.4198   21.9195 C   0  0  0  0  0  0
  -23.6298   -8.2224   22.0743 C   0  0  0  0  0  0
  -22.4280   -8.0263   21.3540 C   0  0  0  0  0  0
  -21.9913   -9.0239   20.4647 C   0  0  0  0  0  0
  -22.7233  -10.2127   20.3059 C   0  0  0  0  0  0
  -21.6838   -6.0732   22.5282 C   0  0  0  0  0  0
  -21.3995   -6.5644   23.8215 C   0  0  0  0  0  0
  -21.3658   -5.6796   24.9179 C   0  0  0  0  0  0
  -21.6038   -4.3058   24.7229 C   0  0  0  0  0  0
  -21.8807   -3.8149   23.4352 C   0  0  0  0  0  0
  -21.9179   -4.6963   22.3405 C   0  0  0  0  0  0
  -22.7771  -13.5189   21.1863 C   0  0  0  0  0  0
  -22.1654   -4.2141   21.0982 F   0  0  0  0  0  0
  -21.5636   -3.4544   25.7747 F   0  0  0  0  0  0
  -29.9365  -13.7233   20.3615 N   0  0  0  0  0  0
  -26.2869  -12.9453   20.3245 N   0  0  0  0  0  0
  -25.9317  -11.6576   20.5753 N   0  0  0  0  0  0
  -22.0367  -12.8123   22.0333 N   0  0  0  0  0  0
  -25.4065  -15.1930   20.4072 N   0  0  0  0  0  0
  -31.7504  -15.0245   20.1726 O   0  0  0  0  0  0
  -21.6643   -6.8861   21.4237 O   0  0  0  0  0  0
  -22.3475  -14.5523   20.6751 O   0  0  0  0  0  0
  -24.6473  -31.8412   23.1832 C   0  0  0  0  0  0
  -25.9231  -32.4672   23.8248 C   0  0  1  0  0  0
  -27.2176  -27.1012   20.1591 C   0  0  0  0  0  0
  -25.5981  -33.8481   24.2172 N   0  0  0  0  0  0
  -23.4523  -30.4575   21.5302 C   0  0  2  0  0  0
  -24.9007  -28.8742   20.1128 C   0  0  0  0  0  0
  -22.7594  -29.4534   22.4852 C   0  0  0  0  0  0
  -18.0315  -28.1388   22.8495 C   0  0  0  0  0  0
  -24.1484  -36.7215   23.2642 C   0  0  0  0  0  0
  -26.0102  -30.7028   21.3872 C   0  0  0  0  0  0
  -26.0797  -29.3094   20.7304 C   0  0  0  0  0  0
  -27.2385  -28.4408   20.7331 C   0  0  0  0  0  0
  -26.0115  -26.7714   19.5035 C   0  0  0  0  0  0
  -24.8813  -27.6198   19.4825 C   0  0  0  0  0  0
  -23.6802  -29.7818   20.1517 C   0  0  0  0  0  0
  -25.4125  -36.3013   24.0312 C   0  0  1  0  0  0
  -20.5936  -28.3713   23.1226 C   0  0  2  0  0  0
  -20.6790  -26.9406   22.5403 C   0  0  0  0  0  0
  -19.5751  -26.6375   21.5211 C   0  0  0  0  0  0
  -18.1940  -26.7931   22.1629 C   0  0  0  0  0  0
  -19.1575  -28.8874   23.2853 C   0  0  0  0  0  0
  -18.9483  -30.1477   23.8868 C   0  0  0  0  0  0
  -17.6475  -30.6584   24.0566 C   0  0  0  0  0  0
  -25.9088  -34.9394   23.5048 C   0  0  0  0  0  0
  -16.5371  -29.9074   23.6342 C   0  0  0  0  0  0
  -16.7300  -28.6496   23.0365 C   0  0  0  0  0  0
  -26.4533  -31.6543   25.0706 C   0  0  0  0  0  0
  -25.3694  -31.3731   26.1378 C   0  0  0  0  0  0
  -27.0391  -30.2941   24.6291 C   0  0  0  0  0  0
  -27.6071  -32.4285   25.7512 C   0  0  0  0  0  0
  -27.5564  -37.1766   24.8477 C   0  0  0  0  0  0
  -21.4286  -29.3032   22.3594 N   0  0  0  0  0  0
  -26.4277  -37.3739   23.9417 N   0  0  0  0  0  0
  -24.7232  -31.0239   22.0875 N   0  0  0  0  0  0
  -23.4231  -28.8102   23.3024 O   0  0  0  0  0  0
  -28.2656  -26.1030   20.2336 O   0  0  0  0  0  0
  -26.5654  -34.8905   22.4615 O   0  0  0  0  0  0
  -23.5588  -32.1293   23.7040 O   0  0  0  0  0  0
  -27.4782  -21.2377   19.8282 C   0  0  0  0  0  0
  -29.6324  -20.4970   20.5086 C   0  0  0  0  0  0
  -28.7470  -21.6735   20.2665 C   0  0  0  0  0  0
  -27.1626  -19.8603   19.6752 C   0  0  0  0  0  0
  -29.2665  -19.0657   20.3311 C   0  0  0  0  0  0
  -30.5337  -23.6803   20.3614 C   0  0  0  0  0  0
  -29.8947  -23.6007   21.7123 C   0  0  0  0  0  0
  -29.0660  -23.3015   20.4752 C   0  0  0  0  0  0
  -25.7844  -19.4580   19.1925 C   0  0  0  0  0  0
  -30.2151  -17.7200   20.5319 C   0  0  0  0  0  0
  -28.0198  -24.5535   20.0688 C   0  0  0  0  0  0
  -28.0077  -18.8196   19.9134 N   0  0  0  0  0  0
  -29.7847  -16.1906   20.5270 N   0  0  0  0  0  0
  -31.4704  -12.7734   19.1856 H   0  0  0  0  0  0
  -30.4376  -11.6701   20.0475 H   0  0  0  0  0  0
  -29.8462  -11.7202   17.6004 H   0  0  0  0  0  0
  -29.6021  -13.4492   17.6760 H   0  0  0  0  0  0
  -27.9576  -11.2731   18.9936 H   0  0  0  0  0  0
  -27.3902  -12.4346   17.8213 H   0  0  0  0  0  0
  -27.5812  -14.2490   19.3943 H   0  0  0  0  0  0
  -28.7675  -12.3324   21.4613 H   0  0  0  0  0  0
  -28.3645  -14.0129   21.7404 H   0  0  0  0  0  0
  -25.2736   -9.5684   22.4798 H   0  0  0  0  0  0
  -24.0023   -7.4603   22.7442 H   0  0  0  0  0  0
  -21.0842   -8.8748   19.8957 H   0  0  0  0  0  0
  -22.3674  -10.9672   19.6176 H   0  0  0  0  0  0
  -21.1985   -7.6149   23.9711 H   0  0  0  0  0  0
  -21.1501   -6.0532   25.9083 H   0  0  0  0  0  0
  -22.0592   -2.7608   23.2858 H   0  0  0  0  0  0
  -22.3924  -11.9702   22.4617 H   0  0  0  0  0  0
  -21.0958  -13.1103   22.2464 H   0  0  0  0  0  0
  -24.6320  -15.8389   20.5110 H   0  0  0  0  0  0
  -26.2425  -15.6358   20.0491 H   0  0  0  0  0  0
  -26.7301  -32.5268   23.0983 H   0  0  0  0  0  0
  -25.0178  -33.9592   25.0357 H   0  0  0  0  0  0
  -22.7563  -31.2839   21.3727 H   0  0  0  0  0  0
  -23.3767  -35.9524   23.3300 H   0  0  0  0  0  0
  -24.3570  -36.8852   22.2058 H   0  0  0  0  0  0
  -23.7221  -37.6400   23.6683 H   0  0  0  0  0  0
  -26.1706  -31.4518   20.6112 H   0  0  0  0  0  0
  -26.8799  -30.7561   22.0303 H   0  0  0  0  0  0
  -28.1376  -28.7723   21.2339 H   0  0  0  0  0  0
  -25.9101  -25.8103   19.0222 H   0  0  0  0  0  0
  -23.9833  -27.2803   18.9859 H   0  0  0  0  0  0
  -23.8212  -30.5541   19.3946 H   0  0  0  0  0  0
  -22.7952  -29.2255   19.8386 H   0  0  0  0  0  0
  -25.1320  -36.1830   25.0804 H   0  0  0  0  0  0
  -21.0038  -28.3296   24.1343 H   0  0  0  0  0  0
  -20.5663  -26.2323   23.3628 H   0  0  0  0  0  0
  -21.6651  -26.7369   22.1205 H   0  0  0  0  0  0
  -19.6883  -25.6281   21.1236 H   0  0  0  0  0  0
  -19.6684  -27.3188   20.6743 H   0  0  0  0  0  0
  -17.4209  -26.6697   21.4032 H   0  0  0  0  0  0
  -18.0323  -26.0071   22.9015 H   0  0  0  0  0  0
  -19.7958  -30.7315   24.2201 H   0  0  0  0  0  0
  -17.5021  -31.6260   24.5165 H   0  0  0  0  0  0
  -15.5365  -30.2957   23.7673 H   0  0  0  0  0  0
  -15.8710  -28.0799   22.7077 H   0  0  0  0  0  0
  -24.5901  -30.7058   25.7674 H   0  0  0  0  0  0
  -24.8842  -32.2906   26.4719 H   0  0  0  0  0  0
  -25.7961  -30.8951   27.0204 H   0  0  0  0  0  0
  -26.2992  -29.6687   24.1284 H   0  0  0  0  0  0
  -27.3983  -29.7235   25.4862 H   0  0  0  0  0  0
  -27.8927  -30.4174   23.9623 H   0  0  0  0  0  0
  -27.2683  -33.3623   26.2010 H   0  0  0  0  0  0
  -28.3952  -32.6762   25.0385 H   0  0  0  0  0  0
  -28.0658  -31.8437   26.5495 H   0  0  0  0  0  0
  -28.2593  -38.0052   24.7536 H   0  0  0  0  0  0
  -28.1049  -36.2590   24.6307 H   0  0  0  0  0  0
  -27.2279  -37.1417   25.8877 H   0  0  0  0  0  0
  -20.9487  -29.8748   21.6786 H   0  0  0  0  0  0
  -26.0137  -38.2798   24.1450 H   0  0  0  0  0  0
  -26.7205  -21.9766   19.6060 H   0  0  0  0  0  0
  -30.6387  -20.6994   20.8492 H   0  0  0  0  0  0
  -31.2439  -22.9019   20.0878 H   0  0  0  0  0  0
  -30.7716  -24.6758   19.9914 H   0  0  0  0  0  0
  -29.7147  -24.5428   22.2269 H   0  0  0  0  0  0
  -30.1613  -22.7653   22.3567 H   0  0  0  0  0  0
  -25.0688  -20.2706   19.3121 H   0  0  0  0  0  0
  -25.4129  -18.5981   19.7495 H   0  0  0  0  0  0
  -25.8193  -19.1885   18.1378 H   0  0  0  0  0  0
  -30.7310  -17.8738   21.4801 H   0  0  0  0  0  0
  -30.9976  -17.8096   19.7783 H   0  0  0  0  0  0
  -27.0917  -24.3393   20.5997 H   0  0  0  0  0  0
  -27.7858  -24.4048   19.0149 H   0  0  0  0  0  0
  -28.7900  -16.0621   20.6370 H   0  0  0  0  0  0
  1 25  1  0  0  0
  1 30  2  0  0  0
  1 83  1  0  0  0
  2  3  1  0  0  0
  2 25  1  0  0  0
  2 84  1  0  0  0
  2 85  1  0  0  0
  3  4  1  0  0  0
  3 86  1  0  0  0
  3 87  1  0  0  0
  4  5  1  0  0  0
  4 88  1  0  0  0
  4 89  1  0  0  0
  5  6  1  0  0  0
  5 26  1  0  0  0
  5 90  1  0  0  0
  6 25  1  0  0  0
  6 91  1  0  0  0
  6 92  1  0  0  0
  7  8  2  0  0  0
  7 26  1  0  0  0
  7 29  1  0  0  0
  8  9  1  0  0  0
  8 22  1  0  0  0
  9 10  1  0  0  0
  9 27  2  0  0  0
 10 11  2  0  0  0
 10 15  1  0  0  0
 11 12  1  0  0  0
 11 93  1  0  0  0
 12 13  2  0  0  0
 12 94  1  0  0  0
 13 14  1  0  0  0
 13 31  1  0  0  0
 14 15  2  0  0  0
 14 95  1  0  0  0
 15 96  1  0  0  0
 16 17  2  0  0  0
 16 21  1  0  0  0
 16 31  1  0  0  0
 17 18  1  0  0  0
 17 97  1  0  0  0
 18 19  2  0  0  0
 18 98  1  0  0  0
 19 20  1  0  0  0
 19 24  1  0  0  0
 20 21  2  0  0  0
 20 99  1  0  0  0
 21 23  1  0  0  0
 22 28  1  0  0  0
 22 32  2  0  0  0
 26 27  1  0  0  0
 28100  1  0  0  0
 28101  1  0  0  0
 29102  1  0  0  0
 29103  1  0  0  0
 33 34  1  0  0  0
 33 66  1  0  0  0
 33 70  2  0  0  0
 34 36  1  0  0  0
 34 59  1  0  0  0
 34104  1  0  0  0
 35 44  2  0  0  0
 35 45  1  0  0  0
 35 68  1  0  0  0
 36 56  1  0  0  0
 36105  1  0  0  0
 37 39  1  0  0  0
 37 47  1  0  0  0
 37 66  1  0  0  0
 37106  1  0  0  0
 38 43  2  0  0  0
 38 46  1  0  0  0
 38 47  1  0  0  0
 39 64  1  0  0  0
 39 67  2  0  0  0
 40 52  1  0  0  0
 40 53  2  0  0  0
 40 58  1  0  0  0
 41107  1  0  0  0
 41108  1  0  0  0
 41109  1  0  0  0
 41 48  1  0  0  0
 42 43  1  0  0  0
 42 66  1  0  0  0
 42110  1  0  0  0
 42111  1  0  0  0
 43 44  1  0  0  0
 44112  1  0  0  0
 45 46  2  0  0  0
 45113  1  0  0  0
 46114  1  0  0  0
 47115  1  0  0  0
 47116  1  0  0  0
 48 56  1  0  0  0
 48 65  1  0  0  0
 48117  1  0  0  0
 49 50  1  0  0  0
 49 53  1  0  0  0
 49 64  1  0  0  0
 49118  1  0  0  0
 50 51  1  0  0  0
 50119  1  0  0  0
 50120  1  0  0  0
 51 52  1  0  0  0
 51121  1  0  0  0
 51122  1  0  0  0
 52123  1  0  0  0
 52124  1  0  0  0
 53 54  1  0  0  0
 54 55  2  0  0  0
 54125  1  0  0  0
 55 57  1  0  0  0
 55126  1  0  0  0
 56 69  2  0  0  0
 57 58  2  0  0  0
 57127  1  0  0  0
 58128  1  0  0  0
 59 60  1  0  0  0
 59 61  1  0  0  0
 59 62  1  0  0  0
 60129  1  0  0  0
 60130  1  0  0  0
 60131  1  0  0  0
 61132  1  0  0  0
 61133  1  0  0  0
 61134  1  0  0  0
 62135  1  0  0  0
 62136  1  0  0  0
 62137  1  0  0  0
 63 65  1  0  0  0
 63138  1  0  0  0
 63139  1  0  0  0
 63140  1  0  0  0
 64141  1  0  0  0
 65142  1  0  0  0
 68 81  1  0  0  0
 71 73  2  0  0  0
 71 74  1  0  0  0
 71143  1  0  0  0
 72 73  1  0  0  0
 72 75  2  0  0  0
 72144  1  0  0  0
 73 78  1  0  0  0
 74 79  1  0  0  0
 74 82  2  0  0  0
 75 80  1  0  0  0
 75 82  1  0  0  0
 76 77  1  0  0  0
 76 78  1  0  0  0
 76145  1  0  0  0
 76146  1  0  0  0
 77 78  1  0  0  0
 77147  1  0  0  0
 77148  1  0  0  0
 78 81  1  0  0  0
 79149  1  0  0  0
 79150  1  0  0  0
 79151  1  0  0  0
 80 83  1  0  0  0
 80152  1  0  0  0
 80153  1  0  0  0
 81154  1  0  0  0
 81155  1  0  0  0
 83156  1  0  0  0
M  ISO  4   1 100  68 101  81 101  83 100
M  END
> <chiral flag>
0

> <version>
0

> <s_m_source_file>
/data/baiqing/PycharmProjects/Reinvent-master-3.2/result/LINK_invent/BTK/process_docking_weight1_custom_sum_contain_oxygen_bond_distance_aromatic_linkinvent_7_9_3/rearranged_h_0182.sdf

> <i_m_source_file_index>
61

> <r_mmod_Potential_Energy-OPLS-2005>
271.715240478516

> <r_mmod_Stretch_Energy-OPLS-2005>
286.491973876953

> <r_mmod_Bend_Energy-OPLS-2005>
250.167098999023

> <r_mmod_Torsional_Energy-OPLS-2005>
233.869537353516

> <r_mmod_Improper_Torsional_Energy-OPLS-2005>
4.2374472618103

> <r_mmod_Van_der_Waal_Energy-OPLS-2005>
126.102851867676

> <r_mmod_Electrostatic_Energy-OPLS-2005>
-634.032165527344

> <r_mmod_Solvation_Energy-OPLS-2005>
-216.271423339844

> <b_mmod_Minimization_Converged-OPLS-2005>
0

> <r_mmod_RMS_Derivative-OPLS-2005>
1.74088406562805

$$$$
61
                    3D
 Structure written by MMmdl.
149158  0  0  1  0            999 V2000
  -30.5003  -15.1483   20.3801 C   0  0  0  0  0  0
  -30.4352  -12.7242   19.5144 C   0  0  0  0  0  0
  -29.5281  -12.5512   18.2738 C   0  0  0  0  0  0
  -28.0689  -12.3063   18.6972 C   0  0  0  0  0  0
  -27.6174  -13.2681   19.8254 C   0  0  2  0  0  0
  -28.6568  -13.4068   20.9576 C   0  0  0  0  0  0
  -25.2434  -13.8251   20.5744 C   0  0  0  0  0  0
  -24.1769  -13.0448   20.9237 C   0  0  0  0  0  0
  -24.6405  -11.6939   20.8752 C   0  0  0  0  0  0
  -23.9094  -10.4306   21.0396 C   0  0  0  0  0  0
  -24.3642   -9.4222   21.9178 C   0  0  0  0  0  0
  -23.6325   -8.2252   22.0746 C   0  0  0  0  0  0
  -22.4298   -8.0286   21.3544 C   0  0  0  0  0  0
  -21.9940   -9.0257   20.4645 C   0  0  0  0  0  0
  -22.7263  -10.2141   20.3056 C   0  0  0  0  0  0
  -21.6863   -6.0740   22.5270 C   0  0  0  0  0  0
  -21.4021   -6.5637   23.8206 C   0  0  0  0  0  0
  -21.3669   -5.6791   24.9171 C   0  0  0  0  0  0
  -21.6048   -4.3056   24.7218 C   0  0  0  0  0  0
  -21.8823   -3.8145   23.4341 C   0  0  0  0  0  0
  -21.9205   -4.6966   22.3399 C   0  0  0  0  0  0
  -22.7786  -13.5194   21.1904 C   0  0  0  0  0  0
  -22.1667   -4.2149   21.0977 F   0  0  0  0  0  0
  -21.5641   -3.4545   25.7728 F   0  0  0  0  0  0
  -29.9009  -13.8697   20.3265 N   0  0  0  0  0  0
  -26.2854  -12.9510   20.3244 N   0  0  0  0  0  0
  -25.9340  -11.6617   20.5725 N   0  0  0  0  0  0
  -22.0463  -12.8166   22.0457 N   0  0  0  0  0  0
  -25.4135  -15.1991   20.4199 N   0  0  0  0  0  0
  -31.7210  -15.1383   20.1702 O   0  0  0  0  0  0
  -21.6658   -6.8881   21.4226 O   0  0  0  0  0  0
  -22.3455  -14.5500   20.6756 O   0  0  0  0  0  0
  -24.6566  -31.8309   23.1761 C   0  0  0  0  0  0
  -25.9271  -32.4626   23.8219 C   0  0  1  0  0  0
  -27.2187  -26.9969   20.1677 C   0  0  0  0  0  0
  -25.5963  -33.8439   24.2126 N   0  0  0  0  0  0
  -23.4683  -30.4431   21.5260 C   0  0  2  0  0  0
  -24.9212  -28.8450   20.1104 C   0  0  0  0  0  0
  -22.7635  -29.4458   22.4823 C   0  0  0  0  0  0
  -18.0315  -28.1392   22.8466 C   0  0  0  0  0  0
  -24.1496  -36.7224   23.2652 C   0  0  0  0  0  0
  -26.0336  -30.6579   21.3967 C   0  0  0  0  0  0
  -26.1036  -29.2556   20.7379 C   0  0  0  0  0  0
  -27.2499  -28.3510   20.7447 C   0  0  0  0  0  0
  -26.0072  -26.7220   19.4951 C   0  0  0  0  0  0
  -24.8940  -27.5962   19.4707 C   0  0  0  0  0  0
  -23.7038  -29.7632   20.1501 C   0  0  0  0  0  0
  -25.4128  -36.3001   24.0319 C   0  0  1  0  0  0
  -20.5935  -28.3731   23.1221 C   0  0  2  0  0  0
  -20.6796  -26.9423   22.5413 C   0  0  0  0  0  0
  -19.5772  -26.6368   21.5223 C   0  0  0  0  0  0
  -18.1952  -26.7924   22.1624 C   0  0  0  0  0  0
  -19.1572  -28.8879   23.2822 C   0  0  0  0  0  0
  -18.9487  -30.1474   23.8851 C   0  0  0  0  0  0
  -17.6486  -30.6585   24.0556 C   0  0  0  0  0  0
  -25.9083  -34.9371   23.5041 C   0  0  0  0  0  0
  -16.5376  -29.9075   23.6342 C   0  0  0  0  0  0
  -16.7301  -28.6495   23.0359 C   0  0  0  0  0  0
  -26.4536  -31.6541   25.0712 C   0  0  0  0  0  0
  -25.3680  -31.3762   26.1380 C   0  0  0  0  0  0
  -27.0434  -30.2928   24.6385 C   0  0  0  0  0  0
  -27.6045  -32.4332   25.7495 C   0  0  0  0  0  0
  -27.5576  -37.1764   24.8470 C   0  0  0  0  0  0
  -21.4314  -29.3026   22.3571 N   0  0  0  0  0  0
  -26.4291  -37.3724   23.9410 N   0  0  0  0  0  0
  -24.7402  -31.0018   22.0871 N   0  0  0  0  0  0
  -23.4213  -28.8035   23.3046 O   0  0  0  0  0  0
  -28.2297  -25.9253   20.2508 O   0  0  0  0  0  0
  -26.5697  -34.8901   22.4637 O   0  0  0  0  0  0
  -23.5647  -32.1262   23.6878 O   0  0  0  0  0  0
  -30.7141  -20.9044   20.9805 C   0  0  0  0  0  0
  -30.9643  -22.2792   21.1604 C   0  0  0  0  0  0
  -29.4921  -20.4537   20.4642 C   0  0  0  0  0  0
  -28.9009  -22.9652   20.3532 C   0  0  0  0  0  0
  -30.0140  -17.6279   19.4213 C   0  0  0  0  0  0
  -29.7502  -17.5728   21.3835 C   0  0  0  0  0  0
  -29.3033  -18.7414   20.3516 C   0  0  0  0  0  0
  -27.9306  -24.3458   20.0300 C   0  0  0  0  0  0
  -30.0916  -23.2673   20.8595 N   0  0  0  0  0  0
  -28.6021  -21.5667   20.1552 N   0  0  0  0  0  0
  -29.7643  -16.4210   20.3585 N   0  0  0  0  0  0
  -31.4619  -12.9009   19.1890 H   0  0  0  0  0  0
  -30.4668  -11.8084   20.1074 H   0  0  0  0  0  0
  -29.8834  -11.7256   17.6557 H   0  0  0  0  0  0
  -29.5840  -13.4470   17.6535 H   0  0  0  0  0  0
  -27.9958  -11.2734   19.0395 H   0  0  0  0  0  0
  -27.4034  -12.3866   17.8370 H   0  0  0  0  0  0
  -27.5458  -14.2461   19.3471 H   0  0  0  0  0  0
  -28.7965  -12.4667   21.4934 H   0  0  0  0  0  0
  -28.3230  -14.1402   21.6929 H   0  0  0  0  0  0
  -25.2785   -9.5701   22.4741 H   0  0  0  0  0  0
  -24.0039   -7.4645   22.7455 H   0  0  0  0  0  0
  -21.0878   -8.8769   19.8945 H   0  0  0  0  0  0
  -22.3710  -10.9676   19.6162 H   0  0  0  0  0  0
  -21.1992   -7.6143   23.9702 H   0  0  0  0  0  0
  -21.1498   -6.0523   25.9070 H   0  0  0  0  0  0
  -22.0596   -2.7605   23.2836 H   0  0  0  0  0  0
  -22.4118  -11.9838   22.4823 H   0  0  0  0  0  0
  -21.1064  -13.1131   22.2665 H   0  0  0  0  0  0
  -24.6548  -15.8604   20.5476 H   0  0  0  0  0  0
  -26.2778  -15.6375   20.1256 H   0  0  0  0  0  0
  -26.7338  -32.5173   23.0937 H   0  0  0  0  0  0
  -25.0065  -33.9541   25.0248 H   0  0  0  0  0  0
  -22.7765  -31.2713   21.3588 H   0  0  0  0  0  0
  -23.3776  -35.9541   23.3313 H   0  0  0  0  0  0
  -24.3585  -36.8865   22.2070 H   0  0  0  0  0  0
  -23.7238  -37.6413   23.6691 H   0  0  0  0  0  0
  -26.2047  -31.4031   20.6192 H   0  0  0  0  0  0
  -26.8973  -30.7118   22.0473 H   0  0  0  0  0  0
  -28.1458  -28.6590   21.2656 H   0  0  0  0  0  0
  -25.8810  -25.7672   19.0067 H   0  0  0  0  0  0
  -23.9919  -27.2727   18.9688 H   0  0  0  0  0  0
  -23.8527  -30.5345   19.3944 H   0  0  0  0  0  0
  -22.8133  -29.2145   19.8368 H   0  0  0  0  0  0
  -25.1316  -36.1828   25.0815 H   0  0  0  0  0  0
  -21.0006  -28.3334   24.1353 H   0  0  0  0  0  0
  -20.5699  -26.2345   23.3641 H   0  0  0  0  0  0
  -21.6660  -26.7418   22.1204 H   0  0  0  0  0  0
  -19.6941  -25.6266   21.1275 H   0  0  0  0  0  0
  -19.6720  -27.3162   20.6740 H   0  0  0  0  0  0
  -17.4224  -26.6683   21.4024 H   0  0  0  0  0  0
  -18.0335  -26.0070   22.9022 H   0  0  0  0  0  0
  -19.7966  -30.7292   24.2208 H   0  0  0  0  0  0
  -17.5042  -31.6269   24.5152 H   0  0  0  0  0  0
  -15.5369  -30.2965   23.7684 H   0  0  0  0  0  0
  -15.8706  -28.0801   22.7097 H   0  0  0  0  0  0
  -24.5876  -30.7092   25.7698 H   0  0  0  0  0  0
  -24.8835  -32.2940   26.4710 H   0  0  0  0  0  0
  -25.7921  -30.8999   27.0228 H   0  0  0  0  0  0
  -26.3097  -29.6604   24.1370 H   0  0  0  0  0  0
  -27.4000  -29.7276   25.5008 H   0  0  0  0  0  0
  -27.9016  -30.4169   23.9782 H   0  0  0  0  0  0
  -27.2646  -33.3684   26.1964 H   0  0  0  0  0  0
  -28.3894  -32.6813   25.0334 H   0  0  0  0  0  0
  -28.0670  -31.8526   26.5492 H   0  0  0  0  0  0
  -28.2570  -38.0084   24.7511 H   0  0  0  0  0  0
  -28.1092  -36.2599   24.6289 H   0  0  0  0  0  0
  -27.2291  -37.1397   25.8877 H   0  0  0  0  0  0
  -20.9560  -29.8731   21.6719 H   0  0  0  0  0  0
  -26.0154  -38.2797   24.1408 H   0  0  0  0  0  0
  -31.4810  -20.1944   21.2590 H   0  0  0  0  0  0
  -31.9075  -22.6019   21.5755 H   0  0  0  0  0  0
  -29.5355  -17.5405   18.4441 H   0  0  0  0  0  0
  -31.0770  -17.8318   19.2700 H   0  0  0  0  0  0
  -30.7351  -17.7625   21.8180 H   0  0  0  0  0  0
  -29.0341  -17.4404   22.1951 H   0  0  0  0  0  0
  -28.2303  -18.6253   20.1952 H   0  0  0  0  0  0
  -26.9906  -24.1475   20.5464 H   0  0  0  0  0  0
  -27.6866  -24.2555   18.9704 H   0  0  0  0  0  0
  1 25  1  0  0  0
  1 30  2  0  0  0
  1 81  1  0  0  0
  2  3  1  0  0  0
  2 25  1  0  0  0
  2 82  1  0  0  0
  2 83  1  0  0  0
  3  4  1  0  0  0
  3 84  1  0  0  0
  3 85  1  0  0  0
  4  5  1  0  0  0
  4 86  1  0  0  0
  4 87  1  0  0  0
  5  6  1  0  0  0
  5 26  1  0  0  0
  5 88  1  0  0  0
  6 25  1  0  0  0
  6 89  1  0  0  0
  6 90  1  0  0  0
  7  8  2  0  0  0
  7 26  1  0  0  0
  7 29  1  0  0  0
  8  9  1  0  0  0
  8 22  1  0  0  0
  9 10  1  0  0  0
  9 27  2  0  0  0
 10 11  2  0  0  0
 10 15  1  0  0  0
 11 12  1  0  0  0
 11 91  1  0  0  0
 12 13  2  0  0  0
 12 92  1  0  0  0
 13 14  1  0  0  0
 13 31  1  0  0  0
 14 15  2  0  0  0
 14 93  1  0  0  0
 15 94  1  0  0  0
 16 17  2  0  0  0
 16 21  1  0  0  0
 16 31  1  0  0  0
 17 18  1  0  0  0
 17 95  1  0  0  0
 18 19  2  0  0  0
 18 96  1  0  0  0
 19 20  1  0  0  0
 19 24  1  0  0  0
 20 21  2  0  0  0
 20 97  1  0  0  0
 21 23  1  0  0  0
 22 28  1  0  0  0
 22 32  2  0  0  0
 26 27  1  0  0  0
 28 98  1  0  0  0
 28 99  1  0  0  0
 29100  1  0  0  0
 29101  1  0  0  0
 33 34  1  0  0  0
 33 66  1  0  0  0
 33 70  2  0  0  0
 34 36  1  0  0  0
 34 59  1  0  0  0
 34102  1  0  0  0
 35 44  2  0  0  0
 35 45  1  0  0  0
 35 68  1  0  0  0
 36 56  1  0  0  0
 36103  1  0  0  0
 37 39  1  0  0  0
 37 47  1  0  0  0
 37 66  1  0  0  0
 37104  1  0  0  0
 38 43  2  0  0  0
 38 46  1  0  0  0
 38 47  1  0  0  0
 39 64  1  0  0  0
 39 67  2  0  0  0
 40 52  1  0  0  0
 40 53  2  0  0  0
 40 58  1  0  0  0
 41105  1  0  0  0
 41106  1  0  0  0
 41107  1  0  0  0
 41 48  1  0  0  0
 42 43  1  0  0  0
 42 66  1  0  0  0
 42108  1  0  0  0
 42109  1  0  0  0
 43 44  1  0  0  0
 44110  1  0  0  0
 45 46  2  0  0  0
 45111  1  0  0  0
 46112  1  0  0  0
 47113  1  0  0  0
 47114  1  0  0  0
 48 56  1  0  0  0
 48 65  1  0  0  0
 48115  1  0  0  0
 49 50  1  0  0  0
 49 53  1  0  0  0
 49 64  1  0  0  0
 49116  1  0  0  0
 50 51  1  0  0  0
 50117  1  0  0  0
 50118  1  0  0  0
 51 52  1  0  0  0
 51119  1  0  0  0
 51120  1  0  0  0
 52121  1  0  0  0
 52122  1  0  0  0
 53 54  1  0  0  0
 54 55  2  0  0  0
 54123  1  0  0  0
 55 57  1  0  0  0
 55124  1  0  0  0
 56 69  2  0  0  0
 57 58  2  0  0  0
 57125  1  0  0  0
 58126  1  0  0  0
 59 60  1  0  0  0
 59 61  1  0  0  0
 59 62  1  0  0  0
 60127  1  0  0  0
 60128  1  0  0  0
 60129  1  0  0  0
 61130  1  0  0  0
 61131  1  0  0  0
 61132  1  0  0  0
 62133  1  0  0  0
 62134  1  0  0  0
 62135  1  0  0  0
 63 65  1  0  0  0
 63136  1  0  0  0
 63137  1  0  0  0
 63138  1  0  0  0
 64139  1  0  0  0
 65140  1  0  0  0
 68 78  1  0  0  0
 71 72  2  0  0  0
 71 73  1  0  0  0
 71141  1  0  0  0
 72 79  1  0  0  0
 72142  1  0  0  0
 73 80  2  0  0  0
 73 77  1  0  0  0
 74 78  1  0  0  0
 74 79  2  0  0  0
 74 80  1  0  0  0
 75 77  1  0  0  0
 75 81  1  0  0  0
 75143  1  0  0  0
 75144  1  0  0  0
 76 77  1  0  0  0
 76 81  1  0  0  0
 76145  1  0  0  0
 76146  1  0  0  0
 77147  1  0  0  0
 78148  1  0  0  0
 78149  1  0  0  0
M  ISO  4   1 100  68 101  78 101  81 100
M  END
> <chiral flag>
0

> <version>
0

> <s_m_source_file>
/data/baiqing/PycharmProjects/Reinvent-master-3.2/result/LINK_invent/BTK/process_docking_weight1_custom_sum_contain_oxygen_bond_distance_aromatic_linkinvent_7_9_3/rearranged_h_0182.sdf

> <i_m_source_file_index>
62

> <r_mmod_Potential_Energy-OPLS-2005>
603.646118164062

> <r_mmod_Stretch_Energy-OPLS-2005>
412.617462158203

> <r_mmod_Bend_Energy-OPLS-2005>
356.086944580078

> <r_mmod_Torsional_Energy-OPLS-2005>
260.675842285156

> <r_mmod_Improper_Torsional_Energy-OPLS-2005>
14.6308641433716

> <r_mmod_Van_der_Waal_Energy-OPLS-2005>
130.250503540039

> <r_mmod_Electrostatic_Energy-OPLS-2005>
-679.556823730469

> <r_mmod_Solvation_Energy-OPLS-2005>
-242.560974121094

> <b_mmod_Minimization_Converged-OPLS-2005>
0

> <r_mmod_RMS_Derivative-OPLS-2005>
2.02899599075317

$$$$
62
                    3D
 Structure written by MMmdl.
164173  0  0  1  0            999 V2000
  -30.7111  -14.4806   20.5703 C   0  0  0  0  0  0
  -30.4139  -12.3119   19.4388 C   0  0  0  0  0  0
  -29.4939  -12.5034   18.2165 C   0  0  0  0  0  0
  -28.0194  -12.3369   18.6305 C   0  0  0  0  0  0
  -27.6506  -13.1948   19.8689 C   0  0  2  0  0  0
  -28.6911  -13.0231   20.9998 C   0  0  0  0  0  0
  -25.2552  -13.8124   20.5688 C   0  0  0  0  0  0
  -24.1806  -13.0424   20.9197 C   0  0  0  0  0  0
  -24.6351  -11.6877   20.8751 C   0  0  0  0  0  0
  -23.9024  -10.4273   21.0415 C   0  0  0  0  0  0
  -24.3602   -9.4178   21.9174 C   0  0  0  0  0  0
  -23.6276   -8.2218   22.0741 C   0  0  0  0  0  0
  -22.4261   -8.0272   21.3537 C   0  0  0  0  0  0
  -21.9894   -9.0233   20.4637 C   0  0  0  0  0  0
  -22.7212  -10.2105   20.3043 C   0  0  0  0  0  0
  -21.6837   -6.0737   22.5274 C   0  0  0  0  0  0
  -21.4011   -6.5636   23.8219 C   0  0  0  0  0  0
  -21.3661   -5.6786   24.9172 C   0  0  0  0  0  0
  -21.6051   -4.3053   24.7220 C   0  0  0  0  0  0
  -21.8807   -3.8145   23.4339 C   0  0  0  0  0  0
  -21.9189   -4.6965   22.3399 C   0  0  0  0  0  0
  -22.7844  -13.5219   21.1859 C   0  0  0  0  0  0
  -22.1656   -4.2164   21.0973 F   0  0  0  0  0  0
  -21.5628   -3.4531   25.7726 F   0  0  0  0  0  0
  -30.0231  -13.3119   20.4457 N   0  0  0  0  0  0
  -26.2954  -12.9252   20.3347 N   0  0  0  0  0  0
  -25.9263  -11.6434   20.5767 N   0  0  0  0  0  0
  -22.0486  -12.8225   22.0420 N   0  0  0  0  0  0
  -25.4303  -15.1849   20.4072 N   0  0  0  0  0  0
  -31.8502  -14.6294   20.1178 O   0  0  0  0  0  0
  -21.6621   -6.8868   21.4232 O   0  0  0  0  0  0
  -22.3533  -14.5534   20.6700 O   0  0  0  0  0  0
  -24.6175  -31.8664   23.2074 C   0  0  0  0  0  0
  -25.9057  -32.4824   23.8388 C   0  0  1  0  0  0
  -27.2351  -27.4047   20.0901 C   0  0  0  0  0  0
  -25.5904  -33.8617   24.2318 N   0  0  0  0  0  0
  -23.4060  -30.4888   21.5522 C   0  0  2  0  0  0
  -24.8517  -28.9557   20.1127 C   0  0  0  0  0  0
  -22.7412  -29.4654   22.5006 C   0  0  0  0  0  0
  -18.0274  -28.1363   22.8512 C   0  0  0  0  0  0
  -24.1480  -36.7289   23.2641 C   0  0  0  0  0  0
  -25.9399  -30.8221   21.3662 C   0  0  0  0  0  0
  -26.0168  -29.4571   20.7069 C   0  0  0  0  0  0
  -27.2091  -28.6905   20.6914 C   0  0  0  0  0  0
  -26.0482  -26.9396   19.4735 C   0  0  0  0  0  0
  -24.8645  -27.6975   19.4929 C   0  0  0  0  0  0
  -23.6123  -29.8186   20.1682 C   0  0  0  0  0  0
  -25.4098  -36.3101   24.0342 C   0  0  1  0  0  0
  -20.5867  -28.3639   23.1319 C   0  0  2  0  0  0
  -20.6761  -26.9378   22.5416 C   0  0  0  0  0  0
  -19.5733  -26.6376   21.5219 C   0  0  0  0  0  0
  -18.1913  -26.7914   22.1643 C   0  0  0  0  0  0
  -19.1532  -28.8809   23.2919 C   0  0  0  0  0  0
  -18.9452  -30.1428   23.8910 C   0  0  0  0  0  0
  -17.6453  -30.6577   24.0553 C   0  0  0  0  0  0
  -25.9029  -34.9476   23.5125 C   0  0  0  0  0  0
  -16.5343  -29.9063   23.6348 C   0  0  0  0  0  0
  -16.7268  -28.6479   23.0384 C   0  0  0  0  0  0
  -26.4468  -31.6618   25.0728 C   0  0  0  0  0  0
  -25.3732  -31.3739   26.1478 C   0  0  0  0  0  0
  -27.0300  -30.3049   24.6138 C   0  0  0  0  0  0
  -27.6036  -32.4352   25.7502 C   0  0  0  0  0  0
  -27.5570  -37.1798   24.8471 C   0  0  0  0  0  0
  -21.4144  -29.3014   22.3724 N   0  0  0  0  0  0
  -26.4278  -37.3784   23.9419 N   0  0  0  0  0  0
  -24.6737  -31.0728   22.1003 N   0  0  0  0  0  0
  -23.4172  -28.8213   23.3074 O   0  0  0  0  0  0
  -28.3918  -26.6329   20.1387 O   0  0  0  0  0  0
  -26.5594  -34.8935   22.4686 O   0  0  0  0  0  0
  -23.5368  -32.1434   23.7462 O   0  0  0  0  0  0
  -29.8502  -24.5417   21.7706 C   0  0  0  0  0  0
  -29.3285  -24.2949   20.4835 C   0  0  0  0  0  0
  -31.0617  -22.5607   21.6857 C   0  0  0  0  0  0
  -30.5325  -22.2816   20.3875 C   0  0  0  0  0  0
  -29.1118  -16.3986   20.4268 C   0  0  0  0  0  0
  -30.7378  -16.7578   21.6115 C   0  0  0  0  0  0
  -30.2222  -17.4488   20.3415 C   0  0  0  0  0  0
  -33.5368  -22.1380   22.1430 C   0  0  0  0  0  0
  -32.0915  -21.6956   22.4106 C   0  0  0  0  0  0
  -31.0150  -21.1424   19.4602 C   0  0  0  0  0  0
  -28.2620  -25.2132   19.8657 C   0  0  0  0  0  0
  -29.9136  -18.9650   20.2594 C   0  0  0  0  0  0
  -30.7112  -23.6816   22.3669 N   0  0  0  0  0  0
  -29.6635  -23.1601   19.8044 N   0  0  0  0  0  0
  -30.0610  -15.5243   21.1493 N   0  0  0  0  0  0
  -31.1432  -19.7562   19.9939 N   0  3  0  0  0  0
  -31.4619  -12.3971   19.1454 H   0  0  0  0  0  0
  -30.3038  -11.3067   19.8496 H   0  0  0  0  0  0
  -29.7483  -11.7895   17.4306 H   0  0  0  0  0  0
  -29.6436  -13.4962   17.7881 H   0  0  0  0  0  0
  -27.8576  -11.2822   18.8543 H   0  0  0  0  0  0
  -27.3586  -12.5755   17.7966 H   0  0  0  0  0  0
  -27.6653  -14.2266   19.5337 H   0  0  0  0  0  0
  -28.6702  -12.0016   21.3809 H   0  0  0  0  0  0
  -28.4483  -13.6640   21.8501 H   0  0  0  0  0  0
  -25.2739   -9.5671   22.4758 H   0  0  0  0  0  0
  -23.9997   -7.4605   22.7451 H   0  0  0  0  0  0
  -21.0827   -8.8731   19.8949 H   0  0  0  0  0  0
  -22.3657  -10.9642   19.6166 H   0  0  0  0  0  0
  -21.2001   -7.6149   23.9723 H   0  0  0  0  0  0
  -21.1501   -6.0515   25.9078 H   0  0  0  0  0  0
  -22.0595   -2.7615   23.2819 H   0  0  0  0  0  0
  -22.4096  -11.9887   22.4816 H   0  0  0  0  0  0
  -21.1110  -13.1251   22.2642 H   0  0  0  0  0  0
  -24.6681  -15.8464   20.5097 H   0  0  0  0  0  0
  -26.2835  -15.6117   20.0722 H   0  0  0  0  0  0
  -26.7127  -32.5522   23.1160 H   0  0  0  0  0  0
  -25.0080  -33.9780   25.0483 H   0  0  0  0  0  0
  -22.6977  -31.3078   21.4135 H   0  0  0  0  0  0
  -23.3745  -35.9621   23.3321 H   0  0  0  0  0  0
  -24.3556  -36.8870   22.2047 H   0  0  0  0  0  0
  -23.7243  -37.6504   23.6636 H   0  0  0  0  0  0
  -26.0603  -31.5906   20.6019 H   0  0  0  0  0  0
  -26.8249  -30.8710   21.9902 H   0  0  0  0  0  0
  -28.1058  -29.0750   21.1601 H   0  0  0  0  0  0
  -26.0046  -25.9851   18.9712 H   0  0  0  0  0  0
  -23.9703  -27.3063   19.0284 H   0  0  0  0  0  0
  -23.7042  -30.5894   19.4023 H   0  0  0  0  0  0
  -22.7375  -29.2291   19.8852 H   0  0  0  0  0  0
  -25.1288  -36.1953   25.0837 H   0  0  0  0  0  0
  -20.9989  -28.3198   24.1432 H   0  0  0  0  0  0
  -20.5640  -26.2257   23.3602 H   0  0  0  0  0  0
  -21.6622  -26.7401   22.1215 H   0  0  0  0  0  0
  -19.6864  -25.6289   21.1226 H   0  0  0  0  0  0
  -19.6651  -27.3198   20.6753 H   0  0  0  0  0  0
  -17.4184  -26.6692   21.4040 H   0  0  0  0  0  0
  -18.0295  -26.0039   22.9018 H   0  0  0  0  0  0
  -19.7924  -30.7257   24.2286 H   0  0  0  0  0  0
  -17.5000  -31.6264   24.5130 H   0  0  0  0  0  0
  -15.5340  -30.2963   23.7644 H   0  0  0  0  0  0
  -15.8675  -28.0768   22.7121 H   0  0  0  0  0  0
  -24.5878  -30.7118   25.7813 H   0  0  0  0  0  0
  -24.8957  -32.2904   26.4950 H   0  0  0  0  0  0
  -25.8071  -30.8880   27.0224 H   0  0  0  0  0  0
  -26.2847  -29.6828   24.1160 H   0  0  0  0  0  0
  -27.4017  -29.7276   25.4618 H   0  0  0  0  0  0
  -27.8716  -30.4363   23.9331 H   0  0  0  0  0  0
  -27.2627  -33.3629   26.2115 H   0  0  0  0  0  0
  -28.3822  -32.6949   25.0318 H   0  0  0  0  0  0
  -28.0737  -31.8464   26.5397 H   0  0  0  0  0  0
  -28.2614  -38.0075   24.7505 H   0  0  0  0  0  0
  -28.1049  -36.2606   24.6319 H   0  0  0  0  0  0
  -27.2288  -37.1471   25.8878 H   0  0  0  0  0  0
  -20.9306  -29.8696   21.6902 H   0  0  0  0  0  0
  -26.0167  -38.2863   24.1405 H   0  0  0  0  0  0
  -29.5606  -25.4201   22.3296 H   0  0  0  0  0  0
  -28.8016  -16.0576   19.4384 H   0  0  0  0  0  0
  -28.2513  -16.7007   21.0292 H   0  0  0  0  0  0
  -31.8271  -16.7047   21.6726 H   0  0  0  0  0  0
  -30.3223  -17.1656   22.5356 H   0  0  0  0  0  0
  -30.8605  -17.1707   19.4966 H   0  0  0  0  0  0
  -33.8091  -22.0155   21.0949 H   0  0  0  0  0  0
  -34.2431  -21.5534   22.7356 H   0  0  0  0  0  0
  -33.6776  -23.1867   22.4064 H   0  0  0  0  0  0
  -31.9712  -20.6418   22.1844 H   0  0  0  0  0  0
  -31.9074  -21.7565   23.4850 H   0  0  0  0  0  0
  -32.0050  -21.4419   19.1134 H   0  0  0  0  0  0
  -30.3948  -21.1117   18.5627 H   0  0  0  0  0  0
  -27.3250  -24.8268   20.2688 H   0  0  0  0  0  0
  -28.2385  -25.0580   18.7846 H   0  0  0  0  0  0
  -29.4388  -19.3171   21.1756 H   0  0  0  0  0  0
  -29.2019  -19.1430   19.4526 H   0  0  0  0  0  0
  -31.7342  -19.7574   20.8062 H   0  0  0  0  0  0
  -31.6459  -19.2600   19.2752 H   0  0  0  0  0  0
  1 25  1  0  0  0
  1 30  2  0  0  0
  1 85  1  0  0  0
  2  3  1  0  0  0
  2 25  1  0  0  0
  2 87  1  0  0  0
  2 88  1  0  0  0
  3  4  1  0  0  0
  3 89  1  0  0  0
  3 90  1  0  0  0
  4  5  1  0  0  0
  4 91  1  0  0  0
  4 92  1  0  0  0
  5  6  1  0  0  0
  5 26  1  0  0  0
  5 93  1  0  0  0
  6 25  1  0  0  0
  6 94  1  0  0  0
  6 95  1  0  0  0
  7  8  2  0  0  0
  7 26  1  0  0  0
  7 29  1  0  0  0
  8  9  1  0  0  0
  8 22  1  0  0  0
  9 10  1  0  0  0
  9 27  2  0  0  0
 10 11  2  0  0  0
 10 15  1  0  0  0
 11 12  1  0  0  0
 11 96  1  0  0  0
 12 13  2  0  0  0
 12 97  1  0  0  0
 13 14  1  0  0  0
 13 31  1  0  0  0
 14 15  2  0  0  0
 14 98  1  0  0  0
 15 99  1  0  0  0
 16 17  2  0  0  0
 16 21  1  0  0  0
 16 31  1  0  0  0
 17 18  1  0  0  0
 17100  1  0  0  0
 18 19  2  0  0  0
 18101  1  0  0  0
 19 20  1  0  0  0
 19 24  1  0  0  0
 20 21  2  0  0  0
 20102  1  0  0  0
 21 23  1  0  0  0
 22 28  1  0  0  0
 22 32  2  0  0  0
 26 27  1  0  0  0
 28103  1  0  0  0
 28104  1  0  0  0
 29105  1  0  0  0
 29106  1  0  0  0
 33 34  1  0  0  0
 33 66  1  0  0  0
 33 70  2  0  0  0
 34 36  1  0  0  0
 34 59  1  0  0  0
 34107  1  0  0  0
 35 44  2  0  0  0
 35 45  1  0  0  0
 35 68  1  0  0  0
 36 56  1  0  0  0
 36108  1  0  0  0
 37 39  1  0  0  0
 37 47  1  0  0  0
 37 66  1  0  0  0
 37109  1  0  0  0
 38 43  2  0  0  0
 38 46  1  0  0  0
 38 47  1  0  0  0
 39 64  1  0  0  0
 39 67  2  0  0  0
 40 52  1  0  0  0
 40 53  2  0  0  0
 40 58  1  0  0  0
 41110  1  0  0  0
 41111  1  0  0  0
 41112  1  0  0  0
 41 48  1  0  0  0
 42 43  1  0  0  0
 42 66  1  0  0  0
 42113  1  0  0  0
 42114  1  0  0  0
 43 44  1  0  0  0
 44115  1  0  0  0
 45 46  2  0  0  0
 45116  1  0  0  0
 46117  1  0  0  0
 47118  1  0  0  0
 47119  1  0  0  0
 48 56  1  0  0  0
 48 65  1  0  0  0
 48120  1  0  0  0
 49 50  1  0  0  0
 49 53  1  0  0  0
 49 64  1  0  0  0
 49121  1  0  0  0
 50 51  1  0  0  0
 50122  1  0  0  0
 50123  1  0  0  0
 51 52  1  0  0  0
 51124  1  0  0  0
 51125  1  0  0  0
 52126  1  0  0  0
 52127  1  0  0  0
 53 54  1  0  0  0
 54 55  2  0  0  0
 54128  1  0  0  0
 55 57  1  0  0  0
 55129  1  0  0  0
 56 69  2  0  0  0
 57 58  2  0  0  0
 57130  1  0  0  0
 58131  1  0  0  0
 59 60  1  0  0  0
 59 61  1  0  0  0
 59 62  1  0  0  0
 60132  1  0  0  0
 60133  1  0  0  0
 60134  1  0  0  0
 61135  1  0  0  0
 61136  1  0  0  0
 61137  1  0  0  0
 62138  1  0  0  0
 62139  1  0  0  0
 62140  1  0  0  0
 63 65  1  0  0  0
 63141  1  0  0  0
 63142  1  0  0  0
 63143  1  0  0  0
 64144  1  0  0  0
 65145  1  0  0  0
 68 81  1  0  0  0
 71 72  2  0  0  0
 71 83  1  0  0  0
 71146  1  0  0  0
 72 81  1  0  0  0
 72 84  1  0  0  0
 73 74  1  0  0  0
 73 79  1  0  0  0
 73 83  2  0  0  0
 74 80  1  0  0  0
 74 84  2  0  0  0
 75 77  1  0  0  0
 75 85  1  0  0  0
 75147  1  0  0  0
 75148  1  0  0  0
 76 77  1  0  0  0
 76 85  1  0  0  0
 76149  1  0  0  0
 76150  1  0  0  0
 77 82  1  0  0  0
 77151  1  0  0  0
 78 79  1  0  0  0
 78152  1  0  0  0
 78153  1  0  0  0
 78154  1  0  0  0
 79155  1  0  0  0
 79156  1  0  0  0
 80 86  1  0  0  0
 80157  1  0  0  0
 80158  1  0  0  0
 81159  1  0  0  0
 81160  1  0  0  0
 82 86  1  0  0  0
 82161  1  0  0  0
 82162  1  0  0  0
 86163  1  0  0  0
 86164  1  0  0  0
M  CHG  1  86   1
M  ISO  4   1 100  68 101  81 101  85 100
M  END
> <chiral flag>
0

> <version>
0

> <s_m_source_file>
/data/baiqing/PycharmProjects/Reinvent-master-3.2/result/LINK_invent/BTK/process_docking_weight1_custom_sum_contain_oxygen_bond_distance_aromatic_linkinvent_7_9_3/rearranged_h_0182.sdf

> <i_m_source_file_index>
63

> <r_mmod_Potential_Energy-OPLS-2005>
-54.6873512268066

> <r_mmod_Stretch_Energy-OPLS-2005>
48.7044563293457

> <r_mmod_Bend_Energy-OPLS-2005>
127.964408874512

> <r_mmod_Torsional_Energy-OPLS-2005>
259.741882324219

> <r_mmod_Improper_Torsional_Energy-OPLS-2005>
10.6321573257446

> <r_mmod_Van_der_Waal_Energy-OPLS-2005>
160.305374145508

> <r_mmod_Electrostatic_Energy-OPLS-2005>
-182.037551879883

> <r_mmod_Solvation_Energy-OPLS-2005>
-497.903289794922

> <b_mmod_Minimization_Converged-OPLS-2005>
0

> <r_mmod_RMS_Derivative-OPLS-2005>
3.08836030960083

$$$$
63
                    3D
 Structure written by MMmdl.
158167  0  0  1  0            999 V2000
  -30.7602  -14.4797   20.5808 C   0  0  0  0  0  0
  -30.3980  -12.3145   19.4471 C   0  0  0  0  0  0
  -29.4926  -12.4973   18.2121 C   0  0  0  0  0  0
  -28.0096  -12.3722   18.6086 C   0  0  0  0  0  0
  -27.6515  -13.2147   19.8626 C   0  0  2  0  0  0
  -28.6881  -13.0172   20.9888 C   0  0  0  0  0  0
  -25.2559  -13.8199   20.5701 C   0  0  0  0  0  0
  -24.1812  -13.0439   20.9172 C   0  0  0  0  0  0
  -24.6362  -11.6919   20.8701 C   0  0  0  0  0  0
  -23.9030  -10.4302   21.0385 C   0  0  0  0  0  0
  -24.3596   -9.4239   21.9169 C   0  0  0  0  0  0
  -23.6278   -8.2269   22.0776 C   0  0  0  0  0  0
  -22.4265   -8.0283   21.3553 C   0  0  0  0  0  0
  -21.9874   -9.0255   20.4666 C   0  0  0  0  0  0
  -22.7196  -10.2137   20.3056 C   0  0  0  0  0  0
  -21.6859   -6.0729   22.5277 C   0  0  0  0  0  0
  -21.4023   -6.5638   23.8207 C   0  0  0  0  0  0
  -21.3668   -5.6788   24.9172 C   0  0  0  0  0  0
  -21.6055   -4.3047   24.7211 C   0  0  0  0  0  0
  -21.8823   -3.8134   23.4335 C   0  0  0  0  0  0
  -21.9190   -4.6950   22.3400 C   0  0  0  0  0  0
  -22.7846  -13.5261   21.1821 C   0  0  0  0  0  0
  -22.1659   -4.2137   21.0965 F   0  0  0  0  0  0
  -21.5630   -3.4540   25.7729 F   0  0  0  0  0  0
  -30.0116  -13.3422   20.4359 N   0  0  0  0  0  0
  -26.2950  -12.9354   20.3271 N   0  0  0  0  0  0
  -25.9275  -11.6513   20.5699 N   0  0  0  0  0  0
  -22.0476  -12.8277   22.0384 N   0  0  0  0  0  0
  -25.4350  -15.1931   20.4208 N   0  0  0  0  0  0
  -31.9212  -14.5011   20.1613 O   0  0  0  0  0  0
  -21.6648   -6.8872   21.4242 O   0  0  0  0  0  0
  -22.3533  -14.5567   20.6665 O   0  0  0  0  0  0
  -24.6161  -31.8682   23.2095 C   0  0  0  0  0  0
  -25.9070  -32.4814   23.8392 C   0  0  1  0  0  0
  -27.2444  -27.4276   20.1059 C   0  0  0  0  0  0
  -25.5947  -33.8608   24.2353 N   0  0  0  0  0  0
  -23.4044  -30.4903   21.5499 C   0  0  2  0  0  0
  -24.8528  -28.9540   20.1149 C   0  0  0  0  0  0
  -22.7405  -29.4661   22.4993 C   0  0  0  0  0  0
  -18.0255  -28.1384   22.8498 C   0  0  0  0  0  0
  -24.1490  -36.7288   23.2632 C   0  0  0  0  0  0
  -25.9323  -30.8347   21.3625 C   0  0  0  0  0  0
  -26.0114  -29.4666   20.7101 C   0  0  0  0  0  0
  -27.2081  -28.7136   20.6968 C   0  0  0  0  0  0
  -26.0668  -26.9333   19.4975 C   0  0  0  0  0  0
  -24.8769  -27.6887   19.5024 C   0  0  0  0  0  0
  -23.6125  -29.8176   20.1658 C   0  0  0  0  0  0
  -25.4106  -36.3100   24.0346 C   0  0  1  0  0  0
  -20.5854  -28.3677   23.1313 C   0  0  2  0  0  0
  -20.6745  -26.9420   22.5398 C   0  0  0  0  0  0
  -19.5728  -26.6385   21.5194 C   0  0  0  0  0  0
  -18.1906  -26.7935   22.1609 C   0  0  0  0  0  0
  -19.1517  -28.8836   23.2901 C   0  0  0  0  0  0
  -18.9449  -30.1432   23.8921 C   0  0  0  0  0  0
  -17.6453  -30.6584   24.0563 C   0  0  0  0  0  0
  -25.9051  -34.9465   23.5138 C   0  0  0  0  0  0
  -16.5337  -29.9100   23.6314 C   0  0  0  0  0  0
  -16.7244  -28.6511   23.0359 C   0  0  0  0  0  0
  -26.4501  -31.6593   25.0728 C   0  0  0  0  0  0
  -25.3757  -31.3694   26.1483 C   0  0  0  0  0  0
  -27.0319  -30.3031   24.6093 C   0  0  0  0  0  0
  -27.6085  -32.4297   25.7501 C   0  0  0  0  0  0
  -27.5583  -37.1804   24.8473 C   0  0  0  0  0  0
  -21.4140  -29.3029   22.3716 N   0  0  0  0  0  0
  -26.4292  -37.3784   23.9422 N   0  0  0  0  0  0
  -24.6705  -31.0788   22.0998 N   0  0  0  0  0  0
  -23.4171  -28.8208   23.3048 O   0  0  0  0  0  0
  -28.4250  -26.7069   20.1455 O   0  0  0  0  0  0
  -26.5575  -34.8914   22.4675 O   0  0  0  0  0  0
  -23.5355  -32.1435   23.7483 O   0  0  0  0  0  0
  -30.3663  -19.2866   19.3722 C   0  0  0  0  0  0
  -30.1538  -18.2305   20.2686 C   0  0  0  0  0  0
  -29.5410  -18.5438   21.4790 C   0  0  0  0  0  0
  -29.4153  -20.7576   20.8527 C   0  0  0  0  0  0
  -30.6672  -16.8274   19.9764 C   0  0  0  0  0  0
  -29.3640  -17.4448   22.5112 C   0  0  0  0  0  0
  -29.2303  -16.0182   21.9035 C   0  0  0  0  0  0
  -29.0478  -22.2156   21.1786 C   0  0  0  0  0  0
  -29.6694  -24.6269   20.5589 C   0  0  0  0  0  0
  -28.3586  -25.2723   20.0429 C   0  0  0  0  0  0
  -29.9920  -20.5470   19.6688 N   0  0  0  0  0  0
  -29.1719  -19.8129   21.7714 N   0  0  0  0  0  0
  -30.1305  -15.6872   20.7701 N   0  0  0  0  0  0
  -29.7990  -23.1565   20.3103 N   0  3  0  0  0  0
  -31.4462  -12.3668   19.1531 H   0  0  0  0  0  0
  -30.2752  -11.3173   19.8734 H   0  0  0  0  0  0
  -29.7374  -11.7580   17.4478 H   0  0  0  0  0  0
  -29.6692  -13.4760   17.7630 H   0  0  0  0  0  0
  -27.8012  -11.3173   18.7913 H   0  0  0  0  0  0
  -27.3761  -12.6626   17.7689 H   0  0  0  0  0  0
  -27.6912  -14.2611   19.5562 H   0  0  0  0  0  0
  -28.6748  -11.9818   21.3329 H   0  0  0  0  0  0
  -28.4229  -13.5961   21.8668 H   0  0  0  0  0  0
  -25.2741   -9.5762   22.4727 H   0  0  0  0  0  0
  -24.0002   -7.4690   22.7533 H   0  0  0  0  0  0
  -21.0796   -8.8743   19.8996 H   0  0  0  0  0  0
  -22.3609  -10.9661   19.6160 H   0  0  0  0  0  0
  -21.2028   -7.6138   23.9697 H   0  0  0  0  0  0
  -21.1486   -6.0526   25.9068 H   0  0  0  0  0  0
  -22.0590   -2.7598   23.2833 H   0  0  0  0  0  0
  -22.4032  -11.9903   22.4755 H   0  0  0  0  0  0
  -21.1122  -13.1388   22.2588 H   0  0  0  0  0  0
  -24.7005  -15.8656   20.6068 H   0  0  0  0  0  0
  -26.3000  -15.6254   20.1206 H   0  0  0  0  0  0
  -26.7157  -32.5536   23.1174 H   0  0  0  0  0  0
  -25.0160  -33.9752   25.0544 H   0  0  0  0  0  0
  -22.6932  -31.3071   21.4103 H   0  0  0  0  0  0
  -23.3755  -35.9621   23.3306 H   0  0  0  0  0  0
  -24.3581  -36.8863   22.2042 H   0  0  0  0  0  0
  -23.7231  -37.6496   23.6624 H   0  0  0  0  0  0
  -26.0401  -31.6056   20.5970 H   0  0  0  0  0  0
  -26.8193  -30.8852   21.9822 H   0  0  0  0  0  0
  -28.1022  -29.1116   21.1573 H   0  0  0  0  0  0
  -26.0514  -25.9703   19.0079 H   0  0  0  0  0  0
  -23.9881  -27.2938   19.0313 H   0  0  0  0  0  0
  -23.7133  -30.5909   19.4038 H   0  0  0  0  0  0
  -22.7376  -29.2337   19.8759 H   0  0  0  0  0  0
  -25.1273  -36.1955   25.0838 H   0  0  0  0  0  0
  -20.9916  -28.3226   24.1454 H   0  0  0  0  0  0
  -20.5619  -26.2292   23.3587 H   0  0  0  0  0  0
  -21.6628  -26.7450   22.1214 H   0  0  0  0  0  0
  -19.6892  -25.6294   21.1244 H   0  0  0  0  0  0
  -19.6658  -27.3178   20.6726 H   0  0  0  0  0  0
  -17.4166  -26.6688   21.4015 H   0  0  0  0  0  0
  -18.0316  -26.0064   22.9010 H   0  0  0  0  0  0
  -19.7925  -30.7233   24.2312 H   0  0  0  0  0  0
  -17.5010  -31.6267   24.5173 H   0  0  0  0  0  0
  -15.5347  -30.3010   23.7616 H   0  0  0  0  0  0
  -15.8648  -28.0822   22.7088 H   0  0  0  0  0  0
  -24.5931  -30.7038   25.7839 H   0  0  0  0  0  0
  -24.8961  -32.2848   26.4965 H   0  0  0  0  0  0
  -25.8130  -30.8852   27.0222 H   0  0  0  0  0  0
  -26.2870  -29.6811   24.1116 H   0  0  0  0  0  0
  -27.4061  -29.7248   25.4554 H   0  0  0  0  0  0
  -27.8727  -30.4352   23.9263 H   0  0  0  0  0  0
  -27.2725  -33.3579   26.2137 H   0  0  0  0  0  0
  -28.3899  -32.6871   25.0339 H   0  0  0  0  0  0
  -28.0766  -31.8366   26.5368 H   0  0  0  0  0  0
  -28.2616  -38.0090   24.7513 H   0  0  0  0  0  0
  -28.1056  -36.2615   24.6309 H   0  0  0  0  0  0
  -27.2302  -37.1482   25.8878 H   0  0  0  0  0  0
  -20.9310  -29.8718   21.6908 H   0  0  0  0  0  0
  -26.0173  -38.2857   24.1424 H   0  0  0  0  0  0
  -30.8662  -19.1280   18.4269 H   0  0  0  0  0  0
  -31.7458  -16.9065   20.1258 H   0  0  0  0  0  0
  -30.5180  -16.6147   18.9142 H   0  0  0  0  0  0
  -28.4929  -17.6619   23.1330 H   0  0  0  0  0  0
  -30.2296  -17.4768   23.1744 H   0  0  0  0  0  0
  -28.2102  -15.9078   21.5358 H   0  0  0  0  0  0
  -29.3559  -15.3084   22.7192 H   0  0  0  0  0  0
  -29.2760  -22.4153   22.2262 H   0  0  0  0  0  0
  -27.9747  -22.3560   21.0490 H   0  0  0  0  0  0
  -29.8055  -24.8428   21.6195 H   0  0  0  0  0  0
  -30.5028  -25.1108   20.0494 H   0  0  0  0  0  0
  -27.5206  -24.8844   20.6257 H   0  0  0  0  0  0
  -28.1974  -25.0041   18.9977 H   0  0  0  0  0  0
  -30.7589  -22.8846   20.4445 H   0  0  0  0  0  0
  -29.5914  -22.8891   19.3608 H   0  0  0  0  0  0
  1 25  1  0  0  0
  1 30  2  0  0  0
  1 83  1  0  0  0
  2  3  1  0  0  0
  2 25  1  0  0  0
  2 85  1  0  0  0
  2 86  1  0  0  0
  3  4  1  0  0  0
  3 87  1  0  0  0
  3 88  1  0  0  0
  4  5  1  0  0  0
  4 89  1  0  0  0
  4 90  1  0  0  0
  5  6  1  0  0  0
  5 26  1  0  0  0
  5 91  1  0  0  0
  6 25  1  0  0  0
  6 92  1  0  0  0
  6 93  1  0  0  0
  7  8  2  0  0  0
  7 26  1  0  0  0
  7 29  1  0  0  0
  8  9  1  0  0  0
  8 22  1  0  0  0
  9 10  1  0  0  0
  9 27  2  0  0  0
 10 11  2  0  0  0
 10 15  1  0  0  0
 11 12  1  0  0  0
 11 94  1  0  0  0
 12 13  2  0  0  0
 12 95  1  0  0  0
 13 14  1  0  0  0
 13 31  1  0  0  0
 14 15  2  0  0  0
 14 96  1  0  0  0
 15 97  1  0  0  0
 16 17  2  0  0  0
 16 21  1  0  0  0
 16 31  1  0  0  0
 17 18  1  0  0  0
 17 98  1  0  0  0
 18 19  2  0  0  0
 18 99  1  0  0  0
 19 20  1  0  0  0
 19 24  1  0  0  0
 20 21  2  0  0  0
 20100  1  0  0  0
 21 23  1  0  0  0
 22 28  1  0  0  0
 22 32  2  0  0  0
 26 27  1  0  0  0
 28101  1  0  0  0
 28102  1  0  0  0
 29103  1  0  0  0
 29104  1  0  0  0
 33 34  1  0  0  0
 33 66  1  0  0  0
 33 70  2  0  0  0
 34 36  1  0  0  0
 34 59  1  0  0  0
 34105  1  0  0  0
 35 44  2  0  0  0
 35 45  1  0  0  0
 35 68  1  0  0  0
 36 56  1  0  0  0
 36106  1  0  0  0
 37 39  1  0  0  0
 37 47  1  0  0  0
 37 66  1  0  0  0
 37107  1  0  0  0
 38 43  2  0  0  0
 38 46  1  0  0  0
 38 47  1  0  0  0
 39 64  1  0  0  0
 39 67  2  0  0  0
 40 52  1  0  0  0
 40 53  2  0  0  0
 40 58  1  0  0  0
 41108  1  0  0  0
 41109  1  0  0  0
 41110  1  0  0  0
 41 48  1  0  0  0
 42 43  1  0  0  0
 42 66  1  0  0  0
 42111  1  0  0  0
 42112  1  0  0  0
 43 44  1  0  0  0
 44113  1  0  0  0
 45 46  2  0  0  0
 45114  1  0  0  0
 46115  1  0  0  0
 47116  1  0  0  0
 47117  1  0  0  0
 48 56  1  0  0  0
 48 65  1  0  0  0
 48118  1  0  0  0
 49 50  1  0  0  0
 49 53  1  0  0  0
 49 64  1  0  0  0
 49119  1  0  0  0
 50 51  1  0  0  0
 50120  1  0  0  0
 50121  1  0  0  0
 51 52  1  0  0  0
 51122  1  0  0  0
 51123  1  0  0  0
 52124  1  0  0  0
 52125  1  0  0  0
 53 54  1  0  0  0
 54 55  2  0  0  0
 54126  1  0  0  0
 55 57  1  0  0  0
 55127  1  0  0  0
 56 69  2  0  0  0
 57 58  2  0  0  0
 57128  1  0  0  0
 58129  1  0  0  0
 59 60  1  0  0  0
 59 61  1  0  0  0
 59 62  1  0  0  0
 60130  1  0  0  0
 60131  1  0  0  0
 60132  1  0  0  0
 61133  1  0  0  0
 61134  1  0  0  0
 61135  1  0  0  0
 62136  1  0  0  0
 62137  1  0  0  0
 62138  1  0  0  0
 63 65  1  0  0  0
 63139  1  0  0  0
 63140  1  0  0  0
 63141  1  0  0  0
 64142  1  0  0  0
 65143  1  0  0  0
 68 80  1  0  0  0
 71 72  2  0  0  0
 71 81  1  0  0  0
 71144  1  0  0  0
 72 73  1  0  0  0
 72 75  1  0  0  0
 73 76  1  0  0  0
 73 82  2  0  0  0
 74 78  1  0  0  0
 74 81  2  0  0  0
 74 82  1  0  0  0
 75 83  1  0  0  0
 75145  1  0  0  0
 75146  1  0  0  0
 76 77  1  0  0  0
 76147  1  0  0  0
 76148  1  0  0  0
 77 83  1  0  0  0
 77149  1  0  0  0
 77150  1  0  0  0
 78 84  1  0  0  0
 78151  1  0  0  0
 78152  1  0  0  0
 79 80  1  0  0  0
 79 84  1  0  0  0
 79153  1  0  0  0
 79154  1  0  0  0
 80155  1  0  0  0
 80156  1  0  0  0
 84157  1  0  0  0
 84158  1  0  0  0
M  CHG  1  84   1
M  ISO  4   1 100  68 101  80 101  83 100
M  END
> <chiral flag>
0

> <version>
0

> <s_m_source_file>
/data/baiqing/PycharmProjects/Reinvent-master-3.2/result/LINK_invent/BTK/process_docking_weight1_custom_sum_contain_oxygen_bond_distance_aromatic_linkinvent_7_9_3/rearranged_h_0182.sdf

> <i_m_source_file_index>
64

> <r_mmod_Potential_Energy-OPLS-2005>
-469.904998779297

> <r_mmod_Stretch_Energy-OPLS-2005>
45.8746604919434

> <r_mmod_Bend_Energy-OPLS-2005>
129.549819946289

> <r_mmod_Torsional_Energy-OPLS-2005>
272.855926513672

> <r_mmod_Improper_Torsional_Energy-OPLS-2005>
13.5455856323242

> <r_mmod_Van_der_Waal_Energy-OPLS-2005>
176.380996704102

> <r_mmod_Electrostatic_Energy-OPLS-2005>
-680.277954101562

> <r_mmod_Solvation_Energy-OPLS-2005>
-448.561096191406

> <b_mmod_Minimization_Converged-OPLS-2005>
0

> <r_mmod_RMS_Derivative-OPLS-2005>
3.56692624092102

$$$$
64
                    3D
 Structure written by MMmdl.
149158  0  0  1  0            999 V2000
  -30.5206  -15.1424   20.3701 C   0  0  0  0  0  0
  -30.4380  -12.7146   19.5231 C   0  0  0  0  0  0
  -29.5354  -12.5485   18.2767 C   0  0  0  0  0  0
  -28.0714  -12.3144   18.6912 C   0  0  0  0  0  0
  -27.6167  -13.2745   19.8220 C   0  0  2  0  0  0
  -28.6576  -13.4108   20.9553 C   0  0  0  0  0  0
  -25.2394  -13.8269   20.5708 C   0  0  0  0  0  0
  -24.1728  -13.0455   20.9214 C   0  0  0  0  0  0
  -24.6358  -11.6949   20.8692 C   0  0  0  0  0  0
  -23.9040  -10.4302   21.0345 C   0  0  0  0  0  0
  -24.3607   -9.4231   21.9132 C   0  0  0  0  0  0
  -23.6301   -8.2256   22.0714 C   0  0  0  0  0  0
  -22.4282   -8.0265   21.3516 C   0  0  0  0  0  0
  -21.9888   -9.0224   20.4616 C   0  0  0  0  0  0
  -22.7192  -10.2122   20.3009 C   0  0  0  0  0  0
  -21.6882   -6.0698   22.5235 C   0  0  0  0  0  0
  -21.4043   -6.5606   23.8162 C   0  0  0  0  0  0
  -21.3670   -5.6760   24.9124 C   0  0  0  0  0  0
  -21.6061   -4.3021   24.7186 C   0  0  0  0  0  0
  -21.8826   -3.8105   23.4305 C   0  0  0  0  0  0
  -21.9213   -4.6923   22.3362 C   0  0  0  0  0  0
  -22.7744  -13.5185   21.1901 C   0  0  0  0  0  0
  -22.1680   -4.2096   21.0947 F   0  0  0  0  0  0
  -21.5635   -3.4517   25.7708 F   0  0  0  0  0  0
  -29.9107  -13.8659   20.3323 N   0  0  0  0  0  0
  -26.2828  -12.9543   20.3199 N   0  0  0  0  0  0
  -25.9302  -11.6652   20.5681 N   0  0  0  0  0  0
  -22.0430  -12.8168   22.0485 N   0  0  0  0  0  0
  -25.4103  -15.2000   20.4177 N   0  0  0  0  0  0
  -31.7378  -15.1228   20.1463 O   0  0  0  0  0  0
  -21.6671   -6.8842   21.4199 O   0  0  0  0  0  0
  -22.3395  -14.5458   20.6703 O   0  0  0  0  0  0
  -24.6584  -31.8270   23.1726 C   0  0  0  0  0  0
  -25.9291  -32.4605   23.8172 C   0  0  1  0  0  0
  -27.2311  -26.9983   20.1605 C   0  0  0  0  0  0
  -25.5974  -33.8418   24.2079 N   0  0  0  0  0  0
  -23.4686  -30.4419   21.5212 C   0  0  2  0  0  0
  -24.9205  -28.8408   20.1099 C   0  0  0  0  0  0
  -22.7632  -29.4469   22.4801 C   0  0  0  0  0  0
  -18.0311  -28.1402   22.8454 C   0  0  0  0  0  0
  -24.1505  -36.7225   23.2653 C   0  0  0  0  0  0
  -26.0332  -30.6596   21.3885 C   0  0  0  0  0  0
  -26.1043  -29.2553   20.7352 C   0  0  0  0  0  0
  -27.2560  -28.3551   20.7351 C   0  0  0  0  0  0
  -26.0150  -26.7203   19.4956 C   0  0  0  0  0  0
  -24.8980  -27.5920   19.4713 C   0  0  0  0  0  0
  -23.7027  -29.7602   20.1457 C   0  0  0  0  0  0
  -25.4137  -36.2973   24.0304 C   0  0  1  0  0  0
  -20.5932  -28.3751   23.1201 C   0  0  2  0  0  0
  -20.6804  -26.9449   22.5394 C   0  0  0  0  0  0
  -19.5793  -26.6378   21.5199 C   0  0  0  0  0  0
  -18.1964  -26.7933   22.1599 C   0  0  0  0  0  0
  -19.1564  -28.8892   23.2816 C   0  0  0  0  0  0
  -18.9486  -30.1470   23.8882 C   0  0  0  0  0  0
  -17.6484  -30.6605   24.0551 C   0  0  0  0  0  0
  -25.9102  -34.9362   23.5014 C   0  0  0  0  0  0
  -16.5375  -29.9097   23.6339 C   0  0  0  0  0  0
  -16.7287  -28.6504   23.0375 C   0  0  0  0  0  0
  -26.4563  -31.6527   25.0674 C   0  0  0  0  0  0
  -25.3719  -31.3721   26.1341 C   0  0  0  0  0  0
  -27.0429  -30.2905   24.6331 C   0  0  0  0  0  0
  -27.6074  -32.4311   25.7475 C   0  0  0  0  0  0
  -27.5573  -37.1754   24.8462 C   0  0  0  0  0  0
  -21.4305  -29.3050   22.3543 N   0  0  0  0  0  0
  -26.4268  -37.3710   23.9423 N   0  0  0  0  0  0
  -24.7412  -31.0012   22.0818 N   0  0  0  0  0  0
  -23.4196  -28.8047   23.3033 O   0  0  0  0  0  0
  -28.2624  -25.9376   20.2085 O   0  0  0  0  0  0
  -26.5695  -34.8895   22.4604 O   0  0  0  0  0  0
  -23.5668  -32.1216   23.6862 O   0  0  0  0  0  0
  -30.9361  -20.8913   19.9007 C   0  0  0  0  0  0
  -30.3756  -23.1968   19.8586 C   0  0  0  0  0  0
  -29.6184  -20.4533   20.1814 C   0  0  0  0  0  0
  -29.0071  -22.9807   20.1371 C   0  0  0  0  0  0
  -29.8283  -17.5377   19.3420 C   0  0  0  0  0  0
  -30.1038  -17.6574   21.2941 C   0  0  0  0  0  0
  -29.4037  -18.7491   20.3265 C   0  0  0  0  0  0
  -27.9620  -24.3431   20.1490 C   0  0  0  0  0  0
  -31.2980  -22.1992   19.7512 N   0  0  0  0  0  0
  -28.6669  -21.5586   20.2903 N   0  0  0  0  0  0
  -29.8051  -16.4232   20.4125 N   0  0  0  0  0  0
  -31.4712  -12.8710   19.2106 H   0  0  0  0  0  0
  -30.4522  -11.7966   20.1137 H   0  0  0  0  0  0
  -29.8858  -11.7146   17.6641 H   0  0  0  0  0  0
  -29.6069  -13.4458   17.6595 H   0  0  0  0  0  0
  -27.9880  -11.2823   19.0355 H   0  0  0  0  0  0
  -27.4116  -12.3997   17.8267 H   0  0  0  0  0  0
  -27.5429  -14.2546   19.3479 H   0  0  0  0  0  0
  -28.7920  -12.4670   21.4862 H   0  0  0  0  0  0
  -28.3218  -14.1401   21.6946 H   0  0  0  0  0  0
  -25.2747   -9.5742   22.4693 H   0  0  0  0  0  0
  -24.0013   -7.4655   22.7430 H   0  0  0  0  0  0
  -21.0805   -8.8718   19.8937 H   0  0  0  0  0  0
  -22.3601  -10.9646   19.6116 H   0  0  0  0  0  0
  -21.2044   -7.6112   23.9655 H   0  0  0  0  0  0
  -21.1510   -6.0489   25.9033 H   0  0  0  0  0  0
  -22.0610   -2.7564   23.2816 H   0  0  0  0  0  0
  -22.4118  -11.9882   22.4913 H   0  0  0  0  0  0
  -21.1004  -13.1113   22.2627 H   0  0  0  0  0  0
  -24.6503  -15.8611   20.5365 H   0  0  0  0  0  0
  -26.2734  -15.6390   20.1198 H   0  0  0  0  0  0
  -26.7354  -32.5166   23.0875 H   0  0  0  0  0  0
  -25.0081  -33.9495   25.0196 H   0  0  0  0  0  0
  -22.7816  -31.2748   21.3546 H   0  0  0  0  0  0
  -23.3749  -35.9576   23.3274 H   0  0  0  0  0  0
  -24.3607  -36.8905   22.2085 H   0  0  0  0  0  0
  -23.7278  -37.6416   23.6713 H   0  0  0  0  0  0
  -26.2014  -31.4037   20.6094 H   0  0  0  0  0  0
  -26.8979  -30.7194   22.0369 H   0  0  0  0  0  0
  -28.1568  -28.6774   21.2393 H   0  0  0  0  0  0
  -25.8922  -25.7749   18.9904 H   0  0  0  0  0  0
  -24.0020  -27.2724   18.9560 H   0  0  0  0  0  0
  -23.8483  -30.5282   19.3862 H   0  0  0  0  0  0
  -22.8153  -29.2093   19.8308 H   0  0  0  0  0  0
  -25.1323  -36.1770   25.0787 H   0  0  0  0  0  0
  -21.0008  -28.3360   24.1331 H   0  0  0  0  0  0
  -20.5693  -26.2381   23.3626 H   0  0  0  0  0  0
  -21.6678  -26.7458   22.1211 H   0  0  0  0  0  0
  -19.6981  -25.6276   21.1277 H   0  0  0  0  0  0
  -19.6738  -27.3153   20.6707 H   0  0  0  0  0  0
  -17.4229  -26.6639   21.4005 H   0  0  0  0  0  0
  -18.0391  -26.0084   22.9013 H   0  0  0  0  0  0
  -19.7965  -30.7249   24.2284 H   0  0  0  0  0  0
  -17.5055  -31.6302   24.5124 H   0  0  0  0  0  0
  -15.5380  -30.3007   23.7673 H   0  0  0  0  0  0
  -15.8678  -28.0801   22.7157 H   0  0  0  0  0  0
  -24.5946  -30.7025   25.7621 H   0  0  0  0  0  0
  -24.8863  -32.2908   26.4663 H   0  0  0  0  0  0
  -25.7997  -30.8958   27.0177 H   0  0  0  0  0  0
  -26.3053  -29.6600   24.1348 H   0  0  0  0  0  0
  -27.4006  -29.7242   25.4938 H   0  0  0  0  0  0
  -27.8983  -30.4083   23.9671 H   0  0  0  0  0  0
  -27.2652  -33.3647   26.1940 H   0  0  0  0  0  0
  -28.3935  -32.6807   25.0335 H   0  0  0  0  0  0
  -28.0671  -31.8511   26.5484 H   0  0  0  0  0  0
  -28.2524  -38.0105   24.7522 H   0  0  0  0  0  0
  -28.1105  -36.2625   24.6221 H   0  0  0  0  0  0
  -27.2295  -37.1324   25.8861 H   0  0  0  0  0  0
  -20.9544  -29.8749   21.6691 H   0  0  0  0  0  0
  -26.0105  -38.2761   24.1436 H   0  0  0  0  0  0
  -31.7386  -20.1729   19.7900 H   0  0  0  0  0  0
  -30.7457  -24.1990   19.6912 H   0  0  0  0  0  0
  -30.8207  -17.6847   18.9064 H   0  0  0  0  0  0
  -29.1162  -17.3910   18.5300 H   0  0  0  0  0  0
  -31.1738  -17.8383   21.4204 H   0  0  0  0  0  0
  -29.6488  -17.6263   22.2840 H   0  0  0  0  0  0
  -28.3304  -18.6519   20.4904 H   0  0  0  0  0  0
  -27.3781  -24.2005   19.2409 H   0  0  0  0  0  0
  -27.2659  -24.1548   20.9684 H   0  0  0  0  0  0
  1 25  1  0  0  0
  1 30  2  0  0  0
  1 81  1  0  0  0
  2  3  1  0  0  0
  2 25  1  0  0  0
  2 82  1  0  0  0
  2 83  1  0  0  0
  3  4  1  0  0  0
  3 84  1  0  0  0
  3 85  1  0  0  0
  4  5  1  0  0  0
  4 86  1  0  0  0
  4 87  1  0  0  0
  5  6  1  0  0  0
  5 26  1  0  0  0
  5 88  1  0  0  0
  6 25  1  0  0  0
  6 89  1  0  0  0
  6 90  1  0  0  0
  7  8  2  0  0  0
  7 26  1  0  0  0
  7 29  1  0  0  0
  8  9  1  0  0  0
  8 22  1  0  0  0
  9 10  1  0  0  0
  9 27  2  0  0  0
 10 11  2  0  0  0
 10 15  1  0  0  0
 11 12  1  0  0  0
 11 91  1  0  0  0
 12 13  2  0  0  0
 12 92  1  0  0  0
 13 14  1  0  0  0
 13 31  1  0  0  0
 14 15  2  0  0  0
 14 93  1  0  0  0
 15 94  1  0  0  0
 16 17  2  0  0  0
 16 21  1  0  0  0
 16 31  1  0  0  0
 17 18  1  0  0  0
 17 95  1  0  0  0
 18 19  2  0  0  0
 18 96  1  0  0  0
 19 20  1  0  0  0
 19 24  1  0  0  0
 20 21  2  0  0  0
 20 97  1  0  0  0
 21 23  1  0  0  0
 22 28  1  0  0  0
 22 32  2  0  0  0
 26 27  1  0  0  0
 28 98  1  0  0  0
 28 99  1  0  0  0
 29100  1  0  0  0
 29101  1  0  0  0
 33 34  1  0  0  0
 33 66  1  0  0  0
 33 70  2  0  0  0
 34 36  1  0  0  0
 34 59  1  0  0  0
 34102  1  0  0  0
 35 44  2  0  0  0
 35 45  1  0  0  0
 35 68  1  0  0  0
 36 56  1  0  0  0
 36103  1  0  0  0
 37 39  1  0  0  0
 37 47  1  0  0  0
 37 66  1  0  0  0
 37104  1  0  0  0
 38 43  2  0  0  0
 38 46  1  0  0  0
 38 47  1  0  0  0
 39 64  1  0  0  0
 39 67  2  0  0  0
 40 52  1  0  0  0
 40 53  2  0  0  0
 40 58  1  0  0  0
 41105  1  0  0  0
 41106  1  0  0  0
 41107  1  0  0  0
 41 48  1  0  0  0
 42 43  1  0  0  0
 42 66  1  0  0  0
 42108  1  0  0  0
 42109  1  0  0  0
 43 44  1  0  0  0
 44110  1  0  0  0
 45 46  2  0  0  0
 45111  1  0  0  0
 46112  1  0  0  0
 47113  1  0  0  0
 47114  1  0  0  0
 48 56  1  0  0  0
 48 65  1  0  0  0
 48115  1  0  0  0
 49 50  1  0  0  0
 49 53  1  0  0  0
 49 64  1  0  0  0
 49116  1  0  0  0
 50 51  1  0  0  0
 50117  1  0  0  0
 50118  1  0  0  0
 51 52  1  0  0  0
 51119  1  0  0  0
 51120  1  0  0  0
 52121  1  0  0  0
 52122  1  0  0  0
 53 54  1  0  0  0
 54 55  2  0  0  0
 54123  1  0  0  0
 55 57  1  0  0  0
 55124  1  0  0  0
 56 69  2  0  0  0
 57 58  2  0  0  0
 57125  1  0  0  0
 58126  1  0  0  0
 59 60  1  0  0  0
 59 61  1  0  0  0
 59 62  1  0  0  0
 60127  1  0  0  0
 60128  1  0  0  0
 60129  1  0  0  0
 61130  1  0  0  0
 61131  1  0  0  0
 61132  1  0  0  0
 62133  1  0  0  0
 62134  1  0  0  0
 62135  1  0  0  0
 63 65  1  0  0  0
 63136  1  0  0  0
 63137  1  0  0  0
 63138  1  0  0  0
 64139  1  0  0  0
 65140  1  0  0  0
 68 78  1  0  0  0
 71 73  2  0  0  0
 71 79  1  0  0  0
 71141  1  0  0  0
 72 74  1  0  0  0
 72 79  2  0  0  0
 72142  1  0  0  0
 73 80  1  0  0  0
 73 77  1  0  0  0
 74 78  1  0  0  0
 74 80  2  0  0  0
 75 77  1  0  0  0
 75 81  1  0  0  0
 75143  1  0  0  0
 75144  1  0  0  0
 76 77  1  0  0  0
 76 81  1  0  0  0
 76145  1  0  0  0
 76146  1  0  0  0
 77147  1  0  0  0
 78148  1  0  0  0
 78149  1  0  0  0
M  ISO  4   1 100  68 101  78 101  81 100
M  END
> <chiral flag>
0

> <version>
0

> <s_m_source_file>
/data/baiqing/PycharmProjects/Reinvent-master-3.2/result/LINK_invent/BTK/process_docking_weight1_custom_sum_contain_oxygen_bond_distance_aromatic_linkinvent_7_9_3/rearranged_h_0182.sdf

> <i_m_source_file_index>
65

> <r_mmod_Potential_Energy-OPLS-2005>
1067.89123535156

> <r_mmod_Stretch_Energy-OPLS-2005>
423.429901123047

> <r_mmod_Bend_Energy-OPLS-2005>
354.962432861328

> <r_mmod_Torsional_Energy-OPLS-2005>
269.161102294922

> <r_mmod_Improper_Torsional_Energy-OPLS-2005>
12.6771821975708

> <r_mmod_Van_der_Waal_Energy-OPLS-2005>
124.706359863281

> <r_mmod_Electrostatic_Energy-OPLS-2005>
-237.559173583984

> <r_mmod_Solvation_Energy-OPLS-2005>
-221.492767333984

> <b_mmod_Minimization_Converged-OPLS-2005>
0

> <r_mmod_RMS_Derivative-OPLS-2005>
3.53677749633789

$$$$
65
                    3D
 Structure written by MMmdl.
162171  0  0  1  0            999 V2000
  -30.6933  -14.6110   20.5018 C   0  0  0  0  0  0
  -30.4189  -12.3797   19.4528 C   0  0  0  0  0  0
  -29.4970  -12.4986   18.2219 C   0  0  0  0  0  0
  -28.0233  -12.3437   18.6398 C   0  0  0  0  0  0
  -27.6490  -13.2270   19.8603 C   0  0  2  0  0  0
  -28.6970  -13.1192   20.9913 C   0  0  0  0  0  0
  -25.2531  -13.8194   20.5705 C   0  0  0  0  0  0
  -24.1814  -13.0443   20.9206 C   0  0  0  0  0  0
  -24.6398  -11.6919   20.8751 C   0  0  0  0  0  0
  -23.9071  -10.4296   21.0404 C   0  0  0  0  0  0
  -24.3620   -9.4211   21.9183 C   0  0  0  0  0  0
  -23.6296   -8.2242   22.0754 C   0  0  0  0  0  0
  -22.4280   -8.0279   21.3540 C   0  0  0  0  0  0
  -21.9918   -9.0250   20.4642 C   0  0  0  0  0  0
  -22.7244  -10.2132   20.3052 C   0  0  0  0  0  0
  -21.6853   -6.0734   22.5272 C   0  0  0  0  0  0
  -21.4013   -6.5637   23.8206 C   0  0  0  0  0  0
  -21.3669   -5.6793   24.9171 C   0  0  0  0  0  0
  -21.6047   -4.3055   24.7224 C   0  0  0  0  0  0
  -21.8819   -3.8147   23.4341 C   0  0  0  0  0  0
  -21.9192   -4.6961   22.3398 C   0  0  0  0  0  0
  -22.7831  -13.5217   21.1868 C   0  0  0  0  0  0
  -22.1660   -4.2147   21.0977 F   0  0  0  0  0  0
  -21.5637   -3.4539   25.7739 F   0  0  0  0  0  0
  -30.0115  -13.4263   20.4120 N   0  0  0  0  0  0
  -26.2975  -12.9404   20.3341 N   0  0  0  0  0  0
  -25.9333  -11.6548   20.5781 N   0  0  0  0  0  0
  -22.0488  -12.8187   22.0422 N   0  0  0  0  0  0
  -25.4217  -15.1918   20.4112 N   0  0  0  0  0  0
  -31.8682  -14.6933   20.1386 O   0  0  0  0  0  0
  -21.6643   -6.8876   21.4237 O   0  0  0  0  0  0
  -22.3510  -14.5527   20.6734 O   0  0  0  0  0  0
  -24.6271  -31.8630   23.2097 C   0  0  0  0  0  0
  -25.9126  -32.4796   23.8407 C   0  0  1  0  0  0
  -27.2025  -27.3149   20.1030 C   0  0  0  0  0  0
  -25.5949  -33.8598   24.2325 N   0  0  0  0  0  0
  -23.4188  -30.4945   21.5539 C   0  0  2  0  0  0
  -24.8624  -28.9703   20.1054 C   0  0  0  0  0  0
  -22.7475  -29.4649   22.4946 C   0  0  0  0  0  0
  -18.0282  -28.1383   22.8485 C   0  0  0  0  0  0
  -24.1492  -36.7299   23.2636 C   0  0  0  0  0  0
  -25.9655  -30.7890   21.3897 C   0  0  0  0  0  0
  -26.0353  -29.4217   20.7245 C   0  0  0  0  0  0
  -27.2073  -28.6015   20.7289 C   0  0  0  0  0  0
  -26.0150  -26.9646   19.4054 C   0  0  0  0  0  0
  -24.8551  -27.7454   19.4369 C   0  0  0  0  0  0
  -23.6313  -29.8467   20.1642 C   0  0  0  0  0  0
  -25.4111  -36.3091   24.0334 C   0  0  1  0  0  0
  -20.5887  -28.3693   23.1273 C   0  0  2  0  0  0
  -20.6778  -26.9423   22.5394 C   0  0  0  0  0  0
  -19.5751  -26.6388   21.5203 C   0  0  0  0  0  0
  -18.1928  -26.7930   22.1613 C   0  0  0  0  0  0
  -19.1536  -28.8856   23.2875 C   0  0  0  0  0  0
  -18.9463  -30.1458   23.8895 C   0  0  0  0  0  0
  -17.6468  -30.6595   24.0557 C   0  0  0  0  0  0
  -25.9051  -34.9456   23.5121 C   0  0  0  0  0  0
  -16.5355  -29.9092   23.6338 C   0  0  0  0  0  0
  -16.7271  -28.6503   23.0367 C   0  0  0  0  0  0
  -26.4512  -31.6600   25.0767 C   0  0  0  0  0  0
  -25.3744  -31.3706   26.1486 C   0  0  0  0  0  0
  -27.0382  -30.3031   24.6231 C   0  0  0  0  0  0
  -27.6064  -32.4347   25.7536 C   0  0  0  0  0  0
  -27.5587  -37.1796   24.8457 C   0  0  0  0  0  0
  -21.4188  -29.3059   22.3680 N   0  0  0  0  0  0
  -26.4286  -37.3790   23.9420 N   0  0  0  0  0  0
  -24.6891  -31.0643   22.1067 N   0  0  0  0  0  0
  -23.4204  -28.8156   23.2995 O   0  0  0  0  0  0
  -28.2576  -26.3783   20.2088 O   0  0  0  0  0  0
  -26.5603  -34.8909   22.4677 O   0  0  0  0  0  0
  -23.5433  -32.1440   23.7414 O   0  0  0  0  0  0
  -28.3487  -21.2378   20.9652 C   0  0  0  0  0  0
  -29.7136  -21.0472   20.6841 C   0  0  0  0  0  0
  -27.7573  -22.5202   20.8401 C   0  0  0  0  0  0
  -30.4304  -22.2341   20.3373 C   0  0  0  0  0  0
  -28.5372  -23.6483   20.4301 C   0  0  0  0  0  0
  -30.7197  -19.1971   22.2391 C   0  0  0  0  0  0
  -30.9074  -17.6565   22.2276 C   0  0  0  0  0  0
  -29.6724  -18.3332   20.2635 C   0  0  0  0  0  0
  -30.3807  -19.6259   20.8027 C   0  0  1  0  0  0
  -30.5464  -17.1499   20.8161 C   0  0  2  0  0  0
  -26.2583  -22.6156   21.1019 C   0  0  0  0  0  0
  -31.9259  -22.2026   20.0843 C   0  0  0  0  0  0
  -27.8288  -24.9751   19.9572 C   0  0  0  0  0  0
  -29.8628  -23.4728   20.2001 N   0  0  0  0  0  0
  -29.9944  -15.7465   20.8121 N   0  0  0  0  0  0
  -31.4635  -12.4690   19.1495 H   0  0  0  0  0  0
  -30.3248  -11.3933   19.9094 H   0  0  0  0  0  0
  -29.7550  -11.7408   17.4808 H   0  0  0  0  0  0
  -29.6441  -13.4652   17.7373 H   0  0  0  0  0  0
  -27.8618  -11.2927   18.8825 H   0  0  0  0  0  0
  -27.3653  -12.5639   17.7984 H   0  0  0  0  0  0
  -27.6591  -14.2573   19.5038 H   0  0  0  0  0  0
  -28.7023  -12.1174   21.4229 H   0  0  0  0  0  0
  -28.4552  -13.8003   21.8087 H   0  0  0  0  0  0
  -25.2762   -9.5690   22.4762 H   0  0  0  0  0  0
  -24.0009   -7.4637   22.7475 H   0  0  0  0  0  0
  -21.0854   -8.8761   19.8946 H   0  0  0  0  0  0
  -22.3696  -10.9667   19.6164 H   0  0  0  0  0  0
  -21.1999   -7.6145   23.9706 H   0  0  0  0  0  0
  -21.1498   -6.0526   25.9075 H   0  0  0  0  0  0
  -22.0592   -2.7607   23.2843 H   0  0  0  0  0  0
  -22.4126  -11.9845   22.4785 H   0  0  0  0  0  0
  -21.1101  -13.1188   22.2647 H   0  0  0  0  0  0
  -24.6527  -15.8443   20.5188 H   0  0  0  0  0  0
  -26.2693  -15.6320   20.0758 H   0  0  0  0  0  0
  -26.7184  -32.5467   23.1145 H   0  0  0  0  0  0
  -25.0128  -33.9755   25.0491 H   0  0  0  0  0  0
  -22.7126  -31.3163   21.4193 H   0  0  0  0  0  0
  -23.3762  -35.9619   23.3267 H   0  0  0  0  0  0
  -24.3589  -36.8956   22.2058 H   0  0  0  0  0  0
  -23.7226  -37.6482   23.6679 H   0  0  0  0  0  0
  -26.1054  -31.5557   20.6259 H   0  0  0  0  0  0
  -26.8429  -30.8302   22.0231 H   0  0  0  0  0  0
  -28.0932  -28.9299   21.2542 H   0  0  0  0  0  0
  -25.9190  -26.0540   18.8347 H   0  0  0  0  0  0
  -23.9651  -27.4042   18.9262 H   0  0  0  0  0  0
  -23.7461  -30.6309   19.4150 H   0  0  0  0  0  0
  -22.7507  -29.2779   19.8600 H   0  0  0  0  0  0
  -25.1284  -36.1945   25.0824 H   0  0  0  0  0  0
  -20.9969  -28.3269   24.1397 H   0  0  0  0  0  0
  -20.5699  -26.2306   23.3591 H   0  0  0  0  0  0
  -21.6647  -26.7461   22.1186 H   0  0  0  0  0  0
  -19.6918  -25.6296   21.1249 H   0  0  0  0  0  0
  -19.6689  -27.3181   20.6718 H   0  0  0  0  0  0
  -17.4200  -26.6680   21.4013 H   0  0  0  0  0  0
  -18.0320  -26.0066   22.9001 H   0  0  0  0  0  0
  -19.7938  -30.7266   24.2273 H   0  0  0  0  0  0
  -17.5025  -31.6279   24.5149 H   0  0  0  0  0  0
  -15.5358  -30.2998   23.7670 H   0  0  0  0  0  0
  -15.8661  -28.0819   22.7104 H   0  0  0  0  0  0
  -24.5944  -30.7029   25.7808 H   0  0  0  0  0  0
  -24.8896  -32.2849   26.4916 H   0  0  0  0  0  0
  -25.8078  -30.8893   27.0263 H   0  0  0  0  0  0
  -26.2977  -29.6762   24.1253 H   0  0  0  0  0  0
  -27.4085  -29.7306   25.4744 H   0  0  0  0  0  0
  -27.8841  -30.4329   23.9474 H   0  0  0  0  0  0
  -27.2680  -33.3669   26.2071 H   0  0  0  0  0  0
  -28.3892  -32.6877   25.0373 H   0  0  0  0  0  0
  -28.0710  -31.8501   26.5486 H   0  0  0  0  0  0
  -28.2563  -38.0140   24.7579 H   0  0  0  0  0  0
  -28.1135  -36.2673   24.6200 H   0  0  0  0  0  0
  -27.2313  -37.1344   25.8861 H   0  0  0  0  0  0
  -20.9356  -29.8825   21.6934 H   0  0  0  0  0  0
  -26.0169  -38.2858   24.1448 H   0  0  0  0  0  0
  -27.7452  -20.3905   21.2591 H   0  0  0  0  0  0
  -31.6003  -19.7164   22.6196 H   0  0  0  0  0  0
  -29.8908  -19.4446   22.9043 H   0  0  0  0  0  0
  -30.2539  -17.2098   22.9790 H   0  0  0  0  0  0
  -31.9285  -17.3765   22.4911 H   0  0  0  0  0  0
  -29.6109  -18.3275   19.1746 H   0  0  0  0  0  0
  -28.6562  -18.2631   20.6535 H   0  0  0  0  0  0
  -31.3220  -19.6730   20.2553 H   0  0  0  0  0  0
  -31.4639  -17.1609   20.2235 H   0  0  0  0  0  0
  -25.8471  -21.6683   21.4542 H   0  0  0  0  0  0
  -25.7210  -22.8837   20.1911 H   0  0  0  0  0  0
  -26.0438  -23.3614   21.8679 H   0  0  0  0  0  0
  -32.4444  -21.7248   20.9152 H   0  0  0  0  0  0
  -32.3378  -23.2066   19.9767 H   0  0  0  0  0  0
  -32.1486  -21.6509   19.1715 H   0  0  0  0  0  0
  -26.8448  -24.8947   20.4056 H   0  0  0  0  0  0
  -27.7088  -24.8562   18.8798 H   0  0  0  0  0  0
  -29.0188  -15.6281   21.0404 H   0  0  0  0  0  0
  1 25  1  0  0  0
  1 30  2  0  0  0
  1 85  1  0  0  0
  2  3  1  0  0  0
  2 25  1  0  0  0
  2 86  1  0  0  0
  2 87  1  0  0  0
  3  4  1  0  0  0
  3 88  1  0  0  0
  3 89  1  0  0  0
  4  5  1  0  0  0
  4 90  1  0  0  0
  4 91  1  0  0  0
  5  6  1  0  0  0
  5 26  1  0  0  0
  5 92  1  0  0  0
  6 25  1  0  0  0
  6 93  1  0  0  0
  6 94  1  0  0  0
  7  8  2  0  0  0
  7 26  1  0  0  0
  7 29  1  0  0  0
  8  9  1  0  0  0
  8 22  1  0  0  0
  9 10  1  0  0  0
  9 27  2  0  0  0
 10 11  2  0  0  0
 10 15  1  0  0  0
 11 12  1  0  0  0
 11 95  1  0  0  0
 12 13  2  0  0  0
 12 96  1  0  0  0
 13 14  1  0  0  0
 13 31  1  0  0  0
 14 15  2  0  0  0
 14 97  1  0  0  0
 15 98  1  0  0  0
 16 17  2  0  0  0
 16 21  1  0  0  0
 16 31  1  0  0  0
 17 18  1  0  0  0
 17 99  1  0  0  0
 18 19  2  0  0  0
 18100  1  0  0  0
 19 20  1  0  0  0
 19 24  1  0  0  0
 20 21  2  0  0  0
 20101  1  0  0  0
 21 23  1  0  0  0
 22 28  1  0  0  0
 22 32  2  0  0  0
 26 27  1  0  0  0
 28102  1  0  0  0
 28103  1  0  0  0
 29104  1  0  0  0
 29105  1  0  0  0
 33 34  1  0  0  0
 33 66  1  0  0  0
 33 70  2  0  0  0
 34 36  1  0  0  0
 34 59  1  0  0  0
 34106  1  0  0  0
 35 44  2  0  0  0
 35 45  1  0  0  0
 35 68  1  0  0  0
 36 56  1  0  0  0
 36107  1  0  0  0
 37 39  1  0  0  0
 37 47  1  0  0  0
 37 66  1  0  0  0
 37108  1  0  0  0
 38 43  2  0  0  0
 38 46  1  0  0  0
 38 47  1  0  0  0
 39 64  1  0  0  0
 39 67  2  0  0  0
 40 52  1  0  0  0
 40 53  2  0  0  0
 40 58  1  0  0  0
 41109  1  0  0  0
 41110  1  0  0  0
 41111  1  0  0  0
 41 48  1  0  0  0
 42 43  1  0  0  0
 42 66  1  0  0  0
 42112  1  0  0  0
 42113  1  0  0  0
 43 44  1  0  0  0
 44114  1  0  0  0
 45 46  2  0  0  0
 45115  1  0  0  0
 46116  1  0  0  0
 47117  1  0  0  0
 47118  1  0  0  0
 48 56  1  0  0  0
 48 65  1  0  0  0
 48119  1  0  0  0
 49 50  1  0  0  0
 49 53  1  0  0  0
 49 64  1  0  0  0
 49120  1  0  0  0
 50 51  1  0  0  0
 50121  1  0  0  0
 50122  1  0  0  0
 51 52  1  0  0  0
 51123  1  0  0  0
 51124  1  0  0  0
 52125  1  0  0  0
 52126  1  0  0  0
 53 54  1  0  0  0
 54 55  2  0  0  0
 54127  1  0  0  0
 55 57  1  0  0  0
 55128  1  0  0  0
 56 69  2  0  0  0
 57 58  2  0  0  0
 57129  1  0  0  0
 58130  1  0  0  0
 59 60  1  0  0  0
 59 61  1  0  0  0
 59 62  1  0  0  0
 60131  1  0  0  0
 60132  1  0  0  0
 60133  1  0  0  0
 61134  1  0  0  0
 61135  1  0  0  0
 61136  1  0  0  0
 62137  1  0  0  0
 62138  1  0  0  0
 62139  1  0  0  0
 63 65  1  0  0  0
 63140  1  0  0  0
 63141  1  0  0  0
 63142  1  0  0  0
 64143  1  0  0  0
 65144  1  0  0  0
 68 83  1  0  0  0
 71 72  2  0  0  0
 71 73  1  0  0  0
 71145  1  0  0  0
 72 74  1  0  0  0
 72 79  1  0  0  0
 73 75  2  0  0  0
 73 81  1  0  0  0
 74 82  1  0  0  0
 74 84  2  0  0  0
 75 83  1  0  0  0
 75 84  1  0  0  0
 76 77  1  0  0  0
 76 79  1  0  0  0
 76146  1  0  0  0
 76147  1  0  0  0
 77 80  1  0  0  0
 77148  1  0  0  0
 77149  1  0  0  0
 78 79  1  0  0  0
 78 80  1  0  0  0
 78150  1  0  0  0
 78151  1  0  0  0
 79152  1  0  0  0
 80 85  1  0  0  0
 80153  1  0  0  0
 81154  1  0  0  0
 81155  1  0  0  0
 81156  1  0  0  0
 82157  1  0  0  0
 82158  1  0  0  0
 82159  1  0  0  0
 83160  1  0  0  0
 83161  1  0  0  0
 85162  1  0  0  0
M  ISO  4   1 100  68 101  83 101  85 100
M  END
> <chiral flag>
0

> <version>
0

> <s_m_source_file>
/data/baiqing/PycharmProjects/Reinvent-master-3.2/result/LINK_invent/BTK/process_docking_weight1_custom_sum_contain_oxygen_bond_distance_aromatic_linkinvent_7_9_3/rearranged_h_0182.sdf

> <i_m_source_file_index>
66

> <r_mmod_Potential_Energy-OPLS-2005>
32.7227668762207

> <r_mmod_Stretch_Energy-OPLS-2005>
78.2265548706055

> <r_mmod_Bend_Energy-OPLS-2005>
182.01237487793

> <r_mmod_Torsional_Energy-OPLS-2005>
247.426010131836

> <r_mmod_Improper_Torsional_Energy-OPLS-2005>
6.11130094528198

> <r_mmod_Van_der_Waal_Energy-OPLS-2005>
166.99723815918

> <r_mmod_Electrostatic_Energy-OPLS-2005>
-479.763916015625

> <r_mmod_Solvation_Energy-OPLS-2005>
-226.454467773438

> <b_mmod_Minimization_Converged-OPLS-2005>
0

> <r_mmod_RMS_Derivative-OPLS-2005>
1.01964843273163

$$$$
66
                    3D
 Structure written by MMmdl.
163172  0  0  1  0            999 V2000
  -30.6666  -14.6012   20.4003 C   0  0  0  0  0  0
  -30.4283  -12.3479   19.4493 C   0  0  0  0  0  0
  -29.5058  -12.4774   18.2188 C   0  0  0  0  0  0
  -28.0244  -12.3438   18.6270 C   0  0  0  0  0  0
  -27.6518  -13.2227   19.8502 C   0  0  2  0  0  0
  -28.7034  -13.1082   20.9778 C   0  0  0  0  0  0
  -25.2564  -13.8180   20.5666 C   0  0  0  0  0  0
  -24.1842  -13.0437   20.9191 C   0  0  0  0  0  0
  -24.6413  -11.6919   20.8738 C   0  0  0  0  0  0
  -23.9081  -10.4306   21.0399 C   0  0  0  0  0  0
  -24.3623   -9.4211   21.9177 C   0  0  0  0  0  0
  -23.6318   -8.2242   22.0744 C   0  0  0  0  0  0
  -22.4298   -8.0276   21.3538 C   0  0  0  0  0  0
  -21.9923   -9.0252   20.4641 C   0  0  0  0  0  0
  -22.7248  -10.2135   20.3051 C   0  0  0  0  0  0
  -21.6848   -6.0730   22.5289 C   0  0  0  0  0  0
  -21.4002   -6.5637   23.8210 C   0  0  0  0  0  0
  -21.3664   -5.6783   24.9179 C   0  0  0  0  0  0
  -21.6065   -4.3049   24.7219 C   0  0  0  0  0  0
  -21.8826   -3.8130   23.4337 C   0  0  0  0  0  0
  -21.9195   -4.6967   22.3389 C   0  0  0  0  0  0
  -22.7861  -13.5244   21.1826 C   0  0  0  0  0  0
  -22.1665   -4.2149   21.0981 F   0  0  0  0  0  0
  -21.5646   -3.4531   25.7734 F   0  0  0  0  0  0
  -30.0213  -13.3968   20.3976 N   0  0  0  0  0  0
  -26.3001  -12.9380   20.3287 N   0  0  0  0  0  0
  -25.9354  -11.6522   20.5747 N   0  0  0  0  0  0
  -22.0467  -12.8249   22.0376 N   0  0  0  0  0  0
  -25.4261  -15.1909   20.4107 N   0  0  0  0  0  0
  -31.8530  -14.7030   20.0882 O   0  0  0  0  0  0
  -21.6644   -6.8887   21.4244 O   0  0  0  0  0  0
  -22.3556  -14.5542   20.6674 O   0  0  0  0  0  0
  -24.6254  -31.8636   23.2067 C   0  0  0  0  0  0
  -25.9130  -32.4784   23.8392 C   0  0  1  0  0  0
  -27.2097  -27.3406   20.0893 C   0  0  0  0  0  0
  -25.5994  -33.8576   24.2356 N   0  0  0  0  0  0
  -23.4173  -30.4885   21.5491 C   0  0  2  0  0  0
  -24.8574  -28.9466   20.1094 C   0  0  0  0  0  0
  -22.7483  -29.4642   22.4953 C   0  0  0  0  0  0
  -18.0293  -28.1376   22.8471 C   0  0  0  0  0  0
  -24.1510  -36.7279   23.2643 C   0  0  0  0  0  0
  -25.9591  -30.7899   21.3803 C   0  0  0  0  0  0
  -26.0248  -29.4193   20.7204 C   0  0  0  0  0  0
  -27.2049  -28.6251   20.7070 C   0  0  0  0  0  0
  -26.0261  -26.9225   19.4417 C   0  0  0  0  0  0
  -24.8574  -27.7017   19.4629 C   0  0  0  0  0  0
  -23.6300  -29.8282   20.1620 C   0  0  0  0  0  0
  -25.4126  -36.3082   24.0358 C   0  0  1  0  0  0
  -20.5893  -28.3682   23.1285 C   0  0  2  0  0  0
  -20.6777  -26.9419   22.5382 C   0  0  0  0  0  0
  -19.5772  -26.6384   21.5174 C   0  0  0  0  0  0
  -18.1950  -26.7928   22.1590 C   0  0  0  0  0  0
  -19.1541  -28.8847   23.2877 C   0  0  0  0  0  0
  -18.9443  -30.1433   23.8903 C   0  0  0  0  0  0
  -17.6446  -30.6572   24.0536 C   0  0  0  0  0  0
  -25.9051  -34.9443   23.5148 C   0  0  0  0  0  0
  -16.5345  -29.9052   23.6322 C   0  0  0  0  0  0
  -16.7276  -28.6471   23.0355 C   0  0  0  0  0  0
  -26.4518  -31.6579   25.0749 C   0  0  0  0  0  0
  -25.3783  -31.3690   26.1510 C   0  0  0  0  0  0
  -27.0304  -30.3004   24.6149 C   0  0  0  0  0  0
  -27.6134  -32.4267   25.7498 C   0  0  0  0  0  0
  -27.5586  -37.1817   24.8483 C   0  0  0  0  0  0
  -21.4196  -29.3048   22.3703 N   0  0  0  0  0  0
  -26.4309  -37.3761   23.9406 N   0  0  0  0  0  0
  -24.6856  -31.0656   22.1005 N   0  0  0  0  0  0
  -23.4230  -28.8163   23.2998 O   0  0  0  0  0  0
  -28.3392  -26.5222   20.0920 O   0  0  0  0  0  0
  -26.5567  -34.8905   22.4678 O   0  0  0  0  0  0
  -23.5430  -32.1434   23.7409 O   0  0  0  0  0  0
  -29.0450  -22.7770   19.0599 C   0  0  0  0  0  0
  -28.7484  -22.9491   21.5230 C   0  0  0  0  0  0
  -28.9072  -24.3397   18.9294 C   0  0  0  0  0  0
  -28.6725  -24.4981   21.4663 C   0  0  0  0  0  0
  -31.3345  -17.8134   20.3009 C   0  0  0  0  0  0
  -29.9402  -18.3673   20.5395 C   0  0  2  0  0  0
  -30.1573  -17.0068   19.8114 C   0  0  2  0  0  0
  -29.6848  -22.3853   20.4160 C   0  0  1  0  0  0
  -28.1807  -25.0555   20.1130 C   0  0  1  0  0  0
  -30.5581  -20.7047   22.0403 C   0  0  0  0  0  0
  -29.5820  -19.7725   19.9202 C   0  0  0  0  0  0
  -29.8775  -15.7097   20.4459 N   0  0  0  0  0  0
  -30.2085  -20.9651   20.6184 N   0  3  1  0  0  0
  -31.4724  -12.4407   19.1460 H   0  0  0  0  0  0
  -30.3332  -11.3639   19.9114 H   0  0  0  0  0  0
  -29.7637  -11.7211   17.4776 H   0  0  0  0  0  0
  -29.6636  -13.4437   17.7363 H   0  0  0  0  0  0
  -27.8356  -11.2945   18.8512 H   0  0  0  0  0  0
  -27.3783  -12.5930   17.7837 H   0  0  0  0  0  0
  -27.6608  -14.2509   19.4878 H   0  0  0  0  0  0
  -28.7002  -12.1055   21.4107 H   0  0  0  0  0  0
  -28.4684  -13.7934   21.7925 H   0  0  0  0  0  0
  -25.2759   -9.5711   22.4754 H   0  0  0  0  0  0
  -24.0032   -7.4625   22.7458 H   0  0  0  0  0  0
  -21.0846   -8.8776   19.8952 H   0  0  0  0  0  0
  -22.3693  -10.9671   19.6163 H   0  0  0  0  0  0
  -21.1974   -7.6147   23.9716 H   0  0  0  0  0  0
  -21.1488   -6.0513   25.9093 H   0  0  0  0  0  0
  -22.0599   -2.7602   23.2820 H   0  0  0  0  0  0
  -22.4019  -11.9924   22.4817 H   0  0  0  0  0  0
  -21.1091  -13.1326   22.2530 H   0  0  0  0  0  0
  -24.6619  -15.8467   20.5396 H   0  0  0  0  0  0
  -26.2781  -15.6360   20.0945 H   0  0  0  0  0  0
  -26.7193  -32.5418   23.1123 H   0  0  0  0  0  0
  -25.0289  -33.9716   25.0613 H   0  0  0  0  0  0
  -22.7082  -31.3057   21.4077 H   0  0  0  0  0  0
  -23.3731  -35.9654   23.3379 H   0  0  0  0  0  0
  -24.3601  -36.8779   22.2041 H   0  0  0  0  0  0
  -23.7312  -37.6547   23.6558 H   0  0  0  0  0  0
  -26.1051  -31.5497   20.6111 H   0  0  0  0  0  0
  -26.8374  -30.8304   22.0122 H   0  0  0  0  0  0
  -28.1040  -28.9816   21.1888 H   0  0  0  0  0  0
  -25.9888  -25.9931   18.8903 H   0  0  0  0  0  0
  -23.9707  -27.3400   18.9618 H   0  0  0  0  0  0
  -23.7560  -30.6043   19.4057 H   0  0  0  0  0  0
  -22.7492  -29.2573   19.8586 H   0  0  0  0  0  0
  -25.1300  -36.1957   25.0848 H   0  0  0  0  0  0
  -20.9987  -28.3231   24.1403 H   0  0  0  0  0  0
  -20.5642  -26.2308   23.3576 H   0  0  0  0  0  0
  -21.6655  -26.7416   22.1210 H   0  0  0  0  0  0
  -19.6941  -25.6276   21.1245 H   0  0  0  0  0  0
  -19.6743  -27.3138   20.6661 H   0  0  0  0  0  0
  -17.4234  -26.6656   21.3973 H   0  0  0  0  0  0
  -18.0362  -26.0048   22.8966 H   0  0  0  0  0  0
  -19.7905  -30.7222   24.2332 H   0  0  0  0  0  0
  -17.4990  -31.6252   24.5114 H   0  0  0  0  0  0
  -15.5344  -30.2939   23.7642 H   0  0  0  0  0  0
  -15.8674  -28.0756   22.7118 H   0  0  0  0  0  0
  -24.6019  -30.6943   25.7887 H   0  0  0  0  0  0
  -24.8868  -32.2805   26.4914 H   0  0  0  0  0  0
  -25.8174  -30.8948   27.0302 H   0  0  0  0  0  0
  -26.2802  -29.6806   24.1220 H   0  0  0  0  0  0
  -27.4064  -29.7226   25.4607 H   0  0  0  0  0  0
  -27.8688  -30.4288   23.9302 H   0  0  0  0  0  0
  -27.2823  -33.3592   26.2073 H   0  0  0  0  0  0
  -28.3947  -32.6774   25.0310 H   0  0  0  0  0  0
  -28.0799  -31.8375   26.5404 H   0  0  0  0  0  0
  -28.2665  -38.0050   24.7416 H   0  0  0  0  0  0
  -28.1024  -36.2578   24.6430 H   0  0  0  0  0  0
  -27.2307  -37.1613   25.8892 H   0  0  0  0  0  0
  -20.9400  -29.8849   21.6958 H   0  0  0  0  0  0
  -26.0220  -38.2877   24.1249 H   0  0  0  0  0  0
  -29.6341  -22.3905   18.2285 H   0  0  0  0  0  0
  -28.0584  -22.3171   18.9728 H   0  0  0  0  0  0
  -27.7522  -22.5184   21.4150 H   0  0  0  0  0  0
  -29.0766  -22.6984   22.5297 H   0  0  0  0  0  0
  -28.3868  -24.5791   17.9980 H   0  0  0  0  0  0
  -29.9074  -24.7616   18.8215 H   0  0  0  0  0  0
  -29.6568  -24.9073   21.6931 H   0  0  0  0  0  0
  -28.0079  -24.8465   22.2565 H   0  0  0  0  0  0
  -31.8870  -17.4426   21.1624 H   0  0  0  0  0  0
  -31.9603  -18.2795   19.5396 H   0  0  0  0  0  0
  -29.5407  -18.2476   21.5459 H   0  0  0  0  0  0
  -29.9867  -17.0279   18.7342 H   0  0  0  0  0  0
  -30.6065  -22.9700   20.4750 H   0  0  0  0  0  0
  -27.1394  -24.7434   20.0675 H   0  0  0  0  0  0
  -31.0185  -21.5752   22.5117 H   0  0  0  0  0  0
  -31.2846  -19.8994   22.1380 H   0  0  0  0  0  0
  -29.6614  -20.4367   22.6050 H   0  0  0  0  0  0
  -28.4958  -19.8843   19.9227 H   0  0  0  0  0  0
  -29.8899  -19.7894   18.8716 H   0  0  0  0  0  0
  -28.9098  -15.5293   20.6632 H   0  0  0  0  0  0
  -31.1154  -21.0116   20.1734 H   0  0  0  0  0  0
  1 25  1  0  0  0
  1 30  2  0  0  0
  1 82  1  0  0  0
  2  3  1  0  0  0
  2 25  1  0  0  0
  2 84  1  0  0  0
  2 85  1  0  0  0
  3  4  1  0  0  0
  3 86  1  0  0  0
  3 87  1  0  0  0
  4  5  1  0  0  0
  4 88  1  0  0  0
  4 89  1  0  0  0
  5  6  1  0  0  0
  5 26  1  0  0  0
  5 90  1  0  0  0
  6 25  1  0  0  0
  6 91  1  0  0  0
  6 92  1  0  0  0
  7  8  2  0  0  0
  7 26  1  0  0  0
  7 29  1  0  0  0
  8  9  1  0  0  0
  8 22  1  0  0  0
  9 10  1  0  0  0
  9 27  2  0  0  0
 10 11  2  0  0  0
 10 15  1  0  0  0
 11 12  1  0  0  0
 11 93  1  0  0  0
 12 13  2  0  0  0
 12 94  1  0  0  0
 13 14  1  0  0  0
 13 31  1  0  0  0
 14 15  2  0  0  0
 14 95  1  0  0  0
 15 96  1  0  0  0
 16 17  2  0  0  0
 16 21  1  0  0  0
 16 31  1  0  0  0
 17 18  1  0  0  0
 17 97  1  0  0  0
 18 19  2  0  0  0
 18 98  1  0  0  0
 19 20  1  0  0  0
 19 24  1  0  0  0
 20 21  2  0  0  0
 20 99  1  0  0  0
 21 23  1  0  0  0
 22 28  1  0  0  0
 22 32  2  0  0  0
 26 27  1  0  0  0
 28100  1  0  0  0
 28101  1  0  0  0
 29102  1  0  0  0
 29103  1  0  0  0
 33 34  1  0  0  0
 33 66  1  0  0  0
 33 70  2  0  0  0
 34 36  1  0  0  0
 34 59  1  0  0  0
 34104  1  0  0  0
 35 44  2  0  0  0
 35 45  1  0  0  0
 35 68  1  0  0  0
 36 56  1  0  0  0
 36105  1  0  0  0
 37 39  1  0  0  0
 37 47  1  0  0  0
 37 66  1  0  0  0
 37106  1  0  0  0
 38 43  2  0  0  0
 38 46  1  0  0  0
 38 47  1  0  0  0
 39 64  1  0  0  0
 39 67  2  0  0  0
 40 52  1  0  0  0
 40 53  2  0  0  0
 40 58  1  0  0  0
 41107  1  0  0  0
 41108  1  0  0  0
 41109  1  0  0  0
 41 48  1  0  0  0
 42 43  1  0  0  0
 42 66  1  0  0  0
 42110  1  0  0  0
 42111  1  0  0  0
 43 44  1  0  0  0
 44112  1  0  0  0
 45 46  2  0  0  0
 45113  1  0  0  0
 46114  1  0  0  0
 47115  1  0  0  0
 47116  1  0  0  0
 48 56  1  0  0  0
 48 65  1  0  0  0
 48117  1  0  0  0
 49 50  1  0  0  0
 49 53  1  0  0  0
 49 64  1  0  0  0
 49118  1  0  0  0
 50 51  1  0  0  0
 50119  1  0  0  0
 50120  1  0  0  0
 51 52  1  0  0  0
 51121  1  0  0  0
 51122  1  0  0  0
 52123  1  0  0  0
 52124  1  0  0  0
 53 54  1  0  0  0
 54 55  2  0  0  0
 54125  1  0  0  0
 55 57  1  0  0  0
 55126  1  0  0  0
 56 69  2  0  0  0
 57 58  2  0  0  0
 57127  1  0  0  0
 58128  1  0  0  0
 59 60  1  0  0  0
 59 61  1  0  0  0
 59 62  1  0  0  0
 60129  1  0  0  0
 60130  1  0  0  0
 60131  1  0  0  0
 61132  1  0  0  0
 61133  1  0  0  0
 61134  1  0  0  0
 62135  1  0  0  0
 62136  1  0  0  0
 62137  1  0  0  0
 63 65  1  0  0  0
 63138  1  0  0  0
 63139  1  0  0  0
 63140  1  0  0  0
 64141  1  0  0  0
 65142  1  0  0  0
 68 79  1  0  0  0
 71 73  1  0  0  0
 71143  1  0  0  0
 71144  1  0  0  0
 71 78  1  0  0  0
 72 74  1  0  0  0
 72 78  1  0  0  0
 72145  1  0  0  0
 72146  1  0  0  0
 73 79  1  0  0  0
 73147  1  0  0  0
 73148  1  0  0  0
 74 79  1  0  0  0
 74149  1  0  0  0
 74150  1  0  0  0
 75 76  1  0  0  0
 75 77  1  0  0  0
 75151  1  0  0  0
 75152  1  0  0  0
 76 77  1  0  0  0
 76 81  1  0  0  0
 76153  1  0  0  0
 77 82  1  0  0  0
 77154  1  0  0  0
 78 83  1  0  0  0
 78155  1  0  0  0
 79156  1  0  0  0
 80157  1  0  0  0
 80158  1  0  0  0
 80159  1  0  0  0
 80 83  1  0  0  0
 81 83  1  0  0  0
 81160  1  0  0  0
 81161  1  0  0  0
 82162  1  0  0  0
 83163  1  0  0  0
M  CHG  1  83   1
M  ISO  4   1 100  68 101  79 101  82 100
M  END
> <chiral flag>
0

> <version>
0

> <s_m_source_file>
/data/baiqing/PycharmProjects/Reinvent-master-3.2/result/LINK_invent/BTK/process_docking_weight1_custom_sum_contain_oxygen_bond_distance_aromatic_linkinvent_7_9_3/rearranged_h_0182.sdf

> <i_m_source_file_index>
67

> <r_mmod_Potential_Energy-OPLS-2005>
67.5873413085938

> <r_mmod_Stretch_Energy-OPLS-2005>
67.0007476806641

> <r_mmod_Bend_Energy-OPLS-2005>
144.695068359375

> <r_mmod_Torsional_Energy-OPLS-2005>
343.441284179688

> <r_mmod_Improper_Torsional_Energy-OPLS-2005>
9.00810718536377

> <r_mmod_Van_der_Waal_Energy-OPLS-2005>
139.534240722656

> <r_mmod_Electrostatic_Energy-OPLS-2005>
-232.978820800781

> <r_mmod_Solvation_Energy-OPLS-2005>
-446.558288574219

> <b_mmod_Minimization_Converged-OPLS-2005>
0

> <r_mmod_RMS_Derivative-OPLS-2005>
4.88283967971802

$$$$
67
                    3D
 Structure written by MMmdl.
160169  0  0  1  0            999 V2000
  -30.6738  -14.7120   20.3794 C   0  0  0  0  0  0
  -30.4286  -12.4141   19.4615 C   0  0  0  0  0  0
  -29.5026  -12.3929   18.2273 C   0  0  0  0  0  0
  -28.0236  -12.2770   18.6523 C   0  0  0  0  0  0
  -27.6302  -13.2022   19.8363 C   0  0  2  0  0  0
  -28.6931  -13.2117   20.9556 C   0  0  0  0  0  0
  -25.2524  -13.8093   20.5809 C   0  0  0  0  0  0
  -24.1779  -13.0378   20.9253 C   0  0  0  0  0  0
  -24.6345  -11.6854   20.8792 C   0  0  0  0  0  0
  -23.9025  -10.4256   21.0431 C   0  0  0  0  0  0
  -24.3592   -9.4174   21.9200 C   0  0  0  0  0  0
  -23.6274   -8.2210   22.0754 C   0  0  0  0  0  0
  -22.4259   -8.0260   21.3535 C   0  0  0  0  0  0
  -21.9890   -9.0233   20.4641 C   0  0  0  0  0  0
  -22.7211  -10.2111   20.3065 C   0  0  0  0  0  0
  -21.6837   -6.0736   22.5282 C   0  0  0  0  0  0
  -21.4003   -6.5644   23.8215 C   0  0  0  0  0  0
  -21.3650   -5.6797   24.9176 C   0  0  0  0  0  0
  -21.6042   -4.3060   24.7229 C   0  0  0  0  0  0
  -21.8820   -3.8153   23.4349 C   0  0  0  0  0  0
  -21.9186   -4.6968   22.3406 C   0  0  0  0  0  0
  -22.7815  -13.5203   21.1893 C   0  0  0  0  0  0
  -22.1657   -4.2154   21.0984 F   0  0  0  0  0  0
  -21.5623   -3.4544   25.7742 F   0  0  0  0  0  0
  -29.9852  -13.5215   20.3315 N   0  0  0  0  0  0
  -26.2902  -12.9239   20.3343 N   0  0  0  0  0  0
  -25.9265  -11.6418   20.5830 N   0  0  0  0  0  0
  -22.0447  -12.8203   22.0443 N   0  0  0  0  0  0
  -25.4262  -15.1817   20.4363 N   0  0  0  0  0  0
  -31.9039  -14.7046   20.3010 O   0  0  0  0  0  0
  -21.6615   -6.8869   21.4240 O   0  0  0  0  0  0
  -22.3529  -14.5519   20.6734 O   0  0  0  0  0  0
  -24.6248  -31.8609   23.2043 C   0  0  0  0  0  0
  -25.9105  -32.4785   23.8365 C   0  0  1  0  0  0
  -27.2193  -27.3259   20.1266 C   0  0  0  0  0  0
  -25.5925  -33.8584   24.2292 N   0  0  0  0  0  0
  -23.4182  -30.4855   21.5460 C   0  0  2  0  0  0
  -24.8662  -28.9447   20.1106 C   0  0  0  0  0  0
  -22.7470  -29.4629   22.4935 C   0  0  0  0  0  0
  -18.0287  -28.1387   22.8489 C   0  0  0  0  0  0
  -24.1489  -36.7294   23.2639 C   0  0  0  0  0  0
  -25.9589  -30.7951   21.3758 C   0  0  0  0  0  0
  -26.0340  -29.4232   20.7188 C   0  0  0  0  0  0
  -27.2162  -28.6250   20.7181 C   0  0  0  0  0  0
  -26.0371  -26.9104   19.4738 C   0  0  0  0  0  0
  -24.8691  -27.6936   19.4771 C   0  0  0  0  0  0
  -23.6332  -29.8223   20.1605 C   0  0  0  0  0  0
  -25.4113  -36.3086   24.0332 C   0  0  1  0  0  0
  -20.5889  -28.3688   23.1285 C   0  0  2  0  0  0
  -20.6776  -26.9412   22.5410 C   0  0  0  0  0  0
  -19.5751  -26.6387   21.5212 C   0  0  0  0  0  0
  -18.1932  -26.7930   22.1625 C   0  0  0  0  0  0
  -19.1542  -28.8853   23.2883 C   0  0  0  0  0  0
  -18.9464  -30.1457   23.8896 C   0  0  0  0  0  0
  -17.6464  -30.6588   24.0566 C   0  0  0  0  0  0
  -25.9047  -34.9454   23.5111 C   0  0  0  0  0  0
  -16.5354  -29.9088   23.6332 C   0  0  0  0  0  0
  -16.7275  -28.6506   23.0353 C   0  0  0  0  0  0
  -26.4494  -31.6591   25.0730 C   0  0  0  0  0  0
  -25.3727  -31.3736   26.1459 C   0  0  0  0  0  0
  -27.0336  -30.3014   24.6183 C   0  0  0  0  0  0
  -27.6055  -32.4324   25.7500 C   0  0  0  0  0  0
  -27.5578  -37.1802   24.8464 C   0  0  0  0  0  0
  -21.4185  -29.3042   22.3680 N   0  0  0  0  0  0
  -26.4291  -37.3778   23.9408 N   0  0  0  0  0  0
  -24.6858  -31.0634   22.0991 N   0  0  0  0  0  0
  -23.4198  -28.8166   23.3012 O   0  0  0  0  0  0
  -28.3202  -26.4586   20.1733 O   0  0  0  0  0  0
  -26.5610  -34.8919   22.4673 O   0  0  0  0  0  0
  -23.5415  -32.1404   23.7380 O   0  0  0  0  0  0
  -28.9212  -19.0486   21.4473 C   0  0  0  0  0  0
  -30.0861  -18.6684   20.7460 C   0  0  0  0  0  0
  -30.7340  -19.7771   20.1234 C   0  0  0  0  0  0
  -29.1353  -21.2776   20.8513 C   0  0  0  0  0  0
  -27.9044  -16.7943   18.9933 C   0  0  0  0  0  0
  -29.0389  -17.3042   18.1456 C   0  0  0  0  0  0
  -29.2291  -16.0556   18.9930 C   0  0  0  0  0  0
  -32.0231  -19.6161   19.3401 C   0  0  0  0  0  0
  -30.6818  -17.1912   20.7508 C   0  0  0  0  0  0
  -29.0598  -23.8846   20.3819 C   0  0  0  0  0  0
  -28.0408  -25.0794   20.6383 C   0  0  0  0  0  0
  -28.4584  -20.3299   21.4876 N   0  0  0  0  0  0
  -30.2525  -21.0535   20.1744 N   0  0  0  0  0  0
  -28.6021  -22.5760   20.9396 N   0  0  0  0  0  0
  -29.9956  -15.9282   20.2304 N   0  0  0  0  0  0
  -31.4677  -12.5233   19.1457 H   0  0  0  0  0  0
  -30.3756  -11.4674   20.0018 H   0  0  0  0  0  0
  -29.7607  -11.5417   17.5956 H   0  0  0  0  0  0
  -29.6650  -13.2660   17.5993 H   0  0  0  0  0  0
  -27.8630  -11.2374   18.9395 H   0  0  0  0  0  0
  -27.3685  -12.4565   17.7992 H   0  0  0  0  0  0
  -27.5748  -14.1948   19.4145 H   0  0  0  0  0  0
  -28.7334  -12.2503   21.4699 H   0  0  0  0  0  0
  -28.4457  -13.9621   21.7085 H   0  0  0  0  0  0
  -25.2731   -9.5650   22.4781 H   0  0  0  0  0  0
  -23.9983   -7.4596   22.7468 H   0  0  0  0  0  0
  -21.0821   -8.8750   19.8951 H   0  0  0  0  0  0
  -22.3673  -10.9656   19.6181 H   0  0  0  0  0  0
  -21.2000   -7.6151   23.9718 H   0  0  0  0  0  0
  -21.1463   -6.0526   25.9078 H   0  0  0  0  0  0
  -22.0611   -2.7619   23.2849 H   0  0  0  0  0  0
  -22.4048  -11.9853   22.4823 H   0  0  0  0  0  0
  -21.1070  -13.1239   22.2657 H   0  0  0  0  0  0
  -24.6733  -15.8447   20.5818 H   0  0  0  0  0  0
  -26.2986  -15.6204   20.1736 H   0  0  0  0  0  0
  -26.7174  -32.5466   23.1118 H   0  0  0  0  0  0
  -25.0080  -33.9728   25.0443 H   0  0  0  0  0  0
  -22.7116  -31.3061   21.4044 H   0  0  0  0  0  0
  -23.3749  -35.9627   23.3304 H   0  0  0  0  0  0
  -24.3583  -36.8910   22.2052 H   0  0  0  0  0  0
  -23.7242  -37.6499   23.6656 H   0  0  0  0  0  0
  -26.0894  -31.5596   20.6086 H   0  0  0  0  0  0
  -26.8394  -30.8435   22.0050 H   0  0  0  0  0  0
  -28.1104  -28.9837   21.2086 H   0  0  0  0  0  0
  -25.9960  -25.9639   18.9559 H   0  0  0  0  0  0
  -23.9782  -27.3269   18.9862 H   0  0  0  0  0  0
  -23.7508  -30.5990   19.4040 H   0  0  0  0  0  0
  -22.7542  -29.2495   19.8591 H   0  0  0  0  0  0
  -25.1294  -36.1937   25.0824 H   0  0  0  0  0  0
  -20.9982  -28.3259   24.1405 H   0  0  0  0  0  0
  -20.5679  -26.2296   23.3608 H   0  0  0  0  0  0
  -21.6645  -26.7445   22.1202 H   0  0  0  0  0  0
  -19.6911  -25.6298   21.1241 H   0  0  0  0  0  0
  -19.6688  -27.3197   20.6741 H   0  0  0  0  0  0
  -17.4202  -26.6683   21.4026 H   0  0  0  0  0  0
  -18.0333  -26.0071   22.9022 H   0  0  0  0  0  0
  -19.7941  -30.7279   24.2255 H   0  0  0  0  0  0
  -17.5020  -31.6265   24.5175 H   0  0  0  0  0  0
  -15.5356  -30.2990   23.7653 H   0  0  0  0  0  0
  -15.8678  -28.0825   22.7063 H   0  0  0  0  0  0
  -24.5891  -30.7099   25.7789 H   0  0  0  0  0  0
  -24.8933  -32.2909   26.4885 H   0  0  0  0  0  0
  -25.8049  -30.8909   27.0233 H   0  0  0  0  0  0
  -26.2911  -29.6766   24.1204 H   0  0  0  0  0  0
  -27.4032  -29.7272   25.4689 H   0  0  0  0  0  0
  -27.8784  -30.4303   23.9411 H   0  0  0  0  0  0
  -27.2667  -33.3630   26.2065 H   0  0  0  0  0  0
  -28.3869  -32.6870   25.0328 H   0  0  0  0  0  0
  -28.0713  -31.8453   26.5425 H   0  0  0  0  0  0
  -28.2598  -38.0098   24.7509 H   0  0  0  0  0  0
  -28.1074  -36.2628   24.6292 H   0  0  0  0  0  0
  -27.2299  -37.1456   25.8870 H   0  0  0  0  0  0
  -20.9356  -29.8769   21.6900 H   0  0  0  0  0  0
  -26.0173  -38.2855   24.1406 H   0  0  0  0  0  0
  -28.3487  -18.3155   21.9960 H   0  0  0  0  0  0
  -27.0696  -16.3454   18.4593 H   0  0  0  0  0  0
  -27.6263  -17.3705   19.8697 H   0  0  0  0  0  0
  -29.4800  -18.2542   18.4023 H   0  0  0  0  0  0
  -28.9481  -17.1522   17.0716 H   0  0  0  0  0  0
  -29.2683  -15.1896   18.3437 H   0  0  0  0  0  0
  -31.8917  -18.9020   18.5276 H   0  0  0  0  0  0
  -32.8229  -19.2591   19.9883 H   0  0  0  0  0  0
  -32.3474  -20.5604   18.9015 H   0  0  0  0  0  0
  -30.9204  -16.9934   21.7978 H   0  0  0  0  0  0
  -31.6544  -17.2300   20.2620 H   0  0  0  0  0  0
  -30.0289  -24.1265   20.8186 H   0  0  0  0  0  0
  -29.2233  -23.7631   19.3104 H   0  0  0  0  0  0
  -27.8873  -25.1571   21.7155 H   0  0  0  0  0  0
  -27.0880  -24.7249   20.2515 H   0  0  0  0  0  0
  -27.7561  -22.6233   21.4939 H   0  0  0  0  0  0
  1 25  1  0  0  0
  1 30  2  0  0  0
  1 85  1  0  0  0
  2  3  1  0  0  0
  2 25  1  0  0  0
  2 86  1  0  0  0
  2 87  1  0  0  0
  3  4  1  0  0  0
  3 88  1  0  0  0
  3 89  1  0  0  0
  4  5  1  0  0  0
  4 90  1  0  0  0
  4 91  1  0  0  0
  5  6  1  0  0  0
  5 26  1  0  0  0
  5 92  1  0  0  0
  6 25  1  0  0  0
  6 93  1  0  0  0
  6 94  1  0  0  0
  7  8  2  0  0  0
  7 26  1  0  0  0
  7 29  1  0  0  0
  8  9  1  0  0  0
  8 22  1  0  0  0
  9 10  1  0  0  0
  9 27  2  0  0  0
 10 11  2  0  0  0
 10 15  1  0  0  0
 11 12  1  0  0  0
 11 95  1  0  0  0
 12 13  2  0  0  0
 12 96  1  0  0  0
 13 14  1  0  0  0
 13 31  1  0  0  0
 14 15  2  0  0  0
 14 97  1  0  0  0
 15 98  1  0  0  0
 16 17  2  0  0  0
 16 21  1  0  0  0
 16 31  1  0  0  0
 17 18  1  0  0  0
 17 99  1  0  0  0
 18 19  2  0  0  0
 18100  1  0  0  0
 19 20  1  0  0  0
 19 24  1  0  0  0
 20 21  2  0  0  0
 20101  1  0  0  0
 21 23  1  0  0  0
 22 28  1  0  0  0
 22 32  2  0  0  0
 26 27  1  0  0  0
 28102  1  0  0  0
 28103  1  0  0  0
 29104  1  0  0  0
 29105  1  0  0  0
 33 34  1  0  0  0
 33 66  1  0  0  0
 33 70  2  0  0  0
 34 36  1  0  0  0
 34 59  1  0  0  0
 34106  1  0  0  0
 35 44  2  0  0  0
 35 45  1  0  0  0
 35 68  1  0  0  0
 36 56  1  0  0  0
 36107  1  0  0  0
 37 39  1  0  0  0
 37 47  1  0  0  0
 37 66  1  0  0  0
 37108  1  0  0  0
 38 43  2  0  0  0
 38 46  1  0  0  0
 38 47  1  0  0  0
 39 64  1  0  0  0
 39 67  2  0  0  0
 40 52  1  0  0  0
 40 53  2  0  0  0
 40 58  1  0  0  0
 41109  1  0  0  0
 41110  1  0  0  0
 41111  1  0  0  0
 41 48  1  0  0  0
 42 43  1  0  0  0
 42 66  1  0  0  0
 42112  1  0  0  0
 42113  1  0  0  0
 43 44  1  0  0  0
 44114  1  0  0  0
 45 46  2  0  0  0
 45115  1  0  0  0
 46116  1  0  0  0
 47117  1  0  0  0
 47118  1  0  0  0
 48 56  1  0  0  0
 48 65  1  0  0  0
 48119  1  0  0  0
 49 50  1  0  0  0
 49 53  1  0  0  0
 49 64  1  0  0  0
 49120  1  0  0  0
 50 51  1  0  0  0
 50121  1  0  0  0
 50122  1  0  0  0
 51 52  1  0  0  0
 51123  1  0  0  0
 51124  1  0  0  0
 52125  1  0  0  0
 52126  1  0  0  0
 53 54  1  0  0  0
 54 55  2  0  0  0
 54127  1  0  0  0
 55 57  1  0  0  0
 55128  1  0  0  0
 56 69  2  0  0  0
 57 58  2  0  0  0
 57129  1  0  0  0
 58130  1  0  0  0
 59 60  1  0  0  0
 59 61  1  0  0  0
 59 62  1  0  0  0
 60131  1  0  0  0
 60132  1  0  0  0
 60133  1  0  0  0
 61134  1  0  0  0
 61135  1  0  0  0
 61136  1  0  0  0
 62137  1  0  0  0
 62138  1  0  0  0
 62139  1  0  0  0
 63 65  1  0  0  0
 63140  1  0  0  0
 63141  1  0  0  0
 63142  1  0  0  0
 64143  1  0  0  0
 65144  1  0  0  0
 68 81  1  0  0  0
 71 72  2  0  0  0
 71 82  1  0  0  0
 71145  1  0  0  0
 72 73  1  0  0  0
 72 79  1  0  0  0
 73 78  1  0  0  0
 73 83  2  0  0  0
 74 82  2  0  0  0
 74 83  1  0  0  0
 74 84  1  0  0  0
 75 76  1  0  0  0
 75 77  1  0  0  0
 75146  1  0  0  0
 75147  1  0  0  0
 76 77  1  0  0  0
 76148  1  0  0  0
 76149  1  0  0  0
 77 85  1  0  0  0
 77150  1  0  0  0
 78151  1  0  0  0
 78152  1  0  0  0
 78153  1  0  0  0
 79 85  1  0  0  0
 79154  1  0  0  0
 79155  1  0  0  0
 80 81  1  0  0  0
 80 84  1  0  0  0
 80156  1  0  0  0
 80157  1  0  0  0
 81158  1  0  0  0
 81159  1  0  0  0
 84160  1  0  0  0
M  ISO  4   1 100  68 101  81 101  85 100
M  END
> <chiral flag>
0

> <version>
0

> <s_m_source_file>
/data/baiqing/PycharmProjects/Reinvent-master-3.2/result/LINK_invent/BTK/process_docking_weight1_custom_sum_contain_oxygen_bond_distance_aromatic_linkinvent_7_9_3/rearranged_h_0182.sdf

> <i_m_source_file_index>
68

> <r_mmod_Potential_Energy-OPLS-2005>
-114.074783325195

> <r_mmod_Stretch_Energy-OPLS-2005>
87.2412643432617

> <r_mmod_Bend_Energy-OPLS-2005>
182.553314208984

> <r_mmod_Torsional_Energy-OPLS-2005>
366.957611083984

> <r_mmod_Improper_Torsional_Energy-OPLS-2005>
9.2857027053833

> <r_mmod_Van_der_Waal_Energy-OPLS-2005>
164.274505615234

> <r_mmod_Electrostatic_Energy-OPLS-2005>
-775.449890136719

> <r_mmod_Solvation_Energy-OPLS-2005>
-229.565887451172

> <b_mmod_Minimization_Converged-OPLS-2005>
0

> <r_mmod_RMS_Derivative-OPLS-2005>
0.805543601512909

$$$$
68
                    3D
 Structure written by MMmdl.
159167  0  0  1  0            999 V2000
  -30.4152  -15.2958   20.4072 C   0  0  0  0  0  0
  -30.4563  -12.8519   19.4857 C   0  0  0  0  0  0
  -29.5311  -12.6020   18.2647 C   0  0  0  0  0  0
  -28.0841  -12.2964   18.7010 C   0  0  0  0  0  0
  -27.6198  -13.2466   19.8302 C   0  0  2  0  0  0
  -28.6826  -13.3503   20.9539 C   0  0  0  0  0  0
  -25.2345  -13.8165   20.5675 C   0  0  0  0  0  0
  -24.1732  -13.0391   20.9314 C   0  0  0  0  0  0
  -24.6376  -11.6893   20.8814 C   0  0  0  0  0  0
  -23.9071  -10.4272   21.0429 C   0  0  0  0  0  0
  -24.3626   -9.4192   21.9196 C   0  0  0  0  0  0
  -23.6312   -8.2219   22.0742 C   0  0  0  0  0  0
  -22.4289   -8.0273   21.3539 C   0  0  0  0  0  0
  -21.9929   -9.0239   20.4629 C   0  0  0  0  0  0
  -22.7250  -10.2121   20.3058 C   0  0  0  0  0  0
  -21.6851   -6.0745   22.5291 C   0  0  0  0  0  0
  -21.4013   -6.5646   23.8224 C   0  0  0  0  0  0
  -21.3655   -5.6793   24.9183 C   0  0  0  0  0  0
  -21.6040   -4.3058   24.7221 C   0  0  0  0  0  0
  -21.8826   -3.8151   23.4342 C   0  0  0  0  0  0
  -21.9197   -4.6973   22.3402 C   0  0  0  0  0  0
  -22.7750  -13.5172   21.1928 C   0  0  0  0  0  0
  -22.1665   -4.2172   21.0973 F   0  0  0  0  0  0
  -21.5625   -3.4534   25.7727 F   0  0  0  0  0  0
  -29.8715  -13.9675   20.3218 N   0  0  0  0  0  0
  -26.2828  -12.9419   20.3245 N   0  0  0  0  0  0
  -25.9312  -11.6559   20.5772 N   0  0  0  0  0  0
  -22.0373  -12.8175   22.0470 N   0  0  0  0  0  0
  -25.3715  -15.1906   20.3888 N   0  0  0  0  0  0
  -31.6435  -15.2922   20.2242 O   0  0  0  0  0  0
  -21.6633   -6.8889   21.4252 O   0  0  0  0  0  0
  -22.3479  -14.5492   20.6763 O   0  0  0  0  0  0
  -24.6613  -31.8251   23.1699 C   0  0  0  0  0  0
  -25.9295  -32.4602   23.8169 C   0  0  1  0  0  0
  -27.2351  -26.9483   20.1862 C   0  0  0  0  0  0
  -25.5971  -33.8408   24.2080 N   0  0  0  0  0  0
  -23.4772  -30.4332   21.5206 C   0  0  2  0  0  0
  -24.9320  -28.8160   20.1235 C   0  0  0  0  0  0
  -22.7667  -29.4437   22.4801 C   0  0  0  0  0  0
  -18.0311  -28.1410   22.8460 C   0  0  0  0  0  0
  -24.1498  -36.7213   23.2651 C   0  0  0  0  0  0
  -26.0453  -30.6387   21.3972 C   0  0  0  0  0  0
  -26.1169  -29.2274   20.7468 C   0  0  0  0  0  0
  -27.2654  -28.3168   20.7469 C   0  0  0  0  0  0
  -26.0139  -26.6760   19.5300 C   0  0  0  0  0  0
  -24.9029  -27.5596   19.4977 C   0  0  0  0  0  0
  -23.7179  -29.7434   20.1495 C   0  0  0  0  0  0
  -25.4137  -36.2977   24.0303 C   0  0  1  0  0  0
  -20.5941  -28.3745   23.1203 C   0  0  2  0  0  0
  -20.6799  -26.9429   22.5410 C   0  0  0  0  0  0
  -19.5773  -26.6377   21.5223 C   0  0  0  0  0  0
  -18.1950  -26.7940   22.1622 C   0  0  0  0  0  0
  -19.1575  -28.8900   23.2813 C   0  0  0  0  0  0
  -18.9484  -30.1491   23.8841 C   0  0  0  0  0  0
  -17.6477  -30.6599   24.0555 C   0  0  0  0  0  0
  -25.9098  -34.9355   23.5016 C   0  0  0  0  0  0
  -16.5366  -29.9084   23.6348 C   0  0  0  0  0  0
  -16.7292  -28.6511   23.0355 C   0  0  0  0  0  0
  -26.4543  -31.6543   25.0693 C   0  0  0  0  0  0
  -25.3676  -31.3786   26.1359 C   0  0  0  0  0  0
  -27.0444  -30.2920   24.6415 C   0  0  0  0  0  0
  -27.6048  -32.4334   25.7492 C   0  0  0  0  0  0
  -27.5572  -37.1764   24.8458 C   0  0  0  0  0  0
  -21.4334  -29.3035   22.3560 N   0  0  0  0  0  0
  -26.4281  -37.3713   23.9407 N   0  0  0  0  0  0
  -24.7496  -30.9914   22.0841 N   0  0  0  0  0  0
  -23.4219  -28.8008   23.3047 O   0  0  0  0  0  0
  -28.2845  -25.8924   20.1672 O   0  0  0  0  0  0
  -26.5699  -34.8883   22.4607 O   0  0  0  0  0  0
  -23.5680  -32.1207   23.6802 O   0  0  0  0  0  0
  -29.3068  -18.2872   22.2357 C   0  0  0  0  0  0
  -28.2514  -16.5893   20.8967 C   0  0  0  0  0  0
  -28.2619  -17.1630   22.3127 C   0  0  2  0  0  0
  -29.8598  -18.2289   20.7939 C   0  0  2  0  0  0
  -26.7923  -17.8616   24.1974 C   0  0  0  0  0  0
  -29.2168  -19.7255   20.0100 C   0  0  0  0  0  0
  -28.7933  -22.7391   19.8619 C   0  0  0  0  0  0
  -28.1690  -24.2892   20.5301 C   0  0  0  0  0  0
  -29.6433  -16.5923   20.4746 N   0  0  0  0  0  0
  -26.9083  -17.5744   22.7542 N   0  3  0  0  0  0
  -29.1188  -21.2820   20.6102 N   0  3  0  0  0  0
  -31.4540  -13.1081   19.1267 H   0  0  0  0  0  0
  -30.5901  -11.9384   20.0687 H   0  0  0  0  0  0
  -29.9209  -11.7895   17.6509 H   0  0  0  0  0  0
  -29.5328  -13.4903   17.6306 H   0  0  0  0  0  0
  -28.0499  -11.2653   19.0533 H   0  0  0  0  0  0
  -27.4086  -12.3523   17.8468 H   0  0  0  0  0  0
  -27.5424  -14.2145   19.3361 H   0  0  0  0  0  0
  -28.8979  -12.3617   21.3625 H   0  0  0  0  0  0
  -28.3421  -13.9146   21.8209 H   0  0  0  0  0  0
  -25.2766   -9.5677   22.4781 H   0  0  0  0  0  0
  -24.0034   -7.4597   22.7443 H   0  0  0  0  0  0
  -21.0869   -8.8753   19.8913 H   0  0  0  0  0  0
  -22.3713  -10.9665   19.6170 H   0  0  0  0  0  0
  -21.1997   -7.6152   23.9750 H   0  0  0  0  0  0
  -21.1471   -6.0503   25.9094 H   0  0  0  0  0  0
  -22.0604   -2.7615   23.2828 H   0  0  0  0  0  0
  -22.3988  -11.9863   22.4898 H   0  0  0  0  0  0
  -21.0967  -13.1179   22.2622 H   0  0  0  0  0  0
  -24.5024  -15.7120   20.3378 H   0  0  0  0  0  0
  -26.0308  -15.5045   19.6890 H   0  0  0  0  0  0
  -26.7368  -32.5140   23.0889 H   0  0  0  0  0  0
  -25.0077  -33.9483   25.0206 H   0  0  0  0  0  0
  -22.7908  -31.2642   21.3470 H   0  0  0  0  0  0
  -23.3780  -35.9525   23.3273 H   0  0  0  0  0  0
  -24.3595  -36.8896   22.2078 H   0  0  0  0  0  0
  -23.7231  -37.6382   23.6725 H   0  0  0  0  0  0
  -26.2163  -31.3800   20.6158 H   0  0  0  0  0  0
  -26.9086  -30.7029   22.0480 H   0  0  0  0  0  0
  -28.1713  -28.6385   21.2400 H   0  0  0  0  0  0
  -25.8997  -25.7192   19.0387 H   0  0  0  0  0  0
  -24.0016  -27.2406   18.9929 H   0  0  0  0  0  0
  -23.8728  -30.5088   19.3881 H   0  0  0  0  0  0
  -22.8300  -29.1932   19.8323 H   0  0  0  0  0  0
  -25.1342  -36.1789   25.0795 H   0  0  0  0  0  0
  -20.9996  -28.3343   24.1342 H   0  0  0  0  0  0
  -20.5700  -26.2352   23.3642 H   0  0  0  0  0  0
  -21.6659  -26.7420   22.1208 H   0  0  0  0  0  0
  -19.6933  -25.6279   21.1279 H   0  0  0  0  0  0
  -19.6723  -27.3169   20.6742 H   0  0  0  0  0  0
  -17.4227  -26.6673   21.4021 H   0  0  0  0  0  0
  -18.0334  -26.0095   22.9028 H   0  0  0  0  0  0
  -19.7964  -30.7321   24.2178 H   0  0  0  0  0  0
  -17.5034  -31.6272   24.5171 H   0  0  0  0  0  0
  -15.5367  -30.2971   23.7709 H   0  0  0  0  0  0
  -15.8690  -28.0820   22.7090 H   0  0  0  0  0  0
  -24.5847  -30.7155   25.7663 H   0  0  0  0  0  0
  -24.8874  -32.2983   26.4707 H   0  0  0  0  0  0
  -25.7906  -30.8991   27.0195 H   0  0  0  0  0  0
  -26.3111  -29.6597   24.1403 H   0  0  0  0  0  0
  -27.3976  -29.7290   25.5067 H   0  0  0  0  0  0
  -27.9047  -30.4132   23.9831 H   0  0  0  0  0  0
  -27.2634  -33.3670   26.1977 H   0  0  0  0  0  0
  -28.3905  -32.6835   25.0350 H   0  0  0  0  0  0
  -28.0667  -31.8517   26.5481 H   0  0  0  0  0  0
  -28.2564  -38.0086   24.7526 H   0  0  0  0  0  0
  -28.1085  -36.2609   24.6260 H   0  0  0  0  0  0
  -27.2277  -37.1379   25.8854 H   0  0  0  0  0  0
  -20.9594  -29.8720   21.6680 H   0  0  0  0  0  0
  -26.0131  -38.2771   24.1431 H   0  0  0  0  0  0
  -30.1076  -18.0885   22.9494 H   0  0  0  0  0  0
  -28.8972  -19.2627   22.4947 H   0  0  0  0  0  0
  -27.6695  -17.2065   20.2106 H   0  0  0  0  0  0
  -27.7663  -15.6397   20.8991 H   0  0  0  0  0  0
  -28.6208  -16.3897   22.9962 H   0  0  0  0  0  0
  -30.9413  -18.3694   20.8411 H   0  0  0  0  0  0
  -25.7923  -18.2296   24.4279 H   0  0  0  0  0  0
  -27.5098  -18.6201   24.5129 H   0  0  0  0  0  0
  -26.9612  -16.9608   24.7881 H   0  0  0  0  0  0
  -28.1968  -19.4972   19.7012 H   0  0  0  0  0  0
  -29.7582  -19.8228   19.0695 H   0  0  0  0  0  0
  -29.7254  -22.9918   19.3570 H   0  0  0  0  0  0
  -28.1154  -22.4891   19.0462 H   0  0  0  0  0  0
  -28.5489  -24.2886   21.5525 H   0  0  0  0  0  0
  -27.1009  -24.1186   20.6614 H   0  0  0  0  0  0
  -26.2626  -16.8271   22.5433 H   0  0  0  0  0  0
  -26.5945  -18.3775   22.2344 H   0  0  0  0  0  0
  -30.0054  -21.4323   21.0652 H   0  0  0  0  0  0
  -28.4479  -21.2275   21.3587 H   0  0  0  0  0  0
  1 25  1  0  0  0
  1 30  2  0  0  0
  1 79  1  0  0  0
  2  3  1  0  0  0
  2 25  1  0  0  0
  2 82  1  0  0  0
  2 83  1  0  0  0
  3  4  1  0  0  0
  3 84  1  0  0  0
  3 85  1  0  0  0
  4  5  1  0  0  0
  4 86  1  0  0  0
  4 87  1  0  0  0
  5  6  1  0  0  0
  5 26  1  0  0  0
  5 88  1  0  0  0
  6 25  1  0  0  0
  6 89  1  0  0  0
  6 90  1  0  0  0
  7  8  2  0  0  0
  7 26  1  0  0  0
  7 29  1  0  0  0
  8  9  1  0  0  0
  8 22  1  0  0  0
  9 10  1  0  0  0
  9 27  2  0  0  0
 10 11  2  0  0  0
 10 15  1  0  0  0
 11 12  1  0  0  0
 11 91  1  0  0  0
 12 13  2  0  0  0
 12 92  1  0  0  0
 13 14  1  0  0  0
 13 31  1  0  0  0
 14 15  2  0  0  0
 14 93  1  0  0  0
 15 94  1  0  0  0
 16 17  2  0  0  0
 16 21  1  0  0  0
 16 31  1  0  0  0
 17 18  1  0  0  0
 17 95  1  0  0  0
 18 19  2  0  0  0
 18 96  1  0  0  0
 19 20  1  0  0  0
 19 24  1  0  0  0
 20 21  2  0  0  0
 20 97  1  0  0  0
 21 23  1  0  0  0
 22 28  1  0  0  0
 22 32  2  0  0  0
 26 27  1  0  0  0
 28 98  1  0  0  0
 28 99  1  0  0  0
 29100  1  0  0  0
 29101  1  0  0  0
 33 34  1  0  0  0
 33 66  1  0  0  0
 33 70  2  0  0  0
 34 36  1  0  0  0
 34 59  1  0  0  0
 34102  1  0  0  0
 35 44  2  0  0  0
 35 45  1  0  0  0
 35 68  1  0  0  0
 36 56  1  0  0  0
 36103  1  0  0  0
 37 39  1  0  0  0
 37 47  1  0  0  0
 37 66  1  0  0  0
 37104  1  0  0  0
 38 43  2  0  0  0
 38 46  1  0  0  0
 38 47  1  0  0  0
 39 64  1  0  0  0
 39 67  2  0  0  0
 40 52  1  0  0  0
 40 53  2  0  0  0
 40 58  1  0  0  0
 41105  1  0  0  0
 41106  1  0  0  0
 41107  1  0  0  0
 41 48  1  0  0  0
 42 43  1  0  0  0
 42 66  1  0  0  0
 42108  1  0  0  0
 42109  1  0  0  0
 43 44  1  0  0  0
 44110  1  0  0  0
 45 46  2  0  0  0
 45111  1  0  0  0
 46112  1  0  0  0
 47113  1  0  0  0
 47114  1  0  0  0
 48 56  1  0  0  0
 48 65  1  0  0  0
 48115  1  0  0  0
 49 50  1  0  0  0
 49 53  1  0  0  0
 49 64  1  0  0  0
 49116  1  0  0  0
 50 51  1  0  0  0
 50117  1  0  0  0
 50118  1  0  0  0
 51 52  1  0  0  0
 51119  1  0  0  0
 51120  1  0  0  0
 52121  1  0  0  0
 52122  1  0  0  0
 53 54  1  0  0  0
 54 55  2  0  0  0
 54123  1  0  0  0
 55 57  1  0  0  0
 55124  1  0  0  0
 56 69  2  0  0  0
 57 58  2  0  0  0
 57125  1  0  0  0
 58126  1  0  0  0
 59 60  1  0  0  0
 59 61  1  0  0  0
 59 62  1  0  0  0
 60127  1  0  0  0
 60128  1  0  0  0
 60129  1  0  0  0
 61130  1  0  0  0
 61131  1  0  0  0
 61132  1  0  0  0
 62133  1  0  0  0
 62134  1  0  0  0
 62135  1  0  0  0
 63 65  1  0  0  0
 63136  1  0  0  0
 63137  1  0  0  0
 63138  1  0  0  0
 64139  1  0  0  0
 65140  1  0  0  0
 68 78  1  0  0  0
 71 73  1  0  0  0
 71 74  1  0  0  0
 71141  1  0  0  0
 71142  1  0  0  0
 72 73  1  0  0  0
 72 79  1  0  0  0
 72143  1  0  0  0
 72144  1  0  0  0
 73 80  1  0  0  0
 73145  1  0  0  0
 74 76  1  0  0  0
 74 79  1  0  0  0
 74146  1  0  0  0
 75 80  1  0  0  0
 75147  1  0  0  0
 75148  1  0  0  0
 75149  1  0  0  0
 76 81  1  0  0  0
 76150  1  0  0  0
 76151  1  0  0  0
 77 78  1  0  0  0
 77 81  1  0  0  0
 77152  1  0  0  0
 77153  1  0  0  0
 78154  1  0  0  0
 78155  1  0  0  0
 80156  1  0  0  0
 80157  1  0  0  0
 81158  1  0  0  0
 81159  1  0  0  0
M  CHG  2  80   1  81   1
M  ISO  4   1 100  68 101  78 101  79 100
M  END
> <chiral flag>
0

> <version>
0

> <s_m_source_file>
/data/baiqing/PycharmProjects/Reinvent-master-3.2/result/LINK_invent/BTK/process_docking_weight1_custom_sum_contain_oxygen_bond_distance_aromatic_linkinvent_7_9_3/rearranged_h_0182.sdf

> <i_m_source_file_index>
69

> <r_mmod_Potential_Energy-OPLS-2005>
1224.93835449219

> <r_mmod_Stretch_Energy-OPLS-2005>
622.510620117188

> <r_mmod_Bend_Energy-OPLS-2005>
511.219207763672

> <r_mmod_Torsional_Energy-OPLS-2005>
378.421844482422

> <r_mmod_Improper_Torsional_Energy-OPLS-2005>
11.1020441055298

> <r_mmod_Van_der_Waal_Energy-OPLS-2005>
117.72144317627

> <r_mmod_Electrostatic_Energy-OPLS-2005>
125.132164001465

> <r_mmod_Solvation_Energy-OPLS-2005>
-983.730041503906

> <b_mmod_Minimization_Converged-OPLS-2005>
0

> <r_mmod_RMS_Derivative-OPLS-2005>
2.07875418663025

$$$$
69
                    3D
 Structure written by MMmdl.
159168  0  0  1  0            999 V2000
  -30.6640  -14.6719   20.4755 C   0  0  0  0  0  0
  -30.4258  -12.4098   19.4663 C   0  0  0  0  0  0
  -29.5065  -12.4980   18.2298 C   0  0  0  0  0  0
  -28.0307  -12.3396   18.6437 C   0  0  0  0  0  0
  -27.6475  -13.2288   19.8579 C   0  0  2  0  0  0
  -28.6947  -13.1369   20.9898 C   0  0  0  0  0  0
  -25.2553  -13.8194   20.5713 C   0  0  0  0  0  0
  -24.1826  -13.0449   20.9203 C   0  0  0  0  0  0
  -24.6403  -11.6923   20.8749 C   0  0  0  0  0  0
  -23.9073  -10.4299   21.0406 C   0  0  0  0  0  0
  -24.3622   -9.4215   21.9186 C   0  0  0  0  0  0
  -23.6303   -8.2248   22.0753 C   0  0  0  0  0  0
  -22.4287   -8.0282   21.3537 C   0  0  0  0  0  0
  -21.9919   -9.0258   20.4644 C   0  0  0  0  0  0
  -22.7242  -10.2140   20.3052 C   0  0  0  0  0  0
  -21.6851   -6.0743   22.5280 C   0  0  0  0  0  0
  -21.4008   -6.5644   23.8214 C   0  0  0  0  0  0
  -21.3664   -5.6796   24.9179 C   0  0  0  0  0  0
  -21.6048   -4.3061   24.7220 C   0  0  0  0  0  0
  -21.8820   -3.8150   23.4342 C   0  0  0  0  0  0
  -21.9191   -4.6968   22.3401 C   0  0  0  0  0  0
  -22.7849  -13.5243   21.1845 C   0  0  0  0  0  0
  -22.1663   -4.2156   21.0977 F   0  0  0  0  0  0
  -21.5633   -3.4543   25.7733 F   0  0  0  0  0  0
  -29.9993  -13.4706   20.4056 N   0  0  0  0  0  0
  -26.2980  -12.9395   20.3340 N   0  0  0  0  0  0
  -25.9340  -11.6539   20.5785 N   0  0  0  0  0  0
  -22.0474  -12.8246   22.0394 N   0  0  0  0  0  0
  -25.4282  -15.1910   20.4122 N   0  0  0  0  0  0
  -31.8510  -14.7303   20.1398 O   0  0  0  0  0  0
  -21.6645   -6.8881   21.4242 O   0  0  0  0  0  0
  -22.3549  -14.5554   20.6693 O   0  0  0  0  0  0
  -24.6298  -31.8586   23.2045 C   0  0  0  0  0  0
  -25.9139  -32.4771   23.8368 C   0  0  1  0  0  0
  -27.2088  -27.2889   20.1093 C   0  0  0  0  0  0
  -25.5948  -33.8576   24.2286 N   0  0  0  0  0  0
  -23.4233  -30.4859   21.5492 C   0  0  2  0  0  0
  -24.8664  -28.9470   20.1092 C   0  0  0  0  0  0
  -22.7498  -29.4614   22.4945 C   0  0  0  0  0  0
  -18.0288  -28.1385   22.8485 C   0  0  0  0  0  0
  -24.1489  -36.7284   23.2635 C   0  0  0  0  0  0
  -25.9697  -30.7785   21.3832 C   0  0  0  0  0  0
  -26.0400  -29.4063   20.7204 C   0  0  0  0  0  0
  -27.2136  -28.5873   20.7165 C   0  0  0  0  0  0
  -26.0128  -26.9110   19.4490 C   0  0  0  0  0  0
  -24.8560  -27.7048   19.4661 C   0  0  0  0  0  0
  -23.6380  -29.8300   20.1625 C   0  0  0  0  0  0
  -25.4114  -36.3078   24.0328 C   0  0  1  0  0  0
  -20.5893  -28.3688   23.1278 C   0  0  2  0  0  0
  -20.6779  -26.9410   22.5407 C   0  0  0  0  0  0
  -19.5753  -26.6380   21.5212 C   0  0  0  0  0  0
  -18.1931  -26.7929   22.1619 C   0  0  0  0  0  0
  -19.1541  -28.8853   23.2875 C   0  0  0  0  0  0
  -18.9463  -30.1458   23.8888 C   0  0  0  0  0  0
  -17.6462  -30.6588   24.0555 C   0  0  0  0  0  0
  -25.9056  -34.9446   23.5103 C   0  0  0  0  0  0
  -16.5352  -29.9080   23.6335 C   0  0  0  0  0  0
  -16.7274  -28.6497   23.0354 C   0  0  0  0  0  0
  -26.4512  -31.6586   25.0744 C   0  0  0  0  0  0
  -25.3748  -31.3723   26.1472 C   0  0  0  0  0  0
  -27.0359  -30.3008   24.6212 C   0  0  0  0  0  0
  -27.6072  -32.4322   25.7519 C   0  0  0  0  0  0
  -27.5585  -37.1791   24.8458 C   0  0  0  0  0  0
  -21.4209  -29.3040   22.3684 N   0  0  0  0  0  0
  -26.4285  -37.3780   23.9420 N   0  0  0  0  0  0
  -24.6933  -31.0574   22.1020 N   0  0  0  0  0  0
  -23.4212  -28.8138   23.3017 O   0  0  0  0  0  0
  -28.2883  -26.3788   20.1910 O   0  0  0  0  0  0
  -26.5613  -34.8913   22.4662 O   0  0  0  0  0  0
  -23.5454  -32.1399   23.7352 O   0  0  0  0  0  0
  -28.7012  -22.3230   20.1216 C   0  0  0  0  0  0
  -28.8754  -23.7490   20.3672 C   0  0  0  0  0  0
  -29.6935  -21.6557   20.8166 C   0  0  0  0  0  0
  -29.5474  -17.9708   21.8590 C   0  0  0  0  0  0
  -30.3935  -18.2543   19.5823 C   0  0  0  0  0  0
  -29.1772  -16.4652   21.5528 C   0  0  0  0  0  0
  -29.9726  -16.7736   19.2708 C   0  0  0  0  0  0
  -29.5449  -18.9795   20.6616 C   0  0  0  0  0  0
  -31.5655  -22.5811   22.2938 C   0  0  0  0  0  0
  -27.9795  -24.9448   19.8927 C   0  0  0  0  0  0
  -29.9267  -23.9326   21.1519 N   0  0  0  0  0  0
  -30.4111  -22.6867   21.4204 N   0  0  0  0  0  0
  -29.9131  -15.8384   20.4284 N   0  0  0  0  0  0
  -30.1292  -20.3037   21.0543 N   0  0  0  0  0  0
  -31.4701  -12.5084   19.1639 H   0  0  0  0  0  0
  -30.3460  -11.4297   19.9391 H   0  0  0  0  0  0
  -29.7760  -11.7308   17.5023 H   0  0  0  0  0  0
  -29.6485  -13.4571   17.7289 H   0  0  0  0  0  0
  -27.8739  -11.2893   18.8939 H   0  0  0  0  0  0
  -27.3760  -12.5512   17.7980 H   0  0  0  0  0  0
  -27.6503  -14.2564   19.4941 H   0  0  0  0  0  0
  -28.7179  -12.1349   21.4192 H   0  0  0  0  0  0
  -28.4411  -13.8111   21.8073 H   0  0  0  0  0  0
  -25.2755   -9.5708   22.4780 H   0  0  0  0  0  0
  -24.0011   -7.4642   22.7479 H   0  0  0  0  0  0
  -21.0844   -8.8777   19.8954 H   0  0  0  0  0  0
  -22.3690  -10.9688   19.6172 H   0  0  0  0  0  0
  -21.1996   -7.6149   23.9724 H   0  0  0  0  0  0
  -21.1490   -6.0522   25.9087 H   0  0  0  0  0  0
  -22.0594   -2.7610   23.2835 H   0  0  0  0  0  0
  -22.4071  -11.9904   22.4794 H   0  0  0  0  0  0
  -21.1099  -13.1297   22.2575 H   0  0  0  0  0  0
  -24.6671  -15.8515   20.5237 H   0  0  0  0  0  0
  -26.2880  -15.6245   20.1011 H   0  0  0  0  0  0
  -26.7203  -32.5428   23.1108 H   0  0  0  0  0  0
  -25.0115  -33.9718   25.0446 H   0  0  0  0  0  0
  -22.7182  -31.3079   21.4102 H   0  0  0  0  0  0
  -23.3763  -35.9603   23.3272 H   0  0  0  0  0  0
  -24.3595  -36.8928   22.2056 H   0  0  0  0  0  0
  -23.7221  -37.6470   23.6673 H   0  0  0  0  0  0
  -26.1072  -31.5421   20.6161 H   0  0  0  0  0  0
  -26.8489  -30.8239   22.0148 H   0  0  0  0  0  0
  -28.1079  -28.9281   21.2198 H   0  0  0  0  0  0
  -25.9182  -25.9757   18.9193 H   0  0  0  0  0  0
  -23.9588  -27.3494   18.9773 H   0  0  0  0  0  0
  -23.7624  -30.6102   19.4108 H   0  0  0  0  0  0
  -22.7559  -29.2644   19.8556 H   0  0  0  0  0  0
  -25.1290  -36.1923   25.0819 H   0  0  0  0  0  0
  -20.9971  -28.3250   24.1404 H   0  0  0  0  0  0
  -20.5682  -26.2293   23.3607 H   0  0  0  0  0  0
  -21.6645  -26.7444   22.1191 H   0  0  0  0  0  0
  -19.6911  -25.6289   21.1243 H   0  0  0  0  0  0
  -19.6690  -27.3187   20.6738 H   0  0  0  0  0  0
  -17.4205  -26.6679   21.4016 H   0  0  0  0  0  0
  -18.0324  -26.0072   22.9012 H   0  0  0  0  0  0
  -19.7940  -30.7277   24.2246 H   0  0  0  0  0  0
  -17.5017  -31.6270   24.5152 H   0  0  0  0  0  0
  -15.5351  -30.2973   23.7675 H   0  0  0  0  0  0
  -15.8676  -28.0814   22.7075 H   0  0  0  0  0  0
  -24.5919  -30.7077   25.7798 H   0  0  0  0  0  0
  -24.8947  -32.2886   26.4913 H   0  0  0  0  0  0
  -25.8074  -30.8888   27.0240 H   0  0  0  0  0  0
  -26.2938  -29.6756   24.1231 H   0  0  0  0  0  0
  -27.4044  -29.7266   25.4722 H   0  0  0  0  0  0
  -27.8817  -30.4287   23.9455 H   0  0  0  0  0  0
  -27.2685  -33.3625   26.2091 H   0  0  0  0  0  0
  -28.3892  -32.6874   25.0357 H   0  0  0  0  0  0
  -28.0732  -31.8450   26.5442 H   0  0  0  0  0  0
  -28.2569  -38.0121   24.7557 H   0  0  0  0  0  0
  -28.1114  -36.2656   24.6218 H   0  0  0  0  0  0
  -27.2314  -37.1352   25.8861 H   0  0  0  0  0  0
  -20.9396  -29.8786   21.6914 H   0  0  0  0  0  0
  -26.0159  -38.2846   24.1458 H   0  0  0  0  0  0
  -27.9292  -21.8618   19.5230 H   0  0  0  0  0  0
  -30.5397  -17.9729   22.3117 H   0  0  0  0  0  0
  -28.8768  -18.3403   22.6361 H   0  0  0  0  0  0
  -30.3623  -18.8322   18.6576 H   0  0  0  0  0  0
  -31.4403  -18.2474   19.8902 H   0  0  0  0  0  0
  -28.1118  -16.3958   21.3310 H   0  0  0  0  0  0
  -29.3329  -15.8780   22.4590 H   0  0  0  0  0  0
  -30.6357  -16.3755   18.4999 H   0  0  0  0  0  0
  -28.9820  -16.7800   18.8141 H   0  0  0  0  0  0
  -28.5242  -19.1208   20.2998 H   0  0  0  0  0  0
  -32.3850  -22.0936   21.7658 H   0  0  0  0  0  0
  -31.3052  -21.9917   23.1736 H   0  0  0  0  0  0
  -31.8963  -23.5682   22.6194 H   0  0  0  0  0  0
  -26.9989  -24.7207   20.3135 H   0  0  0  0  0  0
  -27.8689  -24.8624   18.8109 H   0  0  0  0  0  0
  -30.9478  -20.2378   21.6497 H   0  0  0  0  0  0
  1 25  1  0  0  0
  1 30  2  0  0  0
  1 83  1  0  0  0
  2  3  1  0  0  0
  2 25  1  0  0  0
  2 85  1  0  0  0
  2 86  1  0  0  0
  3  4  1  0  0  0
  3 87  1  0  0  0
  3 88  1  0  0  0
  4  5  1  0  0  0
  4 89  1  0  0  0
  4 90  1  0  0  0
  5  6  1  0  0  0
  5 26  1  0  0  0
  5 91  1  0  0  0
  6 25  1  0  0  0
  6 92  1  0  0  0
  6 93  1  0  0  0
  7  8  2  0  0  0
  7 26  1  0  0  0
  7 29  1  0  0  0
  8  9  1  0  0  0
  8 22  1  0  0  0
  9 10  1  0  0  0
  9 27  2  0  0  0
 10 11  2  0  0  0
 10 15  1  0  0  0
 11 12  1  0  0  0
 11 94  1  0  0  0
 12 13  2  0  0  0
 12 95  1  0  0  0
 13 14  1  0  0  0
 13 31  1  0  0  0
 14 15  2  0  0  0
 14 96  1  0  0  0
 15 97  1  0  0  0
 16 17  2  0  0  0
 16 21  1  0  0  0
 16 31  1  0  0  0
 17 18  1  0  0  0
 17 98  1  0  0  0
 18 19  2  0  0  0
 18 99  1  0  0  0
 19 20  1  0  0  0
 19 24  1  0  0  0
 20 21  2  0  0  0
 20100  1  0  0  0
 21 23  1  0  0  0
 22 28  1  0  0  0
 22 32  2  0  0  0
 26 27  1  0  0  0
 28101  1  0  0  0
 28102  1  0  0  0
 29103  1  0  0  0
 29104  1  0  0  0
 33 34  1  0  0  0
 33 66  1  0  0  0
 33 70  2  0  0  0
 34 36  1  0  0  0
 34 59  1  0  0  0
 34105  1  0  0  0
 35 44  2  0  0  0
 35 45  1  0  0  0
 35 68  1  0  0  0
 36 56  1  0  0  0
 36106  1  0  0  0
 37 39  1  0  0  0
 37 47  1  0  0  0
 37 66  1  0  0  0
 37107  1  0  0  0
 38 43  2  0  0  0
 38 46  1  0  0  0
 38 47  1  0  0  0
 39 64  1  0  0  0
 39 67  2  0  0  0
 40 52  1  0  0  0
 40 53  2  0  0  0
 40 58  1  0  0  0
 41108  1  0  0  0
 41109  1  0  0  0
 41110  1  0  0  0
 41 48  1  0  0  0
 42 43  1  0  0  0
 42 66  1  0  0  0
 42111  1  0  0  0
 42112  1  0  0  0
 43 44  1  0  0  0
 44113  1  0  0  0
 45 46  2  0  0  0
 45114  1  0  0  0
 46115  1  0  0  0
 47116  1  0  0  0
 47117  1  0  0  0
 48 56  1  0  0  0
 48 65  1  0  0  0
 48118  1  0  0  0
 49 50  1  0  0  0
 49 53  1  0  0  0
 49 64  1  0  0  0
 49119  1  0  0  0
 50 51  1  0  0  0
 50120  1  0  0  0
 50121  1  0  0  0
 51 52  1  0  0  0
 51122  1  0  0  0
 51123  1  0  0  0
 52124  1  0  0  0
 52125  1  0  0  0
 53 54  1  0  0  0
 54 55  2  0  0  0
 54126  1  0  0  0
 55 57  1  0  0  0
 55127  1  0  0  0
 56 69  2  0  0  0
 57 58  2  0  0  0
 57128  1  0  0  0
 58129  1  0  0  0
 59 60  1  0  0  0
 59 61  1  0  0  0
 59 62  1  0  0  0
 60130  1  0  0  0
 60131  1  0  0  0
 60132  1  0  0  0
 61133  1  0  0  0
 61134  1  0  0  0
 61135  1  0  0  0
 62136  1  0  0  0
 62137  1  0  0  0
 62138  1  0  0  0
 63 65  1  0  0  0
 63139  1  0  0  0
 63140  1  0  0  0
 63141  1  0  0  0
 64142  1  0  0  0
 65143  1  0  0  0
 68 80  1  0  0  0
 71 72  1  0  0  0
 71 73  2  0  0  0
 71144  1  0  0  0
 72 80  1  0  0  0
 72 81  2  0  0  0
 73 82  1  0  0  0
 73 84  1  0  0  0
 74 76  1  0  0  0
 74 78  1  0  0  0
 74145  1  0  0  0
 74146  1  0  0  0
 75 77  1  0  0  0
 75 78  1  0  0  0
 75147  1  0  0  0
 75148  1  0  0  0
 76 83  1  0  0  0
 76149  1  0  0  0
 76150  1  0  0  0
 77 83  1  0  0  0
 77151  1  0  0  0
 77152  1  0  0  0
 78 84  1  0  0  0
 78153  1  0  0  0
 79 82  1  0  0  0
 79154  1  0  0  0
 79155  1  0  0  0
 79156  1  0  0  0
 80157  1  0  0  0
 80158  1  0  0  0
 81 82  1  0  0  0
 84159  1  0  0  0
M  ISO  4   1 100  68 101  80 101  83 100
M  END
> <chiral flag>
0

> <version>
0

> <s_m_source_file>
/data/baiqing/PycharmProjects/Reinvent-master-3.2/result/LINK_invent/BTK/process_docking_weight1_custom_sum_contain_oxygen_bond_distance_aromatic_linkinvent_7_9_3/rearranged_h_0182.sdf

> <i_m_source_file_index>
70

> <r_mmod_Potential_Energy-OPLS-2005>
248.55158996582

> <r_mmod_Stretch_Energy-OPLS-2005>
87.1454238891602

> <r_mmod_Bend_Energy-OPLS-2005>
173.282455444336

> <r_mmod_Torsional_Energy-OPLS-2005>
322.460571289062

> <r_mmod_Improper_Torsional_Energy-OPLS-2005>
16.0728168487549

> <r_mmod_Van_der_Waal_Energy-OPLS-2005>
127.183227539062

> <r_mmod_Electrostatic_Energy-OPLS-2005>
-322.0341796875

> <r_mmod_Solvation_Energy-OPLS-2005>
-222.60563659668

> <b_mmod_Minimization_Converged-OPLS-2005>
0

> <r_mmod_RMS_Derivative-OPLS-2005>
1.16602694988251

$$$$
70
                    3D
 Structure written by MMmdl.
162172  0  0  1  0            999 V2000
  -30.5682  -14.9846   20.3503 C   0  0  0  0  0  0
  -30.4366  -12.6052   19.4745 C   0  0  0  0  0  0
  -29.5051  -12.4623   18.2502 C   0  0  0  0  0  0
  -28.0428  -12.2713   18.6879 C   0  0  0  0  0  0
  -27.6185  -13.2377   19.8244 C   0  0  2  0  0  0
  -28.6762  -13.3377   20.9415 C   0  0  0  0  0  0
  -25.2460  -13.8192   20.5763 C   0  0  0  0  0  0
  -24.1760  -13.0430   20.9252 C   0  0  0  0  0  0
  -24.6364  -11.6912   20.8793 C   0  0  0  0  0  0
  -23.9052  -10.4285   21.0429 C   0  0  0  0  0  0
  -24.3609   -9.4198   21.9197 C   0  0  0  0  0  0
  -23.6289   -8.2231   22.0757 C   0  0  0  0  0  0
  -22.4274   -8.0270   21.3542 C   0  0  0  0  0  0
  -21.9908   -9.0246   20.4648 C   0  0  0  0  0  0
  -22.7232  -10.2128   20.3067 C   0  0  0  0  0  0
  -21.6849   -6.0731   22.5278 C   0  0  0  0  0  0
  -21.4011   -6.5637   23.8211 C   0  0  0  0  0  0
  -21.3660   -5.6792   24.9174 C   0  0  0  0  0  0
  -21.6046   -4.3054   24.7225 C   0  0  0  0  0  0
  -21.8818   -3.8144   23.4345 C   0  0  0  0  0  0
  -21.9188   -4.6960   22.3402 C   0  0  0  0  0  0
  -22.7782  -13.5210   21.1886 C   0  0  0  0  0  0
  -22.1658   -4.2144   21.0980 F   0  0  0  0  0  0
  -21.5633   -3.4539   25.7738 F   0  0  0  0  0  0
  -29.9304  -13.7418   20.2927 N   0  0  0  0  0  0
  -26.2859  -12.9395   20.3301 N   0  0  0  0  0  0
  -25.9295  -11.6541   20.5817 N   0  0  0  0  0  0
  -22.0424  -12.8203   22.0438 N   0  0  0  0  0  0
  -25.4162  -15.1920   20.4201 N   0  0  0  0  0  0
  -31.8046  -14.9480   20.3112 O   0  0  0  0  0  0
  -21.6635   -6.8872   21.4238 O   0  0  0  0  0  0
  -22.3477  -14.5513   20.6722 O   0  0  0  0  0  0
  -24.6444  -31.8440   23.1881 C   0  0  0  0  0  0
  -25.9214  -32.4695   23.8272 C   0  0  1  0  0  0
  -27.2143  -27.1299   20.1494 C   0  0  0  0  0  0
  -25.5962  -33.8501   24.2191 N   0  0  0  0  0  0
  -23.4482  -30.4642   21.5339 C   0  0  2  0  0  0
  -24.8973  -28.8924   20.1099 C   0  0  0  0  0  0
  -22.7573  -29.4548   22.4853 C   0  0  0  0  0  0
  -18.0308  -28.1395   22.8479 C   0  0  0  0  0  0
  -24.1492  -36.7254   23.2641 C   0  0  0  0  0  0
  -26.0054  -30.7158   21.3885 C   0  0  0  0  0  0
  -26.0761  -29.3272   20.7287 C   0  0  0  0  0  0
  -27.2360  -28.4628   20.7304 C   0  0  0  0  0  0
  -26.0075  -26.8002   19.4923 C   0  0  0  0  0  0
  -24.8767  -27.6430   19.4754 C   0  0  0  0  0  0
  -23.6751  -29.7957   20.1525 C   0  0  0  0  0  0
  -25.4124  -36.3031   24.0315 C   0  0  1  0  0  0
  -20.5923  -28.3724   23.1233 C   0  0  2  0  0  0
  -20.6793  -26.9425   22.5404 C   0  0  0  0  0  0
  -19.5764  -26.6381   21.5214 C   0  0  0  0  0  0
  -18.1946  -26.7935   22.1625 C   0  0  0  0  0  0
  -19.1565  -28.8878   23.2849 C   0  0  0  0  0  0
  -18.9479  -30.1474   23.8875 C   0  0  0  0  0  0
  -17.6474  -30.6590   24.0561 C   0  0  0  0  0  0
  -25.9077  -34.9407   23.5062 C   0  0  0  0  0  0
  -16.5366  -29.9083   23.6335 C   0  0  0  0  0  0
  -16.7292  -28.6502   23.0356 C   0  0  0  0  0  0
  -26.4531  -31.6563   25.0714 C   0  0  0  0  0  0
  -25.3711  -31.3754   26.1405 C   0  0  0  0  0  0
  -27.0401  -30.2959   24.6302 C   0  0  0  0  0  0
  -27.6059  -32.4331   25.7501 C   0  0  0  0  0  0
  -27.5578  -37.1781   24.8462 C   0  0  0  0  0  0
  -21.4265  -29.3050   22.3602 N   0  0  0  0  0  0
  -26.4286  -37.3745   23.9410 N   0  0  0  0  0  0
  -24.7193  -31.0292   22.0919 N   0  0  0  0  0  0
  -23.4214  -28.8095   23.3003 O   0  0  0  0  0  0
  -28.2613  -26.1352   20.2187 O   0  0  0  0  0  0
  -26.5657  -34.8907   22.4638 O   0  0  0  0  0  0
  -23.5562  -32.1319   23.7097 O   0  0  0  0  0  0
  -29.0951  -18.8017   20.0883 C   0  0  0  0  0  0
  -29.3849  -20.1967   20.4984 C   0  0  0  0  0  0
  -29.9465  -17.6352   20.4778 C   0  0  0  0  0  0
  -31.1075  -19.2505   21.7195 C   0  0  0  0  0  0
  -30.0836  -17.1958   17.5426 C   0  0  0  0  0  0
  -30.5671  -15.7825   17.4413 C   0  0  0  0  0  0
  -29.3104  -22.4838   19.0776 C   0  0  0  0  0  0
  -28.6305  -21.6199   20.1107 C   0  0  2  0  0  0
  -28.9210  -23.2661   20.3128 C   0  0  2  0  0  0
  -29.5412  -16.1491   18.5136 C   0  0  0  0  0  0
  -27.8282  -18.5934   19.2703 C   0  0  0  0  0  0
  -32.2543  -19.4962   22.6760 C   0  0  0  0  0  0
  -27.9491  -24.6095   20.0939 C   0  0  0  0  0  0
  -30.4269  -20.3328   21.3356 N   0  0  0  0  0  0
  -30.9229  -17.9800   21.3434 N   0  0  0  0  0  0
  -29.8927  -16.1857   19.9249 N   0  0  0  0  0  0
  -31.4613  -12.7707   19.1375 H   0  0  0  0  0  0
  -30.4564  -11.6850   20.0605 H   0  0  0  0  0  0
  -29.8221  -11.6207   17.6331 H   0  0  0  0  0  0
  -29.5744  -13.3392   17.6137 H   0  0  0  0  0  0
  -27.9451  -11.2409   19.0315 H   0  0  0  0  0  0
  -27.3727  -12.3700   17.8329 H   0  0  0  0  0  0
  -27.5488  -14.2168   19.3597 H   0  0  0  0  0  0
  -28.7870  -12.3917   21.4732 H   0  0  0  0  0  0
  -28.3794  -14.0844   21.6799 H   0  0  0  0  0  0
  -25.2749   -9.5677   22.4779 H   0  0  0  0  0  0
  -23.9998   -7.4620   22.7475 H   0  0  0  0  0  0
  -21.0840   -8.8763   19.8952 H   0  0  0  0  0  0
  -22.3687  -10.9672   19.6183 H   0  0  0  0  0  0
  -21.2005   -7.6147   23.9713 H   0  0  0  0  0  0
  -21.1488   -6.0524   25.9078 H   0  0  0  0  0  0
  -22.0597   -2.7606   23.2846 H   0  0  0  0  0  0
  -22.4039  -11.9871   22.4839 H   0  0  0  0  0  0
  -21.1041  -13.1232   22.2638 H   0  0  0  0  0  0
  -24.6530  -15.8479   20.5447 H   0  0  0  0  0  0
  -26.2770  -15.6350   20.1292 H   0  0  0  0  0  0
  -26.7279  -32.5300   23.0999 H   0  0  0  0  0  0
  -25.0096  -33.9615   25.0330 H   0  0  0  0  0  0
  -22.7513  -31.2906   21.3801 H   0  0  0  0  0  0
  -23.3765  -35.9575   23.3283 H   0  0  0  0  0  0
  -24.3582  -36.8905   22.2060 H   0  0  0  0  0  0
  -23.7237  -37.6439   23.6691 H   0  0  0  0  0  0
  -26.1636  -31.4708   20.6171 H   0  0  0  0  0  0
  -26.8749  -30.7646   22.0323 H   0  0  0  0  0  0
  -28.1334  -28.7908   21.2362 H   0  0  0  0  0  0
  -25.8956  -25.8479   18.9984 H   0  0  0  0  0  0
  -23.9777  -27.3061   18.9776 H   0  0  0  0  0  0
  -23.8142  -30.5715   19.3984 H   0  0  0  0  0  0
  -22.7894  -29.2397   19.8400 H   0  0  0  0  0  0
  -25.1312  -36.1856   25.0807 H   0  0  0  0  0  0
  -21.0018  -28.3312   24.1352 H   0  0  0  0  0  0
  -20.5690  -26.2334   23.3623 H   0  0  0  0  0  0
  -21.6657  -26.7430   22.1197 H   0  0  0  0  0  0
  -19.6922  -25.6287   21.1256 H   0  0  0  0  0  0
  -19.6700  -27.3181   20.6736 H   0  0  0  0  0  0
  -17.4216  -26.6684   21.4028 H   0  0  0  0  0  0
  -18.0342  -26.0084   22.9027 H   0  0  0  0  0  0
  -19.7953  -30.7300   24.2231 H   0  0  0  0  0  0
  -17.5025  -31.6267   24.5169 H   0  0  0  0  0  0
  -15.5365  -30.2974   23.7673 H   0  0  0  0  0  0
  -15.8694  -28.0813   22.7079 H   0  0  0  0  0  0
  -24.5895  -30.7100   25.7717 H   0  0  0  0  0  0
  -24.8897  -32.2939   26.4771 H   0  0  0  0  0  0
  -25.7987  -30.8958   27.0219 H   0  0  0  0  0  0
  -26.3022  -29.6673   24.1304 H   0  0  0  0  0  0
  -27.4009  -29.7264   25.4877 H   0  0  0  0  0  0
  -27.8931  -30.4193   23.9626 H   0  0  0  0  0  0
  -27.2650  -33.3650   26.2023 H   0  0  0  0  0  0
  -28.3897  -32.6861   25.0349 H   0  0  0  0  0  0
  -28.0699  -31.8494   26.5461 H   0  0  0  0  0  0
  -28.2574  -38.0097   24.7528 H   0  0  0  0  0  0
  -28.1095  -36.2628   24.6266 H   0  0  0  0  0  0
  -27.2300  -37.1396   25.8864 H   0  0  0  0  0  0
  -20.9474  -29.8762   21.6780 H   0  0  0  0  0  0
  -26.0152  -38.2808   24.1426 H   0  0  0  0  0  0
  -29.4187  -17.5468   16.7556 H   0  0  0  0  0  0
  -30.8066  -17.9299   17.8934 H   0  0  0  0  0  0
  -31.6019  -15.6023   17.7257 H   0  0  0  0  0  0
  -30.2288  -15.2247   16.5702 H   0  0  0  0  0  0
  -28.7536  -22.6539   18.1585 H   0  0  0  0  0  0
  -30.3787  -22.3390   18.9302 H   0  0  0  0  0  0
  -27.5802  -21.3932   19.9479 H   0  0  0  0  0  0
  -29.6869  -23.4476   21.0639 H   0  0  0  0  0  0
  -28.5273  -15.8248   18.3008 H   0  0  0  0  0  0
  -27.0210  -19.2223   19.6442 H   0  0  0  0  0  0
  -27.4624  -17.5707   19.3407 H   0  0  0  0  0  0
  -27.9880  -18.8473   18.2226 H   0  0  0  0  0  0
  -32.0798  -20.3864   23.2807 H   0  0  0  0  0  0
  -33.1817  -19.6375   22.1215 H   0  0  0  0  0  0
  -32.3868  -18.6538   23.3551 H   0  0  0  0  0  0
  -27.1041  -24.4492   20.7645 H   0  0  0  0  0  0
  -27.5351  -24.4826   19.0944 H   0  0  0  0  0  0
  1 25  1  0  0  0
  1 30  2  0  0  0
  1 86  1  0  0  0
  2  3  1  0  0  0
  2 25  1  0  0  0
  2 87  1  0  0  0
  2 88  1  0  0  0
  3  4  1  0  0  0
  3 89  1  0  0  0
  3 90  1  0  0  0
  4  5  1  0  0  0
  4 91  1  0  0  0
  4 92  1  0  0  0
  5  6  1  0  0  0
  5 26  1  0  0  0
  5 93  1  0  0  0
  6 25  1  0  0  0
  6 94  1  0  0  0
  6 95  1  0  0  0
  7  8  2  0  0  0
  7 26  1  0  0  0
  7 29  1  0  0  0
  8  9  1  0  0  0
  8 22  1  0  0  0
  9 10  1  0  0  0
  9 27  2  0  0  0
 10 11  2  0  0  0
 10 15  1  0  0  0
 11 12  1  0  0  0
 11 96  1  0  0  0
 12 13  2  0  0  0
 12 97  1  0  0  0
 13 14  1  0  0  0
 13 31  1  0  0  0
 14 15  2  0  0  0
 14 98  1  0  0  0
 15 99  1  0  0  0
 16 17  2  0  0  0
 16 21  1  0  0  0
 16 31  1  0  0  0
 17 18  1  0  0  0
 17100  1  0  0  0
 18 19  2  0  0  0
 18101  1  0  0  0
 19 20  1  0  0  0
 19 24  1  0  0  0
 20 21  2  0  0  0
 20102  1  0  0  0
 21 23  1  0  0  0
 22 28  1  0  0  0
 22 32  2  0  0  0
 26 27  1  0  0  0
 28103  1  0  0  0
 28104  1  0  0  0
 29105  1  0  0  0
 29106  1  0  0  0
 33 34  1  0  0  0
 33 66  1  0  0  0
 33 70  2  0  0  0
 34 36  1  0  0  0
 34 59  1  0  0  0
 34107  1  0  0  0
 35 44  2  0  0  0
 35 45  1  0  0  0
 35 68  1  0  0  0
 36 56  1  0  0  0
 36108  1  0  0  0
 37 39  1  0  0  0
 37 47  1  0  0  0
 37 66  1  0  0  0
 37109  1  0  0  0
 38 43  2  0  0  0
 38 46  1  0  0  0
 38 47  1  0  0  0
 39 64  1  0  0  0
 39 67  2  0  0  0
 40 52  1  0  0  0
 40 53  2  0  0  0
 40 58  1  0  0  0
 41110  1  0  0  0
 41111  1  0  0  0
 41112  1  0  0  0
 41 48  1  0  0  0
 42 43  1  0  0  0
 42 66  1  0  0  0
 42113  1  0  0  0
 42114  1  0  0  0
 43 44  1  0  0  0
 44115  1  0  0  0
 45 46  2  0  0  0
 45116  1  0  0  0
 46117  1  0  0  0
 47118  1  0  0  0
 47119  1  0  0  0
 48 56  1  0  0  0
 48 65  1  0  0  0
 48120  1  0  0  0
 49 50  1  0  0  0
 49 53  1  0  0  0
 49 64  1  0  0  0
 49121  1  0  0  0
 50 51  1  0  0  0
 50122  1  0  0  0
 50123  1  0  0  0
 51 52  1  0  0  0
 51124  1  0  0  0
 51125  1  0  0  0
 52126  1  0  0  0
 52127  1  0  0  0
 53 54  1  0  0  0
 54 55  2  0  0  0
 54128  1  0  0  0
 55 57  1  0  0  0
 55129  1  0  0  0
 56 69  2  0  0  0
 57 58  2  0  0  0
 57130  1  0  0  0
 58131  1  0  0  0
 59 60  1  0  0  0
 59 61  1  0  0  0
 59 62  1  0  0  0
 60132  1  0  0  0
 60133  1  0  0  0
 60134  1  0  0  0
 61135  1  0  0  0
 61136  1  0  0  0
 61137  1  0  0  0
 62138  1  0  0  0
 62139  1  0  0  0
 62140  1  0  0  0
 63 65  1  0  0  0
 63141  1  0  0  0
 63142  1  0  0  0
 63143  1  0  0  0
 64144  1  0  0  0
 65145  1  0  0  0
 68 83  1  0  0  0
 71 72  2  0  0  0
 71 73  1  0  0  0
 71 81  1  0  0  0
 72 84  1  0  0  0
 72 78  1  0  0  0
 73 85  2  0  0  0
 73 86  1  0  0  0
 74 82  1  0  0  0
 74 84  2  0  0  0
 74 85  1  0  0  0
 75 76  1  0  0  0
 75 80  1  0  0  0
 75146  1  0  0  0
 75147  1  0  0  0
 76 80  1  0  0  0
 76148  1  0  0  0
 76149  1  0  0  0
 77 78  1  0  0  0
 77 79  1  0  0  0
 77150  1  0  0  0
 77151  1  0  0  0
 78 79  1  0  0  0
 78152  1  0  0  0
 79 83  1  0  0  0
 79153  1  0  0  0
 80 86  1  0  0  0
 80154  1  0  0  0
 81155  1  0  0  0
 81156  1  0  0  0
 81157  1  0  0  0
 82158  1  0  0  0
 82159  1  0  0  0
 82160  1  0  0  0
 83161  1  0  0  0
 83162  1  0  0  0
M  ISO  4   1 100  68 101  83 101  86 100
M  END
> <chiral flag>
0

> <version>
0

> <s_m_source_file>
/data/baiqing/PycharmProjects/Reinvent-master-3.2/result/LINK_invent/BTK/process_docking_weight1_custom_sum_contain_oxygen_bond_distance_aromatic_linkinvent_7_9_3/rearranged_h_0182.sdf

> <i_m_source_file_index>
71

> <r_mmod_Potential_Energy-OPLS-2005>
460.458282470703

> <r_mmod_Stretch_Energy-OPLS-2005>
282.633544921875

> <r_mmod_Bend_Energy-OPLS-2005>
261.92578125

> <r_mmod_Torsional_Energy-OPLS-2005>
405.686309814453

> <r_mmod_Improper_Torsional_Energy-OPLS-2005>
19.7432956695557

> <r_mmod_Van_der_Waal_Energy-OPLS-2005>
143.32991027832

> <r_mmod_Electrostatic_Energy-OPLS-2005>
-650.394226074219

> <r_mmod_Solvation_Energy-OPLS-2005>
-221.883438110352

> <b_mmod_Minimization_Converged-OPLS-2005>
0

> <r_mmod_RMS_Derivative-OPLS-2005>
0.489683985710144

$$$$
71
                    3D
 Structure written by MMmdl.
162172  0  0  1  0            999 V2000
  -30.6389  -14.8367   20.4454 C   0  0  0  0  0  0
  -30.4193  -12.5287   19.4786 C   0  0  0  0  0  0
  -29.5032  -12.5110   18.2379 C   0  0  0  0  0  0
  -28.0345  -12.3174   18.6597 C   0  0  0  0  0  0
  -27.6277  -13.2351   19.8429 C   0  0  2  0  0  0
  -28.6801  -13.2271   20.9747 C   0  0  0  0  0  0
  -25.2439  -13.8181   20.5706 C   0  0  0  0  0  0
  -24.1761  -13.0425   20.9260 C   0  0  0  0  0  0
  -24.6366  -11.6911   20.8793 C   0  0  0  0  0  0
  -23.9051  -10.4293   21.0446 C   0  0  0  0  0  0
  -24.3605   -9.4206   21.9207 C   0  0  0  0  0  0
  -23.6287   -8.2238   22.0757 C   0  0  0  0  0  0
  -22.4271   -8.0280   21.3548 C   0  0  0  0  0  0
  -21.9909   -9.0262   20.4656 C   0  0  0  0  0  0
  -22.7235  -10.2142   20.3085 C   0  0  0  0  0  0
  -21.6843   -6.0736   22.5280 C   0  0  0  0  0  0
  -21.4008   -6.5636   23.8217 C   0  0  0  0  0  0
  -21.3662   -5.6783   24.9175 C   0  0  0  0  0  0
  -21.6045   -4.3046   24.7221 C   0  0  0  0  0  0
  -21.8815   -3.8145   23.4339 C   0  0  0  0  0  0
  -21.9192   -4.6963   22.3397 C   0  0  0  0  0  0
  -22.7786  -13.5227   21.1891 C   0  0  0  0  0  0
  -22.1666   -4.2151   21.0973 F   0  0  0  0  0  0
  -21.5630   -3.4533   25.7739 F   0  0  0  0  0  0
  -29.9485  -13.6336   20.3604 N   0  0  0  0  0  0
  -26.2862  -12.9397   20.3283 N   0  0  0  0  0  0
  -25.9291  -11.6539   20.5789 N   0  0  0  0  0  0
  -22.0409  -12.8247   22.0440 N   0  0  0  0  0  0
  -25.4037  -15.1895   20.4017 N   0  0  0  0  0  0
  -31.8515  -14.7808   20.2147 O   0  0  0  0  0  0
  -21.6634   -6.8882   21.4244 O   0  0  0  0  0  0
  -22.3504  -14.5539   20.6716 O   0  0  0  0  0  0
  -24.6331  -31.8512   23.1942 C   0  0  0  0  0  0
  -25.9145  -32.4729   23.8302 C   0  0  1  0  0  0
  -27.2083  -27.2101   20.1530 C   0  0  0  0  0  0
  -25.5919  -33.8534   24.2221 N   0  0  0  0  0  0
  -23.4315  -30.4721   21.5375 C   0  0  2  0  0  0
  -24.8772  -28.9047   20.1159 C   0  0  0  0  0  0
  -22.7506  -29.4572   22.4887 C   0  0  0  0  0  0
  -18.0289  -28.1387   22.8487 C   0  0  0  0  0  0
  -24.1495  -36.7285   23.2645 C   0  0  0  0  0  0
  -25.9796  -30.7480   21.3823 C   0  0  0  0  0  0
  -26.0473  -29.3624   20.7341 C   0  0  0  0  0  0
  -27.2135  -28.5270   20.7420 C   0  0  0  0  0  0
  -26.0199  -26.8339   19.4912 C   0  0  0  0  0  0
  -24.8692  -27.6500   19.4847 C   0  0  0  0  0  0
  -23.6538  -29.8017   20.1558 C   0  0  0  0  0  0
  -25.4127  -36.3058   24.0320 C   0  0  1  0  0  0
  -20.5894  -28.3690   23.1271 C   0  0  2  0  0  0
  -20.6779  -26.9408   22.5407 C   0  0  0  0  0  0
  -19.5750  -26.6375   21.5215 C   0  0  0  0  0  0
  -18.1934  -26.7924   22.1636 C   0  0  0  0  0  0
  -19.1545  -28.8854   23.2876 C   0  0  0  0  0  0
  -18.9466  -30.1458   23.8887 C   0  0  0  0  0  0
  -17.6468  -30.6589   24.0554 C   0  0  0  0  0  0
  -25.9057  -34.9427   23.5079 C   0  0  0  0  0  0
  -16.5357  -29.9088   23.6330 C   0  0  0  0  0  0
  -16.7277  -28.6507   23.0351 C   0  0  0  0  0  0
  -26.4502  -31.6574   25.0708 C   0  0  0  0  0  0
  -25.3723  -31.3764   26.1432 C   0  0  0  0  0  0
  -27.0329  -30.2969   24.6227 C   0  0  0  0  0  0
  -27.6056  -32.4323   25.7471 C   0  0  0  0  0  0
  -27.5574  -37.1811   24.8477 C   0  0  0  0  0  0
  -21.4212  -29.3038   22.3646 N   0  0  0  0  0  0
  -26.4308  -37.3754   23.9384 N   0  0  0  0  0  0
  -24.7002  -31.0445   22.0930 N   0  0  0  0  0  0
  -23.4207  -28.8116   23.2993 O   0  0  0  0  0  0
  -28.3345  -26.3420   20.1347 O   0  0  0  0  0  0
  -26.5638  -34.8910   22.4656 O   0  0  0  0  0  0
  -23.5481  -32.1346   23.7213 O   0  0  0  0  0  0
  -29.5002  -22.8939   20.1393 C   0  0  0  0  0  0
  -28.4866  -22.1009   20.7397 C   0  0  0  0  0  0
  -27.3522  -22.9232   21.0634 C   0  0  0  0  0  0
  -28.3006  -24.9286   20.2666 C   0  0  0  0  0  0
  -25.4122  -23.2070   22.8395 C   0  0  0  0  0  0
  -26.2553  -22.0397   23.2662 C   0  0  0  0  0  0
  -28.6143  -16.5697   20.5237 C   0  0  0  0  0  0
  -30.8579  -17.3476   20.1583 C   0  0  0  0  0  0
  -28.2404  -18.0444   21.0411 C   0  0  0  0  0  0
  -30.4662  -18.7920   20.7088 C   0  0  0  0  0  0
  -26.1490  -22.3874   21.7931 C   0  0  0  0  0  0
  -28.6835  -20.5766   21.2960 C   0  0  0  0  0  0
  -29.4087  -24.2516   19.9205 N   0  0  0  0  0  0
  -27.2696  -24.2765   20.8133 N   0  0  0  0  0  0
  -30.0415  -16.1302   20.5120 N   0  0  0  0  0  0
  -29.0415  -19.2368   20.5571 N   0  3  0  0  0  0
  -31.4571  -12.6477   19.1623 H   0  0  0  0  0  0
  -30.3849  -11.5713   20.0008 H   0  0  0  0  0  0
  -29.8070  -11.7175   17.5540 H   0  0  0  0  0  0
  -29.6090  -13.4471   17.6878 H   0  0  0  0  0  0
  -27.9114  -11.2737   18.9475 H   0  0  0  0  0  0
  -27.3716  -12.4797   17.8095 H   0  0  0  0  0  0
  -27.5984  -14.2385   19.4240 H   0  0  0  0  0  0
  -28.7630  -12.2346   21.4200 H   0  0  0  0  0  0
  -28.4077  -13.8886   21.7964 H   0  0  0  0  0  0
  -25.2745   -9.5689   22.4782 H   0  0  0  0  0  0
  -24.0002   -7.4624   22.7461 H   0  0  0  0  0  0
  -21.0841   -8.8790   19.8961 H   0  0  0  0  0  0
  -22.3697  -10.9686   19.6203 H   0  0  0  0  0  0
  -21.2000   -7.6147   23.9721 H   0  0  0  0  0  0
  -21.1486   -6.0513   25.9078 H   0  0  0  0  0  0
  -22.0594   -2.7610   23.2832 H   0  0  0  0  0  0
  -22.4002  -11.9920   22.4875 H   0  0  0  0  0  0
  -21.1028  -13.1306   22.2610 H   0  0  0  0  0  0
  -24.6103  -15.8173   20.4713 H   0  0  0  0  0  0
  -26.2025  -15.6080   19.9476 H   0  0  0  0  0  0
  -26.7197  -32.5369   23.1030 H   0  0  0  0  0  0
  -25.0036  -33.9654   25.0344 H   0  0  0  0  0  0
  -22.7300  -31.2949   21.3872 H   0  0  0  0  0  0
  -23.3727  -35.9657   23.3370 H   0  0  0  0  0  0
  -24.3560  -36.8842   22.2045 H   0  0  0  0  0  0
  -23.7300  -37.6527   23.6631 H   0  0  0  0  0  0
  -26.1224  -31.5010   20.6061 H   0  0  0  0  0  0
  -26.8570  -30.8009   22.0157 H   0  0  0  0  0  0
  -28.1150  -28.8759   21.2257 H   0  0  0  0  0  0
  -25.9678  -25.8773   18.9910 H   0  0  0  0  0  0
  -23.9743  -27.2975   18.9908 H   0  0  0  0  0  0
  -23.7899  -30.5751   19.3985 H   0  0  0  0  0  0
  -22.7698  -29.2413   19.8461 H   0  0  0  0  0  0
  -25.1320  -36.1908   25.0815 H   0  0  0  0  0  0
  -20.9994  -28.3273   24.1386 H   0  0  0  0  0  0
  -20.5683  -26.2299   23.3610 H   0  0  0  0  0  0
  -21.6648  -26.7424   22.1197 H   0  0  0  0  0  0
  -19.6907  -25.6282   21.1253 H   0  0  0  0  0  0
  -19.6690  -27.3179   20.6740 H   0  0  0  0  0  0
  -17.4197  -26.6652   21.4049 H   0  0  0  0  0  0
  -18.0351  -26.0078   22.9047 H   0  0  0  0  0  0
  -19.7941  -30.7270   24.2266 H   0  0  0  0  0  0
  -17.5020  -31.6270   24.5157 H   0  0  0  0  0  0
  -15.5358  -30.2989   23.7651 H   0  0  0  0  0  0
  -15.8678  -28.0820   22.7076 H   0  0  0  0  0  0
  -24.5816  -30.7217   25.7749 H   0  0  0  0  0  0
  -24.9020  -32.2965   26.4920 H   0  0  0  0  0  0
  -25.8014  -30.8851   27.0174 H   0  0  0  0  0  0
  -26.2898  -29.6716   24.1259 H   0  0  0  0  0  0
  -27.3978  -29.7247   25.4767 H   0  0  0  0  0  0
  -27.8808  -30.4205   23.9486 H   0  0  0  0  0  0
  -27.2654  -33.3628   26.2037 H   0  0  0  0  0  0
  -28.3868  -32.6882   25.0298 H   0  0  0  0  0  0
  -28.0726  -31.8458   26.5395 H   0  0  0  0  0  0
  -28.2643  -38.0052   24.7426 H   0  0  0  0  0  0
  -28.1009  -36.2573   24.6430 H   0  0  0  0  0  0
  -27.2264  -37.1624   25.8874 H   0  0  0  0  0  0
  -20.9395  -29.8772   21.6858 H   0  0  0  0  0  0
  -26.0185  -38.2840   24.1322 H   0  0  0  0  0  0
  -30.4495  -22.4446   19.8858 H   0  0  0  0  0  0
  -25.7828  -24.2048   23.0670 H   0  0  0  0  0  0
  -24.3341  -23.0837   22.9077 H   0  0  0  0  0  0
  -25.7301  -21.1563   23.6205 H   0  0  0  0  0  0
  -27.1890  -22.2667   23.7777 H   0  0  0  0  0  0
  -28.2491  -16.4672   19.5019 H   0  0  0  0  0  0
  -28.0318  -15.8804   21.1267 H   0  0  0  0  0  0
  -31.8950  -17.1942   20.4586 H   0  0  0  0  0  0
  -30.8855  -17.3958   19.0692 H   0  0  0  0  0  0
  -28.3079  -18.0301   22.1302 H   0  0  0  0  0  0
  -27.1873  -18.2276   20.8236 H   0  0  0  0  0  0
  -31.1079  -19.5407   20.2425 H   0  0  0  0  0  0
  -30.7155  -18.8147   21.7705 H   0  0  0  0  0  0
  -25.5527  -21.7384   21.1542 H   0  0  0  0  0  0
  -27.7381  -20.3473   21.7811 H   0  0  0  0  0  0
  -29.3688  -20.6669   22.1392 H   0  0  0  0  0  0
  -28.8415  -19.3455   19.5745 H   0  0  0  0  0  0
  1 25  1  0  0  0
  1 30  2  0  0  0
  1 85  1  0  0  0
  2  3  1  0  0  0
  2 25  1  0  0  0
  2 87  1  0  0  0
  2 88  1  0  0  0
  3  4  1  0  0  0
  3 89  1  0  0  0
  3 90  1  0  0  0
  4  5  1  0  0  0
  4 91  1  0  0  0
  4 92  1  0  0  0
  5  6  1  0  0  0
  5 26  1  0  0  0
  5 93  1  0  0  0
  6 25  1  0  0  0
  6 94  1  0  0  0
  6 95  1  0  0  0
  7  8  2  0  0  0
  7 26  1  0  0  0
  7 29  1  0  0  0
  8  9  1  0  0  0
  8 22  1  0  0  0
  9 10  1  0  0  0
  9 27  2  0  0  0
 10 11  2  0  0  0
 10 15  1  0  0  0
 11 12  1  0  0  0
 11 96  1  0  0  0
 12 13  2  0  0  0
 12 97  1  0  0  0
 13 14  1  0  0  0
 13 31  1  0  0  0
 14 15  2  0  0  0
 14 98  1  0  0  0
 15 99  1  0  0  0
 16 17  2  0  0  0
 16 21  1  0  0  0
 16 31  1  0  0  0
 17 18  1  0  0  0
 17100  1  0  0  0
 18 19  2  0  0  0
 18101  1  0  0  0
 19 20  1  0  0  0
 19 24  1  0  0  0
 20 21  2  0  0  0
 20102  1  0  0  0
 21 23  1  0  0  0
 22 28  1  0  0  0
 22 32  2  0  0  0
 26 27  1  0  0  0
 28103  1  0  0  0
 28104  1  0  0  0
 29105  1  0  0  0
 29106  1  0  0  0
 33 34  1  0  0  0
 33 66  1  0  0  0
 33 70  2  0  0  0
 34 36  1  0  0  0
 34 59  1  0  0  0
 34107  1  0  0  0
 35 44  2  0  0  0
 35 45  1  0  0  0
 35 68  1  0  0  0
 36 56  1  0  0  0
 36108  1  0  0  0
 37 39  1  0  0  0
 37 47  1  0  0  0
 37 66  1  0  0  0
 37109  1  0  0  0
 38 43  2  0  0  0
 38 46  1  0  0  0
 38 47  1  0  0  0
 39 64  1  0  0  0
 39 67  2  0  0  0
 40 52  1  0  0  0
 40 53  2  0  0  0
 40 58  1  0  0  0
 41110  1  0  0  0
 41111  1  0  0  0
 41112  1  0  0  0
 41 48  1  0  0  0
 42 43  1  0  0  0
 42 66  1  0  0  0
 42113  1  0  0  0
 42114  1  0  0  0
 43 44  1  0  0  0
 44115  1  0  0  0
 45 46  2  0  0  0
 45116  1  0  0  0
 46117  1  0  0  0
 47118  1  0  0  0
 47119  1  0  0  0
 48 56  1  0  0  0
 48 65  1  0  0  0
 48120  1  0  0  0
 49 50  1  0  0  0
 49 53  1  0  0  0
 49 64  1  0  0  0
 49121  1  0  0  0
 50 51  1  0  0  0
 50122  1  0  0  0
 50123  1  0  0  0
 51 52  1  0  0  0
 51124  1  0  0  0
 51125  1  0  0  0
 52126  1  0  0  0
 52127  1  0  0  0
 53 54  1  0  0  0
 54 55  2  0  0  0
 54128  1  0  0  0
 55 57  1  0  0  0
 55129  1  0  0  0
 56 69  2  0  0  0
 57 58  2  0  0  0
 57130  1  0  0  0
 58131  1  0  0  0
 59 60  1  0  0  0
 59 61  1  0  0  0
 59 62  1  0  0  0
 60132  1  0  0  0
 60133  1  0  0  0
 60134  1  0  0  0
 61135  1  0  0  0
 61136  1  0  0  0
 61137  1  0  0  0
 62138  1  0  0  0
 62139  1  0  0  0
 62140  1  0  0  0
 63 65  1  0  0  0
 63141  1  0  0  0
 63142  1  0  0  0
 63143  1  0  0  0
 64144  1  0  0  0
 65145  1  0  0  0
 68 74  1  0  0  0
 71 72  2  0  0  0
 71 83  1  0  0  0
 71146  1  0  0  0
 72 73  1  0  0  0
 72 82  1  0  0  0
 73 84  2  0  0  0
 73 81  1  0  0  0
 74 83  2  0  0  0
 74 84  1  0  0  0
 75 76  1  0  0  0
 75 81  1  0  0  0
 75147  1  0  0  0
 75148  1  0  0  0
 76 81  1  0  0  0
 76149  1  0  0  0
 76150  1  0  0  0
 77 79  1  0  0  0
 77 85  1  0  0  0
 77151  1  0  0  0
 77152  1  0  0  0
 78 80  1  0  0  0
 78 85  1  0  0  0
 78153  1  0  0  0
 78154  1  0  0  0
 79 86  1  0  0  0
 79155  1  0  0  0
 79156  1  0  0  0
 80 86  1  0  0  0
 80157  1  0  0  0
 80158  1  0  0  0
 81159  1  0  0  0
 82160  1  0  0  0
 82161  1  0  0  0
 82 86  1  0  0  0
 86162  1  0  0  0
M  CHG  1  86   1
M  ISO  4   1 100  68 101  74 101  85 100
M  END
> <chiral flag>
0

> <version>
0

> <s_m_source_file>
/data/baiqing/PycharmProjects/Reinvent-master-3.2/result/LINK_invent/BTK/process_docking_weight1_custom_sum_contain_oxygen_bond_distance_aromatic_linkinvent_7_9_3/rearranged_h_0182.sdf

> <i_m_source_file_index>
72

> <r_mmod_Potential_Energy-OPLS-2005>
52.7943229675293

> <r_mmod_Stretch_Energy-OPLS-2005>
150.986755371094

> <r_mmod_Bend_Energy-OPLS-2005>
276.176635742188

> <r_mmod_Torsional_Energy-OPLS-2005>
386.048492431641

> <r_mmod_Improper_Torsional_Energy-OPLS-2005>
10.312554359436

> <r_mmod_Van_der_Waal_Energy-OPLS-2005>
151.878433227539

> <r_mmod_Electrostatic_Energy-OPLS-2005>
-563.388488769531

> <r_mmod_Solvation_Energy-OPLS-2005>
-477.846160888672

> <b_mmod_Minimization_Converged-OPLS-2005>
0

> <r_mmod_RMS_Derivative-OPLS-2005>
1.76221919059753

$$$$
72
                    3D
 Structure written by MMmdl.
156165  0  0  1  0            999 V2000
  -30.5187  -15.0767   20.4405 C   0  0  0  0  0  0
  -30.4318  -12.6951   19.4973 C   0  0  0  0  0  0
  -29.5097  -12.5313   18.2653 C   0  0  0  0  0  0
  -28.0591  -12.2818   18.7065 C   0  0  0  0  0  0
  -27.6113  -13.2565   19.8271 C   0  0  2  0  0  0
  -28.6516  -13.3698   20.9600 C   0  0  0  0  0  0
  -25.2340  -13.8201   20.5658 C   0  0  0  0  0  0
  -24.1677  -13.0424   20.9205 C   0  0  0  0  0  0
  -24.6342  -11.6908   20.8771 C   0  0  0  0  0  0
  -23.9053  -10.4276   21.0430 C   0  0  0  0  0  0
  -24.3607   -9.4189   21.9211 C   0  0  0  0  0  0
  -23.6261   -8.2241   22.0795 C   0  0  0  0  0  0
  -22.4242   -8.0293   21.3588 C   0  0  0  0  0  0
  -21.9885   -9.0249   20.4680 C   0  0  0  0  0  0
  -22.7229  -10.2115   20.3084 C   0  0  0  0  0  0
  -21.6840   -6.0726   22.5267 C   0  0  0  0  0  0
  -21.4009   -6.5638   23.8197 C   0  0  0  0  0  0
  -21.3664   -5.6791   24.9156 C   0  0  0  0  0  0
  -21.6049   -4.3053   24.7208 C   0  0  0  0  0  0
  -21.8808   -3.8134   23.4335 C   0  0  0  0  0  0
  -21.9187   -4.6950   22.3387 C   0  0  0  0  0  0
  -22.7722  -13.5208   21.1864 C   0  0  0  0  0  0
  -22.1654   -4.2125   21.0964 F   0  0  0  0  0  0
  -21.5636   -3.4548   25.7739 F   0  0  0  0  0  0
  -29.9001  -13.8201   20.3336 N   0  0  0  0  0  0
  -26.2769  -12.9461   20.3191 N   0  0  0  0  0  0
  -25.9267  -11.6586   20.5743 N   0  0  0  0  0  0
  -22.0351  -12.8229   22.0448 N   0  0  0  0  0  0
  -25.3960  -15.1945   20.4133 N   0  0  0  0  0  0
  -31.7394  -15.0538   20.2185 O   0  0  0  0  0  0
  -21.6644   -6.8871   21.4241 O   0  0  0  0  0  0
  -22.3449  -14.5545   20.6744 O   0  0  0  0  0  0
  -24.6484  -31.8393   23.1827 C   0  0  0  0  0  0
  -25.9246  -32.4678   23.8185 C   0  0  1  0  0  0
  -27.2260  -27.0772   20.1732 C   0  0  0  0  0  0
  -25.5980  -33.8458   24.2140 N   0  0  0  0  0  0
  -23.4551  -30.4551   21.5247 C   0  0  2  0  0  0
  -24.9083  -28.8614   20.1083 C   0  0  0  0  0  0
  -22.7567  -29.4553   22.4805 C   0  0  0  0  0  0
  -18.0301  -28.1480   22.8483 C   0  0  0  0  0  0
  -24.1457  -36.7256   23.2640 C   0  0  0  0  0  0
  -26.0062  -30.7020   21.3790 C   0  0  0  0  0  0
  -26.0787  -29.2989   20.7351 C   0  0  0  0  0  0
  -27.2312  -28.4171   20.7504 C   0  0  0  0  0  0
  -26.0318  -26.7525   19.4960 C   0  0  0  0  0  0
  -24.9011  -27.6067   19.4731 C   0  0  0  0  0  0
  -23.6868  -29.7730   20.1453 C   0  0  0  0  0  0
  -25.4103  -36.3003   24.0285 C   0  0  1  0  0  0
  -20.5899  -28.3819   23.1191 C   0  0  2  0  0  0
  -20.6785  -26.9513   22.5423 C   0  0  0  0  0  0
  -19.5755  -26.6452   21.5219 C   0  0  0  0  0  0
  -18.1935  -26.8033   22.1636 C   0  0  0  0  0  0
  -19.1554  -28.8977   23.2837 C   0  0  0  0  0  0
  -18.9494  -30.1561   23.8880 C   0  0  0  0  0  0
  -17.6487  -30.6656   24.0603 C   0  0  0  0  0  0
  -25.9067  -34.9398   23.5035 C   0  0  0  0  0  0
  -16.5373  -29.9169   23.6357 C   0  0  0  0  0  0
  -16.7287  -28.6608   23.0352 C   0  0  0  0  0  0
  -26.4558  -31.6590   25.0666 C   0  0  0  0  0  0
  -25.3732  -31.3851   26.1387 C   0  0  0  0  0  0
  -27.0438  -30.2976   24.6312 C   0  0  0  0  0  0
  -27.6064  -32.4363   25.7500 C   0  0  0  0  0  0
  -27.5516  -37.1802   24.8465 C   0  0  0  0  0  0
  -21.4273  -29.3126   22.3563 N   0  0  0  0  0  0
  -26.4250  -37.3730   23.9375 N   0  0  0  0  0  0
  -24.7225  -31.0187   22.0875 N   0  0  0  0  0  0
  -23.4206  -28.8134   23.2981 O   0  0  0  0  0  0
  -28.2909  -26.0930   20.3126 O   0  0  0  0  0  0
  -26.5605  -34.8905   22.4579 O   0  0  0  0  0  0
  -23.5599  -32.1273   23.7040 O   0  0  0  0  0  0
  -31.7624  -18.1991   22.9170 C   0  0  0  0  0  0
  -29.9672  -19.2420   21.0736 C   0  0  0  0  0  0
  -31.5897  -19.5733   22.7813 C   0  0  0  0  0  0
  -30.2471  -17.7035   21.1472 C   0  0  0  0  0  0
  -28.9054  -20.2880   20.4177 C   0  0  0  0  0  0
  -32.3257  -22.0311   23.5367 C   0  0  0  0  0  0
  -33.5538  -21.2429   23.1453 C   0  0  0  0  0  0
  -32.3315  -20.5266   23.6765 C   0  0  0  0  0  0
  -28.2624  -23.0773   20.6549 C   0  0  0  0  0  0
  -28.3975  -24.5820   19.8313 C   0  0  0  0  0  0
  -31.1350  -17.3309   22.1149 N   0  0  0  0  0  0
  -30.7241  -20.0625   21.8747 N   0  0  0  0  0  0
  -29.8110  -16.3510   20.5115 N   0  0  0  0  0  0
  -29.1210  -21.7195   20.4895 N   0  0  0  0  0  0
  -27.8514  -19.8559   19.9439 O   0  0  0  0  0  0
  -31.4492  -12.8853   19.1545 H   0  0  0  0  0  0
  -30.4819  -11.7726   20.0824 H   0  0  0  0  0  0
  -29.8553  -11.7133   17.6311 H   0  0  0  0  0  0
  -29.5522  -13.4318   17.6531 H   0  0  0  0  0  0
  -28.0076  -11.2570   19.0788 H   0  0  0  0  0  0
  -27.3813  -12.3326   17.8556 H   0  0  0  0  0  0
  -27.5448  -14.2342   19.3528 H   0  0  0  0  0  0
  -28.7705  -12.4194   21.4800 H   0  0  0  0  0  0
  -28.3234  -14.1017   21.7014 H   0  0  0  0  0  0
  -25.2739   -9.5662   22.4797 H   0  0  0  0  0  0
  -23.9951   -7.4641   22.7547 H   0  0  0  0  0  0
  -21.0801   -8.8804   19.9004 H   0  0  0  0  0  0
  -22.3702  -10.9678   19.6212 H   0  0  0  0  0  0
  -21.2025   -7.6154   23.9674 H   0  0  0  0  0  0
  -21.1498   -6.0544   25.9056 H   0  0  0  0  0  0
  -22.0591   -2.7601   23.2831 H   0  0  0  0  0  0
  -22.3956  -11.9876   22.4819 H   0  0  0  0  0  0
  -21.1030  -13.1366   22.2745 H   0  0  0  0  0  0
  -24.6152  -15.8354   20.5001 H   0  0  0  0  0  0
  -26.2354  -15.6420   20.0690 H   0  0  0  0  0  0
  -26.7304  -32.5337   23.0899 H   0  0  0  0  0  0
  -25.0123  -33.9531   25.0301 H   0  0  0  0  0  0
  -22.7624  -31.2831   21.3629 H   0  0  0  0  0  0
  -23.3659  -35.9642   23.3376 H   0  0  0  0  0  0
  -24.3501  -36.8855   22.2037 H   0  0  0  0  0  0
  -23.7344  -37.6523   23.6649 H   0  0  0  0  0  0
  -26.1313  -31.4478   20.5928 H   0  0  0  0  0  0
  -26.8808  -30.7810   22.0138 H   0  0  0  0  0  0
  -28.1233  -28.7395   21.2647 H   0  0  0  0  0  0
  -25.9366  -25.7903   19.0149 H   0  0  0  0  0  0
  -24.0048  -27.2768   18.9677 H   0  0  0  0  0  0
  -23.8350  -30.5435   19.3870 H   0  0  0  0  0  0
  -22.7990  -29.2195   19.8349 H   0  0  0  0  0  0
  -25.1316  -36.1790   25.0770 H   0  0  0  0  0  0
  -20.9990  -28.3484   24.1305 H   0  0  0  0  0  0
  -20.5674  -26.2460   23.3690 H   0  0  0  0  0  0
  -21.6648  -26.7545   22.1215 H   0  0  0  0  0  0
  -19.6897  -25.6345   21.1317 H   0  0  0  0  0  0
  -19.6662  -27.3204   20.6701 H   0  0  0  0  0  0
  -17.4205  -26.6770   21.4052 H   0  0  0  0  0  0
  -18.0311  -26.0181   22.9030 H   0  0  0  0  0  0
  -19.7954  -30.7381   24.2234 H   0  0  0  0  0  0
  -17.5045  -31.6314   24.5252 H   0  0  0  0  0  0
  -15.5386  -30.3072   23.7708 H   0  0  0  0  0  0
  -15.8685  -28.0954   22.7027 H   0  0  0  0  0  0
  -24.5901  -30.7201   25.7740 H   0  0  0  0  0  0
  -24.8942  -32.3067   26.4681 H   0  0  0  0  0  0
  -25.7999  -30.9154   27.0265 H   0  0  0  0  0  0
  -26.3091  -29.6690   24.1292 H   0  0  0  0  0  0
  -27.3994  -29.7315   25.4928 H   0  0  0  0  0  0
  -27.8980  -30.4158   23.9653 H   0  0  0  0  0  0
  -27.2627  -33.3686   26.1973 H   0  0  0  0  0  0
  -28.3945  -32.6910   25.0407 H   0  0  0  0  0  0
  -28.0618  -31.8584   26.5560 H   0  0  0  0  0  0
  -28.2617  -38.0001   24.7343 H   0  0  0  0  0  0
  -28.0924  -36.2546   24.6482 H   0  0  0  0  0  0
  -27.2204  -37.1695   25.8862 H   0  0  0  0  0  0
  -20.9523  -29.8844   21.6732 H   0  0  0  0  0  0
  -26.0108  -38.2785   24.1391 H   0  0  0  0  0  0
  -32.4161  -17.7912   23.6727 H   0  0  0  0  0  0
  -31.7207  -22.4690   22.7466 H   0  0  0  0  0  0
  -32.4012  -22.6193   24.4468 H   0  0  0  0  0  0
  -34.4231  -21.2779   23.8011 H   0  0  0  0  0  0
  -33.7745  -21.1695   22.0812 H   0  0  0  0  0  0
  -32.3890  -20.1370   24.6920 H   0  0  0  0  0  0
  -27.2066  -22.8056   20.6765 H   0  0  0  0  0  0
  -28.4726  -23.3479   21.6903 H   0  0  0  0  0  0
  -27.8114  -24.5014   18.9179 H   0  0  0  0  0  0
  -29.4256  -24.5595   19.4655 H   0  0  0  0  0  0
  -28.8291  -16.2928   20.2893 H   0  0  0  0  0  0
  -30.0635  -21.8477   20.8396 H   0  0  0  0  0  0
  1 25  1  0  0  0
  1 30  2  0  0  0
  1 83  1  0  0  0
  2  3  1  0  0  0
  2 25  1  0  0  0
  2 86  1  0  0  0
  2 87  1  0  0  0
  3  4  1  0  0  0
  3 88  1  0  0  0
  3 89  1  0  0  0
  4  5  1  0  0  0
  4 90  1  0  0  0
  4 91  1  0  0  0
  5  6  1  0  0  0
  5 26  1  0  0  0
  5 92  1  0  0  0
  6 25  1  0  0  0
  6 93  1  0  0  0
  6 94  1  0  0  0
  7  8  2  0  0  0
  7 26  1  0  0  0
  7 29  1  0  0  0
  8  9  1  0  0  0
  8 22  1  0  0  0
  9 10  1  0  0  0
  9 27  2  0  0  0
 10 11  2  0  0  0
 10 15  1  0  0  0
 11 12  1  0  0  0
 11 95  1  0  0  0
 12 13  2  0  0  0
 12 96  1  0  0  0
 13 14  1  0  0  0
 13 31  1  0  0  0
 14 15  2  0  0  0
 14 97  1  0  0  0
 15 98  1  0  0  0
 16 17  2  0  0  0
 16 21  1  0  0  0
 16 31  1  0  0  0
 17 18  1  0  0  0
 17 99  1  0  0  0
 18 19  2  0  0  0
 18100  1  0  0  0
 19 20  1  0  0  0
 19 24  1  0  0  0
 20 21  2  0  0  0
 20101  1  0  0  0
 21 23  1  0  0  0
 22 28  1  0  0  0
 22 32  2  0  0  0
 26 27  1  0  0  0
 28102  1  0  0  0
 28103  1  0  0  0
 29104  1  0  0  0
 29105  1  0  0  0
 33 34  1  0  0  0
 33 66  1  0  0  0
 33 70  2  0  0  0
 34 36  1  0  0  0
 34 59  1  0  0  0
 34106  1  0  0  0
 35 44  2  0  0  0
 35 45  1  0  0  0
 35 68  1  0  0  0
 36 56  1  0  0  0
 36107  1  0  0  0
 37 39  1  0  0  0
 37 47  1  0  0  0
 37 66  1  0  0  0
 37108  1  0  0  0
 38 43  2  0  0  0
 38 46  1  0  0  0
 38 47  1  0  0  0
 39 64  1  0  0  0
 39 67  2  0  0  0
 40 52  1  0  0  0
 40 53  2  0  0  0
 40 58  1  0  0  0
 41109  1  0  0  0
 41110  1  0  0  0
 41111  1  0  0  0
 41 48  1  0  0  0
 42 43  1  0  0  0
 42 66  1  0  0  0
 42112  1  0  0  0
 42113  1  0  0  0
 43 44  1  0  0  0
 44114  1  0  0  0
 45 46  2  0  0  0
 45115  1  0  0  0
 46116  1  0  0  0
 47117  1  0  0  0
 47118  1  0  0  0
 48 56  1  0  0  0
 48 65  1  0  0  0
 48119  1  0  0  0
 49 50  1  0  0  0
 49 53  1  0  0  0
 49 64  1  0  0  0
 49120  1  0  0  0
 50 51  1  0  0  0
 50121  1  0  0  0
 50122  1  0  0  0
 51 52  1  0  0  0
 51123  1  0  0  0
 51124  1  0  0  0
 52125  1  0  0  0
 52126  1  0  0  0
 53 54  1  0  0  0
 54 55  2  0  0  0
 54127  1  0  0  0
 55 57  1  0  0  0
 55128  1  0  0  0
 56 69  2  0  0  0
 57 58  2  0  0  0
 57129  1  0  0  0
 58130  1  0  0  0
 59 60  1  0  0  0
 59 61  1  0  0  0
 59 62  1  0  0  0
 60131  1  0  0  0
 60132  1  0  0  0
 60133  1  0  0  0
 61134  1  0  0  0
 61135  1  0  0  0
 61136  1  0  0  0
 62137  1  0  0  0
 62138  1  0  0  0
 62139  1  0  0  0
 63 65  1  0  0  0
 63140  1  0  0  0
 63141  1  0  0  0
 63142  1  0  0  0
 64143  1  0  0  0
 65144  1  0  0  0
 68 80  1  0  0  0
 71 73  2  0  0  0
 71 81  1  0  0  0
 71145  1  0  0  0
 72 74  1  0  0  0
 72 75  1  0  0  0
 72 82  2  0  0  0
 73 82  1  0  0  0
 73 78  1  0  0  0
 74 81  2  0  0  0
 74 83  1  0  0  0
 75 84  1  0  0  0
 75 85  2  0  0  0
 76 77  1  0  0  0
 76 78  1  0  0  0
 76146  1  0  0  0
 76147  1  0  0  0
 77 78  1  0  0  0
 77148  1  0  0  0
 77149  1  0  0  0
 78150  1  0  0  0
 79 80  1  0  0  0
 79 84  1  0  0  0
 79151  1  0  0  0
 79152  1  0  0  0
 80153  1  0  0  0
 80154  1  0  0  0
 83155  1  0  0  0
 84156  1  0  0  0
M  ISO  4   1 100  68 101  80 101  83 100
M  END
> <chiral flag>
0

> <version>
0

> <s_m_source_file>
/data/baiqing/PycharmProjects/Reinvent-master-3.2/result/LINK_invent/BTK/process_docking_weight1_custom_sum_contain_oxygen_bond_distance_aromatic_linkinvent_7_9_3/rearranged_h_0182.sdf

> <i_m_source_file_index>
73

> <r_mmod_Potential_Energy-OPLS-2005>
996.593933105469

> <r_mmod_Stretch_Energy-OPLS-2005>
380.225891113281

> <r_mmod_Bend_Energy-OPLS-2005>
460.499237060547

> <r_mmod_Torsional_Energy-OPLS-2005>
279.691345214844

> <r_mmod_Improper_Torsional_Energy-OPLS-2005>
9.92674922943115

> <r_mmod_Van_der_Waal_Energy-OPLS-2005>
139.4716796875

> <r_mmod_Electrostatic_Energy-OPLS-2005>
-300.668090820312

> <r_mmod_Solvation_Energy-OPLS-2005>
-246.137664794922

> <b_mmod_Minimization_Converged-OPLS-2005>
0

> <r_mmod_RMS_Derivative-OPLS-2005>
6.23642063140869

$$$$
73
                    3D
 Structure written by MMmdl.
160169  0  0  1  0            999 V2000
  -30.5935  -14.7713   20.4527 C   0  0  0  0  0  0
  -30.4367  -12.4663   19.5029 C   0  0  0  0  0  0
  -29.5355  -12.5089   18.2475 C   0  0  0  0  0  0
  -28.0518  -12.3474   18.6458 C   0  0  0  0  0  0
  -27.6408  -13.2441   19.8473 C   0  0  2  0  0  0
  -28.6717  -13.1955   20.9918 C   0  0  0  0  0  0
  -25.2493  -13.8193   20.5691 C   0  0  0  0  0  0
  -24.1803  -13.0428   20.9163 C   0  0  0  0  0  0
  -24.6406  -11.6919   20.8698 C   0  0  0  0  0  0
  -23.9079  -10.4280   21.0384 C   0  0  0  0  0  0
  -24.3652   -9.4198   21.9156 C   0  0  0  0  0  0
  -23.6318   -8.2239   22.0772 C   0  0  0  0  0  0
  -22.4274   -8.0315   21.3589 C   0  0  0  0  0  0
  -21.9881   -9.0263   20.4687 C   0  0  0  0  0  0
  -22.7223  -10.2126   20.3064 C   0  0  0  0  0  0
  -21.6845   -6.0757   22.5284 C   0  0  0  0  0  0
  -21.4020   -6.5642   23.8223 C   0  0  0  0  0  0
  -21.3652   -5.6799   24.9159 C   0  0  0  0  0  0
  -21.6027   -4.3073   24.7203 C   0  0  0  0  0  0
  -21.8811   -3.8166   23.4321 C   0  0  0  0  0  0
  -21.9181   -4.6988   22.3379 C   0  0  0  0  0  0
  -22.7826  -13.5216   21.1823 C   0  0  0  0  0  0
  -22.1661   -4.2174   21.0974 F   0  0  0  0  0  0
  -21.5609   -3.4551   25.7714 F   0  0  0  0  0  0
  -29.9721  -13.5410   20.4139 N   0  0  0  0  0  0
  -26.2941  -12.9424   20.3229 N   0  0  0  0  0  0
  -25.9330  -11.6546   20.5670 N   0  0  0  0  0  0
  -22.0459  -12.8274   22.0422 N   0  0  0  0  0  0
  -25.4112  -15.1921   20.4143 N   0  0  0  0  0  0
  -31.7908  -14.8456   20.1774 O   0  0  0  0  0  0
  -21.6651   -6.8909   21.4274 O   0  0  0  0  0  0
  -22.3500  -14.5514   20.6662 O   0  0  0  0  0  0
  -24.6343  -31.8546   23.1991 C   0  0  0  0  0  0
  -25.9151  -32.4776   23.8332 C   0  0  1  0  0  0
  -27.2121  -27.2355   20.1233 C   0  0  0  0  0  0
  -25.5932  -33.8568   24.2250 N   0  0  0  0  0  0
  -23.4344  -30.4773   21.5468 C   0  0  2  0  0  0
  -24.8812  -28.9300   20.1140 C   0  0  0  0  0  0
  -22.7525  -29.4590   22.4946 C   0  0  0  0  0  0
  -18.0294  -28.1426   22.8497 C   0  0  0  0  0  0
  -24.1483  -36.7293   23.2618 C   0  0  0  0  0  0
  -25.9844  -30.7587   21.3865 C   0  0  0  0  0  0
  -26.0586  -29.3823   20.7243 C   0  0  0  0  0  0
  -27.2282  -28.5484   20.7161 C   0  0  0  0  0  0
  -26.0087  -26.8700   19.4710 C   0  0  0  0  0  0
  -24.8642  -27.6848   19.4762 C   0  0  0  0  0  0
  -23.6554  -29.8213   20.1606 C   0  0  0  0  0  0
  -25.4110  -36.3084   24.0316 C   0  0  1  0  0  0
  -20.5891  -28.3730   23.1295 C   0  0  2  0  0  0
  -20.6814  -26.9455   22.5429 C   0  0  0  0  0  0
  -19.5788  -26.6409   21.5245 C   0  0  0  0  0  0
  -18.1957  -26.7977   22.1635 C   0  0  0  0  0  0
  -19.1545  -28.8908   23.2893 C   0  0  0  0  0  0
  -18.9455  -30.1502   23.8907 C   0  0  0  0  0  0
  -17.6458  -30.6625   24.0583 C   0  0  0  0  0  0
  -25.9054  -34.9466   23.5093 C   0  0  0  0  0  0
  -16.5360  -29.9125   23.6335 C   0  0  0  0  0  0
  -16.7287  -28.6557   23.0354 C   0  0  0  0  0  0
  -26.4498  -31.6612   25.0730 C   0  0  0  0  0  0
  -25.3675  -31.3806   26.1416 C   0  0  0  0  0  0
  -27.0323  -30.3020   24.6225 C   0  0  0  0  0  0
  -27.6065  -32.4352   25.7495 C   0  0  0  0  0  0
  -27.5606  -37.1781   24.8431 C   0  0  0  0  0  0
  -21.4231  -29.3055   22.3673 N   0  0  0  0  0  0
  -26.4280  -37.3810   23.9435 N   0  0  0  0  0  0
  -24.7045  -31.0471   22.0999 N   0  0  0  0  0  0
  -23.4230  -28.8122   23.3036 O   0  0  0  0  0  0
  -28.2745  -26.2939   20.1882 O   0  0  0  0  0  0
  -26.5638  -34.8944   22.4661 O   0  0  0  0  0  0
  -23.5488  -32.1386   23.7246 O   0  0  0  0  0  0
  -30.3496  -23.9281   20.3542 C   0  0  0  0  0  0
  -28.9729  -23.6346   20.3078 C   0  0  0  0  0  0
  -30.9044  -21.6680   20.5697 C   0  0  0  0  0  0
  -29.5301  -21.2685   20.5274 C   0  0  0  0  0  0
  -29.8572  -18.6934   18.7002 C   0  0  0  0  0  0
  -30.9332  -17.6591   19.0845 C   0  0  0  0  0  0
  -29.2052  -18.5883   20.0873 C   0  0  1  0  0  0
  -30.2588  -17.3989   20.4579 C   0  0  1  0  0  0
  -33.3175  -20.9297   20.0286 C   0  0  0  0  0  0
  -32.0522  -20.7171   20.9008 C   0  0  0  0  0  0
  -27.9183  -24.8204   20.1142 C   0  0  0  0  0  0
  -31.2924  -22.9660   20.4875 N   0  0  0  0  0  0
  -28.5777  -22.2871   20.3932 N   0  0  0  0  0  0
  -29.1445  -19.9056   20.8700 N   0  0  0  0  0  0
  -29.8196  -15.9278   20.5759 N   0  0  0  0  0  0
  -31.4878  -12.5832   19.2308 H   0  0  0  0  0  0
  -30.3672  -11.4983   19.9994 H   0  0  0  0  0  0
  -29.8224  -11.7211   17.5463 H   0  0  0  0  0  0
  -29.6859  -13.4571   17.7265 H   0  0  0  0  0  0
  -27.9027  -11.3008   18.9064 H   0  0  0  0  0  0
  -27.4062  -12.5455   17.7885 H   0  0  0  0  0  0
  -27.6308  -14.2637   19.4617 H   0  0  0  0  0  0
  -28.6990  -12.2040   21.4495 H   0  0  0  0  0  0
  -28.3981  -13.8931   21.7879 H   0  0  0  0  0  0
  -25.2797   -9.5658   22.4721 H   0  0  0  0  0  0
  -24.0010   -7.4626   22.7493 H   0  0  0  0  0  0
  -21.0805   -8.8777   19.9025 H   0  0  0  0  0  0
  -22.3695  -10.9651   19.6182 H   0  0  0  0  0  0
  -21.2080   -7.6159   23.9720 H   0  0  0  0  0  0
  -21.1469   -6.0543   25.9070 H   0  0  0  0  0  0
  -22.0606   -2.7636   23.2792 H   0  0  0  0  0  0
  -22.4042  -11.9976   22.4901 H   0  0  0  0  0  0
  -21.1088  -13.1343   22.2595 H   0  0  0  0  0  0
  -24.6342  -15.8329   20.5345 H   0  0  0  0  0  0
  -26.2466  -15.6417   20.0663 H   0  0  0  0  0  0
  -26.7210  -32.5423   23.1066 H   0  0  0  0  0  0
  -25.0102  -33.9724   25.0409 H   0  0  0  0  0  0
  -22.7344  -31.3016   21.4027 H   0  0  0  0  0  0
  -23.3796  -35.9565   23.3211 H   0  0  0  0  0  0
  -24.3605  -36.8995   22.2045 H   0  0  0  0  0  0
  -23.7171  -37.6441   23.6703 H   0  0  0  0  0  0
  -26.1201  -31.5215   20.6195 H   0  0  0  0  0  0
  -26.8629  -30.8106   22.0183 H   0  0  0  0  0  0
  -28.1304  -28.8835   21.2112 H   0  0  0  0  0  0
  -25.9058  -25.9297   18.9538 H   0  0  0  0  0  0
  -23.9699  -27.3326   18.9839 H   0  0  0  0  0  0
  -23.7985  -30.6034   19.4139 H   0  0  0  0  0  0
  -22.7722  -29.2656   19.8417 H   0  0  0  0  0  0
  -25.1282  -36.1921   25.0811 H   0  0  0  0  0  0
  -20.9969  -28.3306   24.1416 H   0  0  0  0  0  0
  -20.5783  -26.2315   23.3614 H   0  0  0  0  0  0
  -21.6677  -26.7546   22.1176 H   0  0  0  0  0  0
  -19.6945  -25.6308   21.1306 H   0  0  0  0  0  0
  -19.6724  -27.3194   20.6755 H   0  0  0  0  0  0
  -17.4223  -26.6719   21.4038 H   0  0  0  0  0  0
  -18.0348  -26.0139   22.9044 H   0  0  0  0  0  0
  -19.7922  -30.7338   24.2277 H   0  0  0  0  0  0
  -17.5004  -31.6292   24.5191 H   0  0  0  0  0  0
  -15.5367  -30.3026   23.7675 H   0  0  0  0  0  0
  -15.8685  -28.0885   22.7059 H   0  0  0  0  0  0
  -24.5843  -30.7180   25.7725 H   0  0  0  0  0  0
  -24.8851  -32.2982   26.4790 H   0  0  0  0  0  0
  -25.7907  -30.8994   27.0229 H   0  0  0  0  0  0
  -26.2894  -29.6807   24.1200 H   0  0  0  0  0  0
  -27.3941  -29.7279   25.4763 H   0  0  0  0  0  0
  -27.8819  -30.4316   23.9518 H   0  0  0  0  0  0
  -27.2702  -33.3681   26.2043 H   0  0  0  0  0  0
  -28.3870  -32.6862   25.0300 H   0  0  0  0  0  0
  -28.0724  -31.8475   26.5412 H   0  0  0  0  0  0
  -28.2523  -38.0180   24.7678 H   0  0  0  0  0  0
  -28.1221  -36.2745   24.6016 H   0  0  0  0  0  0
  -27.2381  -37.1133   25.8838 H   0  0  0  0  0  0
  -20.9431  -29.8713   21.6812 H   0  0  0  0  0  0
  -26.0155  -38.2859   24.1552 H   0  0  0  0  0  0
  -30.7108  -24.9432   20.2806 H   0  0  0  0  0  0
  -29.1981  -18.3384   17.9024 H   0  0  0  0  0  0
  -30.2581  -19.6726   18.4514 H   0  0  0  0  0  0
  -31.9330  -18.0957   19.1736 H   0  0  0  0  0  0
  -30.9706  -16.8128   18.3938 H   0  0  0  0  0  0
  -28.1917  -18.1909   19.9906 H   0  0  0  0  0  0
  -30.9101  -17.6880   21.2855 H   0  0  0  0  0  0
  -33.1054  -20.7903   18.9649 H   0  0  0  0  0  0
  -34.0898  -20.2112   20.3095 H   0  0  0  0  0  0
  -33.7580  -21.9237   20.1522 H   0  0  0  0  0  0
  -31.7250  -19.6916   20.7649 H   0  0  0  0  0  0
  -32.2699  -20.8148   21.9672 H   0  0  0  0  0  0
  -27.1155  -24.6460   20.8341 H   0  0  0  0  0  0
  -27.5050  -24.6232   19.1266 H   0  0  0  0  0  0
  -29.2640  -19.7417   21.8687 H   0  0  0  0  0  0
  -28.8476  -15.7830   20.8033 H   0  0  0  0  0  0
  1 25  1  0  0  0
  1 30  2  0  0  0
  1 85  1  0  0  0
  2  3  1  0  0  0
  2 25  1  0  0  0
  2 86  1  0  0  0
  2 87  1  0  0  0
  3  4  1  0  0  0
  3 88  1  0  0  0
  3 89  1  0  0  0
  4  5  1  0  0  0
  4 90  1  0  0  0
  4 91  1  0  0  0
  5  6  1  0  0  0
  5 26  1  0  0  0
  5 92  1  0  0  0
  6 25  1  0  0  0
  6 93  1  0  0  0
  6 94  1  0  0  0
  7  8  2  0  0  0
  7 26  1  0  0  0
  7 29  1  0  0  0
  8  9  1  0  0  0
  8 22  1  0  0  0
  9 10  1  0  0  0
  9 27  2  0  0  0
 10 11  2  0  0  0
 10 15  1  0  0  0
 11 12  1  0  0  0
 11 95  1  0  0  0
 12 13  2  0  0  0
 12 96  1  0  0  0
 13 14  1  0  0  0
 13 31  1  0  0  0
 14 15  2  0  0  0
 14 97  1  0  0  0
 15 98  1  0  0  0
 16 17  2  0  0  0
 16 21  1  0  0  0
 16 31  1  0  0  0
 17 18  1  0  0  0
 17 99  1  0  0  0
 18 19  2  0  0  0
 18100  1  0  0  0
 19 20  1  0  0  0
 19 24  1  0  0  0
 20 21  2  0  0  0
 20101  1  0  0  0
 21 23  1  0  0  0
 22 28  1  0  0  0
 22 32  2  0  0  0
 26 27  1  0  0  0
 28102  1  0  0  0
 28103  1  0  0  0
 29104  1  0  0  0
 29105  1  0  0  0
 33 34  1  0  0  0
 33 66  1  0  0  0
 33 70  2  0  0  0
 34 36  1  0  0  0
 34 59  1  0  0  0
 34106  1  0  0  0
 35 44  2  0  0  0
 35 45  1  0  0  0
 35 68  1  0  0  0
 36 56  1  0  0  0
 36107  1  0  0  0
 37 39  1  0  0  0
 37 47  1  0  0  0
 37 66  1  0  0  0
 37108  1  0  0  0
 38 43  2  0  0  0
 38 46  1  0  0  0
 38 47  1  0  0  0
 39 64  1  0  0  0
 39 67  2  0  0  0
 40 52  1  0  0  0
 40 53  2  0  0  0
 40 58  1  0  0  0
 41109  1  0  0  0
 41110  1  0  0  0
 41111  1  0  0  0
 41 48  1  0  0  0
 42 43  1  0  0  0
 42 66  1  0  0  0
 42112  1  0  0  0
 42113  1  0  0  0
 43 44  1  0  0  0
 44114  1  0  0  0
 45 46  2  0  0  0
 45115  1  0  0  0
 46116  1  0  0  0
 47117  1  0  0  0
 47118  1  0  0  0
 48 56  1  0  0  0
 48 65  1  0  0  0
 48119  1  0  0  0
 49 50  1  0  0  0
 49 53  1  0  0  0
 49 64  1  0  0  0
 49120  1  0  0  0
 50 51  1  0  0  0
 50121  1  0  0  0
 50122  1  0  0  0
 51 52  1  0  0  0
 51123  1  0  0  0
 51124  1  0  0  0
 52125  1  0  0  0
 52126  1  0  0  0
 53 54  1  0  0  0
 54 55  2  0  0  0
 54127  1  0  0  0
 55 57  1  0  0  0
 55128  1  0  0  0
 56 69  2  0  0  0
 57 58  2  0  0  0
 57129  1  0  0  0
 58130  1  0  0  0
 59 60  1  0  0  0
 59 61  1  0  0  0
 59 62  1  0  0  0
 60131  1  0  0  0
 60132  1  0  0  0
 60133  1  0  0  0
 61134  1  0  0  0
 61135  1  0  0  0
 61136  1  0  0  0
 62137  1  0  0  0
 62138  1  0  0  0
 62139  1  0  0  0
 63 65  1  0  0  0
 63140  1  0  0  0
 63141  1  0  0  0
 63142  1  0  0  0
 64143  1  0  0  0
 65144  1  0  0  0
 68 81  1  0  0  0
 71 72  2  0  0  0
 71 82  1  0  0  0
 71145  1  0  0  0
 72 81  1  0  0  0
 72 83  1  0  0  0
 73 74  1  0  0  0
 73 80  1  0  0  0
 73 82  2  0  0  0
 74 83  2  0  0  0
 74 84  1  0  0  0
 75 76  1  0  0  0
 75 77  1  0  0  0
 75146  1  0  0  0
 75147  1  0  0  0
 76 78  1  0  0  0
 76148  1  0  0  0
 76149  1  0  0  0
 77 78  1  0  0  0
 77 84  1  0  0  0
 77150  1  0  0  0
 78 85  1  0  0  0
 78151  1  0  0  0
 79 80  1  0  0  0
 79152  1  0  0  0
 79153  1  0  0  0
 79154  1  0  0  0
 80155  1  0  0  0
 80156  1  0  0  0
 81157  1  0  0  0
 81158  1  0  0  0
 84159  1  0  0  0
 85160  1  0  0  0
M  ISO  4   1 100  68 101  81 101  85 100
M  END
> <chiral flag>
0

> <version>
0

> <s_m_source_file>
/data/baiqing/PycharmProjects/Reinvent-master-3.2/result/LINK_invent/BTK/process_docking_weight1_custom_sum_contain_oxygen_bond_distance_aromatic_linkinvent_7_9_3/rearranged_h_0182.sdf

> <i_m_source_file_index>
74

> <r_mmod_Potential_Energy-OPLS-2005>
285.416229248047

> <r_mmod_Stretch_Energy-OPLS-2005>
145.348175048828

> <r_mmod_Bend_Energy-OPLS-2005>
204.224914550781

> <r_mmod_Torsional_Energy-OPLS-2005>
298.218109130859

> <r_mmod_Improper_Torsional_Energy-OPLS-2005>
9.45265769958496

> <r_mmod_Van_der_Waal_Energy-OPLS-2005>
144.081680297852

> <r_mmod_Electrostatic_Energy-OPLS-2005>
-387.816589355469

> <r_mmod_Solvation_Energy-OPLS-2005>
-232.66618347168

> <b_mmod_Minimization_Converged-OPLS-2005>
0

> <r_mmod_RMS_Derivative-OPLS-2005>
6.84955310821533

$$$$
74
                    3D
 Structure written by MMmdl.
151160  0  0  1  0            999 V2000
  -30.5286  -15.0753   20.3984 C   0  0  0  0  0  0
  -30.4392  -12.6837   19.4938 C   0  0  0  0  0  0
  -29.5267  -12.5565   18.2530 C   0  0  0  0  0  0
  -28.0655  -12.3126   18.6760 C   0  0  0  0  0  0
  -27.6246  -13.2483   19.8318 C   0  0  2  0  0  0
  -28.6733  -13.3240   20.9621 C   0  0  0  0  0  0
  -25.2438  -13.8187   20.5731 C   0  0  0  0  0  0
  -24.1750  -13.0421   20.9210 C   0  0  0  0  0  0
  -24.6381  -11.6913   20.8748 C   0  0  0  0  0  0
  -23.9069  -10.4287   21.0404 C   0  0  0  0  0  0
  -24.3619   -9.4209   21.9185 C   0  0  0  0  0  0
  -23.6292   -8.2245   22.0766 C   0  0  0  0  0  0
  -22.4276   -8.0283   21.3550 C   0  0  0  0  0  0
  -21.9911   -9.0259   20.4662 C   0  0  0  0  0  0
  -22.7250  -10.2126   20.3063 C   0  0  0  0  0  0
  -21.6853   -6.0749   22.5288 C   0  0  0  0  0  0
  -21.4020   -6.5642   23.8222 C   0  0  0  0  0  0
  -21.3652   -5.6790   24.9175 C   0  0  0  0  0  0
  -21.6037   -4.3059   24.7220 C   0  0  0  0  0  0
  -21.8812   -3.8155   23.4338 C   0  0  0  0  0  0
  -21.9186   -4.6978   22.3401 C   0  0  0  0  0  0
  -22.7774  -13.5226   21.1834 C   0  0  0  0  0  0
  -22.1653   -4.2165   21.0969 F   0  0  0  0  0  0
  -21.5628   -3.4536   25.7723 F   0  0  0  0  0  0
  -29.9152  -13.8069   20.3401 N   0  0  0  0  0  0
  -26.2871  -12.9425   20.3245 N   0  0  0  0  0  0
  -25.9323  -11.6561   20.5739 N   0  0  0  0  0  0
  -22.0366  -12.8279   22.0394 N   0  0  0  0  0  0
  -25.4104  -15.1901   20.4226 N   0  0  0  0  0  0
  -31.7439  -15.0603   20.1621 O   0  0  0  0  0  0
  -21.6629   -6.8889   21.4247 O   0  0  0  0  0  0
  -22.3503  -14.5542   20.6669 O   0  0  0  0  0  0
  -24.6516  -31.8393   23.1844 C   0  0  0  0  0  0
  -25.9255  -32.4681   23.8260 C   0  0  1  0  0  0
  -27.2197  -27.0641   20.1573 C   0  0  0  0  0  0
  -25.5978  -33.8485   24.2165 N   0  0  0  0  0  0
  -23.4608  -30.4566   21.5320 C   0  0  2  0  0  0
  -24.9133  -28.8762   20.1097 C   0  0  0  0  0  0
  -22.7617  -29.4521   22.4848 C   0  0  0  0  0  0
  -18.0312  -28.1397   22.8469 C   0  0  0  0  0  0
  -24.1501  -36.7240   23.2639 C   0  0  0  0  0  0
  -26.0239  -30.6888   21.3981 C   0  0  0  0  0  0
  -26.0949  -29.2945   20.7352 C   0  0  0  0  0  0
  -27.2472  -28.4067   20.7403 C   0  0  0  0  0  0
  -26.0101  -26.7744   19.4836 C   0  0  0  0  0  0
  -24.8889  -27.6314   19.4676 C   0  0  0  0  0  0
  -23.6930  -29.7862   20.1529 C   0  0  0  0  0  0
  -25.4129  -36.3016   24.0314 C   0  0  1  0  0  0
  -20.5931  -28.3737   23.1220 C   0  0  2  0  0  0
  -20.6807  -26.9436   22.5401 C   0  0  0  0  0  0
  -19.5775  -26.6372   21.5221 C   0  0  0  0  0  0
  -18.1955  -26.7938   22.1623 C   0  0  0  0  0  0
  -19.1569  -28.8891   23.2835 C   0  0  0  0  0  0
  -18.9479  -30.1486   23.8855 C   0  0  0  0  0  0
  -17.6467  -30.6589   24.0547 C   0  0  0  0  0  0
  -25.9078  -34.9393   23.5050 C   0  0  0  0  0  0
  -16.5357  -29.9067   23.6352 C   0  0  0  0  0  0
  -16.7294  -28.6497   23.0360 C   0  0  0  0  0  0
  -26.4517  -31.6584   25.0745 C   0  0  0  0  0  0
  -25.3667  -31.3819   26.1425 C   0  0  0  0  0  0
  -27.0383  -30.2958   24.6417 C   0  0  0  0  0  0
  -27.6048  -32.4344   25.7529 C   0  0  0  0  0  0
  -27.5582  -37.1773   24.8445 C   0  0  0  0  0  0
  -21.4297  -29.3059   22.3584 N   0  0  0  0  0  0
  -26.4280  -37.3742   23.9409 N   0  0  0  0  0  0
  -24.7322  -31.0167   22.0925 N   0  0  0  0  0  0
  -23.4218  -28.8077   23.3030 O   0  0  0  0  0  0
  -28.2323  -26.0087   20.2453 O   0  0  0  0  0  0
  -26.5654  -34.8895   22.4616 O   0  0  0  0  0  0
  -23.5615  -32.1303   23.7007 O   0  0  0  0  0  0
  -29.7748  -22.6067   21.0808 C   0  0  0  0  0  0
  -28.3481  -21.6911   19.8192 C   0  0  0  0  0  0
  -28.6562  -23.0156   20.2660 C   0  0  0  0  0  0
  -28.1798  -18.1988   21.0207 C   0  0  0  0  0  0
  -28.4234  -16.6510   20.7895 C   0  0  0  0  0  0
  -30.3339  -17.8407   20.2209 C   0  0  0  0  0  0
  -29.1321  -18.9855   20.1114 C   0  0  2  0  0  0
  -27.8574  -24.4879   19.9869 C   0  0  0  0  0  0
  -30.0547  -21.2646   21.1140 N   0  0  0  0  0  0
  -29.1791  -20.5977   20.3062 N   0  0  0  0  0  0
  -29.8359  -16.3625   20.4537 N   0  0  0  0  0  0
  -31.4695  -12.8478   19.1729 H   0  0  0  0  0  0
  -30.4607  -11.7489   20.0562 H   0  0  0  0  0  0
  -29.8798  -11.7554   17.6003 H   0  0  0  0  0  0
  -29.5879  -13.4757   17.6658 H   0  0  0  0  0  0
  -27.9835  -11.2738   18.9938 H   0  0  0  0  0  0
  -27.4000  -12.4242   17.8196 H   0  0  0  0  0  0
  -27.5657  -14.2323   19.3709 H   0  0  0  0  0  0
  -28.8148  -12.3492   21.4332 H   0  0  0  0  0  0
  -28.3526  -13.9870   21.7621 H   0  0  0  0  0  0
  -25.2746   -9.5714   22.4773 H   0  0  0  0  0  0
  -24.0002   -7.4658   22.7516 H   0  0  0  0  0  0
  -21.0828   -8.8796   19.8991 H   0  0  0  0  0  0
  -22.3706  -10.9670   19.6187 H   0  0  0  0  0  0
  -21.2024   -7.6159   23.9732 H   0  0  0  0  0  0
  -21.1477   -6.0512   25.9074 H   0  0  0  0  0  0
  -22.0602   -2.7629   23.2812 H   0  0  0  0  0  0
  -22.3924  -11.9938   22.4820 H   0  0  0  0  0  0
  -21.1012  -13.1412   22.2566 H   0  0  0  0  0  0
  -24.6615  -15.8552   20.5791 H   0  0  0  0  0  0
  -26.2809  -15.6295   20.1579 H   0  0  0  0  0  0
  -26.7340  -32.5265   23.1000 H   0  0  0  0  0  0
  -25.0124  -33.9581   25.0321 H   0  0  0  0  0  0
  -22.7693  -31.2866   21.3732 H   0  0  0  0  0  0
  -23.3781  -35.9554   23.3246 H   0  0  0  0  0  0
  -24.3608  -36.8921   22.2069 H   0  0  0  0  0  0
  -23.7239  -37.6411   23.6709 H   0  0  0  0  0  0
  -26.1907  -31.4437   20.6277 H   0  0  0  0  0  0
  -26.8888  -30.7367   22.0492 H   0  0  0  0  0  0
  -28.1414  -28.7226   21.2586 H   0  0  0  0  0  0
  -25.8771  -25.8277   18.9836 H   0  0  0  0  0  0
  -23.9897  -27.3051   18.9630 H   0  0  0  0  0  0
  -23.8344  -30.5608   19.3980 H   0  0  0  0  0  0
  -22.8078  -29.2310   19.8394 H   0  0  0  0  0  0
  -25.1327  -36.1823   25.0811 H   0  0  0  0  0  0
  -21.0017  -28.3328   24.1345 H   0  0  0  0  0  0
  -20.5722  -26.2351   23.3629 H   0  0  0  0  0  0
  -21.6670  -26.7457   22.1185 H   0  0  0  0  0  0
  -19.6931  -25.6269   21.1290 H   0  0  0  0  0  0
  -19.6708  -27.3151   20.6725 H   0  0  0  0  0  0
  -17.4236  -26.6679   21.4016 H   0  0  0  0  0  0
  -18.0331  -26.0091   22.9025 H   0  0  0  0  0  0
  -19.7953  -30.7319   24.2207 H   0  0  0  0  0  0
  -17.5015  -31.6269   24.5136 H   0  0  0  0  0  0
  -15.5351  -30.2939   23.7711 H   0  0  0  0  0  0
  -15.8702  -28.0798   22.7084 H   0  0  0  0  0  0
  -24.5809  -30.7224   25.7719 H   0  0  0  0  0  0
  -24.8898  -32.3026   26.4800 H   0  0  0  0  0  0
  -25.7897  -30.8988   27.0245 H   0  0  0  0  0  0
  -26.3021  -29.6665   24.1407 H   0  0  0  0  0  0
  -27.3908  -29.7297   25.5049 H   0  0  0  0  0  0
  -27.8975  -30.4134   23.9814 H   0  0  0  0  0  0
  -27.2645  -33.3657   26.2063 H   0  0  0  0  0  0
  -28.3882  -32.6884   25.0378 H   0  0  0  0  0  0
  -28.0703  -31.8507   26.5479 H   0  0  0  0  0  0
  -28.2553  -38.0111   24.7548 H   0  0  0  0  0  0
  -28.1118  -36.2645   24.6191 H   0  0  0  0  0  0
  -27.2307  -37.1328   25.8843 H   0  0  0  0  0  0
  -20.9518  -29.8771   21.6752 H   0  0  0  0  0  0
  -26.0131  -38.2806   24.1410 H   0  0  0  0  0  0
  -30.3957  -23.2510   21.6880 H   0  0  0  0  0  0
  -27.5334  -21.4205   19.1617 H   0  0  0  0  0  0
  -28.3996  -18.4450   22.0614 H   0  0  0  0  0  0
  -27.1381  -18.4731   20.8451 H   0  0  0  0  0  0
  -27.8274  -16.3409   19.9340 H   0  0  0  0  0  0
  -28.0847  -16.0962   21.6615 H   0  0  0  0  0  0
  -30.9908  -18.0973   21.0514 H   0  0  0  0  0  0
  -30.9474  -17.8699   19.3196 H   0  0  0  0  0  0
  -28.7368  -18.8695   19.1011 H   0  0  0  0  0  0
  -26.9015  -24.3858   20.5018 H   0  0  0  0  0  0
  -27.5959  -24.4762   18.9300 H   0  0  0  0  0  0
  1 25  1  0  0  0
  1 30  2  0  0  0
  1 81  1  0  0  0
  2  3  1  0  0  0
  2 25  1  0  0  0
  2 82  1  0  0  0
  2 83  1  0  0  0
  3  4  1  0  0  0
  3 84  1  0  0  0
  3 85  1  0  0  0
  4  5  1  0  0  0
  4 86  1  0  0  0
  4 87  1  0  0  0
  5  6  1  0  0  0
  5 26  1  0  0  0
  5 88  1  0  0  0
  6 25  1  0  0  0
  6 89  1  0  0  0
  6 90  1  0  0  0
  7  8  2  0  0  0
  7 26  1  0  0  0
  7 29  1  0  0  0
  8  9  1  0  0  0
  8 22  1  0  0  0
  9 10  1  0  0  0
  9 27  2  0  0  0
 10 11  2  0  0  0
 10 15  1  0  0  0
 11 12  1  0  0  0
 11 91  1  0  0  0
 12 13  2  0  0  0
 12 92  1  0  0  0
 13 14  1  0  0  0
 13 31  1  0  0  0
 14 15  2  0  0  0
 14 93  1  0  0  0
 15 94  1  0  0  0
 16 17  2  0  0  0
 16 21  1  0  0  0
 16 31  1  0  0  0
 17 18  1  0  0  0
 17 95  1  0  0  0
 18 19  2  0  0  0
 18 96  1  0  0  0
 19 20  1  0  0  0
 19 24  1  0  0  0
 20 21  2  0  0  0
 20 97  1  0  0  0
 21 23  1  0  0  0
 22 28  1  0  0  0
 22 32  2  0  0  0
 26 27  1  0  0  0
 28 98  1  0  0  0
 28 99  1  0  0  0
 29100  1  0  0  0
 29101  1  0  0  0
 33 34  1  0  0  0
 33 66  1  0  0  0
 33 70  2  0  0  0
 34 36  1  0  0  0
 34 59  1  0  0  0
 34102  1  0  0  0
 35 44  2  0  0  0
 35 45  1  0  0  0
 35 68  1  0  0  0
 36 56  1  0  0  0
 36103  1  0  0  0
 37 39  1  0  0  0
 37 47  1  0  0  0
 37 66  1  0  0  0
 37104  1  0  0  0
 38 43  2  0  0  0
 38 46  1  0  0  0
 38 47  1  0  0  0
 39 64  1  0  0  0
 39 67  2  0  0  0
 40 52  1  0  0  0
 40 53  2  0  0  0
 40 58  1  0  0  0
 41105  1  0  0  0
 41106  1  0  0  0
 41107  1  0  0  0
 41 48  1  0  0  0
 42 43  1  0  0  0
 42 66  1  0  0  0
 42108  1  0  0  0
 42109  1  0  0  0
 43 44  1  0  0  0
 44110  1  0  0  0
 45 46  2  0  0  0
 45111  1  0  0  0
 46112  1  0  0  0
 47113  1  0  0  0
 47114  1  0  0  0
 48 56  1  0  0  0
 48 65  1  0  0  0
 48115  1  0  0  0
 49 50  1  0  0  0
 49 53  1  0  0  0
 49 64  1  0  0  0
 49116  1  0  0  0
 50 51  1  0  0  0
 50117  1  0  0  0
 50118  1  0  0  0
 51 52  1  0  0  0
 51119  1  0  0  0
 51120  1  0  0  0
 52121  1  0  0  0
 52122  1  0  0  0
 53 54  1  0  0  0
 54 55  2  0  0  0
 54123  1  0  0  0
 55 57  1  0  0  0
 55124  1  0  0  0
 56 69  2  0  0  0
 57 58  2  0  0  0
 57125  1  0  0  0
 58126  1  0  0  0
 59 60  1  0  0  0
 59 61  1  0  0  0
 59 62  1  0  0  0
 60127  1  0  0  0
 60128  1  0  0  0
 60129  1  0  0  0
 61130  1  0  0  0
 61131  1  0  0  0
 61132  1  0  0  0
 62133  1  0  0  0
 62134  1  0  0  0
 62135  1  0  0  0
 63 65  1  0  0  0
 63136  1  0  0  0
 63137  1  0  0  0
 63138  1  0  0  0
 64139  1  0  0  0
 65140  1  0  0  0
 68 78  1  0  0  0
 71 73  1  0  0  0
 71 79  2  0  0  0
 71141  1  0  0  0
 72 73  2  0  0  0
 72 80  1  0  0  0
 72142  1  0  0  0
 73 78  1  0  0  0
 74 75  1  0  0  0
 74 77  1  0  0  0
 74143  1  0  0  0
 74144  1  0  0  0
 75 81  1  0  0  0
 75145  1  0  0  0
 75146  1  0  0  0
 76 77  1  0  0  0
 76 81  1  0  0  0
 76147  1  0  0  0
 76148  1  0  0  0
 77 80  1  0  0  0
 77149  1  0  0  0
 78150  1  0  0  0
 78151  1  0  0  0
 79 80  1  0  0  0
M  ISO  4   1 100  68 101  78 101  81 100
M  END
> <chiral flag>
0

> <version>
0

> <s_m_source_file>
/data/baiqing/PycharmProjects/Reinvent-master-3.2/result/LINK_invent/BTK/process_docking_weight1_custom_sum_contain_oxygen_bond_distance_aromatic_linkinvent_7_9_3/rearranged_h_0182.sdf

> <i_m_source_file_index>
75

> <r_mmod_Potential_Energy-OPLS-2005>
886.987182617188

> <r_mmod_Stretch_Energy-OPLS-2005>
321.127807617188

> <r_mmod_Bend_Energy-OPLS-2005>
361.544891357422

> <r_mmod_Torsional_Energy-OPLS-2005>
322.736572265625

> <r_mmod_Improper_Torsional_Energy-OPLS-2005>
6.09710311889648

> <r_mmod_Van_der_Waal_Energy-OPLS-2005>
109.829986572266

> <r_mmod_Electrostatic_Energy-OPLS-2005>
-280.198516845703

> <r_mmod_Solvation_Energy-OPLS-2005>
-231.792373657227

> <b_mmod_Minimization_Converged-OPLS-2005>
0

> <r_mmod_RMS_Derivative-OPLS-2005>
2.70074939727783

$$$$
75
                    3D
 Structure written by MMmdl.
163172  0  0  1  0            999 V2000
  -30.7276  -14.5206   20.5758 C   0  0  0  0  0  0
  -30.4146  -12.3426   19.4370 C   0  0  0  0  0  0
  -29.4906  -12.4976   18.2122 C   0  0  0  0  0  0
  -28.0170  -12.3193   18.6235 C   0  0  0  0  0  0
  -27.6500  -13.1807   19.8565 C   0  0  2  0  0  0
  -28.6980  -13.0108   20.9896 C   0  0  0  0  0  0
  -25.2556  -13.8083   20.5613 C   0  0  0  0  0  0
  -24.1803  -13.0402   20.9164 C   0  0  0  0  0  0
  -24.6329  -11.6864   20.8736 C   0  0  0  0  0  0
  -23.8999  -10.4271   21.0422 C   0  0  0  0  0  0
  -24.3572   -9.4196   21.9187 C   0  0  0  0  0  0
  -23.6261   -8.2225   22.0750 C   0  0  0  0  0  0
  -22.4246   -8.0257   21.3547 C   0  0  0  0  0  0
  -21.9870   -9.0230   20.4654 C   0  0  0  0  0  0
  -22.7184  -10.2109   20.3064 C   0  0  0  0  0  0
  -21.6838   -6.0718   22.5277 C   0  0  0  0  0  0
  -21.4003   -6.5627   23.8209 C   0  0  0  0  0  0
  -21.3660   -5.6780   24.9171 C   0  0  0  0  0  0
  -21.6045   -4.3039   24.7229 C   0  0  0  0  0  0
  -21.8817   -3.8135   23.4351 C   0  0  0  0  0  0
  -21.9191   -4.6947   22.3402 C   0  0  0  0  0  0
  -22.7842  -13.5243   21.1836 C   0  0  0  0  0  0
  -22.1665   -4.2135   21.0985 F   0  0  0  0  0  0
  -21.5637   -3.4530   25.7748 F   0  0  0  0  0  0
  -30.0147  -13.3564   20.4374 N   0  0  0  0  0  0
  -26.2945  -12.9197   20.3263 N   0  0  0  0  0  0
  -25.9239  -11.6396   20.5744 N   0  0  0  0  0  0
  -22.0466  -12.8266   22.0396 N   0  0  0  0  0  0
  -25.4248  -15.1792   20.3960 N   0  0  0  0  0  0
  -31.8693  -14.5951   20.1072 O   0  0  0  0  0  0
  -21.6615   -6.8853   21.4235 O   0  0  0  0  0  0
  -22.3559  -14.5567   20.6695 O   0  0  0  0  0  0
  -24.6132  -31.8674   23.2100 C   0  0  0  0  0  0
  -25.9026  -32.4821   23.8397 C   0  0  1  0  0  0
  -27.2412  -27.4293   20.1091 C   0  0  0  0  0  0
  -25.5880  -33.8619   24.2328 N   0  0  0  0  0  0
  -23.4040  -30.4893   21.5485 C   0  0  2  0  0  0
  -24.8570  -28.9528   20.1164 C   0  0  0  0  0  0
  -22.7408  -29.4656   22.4981 C   0  0  0  0  0  0
  -18.0274  -28.1373   22.8491 C   0  0  0  0  0  0
  -24.1483  -36.7319   23.2644 C   0  0  0  0  0  0
  -25.9323  -30.8292   21.3676 C   0  0  0  0  0  0
  -26.0128  -29.4597   20.7250 C   0  0  0  0  0  0
  -27.2081  -28.7025   20.7301 C   0  0  0  0  0  0
  -26.0757  -26.9443   19.4859 C   0  0  0  0  0  0
  -24.8824  -27.6919   19.4951 C   0  0  0  0  0  0
  -23.6163  -29.8180   20.1643 C   0  0  0  0  0  0
  -25.4101  -36.3112   24.0346 C   0  0  1  0  0  0
  -20.5861  -28.3665   23.1311 C   0  0  2  0  0  0
  -20.6764  -26.9400   22.5420 C   0  0  0  0  0  0
  -19.5747  -26.6385   21.5208 C   0  0  0  0  0  0
  -18.1924  -26.7924   22.1615 C   0  0  0  0  0  0
  -19.1522  -28.8836   23.2898 C   0  0  0  0  0  0
  -18.9454  -30.1440   23.8911 C   0  0  0  0  0  0
  -17.6456  -30.6584   24.0565 C   0  0  0  0  0  0
  -25.9025  -34.9473   23.5136 C   0  0  0  0  0  0
  -16.5348  -29.9086   23.6328 C   0  0  0  0  0  0
  -16.7265  -28.6498   23.0356 C   0  0  0  0  0  0
  -26.4464  -31.6594   25.0716 C   0  0  0  0  0  0
  -25.3751  -31.3713   26.1489 C   0  0  0  0  0  0
  -27.0300  -30.3035   24.6089 C   0  0  0  0  0  0
  -27.6044  -32.4323   25.7452 C   0  0  0  0  0  0
  -27.5577  -37.1814   24.8471 C   0  0  0  0  0  0
  -21.4136  -29.3027   22.3712 N   0  0  0  0  0  0
  -26.4296  -37.3787   23.9405 N   0  0  0  0  0  0
  -24.6677  -31.0770   22.1004 N   0  0  0  0  0  0
  -23.4171  -28.8209   23.3041 O   0  0  0  0  0  0
  -28.3638  -26.6307   20.0631 O   0  0  0  0  0  0
  -26.5591  -34.8922   22.4702 O   0  0  0  0  0  0
  -23.5324  -32.1427   23.7484 O   0  0  0  0  0  0
  -29.7225  -21.5249   20.7753 C   0  0  0  0  0  0
  -29.1326  -21.0696   21.9780 C   0  0  0  0  0  0
  -28.7237  -22.1040   22.8515 C   0  0  0  0  0  0
  -29.5309  -23.7239   21.4317 C   0  0  0  0  0  0
  -28.4005  -17.4662   21.5165 C   0  0  0  0  0  0
  -30.6262  -17.8996   22.3825 C   0  0  0  0  0  0
  -28.8835  -16.1814   20.8099 C   0  0  0  0  0  0
  -31.1784  -16.6472   21.6604 C   0  0  0  0  0  0
  -29.4671  -18.5496   21.6234 C   0  0  0  0  0  0
  -28.0250  -21.8097   24.1660 C   0  0  0  0  0  0
  -30.0117  -25.1751   21.2736 C   0  0  0  0  0  0
  -28.9548  -26.3150   21.3283 C   0  0  0  0  0  0
  -29.9144  -22.8385   20.5122 N   0  0  0  0  0  0
  -28.9455  -23.4072   22.5830 N   0  0  0  0  0  0
  -30.1942  -15.6171   21.2197 N   0  0  0  0  0  0
  -28.9315  -19.7139   22.3376 N   0  0  0  0  0  0
  -31.4582  -12.4292   19.1301 H   0  0  0  0  0  0
  -30.3242  -11.3396   19.8587 H   0  0  0  0  0  0
  -29.7555  -11.7712   17.4425 H   0  0  0  0  0  0
  -29.6307  -13.4841   17.7669 H   0  0  0  0  0  0
  -27.8519  -11.2652   18.8458 H   0  0  0  0  0  0
  -27.3591  -12.5586   17.7865 H   0  0  0  0  0  0
  -27.6655  -14.1966   19.4737 H   0  0  0  0  0  0
  -28.7050  -11.9748   21.3339 H   0  0  0  0  0  0
  -28.4581  -13.5924   21.8795 H   0  0  0  0  0  0
  -25.2716   -9.5689   22.4751 H   0  0  0  0  0  0
  -23.9975   -7.4624   22.7476 H   0  0  0  0  0  0
  -21.0798   -8.8752   19.8970 H   0  0  0  0  0  0
  -22.3643  -10.9647   19.6178 H   0  0  0  0  0  0
  -21.1982   -7.6135   23.9702 H   0  0  0  0  0  0
  -21.1488   -6.0517   25.9074 H   0  0  0  0  0  0
  -22.0599   -2.7597   23.2851 H   0  0  0  0  0  0
  -22.4069  -11.9927   22.4806 H   0  0  0  0  0  0
  -21.1100  -13.1336   22.2610 H   0  0  0  0  0  0
  -24.6576  -15.8316   20.5147 H   0  0  0  0  0  0
  -26.2687  -15.6182   20.0540 H   0  0  0  0  0  0
  -26.7095  -32.5546   23.1161 H   0  0  0  0  0  0
  -25.0019  -33.9781   25.0466 H   0  0  0  0  0  0
  -22.6924  -31.3056   21.4063 H   0  0  0  0  0  0
  -23.3726  -35.9674   23.3346 H   0  0  0  0  0  0
  -24.3570  -36.8891   22.2049 H   0  0  0  0  0  0
  -23.7261  -37.6549   23.6631 H   0  0  0  0  0  0
  -26.0439  -31.5894   20.5927 H   0  0  0  0  0  0
  -26.8211  -30.8891   21.9845 H   0  0  0  0  0  0
  -28.0977  -29.0979   21.1985 H   0  0  0  0  0  0
  -26.0922  -25.9769   19.0045 H   0  0  0  0  0  0
  -23.9966  -27.2953   19.0180 H   0  0  0  0  0  0
  -23.7221  -30.5908   19.4020 H   0  0  0  0  0  0
  -22.7426  -29.2337   19.8712 H   0  0  0  0  0  0
  -25.1276  -36.1983   25.0841 H   0  0  0  0  0  0
  -20.9959  -28.3242   24.1427 H   0  0  0  0  0  0
  -20.5663  -26.2273   23.3608 H   0  0  0  0  0  0
  -21.6637  -26.7442   22.1215 H   0  0  0  0  0  0
  -19.6912  -25.6301   21.1228 H   0  0  0  0  0  0
  -19.6693  -27.3204   20.6746 H   0  0  0  0  0  0
  -17.4197  -26.6680   21.4010 H   0  0  0  0  0  0
  -18.0323  -26.0054   22.9000 H   0  0  0  0  0  0
  -19.7932  -30.7250   24.2281 H   0  0  0  0  0  0
  -17.5020  -31.6265   24.5164 H   0  0  0  0  0  0
  -15.5352  -30.2998   23.7647 H   0  0  0  0  0  0
  -15.8663  -28.0830   22.7067 H   0  0  0  0  0  0
  -24.5879  -30.7106   25.7840 H   0  0  0  0  0  0
  -24.9000  -32.2883   26.4983 H   0  0  0  0  0  0
  -25.8120  -30.8840   27.0216 H   0  0  0  0  0  0
  -26.2838  -29.6771   24.1185 H   0  0  0  0  0  0
  -27.4127  -29.7288   25.4535 H   0  0  0  0  0  0
  -27.8650  -30.4355   23.9201 H   0  0  0  0  0  0
  -27.2659  -33.3605   26.2065 H   0  0  0  0  0  0
  -28.3811  -32.6919   25.0248 H   0  0  0  0  0  0
  -28.0763  -31.8439   26.5329 H   0  0  0  0  0  0
  -28.2627  -38.0076   24.7467 H   0  0  0  0  0  0
  -28.1038  -36.2608   24.6353 H   0  0  0  0  0  0
  -27.2300  -37.1540   25.8878 H   0  0  0  0  0  0
  -20.9302  -29.8727   21.6915 H   0  0  0  0  0  0
  -26.0192  -38.2878   24.1373 H   0  0  0  0  0  0
  -30.0654  -20.8415   20.0133 H   0  0  0  0  0  0
  -28.0493  -17.2009   22.5161 H   0  0  0  0  0  0
  -27.5257  -17.8518   20.9918 H   0  0  0  0  0  0
  -31.4343  -18.6212   22.5124 H   0  0  0  0  0  0
  -30.3079  -17.6199   23.3880 H   0  0  0  0  0  0
  -28.8908  -16.3374   19.7294 H   0  0  0  0  0  0
  -28.0896  -15.4875   21.0351 H   0  0  0  0  0  0
  -31.9213  -16.1759   22.3062 H   0  0  0  0  0  0
  -31.7242  -17.0018   20.7833 H   0  0  0  0  0  0
  -29.7922  -18.8166   20.6176 H   0  0  0  0  0  0
  -27.1092  -21.2437   23.9931 H   0  0  0  0  0  0
  -27.7550  -22.7258   24.6906 H   0  0  0  0  0  0
  -28.6723  -21.2249   24.8185 H   0  0  0  0  0  0
  -30.5989  -25.2718   20.3602 H   0  0  0  0  0  0
  -30.7224  -25.3393   22.0835 H   0  0  0  0  0  0
  -29.4642  -27.2153   21.6745 H   0  0  0  0  0  0
  -28.1951  -26.0858   22.0777 H   0  0  0  0  0  0
  -28.4888  -19.5236   23.2340 H   0  0  0  0  0  0
  1 25  1  0  0  0
  1 30  2  0  0  0
  1 85  1  0  0  0
  2  3  1  0  0  0
  2 25  1  0  0  0
  2 87  1  0  0  0
  2 88  1  0  0  0
  3  4  1  0  0  0
  3 89  1  0  0  0
  3 90  1  0  0  0
  4  5  1  0  0  0
  4 91  1  0  0  0
  4 92  1  0  0  0
  5  6  1  0  0  0
  5 26  1  0  0  0
  5 93  1  0  0  0
  6 25  1  0  0  0
  6 94  1  0  0  0
  6 95  1  0  0  0
  7  8  2  0  0  0
  7 26  1  0  0  0
  7 29  1  0  0  0
  8  9  1  0  0  0
  8 22  1  0  0  0
  9 10  1  0  0  0
  9 27  2  0  0  0
 10 11  2  0  0  0
 10 15  1  0  0  0
 11 12  1  0  0  0
 11 96  1  0  0  0
 12 13  2  0  0  0
 12 97  1  0  0  0
 13 14  1  0  0  0
 13 31  1  0  0  0
 14 15  2  0  0  0
 14 98  1  0  0  0
 15 99  1  0  0  0
 16 17  2  0  0  0
 16 21  1  0  0  0
 16 31  1  0  0  0
 17 18  1  0  0  0
 17100  1  0  0  0
 18 19  2  0  0  0
 18101  1  0  0  0
 19 20  1  0  0  0
 19 24  1  0  0  0
 20 21  2  0  0  0
 20102  1  0  0  0
 21 23  1  0  0  0
 22 28  1  0  0  0
 22 32  2  0  0  0
 26 27  1  0  0  0
 28103  1  0  0  0
 28104  1  0  0  0
 29105  1  0  0  0
 29106  1  0  0  0
 33 34  1  0  0  0
 33 66  1  0  0  0
 33 70  2  0  0  0
 34 36  1  0  0  0
 34 59  1  0  0  0
 34107  1  0  0  0
 35 44  2  0  0  0
 35 45  1  0  0  0
 35 68  1  0  0  0
 36 56  1  0  0  0
 36108  1  0  0  0
 37 39  1  0  0  0
 37 47  1  0  0  0
 37 66  1  0  0  0
 37109  1  0  0  0
 38 43  2  0  0  0
 38 46  1  0  0  0
 38 47  1  0  0  0
 39 64  1  0  0  0
 39 67  2  0  0  0
 40 52  1  0  0  0
 40 53  2  0  0  0
 40 58  1  0  0  0
 41110  1  0  0  0
 41111  1  0  0  0
 41112  1  0  0  0
 41 48  1  0  0  0
 42 43  1  0  0  0
 42 66  1  0  0  0
 42113  1  0  0  0
 42114  1  0  0  0
 43 44  1  0  0  0
 44115  1  0  0  0
 45 46  2  0  0  0
 45116  1  0  0  0
 46117  1  0  0  0
 47118  1  0  0  0
 47119  1  0  0  0
 48 56  1  0  0  0
 48 65  1  0  0  0
 48120  1  0  0  0
 49 50  1  0  0  0
 49 53  1  0  0  0
 49 64  1  0  0  0
 49121  1  0  0  0
 50 51  1  0  0  0
 50122  1  0  0  0
 50123  1  0  0  0
 51 52  1  0  0  0
 51124  1  0  0  0
 51125  1  0  0  0
 52126  1  0  0  0
 52127  1  0  0  0
 53 54  1  0  0  0
 54 55  2  0  0  0
 54128  1  0  0  0
 55 57  1  0  0  0
 55129  1  0  0  0
 56 69  2  0  0  0
 57 58  2  0  0  0
 57130  1  0  0  0
 58131  1  0  0  0
 59 60  1  0  0  0
 59 61  1  0  0  0
 59 62  1  0  0  0
 60132  1  0  0  0
 60133  1  0  0  0
 60134  1  0  0  0
 61135  1  0  0  0
 61136  1  0  0  0
 61137  1  0  0  0
 62138  1  0  0  0
 62139  1  0  0  0
 62140  1  0  0  0
 63 65  1  0  0  0
 63141  1  0  0  0
 63142  1  0  0  0
 63143  1  0  0  0
 64144  1  0  0  0
 65145  1  0  0  0
 68 82  1  0  0  0
 71 72  2  0  0  0
 71 83  1  0  0  0
 71146  1  0  0  0
 72 73  1  0  0  0
 72 86  1  0  0  0
 73 80  1  0  0  0
 73 84  2  0  0  0
 74 81  1  0  0  0
 74 83  2  0  0  0
 74 84  1  0  0  0
 75 77  1  0  0  0
 75 79  1  0  0  0
 75147  1  0  0  0
 75148  1  0  0  0
 76 78  1  0  0  0
 76 79  1  0  0  0
 76149  1  0  0  0
 76150  1  0  0  0
 77 85  1  0  0  0
 77151  1  0  0  0
 77152  1  0  0  0
 78 85  1  0  0  0
 78153  1  0  0  0
 78154  1  0  0  0
 79 86  1  0  0  0
 79155  1  0  0  0
 80156  1  0  0  0
 80157  1  0  0  0
 80158  1  0  0  0
 81 82  1  0  0  0
 81159  1  0  0  0
 81160  1  0  0  0
 82161  1  0  0  0
 82162  1  0  0  0
 86163  1  0  0  0
M  ISO  4   1 100  68 101  82 101  85 100
M  END
> <chiral flag>
0

> <version>
0

> <s_m_source_file>
/data/baiqing/PycharmProjects/Reinvent-master-3.2/result/LINK_invent/BTK/process_docking_weight1_custom_sum_contain_oxygen_bond_distance_aromatic_linkinvent_7_9_3/rearranged_h_0182.sdf

> <i_m_source_file_index>
76

> <r_mmod_Potential_Energy-OPLS-2005>
-129.345336914062

> <r_mmod_Stretch_Energy-OPLS-2005>
46.3284301757812

> <r_mmod_Bend_Energy-OPLS-2005>
153.577423095703

> <r_mmod_Torsional_Energy-OPLS-2005>
306.898406982422

> <r_mmod_Improper_Torsional_Energy-OPLS-2005>
6.0241813659668

> <r_mmod_Van_der_Waal_Energy-OPLS-2005>
173.384506225586

> <r_mmod_Electrostatic_Energy-OPLS-2005>
-604.32568359375

> <r_mmod_Solvation_Energy-OPLS-2005>
-229.848007202148

> <b_mmod_Minimization_Converged-OPLS-2005>
0

> <r_mmod_RMS_Derivative-OPLS-2005>
1.66370165348053

$$$$
76
                    3D
 Structure written by MMmdl.
149157  0  0  1  0            999 V2000
  -30.4073  -15.4702   20.3449 C   0  0  0  0  0  0
  -30.4242  -12.9668   19.5232 C   0  0  0  0  0  0
  -29.5386  -12.6160   18.2998 C   0  0  0  0  0  0
  -28.1007  -12.3012   18.7393 C   0  0  0  0  0  0
  -27.5978  -13.2997   19.8095 C   0  0  2  0  0  0
  -28.6247  -13.5844   20.9282 C   0  0  0  0  0  0
  -25.2344  -13.8292   20.5795 C   0  0  0  0  0  0
  -24.1718  -13.0448   20.9276 C   0  0  0  0  0  0
  -24.6408  -11.6953   20.8762 C   0  0  0  0  0  0
  -23.9114  -10.4301   21.0400 C   0  0  0  0  0  0
  -24.3654   -9.4212   21.9179 C   0  0  0  0  0  0
  -23.6317   -8.2250   22.0748 C   0  0  0  0  0  0
  -22.4294   -8.0291   21.3543 C   0  0  0  0  0  0
  -21.9941   -9.0268   20.4640 C   0  0  0  0  0  0
  -22.7283  -10.2142   20.3051 C   0  0  0  0  0  0
  -21.6860   -6.0741   22.5278 C   0  0  0  0  0  0
  -21.4020   -6.5641   23.8214 C   0  0  0  0  0  0
  -21.3661   -5.6789   24.9175 C   0  0  0  0  0  0
  -21.6045   -4.3052   24.7222 C   0  0  0  0  0  0
  -21.8820   -3.8146   23.4342 C   0  0  0  0  0  0
  -21.9194   -4.6967   22.3400 C   0  0  0  0  0  0
  -22.7730  -13.5176   21.1911 C   0  0  0  0  0  0
  -22.1659   -4.2155   21.0977 F   0  0  0  0  0  0
  -21.5632   -3.4535   25.7733 F   0  0  0  0  0  0
  -29.8189  -14.1506   20.2686 N   0  0  0  0  0  0
  -26.2779  -12.9609   20.3220 N   0  0  0  0  0  0
  -25.9353  -11.6688   20.5696 N   0  0  0  0  0  0
  -22.0389  -12.8161   22.0471 N   0  0  0  0  0  0
  -25.3973  -15.2036   20.4277 N   0  0  0  0  0  0
  -31.6424  -15.3625   20.2335 O   0  0  0  0  0  0
  -21.6648   -6.8893   21.4244 O   0  0  0  0  0  0
  -22.3402  -14.5468   20.6734 O   0  0  0  0  0  0
  -24.6763  -31.8091   23.1596 C   0  0  0  0  0  0
  -25.9383  -32.4511   23.8112 C   0  0  1  0  0  0
  -27.2200  -26.7953   20.2037 C   0  0  0  0  0  0
  -25.5998  -33.8336   24.2007 N   0  0  0  0  0  0
  -23.4974  -30.4161   21.5104 C   0  0  2  0  0  0
  -24.9524  -28.7753   20.1168 C   0  0  0  0  0  0
  -22.7731  -29.4368   22.4729 C   0  0  0  0  0  0
  -18.0334  -28.1411   22.8458 C   0  0  0  0  0  0
  -24.1494  -36.7175   23.2651 C   0  0  0  0  0  0
  -26.0734  -30.5727   21.4096 C   0  0  0  0  0  0
  -26.1400  -29.1479   20.7579 C   0  0  0  0  0  0
  -27.2650  -28.1838   20.7702 C   0  0  0  0  0  0
  -26.0007  -26.6077   19.5099 C   0  0  0  0  0  0
  -24.9165  -27.5292   19.4697 C   0  0  0  0  0  0
  -23.7459  -29.7207   20.1423 C   0  0  0  0  0  0
  -25.4140  -36.2922   24.0290 C   0  0  1  0  0  0
  -20.5965  -28.3765   23.1155 C   0  0  2  0  0  0
  -20.6803  -26.9436   22.5398 C   0  0  0  0  0  0
  -19.5776  -26.6369   21.5213 C   0  0  0  0  0  0
  -18.1957  -26.7943   22.1616 C   0  0  0  0  0  0
  -19.1600  -28.8910   23.2791 C   0  0  0  0  0  0
  -18.9507  -30.1490   23.8844 C   0  0  0  0  0  0
  -17.6500  -30.6595   24.0557 C   0  0  0  0  0  0
  -25.9115  -34.9308   23.4975 C   0  0  0  0  0  0
  -16.5389  -29.9083   23.6348 C   0  0  0  0  0  0
  -16.7315  -28.6503   23.0372 C   0  0  0  0  0  0
  -26.4592  -31.6512   25.0699 C   0  0  0  0  0  0
  -25.3681  -31.3804   26.1331 C   0  0  0  0  0  0
  -27.0515  -30.2861   24.6539 C   0  0  0  0  0  0
  -27.6052  -32.4357   25.7514 C   0  0  0  0  0  0
  -27.5565  -37.1746   24.8466 C   0  0  0  0  0  0
  -21.4385  -29.3033   22.3486 N   0  0  0  0  0  0
  -26.4274  -37.3674   23.9407 N   0  0  0  0  0  0
  -24.7715  -30.9634   22.0793 N   0  0  0  0  0  0
  -23.4217  -28.7952   23.3030 O   0  0  0  0  0  0
  -28.1946  -25.6201   20.2662 O   0  0  0  0  0  0
  -26.5738  -34.8871   22.4582 O   0  0  0  0  0  0
  -23.5801  -32.1122   23.6612 O   0  0  0  0  0  0
  -28.9823  -22.4735   20.2585 C   0  0  0  0  0  0
  -28.9937  -19.4657   19.2609 C   0  0  0  0  0  0
  -29.6071  -19.6608   21.4474 C   0  0  0  0  0  0
  -28.8845  -17.7523   19.5126 C   0  0  0  0  0  0
  -30.3699  -18.1384   21.1606 C   0  0  0  0  0  0
  -28.7710  -20.6597   20.4013 C   0  0  0  0  0  0
  -27.8960  -23.9316   20.2104 C   0  0  0  0  0  0
  -29.7721  -16.8696   20.4632 N   0  0  0  0  0  0
  -30.1755  -22.7813   20.1852 O   0  0  0  0  0  0
  -31.4300  -13.1928   19.1668 H   0  0  0  0  0  0
  -30.5417  -12.1050   20.1809 H   0  0  0  0  0  0
  -29.9598  -11.7724   17.7513 H   0  0  0  0  0  0
  -29.5317  -13.4607   17.6083 H   0  0  0  0  0  0
  -28.0937  -11.2904   19.1491 H   0  0  0  0  0  0
  -27.4320  -12.2888   17.8778 H   0  0  0  0  0  0
  -27.4756  -14.2380   19.2664 H   0  0  0  0  0  0
  -28.8508  -12.6893   21.5097 H   0  0  0  0  0  0
  -28.2231  -14.3191   21.6282 H   0  0  0  0  0  0
  -25.2798   -9.5682   22.4762 H   0  0  0  0  0  0
  -24.0018   -7.4639   22.7470 H   0  0  0  0  0  0
  -21.0869   -8.8799   19.8945 H   0  0  0  0  0  0
  -22.3744  -10.9685   19.6161 H   0  0  0  0  0  0
  -21.2015   -7.6151   23.9721 H   0  0  0  0  0  0
  -21.1481   -6.0515   25.9078 H   0  0  0  0  0  0
  -22.0599   -2.7609   23.2838 H   0  0  0  0  0  0
  -22.4017  -11.9848   22.4900 H   0  0  0  0  0  0
  -21.0989  -13.1158   22.2641 H   0  0  0  0  0  0
  -24.6321  -15.8572   20.5564 H   0  0  0  0  0  0
  -26.2546  -15.6496   20.1289 H   0  0  0  0  0  0
  -26.7461  -32.5012   23.0826 H   0  0  0  0  0  0
  -25.0089  -33.9388   25.0121 H   0  0  0  0  0  0
  -22.8175  -31.2509   21.3279 H   0  0  0  0  0  0
  -23.3770  -35.9490   23.3272 H   0  0  0  0  0  0
  -24.3567  -36.8872   22.2073 H   0  0  0  0  0  0
  -23.7236  -37.6341   23.6746 H   0  0  0  0  0  0
  -26.2693  -31.3045   20.6244 H   0  0  0  0  0  0
  -26.9278  -30.6351   22.0714 H   0  0  0  0  0  0
  -28.1615  -28.4736   21.2999 H   0  0  0  0  0  0
  -25.8496  -25.6612   19.0113 H   0  0  0  0  0  0
  -24.0180  -27.2370   18.9439 H   0  0  0  0  0  0
  -23.9169  -30.4837   19.3819 H   0  0  0  0  0  0
  -22.8530  -29.1835   19.8193 H   0  0  0  0  0  0
  -25.1344  -36.1701   25.0780 H   0  0  0  0  0  0
  -21.0049  -28.3381   24.1277 H   0  0  0  0  0  0
  -21.6664  -26.7384   22.1213 H   0  0  0  0  0  0
  -20.5668  -26.2390   23.3653 H   0  0  0  0  0  0
  -19.6933  -25.6262   21.1284 H   0  0  0  0  0  0
  -19.6717  -27.3143   20.6713 H   0  0  0  0  0  0
  -17.4229  -26.6687   21.4019 H   0  0  0  0  0  0
  -18.0346  -26.0094   22.9021 H   0  0  0  0  0  0
  -19.7983  -30.7313   24.2195 H   0  0  0  0  0  0
  -17.5055  -31.6270   24.5167 H   0  0  0  0  0  0
  -15.5388  -30.2974   23.7702 H   0  0  0  0  0  0
  -15.8711  -28.0801   22.7129 H   0  0  0  0  0  0
  -24.5884  -30.7132   25.7638 H   0  0  0  0  0  0
  -24.8850  -32.3016   26.4595 H   0  0  0  0  0  0
  -25.7882  -30.9074   27.0214 H   0  0  0  0  0  0
  -26.3213  -29.6492   24.1531 H   0  0  0  0  0  0
  -27.3974  -29.7289   25.5256 H   0  0  0  0  0  0
  -27.9184  -30.4012   24.0030 H   0  0  0  0  0  0
  -27.2599  -33.3715   26.1923 H   0  0  0  0  0  0
  -28.3954  -32.6826   25.0412 H   0  0  0  0  0  0
  -28.0621  -31.8596   26.5572 H   0  0  0  0  0  0
  -28.2555  -38.0068   24.7514 H   0  0  0  0  0  0
  -28.1087  -36.2587   24.6290 H   0  0  0  0  0  0
  -27.2279  -37.1382   25.8870 H   0  0  0  0  0  0
  -20.9670  -29.8717   21.6589 H   0  0  0  0  0  0
  -26.0108  -38.2726   24.1417 H   0  0  0  0  0  0
  -28.2921  -19.6956   18.4579 H   0  0  0  0  0  0
  -29.9675  -19.6548   18.8052 H   0  0  0  0  0  0
  -30.3711  -20.2919   21.9027 H   0  0  0  0  0  0
  -28.9119  -19.4773   22.2672 H   0  0  0  0  0  0
  -27.8556  -17.5421   19.8058 H   0  0  0  0  0  0
  -28.9836  -17.2895   18.5301 H   0  0  0  0  0  0
  -31.2921  -18.3484   20.6153 H   0  0  0  0  0  0
  -30.7198  -17.7846   22.1314 H   0  0  0  0  0  0
  -27.7216  -20.5853   20.6893 H   0  0  0  0  0  0
  -27.3216  -23.7908   19.2948 H   0  0  0  0  0  0
  -27.1735  -23.7545   21.0067 H   0  0  0  0  0  0
  1 25  1  0  0  0
  1 30  2  0  0  0
  1 78  1  0  0  0
  2  3  1  0  0  0
  2 25  1  0  0  0
  2 80  1  0  0  0
  2 81  1  0  0  0
  3  4  1  0  0  0
  3 82  1  0  0  0
  3 83  1  0  0  0
  4  5  1  0  0  0
  4 84  1  0  0  0
  4 85  1  0  0  0
  5  6  1  0  0  0
  5 26  1  0  0  0
  5 86  1  0  0  0
  6 25  1  0  0  0
  6 87  1  0  0  0
  6 88  1  0  0  0
  7  8  2  0  0  0
  7 26  1  0  0  0
  7 29  1  0  0  0
  8  9  1  0  0  0
  8 22  1  0  0  0
  9 10  1  0  0  0
  9 27  2  0  0  0
 10 11  2  0  0  0
 10 15  1  0  0  0
 11 12  1  0  0  0
 11 89  1  0  0  0
 12 13  2  0  0  0
 12 90  1  0  0  0
 13 14  1  0  0  0
 13 31  1  0  0  0
 14 15  2  0  0  0
 14 91  1  0  0  0
 15 92  1  0  0  0
 16 17  2  0  0  0
 16 21  1  0  0  0
 16 31  1  0  0  0
 17 18  1  0  0  0
 17 93  1  0  0  0
 18 19  2  0  0  0
 18 94  1  0  0  0
 19 20  1  0  0  0
 19 24  1  0  0  0
 20 21  2  0  0  0
 20 95  1  0  0  0
 21 23  1  0  0  0
 22 28  1  0  0  0
 22 32  2  0  0  0
 26 27  1  0  0  0
 28 96  1  0  0  0
 28 97  1  0  0  0
 29 98  1  0  0  0
 29 99  1  0  0  0
 33 34  1  0  0  0
 33 66  1  0  0  0
 33 70  2  0  0  0
 34 36  1  0  0  0
 34 59  1  0  0  0
 34100  1  0  0  0
 35 44  2  0  0  0
 35 45  1  0  0  0
 35 68  1  0  0  0
 36 56  1  0  0  0
 36101  1  0  0  0
 37 39  1  0  0  0
 37 47  1  0  0  0
 37 66  1  0  0  0
 37102  1  0  0  0
 38 43  2  0  0  0
 38 46  1  0  0  0
 38 47  1  0  0  0
 39 64  1  0  0  0
 39 67  2  0  0  0
 40 52  1  0  0  0
 40 53  2  0  0  0
 40 58  1  0  0  0
 41103  1  0  0  0
 41104  1  0  0  0
 41105  1  0  0  0
 41 48  1  0  0  0
 42 43  1  0  0  0
 42 66  1  0  0  0
 42106  1  0  0  0
 42107  1  0  0  0
 43 44  1  0  0  0
 44108  1  0  0  0
 45 46  2  0  0  0
 45109  1  0  0  0
 46110  1  0  0  0
 47111  1  0  0  0
 47112  1  0  0  0
 48 56  1  0  0  0
 48 65  1  0  0  0
 48113  1  0  0  0
 49 50  1  0  0  0
 49 53  1  0  0  0
 49 64  1  0  0  0
 49114  1  0  0  0
 50 51  1  0  0  0
 50115  1  0  0  0
 50116  1  0  0  0
 51 52  1  0  0  0
 51117  1  0  0  0
 51118  1  0  0  0
 52119  1  0  0  0
 52120  1  0  0  0
 53 54  1  0  0  0
 54 55  2  0  0  0
 54121  1  0  0  0
 55 57  1  0  0  0
 55122  1  0  0  0
 56 69  2  0  0  0
 57 58  2  0  0  0
 57123  1  0  0  0
 58124  1  0  0  0
 59 60  1  0  0  0
 59 61  1  0  0  0
 59 62  1  0  0  0
 60125  1  0  0  0
 60126  1  0  0  0
 60127  1  0  0  0
 61128  1  0  0  0
 61129  1  0  0  0
 61130  1  0  0  0
 62131  1  0  0  0
 62132  1  0  0  0
 62133  1  0  0  0
 63 65  1  0  0  0
 63134  1  0  0  0
 63135  1  0  0  0
 63136  1  0  0  0
 64137  1  0  0  0
 65138  1  0  0  0
 68 77  1  0  0  0
 71 77  1  0  0  0
 71 79  2  0  0  0
 71 76  1  0  0  0
 72 74  1  0  0  0
 72 76  1  0  0  0
 72139  1  0  0  0
 72140  1  0  0  0
 73 75  1  0  0  0
 73 76  1  0  0  0
 73141  1  0  0  0
 73142  1  0  0  0
 74 78  1  0  0  0
 74143  1  0  0  0
 74144  1  0  0  0
 75 78  1  0  0  0
 75145  1  0  0  0
 75146  1  0  0  0
 76147  1  0  0  0
 77148  1  0  0  0
 77149  1  0  0  0
M  ISO  4   1 100  68 101  77 101  78 100
M  END
> <chiral flag>
0

> <version>
0

> <s_m_source_file>
/data/baiqing/PycharmProjects/Reinvent-master-3.2/result/LINK_invent/BTK/process_docking_weight1_custom_sum_contain_oxygen_bond_distance_aromatic_linkinvent_7_9_3/rearranged_h_0182.sdf

> <i_m_source_file_index>
77

> <r_mmod_Potential_Energy-OPLS-2005>
2107.31591796875

> <r_mmod_Stretch_Energy-OPLS-2005>
791.070495605469

> <r_mmod_Bend_Energy-OPLS-2005>
630.622497558594

> <r_mmod_Torsional_Energy-OPLS-2005>
342.614654541016

> <r_mmod_Improper_Torsional_Energy-OPLS-2005>
4.66442584991455

> <r_mmod_Van_der_Waal_Energy-OPLS-2005>
118.101135253906

> <r_mmod_Electrostatic_Energy-OPLS-2005>
-239.005294799805

> <r_mmod_Solvation_Energy-OPLS-2005>
-228.17008972168

> <b_mmod_Minimization_Converged-OPLS-2005>
0

> <r_mmod_RMS_Derivative-OPLS-2005>
0.974368691444397

$$$$
77
                    3D
 Structure written by MMmdl.
163172  0  0  1  0            999 V2000
  -30.5772  -14.9406   20.4258 C   0  0  0  0  0  0
  -30.4257  -12.5850   19.5026 C   0  0  0  0  0  0
  -29.5147  -12.5177   18.2579 C   0  0  0  0  0  0
  -28.0502  -12.3060   18.6796 C   0  0  0  0  0  0
  -27.6247  -13.2516   19.8350 C   0  0  2  0  0  0
  -28.6653  -13.3024   20.9732 C   0  0  0  0  0  0
  -25.2438  -13.8231   20.5727 C   0  0  0  0  0  0
  -24.1759  -13.0444   20.9229 C   0  0  0  0  0  0
  -24.6374  -11.6933   20.8754 C   0  0  0  0  0  0
  -23.9069  -10.4291   21.0407 C   0  0  0  0  0  0
  -24.3627   -9.4209   21.9185 C   0  0  0  0  0  0
  -23.6307   -8.2240   22.0751 C   0  0  0  0  0  0
  -22.4285   -8.0278   21.3542 C   0  0  0  0  0  0
  -21.9917   -9.0256   20.4651 C   0  0  0  0  0  0
  -22.7243  -10.2132   20.3058 C   0  0  0  0  0  0
  -21.6853   -6.0732   22.5271 C   0  0  0  0  0  0
  -21.4020   -6.5638   23.8206 C   0  0  0  0  0  0
  -21.3666   -5.6791   24.9172 C   0  0  0  0  0  0
  -21.6049   -4.3054   24.7221 C   0  0  0  0  0  0
  -21.8824   -3.8145   23.4343 C   0  0  0  0  0  0
  -21.9194   -4.6959   22.3398 C   0  0  0  0  0  0
  -22.7783  -13.5217   21.1871 C   0  0  0  0  0  0
  -22.1658   -4.2142   21.0976 F   0  0  0  0  0  0
  -21.5626   -3.4547   25.7738 F   0  0  0  0  0  0
  -29.9378  -13.7027   20.3651 N   0  0  0  0  0  0
  -26.2860  -12.9469   20.3249 N   0  0  0  0  0  0
  -25.9308  -11.6593   20.5753 N   0  0  0  0  0  0
  -22.0416  -12.8231   22.0431 N   0  0  0  0  0  0
  -25.4107  -15.1960   20.4163 N   0  0  0  0  0  0
  -31.7815  -14.9358   20.1381 O   0  0  0  0  0  0
  -21.6642   -6.8879   21.4238 O   0  0  0  0  0  0
  -22.3475  -14.5518   20.6699 O   0  0  0  0  0  0
  -24.6429  -31.8427   23.1869 C   0  0  0  0  0  0
  -25.9204  -32.4680   23.8263 C   0  0  1  0  0  0
  -27.2108  -27.1281   20.1478 C   0  0  0  0  0  0
  -25.5950  -33.8490   24.2183 N   0  0  0  0  0  0
  -23.4457  -30.4614   21.5326 C   0  0  2  0  0  0
  -24.8929  -28.8870   20.1044 C   0  0  0  0  0  0
  -22.7566  -29.4530   22.4860 C   0  0  0  0  0  0
  -18.0307  -28.1378   22.8479 C   0  0  0  0  0  0
  -24.1491  -36.7255   23.2644 C   0  0  0  0  0  0
  -26.0011  -30.7116   21.3876 C   0  0  0  0  0  0
  -26.0679  -29.3236   20.7272 C   0  0  0  0  0  0
  -27.2237  -28.4575   20.7351 C   0  0  0  0  0  0
  -26.0078  -26.7896   19.4903 C   0  0  0  0  0  0
  -24.8764  -27.6348   19.4714 C   0  0  0  0  0  0
  -23.6702  -29.7903   20.1508 C   0  0  0  0  0  0
  -25.4123  -36.3030   24.0320 C   0  0  1  0  0  0
  -20.5915  -28.3704   23.1239 C   0  0  2  0  0  0
  -20.6783  -26.9408   22.5404 C   0  0  0  0  0  0
  -19.5763  -26.6370   21.5206 C   0  0  0  0  0  0
  -18.1946  -26.7922   22.1615 C   0  0  0  0  0  0
  -19.1562  -28.8864   23.2850 C   0  0  0  0  0  0
  -18.9474  -30.1460   23.8872 C   0  0  0  0  0  0
  -17.6471  -30.6579   24.0557 C   0  0  0  0  0  0
  -25.9074  -34.9403   23.5064 C   0  0  0  0  0  0
  -16.5362  -29.9069   23.6333 C   0  0  0  0  0  0
  -16.7292  -28.6484   23.0363 C   0  0  0  0  0  0
  -26.4522  -31.6550   25.0710 C   0  0  0  0  0  0
  -25.3715  -31.3747   26.1417 C   0  0  0  0  0  0
  -27.0395  -30.2943   24.6302 C   0  0  0  0  0  0
  -27.6048  -32.4333   25.7490 C   0  0  0  0  0  0
  -27.5583  -37.1781   24.8468 C   0  0  0  0  0  0
  -21.4258  -29.3029   22.3614 N   0  0  0  0  0  0
  -26.4291  -37.3740   23.9408 N   0  0  0  0  0  0
  -24.7164  -31.0278   22.0901 N   0  0  0  0  0  0
  -23.4218  -28.8092   23.3019 O   0  0  0  0  0  0
  -28.2753  -26.1622   20.2696 O   0  0  0  0  0  0
  -26.5665  -34.8903   22.4646 O   0  0  0  0  0  0
  -23.5547  -32.1313   23.7086 O   0  0  0  0  0  0
  -29.4169  -22.2739   21.0202 C   0  0  0  0  0  0
  -30.1692  -23.0874   21.9198 C   0  0  0  0  0  0
  -29.8476  -20.8156   21.0264 C   0  0  0  0  0  0
  -31.6103  -21.4198   22.4339 C   0  0  0  0  0  0
  -30.4276  -18.7185   19.7484 C   0  0  0  0  0  0
  -28.9507  -18.5039   21.5481 C   0  0  0  0  0  0
  -30.0899  -17.2261   19.2907 C   0  0  0  0  0  0
  -28.9706  -16.8734   21.3398 C   0  0  0  0  0  0
  -29.7998  -24.5080   22.3088 C   0  0  0  0  0  0
  -32.8448  -20.9528   23.1738 C   0  0  0  0  0  0
  -28.2382  -23.1391   20.2911 C   0  0  0  0  0  0
  -28.3425  -24.7251   19.6694 C   0  0  0  0  0  0
  -31.2548  -22.6704   22.5798 N   0  0  0  0  0  0
  -30.9574  -20.5218   21.7340 N   0  0  0  0  0  0
  -29.3796  -19.5013   20.4899 N   0  0  0  0  0  0
  -29.8698  -16.1856   20.3480 N   0  0  0  0  0  0
  -31.4610  -12.7203   19.1880 H   0  0  0  0  0  0
  -30.4064  -11.6411   20.0505 H   0  0  0  0  0  0
  -29.8360  -11.7109   17.5971 H   0  0  0  0  0  0
  -29.6020  -13.4409   17.6823 H   0  0  0  0  0  0
  -27.9538  -11.2693   19.0061 H   0  0  0  0  0  0
  -27.3848  -12.4168   17.8222 H   0  0  0  0  0  0
  -27.5826  -14.2493   19.3952 H   0  0  0  0  0  0
  -28.7517  -12.3394   21.4784 H   0  0  0  0  0  0
  -28.3635  -14.0253   21.7323 H   0  0  0  0  0  0
  -25.2769   -9.5695   22.4762 H   0  0  0  0  0  0
  -24.0009   -7.4642   22.7488 H   0  0  0  0  0  0
  -21.0829   -8.8792   19.8975 H   0  0  0  0  0  0
  -22.3698  -10.9679   19.6175 H   0  0  0  0  0  0
  -21.2009   -7.6141   23.9716 H   0  0  0  0  0  0
  -21.1484   -6.0510   25.9075 H   0  0  0  0  0  0
  -22.0592   -2.7603   23.2838 H   0  0  0  0  0  0
  -22.4031  -11.9927   22.4873 H   0  0  0  0  0  0
  -21.1034  -13.1258   22.2608 H   0  0  0  0  0  0
  -24.6431  -15.8478   20.5369 H   0  0  0  0  0  0
  -26.2582  -15.6393   20.0863 H   0  0  0  0  0  0
  -26.7264  -32.5275   23.0983 H   0  0  0  0  0  0
  -25.0083  -33.9601   25.0324 H   0  0  0  0  0  0
  -22.7475  -31.2866   21.3786 H   0  0  0  0  0  0
  -23.3758  -35.9580   23.3291 H   0  0  0  0  0  0
  -24.3580  -36.8903   22.2062 H   0  0  0  0  0  0
  -23.7238  -37.6444   23.6690 H   0  0  0  0  0  0
  -26.1634  -31.4656   20.6162 H   0  0  0  0  0  0
  -26.8695  -30.7568   22.0336 H   0  0  0  0  0  0
  -28.1166  -28.7822   21.2501 H   0  0  0  0  0  0
  -25.8881  -25.8256   19.0232 H   0  0  0  0  0  0
  -23.9768  -27.2925   18.9779 H   0  0  0  0  0  0
  -23.8047  -30.5635   19.3936 H   0  0  0  0  0  0
  -22.7841  -29.2316   19.8437 H   0  0  0  0  0  0
  -25.1303  -36.1861   25.0811 H   0  0  0  0  0  0
  -21.0011  -28.3286   24.1360 H   0  0  0  0  0  0
  -20.5655  -26.2319   23.3622 H   0  0  0  0  0  0
  -21.6652  -26.7402   22.1217 H   0  0  0  0  0  0
  -19.6921  -25.6274   21.1253 H   0  0  0  0  0  0
  -19.6701  -27.3163   20.6721 H   0  0  0  0  0  0
  -17.4216  -26.6681   21.4015 H   0  0  0  0  0  0
  -18.0336  -26.0061   22.9005 H   0  0  0  0  0  0
  -19.7953  -30.7281   24.2236 H   0  0  0  0  0  0
  -17.5023  -31.6262   24.5158 H   0  0  0  0  0  0
  -15.5359  -30.2958   23.7667 H   0  0  0  0  0  0
  -15.8698  -28.0785   22.7099 H   0  0  0  0  0  0
  -24.5880  -30.7107   25.7740 H   0  0  0  0  0  0
  -24.8924  -32.2936   26.4805 H   0  0  0  0  0  0
  -25.8002  -30.8938   27.0220 H   0  0  0  0  0  0
  -26.3013  -29.6659   24.1304 H   0  0  0  0  0  0
  -27.3997  -29.7242   25.4873 H   0  0  0  0  0  0
  -27.8924  -30.4169   23.9627 H   0  0  0  0  0  0
  -27.2618  -33.3634   26.2032 H   0  0  0  0  0  0
  -28.3863  -32.6902   25.0329 H   0  0  0  0  0  0
  -28.0719  -31.8504   26.5436 H   0  0  0  0  0  0
  -28.2588  -38.0087   24.7509 H   0  0  0  0  0  0
  -28.1090  -36.2618   24.6289 H   0  0  0  0  0  0
  -27.2314  -37.1428   25.8876 H   0  0  0  0  0  0
  -20.9473  -29.8740   21.6790 H   0  0  0  0  0  0
  -26.0164  -38.2814   24.1392 H   0  0  0  0  0  0
  -30.6845  -19.2976   18.8609 H   0  0  0  0  0  0
  -31.3532  -18.6520   20.3213 H   0  0  0  0  0  0
  -29.5246  -18.6910   22.4564 H   0  0  0  0  0  0
  -27.9335  -18.7824   21.8284 H   0  0  0  0  0  0
  -30.8938  -16.8858   18.6354 H   0  0  0  0  0  0
  -29.2023  -17.2416   18.6568 H   0  0  0  0  0  0
  -27.9593  -16.5770   21.0623 H   0  0  0  0  0  0
  -29.1304  -16.4121   22.3154 H   0  0  0  0  0  0
  -30.1858  -25.2185   21.5800 H   0  0  0  0  0  0
  -30.2349  -24.7777   23.2713 H   0  0  0  0  0  0
  -28.7227  -24.6297   22.4209 H   0  0  0  0  0  0
  -33.3797  -21.7864   23.6286 H   0  0  0  0  0  0
  -33.5294  -20.4477   22.4936 H   0  0  0  0  0  0
  -32.5715  -20.2561   23.9654 H   0  0  0  0  0  0
  -27.3760  -23.1112   20.9584 H   0  0  0  0  0  0
  -27.9425  -22.5089   19.4520 H   0  0  0  0  0  0
  -27.6367  -24.7270   18.8423 H   0  0  0  0  0  0
  -29.2973  -24.7345   19.1438 H   0  0  0  0  0  0
  1 25  1  0  0  0
  1 30  2  0  0  0
  1 86  1  0  0  0
  2  3  1  0  0  0
  2 25  1  0  0  0
  2 87  1  0  0  0
  2 88  1  0  0  0
  3  4  1  0  0  0
  3 89  1  0  0  0
  3 90  1  0  0  0
  4  5  1  0  0  0
  4 91  1  0  0  0
  4 92  1  0  0  0
  5  6  1  0  0  0
  5 26  1  0  0  0
  5 93  1  0  0  0
  6 25  1  0  0  0
  6 94  1  0  0  0
  6 95  1  0  0  0
  7  8  2  0  0  0
  7 26  1  0  0  0
  7 29  1  0  0  0
  8  9  1  0  0  0
  8 22  1  0  0  0
  9 10  1  0  0  0
  9 27  2  0  0  0
 10 11  2  0  0  0
 10 15  1  0  0  0
 11 12  1  0  0  0
 11 96  1  0  0  0
 12 13  2  0  0  0
 12 97  1  0  0  0
 13 14  1  0  0  0
 13 31  1  0  0  0
 14 15  2  0  0  0
 14 98  1  0  0  0
 15 99  1  0  0  0
 16 17  2  0  0  0
 16 21  1  0  0  0
 16 31  1  0  0  0
 17 18  1  0  0  0
 17100  1  0  0  0
 18 19  2  0  0  0
 18101  1  0  0  0
 19 20  1  0  0  0
 19 24  1  0  0  0
 20 21  2  0  0  0
 20102  1  0  0  0
 21 23  1  0  0  0
 22 28  1  0  0  0
 22 32  2  0  0  0
 26 27  1  0  0  0
 28103  1  0  0  0
 28104  1  0  0  0
 29105  1  0  0  0
 29106  1  0  0  0
 33 34  1  0  0  0
 33 66  1  0  0  0
 33 70  2  0  0  0
 34 36  1  0  0  0
 34 59  1  0  0  0
 34107  1  0  0  0
 35 44  2  0  0  0
 35 45  1  0  0  0
 35 68  1  0  0  0
 36 56  1  0  0  0
 36108  1  0  0  0
 37 39  1  0  0  0
 37 47  1  0  0  0
 37 66  1  0  0  0
 37109  1  0  0  0
 38 43  2  0  0  0
 38 46  1  0  0  0
 38 47  1  0  0  0
 39 64  1  0  0  0
 39 67  2  0  0  0
 40 52  1  0  0  0
 40 53  2  0  0  0
 40 58  1  0  0  0
 41110  1  0  0  0
 41111  1  0  0  0
 41112  1  0  0  0
 41 48  1  0  0  0
 42 43  1  0  0  0
 42 66  1  0  0  0
 42113  1  0  0  0
 42114  1  0  0  0
 43 44  1  0  0  0
 44115  1  0  0  0
 45 46  2  0  0  0
 45116  1  0  0  0
 46117  1  0  0  0
 47118  1  0  0  0
 47119  1  0  0  0
 48 56  1  0  0  0
 48 65  1  0  0  0
 48120  1  0  0  0
 49 50  1  0  0  0
 49 53  1  0  0  0
 49 64  1  0  0  0
 49121  1  0  0  0
 50 51  1  0  0  0
 50122  1  0  0  0
 50123  1  0  0  0
 51 52  1  0  0  0
 51124  1  0  0  0
 51125  1  0  0  0
 52126  1  0  0  0
 52127  1  0  0  0
 53 54  1  0  0  0
 54 55  2  0  0  0
 54128  1  0  0  0
 55 57  1  0  0  0
 55129  1  0  0  0
 56 69  2  0  0  0
 57 58  2  0  0  0
 57130  1  0  0  0
 58131  1  0  0  0
 59 60  1  0  0  0
 59 61  1  0  0  0
 59 62  1  0  0  0
 60132  1  0  0  0
 60133  1  0  0  0
 60134  1  0  0  0
 61135  1  0  0  0
 61136  1  0  0  0
 61137  1  0  0  0
 62138  1  0  0  0
 62139  1  0  0  0
 62140  1  0  0  0
 63 65  1  0  0  0
 63141  1  0  0  0
 63142  1  0  0  0
 63143  1  0  0  0
 64144  1  0  0  0
 65145  1  0  0  0
 68 82  1  0  0  0
 71 72  2  0  0  0
 71 73  1  0  0  0
 71 81  1  0  0  0
 72 79  1  0  0  0
 72 83  1  0  0  0
 73 84  2  0  0  0
 73 85  1  0  0  0
 74 80  1  0  0  0
 74 83  2  0  0  0
 74 84  1  0  0  0
 75 77  1  0  0  0
 75 85  1  0  0  0
 75146  1  0  0  0
 75147  1  0  0  0
 76 78  1  0  0  0
 76 85  1  0  0  0
 76148  1  0  0  0
 76149  1  0  0  0
 77 86  1  0  0  0
 77150  1  0  0  0
 77151  1  0  0  0
 78 86  1  0  0  0
 78152  1  0  0  0
 78153  1  0  0  0
 79154  1  0  0  0
 79155  1  0  0  0
 79156  1  0  0  0
 80157  1  0  0  0
 80158  1  0  0  0
 80159  1  0  0  0
 81 82  1  0  0  0
 81160  1  0  0  0
 81161  1  0  0  0
 82162  1  0  0  0
 82163  1  0  0  0
M  ISO  4   1 100  68 101  82 101  86 100
M  END
> <chiral flag>
0

> <version>
0

> <s_m_source_file>
/data/baiqing/PycharmProjects/Reinvent-master-3.2/result/LINK_invent/BTK/process_docking_weight1_custom_sum_contain_oxygen_bond_distance_aromatic_linkinvent_7_9_3/rearranged_h_0182.sdf

> <i_m_source_file_index>
78

> <r_mmod_Potential_Energy-OPLS-2005>
314.205169677734

> <r_mmod_Stretch_Energy-OPLS-2005>
259.506774902344

> <r_mmod_Bend_Energy-OPLS-2005>
391.552825927734

> <r_mmod_Torsional_Energy-OPLS-2005>
362.017395019531

> <r_mmod_Improper_Torsional_Energy-OPLS-2005>
21.3181438446045

> <r_mmod_Van_der_Waal_Energy-OPLS-2005>
168.249588012695

> <r_mmod_Electrostatic_Energy-OPLS-2005>
-844.19140625

> <r_mmod_Solvation_Energy-OPLS-2005>
-236.043609619141

> <b_mmod_Minimization_Converged-OPLS-2005>
0

> <r_mmod_RMS_Derivative-OPLS-2005>
1.65078794956207

$$$$
78
                    3D
 Structure written by MMmdl.
157166  0  0  1  0            999 V2000
  -30.5541  -14.9011   20.4649 C   0  0  0  0  0  0
  -30.4392  -12.5590   19.5069 C   0  0  0  0  0  0
  -29.5331  -12.5554   18.2538 C   0  0  0  0  0  0
  -28.0601  -12.3357   18.6594 C   0  0  0  0  0  0
  -27.6380  -13.2443   19.8456 C   0  0  2  0  0  0
  -28.6706  -13.2433   20.9915 C   0  0  0  0  0  0
  -25.2508  -13.8207   20.5662 C   0  0  0  0  0  0
  -24.1789  -13.0460   20.9179 C   0  0  0  0  0  0
  -24.6396  -11.6923   20.8693 C   0  0  0  0  0  0
  -23.9062  -10.4286   21.0360 C   0  0  0  0  0  0
  -24.3588   -9.4199   21.9143 C   0  0  0  0  0  0
  -23.6270   -8.2221   22.0731 C   0  0  0  0  0  0
  -22.4257   -8.0253   21.3528 C   0  0  0  0  0  0
  -21.9894   -9.0236   20.4632 C   0  0  0  0  0  0
  -22.7234  -10.2123   20.3021 C   0  0  0  0  0  0
  -21.6849   -6.0720   22.5274 C   0  0  0  0  0  0
  -21.4030   -6.5623   23.8200 C   0  0  0  0  0  0
  -21.3682   -5.6766   24.9161 C   0  0  0  0  0  0
  -21.6047   -4.3024   24.7224 C   0  0  0  0  0  0
  -21.8819   -3.8146   23.4333 C   0  0  0  0  0  0
  -21.9204   -4.6947   22.3396 C   0  0  0  0  0  0
  -22.7816  -13.5252   21.1853 C   0  0  0  0  0  0
  -22.1653   -4.2134   21.0970 F   0  0  0  0  0  0
  -21.5650   -3.4512   25.7744 F   0  0  0  0  0  0
  -29.9566  -13.6438   20.4071 N   0  0  0  0  0  0
  -26.2908  -12.9432   20.3192 N   0  0  0  0  0  0
  -25.9348  -11.6563   20.5713 N   0  0  0  0  0  0
  -22.0397  -12.8258   22.0355 N   0  0  0  0  0  0
  -25.4295  -15.1903   20.4078 N   0  0  0  0  0  0
  -31.7510  -14.9753   20.1582 O   0  0  0  0  0  0
  -21.6620   -6.8859   21.4224 O   0  0  0  0  0  0
  -22.3518  -14.5557   20.6718 O   0  0  0  0  0  0
  -24.6447  -31.8445   23.1879 C   0  0  0  0  0  0
  -25.9218  -32.4672   23.8259 C   0  0  1  0  0  0
  -27.2082  -27.1420   20.1809 C   0  0  0  0  0  0
  -25.5965  -33.8473   24.2185 N   0  0  0  0  0  0
  -23.4463  -30.4629   21.5306 C   0  0  2  0  0  0
  -24.8958  -28.8839   20.1156 C   0  0  0  0  0  0
  -22.7561  -29.4548   22.4867 C   0  0  0  0  0  0
  -18.0307  -28.1372   22.8464 C   0  0  0  0  0  0
  -24.1513  -36.7256   23.2640 C   0  0  0  0  0  0
  -25.9979  -30.7242   21.3797 C   0  0  0  0  0  0
  -26.0699  -29.3298   20.7360 C   0  0  0  0  0  0
  -27.2327  -28.4763   20.7496 C   0  0  0  0  0  0
  -26.0171  -26.7872   19.5247 C   0  0  0  0  0  0
  -24.8805  -27.6275   19.4928 C   0  0  0  0  0  0
  -23.6708  -29.7868   20.1519 C   0  0  0  0  0  0
  -25.4120  -36.3012   24.0324 C   0  0  1  0  0  0
  -20.5915  -28.3710   23.1228 C   0  0  2  0  0  0
  -20.6772  -26.9404   22.5404 C   0  0  0  0  0  0
  -19.5748  -26.6366   21.5186 C   0  0  0  0  0  0
  -18.1929  -26.7909   22.1604 C   0  0  0  0  0  0
  -19.1563  -28.8852   23.2837 C   0  0  0  0  0  0
  -18.9475  -30.1443   23.8848 C   0  0  0  0  0  0
  -17.6480  -30.6570   24.0536 C   0  0  0  0  0  0
  -25.9056  -34.9398   23.5060 C   0  0  0  0  0  0
  -16.5367  -29.9057   23.6326 C   0  0  0  0  0  0
  -16.7294  -28.6482   23.0340 C   0  0  0  0  0  0
  -26.4539  -31.6508   25.0688 C   0  0  0  0  0  0
  -25.3738  -31.3692   26.1402 C   0  0  0  0  0  0
  -27.0373  -30.2899   24.6233 C   0  0  0  0  0  0
  -27.6110  -32.4230   25.7467 C   0  0  0  0  0  0
  -27.5582  -37.1784   24.8454 C   0  0  0  0  0  0
  -21.4259  -29.3055   22.3623 N   0  0  0  0  0  0
  -26.4276  -37.3729   23.9414 N   0  0  0  0  0  0
  -24.7146  -31.0334   22.0873 N   0  0  0  0  0  0
  -23.4228  -28.8087   23.2981 O   0  0  0  0  0  0
  -28.2814  -26.1950   20.1255 O   0  0  0  0  0  0
  -26.5644  -34.8896   22.4639 O   0  0  0  0  0  0
  -23.5565  -32.1325   23.7130 O   0  0  0  0  0  0
  -26.7930  -22.9753   20.0166 C   0  0  0  0  0  0
  -26.4537  -21.6143   19.8893 C   0  0  0  0  0  0
  -28.0860  -23.3293   20.4428 C   0  0  0  0  0  0
  -28.5658  -20.9093   20.4975 C   0  0  0  0  0  0
  -29.5417  -17.1861   19.6608 C   0  0  0  0  0  0
  -30.1538  -17.2496   21.5560 C   0  0  0  0  0  0
  -29.1571  -18.2143   20.7938 C   0  0  0  0  0  0
  -24.0109  -21.3419   20.6285 C   0  0  0  0  0  0
  -25.0380  -21.2053   19.4904 C   0  0  0  0  0  0
  -28.3544  -24.8796   20.9344 C   0  0  0  0  0  0
  -27.3233  -20.6102   20.1465 N   0  0  0  0  0  0
  -28.9637  -22.2328   20.6639 N   0  0  0  0  0  0
  -29.7800  -16.0768   20.6728 N   0  0  0  0  0  0
  -29.4468  -19.7487   20.6841 N   0  0  0  0  0  0
  -31.4779  -12.7014   19.2108 H   0  0  0  0  0  0
  -30.4027  -11.5912   20.0097 H   0  0  0  0  0  0
  -29.8563  -11.7820   17.5558 H   0  0  0  0  0  0
  -29.6282  -13.5102   17.7315 H   0  0  0  0  0  0
  -27.9462  -11.2890   18.9423 H   0  0  0  0  0  0
  -27.4027  -12.4973   17.8031 H   0  0  0  0  0  0
  -27.6223  -14.2573   19.4437 H   0  0  0  0  0  0
  -28.7367  -12.2639   21.4709 H   0  0  0  0  0  0
  -28.3630  -13.9387   21.7739 H   0  0  0  0  0  0
  -25.2701   -9.5755   22.4730 H   0  0  0  0  0  0
  -24.0016   -7.4661   22.7477 H   0  0  0  0  0  0
  -21.0838   -8.8819   19.8923 H   0  0  0  0  0  0
  -22.3704  -10.9691   19.6147 H   0  0  0  0  0  0
  -21.2002   -7.6121   23.9726 H   0  0  0  0  0  0
  -21.1507   -6.0454   25.9060 H   0  0  0  0  0  0
  -22.0588   -2.7616   23.2815 H   0  0  0  0  0  0
  -22.3989  -11.9958   22.4820 H   0  0  0  0  0  0
  -21.1026  -13.1392   22.2490 H   0  0  0  0  0  0
  -24.6773  -15.8585   20.5354 H   0  0  0  0  0  0
  -26.2992  -15.6228   20.1243 H   0  0  0  0  0  0
  -26.7291  -32.5291   23.0988 H   0  0  0  0  0  0
  -25.0147  -33.9567   25.0358 H   0  0  0  0  0  0
  -22.7469  -31.2876   21.3739 H   0  0  0  0  0  0
  -23.3772  -35.9590   23.3247 H   0  0  0  0  0  0
  -24.3637  -36.8933   22.2071 H   0  0  0  0  0  0
  -23.7261  -37.6438   23.6690 H   0  0  0  0  0  0
  -26.1473  -31.4710   20.5995 H   0  0  0  0  0  0
  -26.8709  -30.7821   22.0185 H   0  0  0  0  0  0
  -28.1373  -28.8210   21.2283 H   0  0  0  0  0  0
  -25.9562  -25.8321   19.0258 H   0  0  0  0  0  0
  -23.9879  -27.2822   18.9894 H   0  0  0  0  0  0
  -23.8142  -30.5525   19.3891 H   0  0  0  0  0  0
  -22.7860  -29.2277   19.8404 H   0  0  0  0  0  0
  -25.1312  -36.1836   25.0811 H   0  0  0  0  0  0
  -21.0011  -28.3251   24.1340 H   0  0  0  0  0  0
  -20.5632  -26.2278   23.3613 H   0  0  0  0  0  0
  -21.6643  -26.7357   22.1232 H   0  0  0  0  0  0
  -19.6899  -25.6267   21.1240 H   0  0  0  0  0  0
  -19.6691  -27.3155   20.6699 H   0  0  0  0  0  0
  -17.4198  -26.6650   21.3998 H   0  0  0  0  0  0
  -18.0331  -26.0059   22.9019 H   0  0  0  0  0  0
  -19.7945  -30.7271   24.2188 H   0  0  0  0  0  0
  -17.5028  -31.6254   24.5155 H   0  0  0  0  0  0
  -15.5360  -30.2946   23.7673 H   0  0  0  0  0  0
  -15.8694  -28.0802   22.7054 H   0  0  0  0  0  0
  -24.5937  -30.6996   25.7736 H   0  0  0  0  0  0
  -24.8913  -32.2875   26.4774 H   0  0  0  0  0  0
  -25.8077  -30.8918   27.0208 H   0  0  0  0  0  0
  -26.2948  -29.6621   24.1288 H   0  0  0  0  0  0
  -27.4024  -29.7196   25.4787 H   0  0  0  0  0  0
  -27.8851  -30.4108   23.9488 H   0  0  0  0  0  0
  -27.2740  -33.3564   26.1999 H   0  0  0  0  0  0
  -28.3962  -32.6716   25.0301 H   0  0  0  0  0  0
  -28.0723  -31.8355   26.5430 H   0  0  0  0  0  0
  -28.2561  -38.0125   24.7538 H   0  0  0  0  0  0
  -28.1127  -36.2657   24.6215 H   0  0  0  0  0  0
  -27.2328  -37.1344   25.8866 H   0  0  0  0  0  0
  -20.9450  -29.8787   21.6847 H   0  0  0  0  0  0
  -26.0149  -38.2799   24.1412 H   0  0  0  0  0  0
  -26.0322  -23.7307   19.8701 H   0  0  0  0  0  0
  -30.4339  -17.4712   19.0955 H   0  0  0  0  0  0
  -28.7190  -16.9872   18.9713 H   0  0  0  0  0  0
  -29.9011  -17.1105   22.6103 H   0  0  0  0  0  0
  -31.2038  -17.5446   21.4681 H   0  0  0  0  0  0
  -28.1378  -18.0416   21.1388 H   0  0  0  0  0  0
  -23.0169  -21.0524   20.2814 H   0  0  0  0  0  0
  -23.9437  -22.3678   20.9896 H   0  0  0  0  0  0
  -24.2686  -20.7037   21.4748 H   0  0  0  0  0  0
  -25.0463  -20.1732   19.1352 H   0  0  0  0  0  0
  -24.7190  -21.8105   18.6412 H   0  0  0  0  0  0
  -29.3564  -24.8762   21.3670 H   0  0  0  0  0  0
  -27.7023  -25.0255   21.7960 H   0  0  0  0  0  0
  -30.3993  -20.0203   20.8976 H   0  0  0  0  0  0
  1 25  1  0  0  0
  1 30  2  0  0  0
  1 83  1  0  0  0
  2  3  1  0  0  0
  2 25  1  0  0  0
  2 85  1  0  0  0
  2 86  1  0  0  0
  3  4  1  0  0  0
  3 87  1  0  0  0
  3 88  1  0  0  0
  4  5  1  0  0  0
  4 89  1  0  0  0
  4 90  1  0  0  0
  5  6  1  0  0  0
  5 26  1  0  0  0
  5 91  1  0  0  0
  6 25  1  0  0  0
  6 92  1  0  0  0
  6 93  1  0  0  0
  7  8  2  0  0  0
  7 26  1  0  0  0
  7 29  1  0  0  0
  8  9  1  0  0  0
  8 22  1  0  0  0
  9 10  1  0  0  0
  9 27  2  0  0  0
 10 11  2  0  0  0
 10 15  1  0  0  0
 11 12  1  0  0  0
 11 94  1  0  0  0
 12 13  2  0  0  0
 12 95  1  0  0  0
 13 14  1  0  0  0
 13 31  1  0  0  0
 14 15  2  0  0  0
 14 96  1  0  0  0
 15 97  1  0  0  0
 16 17  2  0  0  0
 16 21  1  0  0  0
 16 31  1  0  0  0
 17 18  1  0  0  0
 17 98  1  0  0  0
 18 19  2  0  0  0
 18 99  1  0  0  0
 19 20  1  0  0  0
 19 24  1  0  0  0
 20 21  2  0  0  0
 20100  1  0  0  0
 21 23  1  0  0  0
 22 28  1  0  0  0
 22 32  2  0  0  0
 26 27  1  0  0  0
 28101  1  0  0  0
 28102  1  0  0  0
 29103  1  0  0  0
 29104  1  0  0  0
 33 34  1  0  0  0
 33 66  1  0  0  0
 33 70  2  0  0  0
 34 36  1  0  0  0
 34 59  1  0  0  0
 34105  1  0  0  0
 35 44  2  0  0  0
 35 45  1  0  0  0
 35 68  1  0  0  0
 36 56  1  0  0  0
 36106  1  0  0  0
 37 39  1  0  0  0
 37 47  1  0  0  0
 37 66  1  0  0  0
 37107  1  0  0  0
 38 43  2  0  0  0
 38 46  1  0  0  0
 38 47  1  0  0  0
 39 64  1  0  0  0
 39 67  2  0  0  0
 40 52  1  0  0  0
 40 53  2  0  0  0
 40 58  1  0  0  0
 41108  1  0  0  0
 41109  1  0  0  0
 41110  1  0  0  0
 41 48  1  0  0  0
 42 43  1  0  0  0
 42 66  1  0  0  0
 42111  1  0  0  0
 42112  1  0  0  0
 43 44  1  0  0  0
 44113  1  0  0  0
 45 46  2  0  0  0
 45114  1  0  0  0
 46115  1  0  0  0
 47116  1  0  0  0
 47117  1  0  0  0
 48 56  1  0  0  0
 48 65  1  0  0  0
 48118  1  0  0  0
 49 50  1  0  0  0
 49 53  1  0  0  0
 49 64  1  0  0  0
 49119  1  0  0  0
 50 51  1  0  0  0
 50120  1  0  0  0
 50121  1  0  0  0
 51 52  1  0  0  0
 51122  1  0  0  0
 51123  1  0  0  0
 52124  1  0  0  0
 52125  1  0  0  0
 53 54  1  0  0  0
 54 55  2  0  0  0
 54126  1  0  0  0
 55 57  1  0  0  0
 55127  1  0  0  0
 56 69  2  0  0  0
 57 58  2  0  0  0
 57128  1  0  0  0
 58129  1  0  0  0
 59 60  1  0  0  0
 59 61  1  0  0  0
 59 62  1  0  0  0
 60130  1  0  0  0
 60131  1  0  0  0
 60132  1  0  0  0
 61133  1  0  0  0
 61134  1  0  0  0
 61135  1  0  0  0
 62136  1  0  0  0
 62137  1  0  0  0
 62138  1  0  0  0
 63 65  1  0  0  0
 63139  1  0  0  0
 63140  1  0  0  0
 63141  1  0  0  0
 64142  1  0  0  0
 65143  1  0  0  0
 68 80  1  0  0  0
 71 72  2  0  0  0
 71 73  1  0  0  0
 71144  1  0  0  0
 72 79  1  0  0  0
 72 81  1  0  0  0
 73 80  1  0  0  0
 73 82  2  0  0  0
 74 81  2  0  0  0
 74 82  1  0  0  0
 74 84  1  0  0  0
 75 77  1  0  0  0
 75 83  1  0  0  0
 75145  1  0  0  0
 75146  1  0  0  0
 76 77  1  0  0  0
 76 83  1  0  0  0
 76147  1  0  0  0
 76148  1  0  0  0
 77 84  1  0  0  0
 77149  1  0  0  0
 78 79  1  0  0  0
 78150  1  0  0  0
 78151  1  0  0  0
 78152  1  0  0  0
 79153  1  0  0  0
 79154  1  0  0  0
 80155  1  0  0  0
 80156  1  0  0  0
 84157  1  0  0  0
M  ISO  4   1 100  68 101  80 101  83 100
M  END
> <chiral flag>
0

> <version>
0

> <s_m_source_file>
/data/baiqing/PycharmProjects/Reinvent-master-3.2/result/LINK_invent/BTK/process_docking_weight1_custom_sum_contain_oxygen_bond_distance_aromatic_linkinvent_7_9_3/rearranged_h_0182.sdf

> <i_m_source_file_index>
79

> <r_mmod_Potential_Energy-OPLS-2005>
-55.0040473937988

> <r_mmod_Stretch_Energy-OPLS-2005>
204.40901184082

> <r_mmod_Bend_Energy-OPLS-2005>
265.588897705078

> <r_mmod_Torsional_Energy-OPLS-2005>
280.532592773438

> <r_mmod_Improper_Torsional_Energy-OPLS-2005>
13.6552047729492

> <r_mmod_Van_der_Waal_Energy-OPLS-2005>
125.58740234375

> <r_mmod_Electrostatic_Energy-OPLS-2005>
-874.30712890625

> <r_mmod_Solvation_Energy-OPLS-2005>
-235.097259521484

> <b_mmod_Minimization_Converged-OPLS-2005>
0

> <r_mmod_RMS_Derivative-OPLS-2005>
5.79614686965942

$$$$
79
                    3D
 Structure written by MMmdl.
155164  0  0  1  0            999 V2000
  -30.5861  -14.9003   20.2929 C   0  0  0  0  0  0
  -30.4359  -12.5412   19.4480 C   0  0  0  0  0  0
  -29.5063  -12.4830   18.2171 C   0  0  0  0  0  0
  -28.0403  -12.3036   18.6607 C   0  0  0  0  0  0
  -27.6299  -13.2509   19.8185 C   0  0  2  0  0  0
  -28.6906  -13.3124   20.9377 C   0  0  0  0  0  0
  -25.2492  -13.8268   20.5705 C   0  0  0  0  0  0
  -24.1834  -13.0477   20.9241 C   0  0  0  0  0  0
  -24.6426  -11.6968   20.8774 C   0  0  0  0  0  0
  -23.9130  -10.4318   21.0390 C   0  0  0  0  0  0
  -24.3656   -9.4224   21.9159 C   0  0  0  0  0  0
  -23.6344   -8.2271   22.0717 C   0  0  0  0  0  0
  -22.4337   -8.0286   21.3519 C   0  0  0  0  0  0
  -21.9963   -9.0260   20.4625 C   0  0  0  0  0  0
  -22.7293  -10.2151   20.3045 C   0  0  0  0  0  0
  -21.6867   -6.0755   22.5269 C   0  0  0  0  0  0
  -21.4012   -6.5636   23.8198 C   0  0  0  0  0  0
  -21.3660   -5.6796   24.9147 C   0  0  0  0  0  0
  -21.6050   -4.3068   24.7216 C   0  0  0  0  0  0
  -21.8833   -3.8146   23.4335 C   0  0  0  0  0  0
  -21.9212   -4.6973   22.3385 C   0  0  0  0  0  0
  -22.7846  -13.5195   21.1910 C   0  0  0  0  0  0
  -22.1684   -4.2161   21.0977 F   0  0  0  0  0  0
  -21.5622   -3.4559   25.7718 F   0  0  0  0  0  0
  -29.9574  -13.6660   20.2881 N   0  0  0  0  0  0
  -26.2947  -12.9500   20.3255 N   0  0  0  0  0  0
  -25.9389  -11.6639   20.5778 N   0  0  0  0  0  0
  -22.0496  -12.8158   22.0443 N   0  0  0  0  0  0
  -25.4215  -15.1968   20.4089 N   0  0  0  0  0  0
  -31.8116  -14.9145   20.1323 O   0  0  0  0  0  0
  -21.6676   -6.8894   21.4228 O   0  0  0  0  0  0
  -22.3495  -14.5501   20.6707 O   0  0  0  0  0  0
  -24.6395  -31.8511   23.1897 C   0  0  0  0  0  0
  -25.9205  -32.4763   23.8234 C   0  0  1  0  0  0
  -27.1922  -27.1776   20.1076 C   0  0  0  0  0  0
  -25.6029  -33.8550   24.2204 N   0  0  0  0  0  0
  -23.4398  -30.4733   21.5378 C   0  0  2  0  0  0
  -24.8754  -28.9123   20.0986 C   0  0  0  0  0  0
  -22.7566  -29.4584   22.4871 C   0  0  0  0  0  0
  -18.0295  -28.1448   22.8486 C   0  0  0  0  0  0
  -24.1495  -36.7166   23.2630 C   0  0  0  0  0  0
  -25.9936  -30.7343   21.3801 C   0  0  0  0  0  0
  -26.0553  -29.3508   20.7120 C   0  0  0  0  0  0
  -27.2128  -28.4957   20.7083 C   0  0  0  0  0  0
  -25.9809  -26.8147   19.4870 C   0  0  0  0  0  0
  -24.8473  -27.6525   19.4773 C   0  0  0  0  0  0
  -23.6549  -29.8186   20.1471 C   0  0  0  0  0  0
  -25.4122  -36.3005   24.0335 C   0  0  1  0  0  0
  -20.5922  -28.3730   23.1306 C   0  0  2  0  0  0
  -20.6841  -26.9465   22.5448 C   0  0  0  0  0  0
  -19.5769  -26.6452   21.5270 C   0  0  0  0  0  0
  -18.1951  -26.7987   22.1654 C   0  0  0  0  0  0
  -19.1576  -28.8884   23.2908 C   0  0  0  0  0  0
  -18.9470  -30.1472   23.8926 C   0  0  0  0  0  0
  -17.6489  -30.6653   24.0547 C   0  0  0  0  0  0
  -25.9082  -34.9430   23.5026 C   0  0  0  0  0  0
  -16.5361  -29.9155   23.6360 C   0  0  0  0  0  0
  -16.7290  -28.6582   23.0388 C   0  0  0  0  0  0
  -26.4511  -31.6582   25.0648 C   0  0  0  0  0  0
  -25.3691  -31.3873   26.1343 C   0  0  0  0  0  0
  -27.0249  -30.2932   24.6172 C   0  0  0  0  0  0
  -27.6077  -32.4295   25.7429 C   0  0  0  0  0  0
  -27.5570  -37.1747   24.8457 C   0  0  0  0  0  0
  -21.4263  -29.3077   22.3651 N   0  0  0  0  0  0
  -26.4235  -37.3755   23.9464 N   0  0  0  0  0  0
  -24.7108  -31.0446   22.0899 N   0  0  0  0  0  0
  -23.4285  -28.8159   23.2987 O   0  0  0  0  0  0
  -28.2614  -26.2350   20.1805 O   0  0  0  0  0  0
  -26.5648  -34.8949   22.4600 O   0  0  0  0  0  0
  -23.5562  -32.1335   23.7207 O   0  0  0  0  0  0
  -29.2533  -22.2627   20.2346 C   0  0  0  0  0  0
  -28.8511  -20.7881   19.9531 C   0  0  0  0  0  0
  -30.5360  -22.5893   20.4803 C   0  0  0  0  0  0
  -27.4071  -20.9185   19.4792 C   0  0  0  0  0  0
  -27.1298  -22.4433   19.2130 C   0  0  0  0  0  0
  -30.3864  -17.2763   19.2200 C   0  0  0  0  0  0
  -29.2599  -17.0995   20.9325 C   0  0  0  0  0  0
  -28.0815  -23.3271   20.0786 C   0  0  2  0  0  0
  -29.2268  -18.1900   19.7727 C   0  0  0  0  0  0
  -28.3059  -24.8692   19.4781 C   0  0  0  0  0  0
  -29.5849  -19.6718   20.0907 N   0  0  0  0  0  0
  -29.8568  -16.0803   19.9967 N   0  0  0  0  0  0
  -31.4666  -12.6840   19.1172 H   0  0  0  0  0  0
  -30.4209  -11.6054   20.0059 H   0  0  0  0  0  0
  -29.8025  -11.6657   17.5601 H   0  0  0  0  0  0
  -29.6107  -13.3968   17.6286 H   0  0  0  0  0  0
  -27.9300  -11.2721   18.9861 H   0  0  0  0  0  0
  -27.3661  -12.4286   17.8129 H   0  0  0  0  0  0
  -27.5840  -14.2463   19.3727 H   0  0  0  0  0  0
  -28.7741  -12.3706   21.4813 H   0  0  0  0  0  0
  -28.4247  -14.0815   21.6636 H   0  0  0  0  0  0
  -25.2809   -9.5721   22.4755 H   0  0  0  0  0  0
  -24.0061   -7.4670   22.7474 H   0  0  0  0  0  0
  -21.0893   -8.8797   19.8953 H   0  0  0  0  0  0
  -22.3745  -10.9683   19.6177 H   0  0  0  0  0  0
  -21.1986   -7.6153   23.9680 H   0  0  0  0  0  0
  -21.1455   -6.0526   25.9050 H   0  0  0  0  0  0
  -22.0609   -2.7628   23.2815 H   0  0  0  0  0  0
  -22.4172  -11.9833   22.4829 H   0  0  0  0  0  0
  -21.1098  -13.1103   22.2646 H   0  0  0  0  0  0
  -24.6544  -15.8520   20.5140 H   0  0  0  0  0  0
  -26.2640  -15.6324   20.0508 H   0  0  0  0  0  0
  -26.7293  -32.5315   23.0971 H   0  0  0  0  0  0
  -25.0340  -33.9691   25.0465 H   0  0  0  0  0  0
  -22.7323  -31.2931   21.4012 H   0  0  0  0  0  0
  -23.3813  -35.9419   23.3213 H   0  0  0  0  0  0
  -24.3608  -36.8817   22.2056 H   0  0  0  0  0  0
  -23.7190  -37.6351   23.6623 H   0  0  0  0  0  0
  -26.1556  -31.5019   20.6195 H   0  0  0  0  0  0
  -26.8660  -30.7689   22.0215 H   0  0  0  0  0  0
  -28.1137  -28.8253   21.2079 H   0  0  0  0  0  0
  -25.8549  -25.8455   19.0380 H   0  0  0  0  0  0
  -23.9428  -27.3004   19.0024 H   0  0  0  0  0  0
  -23.7956  -30.6025   19.3996 H   0  0  0  0  0  0
  -22.7637  -29.2718   19.8339 H   0  0  0  0  0  0
  -25.1339  -36.1775   25.0826 H   0  0  0  0  0  0
  -21.0040  -28.3279   24.1406 H   0  0  0  0  0  0
  -20.5845  -26.2331   23.3657 H   0  0  0  0  0  0
  -21.6696  -26.7617   22.1145 H   0  0  0  0  0  0
  -19.6955  -25.6402   21.1235 H   0  0  0  0  0  0
  -19.6649  -27.3322   20.6836 H   0  0  0  0  0  0
  -17.4251  -26.6756   21.4020 H   0  0  0  0  0  0
  -18.0232  -26.0180   22.9080 H   0  0  0  0  0  0
  -19.7947  -30.7273   24.2368 H   0  0  0  0  0  0
  -17.5038  -31.6322   24.5149 H   0  0  0  0  0  0
  -15.5359  -30.3063   23.7694 H   0  0  0  0  0  0
  -15.8679  -28.0892   22.7152 H   0  0  0  0  0  0
  -24.5859  -30.7214   25.7705 H   0  0  0  0  0  0
  -24.8896  -32.3103   26.4595 H   0  0  0  0  0  0
  -25.7975  -30.9198   27.0194 H   0  0  0  0  0  0
  -26.2803  -29.6789   24.1110 H   0  0  0  0  0  0
  -27.3732  -29.7130   25.4715 H   0  0  0  0  0  0
  -27.8766  -30.4120   23.9490 H   0  0  0  0  0  0
  -27.2723  -33.3651   26.1904 H   0  0  0  0  0  0
  -28.3952  -32.6770   25.0297 H   0  0  0  0  0  0
  -28.0576  -31.8459   26.5449 H   0  0  0  0  0  0
  -28.2590  -38.0083   24.7660 H   0  0  0  0  0  0
  -28.1133  -36.2649   24.6089 H   0  0  0  0  0  0
  -27.2349  -37.1174   25.8885 H   0  0  0  0  0  0
  -20.9415  -29.8712   21.6782 H   0  0  0  0  0  0
  -26.0075  -38.2774   24.1577 H   0  0  0  0  0  0
  -31.3131  -21.8388   20.5262 H   0  0  0  0  0  0
  -30.8313  -23.6182   20.6331 H   0  0  0  0  0  0
  -26.7442  -20.5534   20.2647 H   0  0  0  0  0  0
  -27.2236  -20.3211   18.5843 H   0  0  0  0  0  0
  -26.0724  -22.6873   19.3530 H   0  0  0  0  0  0
  -27.3452  -22.6366   18.1604 H   0  0  0  0  0  0
  -31.3884  -17.6038   19.5231 H   0  0  0  0  0  0
  -30.3752  -17.1731   18.1259 H   0  0  0  0  0  0
  -28.2626  -16.8317   21.3034 H   0  0  0  0  0  0
  -29.9210  -17.3501   21.7717 H   0  0  0  0  0  0
  -27.6264  -23.4266   21.0645 H   0  0  0  0  0  0
  -28.3441  -18.0923   19.1301 H   0  0  0  0  0  0
  -27.6929  -24.9461   18.5792 H   0  0  0  0  0  0
  -29.2978  -24.8579   19.0339 H   0  0  0  0  0  0
  1 25  1  0  0  0
  1 30  2  0  0  0
  1 82  1  0  0  0
  2  3  1  0  0  0
  2 25  1  0  0  0
  2 83  1  0  0  0
  2 84  1  0  0  0
  3  4  1  0  0  0
  3 85  1  0  0  0
  3 86  1  0  0  0
  4  5  1  0  0  0
  4 87  1  0  0  0
  4 88  1  0  0  0
  5  6  1  0  0  0
  5 26  1  0  0  0
  5 89  1  0  0  0
  6 25  1  0  0  0
  6 90  1  0  0  0
  6 91  1  0  0  0
  7  8  2  0  0  0
  7 26  1  0  0  0
  7 29  1  0  0  0
  8  9  1  0  0  0
  8 22  1  0  0  0
  9 10  1  0  0  0
  9 27  2  0  0  0
 10 11  2  0  0  0
 10 15  1  0  0  0
 11 12  1  0  0  0
 11 92  1  0  0  0
 12 13  2  0  0  0
 12 93  1  0  0  0
 13 14  1  0  0  0
 13 31  1  0  0  0
 14 15  2  0  0  0
 14 94  1  0  0  0
 15 95  1  0  0  0
 16 17  2  0  0  0
 16 21  1  0  0  0
 16 31  1  0  0  0
 17 18  1  0  0  0
 17 96  1  0  0  0
 18 19  2  0  0  0
 18 97  1  0  0  0
 19 20  1  0  0  0
 19 24  1  0  0  0
 20 21  2  0  0  0
 20 98  1  0  0  0
 21 23  1  0  0  0
 22 28  1  0  0  0
 22 32  2  0  0  0
 26 27  1  0  0  0
 28 99  1  0  0  0
 28100  1  0  0  0
 29101  1  0  0  0
 29102  1  0  0  0
 33 34  1  0  0  0
 33 66  1  0  0  0
 33 70  2  0  0  0
 34 36  1  0  0  0
 34 59  1  0  0  0
 34103  1  0  0  0
 35 44  2  0  0  0
 35 45  1  0  0  0
 35 68  1  0  0  0
 36 56  1  0  0  0
 36104  1  0  0  0
 37 39  1  0  0  0
 37 47  1  0  0  0
 37 66  1  0  0  0
 37105  1  0  0  0
 38 43  2  0  0  0
 38 46  1  0  0  0
 38 47  1  0  0  0
 39 64  1  0  0  0
 39 67  2  0  0  0
 40 52  1  0  0  0
 40 53  2  0  0  0
 40 58  1  0  0  0
 41106  1  0  0  0
 41107  1  0  0  0
 41108  1  0  0  0
 41 48  1  0  0  0
 42 43  1  0  0  0
 42 66  1  0  0  0
 42109  1  0  0  0
 42110  1  0  0  0
 43 44  1  0  0  0
 44111  1  0  0  0
 45 46  2  0  0  0
 45112  1  0  0  0
 46113  1  0  0  0
 47114  1  0  0  0
 47115  1  0  0  0
 48 56  1  0  0  0
 48 65  1  0  0  0
 48116  1  0  0  0
 49 50  1  0  0  0
 49 53  1  0  0  0
 49 64  1  0  0  0
 49117  1  0  0  0
 50 51  1  0  0  0
 50118  1  0  0  0
 50119  1  0  0  0
 51 52  1  0  0  0
 51120  1  0  0  0
 51121  1  0  0  0
 52122  1  0  0  0
 52123  1  0  0  0
 53 54  1  0  0  0
 54 55  2  0  0  0
 54124  1  0  0  0
 55 57  1  0  0  0
 55125  1  0  0  0
 56 69  2  0  0  0
 57 58  2  0  0  0
 57126  1  0  0  0
 58127  1  0  0  0
 59 60  1  0  0  0
 59 61  1  0  0  0
 59 62  1  0  0  0
 60128  1  0  0  0
 60129  1  0  0  0
 60130  1  0  0  0
 61131  1  0  0  0
 61132  1  0  0  0
 61133  1  0  0  0
 62134  1  0  0  0
 62135  1  0  0  0
 62136  1  0  0  0
 63 65  1  0  0  0
 63137  1  0  0  0
 63138  1  0  0  0
 63139  1  0  0  0
 64140  1  0  0  0
 65141  1  0  0  0
 68 80  1  0  0  0
 71 72  1  0  0  0
 71 73  2  0  0  0
 71 78  1  0  0  0
 72 74  1  0  0  0
 72 81  2  0  0  0
 73142  1  0  0  0
 73143  1  0  0  0
 74 75  1  0  0  0
 74144  1  0  0  0
 74145  1  0  0  0
 75 78  1  0  0  0
 75146  1  0  0  0
 75147  1  0  0  0
 76 79  1  0  0  0
 76 82  1  0  0  0
 76148  1  0  0  0
 76149  1  0  0  0
 77 79  1  0  0  0
 77 82  1  0  0  0
 77150  1  0  0  0
 77151  1  0  0  0
 78 80  1  0  0  0
 78152  1  0  0  0
 79 81  1  0  0  0
 79153  1  0  0  0
 80154  1  0  0  0
 80155  1  0  0  0
M  ISO  4   1 100  68 101  80 101  82 100
M  END
> <chiral flag>
0

> <version>
0

> <s_m_source_file>
/data/baiqing/PycharmProjects/Reinvent-master-3.2/result/LINK_invent/BTK/process_docking_weight1_custom_sum_contain_oxygen_bond_distance_aromatic_linkinvent_7_9_3/rearranged_h_0182.sdf

> <i_m_source_file_index>
80

> <r_mmod_Potential_Energy-OPLS-2005>
506.409393310547

> <r_mmod_Stretch_Energy-OPLS-2005>
185.877822875977

> <r_mmod_Bend_Energy-OPLS-2005>
280.643463134766

> <r_mmod_Torsional_Energy-OPLS-2005>
289.619995117188

> <r_mmod_Improper_Torsional_Energy-OPLS-2005>
21.5163879394531

> <r_mmod_Van_der_Waal_Energy-OPLS-2005>
110.558769226074

> <r_mmod_Electrostatic_Energy-OPLS-2005>
-346.947784423828

> <r_mmod_Solvation_Energy-OPLS-2005>
-203.955078125

> <b_mmod_Minimization_Converged-OPLS-2005>
0

> <r_mmod_RMS_Derivative-OPLS-2005>
9.85714054107666

$$$$
80
                    3D
 Structure written by MMmdl.
159168  0  0  1  0            999 V2000
  -30.6589  -14.4480   20.5921 C   0  0  0  0  0  0
  -30.4322  -12.2933   19.4104 C   0  0  0  0  0  0
  -29.5000  -12.5169   18.1996 C   0  0  0  0  0  0
  -28.0143  -12.3908   18.6009 C   0  0  0  0  0  0
  -27.6662  -13.1952   19.8846 C   0  0  2  0  0  0
  -28.7044  -12.9123   20.9953 C   0  0  0  0  0  0
  -25.2602  -13.8125   20.5615 C   0  0  0  0  0  0
  -24.1838  -13.0430   20.9193 C   0  0  0  0  0  0
  -24.6362  -11.6891   20.8719 C   0  0  0  0  0  0
  -23.8993  -10.4305   21.0409 C   0  0  0  0  0  0
  -24.3572   -9.4221   21.9178 C   0  0  0  0  0  0
  -23.6287   -8.2240   22.0735 C   0  0  0  0  0  0
  -22.4260   -8.0266   21.3539 C   0  0  0  0  0  0
  -21.9878   -9.0229   20.4622 C   0  0  0  0  0  0
  -22.7178  -10.2125   20.3045 C   0  0  0  0  0  0
  -21.6847   -6.0718   22.5283 C   0  0  0  0  0  0
  -21.4020   -6.5622   23.8213 C   0  0  0  0  0  0
  -21.3675   -5.6764   24.9178 C   0  0  0  0  0  0
  -21.6056   -4.3035   24.7225 C   0  0  0  0  0  0
  -21.8825   -3.8128   23.4351 C   0  0  0  0  0  0
  -21.9183   -4.6952   22.3399 C   0  0  0  0  0  0
  -22.7879  -13.5225   21.1871 C   0  0  0  0  0  0
  -22.1647   -4.2131   21.0989 F   0  0  0  0  0  0
  -21.5645   -3.4521   25.7750 F   0  0  0  0  0  0
  -30.0397  -13.2434   20.4611 N   0  0  0  0  0  0
  -26.3023  -12.9265   20.3354 N   0  0  0  0  0  0
  -25.9284  -11.6441   20.5738 N   0  0  0  0  0  0
  -22.0493  -12.8229   22.0434 N   0  0  0  0  0  0
  -25.4261  -15.1828   20.3891 N   0  0  0  0  0  0
  -31.7780  -14.6826   20.1176 O   0  0  0  0  0  0
  -21.6630   -6.8870   21.4241 O   0  0  0  0  0  0
  -22.3569  -14.5534   20.6711 O   0  0  0  0  0  0
  -24.6172  -31.8688   23.2123 C   0  0  0  0  0  0
  -25.9048  -32.4842   23.8439 C   0  0  1  0  0  0
  -27.2248  -27.4279   20.0869 C   0  0  0  0  0  0
  -25.5863  -33.8634   24.2352 N   0  0  0  0  0  0
  -23.4077  -30.4974   21.5492 C   0  0  2  0  0  0
  -24.8452  -28.9658   20.1149 C   0  0  0  0  0  0
  -22.7439  -29.4664   22.4940 C   0  0  0  0  0  0
  -18.0270  -28.1424   22.8489 C   0  0  0  0  0  0
  -24.1456  -36.7355   23.2645 C   0  0  0  0  0  0
  -25.9366  -30.8381   21.3595 C   0  0  0  0  0  0
  -26.0089  -29.4691   20.7094 C   0  0  0  0  0  0
  -27.2012  -28.7104   20.6870 C   0  0  0  0  0  0
  -26.0377  -26.9387   19.4921 C   0  0  0  0  0  0
  -24.8541  -27.6995   19.5048 C   0  0  0  0  0  0
  -23.6171  -29.8437   20.1595 C   0  0  0  0  0  0
  -25.4084  -36.3141   24.0330 C   0  0  1  0  0  0
  -20.5881  -28.3692   23.1313 C   0  0  2  0  0  0
  -20.6776  -26.9424   22.5416 C   0  0  0  0  0  0
  -19.5737  -26.6410   21.5236 C   0  0  0  0  0  0
  -18.1915  -26.7956   22.1654 C   0  0  0  0  0  0
  -19.1528  -28.8867   23.2910 C   0  0  0  0  0  0
  -18.9443  -30.1470   23.8936 C   0  0  0  0  0  0
  -17.6442  -30.6594   24.0597 C   0  0  0  0  0  0
  -25.9006  -34.9482   23.5146 C   0  0  0  0  0  0
  -16.5337  -29.9124   23.6314 C   0  0  0  0  0  0
  -16.7263  -28.6559   23.0311 C   0  0  0  0  0  0
  -26.4463  -31.6635   25.0771 C   0  0  0  0  0  0
  -25.3730  -31.3762   26.1531 C   0  0  0  0  0  0
  -27.0273  -30.3086   24.6113 C   0  0  0  0  0  0
  -27.6027  -32.4353   25.7510 C   0  0  0  0  0  0
  -27.5569  -37.1844   24.8454 C   0  0  0  0  0  0
  -21.4158  -29.3069   22.3719 N   0  0  0  0  0  0
  -26.4294  -37.3802   23.9375 N   0  0  0  0  0  0
  -24.6738  -31.0794   22.1018 N   0  0  0  0  0  0
  -23.4192  -28.8154   23.2965 O   0  0  0  0  0  0
  -28.4126  -26.7218   20.0976 O   0  0  0  0  0  0
  -26.5572  -34.8928   22.4712 O   0  0  0  0  0  0
  -23.5348  -32.1401   23.7516 O   0  0  0  0  0  0
  -28.7287  -17.5264   21.2846 C   0  0  0  0  0  0
  -29.8390  -16.7761   20.9995 C   0  0  0  0  0  0
  -28.9177  -20.9613   22.1633 C   0  0  0  0  0  0
  -28.1860  -20.8421   19.7360 C   0  0  0  0  0  0
  -28.1789  -22.3135   22.2552 C   0  0  0  0  0  0
  -27.5029  -22.2169   19.9329 C   0  0  0  0  0  0
  -28.3236  -20.0532   21.0651 C   0  0  1  0  0  0
  -27.8759  -24.4654   21.0108 C   0  0  0  0  0  0
  -28.4166  -25.3109   19.8222 C   0  0  0  0  0  0
  -30.8353  -17.6124   20.4955 N   0  0  0  0  0  0
  -30.3798  -18.8325   20.4644 N   0  0  0  0  0  0
  -29.1015  -18.8128   20.9328 N   0  0  0  0  0  0
  -29.8928  -15.3730   21.2029 N   0  0  0  0  0  0
  -28.2427  -23.0155   20.9460 N   0  3  1  0  0  0
  -31.4742  -12.4122   19.1110 H   0  0  0  0  0  0
  -30.3456  -11.2692   19.7750 H   0  0  0  0  0  0
  -29.7360  -11.8053   17.4077 H   0  0  0  0  0  0
  -29.6822  -13.5059   17.7782 H   0  0  0  0  0  0
  -27.8042  -11.3332   18.7589 H   0  0  0  0  0  0
  -27.3725  -12.7086   17.7785 H   0  0  0  0  0  0
  -27.7201  -14.2532   19.6286 H   0  0  0  0  0  0
  -28.6787  -11.8541   21.2673 H   0  0  0  0  0  0
  -28.4588  -13.4432   21.9151 H   0  0  0  0  0  0
  -25.2723   -9.5717   22.4732 H   0  0  0  0  0  0
  -24.0017   -7.4615   22.7436 H   0  0  0  0  0  0
  -21.0809   -8.8723   19.8920 H   0  0  0  0  0  0
  -22.3619  -10.9658   19.6154 H   0  0  0  0  0  0
  -21.2020   -7.6130   23.9738 H   0  0  0  0  0  0
  -21.1498   -6.0487   25.9078 H   0  0  0  0  0  0
  -22.0589   -2.7592   23.2840 H   0  0  0  0  0  0
  -22.4075  -11.9886   22.4839 H   0  0  0  0  0  0
  -21.1114  -13.1277   22.2631 H   0  0  0  0  0  0
  -24.6389  -15.8180   20.4685 H   0  0  0  0  0  0
  -26.2210  -15.5961   19.9180 H   0  0  0  0  0  0
  -26.7130  -32.5543   23.1225 H   0  0  0  0  0  0
  -25.0001  -33.9778   25.0487 H   0  0  0  0  0  0
  -22.7003  -31.3177   21.4157 H   0  0  0  0  0  0
  -23.3697  -35.9725   23.3354 H   0  0  0  0  0  0
  -24.3569  -36.8919   22.2058 H   0  0  0  0  0  0
  -23.7233  -37.6584   23.6636 H   0  0  0  0  0  0
  -26.0343  -31.6038   20.5880 H   0  0  0  0  0  0
  -26.8322  -30.9014   21.9663 H   0  0  0  0  0  0
  -28.1065  -29.0980   21.1319 H   0  0  0  0  0  0
  -25.9890  -25.9756   19.0060 H   0  0  0  0  0  0
  -23.9574  -27.3130   19.0384 H   0  0  0  0  0  0
  -23.7521  -30.6278   19.4133 H   0  0  0  0  0  0
  -22.7359  -29.2845   19.8436 H   0  0  0  0  0  0
  -25.1269  -36.2042   25.0831 H   0  0  0  0  0  0
  -20.9982  -28.3266   24.1433 H   0  0  0  0  0  0
  -20.5708  -26.2287   23.3610 H   0  0  0  0  0  0
  -21.6636  -26.7475   22.1190 H   0  0  0  0  0  0
  -19.6878  -25.6326   21.1243 H   0  0  0  0  0  0
  -19.6680  -27.3246   20.6791 H   0  0  0  0  0  0
  -17.4187  -26.6694   21.4063 H   0  0  0  0  0  0
  -18.0314  -26.0114   22.9067 H   0  0  0  0  0  0
  -19.7911  -30.7290   24.2322 H   0  0  0  0  0  0
  -17.4985  -31.6257   24.5238 H   0  0  0  0  0  0
  -15.5340  -30.3048   23.7603 H   0  0  0  0  0  0
  -15.8665  -28.0915   22.6970 H   0  0  0  0  0  0
  -24.5790  -30.7249   25.7880 H   0  0  0  0  0  0
  -24.9080  -32.2943   26.5129 H   0  0  0  0  0  0
  -25.8063  -30.8792   27.0218 H   0  0  0  0  0  0
  -26.2822  -29.6874   24.1139 H   0  0  0  0  0  0
  -27.4035  -29.7294   25.4557 H   0  0  0  0  0  0
  -27.8651  -30.4444   23.9270 H   0  0  0  0  0  0
  -27.2641  -33.3610   26.2181 H   0  0  0  0  0  0
  -28.3791  -32.6988   25.0316 H   0  0  0  0  0  0
  -28.0769  -31.8438   26.5356 H   0  0  0  0  0  0
  -28.2613  -38.0109   24.7465 H   0  0  0  0  0  0
  -28.1021  -36.2637   24.6330 H   0  0  0  0  0  0
  -27.2282  -37.1573   25.8856 H   0  0  0  0  0  0
  -20.9299  -29.8867   21.7022 H   0  0  0  0  0  0
  -26.0188  -38.2888   24.1374 H   0  0  0  0  0  0
  -27.7511  -17.2795   21.6819 H   0  0  0  0  0  0
  -28.8777  -20.4485   23.1257 H   0  0  0  0  0  0
  -29.9756  -21.1431   21.9719 H   0  0  0  0  0  0
  -29.1671  -21.0075   19.2906 H   0  0  0  0  0  0
  -27.6193  -20.2549   19.0129 H   0  0  0  0  0  0
  -28.6231  -22.9184   23.0461 H   0  0  0  0  0  0
  -27.1357  -22.1574   22.5381 H   0  0  0  0  0  0
  -26.4669  -22.0903   20.2571 H   0  0  0  0  0  0
  -27.4593  -22.7432   18.9809 H   0  0  0  0  0  0
  -27.3179  -19.7683   21.3820 H   0  0  0  0  0  0
  -26.7962  -24.5786   21.1180 H   0  0  0  0  0  0
  -28.3186  -24.8821   21.9171 H   0  0  0  0  0  0
  -27.9096  -25.0834   18.8845 H   0  0  0  0  0  0
  -29.4585  -25.0450   19.6434 H   0  0  0  0  0  0
  -29.0644  -14.9712   21.6126 H   0  0  0  0  0  0
  -29.2173  -22.9900   20.6825 H   0  0  0  0  0  0
  1 25  1  0  0  0
  1 30  2  0  0  0
  1 83  1  0  0  0
  2  3  1  0  0  0
  2 25  1  0  0  0
  2 85  1  0  0  0
  2 86  1  0  0  0
  3  4  1  0  0  0
  3 87  1  0  0  0
  3 88  1  0  0  0
  4  5  1  0  0  0
  4 89  1  0  0  0
  4 90  1  0  0  0
  5  6  1  0  0  0
  5 26  1  0  0  0
  5 91  1  0  0  0
  6 25  1  0  0  0
  6 92  1  0  0  0
  6 93  1  0  0  0
  7  8  2  0  0  0
  7 26  1  0  0  0
  7 29  1  0  0  0
  8  9  1  0  0  0
  8 22  1  0  0  0
  9 10  1  0  0  0
  9 27  2  0  0  0
 10 11  2  0  0  0
 10 15  1  0  0  0
 11 12  1  0  0  0
 11 94  1  0  0  0
 12 13  2  0  0  0
 12 95  1  0  0  0
 13 14  1  0  0  0
 13 31  1  0  0  0
 14 15  2  0  0  0
 14 96  1  0  0  0
 15 97  1  0  0  0
 16 17  2  0  0  0
 16 21  1  0  0  0
 16 31  1  0  0  0
 17 18  1  0  0  0
 17 98  1  0  0  0
 18 19  2  0  0  0
 18 99  1  0  0  0
 19 20  1  0  0  0
 19 24  1  0  0  0
 20 21  2  0  0  0
 20100  1  0  0  0
 21 23  1  0  0  0
 22 28  1  0  0  0
 22 32  2  0  0  0
 26 27  1  0  0  0
 28101  1  0  0  0
 28102  1  0  0  0
 29103  1  0  0  0
 29104  1  0  0  0
 33 34  1  0  0  0
 33 66  1  0  0  0
 33 70  2  0  0  0
 34 36  1  0  0  0
 34 59  1  0  0  0
 34105  1  0  0  0
 35 44  2  0  0  0
 35 45  1  0  0  0
 35 68  1  0  0  0
 36 56  1  0  0  0
 36106  1  0  0  0
 37 39  1  0  0  0
 37 47  1  0  0  0
 37 66  1  0  0  0
 37107  1  0  0  0
 38 43  2  0  0  0
 38 46  1  0  0  0
 38 47  1  0  0  0
 39 64  1  0  0  0
 39 67  2  0  0  0
 40 52  1  0  0  0
 40 53  2  0  0  0
 40 58  1  0  0  0
 41108  1  0  0  0
 41109  1  0  0  0
 41110  1  0  0  0
 41 48  1  0  0  0
 42 43  1  0  0  0
 42 66  1  0  0  0
 42111  1  0  0  0
 42112  1  0  0  0
 43 44  1  0  0  0
 44113  1  0  0  0
 45 46  2  0  0  0
 45114  1  0  0  0
 46115  1  0  0  0
 47116  1  0  0  0
 47117  1  0  0  0
 48 56  1  0  0  0
 48 65  1  0  0  0
 48118  1  0  0  0
 49 50  1  0  0  0
 49 53  1  0  0  0
 49 64  1  0  0  0
 49119  1  0  0  0
 50 51  1  0  0  0
 50120  1  0  0  0
 50121  1  0  0  0
 51 52  1  0  0  0
 51122  1  0  0  0
 51123  1  0  0  0
 52124  1  0  0  0
 52125  1  0  0  0
 53 54  1  0  0  0
 54 55  2  0  0  0
 54126  1  0  0  0
 55 57  1  0  0  0
 55127  1  0  0  0
 56 69  2  0  0  0
 57 58  2  0  0  0
 57128  1  0  0  0
 58129  1  0  0  0
 59 60  1  0  0  0
 59 61  1  0  0  0
 59 62  1  0  0  0
 60130  1  0  0  0
 60131  1  0  0  0
 60132  1  0  0  0
 61133  1  0  0  0
 61134  1  0  0  0
 61135  1  0  0  0
 62136  1  0  0  0
 62137  1  0  0  0
 62138  1  0  0  0
 63 65  1  0  0  0
 63139  1  0  0  0
 63140  1  0  0  0
 63141  1  0  0  0
 64142  1  0  0  0
 65143  1  0  0  0
 68 79  1  0  0  0
 71 72  2  0  0  0
 71 82  1  0  0  0
 71144  1  0  0  0
 72 80  1  0  0  0
 72 83  1  0  0  0
 73 75  1  0  0  0
 73 77  1  0  0  0
 73145  1  0  0  0
 73146  1  0  0  0
 74 76  1  0  0  0
 74 77  1  0  0  0
 74147  1  0  0  0
 74148  1  0  0  0
 75 84  1  0  0  0
 75149  1  0  0  0
 75150  1  0  0  0
 76 84  1  0  0  0
 76151  1  0  0  0
 76152  1  0  0  0
 77 82  1  0  0  0
 77153  1  0  0  0
 78 79  1  0  0  0
 78154  1  0  0  0
 78155  1  0  0  0
 78 84  1  0  0  0
 79156  1  0  0  0
 79157  1  0  0  0
 80 81  2  0  0  0
 81 82  1  0  0  0
 83158  1  0  0  0
 84159  1  0  0  0
M  CHG  1  84   1
M  ISO  4   1 100  68 101  79 101  83 100
M  END
> <chiral flag>
0

> <version>
0

> <s_m_source_file>
/data/baiqing/PycharmProjects/Reinvent-master-3.2/result/LINK_invent/BTK/process_docking_weight1_custom_sum_contain_oxygen_bond_distance_aromatic_linkinvent_7_9_3/rearranged_h_0182.sdf

> <i_m_source_file_index>
81

> <r_mmod_Potential_Energy-OPLS-2005>
-161.315078735352

> <r_mmod_Stretch_Energy-OPLS-2005>
37.9723777770996

> <r_mmod_Bend_Energy-OPLS-2005>
113.713623046875

> <r_mmod_Torsional_Energy-OPLS-2005>
250.660751342773

> <r_mmod_Improper_Torsional_Energy-OPLS-2005>
4.82086896896362

> <r_mmod_Van_der_Waal_Energy-OPLS-2005>
133.534652709961

> <r_mmod_Electrostatic_Energy-OPLS-2005>
-233.463134765625

> <r_mmod_Solvation_Energy-OPLS-2005>
-480.796936035156

> <b_mmod_Minimization_Converged-OPLS-2005>
0

> <r_mmod_RMS_Derivative-OPLS-2005>
4.24089574813843

$$$$
81
                    3D
 Structure written by MMmdl.
162171  0  0  1  0            999 V2000
  -30.5238  -14.9044   20.4326 C   0  0  0  0  0  0
  -30.4530  -12.5560   19.4909 C   0  0  0  0  0  0
  -29.5242  -12.5247   18.2532 C   0  0  0  0  0  0
  -28.0559  -12.3124   18.6697 C   0  0  0  0  0  0
  -27.6367  -13.2353   19.8426 C   0  0  2  0  0  0
  -28.6801  -13.2198   20.9813 C   0  0  0  0  0  0
  -25.2491  -13.8180   20.5693 C   0  0  0  0  0  0
  -24.1791  -13.0428   20.9225 C   0  0  0  0  0  0
  -24.6386  -11.6908   20.8741 C   0  0  0  0  0  0
  -23.9062  -10.4286   21.0391 C   0  0  0  0  0  0
  -24.3608   -9.4205   21.9172 C   0  0  0  0  0  0
  -23.6282   -8.2234   22.0741 C   0  0  0  0  0  0
  -22.4261   -8.0272   21.3541 C   0  0  0  0  0  0
  -21.9900   -9.0247   20.4644 C   0  0  0  0  0  0
  -22.7227  -10.2125   20.3049 C   0  0  0  0  0  0
  -21.6856   -6.0726   22.5278 C   0  0  0  0  0  0
  -21.4024   -6.5628   23.8213 C   0  0  0  0  0  0
  -21.3659   -5.6780   24.9170 C   0  0  0  0  0  0
  -21.6039   -4.3043   24.7226 C   0  0  0  0  0  0
  -21.8820   -3.8142   23.4347 C   0  0  0  0  0  0
  -21.9197   -4.6956   22.3408 C   0  0  0  0  0  0
  -22.7813  -13.5215   21.1877 C   0  0  0  0  0  0
  -22.1662   -4.2146   21.0985 F   0  0  0  0  0  0
  -21.5622   -3.4532   25.7739 F   0  0  0  0  0  0
  -29.9664  -13.6298   20.3991 N   0  0  0  0  0  0
  -26.2907  -12.9399   20.3230 N   0  0  0  0  0  0
  -25.9314  -11.6541   20.5719 N   0  0  0  0  0  0
  -22.0456  -12.8214   22.0431 N   0  0  0  0  0  0
  -25.4151  -15.1902   20.4103 N   0  0  0  0  0  0
  -31.7182  -15.0216   20.1318 O   0  0  0  0  0  0
  -21.6632   -6.8864   21.4234 O   0  0  0  0  0  0
  -22.3502  -14.5525   20.6724 O   0  0  0  0  0  0
  -24.6414  -31.8452   23.1905 C   0  0  0  0  0  0
  -25.9196  -32.4693   23.8277 C   0  0  1  0  0  0
  -27.2223  -27.1549   20.1424 C   0  0  0  0  0  0
  -25.5955  -33.8499   24.2196 N   0  0  0  0  0  0
  -23.4436  -30.4655   21.5360 C   0  0  2  0  0  0
  -24.8939  -28.8961   20.1104 C   0  0  0  0  0  0
  -22.7548  -29.4548   22.4870 C   0  0  0  0  0  0
  -18.0301  -28.1394   22.8476 C   0  0  0  0  0  0
  -24.1498  -36.7256   23.2639 C   0  0  0  0  0  0
  -25.9983  -30.7237   21.3888 C   0  0  0  0  0  0
  -26.0706  -29.3375   20.7295 C   0  0  0  0  0  0
  -27.2329  -28.4817   20.7309 C   0  0  0  0  0  0
  -26.0199  -26.8152   19.4806 C   0  0  0  0  0  0
  -24.8806  -27.6478   19.4732 C   0  0  0  0  0  0
  -23.6694  -29.7952   20.1550 C   0  0  0  0  0  0
  -25.4125  -36.3026   24.0315 C   0  0  1  0  0  0
  -20.5911  -28.3715   23.1248 C   0  0  2  0  0  0
  -20.6783  -26.9422   22.5405 C   0  0  0  0  0  0
  -19.5767  -26.6381   21.5202 C   0  0  0  0  0  0
  -18.1948  -26.7930   22.1617 C   0  0  0  0  0  0
  -19.1557  -28.8870   23.2851 C   0  0  0  0  0  0
  -18.9477  -30.1465   23.8877 C   0  0  0  0  0  0
  -17.6478  -30.6593   24.0555 C   0  0  0  0  0  0
  -25.9079  -34.9405   23.5066 C   0  0  0  0  0  0
  -16.5368  -29.9089   23.6337 C   0  0  0  0  0  0
  -16.7284  -28.6508   23.0354 C   0  0  0  0  0  0
  -26.4527  -31.6556   25.0714 C   0  0  0  0  0  0
  -25.3719  -31.3759   26.1421 C   0  0  0  0  0  0
  -27.0380  -30.2949   24.6292 C   0  0  0  0  0  0
  -27.6066  -32.4313   25.7493 C   0  0  0  0  0  0
  -27.5581  -37.1782   24.8464 C   0  0  0  0  0  0
  -21.4241  -29.3051   22.3622 N   0  0  0  0  0  0
  -26.4289  -37.3742   23.9415 N   0  0  0  0  0  0
  -24.7137  -31.0315   22.0943 N   0  0  0  0  0  0
  -23.4199  -28.8089   23.3004 O   0  0  0  0  0  0
  -28.2882  -26.1884   20.2203 O   0  0  0  0  0  0
  -26.5660  -34.8902   22.4642 O   0  0  0  0  0  0
  -23.5537  -32.1326   23.7138 O   0  0  0  0  0  0
  -28.6486  -18.0196   19.5120 C   0  0  0  0  0  0
  -29.9229  -19.8705   21.0208 C   0  0  0  0  0  0
  -28.9334  -20.4593   20.1532 C   0  0  0  0  0  0
  -28.3143  -19.4168   19.3733 C   0  0  0  0  0  0
  -29.6237  -17.5075   20.4123 C   0  0  0  0  0  0
  -27.2837  -22.4428   21.0496 C   0  0  0  0  0  0
  -27.0730  -24.0049   20.9888 C   0  0  0  0  0  0
  -28.4053  -22.0361   20.0705 C   0  0  1  0  0  0
  -29.1985  -23.4557   20.0574 C   0  0  2  0  0  0
  -28.0776  -24.6618   20.0038 C   0  0  2  0  0  0
  -27.2207  -19.7538   18.3728 C   0  0  0  0  0  0
  -31.0997  -24.6327   18.9564 C   0  0  0  0  0  0
  -30.2395  -18.5071   21.1414 N   0  0  0  0  0  0
  -29.6569  -16.0014   20.6379 N   0  0  0  0  0  0
  -30.1547  -23.4984   18.9274 N   0  3  0  0  0  0
  -31.4846  -12.7264   19.1770 H   0  0  0  0  0  0
  -30.4530  -11.5916   20.0020 H   0  0  0  0  0  0
  -29.8355  -11.7360   17.5669 H   0  0  0  0  0  0
  -29.6165  -13.4636   17.7048 H   0  0  0  0  0  0
  -27.9461  -11.2686   18.9686 H   0  0  0  0  0  0
  -27.3944  -12.4556   17.8148 H   0  0  0  0  0  0
  -27.6133  -14.2432   19.4273 H   0  0  0  0  0  0
  -28.7538  -12.2265   21.4271 H   0  0  0  0  0  0
  -28.3822  -13.8931   21.7874 H   0  0  0  0  0  0
  -25.2744   -9.5684   22.4756 H   0  0  0  0  0  0
  -23.9992   -7.4628   22.7459 H   0  0  0  0  0  0
  -21.0829   -8.8767   19.8957 H   0  0  0  0  0  0
  -22.3673  -10.9660   19.6165 H   0  0  0  0  0  0
  -21.2015   -7.6135   23.9714 H   0  0  0  0  0  0
  -21.1480   -6.0508   25.9073 H   0  0  0  0  0  0
  -22.0602   -2.7603   23.2851 H   0  0  0  0  0  0
  -22.4079  -11.9896   22.4846 H   0  0  0  0  0  0
  -21.1077  -13.1245   22.2638 H   0  0  0  0  0  0
  -24.6357  -15.8309   20.5139 H   0  0  0  0  0  0
  -26.2364  -15.6332   20.0226 H   0  0  0  0  0  0
  -26.7252  -32.5301   23.0995 H   0  0  0  0  0  0
  -25.0052  -33.9619   25.0307 H   0  0  0  0  0  0
  -22.7447  -31.2904   21.3836 H   0  0  0  0  0  0
  -23.3766  -35.9581   23.3271 H   0  0  0  0  0  0
  -24.3590  -36.8917   22.2061 H   0  0  0  0  0  0
  -23.7254  -37.6445   23.6694 H   0  0  0  0  0  0
  -26.1541  -31.4803   20.6183 H   0  0  0  0  0  0
  -26.8679  -30.7714   22.0320 H   0  0  0  0  0  0
  -28.1272  -28.8145   21.2392 H   0  0  0  0  0  0
  -25.9170  -25.8674   18.9759 H   0  0  0  0  0  0
  -23.9820  -27.3078   18.9766 H   0  0  0  0  0  0
  -23.8039  -30.5705   19.4002 H   0  0  0  0  0  0
  -22.7847  -29.2357   19.8441 H   0  0  0  0  0  0
  -25.1309  -36.1843   25.0806 H   0  0  0  0  0  0
  -20.9995  -28.3304   24.1374 H   0  0  0  0  0  0
  -20.5669  -26.2323   23.3619 H   0  0  0  0  0  0
  -21.6653  -26.7434   22.1214 H   0  0  0  0  0  0
  -19.6932  -25.6284   21.1252 H   0  0  0  0  0  0
  -19.6706  -27.3167   20.6715 H   0  0  0  0  0  0
  -17.4209  -26.6659   21.4028 H   0  0  0  0  0  0
  -18.0372  -26.0074   22.9022 H   0  0  0  0  0  0
  -19.7954  -30.7280   24.2245 H   0  0  0  0  0  0
  -17.5038  -31.6275   24.5152 H   0  0  0  0  0  0
  -15.5369  -30.2982   23.7684 H   0  0  0  0  0  0
  -15.8685  -28.0818   22.7094 H   0  0  0  0  0  0
  -24.5885  -30.7116   25.7750 H   0  0  0  0  0  0
  -24.8925  -32.2949   26.4806 H   0  0  0  0  0  0
  -25.8008  -30.8958   27.0228 H   0  0  0  0  0  0
  -26.2991  -29.6681   24.1293 H   0  0  0  0  0  0
  -27.3975  -29.7242   25.4864 H   0  0  0  0  0  0
  -27.8902  -30.4167   23.9607 H   0  0  0  0  0  0
  -27.2658  -33.3617   26.2054 H   0  0  0  0  0  0
  -28.3887  -32.6880   25.0331 H   0  0  0  0  0  0
  -28.0725  -31.8456   26.5433 H   0  0  0  0  0  0
  -28.2581  -38.0094   24.7519 H   0  0  0  0  0  0
  -28.1095  -36.2630   24.6265 H   0  0  0  0  0  0
  -27.2306  -37.1388   25.8867 H   0  0  0  0  0  0
  -20.9451  -29.8748   21.6789 H   0  0  0  0  0  0
  -26.0150  -38.2809   24.1419 H   0  0  0  0  0  0
  -28.0953  -17.3036   18.9201 H   0  0  0  0  0  0
  -30.4699  -20.5193   21.6894 H   0  0  0  0  0  0
  -26.3574  -21.9113   20.8278 H   0  0  0  0  0  0
  -27.5682  -22.1629   22.0647 H   0  0  0  0  0  0
  -27.2260  -24.4245   21.9832 H   0  0  0  0  0  0
  -26.0477  -24.2440   20.7114 H   0  0  0  0  0  0
  -27.9209  -22.0699   19.0966 H   0  0  0  0  0  0
  -29.7599  -23.5405   20.9902 H   0  0  0  0  0  0
  -27.6530  -24.5796   19.0037 H   0  0  0  0  0  0
  -26.8150  -18.8593   17.8993 H   0  0  0  0  0  0
  -27.6125  -20.3909   17.5798 H   0  0  0  0  0  0
  -26.3931  -20.2679   18.8605 H   0  0  0  0  0  0
  -31.8026  -24.5544   18.1272 H   0  0  0  0  0  0
  -31.6775  -24.6454   19.8815 H   0  0  0  0  0  0
  -30.5802  -25.5858   18.8607 H   0  0  0  0  0  0
  -28.7357  -15.6456   20.8309 H   0  0  0  0  0  0
  -29.6594  -23.5078   18.0486 H   0  0  0  0  0  0
  -30.6994  -22.6507   18.9488 H   0  0  0  0  0  0
  1 25  1  0  0  0
  1 30  2  0  0  0
  1 84  1  0  0  0
  2  3  1  0  0  0
  2 25  1  0  0  0
  2 86  1  0  0  0
  2 87  1  0  0  0
  3  4  1  0  0  0
  3 88  1  0  0  0
  3 89  1  0  0  0
  4  5  1  0  0  0
  4 90  1  0  0  0
  4 91  1  0  0  0
  5  6  1  0  0  0
  5 26  1  0  0  0
  5 92  1  0  0  0
  6 25  1  0  0  0
  6 93  1  0  0  0
  6 94  1  0  0  0
  7  8  2  0  0  0
  7 26  1  0  0  0
  7 29  1  0  0  0
  8  9  1  0  0  0
  8 22  1  0  0  0
  9 10  1  0  0  0
  9 27  2  0  0  0
 10 11  2  0  0  0
 10 15  1  0  0  0
 11 12  1  0  0  0
 11 95  1  0  0  0
 12 13  2  0  0  0
 12 96  1  0  0  0
 13 14  1  0  0  0
 13 31  1  0  0  0
 14 15  2  0  0  0
 14 97  1  0  0  0
 15 98  1  0  0  0
 16 17  2  0  0  0
 16 21  1  0  0  0
 16 31  1  0  0  0
 17 18  1  0  0  0
 17 99  1  0  0  0
 18 19  2  0  0  0
 18100  1  0  0  0
 19 20  1  0  0  0
 19 24  1  0  0  0
 20 21  2  0  0  0
 20101  1  0  0  0
 21 23  1  0  0  0
 22 28  1  0  0  0
 22 32  2  0  0  0
 26 27  1  0  0  0
 28102  1  0  0  0
 28103  1  0  0  0
 29104  1  0  0  0
 29105  1  0  0  0
 33 34  1  0  0  0
 33 66  1  0  0  0
 33 70  2  0  0  0
 34 36  1  0  0  0
 34 59  1  0  0  0
 34106  1  0  0  0
 35 44  2  0  0  0
 35 45  1  0  0  0
 35 68  1  0  0  0
 36 56  1  0  0  0
 36107  1  0  0  0
 37 39  1  0  0  0
 37 47  1  0  0  0
 37 66  1  0  0  0
 37108  1  0  0  0
 38 43  2  0  0  0
 38 46  1  0  0  0
 38 47  1  0  0  0
 39 64  1  0  0  0
 39 67  2  0  0  0
 40 52  1  0  0  0
 40 53  2  0  0  0
 40 58  1  0  0  0
 41109  1  0  0  0
 41110  1  0  0  0
 41111  1  0  0  0
 41 48  1  0  0  0
 42 43  1  0  0  0
 42 66  1  0  0  0
 42112  1  0  0  0
 42113  1  0  0  0
 43 44  1  0  0  0
 44114  1  0  0  0
 45 46  2  0  0  0
 45115  1  0  0  0
 46116  1  0  0  0
 47117  1  0  0  0
 47118  1  0  0  0
 48 56  1  0  0  0
 48 65  1  0  0  0
 48119  1  0  0  0
 49 50  1  0  0  0
 49 53  1  0  0  0
 49 64  1  0  0  0
 49120  1  0  0  0
 50 51  1  0  0  0
 50121  1  0  0  0
 50122  1  0  0  0
 51 52  1  0  0  0
 51123  1  0  0  0
 51124  1  0  0  0
 52125  1  0  0  0
 52126  1  0  0  0
 53 54  1  0  0  0
 54 55  2  0  0  0
 54127  1  0  0  0
 55 57  1  0  0  0
 55128  1  0  0  0
 56 69  2  0  0  0
 57 58  2  0  0  0
 57129  1  0  0  0
 58130  1  0  0  0
 59 60  1  0  0  0
 59 61  1  0  0  0
 59 62  1  0  0  0
 60131  1  0  0  0
 60132  1  0  0  0
 60133  1  0  0  0
 61134  1  0  0  0
 61135  1  0  0  0
 61136  1  0  0  0
 62137  1  0  0  0
 62138  1  0  0  0
 62139  1  0  0  0
 63 65  1  0  0  0
 63140  1  0  0  0
 63141  1  0  0  0
 63142  1  0  0  0
 64143  1  0  0  0
 65144  1  0  0  0
 68 80  1  0  0  0
 71 74  2  0  0  0
 71 75  1  0  0  0
 71145  1  0  0  0
 72 73  2  0  0  0
 72 83  1  0  0  0
 72146  1  0  0  0
 73 74  1  0  0  0
 73 78  1  0  0  0
 74 81  1  0  0  0
 75 83  2  0  0  0
 75 84  1  0  0  0
 76 77  1  0  0  0
 76 78  1  0  0  0
 76147  1  0  0  0
 76148  1  0  0  0
 77 80  1  0  0  0
 77149  1  0  0  0
 77150  1  0  0  0
 78 79  1  0  0  0
 78151  1  0  0  0
 79 80  1  0  0  0
 79 85  1  0  0  0
 79152  1  0  0  0
 80153  1  0  0  0
 81154  1  0  0  0
 81155  1  0  0  0
 81156  1  0  0  0
 82 85  1  0  0  0
 82157  1  0  0  0
 82158  1  0  0  0
 82159  1  0  0  0
 84160  1  0  0  0
 85161  1  0  0  0
 85162  1  0  0  0
M  CHG  1  85   1
M  ISO  4   1 100  68 101  80 101  84 100
M  END
> <chiral flag>
0

> <version>
0

> <s_m_source_file>
/data/baiqing/PycharmProjects/Reinvent-master-3.2/result/LINK_invent/BTK/process_docking_weight1_custom_sum_contain_oxygen_bond_distance_aromatic_linkinvent_7_9_3/rearranged_h_0182.sdf

> <i_m_source_file_index>
82

> <r_mmod_Potential_Energy-OPLS-2005>
227.247695922852

> <r_mmod_Stretch_Energy-OPLS-2005>
207.467178344727

> <r_mmod_Bend_Energy-OPLS-2005>
303.683807373047

> <r_mmod_Torsional_Energy-OPLS-2005>
291.890258789062

> <r_mmod_Improper_Torsional_Energy-OPLS-2005>
6.83561229705811

> <r_mmod_Van_der_Waal_Energy-OPLS-2005>
129.222610473633

> <r_mmod_Electrostatic_Energy-OPLS-2005>
-407.109466552734

> <r_mmod_Solvation_Energy-OPLS-2005>
-473.029571533203

> <b_mmod_Minimization_Converged-OPLS-2005>
0

> <r_mmod_RMS_Derivative-OPLS-2005>
1.65231537818909

$$$$
82
                    3D
 Structure written by MMmdl.
152161  0  0  1  0            999 V2000
  -30.5831  -14.8591   20.4298 C   0  0  0  0  0  0
  -30.4424  -12.5260   19.4956 C   0  0  0  0  0  0
  -29.5231  -12.5148   18.2536 C   0  0  0  0  0  0
  -28.0502  -12.3272   18.6665 C   0  0  0  0  0  0
  -27.6382  -13.2450   19.8482 C   0  0  2  0  0  0
  -28.6832  -13.2352   20.9849 C   0  0  0  0  0  0
  -25.2483  -13.8214   20.5686 C   0  0  0  0  0  0
  -24.1800  -13.0443   20.9224 C   0  0  0  0  0  0
  -24.6407  -11.6927   20.8767 C   0  0  0  0  0  0
  -23.9088  -10.4301   21.0427 C   0  0  0  0  0  0
  -24.3633   -9.4209   21.9195 C   0  0  0  0  0  0
  -23.6298   -8.2246   22.0757 C   0  0  0  0  0  0
  -22.4273   -8.0291   21.3553 C   0  0  0  0  0  0
  -21.9918   -9.0275   20.4660 C   0  0  0  0  0  0
  -22.7259  -10.2150   20.3077 C   0  0  0  0  0  0
  -21.6852   -6.0741   22.5279 C   0  0  0  0  0  0
  -21.4022   -6.5643   23.8214 C   0  0  0  0  0  0
  -21.3664   -5.6795   24.9172 C   0  0  0  0  0  0
  -21.6043   -4.3055   24.7222 C   0  0  0  0  0  0
  -21.8819   -3.8150   23.4341 C   0  0  0  0  0  0
  -21.9193   -4.6968   22.3399 C   0  0  0  0  0  0
  -22.7815  -13.5216   21.1871 C   0  0  0  0  0  0
  -22.1664   -4.2155   21.0978 F   0  0  0  0  0  0
  -21.5617   -3.4538   25.7736 F   0  0  0  0  0  0
  -29.9731  -13.6152   20.3915 N   0  0  0  0  0  0
  -26.2930  -12.9448   20.3287 N   0  0  0  0  0  0
  -25.9347  -11.6580   20.5777 N   0  0  0  0  0  0
  -22.0462  -12.8218   22.0435 N   0  0  0  0  0  0
  -25.4107  -15.1937   20.4013 N   0  0  0  0  0  0
  -31.7831  -14.9355   20.1487 O   0  0  0  0  0  0
  -21.6641   -6.8886   21.4244 O   0  0  0  0  0  0
  -22.3499  -14.5517   20.6710 O   0  0  0  0  0  0
  -24.6404  -31.8493   23.1952 C   0  0  0  0  0  0
  -25.9197  -32.4727   23.8324 C   0  0  1  0  0  0
  -27.2152  -27.1792   20.1258 C   0  0  0  0  0  0
  -25.5964  -33.8533   24.2242 N   0  0  0  0  0  0
  -23.4416  -30.4739   21.5409 C   0  0  2  0  0  0
  -24.8902  -28.9176   20.1085 C   0  0  0  0  0  0
  -22.7560  -29.4574   22.4879 C   0  0  0  0  0  0
  -18.0309  -28.1389   22.8487 C   0  0  0  0  0  0
  -24.1489  -36.7268   23.2631 C   0  0  0  0  0  0
  -25.9977  -30.7349   21.3914 C   0  0  0  0  0  0
  -26.0687  -29.3525   20.7285 C   0  0  0  0  0  0
  -27.2315  -28.4971   20.7280 C   0  0  0  0  0  0
  -26.0098  -26.8536   19.4553 C   0  0  0  0  0  0
  -24.8718  -27.6791   19.4596 C   0  0  0  0  0  0
  -23.6658  -29.8141   20.1564 C   0  0  0  0  0  0
  -25.4113  -36.3052   24.0319 C   0  0  1  0  0  0
  -20.5923  -28.3721   23.1237 C   0  0  2  0  0  0
  -20.6801  -26.9429   22.5394 C   0  0  0  0  0  0
  -19.5761  -26.6378   21.5219 C   0  0  0  0  0  0
  -18.1953  -26.7924   22.1646 C   0  0  0  0  0  0
  -19.1564  -28.8874   23.2857 C   0  0  0  0  0  0
  -18.9480  -30.1471   23.8886 C   0  0  0  0  0  0
  -17.6472  -30.6585   24.0564 C   0  0  0  0  0  0
  -25.9067  -34.9422   23.5086 C   0  0  0  0  0  0
  -16.5367  -29.9075   23.6330 C   0  0  0  0  0  0
  -16.7292  -28.6490   23.0360 C   0  0  0  0  0  0
  -26.4514  -31.6568   25.0741 C   0  0  0  0  0  0
  -25.3727  -31.3778   26.1467 C   0  0  0  0  0  0
  -27.0338  -30.2955   24.6290 C   0  0  0  0  0  0
  -27.6075  -32.4305   25.7506 C   0  0  0  0  0  0
  -27.5579  -37.1787   24.8456 C   0  0  0  0  0  0
  -21.4255  -29.3053   22.3622 N   0  0  0  0  0  0
  -26.4280  -37.3763   23.9415 N   0  0  0  0  0  0
  -24.7130  -31.0381   22.0983 N   0  0  0  0  0  0
  -23.4220  -28.8107   23.3005 O   0  0  0  0  0  0
  -28.2572  -26.1880   20.2034 O   0  0  0  0  0  0
  -26.5637  -34.8903   22.4655 O   0  0  0  0  0  0
  -23.5523  -32.1362   23.7189 O   0  0  0  0  0  0
  -28.7151  -21.2713   21.4136 C   0  0  0  0  0  0
  -29.2158  -20.4452   20.3500 C   0  0  0  0  0  0
  -29.2584  -22.5115   19.1063 C   0  0  0  0  0  0
  -28.6852  -23.3246   20.1528 C   0  0  0  0  0  0
  -29.6257  -18.1143   19.0799 C   0  0  0  0  0  0
  -29.1290  -18.8112   20.3250 C   0  0  1  0  0  0
  -30.1459  -17.5083   20.3594 C   0  0  1  0  0  0
  -29.5487  -23.1020   17.7400 C   0  0  0  0  0  0
  -27.8864  -24.7291   19.8808 C   0  0  0  0  0  0
  -28.4532  -22.6358   21.3209 N   0  0  0  0  0  0
  -29.5064  -21.1438   19.2021 N   0  0  0  0  0  0
  -29.7993  -16.0216   20.5444 N   0  0  0  0  0  0
  -31.4820  -12.6639   19.1921 H   0  0  0  0  0  0
  -30.4099  -11.5664   20.0124 H   0  0  0  0  0  0
  -29.8222  -11.7198   17.5694 H   0  0  0  0  0  0
  -29.6376  -13.4508   17.7046 H   0  0  0  0  0  0
  -27.9202  -11.2825   18.9507 H   0  0  0  0  0  0
  -27.3940  -12.4960   17.8125 H   0  0  0  0  0  0
  -27.6143  -14.2561   19.4422 H   0  0  0  0  0  0
  -28.7444  -12.2539   21.4562 H   0  0  0  0  0  0
  -28.4012  -13.9362   21.7729 H   0  0  0  0  0  0
  -25.2782   -9.5666   22.4770 H   0  0  0  0  0  0
  -24.0008   -7.4625   22.7454 H   0  0  0  0  0  0
  -21.0848   -8.8805   19.8958 H   0  0  0  0  0  0
  -22.3724  -10.9694   19.6191 H   0  0  0  0  0  0
  -21.2034   -7.6152   23.9720 H   0  0  0  0  0  0
  -21.1476   -6.0522   25.9077 H   0  0  0  0  0  0
  -22.0595   -2.7609   23.2841 H   0  0  0  0  0  0
  -22.4077  -11.9905   22.4868 H   0  0  0  0  0  0
  -21.1081  -13.1252   22.2630 H   0  0  0  0  0  0
  -24.6218  -15.8282   20.4658 H   0  0  0  0  0  0
  -26.2259  -15.6232   19.9840 H   0  0  0  0  0  0
  -26.7266  -32.5342   23.1058 H   0  0  0  0  0  0
  -25.0116  -33.9663   25.0391 H   0  0  0  0  0  0
  -22.7424  -31.3000   21.3930 H   0  0  0  0  0  0
  -23.3764  -35.9584   23.3246 H   0  0  0  0  0  0
  -24.3594  -36.8942   22.2057 H   0  0  0  0  0  0
  -23.7217  -37.6444   23.6687 H   0  0  0  0  0  0
  -26.1522  -31.4942   20.6236 H   0  0  0  0  0  0
  -26.8698  -30.7812   22.0322 H   0  0  0  0  0  0
  -28.1259  -28.8214   21.2418 H   0  0  0  0  0  0
  -25.8880  -25.9220   18.9273 H   0  0  0  0  0  0
  -23.9744  -27.3451   18.9561 H   0  0  0  0  0  0
  -23.8017  -30.5939   19.4060 H   0  0  0  0  0  0
  -22.7811  -29.2574   19.8432 H   0  0  0  0  0  0
  -25.1288  -36.1892   25.0809 H   0  0  0  0  0  0
  -21.0021  -28.3307   24.1357 H   0  0  0  0  0  0
  -20.5726  -26.2330   23.3609 H   0  0  0  0  0  0
  -21.6663  -26.7456   22.1174 H   0  0  0  0  0  0
  -19.6925  -25.6285   21.1259 H   0  0  0  0  0  0
  -19.6675  -27.3179   20.6739 H   0  0  0  0  0  0
  -17.4211  -26.6655   21.4064 H   0  0  0  0  0  0
  -18.0366  -26.0074   22.9053 H   0  0  0  0  0  0
  -19.7954  -30.7299   24.2244 H   0  0  0  0  0  0
  -17.5020  -31.6264   24.5161 H   0  0  0  0  0  0
  -15.5365  -30.2973   23.7649 H   0  0  0  0  0  0
  -15.8697  -28.0794   22.7090 H   0  0  0  0  0  0
  -24.5805  -30.7247   25.7784 H   0  0  0  0  0  0
  -24.9045  -32.2985   26.4958 H   0  0  0  0  0  0
  -25.8006  -30.8858   27.0212 H   0  0  0  0  0  0
  -26.2922  -29.6712   24.1288 H   0  0  0  0  0  0
  -27.3935  -29.7219   25.4841 H   0  0  0  0  0  0
  -27.8850  -30.4168   23.9592 H   0  0  0  0  0  0
  -27.2706  -33.3646   26.2010 H   0  0  0  0  0  0
  -28.3920  -32.6794   25.0350 H   0  0  0  0  0  0
  -28.0690  -31.8470   26.5483 H   0  0  0  0  0  0
  -28.2562  -38.0119   24.7551 H   0  0  0  0  0  0
  -28.1114  -36.2655   24.6217 H   0  0  0  0  0  0
  -27.2311  -37.1356   25.8860 H   0  0  0  0  0  0
  -20.9461  -29.8774   21.6813 H   0  0  0  0  0  0
  -26.0148  -38.2824   24.1451 H   0  0  0  0  0  0
  -28.4103  -20.8068   22.3398 H   0  0  0  0  0  0
  -30.3703  -18.6224   18.4689 H   0  0  0  0  0  0
  -28.8774  -17.5691   18.5078 H   0  0  0  0  0  0
  -28.1133  -18.5741   20.6351 H   0  0  0  0  0  0
  -31.1709  -17.7607   20.6283 H   0  0  0  0  0  0
  -29.9582  -24.1081   17.8309 H   0  0  0  0  0  0
  -28.6383  -23.1531   17.1427 H   0  0  0  0  0  0
  -30.2748  -22.4990   17.1942 H   0  0  0  0  0  0
  -26.9291  -24.5497   20.3718 H   0  0  0  0  0  0
  -27.6673  -24.7151   18.8134 H   0  0  0  0  0  0
  -28.8284  -15.8373   20.7504 H   0  0  0  0  0  0
  1 25  1  0  0  0
  1 30  2  0  0  0
  1 82  1  0  0  0
  2  3  1  0  0  0
  2 25  1  0  0  0
  2 83  1  0  0  0
  2 84  1  0  0  0
  3  4  1  0  0  0
  3 85  1  0  0  0
  3 86  1  0  0  0
  4  5  1  0  0  0
  4 87  1  0  0  0
  4 88  1  0  0  0
  5  6  1  0  0  0
  5 26  1  0  0  0
  5 89  1  0  0  0
  6 25  1  0  0  0
  6 90  1  0  0  0
  6 91  1  0  0  0
  7  8  2  0  0  0
  7 26  1  0  0  0
  7 29  1  0  0  0
  8  9  1  0  0  0
  8 22  1  0  0  0
  9 10  1  0  0  0
  9 27  2  0  0  0
 10 11  2  0  0  0
 10 15  1  0  0  0
 11 12  1  0  0  0
 11 92  1  0  0  0
 12 13  2  0  0  0
 12 93  1  0  0  0
 13 14  1  0  0  0
 13 31  1  0  0  0
 14 15  2  0  0  0
 14 94  1  0  0  0
 15 95  1  0  0  0
 16 17  2  0  0  0
 16 21  1  0  0  0
 16 31  1  0  0  0
 17 18  1  0  0  0
 17 96  1  0  0  0
 18 19  2  0  0  0
 18 97  1  0  0  0
 19 20  1  0  0  0
 19 24  1  0  0  0
 20 21  2  0  0  0
 20 98  1  0  0  0
 21 23  1  0  0  0
 22 28  1  0  0  0
 22 32  2  0  0  0
 26 27  1  0  0  0
 28 99  1  0  0  0
 28100  1  0  0  0
 29101  1  0  0  0
 29102  1  0  0  0
 33 34  1  0  0  0
 33 66  1  0  0  0
 33 70  2  0  0  0
 34 36  1  0  0  0
 34 59  1  0  0  0
 34103  1  0  0  0
 35 44  2  0  0  0
 35 45  1  0  0  0
 35 68  1  0  0  0
 36 56  1  0  0  0
 36104  1  0  0  0
 37 39  1  0  0  0
 37 47  1  0  0  0
 37 66  1  0  0  0
 37105  1  0  0  0
 38 43  2  0  0  0
 38 46  1  0  0  0
 38 47  1  0  0  0
 39 64  1  0  0  0
 39 67  2  0  0  0
 40 52  1  0  0  0
 40 53  2  0  0  0
 40 58  1  0  0  0
 41106  1  0  0  0
 41107  1  0  0  0
 41108  1  0  0  0
 41 48  1  0  0  0
 42 43  1  0  0  0
 42 66  1  0  0  0
 42109  1  0  0  0
 42110  1  0  0  0
 43 44  1  0  0  0
 44111  1  0  0  0
 45 46  2  0  0  0
 45112  1  0  0  0
 46113  1  0  0  0
 47114  1  0  0  0
 47115  1  0  0  0
 48 56  1  0  0  0
 48 65  1  0  0  0
 48116  1  0  0  0
 49 50  1  0  0  0
 49 53  1  0  0  0
 49 64  1  0  0  0
 49117  1  0  0  0
 50 51  1  0  0  0
 50118  1  0  0  0
 50119  1  0  0  0
 51 52  1  0  0  0
 51120  1  0  0  0
 51121  1  0  0  0
 52122  1  0  0  0
 52123  1  0  0  0
 53 54  1  0  0  0
 54 55  2  0  0  0
 54124  1  0  0  0
 55 57  1  0  0  0
 55125  1  0  0  0
 56 69  2  0  0  0
 57 58  2  0  0  0
 57126  1  0  0  0
 58127  1  0  0  0
 59 60  1  0  0  0
 59 61  1  0  0  0
 59 62  1  0  0  0
 60128  1  0  0  0
 60129  1  0  0  0
 60130  1  0  0  0
 61131  1  0  0  0
 61132  1  0  0  0
 61133  1  0  0  0
 62134  1  0  0  0
 62135  1  0  0  0
 62136  1  0  0  0
 63 65  1  0  0  0
 63137  1  0  0  0
 63138  1  0  0  0
 63139  1  0  0  0
 64140  1  0  0  0
 65141  1  0  0  0
 68 79  1  0  0  0
 71 72  2  0  0  0
 71 80  1  0  0  0
 71142  1  0  0  0
 72 81  1  0  0  0
 72 76  1  0  0  0
 73 74  1  0  0  0
 73 78  1  0  0  0
 73 81  2  0  0  0
 74 79  1  0  0  0
 74 80  2  0  0  0
 75 76  1  0  0  0
 75 77  1  0  0  0
 75143  1  0  0  0
 75144  1  0  0  0
 76 77  1  0  0  0
 76145  1  0  0  0
 77 82  1  0  0  0
 77146  1  0  0  0
 78147  1  0  0  0
 78148  1  0  0  0
 78149  1  0  0  0
 79150  1  0  0  0
 79151  1  0  0  0
 82152  1  0  0  0
M  ISO  4   1 100  68 101  79 101  82 100
M  END
> <chiral flag>
0

> <version>
0

> <s_m_source_file>
/data/baiqing/PycharmProjects/Reinvent-master-3.2/result/LINK_invent/BTK/process_docking_weight1_custom_sum_contain_oxygen_bond_distance_aromatic_linkinvent_7_9_3/rearranged_h_0182.sdf

> <i_m_source_file_index>
83

> <r_mmod_Potential_Energy-OPLS-2005>
506.915466308594

> <r_mmod_Stretch_Energy-OPLS-2005>
202.119583129883

> <r_mmod_Bend_Energy-OPLS-2005>
230.469131469727

> <r_mmod_Torsional_Energy-OPLS-2005>
282.647003173828

> <r_mmod_Improper_Torsional_Energy-OPLS-2005>
12.4012498855591

> <r_mmod_Van_der_Waal_Energy-OPLS-2005>
144.329360961914

> <r_mmod_Electrostatic_Energy-OPLS-2005>
-280.848663330078

> <r_mmod_Solvation_Energy-OPLS-2005>
-233.095962524414

> <b_mmod_Minimization_Converged-OPLS-2005>
0

> <r_mmod_RMS_Derivative-OPLS-2005>
1.70048975944519

$$$$
83
                    3D
 Structure written by MMmdl.
159168  0  0  1  0            999 V2000
  -30.4773  -15.2070   20.3676 C   0  0  0  0  0  0
  -30.4356  -12.7699   19.5208 C   0  0  0  0  0  0
  -29.5318  -12.5658   18.2806 C   0  0  0  0  0  0
  -28.0784  -12.2997   18.7092 C   0  0  0  0  0  0
  -27.6126  -13.2724   19.8217 C   0  0  2  0  0  0
  -28.6478  -13.4359   20.9550 C   0  0  0  0  0  0
  -25.2393  -13.8246   20.5739 C   0  0  0  0  0  0
  -24.1744  -13.0440   20.9257 C   0  0  0  0  0  0
  -24.6397  -11.6936   20.8767 C   0  0  0  0  0  0
  -23.9093  -10.4295   21.0412 C   0  0  0  0  0  0
  -24.3638   -9.4206   21.9189 C   0  0  0  0  0  0
  -23.6303   -8.2246   22.0757 C   0  0  0  0  0  0
  -22.4282   -8.0288   21.3548 C   0  0  0  0  0  0
  -21.9924   -9.0266   20.4652 C   0  0  0  0  0  0
  -22.7262  -10.2139   20.3061 C   0  0  0  0  0  0
  -21.6852   -6.0742   22.5282 C   0  0  0  0  0  0
  -21.4018   -6.5644   23.8216 C   0  0  0  0  0  0
  -21.3658   -5.6793   24.9177 C   0  0  0  0  0  0
  -21.6040   -4.3056   24.7224 C   0  0  0  0  0  0
  -21.8816   -3.8152   23.4343 C   0  0  0  0  0  0
  -21.9194   -4.6972   22.3401 C   0  0  0  0  0  0
  -22.7762  -13.5195   21.1900 C   0  0  0  0  0  0
  -22.1659   -4.2159   21.0976 F   0  0  0  0  0  0
  -21.5627   -3.4537   25.7735 F   0  0  0  0  0  0
  -29.8865  -13.9186   20.3264 N   0  0  0  0  0  0
  -26.2820  -12.9518   20.3210 N   0  0  0  0  0  0
  -25.9333  -11.6627   20.5728 N   0  0  0  0  0  0
  -22.0410  -12.8186   22.0455 N   0  0  0  0  0  0
  -25.4017  -15.1980   20.4156 N   0  0  0  0  0  0
  -31.7033  -15.1786   20.2048 O   0  0  0  0  0  0
  -21.6641   -6.8889   21.4245 O   0  0  0  0  0  0
  -22.3439  -14.5497   20.6739 O   0  0  0  0  0  0
  -24.6608  -31.8278   23.1752 C   0  0  0  0  0  0
  -25.9304  -32.4607   23.8200 C   0  0  1  0  0  0
  -27.2084  -26.9561   20.1807 C   0  0  0  0  0  0
  -25.5988  -33.8420   24.2106 N   0  0  0  0  0  0
  -23.4732  -30.4430   21.5239 C   0  0  2  0  0  0
  -24.9249  -28.8401   20.1140 C   0  0  0  0  0  0
  -22.7653  -29.4468   22.4794 C   0  0  0  0  0  0
  -18.0322  -28.1406   22.8461 C   0  0  0  0  0  0
  -24.1500  -36.7218   23.2645 C   0  0  0  0  0  0
  -26.0419  -30.6433   21.4027 C   0  0  0  0  0  0
  -26.1097  -29.2366   20.7478 C   0  0  0  0  0  0
  -27.2494  -28.3156   20.7579 C   0  0  0  0  0  0
  -25.9983  -26.7158   19.4898 C   0  0  0  0  0  0
  -24.8933  -27.5991   19.4639 C   0  0  0  0  0  0
  -23.7113  -29.7653   20.1485 C   0  0  0  0  0  0
  -25.4137  -36.2976   24.0299 C   0  0  1  0  0  0
  -20.5945  -28.3752   23.1189 C   0  0  2  0  0  0
  -20.6804  -26.9438   22.5394 C   0  0  0  0  0  0
  -19.5776  -26.6378   21.5208 C   0  0  0  0  0  0
  -18.1959  -26.7936   22.1620 C   0  0  0  0  0  0
  -19.1580  -28.8898   23.2814 C   0  0  0  0  0  0
  -18.9492  -30.1486   23.8851 C   0  0  0  0  0  0
  -17.6486  -30.6598   24.0551 C   0  0  0  0  0  0
  -25.9095  -34.9356   23.5018 C   0  0  0  0  0  0
  -16.5378  -29.9081   23.6342 C   0  0  0  0  0  0
  -16.7303  -28.6503   23.0357 C   0  0  0  0  0  0
  -26.4565  -31.6533   25.0710 C   0  0  0  0  0  0
  -25.3702  -31.3784   26.1376 C   0  0  0  0  0  0
  -27.0447  -30.2895   24.6428 C   0  0  0  0  0  0
  -27.6067  -32.4329   25.7509 C   0  0  0  0  0  0
  -27.5568  -37.1775   24.8470 C   0  0  0  0  0  0
  -21.4326  -29.3050   22.3540 N   0  0  0  0  0  0
  -26.4290  -37.3702   23.9394 N   0  0  0  0  0  0
  -24.7466  -30.9970   22.0877 N   0  0  0  0  0  0
  -23.4210  -28.8023   23.3016 O   0  0  0  0  0  0
  -28.1982  -25.8460   20.2285 O   0  0  0  0  0  0
  -26.5693  -34.8884   22.4604 O   0  0  0  0  0  0
  -23.5685  -32.1240   23.6858 O   0  0  0  0  0  0
  -28.9172  -22.0305   19.0377 C   0  0  0  0  0  0
  -28.6773  -21.6776   21.2752 C   0  0  0  0  0  0
  -29.3275  -20.6133   18.8989 C   0  0  0  0  0  0
  -28.5673  -22.7217   20.2493 C   0  0  0  0  0  0
  -29.3939  -19.6306   19.9864 C   0  0  0  0  0  0
  -29.7045  -20.1342   17.4915 C   0  0  1  0  0  0
  -30.0902  -18.0203   19.7867 C   0  0  2  0  0  0
  -30.2759  -17.8538   18.2262 C   0  0  2  0  0  0
  -30.1764  -21.2322   16.5126 C   0  0  0  0  0  0
  -31.1944  -16.7296   17.6995 C   0  0  0  0  0  0
  -27.7817  -24.2711   20.3578 C   0  0  0  0  0  0
  -29.0670  -20.2989   21.1710 N   0  0  0  0  0  0
  -29.7440  -16.4894   20.3235 N   0  0  0  0  0  0
  -30.7397  -19.0962   17.5810 N   0  3  0  0  0  0
  -31.4594  -12.9570   19.1938 H   0  0  0  0  0  0
  -30.4828  -11.8602   20.1221 H   0  0  0  0  0  0
  -29.9025  -11.7408   17.6704 H   0  0  0  0  0  0
  -29.5704  -13.4554   17.6499 H   0  0  0  0  0  0
  -28.0286  -11.2742   19.0774 H   0  0  0  0  0  0
  -27.4094  -12.3491   17.8494 H   0  0  0  0  0  0
  -27.5320  -14.2413   19.3277 H   0  0  0  0  0  0
  -28.8018  -12.5014   21.4961 H   0  0  0  0  0  0
  -28.2976  -14.1659   21.6863 H   0  0  0  0  0  0
  -25.2781   -9.5684   22.4767 H   0  0  0  0  0  0
  -24.0010   -7.4636   22.7475 H   0  0  0  0  0  0
  -21.0857   -8.8793   19.8955 H   0  0  0  0  0  0
  -22.3725  -10.9682   19.6174 H   0  0  0  0  0  0
  -21.2015   -7.6154   23.9724 H   0  0  0  0  0  0
  -21.1478   -6.0522   25.9078 H   0  0  0  0  0  0
  -22.0597   -2.7617   23.2837 H   0  0  0  0  0  0
  -22.4027  -11.9857   22.4862 H   0  0  0  0  0  0
  -21.1026  -13.1215   22.2657 H   0  0  0  0  0  0
  -24.6284  -15.8446   20.5272 H   0  0  0  0  0  0
  -26.2376  -15.6410   20.0588 H   0  0  0  0  0  0
  -26.7368  -32.5158   23.0913 H   0  0  0  0  0  0
  -25.0100  -33.9508   25.0233 H   0  0  0  0  0  0
  -22.7850  -31.2745   21.3580 H   0  0  0  0  0  0
  -23.3757  -35.9555   23.3306 H   0  0  0  0  0  0
  -24.3575  -36.8857   22.2059 H   0  0  0  0  0  0
  -23.7273  -37.6416   23.6695 H   0  0  0  0  0  0
  -26.2193  -31.3857   20.6236 H   0  0  0  0  0  0
  -26.9030  -30.6991   22.0565 H   0  0  0  0  0  0
  -28.1459  -28.6165   21.2812 H   0  0  0  0  0  0
  -25.8644  -25.7833   18.9651 H   0  0  0  0  0  0
  -23.9976  -27.2942   18.9407 H   0  0  0  0  0  0
  -23.8668  -30.5366   19.3932 H   0  0  0  0  0  0
  -22.8210  -29.2202   19.8298 H   0  0  0  0  0  0
  -25.1339  -36.1780   25.0790 H   0  0  0  0  0  0
  -21.0035  -28.3357   24.1312 H   0  0  0  0  0  0
  -20.5693  -26.2369   23.3630 H   0  0  0  0  0  0
  -21.6668  -26.7422   22.1198 H   0  0  0  0  0  0
  -19.6940  -25.6276   21.1272 H   0  0  0  0  0  0
  -19.6714  -27.3159   20.6714 H   0  0  0  0  0  0
  -17.4223  -26.6661   21.4032 H   0  0  0  0  0  0
  -18.0369  -26.0099   22.9041 H   0  0  0  0  0  0
  -19.7966  -30.7313   24.2204 H   0  0  0  0  0  0
  -17.5038  -31.6277   24.5155 H   0  0  0  0  0  0
  -15.5375  -30.2967   23.7698 H   0  0  0  0  0  0
  -15.8703  -28.0808   22.7097 H   0  0  0  0  0  0
  -24.5874  -30.7149   25.7685 H   0  0  0  0  0  0
  -24.8912  -32.2991   26.4715 H   0  0  0  0  0  0
  -25.7942  -30.8997   27.0212 H   0  0  0  0  0  0
  -26.3104  -29.6579   24.1418 H   0  0  0  0  0  0
  -27.3955  -29.7254   25.5081 H   0  0  0  0  0  0
  -27.9061  -30.4064   23.9851 H   0  0  0  0  0  0
  -27.2644  -33.3670   26.1977 H   0  0  0  0  0  0
  -28.3941  -32.6821   25.0381 H   0  0  0  0  0  0
  -28.0667  -31.8525   26.5518 H   0  0  0  0  0  0
  -28.2590  -38.0063   24.7474 H   0  0  0  0  0  0
  -28.1060  -36.2587   24.6354 H   0  0  0  0  0  0
  -27.2277  -37.1487   25.8872 H   0  0  0  0  0  0
  -20.9570  -29.8746   21.6681 H   0  0  0  0  0  0
  -26.0142  -38.2768   24.1367 H   0  0  0  0  0  0
  -28.8220  -22.6375   18.1528 H   0  0  0  0  0  0
  -28.3857  -21.9517   22.2786 H   0  0  0  0  0  0
  -28.8068  -19.6931   17.0537 H   0  0  0  0  0  0
  -31.0876  -18.1713   20.2008 H   0  0  0  0  0  0
  -29.2872  -17.6381   17.8169 H   0  0  0  0  0  0
  -31.0005  -21.8172   16.9226 H   0  0  0  0  0  0
  -29.3720  -21.9153   16.2414 H   0  0  0  0  0  0
  -30.5183  -20.7991   15.5719 H   0  0  0  0  0  0
  -32.1647  -16.7293   18.1969 H   0  0  0  0  0  0
  -31.3850  -16.8418   16.6316 H   0  0  0  0  0  0
  -30.7392  -15.7460   17.7918 H   0  0  0  0  0  0
  -27.2688  -24.2271   21.3191 H   0  0  0  0  0  0
  -26.9810  -24.1360   19.6346 H   0  0  0  0  0  0
  -28.7598  -16.3742   20.5089 H   0  0  0  0  0  0
  -31.5664  -19.4531   18.0344 H   0  0  0  0  0  0
  -30.9994  -18.8564   16.6377 H   0  0  0  0  0  0
  1 25  1  0  0  0
  1 30  2  0  0  0
  1 83  1  0  0  0
  2  3  1  0  0  0
  2 25  1  0  0  0
  2 85  1  0  0  0
  2 86  1  0  0  0
  3  4  1  0  0  0
  3 87  1  0  0  0
  3 88  1  0  0  0
  4  5  1  0  0  0
  4 89  1  0  0  0
  4 90  1  0  0  0
  5  6  1  0  0  0
  5 26  1  0  0  0
  5 91  1  0  0  0
  6 25  1  0  0  0
  6 92  1  0  0  0
  6 93  1  0  0  0
  7  8  2  0  0  0
  7 26  1  0  0  0
  7 29  1  0  0  0
  8  9  1  0  0  0
  8 22  1  0  0  0
  9 10  1  0  0  0
  9 27  2  0  0  0
 10 11  2  0  0  0
 10 15  1  0  0  0
 11 12  1  0  0  0
 11 94  1  0  0  0
 12 13  2  0  0  0
 12 95  1  0  0  0
 13 14  1  0  0  0
 13 31  1  0  0  0
 14 15  2  0  0  0
 14 96  1  0  0  0
 15 97  1  0  0  0
 16 17  2  0  0  0
 16 21  1  0  0  0
 16 31  1  0  0  0
 17 18  1  0  0  0
 17 98  1  0  0  0
 18 19  2  0  0  0
 18 99  1  0  0  0
 19 20  1  0  0  0
 19 24  1  0  0  0
 20 21  2  0  0  0
 20100  1  0  0  0
 21 23  1  0  0  0
 22 28  1  0  0  0
 22 32  2  0  0  0
 26 27  1  0  0  0
 28101  1  0  0  0
 28102  1  0  0  0
 29103  1  0  0  0
 29104  1  0  0  0
 33 34  1  0  0  0
 33 66  1  0  0  0
 33 70  2  0  0  0
 34 36  1  0  0  0
 34 59  1  0  0  0
 34105  1  0  0  0
 35 44  2  0  0  0
 35 45  1  0  0  0
 35 68  1  0  0  0
 36 56  1  0  0  0
 36106  1  0  0  0
 37 39  1  0  0  0
 37 47  1  0  0  0
 37 66  1  0  0  0
 37107  1  0  0  0
 38 43  2  0  0  0
 38 46  1  0  0  0
 38 47  1  0  0  0
 39 64  1  0  0  0
 39 67  2  0  0  0
 40 52  1  0  0  0
 40 53  2  0  0  0
 40 58  1  0  0  0
 41108  1  0  0  0
 41109  1  0  0  0
 41110  1  0  0  0
 41 48  1  0  0  0
 42 43  1  0  0  0
 42 66  1  0  0  0
 42111  1  0  0  0
 42112  1  0  0  0
 43 44  1  0  0  0
 44113  1  0  0  0
 45 46  2  0  0  0
 45114  1  0  0  0
 46115  1  0  0  0
 47116  1  0  0  0
 47117  1  0  0  0
 48 56  1  0  0  0
 48 65  1  0  0  0
 48118  1  0  0  0
 49 50  1  0  0  0
 49 53  1  0  0  0
 49 64  1  0  0  0
 49119  1  0  0  0
 50 51  1  0  0  0
 50120  1  0  0  0
 50121  1  0  0  0
 51 52  1  0  0  0
 51122  1  0  0  0
 51123  1  0  0  0
 52124  1  0  0  0
 52125  1  0  0  0
 53 54  1  0  0  0
 54 55  2  0  0  0
 54126  1  0  0  0
 55 57  1  0  0  0
 55127  1  0  0  0
 56 69  2  0  0  0
 57 58  2  0  0  0
 57128  1  0  0  0
 58129  1  0  0  0
 59 60  1  0  0  0
 59 61  1  0  0  0
 59 62  1  0  0  0
 60130  1  0  0  0
 60131  1  0  0  0
 60132  1  0  0  0
 61133  1  0  0  0
 61134  1  0  0  0
 61135  1  0  0  0
 62136  1  0  0  0
 62137  1  0  0  0
 62138  1  0  0  0
 63 65  1  0  0  0
 63139  1  0  0  0
 63140  1  0  0  0
 63141  1  0  0  0
 64142  1  0  0  0
 65143  1  0  0  0
 68 81  1  0  0  0
 71 73  2  0  0  0
 71 74  1  0  0  0
 71144  1  0  0  0
 72 74  2  0  0  0
 72 82  1  0  0  0
 72145  1  0  0  0
 73 75  1  0  0  0
 73 76  1  0  0  0
 74 81  1  0  0  0
 75 77  1  0  0  0
 75 82  2  0  0  0
 76 79  1  0  0  0
 76 84  1  0  0  0
 76146  1  0  0  0
 77 78  1  0  0  0
 77 83  1  0  0  0
 77147  1  0  0  0
 78 80  1  0  0  0
 78 84  1  0  0  0
 78148  1  0  0  0
 79149  1  0  0  0
 79150  1  0  0  0
 79151  1  0  0  0
 80152  1  0  0  0
 80153  1  0  0  0
 80154  1  0  0  0
 81155  1  0  0  0
 81156  1  0  0  0
 83157  1  0  0  0
 84158  1  0  0  0
 84159  1  0  0  0
M  CHG  1  84   1
M  ISO  4   1 100  68 101  81 101  83 100
M  END
> <chiral flag>
0

> <version>
0

> <s_m_source_file>
/data/baiqing/PycharmProjects/Reinvent-master-3.2/result/LINK_invent/BTK/process_docking_weight1_custom_sum_contain_oxygen_bond_distance_aromatic_linkinvent_7_9_3/rearranged_h_0182.sdf

> <i_m_source_file_index>
84

> <r_mmod_Potential_Energy-OPLS-2005>
763.284912109375

> <r_mmod_Stretch_Energy-OPLS-2005>
495.859222412109

> <r_mmod_Bend_Energy-OPLS-2005>
436.162048339844

> <r_mmod_Torsional_Energy-OPLS-2005>
258.669097900391

> <r_mmod_Improper_Torsional_Energy-OPLS-2005>
11.3968229293823

> <r_mmod_Van_der_Waal_Energy-OPLS-2005>
152.919830322266

> <r_mmod_Electrostatic_Energy-OPLS-2005>
-508.699859619141

> <r_mmod_Solvation_Energy-OPLS-2005>
-491.684875488281

> <b_mmod_Minimization_Converged-OPLS-2005>
0

> <r_mmod_RMS_Derivative-OPLS-2005>
0.814418077468872

$$$$
84
                    3D
 Structure written by MMmdl.
153162  0  0  1  0            999 V2000
  -30.4662  -15.2150   20.3827 C   0  0  0  0  0  0
  -30.4379  -12.7765   19.5175 C   0  0  0  0  0  0
  -29.5321  -12.5704   18.2786 C   0  0  0  0  0  0
  -28.0781  -12.3045   18.7062 C   0  0  0  0  0  0
  -27.6136  -13.2727   19.8233 C   0  0  2  0  0  0
  -28.6502  -13.4286   20.9561 C   0  0  0  0  0  0
  -25.2397  -13.8240   20.5734 C   0  0  0  0  0  0
  -24.1747  -13.0434   20.9255 C   0  0  0  0  0  0
  -24.6402  -11.6933   20.8763 C   0  0  0  0  0  0
  -23.9099  -10.4293   21.0405 C   0  0  0  0  0  0
  -24.3643   -9.4205   21.9185 C   0  0  0  0  0  0
  -23.6305   -8.2244   22.0758 C   0  0  0  0  0  0
  -22.4285   -8.0285   21.3545 C   0  0  0  0  0  0
  -21.9931   -9.0262   20.4646 C   0  0  0  0  0  0
  -22.7270  -10.2134   20.3053 C   0  0  0  0  0  0
  -21.6857   -6.0741   22.5279 C   0  0  0  0  0  0
  -21.4015   -6.5645   23.8212 C   0  0  0  0  0  0
  -21.3657   -5.6797   24.9174 C   0  0  0  0  0  0
  -21.6041   -4.3059   24.7222 C   0  0  0  0  0  0
  -21.8819   -3.8152   23.4343 C   0  0  0  0  0  0
  -21.9195   -4.6969   22.3402 C   0  0  0  0  0  0
  -22.7765  -13.5188   21.1900 C   0  0  0  0  0  0
  -22.1662   -4.2155   21.0977 F   0  0  0  0  0  0
  -21.5628   -3.4539   25.7731 F   0  0  0  0  0  0
  -29.8868  -13.9200   20.3287 N   0  0  0  0  0  0
  -26.2826  -12.9516   20.3215 N   0  0  0  0  0  0
  -25.9339  -11.6623   20.5721 N   0  0  0  0  0  0
  -22.0424  -12.8167   22.0449 N   0  0  0  0  0  0
  -25.4024  -15.1974   20.4150 N   0  0  0  0  0  0
  -31.6889  -15.2093   20.1831 O   0  0  0  0  0  0
  -21.6644   -6.8886   21.4239 O   0  0  0  0  0  0
  -22.3444  -14.5491   20.6743 O   0  0  0  0  0  0
  -24.6622  -31.8273   23.1745 C   0  0  0  0  0  0
  -25.9319  -32.4606   23.8192 C   0  0  1  0  0  0
  -27.2115  -26.9530   20.1795 C   0  0  0  0  0  0
  -25.6003  -33.8419   24.2105 N   0  0  0  0  0  0
  -23.4749  -30.4424   21.5236 C   0  0  2  0  0  0
  -24.9263  -28.8394   20.1127 C   0  0  0  0  0  0
  -22.7665  -29.4467   22.4795 C   0  0  0  0  0  0
  -18.0322  -28.1416   22.8481 C   0  0  0  0  0  0
  -24.1481  -36.7191   23.2642 C   0  0  0  0  0  0
  -26.0439  -30.6435   21.4007 C   0  0  0  0  0  0
  -26.1117  -29.2362   20.7448 C   0  0  0  0  0  0
  -27.2511  -28.3148   20.7542 C   0  0  0  0  0  0
  -25.9968  -26.7107   19.4958 C   0  0  0  0  0  0
  -24.8936  -27.5962   19.4674 C   0  0  0  0  0  0
  -23.7127  -29.7644   20.1478 C   0  0  0  0  0  0
  -25.4123  -36.2971   24.0307 C   0  0  1  0  0  0
  -20.5948  -28.3756   23.1193 C   0  0  2  0  0  0
  -20.6799  -26.9441   22.5405 C   0  0  0  0  0  0
  -19.5768  -26.6389   21.5221 C   0  0  0  0  0  0
  -18.1951  -26.7954   22.1631 C   0  0  0  0  0  0
  -19.1585  -28.8910   23.2821 C   0  0  0  0  0  0
  -18.9496  -30.1500   23.8858 C   0  0  0  0  0  0
  -17.6487  -30.6606   24.0564 C   0  0  0  0  0  0
  -25.9098  -34.9359   23.5018 C   0  0  0  0  0  0
  -16.5376  -29.9098   23.6350 C   0  0  0  0  0  0
  -16.7304  -28.6514   23.0375 C   0  0  0  0  0  0
  -26.4576  -31.6535   25.0704 C   0  0  0  0  0  0
  -25.3715  -31.3802   26.1374 C   0  0  0  0  0  0
  -27.0456  -30.2900   24.6417 C   0  0  0  0  0  0
  -27.6088  -32.4326   25.7499 C   0  0  0  0  0  0
  -27.5561  -37.1747   24.8472 C   0  0  0  0  0  0
  -21.4338  -29.3047   22.3539 N   0  0  0  0  0  0
  -26.4262  -37.3713   23.9431 N   0  0  0  0  0  0
  -24.7483  -30.9973   22.0864 N   0  0  0  0  0  0
  -23.4225  -28.8024   23.3015 O   0  0  0  0  0  0
  -28.1993  -25.8406   20.2458 O   0  0  0  0  0  0
  -26.5687  -34.8895   22.4602 O   0  0  0  0  0  0
  -23.5698  -32.1226   23.6855 O   0  0  0  0  0  0
  -29.4223  -22.0670   21.2241 C   0  0  0  0  0  0
  -29.7880  -20.6286   21.2283 C   0  0  0  0  0  0
  -29.3448  -19.6236   20.3179 C   0  0  0  0  0  0
  -28.5621  -22.6948   20.2308 C   0  0  0  0  0  0
  -28.5010  -20.3033   19.3524 C   0  0  0  0  0  0
  -30.7615  -19.9638   22.1801 C   0  0  0  0  0  0
  -30.8020  -18.4232   21.8568 C   0  0  0  0  0  0
  -30.1153  -18.0972   20.4969 C   0  0  1  0  0  0
  -27.9325  -19.5041   18.2001 C   0  0  0  0  0  0
  -27.7807  -24.2591   20.2012 C   0  0  0  0  0  0
  -28.1451  -21.6855   19.3437 N   0  0  0  0  0  0
  -29.7189  -16.4881   20.4617 N   0  0  0  0  0  0
  -31.4595  -12.9716   19.1889 H   0  0  0  0  0  0
  -30.4921  -11.8651   20.1154 H   0  0  0  0  0  0
  -29.9037  -11.7462   17.6683 H   0  0  0  0  0  0
  -29.5710  -13.4604   17.6488 H   0  0  0  0  0  0
  -28.0252  -11.2772   19.0680 H   0  0  0  0  0  0
  -27.4099  -12.3601   17.8461 H   0  0  0  0  0  0
  -27.5345  -14.2450   19.3355 H   0  0  0  0  0  0
  -28.8069  -12.4885   21.4876 H   0  0  0  0  0  0
  -28.2993  -14.1511   21.6947 H   0  0  0  0  0  0
  -25.2783   -9.5679   22.4768 H   0  0  0  0  0  0
  -24.0011   -7.4633   22.7479 H   0  0  0  0  0  0
  -21.0866   -8.8782   19.8947 H   0  0  0  0  0  0
  -22.3729  -10.9674   19.6163 H   0  0  0  0  0  0
  -21.2007   -7.6153   23.9715 H   0  0  0  0  0  0
  -21.1476   -6.0526   25.9076 H   0  0  0  0  0  0
  -22.0600   -2.7613   23.2838 H   0  0  0  0  0  0
  -22.4055  -11.9835   22.4838 H   0  0  0  0  0  0
  -21.1034  -13.1171   22.2651 H   0  0  0  0  0  0
  -24.6285  -15.8445   20.5190 H   0  0  0  0  0  0
  -26.2399  -15.6375   20.0581 H   0  0  0  0  0  0
  -26.7386  -32.5157   23.0905 H   0  0  0  0  0  0
  -25.0165  -33.9500   25.0266 H   0  0  0  0  0  0
  -22.7872  -31.2741   21.3572 H   0  0  0  0  0  0
  -23.3769  -35.9495   23.3279 H   0  0  0  0  0  0
  -24.3560  -36.8858   22.2062 H   0  0  0  0  0  0
  -23.7207  -37.6365   23.6701 H   0  0  0  0  0  0
  -26.2217  -31.3864   20.6219 H   0  0  0  0  0  0
  -26.9049  -30.6992   22.0548 H   0  0  0  0  0  0
  -28.1477  -28.6176   21.2768 H   0  0  0  0  0  0
  -25.8507  -25.7714   18.9870 H   0  0  0  0  0  0
  -23.9953  -27.2881   18.9500 H   0  0  0  0  0  0
  -23.8674  -30.5361   19.3929 H   0  0  0  0  0  0
  -22.8231  -29.2194   19.8279 H   0  0  0  0  0  0
  -25.1312  -36.1764   25.0795 H   0  0  0  0  0  0
  -21.0030  -28.3356   24.1318 H   0  0  0  0  0  0
  -20.5688  -26.2378   23.3645 H   0  0  0  0  0  0
  -21.6660  -26.7425   22.1201 H   0  0  0  0  0  0
  -19.6929  -25.6291   21.1274 H   0  0  0  0  0  0
  -19.6706  -27.3181   20.6735 H   0  0  0  0  0  0
  -17.4222  -26.6714   21.4030 H   0  0  0  0  0  0
  -18.0334  -26.0103   22.9030 H   0  0  0  0  0  0
  -19.7967  -30.7333   24.2205 H   0  0  0  0  0  0
  -17.5042  -31.6283   24.5173 H   0  0  0  0  0  0
  -15.5375  -30.2989   23.7701 H   0  0  0  0  0  0
  -15.8702  -28.0818   22.7117 H   0  0  0  0  0  0
  -24.5906  -30.7123   25.7713 H   0  0  0  0  0  0
  -24.8886  -32.3011   26.4649 H   0  0  0  0  0  0
  -25.7959  -30.9087   27.0245 H   0  0  0  0  0  0
  -26.3112  -29.6599   24.1386 H   0  0  0  0  0  0
  -27.3957  -29.7243   25.5060 H   0  0  0  0  0  0
  -27.9074  -30.4082   23.9846 H   0  0  0  0  0  0
  -27.2691  -33.3715   26.1884 H   0  0  0  0  0  0
  -28.4003  -32.6732   25.0388 H   0  0  0  0  0  0
  -28.0629  -31.8561   26.5570 H   0  0  0  0  0  0
  -28.2552  -38.0066   24.7533 H   0  0  0  0  0  0
  -28.1071  -36.2594   24.6262 H   0  0  0  0  0  0
  -27.2291  -37.1352   25.8877 H   0  0  0  0  0  0
  -20.9585  -29.8742   21.6679 H   0  0  0  0  0  0
  -26.0105  -38.2764   24.1470 H   0  0  0  0  0  0
  -29.8076  -22.6946   22.0168 H   0  0  0  0  0  0
  -30.4734  -20.1456   23.2161 H   0  0  0  0  0  0
  -31.7460  -20.4077   22.0306 H   0  0  0  0  0  0
  -30.2315  -17.9239   22.6406 H   0  0  0  0  0  0
  -31.8128  -18.0184   21.9180 H   0  0  0  0  0  0
  -30.8906  -18.1549   19.7314 H   0  0  0  0  0  0
  -28.5603  -18.6415   17.9776 H   0  0  0  0  0  0
  -27.8642  -20.1102   17.2964 H   0  0  0  0  0  0
  -26.9340  -19.1448   18.4486 H   0  0  0  0  0  0
  -27.0334  -24.1738   20.9904 H   0  0  0  0  0  0
  -27.2087  -24.1778   19.2797 H   0  0  0  0  0  0
  -28.7264  -16.3288   20.5478 H   0  0  0  0  0  0
  1 25  1  0  0  0
  1 30  2  0  0  0
  1 82  1  0  0  0
  2  3  1  0  0  0
  2 25  1  0  0  0
  2 83  1  0  0  0
  2 84  1  0  0  0
  3  4  1  0  0  0
  3 85  1  0  0  0
  3 86  1  0  0  0
  4  5  1  0  0  0
  4 87  1  0  0  0
  4 88  1  0  0  0
  5  6  1  0  0  0
  5 26  1  0  0  0
  5 89  1  0  0  0
  6 25  1  0  0  0
  6 90  1  0  0  0
  6 91  1  0  0  0
  7  8  2  0  0  0
  7 26  1  0  0  0
  7 29  1  0  0  0
  8  9  1  0  0  0
  8 22  1  0  0  0
  9 10  1  0  0  0
  9 27  2  0  0  0
 10 11  2  0  0  0
 10 15  1  0  0  0
 11 12  1  0  0  0
 11 92  1  0  0  0
 12 13  2  0  0  0
 12 93  1  0  0  0
 13 14  1  0  0  0
 13 31  1  0  0  0
 14 15  2  0  0  0
 14 94  1  0  0  0
 15 95  1  0  0  0
 16 17  2  0  0  0
 16 21  1  0  0  0
 16 31  1  0  0  0
 17 18  1  0  0  0
 17 96  1  0  0  0
 18 19  2  0  0  0
 18 97  1  0  0  0
 19 20  1  0  0  0
 19 24  1  0  0  0
 20 21  2  0  0  0
 20 98  1  0  0  0
 21 23  1  0  0  0
 22 28  1  0  0  0
 22 32  2  0  0  0
 26 27  1  0  0  0
 28 99  1  0  0  0
 28100  1  0  0  0
 29101  1  0  0  0
 29102  1  0  0  0
 33 34  1  0  0  0
 33 66  1  0  0  0
 33 70  2  0  0  0
 34 36  1  0  0  0
 34 59  1  0  0  0
 34103  1  0  0  0
 35 44  2  0  0  0
 35 45  1  0  0  0
 35 68  1  0  0  0
 36 56  1  0  0  0
 36104  1  0  0  0
 37 39  1  0  0  0
 37 47  1  0  0  0
 37 66  1  0  0  0
 37105  1  0  0  0
 38 43  2  0  0  0
 38 46  1  0  0  0
 38 47  1  0  0  0
 39 64  1  0  0  0
 39 67  2  0  0  0
 40 52  1  0  0  0
 40 53  2  0  0  0
 40 58  1  0  0  0
 41106  1  0  0  0
 41107  1  0  0  0
 41108  1  0  0  0
 41 48  1  0  0  0
 42 43  1  0  0  0
 42 66  1  0  0  0
 42109  1  0  0  0
 42110  1  0  0  0
 43 44  1  0  0  0
 44111  1  0  0  0
 45 46  2  0  0  0
 45112  1  0  0  0
 46113  1  0  0  0
 47114  1  0  0  0
 47115  1  0  0  0
 48 56  1  0  0  0
 48 65  1  0  0  0
 48116  1  0  0  0
 49 50  1  0  0  0
 49 53  1  0  0  0
 49 64  1  0  0  0
 49117  1  0  0  0
 50 51  1  0  0  0
 50118  1  0  0  0
 50119  1  0  0  0
 51 52  1  0  0  0
 51120  1  0  0  0
 51121  1  0  0  0
 52122  1  0  0  0
 52123  1  0  0  0
 53 54  1  0  0  0
 54 55  2  0  0  0
 54124  1  0  0  0
 55 57  1  0  0  0
 55125  1  0  0  0
 56 69  2  0  0  0
 57 58  2  0  0  0
 57126  1  0  0  0
 58127  1  0  0  0
 59 60  1  0  0  0
 59 61  1  0  0  0
 59 62  1  0  0  0
 60128  1  0  0  0
 60129  1  0  0  0
 60130  1  0  0  0
 61131  1  0  0  0
 61132  1  0  0  0
 61133  1  0  0  0
 62134  1  0  0  0
 62135  1  0  0  0
 62136  1  0  0  0
 63 65  1  0  0  0
 63137  1  0  0  0
 63138  1  0  0  0
 63139  1  0  0  0
 64140  1  0  0  0
 65141  1  0  0  0
 68 80  1  0  0  0
 71 72  2  0  0  0
 71 74  1  0  0  0
 71142  1  0  0  0
 72 73  1  0  0  0
 72 76  1  0  0  0
 73 75  2  0  0  0
 73 78  1  0  0  0
 74 80  1  0  0  0
 74 81  2  0  0  0
 75 79  1  0  0  0
 75 81  1  0  0  0
 76 77  1  0  0  0
 76143  1  0  0  0
 76144  1  0  0  0
 77 78  1  0  0  0
 77145  1  0  0  0
 77146  1  0  0  0
 78 82  1  0  0  0
 78147  1  0  0  0
 79148  1  0  0  0
 79149  1  0  0  0
 79150  1  0  0  0
 80151  1  0  0  0
 80152  1  0  0  0
 82153  1  0  0  0
M  ISO  4   1 100  68 101  80 101  82 100
M  END
> <chiral flag>
0

> <version>
0

> <s_m_source_file>
/data/baiqing/PycharmProjects/Reinvent-master-3.2/result/LINK_invent/BTK/process_docking_weight1_custom_sum_contain_oxygen_bond_distance_aromatic_linkinvent_7_9_3/rearranged_h_0182.sdf

> <i_m_source_file_index>
85

> <r_mmod_Potential_Energy-OPLS-2005>
1026.94592285156

> <r_mmod_Stretch_Energy-OPLS-2005>
465.542022705078

> <r_mmod_Bend_Energy-OPLS-2005>
485.920318603516

> <r_mmod_Torsional_Energy-OPLS-2005>
227.641723632812

> <r_mmod_Improper_Torsional_Energy-OPLS-2005>
7.30767679214478

> <r_mmod_Van_der_Waal_Energy-OPLS-2005>
126.809928894043

> <r_mmod_Electrostatic_Energy-OPLS-2005>
-473.044128417969

> <r_mmod_Solvation_Energy-OPLS-2005>
-228.444076538086

> <b_mmod_Minimization_Converged-OPLS-2005>
0

> <r_mmod_RMS_Derivative-OPLS-2005>
0.90168422460556

$$$$
85
                    3D
 Structure written by MMmdl.
151160  0  0  1  0            999 V2000
  -30.5353  -14.9590   20.4222 C   0  0  0  0  0  0
  -30.4422  -12.5937   19.5072 C   0  0  0  0  0  0
  -29.5254  -12.5383   18.2621 C   0  0  0  0  0  0
  -28.0582  -12.3197   18.6761 C   0  0  0  0  0  0
  -27.6320  -13.2490   19.8426 C   0  0  2  0  0  0
  -28.6726  -13.2769   20.9835 C   0  0  0  0  0  0
  -25.2467  -13.8214   20.5706 C   0  0  0  0  0  0
  -24.1782  -13.0439   20.9221 C   0  0  0  0  0  0
  -24.6401  -11.6923   20.8749 C   0  0  0  0  0  0
  -23.9084  -10.4292   21.0403 C   0  0  0  0  0  0
  -24.3632   -9.4207   21.9182 C   0  0  0  0  0  0
  -23.6301   -8.2245   22.0753 C   0  0  0  0  0  0
  -22.4282   -8.0283   21.3542 C   0  0  0  0  0  0
  -21.9922   -9.0257   20.4642 C   0  0  0  0  0  0
  -22.7255  -10.2134   20.3051 C   0  0  0  0  0  0
  -21.6857   -6.0737   22.5277 C   0  0  0  0  0  0
  -21.4017   -6.5639   23.8210 C   0  0  0  0  0  0
  -21.3660   -5.6790   24.9170 C   0  0  0  0  0  0
  -21.6043   -4.3052   24.7221 C   0  0  0  0  0  0
  -21.8819   -3.8146   23.4342 C   0  0  0  0  0  0
  -21.9194   -4.6964   22.3399 C   0  0  0  0  0  0
  -22.7801  -13.5211   21.1870 C   0  0  0  0  0  0
  -22.1662   -4.2149   21.0976 F   0  0  0  0  0  0
  -21.5629   -3.4537   25.7734 F   0  0  0  0  0  0
  -29.9516  -13.6914   20.3920 N   0  0  0  0  0  0
  -26.2895  -12.9448   20.3253 N   0  0  0  0  0  0
  -25.9335  -11.6575   20.5741 N   0  0  0  0  0  0
  -22.0452  -12.8199   22.0424 N   0  0  0  0  0  0
  -25.4132  -15.1943   20.4116 N   0  0  0  0  0  0
  -31.7278  -15.0358   20.1090 O   0  0  0  0  0  0
  -21.6644   -6.8882   21.4239 O   0  0  0  0  0  0
  -22.3485  -14.5514   20.6715 O   0  0  0  0  0  0
  -24.6461  -31.8427   23.1881 C   0  0  0  0  0  0
  -25.9224  -32.4688   23.8274 C   0  0  1  0  0  0
  -27.2122  -27.1114   20.1472 C   0  0  0  0  0  0
  -25.5967  -33.8496   24.2187 N   0  0  0  0  0  0
  -23.4509  -30.4634   21.5340 C   0  0  2  0  0  0
  -24.9012  -28.8937   20.1061 C   0  0  0  0  0  0
  -22.7583  -29.4541   22.4846 C   0  0  0  0  0  0
  -18.0306  -28.1399   22.8473 C   0  0  0  0  0  0
  -24.1491  -36.7247   23.2640 C   0  0  0  0  0  0
  -26.0104  -30.7064   21.3946 C   0  0  0  0  0  0
  -26.0796  -29.3173   20.7334 C   0  0  0  0  0  0
  -27.2338  -28.4410   20.7427 C   0  0  0  0  0  0
  -26.0127  -26.8132   19.4576 C   0  0  0  0  0  0
  -24.8828  -27.6559   19.4521 C   0  0  0  0  0  0
  -23.6788  -29.7969   20.1522 C   0  0  0  0  0  0
  -25.4124  -36.3026   24.0312 C   0  0  1  0  0  0
  -20.5922  -28.3729   23.1223 C   0  0  2  0  0  0
  -20.6791  -26.9429   22.5400 C   0  0  0  0  0  0
  -19.5763  -26.6382   21.5210 C   0  0  0  0  0  0
  -18.1943  -26.7938   22.1619 C   0  0  0  0  0  0
  -19.1565  -28.8883   23.2840 C   0  0  0  0  0  0
  -18.9482  -30.1478   23.8869 C   0  0  0  0  0  0
  -17.6477  -30.6594   24.0559 C   0  0  0  0  0  0
  -25.9080  -34.9403   23.5057 C   0  0  0  0  0  0
  -16.5369  -29.9086   23.6340 C   0  0  0  0  0  0
  -16.7290  -28.6505   23.0358 C   0  0  0  0  0  0
  -26.4536  -31.6564   25.0725 C   0  0  0  0  0  0
  -25.3712  -31.3763   26.1413 C   0  0  0  0  0  0
  -27.0406  -30.2951   24.6337 C   0  0  0  0  0  0
  -27.6060  -32.4339   25.7510 C   0  0  0  0  0  0
  -27.5575  -37.1778   24.8462 C   0  0  0  0  0  0
  -21.4271  -29.3054   22.3596 N   0  0  0  0  0  0
  -26.4282  -37.3745   23.9412 N   0  0  0  0  0  0
  -24.7223  -31.0257   22.0933 N   0  0  0  0  0  0
  -23.4215  -28.8080   23.2999 O   0  0  0  0  0  0
  -28.2287  -26.0781   20.2515 O   0  0  0  0  0  0
  -26.5662  -34.8904   22.4634 O   0  0  0  0  0  0
  -23.5573  -32.1319   23.7079 O   0  0  0  0  0  0
  -28.9062  -22.0952   19.3188 C   0  0  0  0  0  0
  -28.6479  -22.5998   21.5992 C   0  0  0  0  0  0
  -28.5900  -23.1413   20.2805 C   0  0  0  0  0  0
  -29.2135  -20.6988   19.6581 C   0  0  0  0  0  0
  -29.2167  -20.3046   21.0186 C   0  0  0  0  0  0
  -29.4655  -18.7904   21.4342 C   0  0  0  0  0  0
  -29.4116  -18.2155   18.9657 C   0  0  0  0  0  0
  -29.9564  -17.6894   20.3461 C   0  0  2  0  0  0
  -27.8856  -24.5961   19.8842 C   0  0  0  0  0  0
  -28.9428  -21.2886   21.9458 N   0  0  0  0  0  0
  -29.4937  -19.6920   18.6872 N   0  0  0  0  0  0
  -29.7487  -16.1295   20.6032 N   0  0  0  0  0  0
  -29.2973  -18.4250   22.6057 O   0  0  0  0  0  0
  -31.4769  -12.7500   19.1981 H   0  0  0  0  0  0
  -30.4339  -11.6403   20.0380 H   0  0  0  0  0  0
  -29.8484  -11.7448   17.5870 H   0  0  0  0  0  0
  -29.6119  -13.4712   17.7026 H   0  0  0  0  0  0
  -27.9543  -11.2772   18.9793 H   0  0  0  0  0  0
  -27.3967  -12.4544   17.8196 H   0  0  0  0  0  0
  -27.5962  -14.2519   19.4165 H   0  0  0  0  0  0
  -28.7583  -12.3005   21.4625 H   0  0  0  0  0  0
  -28.3684  -13.9768   21.7635 H   0  0  0  0  0  0
  -25.2777   -9.5682   22.4759 H   0  0  0  0  0  0
  -24.0005   -7.4638   22.7475 H   0  0  0  0  0  0
  -21.0852   -8.8777   19.8950 H   0  0  0  0  0  0
  -22.3713  -10.9671   19.6158 H   0  0  0  0  0  0
  -21.2011   -7.6149   23.9715 H   0  0  0  0  0  0
  -21.1481   -6.0519   25.9072 H   0  0  0  0  0  0
  -22.0600   -2.7608   23.2843 H   0  0  0  0  0  0
  -22.4079  -11.9870   22.4820 H   0  0  0  0  0  0
  -21.1063  -13.1211   22.2620 H   0  0  0  0  0  0
  -24.6392  -15.8420   20.5121 H   0  0  0  0  0  0
  -26.2477  -15.6311   20.0435 H   0  0  0  0  0  0
  -26.7290  -32.5285   23.0999 H   0  0  0  0  0  0
  -25.0107  -33.9613   25.0329 H   0  0  0  0  0  0
  -22.7549  -31.2905   21.3798 H   0  0  0  0  0  0
  -23.3767  -35.9563   23.3277 H   0  0  0  0  0  0
  -24.3579  -36.8907   22.2061 H   0  0  0  0  0  0
  -23.7229  -37.6427   23.6698 H   0  0  0  0  0  0
  -26.1736  -31.4611   20.6240 H   0  0  0  0  0  0
  -26.8782  -30.7533   22.0407 H   0  0  0  0  0  0
  -28.1243  -28.7550   21.2690 H   0  0  0  0  0  0
  -25.8960  -25.8796   18.9296 H   0  0  0  0  0  0
  -23.9876  -27.3315   18.9393 H   0  0  0  0  0  0
  -23.8163  -30.5736   19.3993 H   0  0  0  0  0  0
  -22.7931  -29.2408   19.8397 H   0  0  0  0  0  0
  -25.1311  -36.1848   25.0802 H   0  0  0  0  0  0
  -21.0012  -28.3323   24.1343 H   0  0  0  0  0  0
  -20.5679  -26.2346   23.3625 H   0  0  0  0  0  0
  -21.6656  -26.7427   22.1198 H   0  0  0  0  0  0
  -19.6925  -25.6284   21.1259 H   0  0  0  0  0  0
  -19.6700  -27.3178   20.6729 H   0  0  0  0  0  0
  -17.4212  -26.6686   21.4022 H   0  0  0  0  0  0
  -18.0337  -26.0083   22.9018 H   0  0  0  0  0  0
  -19.7959  -30.7301   24.2224 H   0  0  0  0  0  0
  -17.5032  -31.6271   24.5167 H   0  0  0  0  0  0
  -15.5368  -30.2979   23.7681 H   0  0  0  0  0  0
  -15.8690  -28.0815   22.7091 H   0  0  0  0  0  0
  -24.5902  -30.7098   25.7732 H   0  0  0  0  0  0
  -24.8892  -32.2950   26.4767 H   0  0  0  0  0  0
  -25.7988  -30.8983   27.0236 H   0  0  0  0  0  0
  -26.3034  -29.6665   24.1329 H   0  0  0  0  0  0
  -27.3984  -29.7261   25.4929 H   0  0  0  0  0  0
  -27.8959  -30.4171   23.9688 H   0  0  0  0  0  0
  -27.2651  -33.3673   26.2003 H   0  0  0  0  0  0
  -28.3914  -32.6845   25.0367 H   0  0  0  0  0  0
  -28.0678  -31.8521   26.5498 H   0  0  0  0  0  0
  -28.2569  -38.0097   24.7528 H   0  0  0  0  0  0
  -28.1096  -36.2628   24.6263 H   0  0  0  0  0  0
  -27.2298  -37.1387   25.8865 H   0  0  0  0  0  0
  -20.9486  -29.8779   21.6781 H   0  0  0  0  0  0
  -26.0144  -38.2807   24.1434 H   0  0  0  0  0  0
  -28.8513  -22.3550   18.2716 H   0  0  0  0  0  0
  -28.3694  -23.2312   22.4301 H   0  0  0  0  0  0
  -28.3643  -17.9232   18.8703 H   0  0  0  0  0  0
  -29.9330  -17.6943   18.1612 H   0  0  0  0  0  0
  -31.0395  -17.8061   20.3029 H   0  0  0  0  0  0
  -26.8719  -24.4388   20.2531 H   0  0  0  0  0  0
  -27.8010  -24.5821   18.7970 H   0  0  0  0  0  0
  -29.4666  -19.9637   17.7039 H   0  0  0  0  0  0
  -28.8077  -15.9165   20.8964 H   0  0  0  0  0  0
  1 25  1  0  0  0
  1 30  2  0  0  0
  1 82  1  0  0  0
  2  3  1  0  0  0
  2 25  1  0  0  0
  2 84  1  0  0  0
  2 85  1  0  0  0
  3  4  1  0  0  0
  3 86  1  0  0  0
  3 87  1  0  0  0
  4  5  1  0  0  0
  4 88  1  0  0  0
  4 89  1  0  0  0
  5  6  1  0  0  0
  5 26  1  0  0  0
  5 90  1  0  0  0
  6 25  1  0  0  0
  6 91  1  0  0  0
  6 92  1  0  0  0
  7  8  2  0  0  0
  7 26  1  0  0  0
  7 29  1  0  0  0
  8  9  1  0  0  0
  8 22  1  0  0  0
  9 10  1  0  0  0
  9 27  2  0  0  0
 10 11  2  0  0  0
 10 15  1  0  0  0
 11 12  1  0  0  0
 11 93  1  0  0  0
 12 13  2  0  0  0
 12 94  1  0  0  0
 13 14  1  0  0  0
 13 31  1  0  0  0
 14 15  2  0  0  0
 14 95  1  0  0  0
 15 96  1  0  0  0
 16 17  2  0  0  0
 16 21  1  0  0  0
 16 31  1  0  0  0
 17 18  1  0  0  0
 17 97  1  0  0  0
 18 19  2  0  0  0
 18 98  1  0  0  0
 19 20  1  0  0  0
 19 24  1  0  0  0
 20 21  2  0  0  0
 20 99  1  0  0  0
 21 23  1  0  0  0
 22 28  1  0  0  0
 22 32  2  0  0  0
 26 27  1  0  0  0
 28100  1  0  0  0
 28101  1  0  0  0
 29102  1  0  0  0
 29103  1  0  0  0
 33 34  1  0  0  0
 33 66  1  0  0  0
 33 70  2  0  0  0
 34 36  1  0  0  0
 34 59  1  0  0  0
 34104  1  0  0  0
 35 44  2  0  0  0
 35 45  1  0  0  0
 35 68  1  0  0  0
 36 56  1  0  0  0
 36105  1  0  0  0
 37 39  1  0  0  0
 37 47  1  0  0  0
 37 66  1  0  0  0
 37106  1  0  0  0
 38 43  2  0  0  0
 38 46  1  0  0  0
 38 47  1  0  0  0
 39 64  1  0  0  0
 39 67  2  0  0  0
 40 52  1  0  0  0
 40 53  2  0  0  0
 40 58  1  0  0  0
 41107  1  0  0  0
 41108  1  0  0  0
 41109  1  0  0  0
 41 48  1  0  0  0
 42 43  1  0  0  0
 42 66  1  0  0  0
 42110  1  0  0  0
 42111  1  0  0  0
 43 44  1  0  0  0
 44112  1  0  0  0
 45 46  2  0  0  0
 45113  1  0  0  0
 46114  1  0  0  0
 47115  1  0  0  0
 47116  1  0  0  0
 48 56  1  0  0  0
 48 65  1  0  0  0
 48117  1  0  0  0
 49 50  1  0  0  0
 49 53  1  0  0  0
 49 64  1  0  0  0
 49118  1  0  0  0
 50 51  1  0  0  0
 50119  1  0  0  0
 50120  1  0  0  0
 51 52  1  0  0  0
 51121  1  0  0  0
 51122  1  0  0  0
 52123  1  0  0  0
 52124  1  0  0  0
 53 54  1  0  0  0
 54 55  2  0  0  0
 54125  1  0  0  0
 55 57  1  0  0  0
 55126  1  0  0  0
 56 69  2  0  0  0
 57 58  2  0  0  0
 57127  1  0  0  0
 58128  1  0  0  0
 59 60  1  0  0  0
 59 61  1  0  0  0
 59 62  1  0  0  0
 60129  1  0  0  0
 60130  1  0  0  0
 60131  1  0  0  0
 61132  1  0  0  0
 61133  1  0  0  0
 61134  1  0  0  0
 62135  1  0  0  0
 62136  1  0  0  0
 62137  1  0  0  0
 63 65  1  0  0  0
 63138  1  0  0  0
 63139  1  0  0  0
 63140  1  0  0  0
 64141  1  0  0  0
 65142  1  0  0  0
 68 79  1  0  0  0
 71 73  2  0  0  0
 71 74  1  0  0  0
 71143  1  0  0  0
 72 73  1  0  0  0
 72 80  2  0  0  0
 72144  1  0  0  0
 73 79  1  0  0  0
 74 75  2  0  0  0
 74 81  1  0  0  0
 75 76  1  0  0  0
 75 80  1  0  0  0
 76 78  1  0  0  0
 76 83  2  0  0  0
 77 78  1  0  0  0
 77 81  1  0  0  0
 77145  1  0  0  0
 77146  1  0  0  0
 78 82  1  0  0  0
 78147  1  0  0  0
 79148  1  0  0  0
 79149  1  0  0  0
 81150  1  0  0  0
 82151  1  0  0  0
M  ISO  4   1 100  68 101  79 101  82 100
M  END
> <chiral flag>
0

> <version>
0

> <s_m_source_file>
/data/baiqing/PycharmProjects/Reinvent-master-3.2/result/LINK_invent/BTK/process_docking_weight1_custom_sum_contain_oxygen_bond_distance_aromatic_linkinvent_7_9_3/rearranged_h_0182.sdf

> <i_m_source_file_index>
86

> <r_mmod_Potential_Energy-OPLS-2005>
393.229431152344

> <r_mmod_Stretch_Energy-OPLS-2005>
241.779373168945

> <r_mmod_Bend_Energy-OPLS-2005>
258.628936767578

> <r_mmod_Torsional_Energy-OPLS-2005>
217.283615112305

> <r_mmod_Improper_Torsional_Energy-OPLS-2005>
8.5800895690918

> <r_mmod_Van_der_Waal_Energy-OPLS-2005>
141.800796508789

> <r_mmod_Electrostatic_Energy-OPLS-2005>
-427.511016845703

> <r_mmod_Solvation_Energy-OPLS-2005>
-260.066528320312

> <b_mmod_Minimization_Converged-OPLS-2005>
0

> <r_mmod_RMS_Derivative-OPLS-2005>
0.481737524271011

$$$$
86
                    3D
 Structure written by MMmdl.
163171  0  0  1  0            999 V2000
  -30.4017  -15.3264   20.3765 C   0  0  0  0  0  0
  -30.4392  -12.8527   19.5245 C   0  0  0  0  0  0
  -29.5307  -12.5799   18.2977 C   0  0  0  0  0  0
  -28.0957  -12.2674   18.7457 C   0  0  0  0  0  0
  -27.6092  -13.2669   19.8215 C   0  0  2  0  0  0
  -28.6361  -13.4702   20.9547 C   0  0  0  0  0  0
  -25.2398  -13.8233   20.5698 C   0  0  0  0  0  0
  -24.1754  -13.0425   20.9223 C   0  0  0  0  0  0
  -24.6413  -11.6942   20.8782 C   0  0  0  0  0  0
  -23.9129  -10.4281   21.0461 C   0  0  0  0  0  0
  -24.3685   -9.4185   21.9213 C   0  0  0  0  0  0
  -23.6328   -8.2252   22.0776 C   0  0  0  0  0  0
  -22.4304   -8.0306   21.3575 C   0  0  0  0  0  0
  -21.9961   -9.0286   20.4681 C   0  0  0  0  0  0
  -22.7320  -10.2145   20.3086 C   0  0  0  0  0  0
  -21.6865   -6.0767   22.5282 C   0  0  0  0  0  0
  -21.4045   -6.5654   23.8221 C   0  0  0  0  0  0
  -21.3645   -5.6797   24.9168 C   0  0  0  0  0  0
  -21.6036   -4.3058   24.7207 C   0  0  0  0  0  0
  -21.8824   -3.8170   23.4312 C   0  0  0  0  0  0
  -21.9204   -4.7005   22.3383 C   0  0  0  0  0  0
  -22.7758  -13.5211   21.1833 C   0  0  0  0  0  0
  -22.1662   -4.2209   21.0952 F   0  0  0  0  0  0
  -21.5605   -3.4514   25.7692 F   0  0  0  0  0  0
  -29.8568  -14.0019   20.3205 N   0  0  0  0  0  0
  -26.2806  -12.9494   20.3208 N   0  0  0  0  0  0
  -25.9344  -11.6613   20.5750 N   0  0  0  0  0  0
  -22.0449  -12.8200   22.0437 N   0  0  0  0  0  0
  -25.4073  -15.1945   20.4063 N   0  0  0  0  0  0
  -31.6320  -15.3288   20.2216 O   0  0  0  0  0  0
  -21.6649   -6.8922   21.4253 O   0  0  0  0  0  0
  -22.3425  -14.5467   20.6654 O   0  0  0  0  0  0
  -24.6681  -31.8181   23.1675 C   0  0  0  0  0  0
  -25.9347  -32.4551   23.8150 C   0  0  1  0  0  0
  -27.2185  -26.8891   20.1936 C   0  0  0  0  0  0
  -25.6009  -33.8366   24.2049 N   0  0  0  0  0  0
  -23.4841  -30.4274   21.5181 C   0  0  2  0  0  0
  -24.9344  -28.8006   20.1244 C   0  0  0  0  0  0
  -22.7702  -29.4402   22.4792 C   0  0  0  0  0  0
  -18.0308  -28.1401   22.8438 C   0  0  0  0  0  0
  -24.1494  -36.7197   23.2647 C   0  0  0  0  0  0
  -26.0542  -30.6156   21.3970 C   0  0  0  0  0  0
  -26.1220  -29.1972   20.7518 C   0  0  0  0  0  0
  -27.2621  -28.2680   20.7476 C   0  0  0  0  0  0
  -25.9929  -26.6451   19.5339 C   0  0  0  0  0  0
  -24.8946  -27.5461   19.4947 C   0  0  0  0  0  0
  -23.7254  -29.7364   20.1465 C   0  0  0  0  0  0
  -25.4129  -36.2945   24.0300 C   0  0  1  0  0  0
  -20.5944  -28.3749   23.1172 C   0  0  2  0  0  0
  -20.6780  -26.9428   22.5380 C   0  0  0  0  0  0
  -19.5760  -26.6371   21.5184 C   0  0  0  0  0  0
  -18.1948  -26.7925   22.1592 C   0  0  0  0  0  0
  -19.1576  -28.8893   23.2790 C   0  0  0  0  0  0
  -18.9487  -30.1480   23.8833 C   0  0  0  0  0  0
  -17.6484  -30.6595   24.0548 C   0  0  0  0  0  0
  -25.9099  -34.9325   23.5003 C   0  0  0  0  0  0
  -16.5375  -29.9084   23.6343 C   0  0  0  0  0  0
  -16.7286  -28.6502   23.0353 C   0  0  0  0  0  0
  -26.4599  -31.6512   25.0694 C   0  0  0  0  0  0
  -25.3725  -31.3757   26.1351 C   0  0  0  0  0  0
  -27.0502  -30.2886   24.6431 C   0  0  0  0  0  0
  -27.6076  -32.4327   25.7486 C   0  0  0  0  0  0
  -27.5566  -37.1750   24.8463 C   0  0  0  0  0  0
  -21.4364  -29.3045   22.3557 N   0  0  0  0  0  0
  -26.4256  -37.3697   23.9437 N   0  0  0  0  0  0
  -24.7579  -30.9816   22.0821 N   0  0  0  0  0  0
  -23.4231  -28.7958   23.3032 O   0  0  0  0  0  0
  -28.2588  -25.8135   20.0954 O   0  0  0  0  0  0
  -26.5701  -34.8875   22.4593 O   0  0  0  0  0  0
  -23.5742  -32.1130   23.6790 O   0  0  0  0  0  0
  -31.7861  -21.1547   19.0643 C   0  0  0  0  0  0
  -30.6940  -21.8131   19.4828 C   0  0  0  0  0  0
  -29.1810  -19.5217   19.4764 C   0  0  0  0  0  0
  -29.0000  -18.9512   21.8215 C   0  0  0  0  0  0
  -28.2769  -21.6140   21.7732 C   0  0  0  0  0  0
  -29.7373  -18.2997   20.5554 C   0  0  2  0  0  0
  -29.2623  -21.2961   19.4886 C   0  0  1  0  0  0
  -28.3009  -22.4351   20.3702 C   0  0  1  0  0  0
  -26.8694  -22.3464   19.7807 C   0  0  0  0  0  0
  -30.6380  -20.8166   22.4588 C   0  0  0  0  0  0
  -28.3870  -24.2576   20.6867 C   0  0  0  0  0  0
  -29.6092  -16.6014   20.4150 N   0  0  0  0  0  0
  -29.2330  -20.4458   22.1435 N   0  3  2  0  0  0
  -28.8461  -21.5205   18.2392 F   0  0  0  0  0  0
  -31.4426  -13.0939   19.1706 H   0  0  0  0  0  0
  -30.5440  -11.9500   20.1360 H   0  0  0  0  0  0
  -29.9265  -11.7612   17.6954 H   0  0  0  0  0  0
  -29.5232  -13.4579   17.6515 H   0  0  0  0  0  0
  -28.0907  -11.2552   19.1541 H   0  0  0  0  0  0
  -27.4155  -12.2559   17.8938 H   0  0  0  0  0  0
  -27.5193  -14.2226   19.3061 H   0  0  0  0  0  0
  -28.8137  -12.5397   21.5002 H   0  0  0  0  0  0
  -28.2502  -14.1858   21.6835 H   0  0  0  0  0  0
  -25.2852   -9.5620   22.4750 H   0  0  0  0  0  0
  -24.0037   -7.4622   22.7455 H   0  0  0  0  0  0
  -21.0904   -8.8849   19.8931 H   0  0  0  0  0  0
  -22.3854  -10.9705   19.6159 H   0  0  0  0  0  0
  -21.2089   -7.6180   23.9755 H   0  0  0  0  0  0
  -21.1438   -6.0503   25.9069 H   0  0  0  0  0  0
  -22.0629   -2.7641   23.2784 H   0  0  0  0  0  0
  -22.4102  -11.9843   22.4765 H   0  0  0  0  0  0
  -21.1067  -13.1216   22.2686 H   0  0  0  0  0  0
  -24.6384  -15.8464   20.5112 H   0  0  0  0  0  0
  -26.2446  -15.6282   20.0430 H   0  0  0  0  0  0
  -26.7429  -32.5071   23.0860 H   0  0  0  0  0  0
  -25.0157  -33.9413   25.0213 H   0  0  0  0  0  0
  -22.7987  -31.2589   21.3403 H   0  0  0  0  0  0
  -23.3757  -35.9523   23.3247 H   0  0  0  0  0  0
  -24.3585  -36.8902   22.2075 H   0  0  0  0  0  0
  -23.7227  -37.6363   23.6734 H   0  0  0  0  0  0
  -26.2272  -31.3511   20.6108 H   0  0  0  0  0  0
  -26.9174  -30.6835   22.0467 H   0  0  0  0  0  0
  -28.1779  -28.5859   21.2253 H   0  0  0  0  0  0
  -25.8644  -25.6894   19.0457 H   0  0  0  0  0  0
  -23.9951  -27.2383   18.9785 H   0  0  0  0  0  0
  -23.8939  -30.4963   19.3814 H   0  0  0  0  0  0
  -22.8336  -29.1944   19.8242 H   0  0  0  0  0  0
  -25.1322  -36.1732   25.0785 H   0  0  0  0  0  0
  -20.9994  -28.3331   24.1311 H   0  0  0  0  0  0
  -20.5635  -26.2376   23.3626 H   0  0  0  0  0  0
  -21.6649  -26.7388   22.1216 H   0  0  0  0  0  0
  -19.6939  -25.6272   21.1245 H   0  0  0  0  0  0
  -19.6702  -27.3147   20.6696 H   0  0  0  0  0  0
  -17.4221  -26.6642   21.4003 H   0  0  0  0  0  0
  -18.0364  -26.0079   22.9004 H   0  0  0  0  0  0
  -19.7970  -30.7301   24.2184 H   0  0  0  0  0  0
  -17.5042  -31.6256   24.5173 H   0  0  0  0  0  0
  -15.5375  -30.2976   23.7700 H   0  0  0  0  0  0
  -15.8675  -28.0806   22.7114 H   0  0  0  0  0  0
  -24.5919  -30.7094   25.7662 H   0  0  0  0  0  0
  -24.8905  -32.2958   26.4668 H   0  0  0  0  0  0
  -25.7972  -30.8991   27.0199 H   0  0  0  0  0  0
  -26.3189  -29.6536   24.1420 H   0  0  0  0  0  0
  -27.4034  -29.7267   25.5089 H   0  0  0  0  0  0
  -27.9117  -30.4066   23.9848 H   0  0  0  0  0  0
  -27.2647  -33.3672   26.1924 H   0  0  0  0  0  0
  -28.3956  -32.6812   25.0367 H   0  0  0  0  0  0
  -28.0674  -31.8551   26.5513 H   0  0  0  0  0  0
  -28.2541  -38.0089   24.7557 H   0  0  0  0  0  0
  -28.1103  -36.2622   24.6221 H   0  0  0  0  0  0
  -27.2305  -37.1312   25.8868 H   0  0  0  0  0  0
  -20.9663  -29.8787   21.6694 H   0  0  0  0  0  0
  -26.0093  -38.2748   24.1467 H   0  0  0  0  0  0
  -32.7509  -21.6383   19.1200 H   0  0  0  0  0  0
  -31.7487  -20.1541   18.6580 H   0  0  0  0  0  0
  -30.8394  -22.8206   19.8491 H   0  0  0  0  0  0
  -28.1304  -19.2834   19.3037 H   0  0  0  0  0  0
  -29.6376  -19.2347   18.5294 H   0  0  0  0  0  0
  -29.2753  -18.3784   22.7081 H   0  0  0  0  0  0
  -27.9229  -18.7944   21.7390 H   0  0  0  0  0  0
  -27.2649  -21.2589   21.9795 H   0  0  0  0  0  0
  -28.4519  -22.3572   22.5515 H   0  0  0  0  0  0
  -30.8089  -18.4573   20.6771 H   0  0  0  0  0  0
  -26.5754  -21.3237   19.5353 H   0  0  0  0  0  0
  -26.7889  -22.9505   18.8744 H   0  0  0  0  0  0
  -26.1200  -22.7362   20.4726 H   0  0  0  0  0  0
  -31.3360  -20.5376   21.6753 H   0  0  0  0  0  0
  -30.9595  -20.3090   23.3696 H   0  0  0  0  0  0
  -30.7530  -21.8871   22.6286 H   0  0  0  0  0  0
  -29.3701  -24.3428   21.1511 H   0  0  0  0  0  0
  -27.6988  -24.3604   21.5260 H   0  0  0  0  0  0
  -28.6351  -16.3408   20.4088 H   0  0  0  0  0  0
  -28.9182  -20.3794   23.1005 H   0  0  0  0  0  0
  1 25  1  0  0  0
  1 30  2  0  0  0
  1 82  1  0  0  0
  2  3  1  0  0  0
  2 25  1  0  0  0
  2 85  1  0  0  0
  2 86  1  0  0  0
  3  4  1  0  0  0
  3 87  1  0  0  0
  3 88  1  0  0  0
  4  5  1  0  0  0
  4 89  1  0  0  0
  4 90  1  0  0  0
  5  6  1  0  0  0
  5 26  1  0  0  0
  5 91  1  0  0  0
  6 25  1  0  0  0
  6 92  1  0  0  0
  6 93  1  0  0  0
  7  8  2  0  0  0
  7 26  1  0  0  0
  7 29  1  0  0  0
  8  9  1  0  0  0
  8 22  1  0  0  0
  9 10  1  0  0  0
  9 27  2  0  0  0
 10 11  2  0  0  0
 10 15  1  0  0  0
 11 12  1  0  0  0
 11 94  1  0  0  0
 12 13  2  0  0  0
 12 95  1  0  0  0
 13 14  1  0  0  0
 13 31  1  0  0  0
 14 15  2  0  0  0
 14 96  1  0  0  0
 15 97  1  0  0  0
 16 17  2  0  0  0
 16 21  1  0  0  0
 16 31  1  0  0  0
 17 18  1  0  0  0
 17 98  1  0  0  0
 18 19  2  0  0  0
 18 99  1  0  0  0
 19 20  1  0  0  0
 19 24  1  0  0  0
 20 21  2  0  0  0
 20100  1  0  0  0
 21 23  1  0  0  0
 22 28  1  0  0  0
 22 32  2  0  0  0
 26 27  1  0  0  0
 28101  1  0  0  0
 28102  1  0  0  0
 29103  1  0  0  0
 29104  1  0  0  0
 33 34  1  0  0  0
 33 66  1  0  0  0
 33 70  2  0  0  0
 34 36  1  0  0  0
 34 59  1  0  0  0
 34105  1  0  0  0
 35 44  2  0  0  0
 35 45  1  0  0  0
 35 68  1  0  0  0
 36 56  1  0  0  0
 36106  1  0  0  0
 37 39  1  0  0  0
 37 47  1  0  0  0
 37 66  1  0  0  0
 37107  1  0  0  0
 38 43  2  0  0  0
 38 46  1  0  0  0
 38 47  1  0  0  0
 39 64  1  0  0  0
 39 67  2  0  0  0
 40 52  1  0  0  0
 40 53  2  0  0  0
 40 58  1  0  0  0
 41108  1  0  0  0
 41109  1  0  0  0
 41110  1  0  0  0
 41 48  1  0  0  0
 42 43  1  0  0  0
 42 66  1  0  0  0
 42111  1  0  0  0
 42112  1  0  0  0
 43 44  1  0  0  0
 44113  1  0  0  0
 45 46  2  0  0  0
 45114  1  0  0  0
 46115  1  0  0  0
 47116  1  0  0  0
 47117  1  0  0  0
 48 56  1  0  0  0
 48 65  1  0  0  0
 48118  1  0  0  0
 49 50  1  0  0  0
 49 53  1  0  0  0
 49 64  1  0  0  0
 49119  1  0  0  0
 50 51  1  0  0  0
 50120  1  0  0  0
 50121  1  0  0  0
 51 52  1  0  0  0
 51122  1  0  0  0
 51123  1  0  0  0
 52124  1  0  0  0
 52125  1  0  0  0
 53 54  1  0  0  0
 54 55  2  0  0  0
 54126  1  0  0  0
 55 57  1  0  0  0
 55127  1  0  0  0
 56 69  2  0  0  0
 57 58  2  0  0  0
 57128  1  0  0  0
 58129  1  0  0  0
 59 60  1  0  0  0
 59 61  1  0  0  0
 59 62  1  0  0  0
 60130  1  0  0  0
 60131  1  0  0  0
 60132  1  0  0  0
 61133  1  0  0  0
 61134  1  0  0  0
 61135  1  0  0  0
 62136  1  0  0  0
 62137  1  0  0  0
 62138  1  0  0  0
 63 65  1  0  0  0
 63139  1  0  0  0
 63140  1  0  0  0
 63141  1  0  0  0
 64142  1  0  0  0
 65143  1  0  0  0
 68 81  1  0  0  0
 71 72  2  0  0  0
 71144  1  0  0  0
 71145  1  0  0  0
 72 77  1  0  0  0
 72146  1  0  0  0
 73 76  1  0  0  0
 73 77  1  0  0  0
 73147  1  0  0  0
 73148  1  0  0  0
 74 76  1  0  0  0
 74 83  1  0  0  0
 74149  1  0  0  0
 74150  1  0  0  0
 75 78  1  0  0  0
 75 83  1  0  0  0
 75151  1  0  0  0
 75152  1  0  0  0
 76 82  1  0  0  0
 76153  1  0  0  0
 77 78  1  0  0  0
 77 84  1  0  0  0
 78 79  1  0  0  0
 78 81  1  0  0  0
 79154  1  0  0  0
 79155  1  0  0  0
 79156  1  0  0  0
 80157  1  0  0  0
 80158  1  0  0  0
 80159  1  0  0  0
 80 83  1  0  0  0
 81160  1  0  0  0
 81161  1  0  0  0
 82162  1  0  0  0
 83163  1  0  0  0
M  CHG  1  83   1
M  ISO  4   1 100  68 101  81 101  82 100
M  END
> <chiral flag>
0

> <version>
0

> <s_m_source_file>
/data/baiqing/PycharmProjects/Reinvent-master-3.2/result/LINK_invent/BTK/process_docking_weight1_custom_sum_contain_oxygen_bond_distance_aromatic_linkinvent_7_9_3/rearranged_h_0182.sdf

> <i_m_source_file_index>
87

> <r_mmod_Potential_Energy-OPLS-2005>
1555.22119140625

> <r_mmod_Stretch_Energy-OPLS-2005>
675.923217773438

> <r_mmod_Bend_Energy-OPLS-2005>
665.162902832031

> <r_mmod_Torsional_Energy-OPLS-2005>
312.796783447266

> <r_mmod_Improper_Torsional_Energy-OPLS-2005>
4.29498672485352

> <r_mmod_Van_der_Waal_Energy-OPLS-2005>
117.802200317383

> <r_mmod_Electrostatic_Energy-OPLS-2005>
-249.318832397461

> <r_mmod_Solvation_Energy-OPLS-2005>
-480.219787597656

> <b_mmod_Minimization_Converged-OPLS-2005>
0

> <r_mmod_RMS_Derivative-OPLS-2005>
5.2588849067688

$$$$
87
                    3D
 Structure written by MMmdl.
161170  0  0  1  0            999 V2000
  -30.4901  -15.1636   20.2007 C   0  0  0  0  0  0
  -30.4019  -12.7112   19.4682 C   0  0  0  0  0  0
  -29.4929  -12.5348   18.2327 C   0  0  0  0  0  0
  -28.0395  -12.2871   18.6737 C   0  0  0  0  0  0
  -27.5901  -13.2654   19.7873 C   0  0  2  0  0  0
  -28.6406  -13.4412   20.8986 C   0  0  0  0  0  0
  -25.2351  -13.8193   20.5760 C   0  0  0  0  0  0
  -24.1703  -13.0443   20.9204 C   0  0  0  0  0  0
  -24.6298  -11.6908   20.8720 C   0  0  0  0  0  0
  -23.8967  -10.4280   21.0354 C   0  0  0  0  0  0
  -24.3555   -9.4233   21.9158 C   0  0  0  0  0  0
  -23.6256   -8.2255   22.0736 C   0  0  0  0  0  0
  -22.4231   -8.0248   21.3535 C   0  0  0  0  0  0
  -21.9842   -9.0175   20.4617 C   0  0  0  0  0  0
  -22.7121  -10.2070   20.3036 C   0  0  0  0  0  0
  -21.6860   -6.0695   22.5280 C   0  0  0  0  0  0
  -21.4033   -6.5622   23.8198 C   0  0  0  0  0  0
  -21.3682   -5.6785   24.9172 C   0  0  0  0  0  0
  -21.6079   -4.3039   24.7226 C   0  0  0  0  0  0
  -21.8837   -3.8118   23.4338 C   0  0  0  0  0  0
  -21.9194   -4.6935   22.3399 C   0  0  0  0  0  0
  -22.7728  -13.5139   21.1922 C   0  0  0  0  0  0
  -22.1655   -4.2124   21.0963 F   0  0  0  0  0  0
  -21.5619   -3.4535   25.7728 F   0  0  0  0  0  0
  -29.8755  -13.8888   20.2314 N   0  0  0  0  0  0
  -26.2699  -12.9460   20.3108 N   0  0  0  0  0  0
  -25.9227  -11.6568   20.5675 N   0  0  0  0  0  0
  -22.0437  -12.8088   22.0487 N   0  0  0  0  0  0
  -25.4193  -15.1954   20.4322 N   0  0  0  0  0  0
  -31.7216  -15.1090   20.1187 O   0  0  0  0  0  0
  -21.6647   -6.8819   21.4225 O   0  0  0  0  0  0
  -22.3385  -14.5438   20.6744 O   0  0  0  0  0  0
  -24.6601  -31.8300   23.1688 C   0  0  0  0  0  0
  -25.9307  -32.4596   23.8137 C   0  0  1  0  0  0
  -27.1979  -26.9853   20.1390 C   0  0  0  0  0  0
  -25.6000  -33.8404   24.2077 N   0  0  0  0  0  0
  -23.4701  -30.4471   21.5230 C   0  0  2  0  0  0
  -24.9070  -28.8415   20.1097 C   0  0  0  0  0  0
  -22.7666  -29.4523   22.4834 C   0  0  0  0  0  0
  -18.0352  -28.1384   22.8431 C   0  0  0  0  0  0
  -24.1530  -36.7304   23.2637 C   0  0  0  0  0  0
  -26.0333  -30.6495   21.3863 C   0  0  0  0  0  0
  -26.0929  -29.2471   20.7279 C   0  0  0  0  0  0
  -27.2439  -28.3390   20.7133 C   0  0  0  0  0  0
  -25.9780  -26.7193   19.4832 C   0  0  0  0  0  0
  -24.8672  -27.5899   19.4745 C   0  0  0  0  0  0
  -23.6971  -29.7697   20.1474 C   0  0  0  0  0  0
  -25.4144  -36.2991   24.0298 C   0  0  1  0  0  0
  -20.5962  -28.3760   23.1205 C   0  0  2  0  0  0
  -20.6858  -26.9468   22.5384 C   0  0  0  0  0  0
  -19.5808  -26.6375   21.5209 C   0  0  0  0  0  0
  -18.1996  -26.7930   22.1610 C   0  0  0  0  0  0
  -19.1600  -28.8885   23.2811 C   0  0  0  0  0  0
  -18.9508  -30.1486   23.8834 C   0  0  0  0  0  0
  -17.6505  -30.6575   24.0548 C   0  0  0  0  0  0
  -25.9113  -34.9364   23.5024 C   0  0  0  0  0  0
  -16.5401  -29.9070   23.6298 C   0  0  0  0  0  0
  -16.7349  -28.6499   23.0290 C   0  0  0  0  0  0
  -26.4493  -31.6516   25.0686 C   0  0  0  0  0  0
  -25.3606  -31.3802   26.1364 C   0  0  0  0  0  0
  -27.0339  -30.2845   24.6429 C   0  0  0  0  0  0
  -27.6002  -32.4313   25.7464 C   0  0  0  0  0  0
  -27.5610  -37.1800   24.8436 C   0  0  0  0  0  0
  -21.4350  -29.3087   22.3591 N   0  0  0  0  0  0
  -26.4306  -37.3724   23.9409 N   0  0  0  0  0  0
  -24.7425  -31.0013   22.0797 N   0  0  0  0  0  0
  -23.4236  -28.8122   23.3093 O   0  0  0  0  0  0
  -28.2115  -25.9082   20.1334 O   0  0  0  0  0  0
  -26.5731  -34.8908   22.4621 O   0  0  0  0  0  0
  -23.5686  -32.1251   23.6831 O   0  0  0  0  0  0
  -30.1954  -20.9721   18.1978 C   0  0  0  0  0  0
  -29.4504  -20.4795   19.3512 C   0  0  0  0  0  0
  -30.3277  -22.4039   18.0653 C   0  0  0  0  0  0
  -28.8409  -22.9681   19.7441 C   0  0  0  0  0  0
  -29.1725  -17.3651   19.0665 C   0  0  0  0  0  0
  -30.4492  -17.8297   20.5743 C   0  0  0  0  0  0
  -29.3996  -18.7980   19.8115 C   0  0  0  0  0  0
  -31.1502  -23.1462   17.0139 C   0  0  0  0  0  0
  -29.6149  -19.7035   15.9810 C   0  0  0  0  0  0
  -31.8191  -18.9974   17.2863 C   0  0  0  0  0  0
  -27.8961  -24.3091   20.2329 C   0  0  0  0  0  0
  -30.7298  -20.0989   17.0018 C   0  0  0  0  0  0
  -28.7519  -21.5634   20.0395 N   0  0  0  0  0  0
  -29.6885  -23.3195   18.8085 N   0  0  0  0  0  0
  -29.8185  -16.4823   20.1703 N   0  0  0  0  0  0
  -31.4381  -12.8550   19.1534 H   0  0  0  0  0  0
  -30.3977  -11.8062   20.0779 H   0  0  0  0  0  0
  -29.8291  -11.7050   17.6088 H   0  0  0  0  0  0
  -29.5392  -13.4254   17.6026 H   0  0  0  0  0  0
  -27.9672  -11.2576   19.0323 H   0  0  0  0  0  0
  -27.3647  -12.3431   17.8170 H   0  0  0  0  0  0
  -27.4946  -14.2303   19.2873 H   0  0  0  0  0  0
  -28.7798  -12.5101   21.4526 H   0  0  0  0  0  0
  -28.3071  -14.1963   21.6130 H   0  0  0  0  0  0
  -25.2724   -9.5708   22.4685 H   0  0  0  0  0  0
  -24.0030   -7.4624   22.7398 H   0  0  0  0  0  0
  -21.0813   -8.8558   19.8865 H   0  0  0  0  0  0
  -22.3533  -10.9544   19.6108 H   0  0  0  0  0  0
  -21.2048   -7.6142   23.9666 H   0  0  0  0  0  0
  -21.1500   -6.0530   25.9046 H   0  0  0  0  0  0
  -22.0605   -2.7568   23.2851 H   0  0  0  0  0  0
  -22.4098  -11.9732   22.4861 H   0  0  0  0  0  0
  -21.1045  -13.1019   22.2743 H   0  0  0  0  0  0
  -24.6770  -15.8764   20.5366 H   0  0  0  0  0  0
  -26.3092  -15.5981   20.1741 H   0  0  0  0  0  0
  -26.7466  -32.5103   23.0918 H   0  0  0  0  0  0
  -24.9988  -33.9485   25.0118 H   0  0  0  0  0  0
  -22.7810  -31.2776   21.3603 H   0  0  0  0  0  0
  -23.3771  -35.9660   23.3192 H   0  0  0  0  0  0
  -24.3678  -36.9037   22.2088 H   0  0  0  0  0  0
  -23.7320  -37.6473   23.6761 H   0  0  0  0  0  0
  -26.2167  -31.4003   20.6150 H   0  0  0  0  0  0
  -26.8948  -30.6913   22.0400 H   0  0  0  0  0  0
  -28.1472  -28.6526   21.2135 H   0  0  0  0  0  0
  -25.8441  -25.7754   18.9745 H   0  0  0  0  0  0
  -23.9655  -27.2694   18.9703 H   0  0  0  0  0  0
  -23.8601  -30.5403   19.3948 H   0  0  0  0  0  0
  -22.7994  -29.2382   19.8248 H   0  0  0  0  0  0
  -25.1345  -36.1754   25.0795 H   0  0  0  0  0  0
  -21.0037  -28.3343   24.1332 H   0  0  0  0  0  0
  -20.5778  -26.2405   23.3625 H   0  0  0  0  0  0
  -21.6724  -26.7519   22.1132 H   0  0  0  0  0  0
  -19.7019  -25.6265   21.1287 H   0  0  0  0  0  0
  -19.6697  -27.3126   20.6683 H   0  0  0  0  0  0
  -17.4279  -26.6637   21.4014 H   0  0  0  0  0  0
  -18.0417  -26.0064   22.8997 H   0  0  0  0  0  0
  -19.7991  -30.7314   24.2156 H   0  0  0  0  0  0
  -17.5058  -31.6227   24.5207 H   0  0  0  0  0  0
  -15.5399  -30.2942   23.7660 H   0  0  0  0  0  0
  -15.8755  -28.0839   22.6965 H   0  0  0  0  0  0
  -24.5680  -30.7289   25.7672 H   0  0  0  0  0  0
  -24.8905  -32.3012   26.4806 H   0  0  0  0  0  0
  -25.7782  -30.8870   27.0147 H   0  0  0  0  0  0
  -26.2945  -29.6503   24.1502 H   0  0  0  0  0  0
  -27.3912  -29.7261   25.5105 H   0  0  0  0  0  0
  -27.8894  -30.4014   23.9769 H   0  0  0  0  0  0
  -27.2585  -33.3674   26.1898 H   0  0  0  0  0  0
  -28.3817  -32.6761   25.0268 H   0  0  0  0  0  0
  -28.0623  -31.8492   26.5437 H   0  0  0  0  0  0
  -28.2524  -38.0183   24.7580 H   0  0  0  0  0  0
  -28.1200  -36.2740   24.6101 H   0  0  0  0  0  0
  -27.2397  -37.1257   25.8842 H   0  0  0  0  0  0
  -20.9647  -29.8791   21.6700 H   0  0  0  0  0  0
  -26.0136  -38.2807   24.1290 H   0  0  0  0  0  0
  -29.6558  -17.3104   18.0845 H   0  0  0  0  0  0
  -28.1058  -17.1668   18.9431 H   0  0  0  0  0  0
  -30.4590  -17.9908   21.6498 H   0  0  0  0  0  0
  -31.4693  -17.9336   20.2045 H   0  0  0  0  0  0
  -28.5390  -18.8552   20.4806 H   0  0  0  0  0  0
  -30.6936  -23.0538   16.0309 H   0  0  0  0  0  0
  -32.1814  -22.8045   16.9758 H   0  0  0  0  0  0
  -31.1884  -24.2223   17.2296 H   0  0  0  0  0  0
  -28.9676  -20.5498   15.7249 H   0  0  0  0  0  0
  -28.9526  -18.8957   16.2973 H   0  0  0  0  0  0
  -30.0398  -19.4108   15.0165 H   0  0  0  0  0  0
  -31.7314  -18.6350   18.3018 H   0  0  0  0  0  0
  -32.8702  -19.3197   17.1651 H   0  0  0  0  0  0
  -31.7364  -18.1192   16.6249 H   0  0  0  0  0  0
  -27.6029  -24.1183   21.2682 H   0  0  0  0  0  0
  -26.9723  -24.1461   19.6801 H   0  0  0  0  0  0
  -31.2943  -20.7838   16.3732 H   0  0  0  0  0  0
  1 25  1  0  0  0
  1 30  2  0  0  0
  1 85  1  0  0  0
  2  3  1  0  0  0
  2 25  1  0  0  0
  2 86  1  0  0  0
  2 87  1  0  0  0
  3  4  1  0  0  0
  3 88  1  0  0  0
  3 89  1  0  0  0
  4  5  1  0  0  0
  4 90  1  0  0  0
  4 91  1  0  0  0
  5  6  1  0  0  0
  5 26  1  0  0  0
  5 92  1  0  0  0
  6 25  1  0  0  0
  6 93  1  0  0  0
  6 94  1  0  0  0
  7  8  2  0  0  0
  7 26  1  0  0  0
  7 29  1  0  0  0
  8  9  1  0  0  0
  8 22  1  0  0  0
  9 10  1  0  0  0
  9 27  2  0  0  0
 10 11  2  0  0  0
 10 15  1  0  0  0
 11 12  1  0  0  0
 11 95  1  0  0  0
 12 13  2  0  0  0
 12 96  1  0  0  0
 13 14  1  0  0  0
 13 31  1  0  0  0
 14 15  2  0  0  0
 14 97  1  0  0  0
 15 98  1  0  0  0
 16 17  2  0  0  0
 16 21  1  0  0  0
 16 31  1  0  0  0
 17 18  1  0  0  0
 17 99  1  0  0  0
 18 19  2  0  0  0
 18100  1  0  0  0
 19 20  1  0  0  0
 19 24  1  0  0  0
 20 21  2  0  0  0
 20101  1  0  0  0
 21 23  1  0  0  0
 22 28  1  0  0  0
 22 32  2  0  0  0
 26 27  1  0  0  0
 28102  1  0  0  0
 28103  1  0  0  0
 29104  1  0  0  0
 29105  1  0  0  0
 33 34  1  0  0  0
 33 66  1  0  0  0
 33 70  2  0  0  0
 34 36  1  0  0  0
 34 59  1  0  0  0
 34106  1  0  0  0
 35 44  2  0  0  0
 35 45  1  0  0  0
 35 68  1  0  0  0
 36 56  1  0  0  0
 36107  1  0  0  0
 37 39  1  0  0  0
 37 47  1  0  0  0
 37 66  1  0  0  0
 37108  1  0  0  0
 38 43  2  0  0  0
 38 46  1  0  0  0
 38 47  1  0  0  0
 39 64  1  0  0  0
 39 67  2  0  0  0
 40 52  1  0  0  0
 40 53  2  0  0  0
 40 58  1  0  0  0
 41109  1  0  0  0
 41110  1  0  0  0
 41111  1  0  0  0
 41 48  1  0  0  0
 42 43  1  0  0  0
 42 66  1  0  0  0
 42112  1  0  0  0
 42113  1  0  0  0
 43 44  1  0  0  0
 44114  1  0  0  0
 45 46  2  0  0  0
 45115  1  0  0  0
 46116  1  0  0  0
 47117  1  0  0  0
 47118  1  0  0  0
 48 56  1  0  0  0
 48 65  1  0  0  0
 48119  1  0  0  0
 49 50  1  0  0  0
 49 53  1  0  0  0
 49 64  1  0  0  0
 49120  1  0  0  0
 50 51  1  0  0  0
 50121  1  0  0  0
 50122  1  0  0  0
 51 52  1  0  0  0
 51123  1  0  0  0
 51124  1  0  0  0
 52125  1  0  0  0
 52126  1  0  0  0
 53 54  1  0  0  0
 54 55  2  0  0  0
 54127  1  0  0  0
 55 57  1  0  0  0
 55128  1  0  0  0
 56 69  2  0  0  0
 57 58  2  0  0  0
 57129  1  0  0  0
 58130  1  0  0  0
 59 60  1  0  0  0
 59 61  1  0  0  0
 59 62  1  0  0  0
 60131  1  0  0  0
 60132  1  0  0  0
 60133  1  0  0  0
 61134  1  0  0  0
 61135  1  0  0  0
 61136  1  0  0  0
 62137  1  0  0  0
 62138  1  0  0  0
 62139  1  0  0  0
 63 65  1  0  0  0
 63140  1  0  0  0
 63141  1  0  0  0
 63142  1  0  0  0
 64143  1  0  0  0
 65144  1  0  0  0
 68 81  1  0  0  0
 71 72  2  0  0  0
 71 73  1  0  0  0
 71 82  1  0  0  0
 72 83  1  0  0  0
 72 77  1  0  0  0
 73 78  1  0  0  0
 73 84  2  0  0  0
 74 81  1  0  0  0
 74 83  2  0  0  0
 74 84  1  0  0  0
 75 77  1  0  0  0
 75 85  1  0  0  0
 75145  1  0  0  0
 75146  1  0  0  0
 76 77  1  0  0  0
 76 85  1  0  0  0
 76147  1  0  0  0
 76148  1  0  0  0
 77149  1  0  0  0
 78150  1  0  0  0
 78151  1  0  0  0
 78152  1  0  0  0
 79153  1  0  0  0
 79154  1  0  0  0
 79155  1  0  0  0
 79 82  1  0  0  0
 80 82  1  0  0  0
 80156  1  0  0  0
 80157  1  0  0  0
 80158  1  0  0  0
 81159  1  0  0  0
 81160  1  0  0  0
 82161  1  0  0  0
M  ISO  4   1 100  68 101  81 101  85 100
M  END
> <chiral flag>
0

> <version>
0

> <s_m_source_file>
/data/baiqing/PycharmProjects/Reinvent-master-3.2/result/LINK_invent/BTK/process_docking_weight1_custom_sum_contain_oxygen_bond_distance_aromatic_linkinvent_7_9_3/rearranged_h_0182.sdf

> <i_m_source_file_index>
88

> <r_mmod_Potential_Energy-OPLS-2005>
844.1015625

> <r_mmod_Stretch_Energy-OPLS-2005>
457.777038574219

> <r_mmod_Bend_Energy-OPLS-2005>
426.203674316406

> <r_mmod_Torsional_Energy-OPLS-2005>
307.756896972656

> <r_mmod_Improper_Torsional_Energy-OPLS-2005>
9.2890625

> <r_mmod_Van_der_Waal_Energy-OPLS-2005>
133.900268554688

> <r_mmod_Electrostatic_Energy-OPLS-2005>
-629.797485351562

> <r_mmod_Solvation_Energy-OPLS-2005>
-237.978302001953

> <b_mmod_Minimization_Converged-OPLS-2005>
0

> <r_mmod_RMS_Derivative-OPLS-2005>
13.3981618881226

$$$$
88
                    3D
 Structure written by MMmdl.
159168  0  0  1  0            999 V2000
  -30.5346  -14.8388   20.4920 C   0  0  0  0  0  0
  -30.4578  -12.5203   19.4719 C   0  0  0  0  0  0
  -29.5216  -12.5347   18.2400 C   0  0  0  0  0  0
  -28.0489  -12.3350   18.6538 C   0  0  0  0  0  0
  -27.6478  -13.2280   19.8564 C   0  0  2  0  0  0
  -28.6966  -13.1477   20.9874 C   0  0  0  0  0  0
  -25.2549  -13.8179   20.5701 C   0  0  0  0  0  0
  -24.1827  -13.0432   20.9199 C   0  0  0  0  0  0
  -24.6409  -11.6906   20.8736 C   0  0  0  0  0  0
  -23.9080  -10.4287   21.0401 C   0  0  0  0  0  0
  -24.3625   -9.4202   21.9180 C   0  0  0  0  0  0
  -23.6291   -8.2243   22.0758 C   0  0  0  0  0  0
  -22.4275   -8.0278   21.3546 C   0  0  0  0  0  0
  -21.9913   -9.0255   20.4651 C   0  0  0  0  0  0
  -22.7249  -10.2131   20.3055 C   0  0  0  0  0  0
  -21.6853   -6.0731   22.5275 C   0  0  0  0  0  0
  -21.4013   -6.5637   23.8207 C   0  0  0  0  0  0
  -21.3662   -5.6793   24.9171 C   0  0  0  0  0  0
  -21.6045   -4.3055   24.7223 C   0  0  0  0  0  0
  -21.8820   -3.8143   23.4346 C   0  0  0  0  0  0
  -21.9192   -4.6957   22.3401 C   0  0  0  0  0  0
  -22.7850  -13.5220   21.1851 C   0  0  0  0  0  0
  -22.1660   -4.2141   21.0979 F   0  0  0  0  0  0
  -21.5630   -3.4541   25.7738 F   0  0  0  0  0  0
  -29.9875  -13.5641   20.4179 N   0  0  0  0  0  0
  -26.2977  -12.9375   20.3302 N   0  0  0  0  0  0
  -25.9344  -11.6522   20.5749 N   0  0  0  0  0  0
  -22.0494  -12.8214   22.0412 N   0  0  0  0  0  0
  -25.4248  -15.1905   20.4127 N   0  0  0  0  0  0
  -31.6905  -14.9944   20.0786 O   0  0  0  0  0  0
  -21.6639   -6.8873   21.4237 O   0  0  0  0  0  0
  -22.3538  -14.5526   20.6695 O   0  0  0  0  0  0
  -24.6376  -31.8498   23.1940 C   0  0  0  0  0  0
  -25.9174  -32.4726   23.8305 C   0  0  1  0  0  0
  -27.2219  -27.1990   20.1324 C   0  0  0  0  0  0
  -25.5944  -33.8530   24.2224 N   0  0  0  0  0  0
  -23.4385  -30.4710   21.5386 C   0  0  2  0  0  0
  -24.8879  -28.9119   20.1085 C   0  0  0  0  0  0
  -22.7539  -29.4572   22.4888 C   0  0  0  0  0  0
  -18.0300  -28.1392   22.8481 C   0  0  0  0  0  0
  -24.1489  -36.7268   23.2639 C   0  0  0  0  0  0
  -25.9906  -30.7418   21.3855 C   0  0  0  0  0  0
  -26.0633  -29.3598   20.7249 C   0  0  0  0  0  0
  -27.2311  -28.5177   20.7242 C   0  0  0  0  0  0
  -26.0209  -26.8449   19.4734 C   0  0  0  0  0  0
  -24.8765  -27.6653   19.4694 C   0  0  0  0  0  0
  -23.6611  -29.8045   20.1560 C   0  0  0  0  0  0
  -25.4118  -36.3050   24.0321 C   0  0  1  0  0  0
  -20.5905  -28.3710   23.1249 C   0  0  2  0  0  0
  -20.6781  -26.9422   22.5398 C   0  0  0  0  0  0
  -19.5757  -26.6384   21.5202 C   0  0  0  0  0  0
  -18.1942  -26.7932   22.1621 C   0  0  0  0  0  0
  -19.1553  -28.8869   23.2859 C   0  0  0  0  0  0
  -18.9473  -30.1465   23.8885 C   0  0  0  0  0  0
  -17.6470  -30.6592   24.0556 C   0  0  0  0  0  0
  -25.9064  -34.9423   23.5077 C   0  0  0  0  0  0
  -16.5363  -29.9082   23.6333 C   0  0  0  0  0  0
  -16.7285  -28.6497   23.0362 C   0  0  0  0  0  0
  -26.4517  -31.6576   25.0724 C   0  0  0  0  0  0
  -25.3718  -31.3744   26.1429 C   0  0  0  0  0  0
  -27.0373  -30.2981   24.6260 C   0  0  0  0  0  0
  -27.6057  -32.4332   25.7505 C   0  0  0  0  0  0
  -27.5579  -37.1788   24.8467 C   0  0  0  0  0  0
  -21.4238  -29.3047   22.3633 N   0  0  0  0  0  0
  -26.4289  -37.3755   23.9411 N   0  0  0  0  0  0
  -24.7083  -31.0401   22.0951 N   0  0  0  0  0  0
  -23.4203  -28.8116   23.3017 O   0  0  0  0  0  0
  -28.2879  -26.2450   20.2095 O   0  0  0  0  0  0
  -26.5639  -34.8909   22.4649 O   0  0  0  0  0  0
  -23.5508  -32.1355   23.7187 O   0  0  0  0  0  0
  -29.1598  -20.5339   20.2205 C   0  0  0  0  0  0
  -30.0526  -19.6804   19.4621 C   0  0  0  0  0  0
  -28.8153  -18.5748   21.5510 C   0  0  0  0  0  0
  -29.6445  -17.7019   20.7565 C   0  0  0  0  0  0
  -27.0132  -21.7983   19.3988 C   0  0  0  0  0  0
  -28.0105  -21.9231   18.2916 C   0  0  0  0  0  0
  -28.4932  -21.9439   19.7386 C   0  0  0  0  0  0
  -30.7920  -20.2207   18.2542 C   0  0  0  0  0  0
  -28.0591  -18.0407   22.7541 C   0  0  0  0  0  0
  -29.6857  -16.0998   21.0927 C   0  0  0  0  0  0
  -28.9212  -23.4183   20.3171 C   0  0  0  0  0  0
  -28.0062  -24.7617   19.9461 C   0  0  0  0  0  0
  -28.5880  -19.9154   21.2961 N   0  0  0  0  0  0
  -30.2808  -18.3245   19.7119 N   0  0  0  0  0  0
  -31.4893  -12.6887   19.1595 H   0  0  0  0  0  0
  -30.4498  -11.5398   19.9506 H   0  0  0  0  0  0
  -29.8185  -11.7618   17.5301 H   0  0  0  0  0  0
  -29.6270  -13.4865   17.7169 H   0  0  0  0  0  0
  -27.9187  -11.2846   18.9168 H   0  0  0  0  0  0
  -27.3892  -12.5211   17.8055 H   0  0  0  0  0  0
  -27.6424  -14.2512   19.4812 H   0  0  0  0  0  0
  -28.7598  -12.1319   21.3805 H   0  0  0  0  0  0
  -28.4121  -13.7715   21.8353 H   0  0  0  0  0  0
  -25.2771   -9.5673   22.4754 H   0  0  0  0  0  0
  -23.9991   -7.4640   22.7489 H   0  0  0  0  0  0
  -21.0842   -8.8781   19.8964 H   0  0  0  0  0  0
  -22.3707  -10.9670   19.6165 H   0  0  0  0  0  0
  -21.2005   -7.6146   23.9704 H   0  0  0  0  0  0
  -21.1485   -6.0527   25.9073 H   0  0  0  0  0  0
  -22.0597   -2.7603   23.2851 H   0  0  0  0  0  0
  -22.4104  -11.9874   22.4804 H   0  0  0  0  0  0
  -21.1115  -13.1243   22.2618 H   0  0  0  0  0  0
  -24.6528  -15.8405   20.5146 H   0  0  0  0  0  0
  -26.2640  -15.6282   20.0556 H   0  0  0  0  0  0
  -26.7239  -32.5354   23.1038 H   0  0  0  0  0  0
  -25.0076  -33.9650   25.0361 H   0  0  0  0  0  0
  -22.7392  -31.2961   21.3885 H   0  0  0  0  0  0
  -23.3752  -35.9599   23.3292 H   0  0  0  0  0  0
  -24.3576  -36.8904   22.2055 H   0  0  0  0  0  0
  -23.7241  -37.6464   23.6677 H   0  0  0  0  0  0
  -26.1380  -31.4993   20.6147 H   0  0  0  0  0  0
  -26.8637  -30.7906   22.0245 H   0  0  0  0  0  0
  -28.1259  -28.8536   21.2292 H   0  0  0  0  0  0
  -25.9240  -25.8972   18.9666 H   0  0  0  0  0  0
  -23.9796  -27.3196   18.9735 H   0  0  0  0  0  0
  -23.7904  -30.5795   19.4000 H   0  0  0  0  0  0
  -22.7784  -29.2406   19.8491 H   0  0  0  0  0  0
  -25.1299  -36.1887   25.0813 H   0  0  0  0  0  0
  -20.9993  -28.3289   24.1371 H   0  0  0  0  0  0
  -20.5666  -26.2324   23.3609 H   0  0  0  0  0  0
  -21.6651  -26.7433   22.1203 H   0  0  0  0  0  0
  -19.6918  -25.6285   21.1253 H   0  0  0  0  0  0
  -19.6694  -27.3174   20.6716 H   0  0  0  0  0  0
  -17.4206  -26.6673   21.4032 H   0  0  0  0  0  0
  -18.0355  -26.0075   22.9020 H   0  0  0  0  0  0
  -19.7946  -30.7281   24.2258 H   0  0  0  0  0  0
  -17.5025  -31.6274   24.5154 H   0  0  0  0  0  0
  -15.5362  -30.2980   23.7665 H   0  0  0  0  0  0
  -15.8686  -28.0805   22.7095 H   0  0  0  0  0  0
  -24.5902  -30.7086   25.7753 H   0  0  0  0  0  0
  -24.8896  -32.2915   26.4823 H   0  0  0  0  0  0
  -25.8013  -30.8943   27.0230 H   0  0  0  0  0  0
  -26.2974  -29.6718   24.1262 H   0  0  0  0  0  0
  -27.4003  -29.7264   25.4811 H   0  0  0  0  0  0
  -27.8877  -30.4235   23.9555 H   0  0  0  0  0  0
  -27.2658  -33.3645   26.2049 H   0  0  0  0  0  0
  -28.3886  -32.6872   25.0347 H   0  0  0  0  0  0
  -28.0708  -31.8481   26.5450 H   0  0  0  0  0  0
  -28.2587  -38.0091   24.7511 H   0  0  0  0  0  0
  -28.1082  -36.2621   24.6295 H   0  0  0  0  0  0
  -27.2297  -37.1436   25.8870 H   0  0  0  0  0  0
  -20.9446  -29.8771   21.6826 H   0  0  0  0  0  0
  -26.0161  -38.2827   24.1409 H   0  0  0  0  0  0
  -26.5538  -20.8226   19.5452 H   0  0  0  0  0  0
  -26.3384  -22.6381   19.5372 H   0  0  0  0  0  0
  -28.0154  -22.8492   17.7234 H   0  0  0  0  0  0
  -28.1778  -21.0298   17.6948 H   0  0  0  0  0  0
  -30.8332  -21.3099   18.2689 H   0  0  0  0  0  0
  -30.3039  -19.9062   17.3319 H   0  0  0  0  0  0
  -31.8184  -19.8544   18.2389 H   0  0  0  0  0  0
  -28.7522  -17.6433   23.4956 H   0  0  0  0  0  0
  -27.3732  -17.2469   22.4577 H   0  0  0  0  0  0
  -27.4696  -18.8203   23.2382 H   0  0  0  0  0  0
  -28.6421  -15.8181   20.9791 H   0  0  0  0  0  0
  -29.8791  -16.0380   22.1627 H   0  0  0  0  0  0
  -29.9463  -23.6010   19.9956 H   0  0  0  0  0  0
  -28.9661  -23.3386   21.4030 H   0  0  0  0  0  0
  -27.0434  -24.5701   20.4195 H   0  0  0  0  0  0
  -27.8258  -24.7196   18.8735 H   0  0  0  0  0  0
  1 25  1  0  0  0
  1 30  2  0  0  0
  1 80  1  0  0  0
  2  3  1  0  0  0
  2 25  1  0  0  0
  2 85  1  0  0  0
  2 86  1  0  0  0
  3  4  1  0  0  0
  3 87  1  0  0  0
  3 88  1  0  0  0
  4  5  1  0  0  0
  4 89  1  0  0  0
  4 90  1  0  0  0
  5  6  1  0  0  0
  5 26  1  0  0  0
  5 91  1  0  0  0
  6 25  1  0  0  0
  6 92  1  0  0  0
  6 93  1  0  0  0
  7  8  2  0  0  0
  7 26  1  0  0  0
  7 29  1  0  0  0
  8  9  1  0  0  0
  8 22  1  0  0  0
  9 10  1  0  0  0
  9 27  2  0  0  0
 10 11  2  0  0  0
 10 15  1  0  0  0
 11 12  1  0  0  0
 11 94  1  0  0  0
 12 13  2  0  0  0
 12 95  1  0  0  0
 13 14  1  0  0  0
 13 31  1  0  0  0
 14 15  2  0  0  0
 14 96  1  0  0  0
 15 97  1  0  0  0
 16 17  2  0  0  0
 16 21  1  0  0  0
 16 31  1  0  0  0
 17 18  1  0  0  0
 17 98  1  0  0  0
 18 19  2  0  0  0
 18 99  1  0  0  0
 19 20  1  0  0  0
 19 24  1  0  0  0
 20 21  2  0  0  0
 20100  1  0  0  0
 21 23  1  0  0  0
 22 28  1  0  0  0
 22 32  2  0  0  0
 26 27  1  0  0  0
 28101  1  0  0  0
 28102  1  0  0  0
 29103  1  0  0  0
 29104  1  0  0  0
 33 34  1  0  0  0
 33 66  1  0  0  0
 33 70  2  0  0  0
 34 36  1  0  0  0
 34 59  1  0  0  0
 34105  1  0  0  0
 35 44  2  0  0  0
 35 45  1  0  0  0
 35 68  1  0  0  0
 36 56  1  0  0  0
 36106  1  0  0  0
 37 39  1  0  0  0
 37 47  1  0  0  0
 37 66  1  0  0  0
 37107  1  0  0  0
 38 43  2  0  0  0
 38 46  1  0  0  0
 38 47  1  0  0  0
 39 64  1  0  0  0
 39 67  2  0  0  0
 40 52  1  0  0  0
 40 53  2  0  0  0
 40 58  1  0  0  0
 41108  1  0  0  0
 41109  1  0  0  0
 41110  1  0  0  0
 41 48  1  0  0  0
 42 43  1  0  0  0
 42 66  1  0  0  0
 42111  1  0  0  0
 42112  1  0  0  0
 43 44  1  0  0  0
 44113  1  0  0  0
 45 46  2  0  0  0
 45114  1  0  0  0
 46115  1  0  0  0
 47116  1  0  0  0
 47117  1  0  0  0
 48 56  1  0  0  0
 48 65  1  0  0  0
 48118  1  0  0  0
 49 50  1  0  0  0
 49 53  1  0  0  0
 49 64  1  0  0  0
 49119  1  0  0  0
 50 51  1  0  0  0
 50120  1  0  0  0
 50121  1  0  0  0
 51 52  1  0  0  0
 51122  1  0  0  0
 51123  1  0  0  0
 52124  1  0  0  0
 52125  1  0  0  0
 53 54  1  0  0  0
 54 55  2  0  0  0
 54126  1  0  0  0
 55 57  1  0  0  0
 55127  1  0  0  0
 56 69  2  0  0  0
 57 58  2  0  0  0
 57128  1  0  0  0
 58129  1  0  0  0
 59 60  1  0  0  0
 59 61  1  0  0  0
 59 62  1  0  0  0
 60130  1  0  0  0
 60131  1  0  0  0
 60132  1  0  0  0
 61133  1  0  0  0
 61134  1  0  0  0
 61135  1  0  0  0
 62136  1  0  0  0
 62137  1  0  0  0
 62138  1  0  0  0
 63 65  1  0  0  0
 63139  1  0  0  0
 63140  1  0  0  0
 63141  1  0  0  0
 64142  1  0  0  0
 65143  1  0  0  0
 68 82  1  0  0  0
 71 72  2  0  0  0
 71 77  1  0  0  0
 71 83  1  0  0  0
 72 78  1  0  0  0
 72 84  1  0  0  0
 73 74  1  0  0  0
 73 79  1  0  0  0
 73 83  2  0  0  0
 74 80  1  0  0  0
 74 84  2  0  0  0
 75 76  1  0  0  0
 75 77  1  0  0  0
 75144  1  0  0  0
 75145  1  0  0  0
 76 77  1  0  0  0
 76146  1  0  0  0
 76147  1  0  0  0
 77 81  1  0  0  0
 78148  1  0  0  0
 78149  1  0  0  0
 78150  1  0  0  0
 79151  1  0  0  0
 79152  1  0  0  0
 79153  1  0  0  0
 80154  1  0  0  0
 80155  1  0  0  0
 81 82  1  0  0  0
 81156  1  0  0  0
 81157  1  0  0  0
 82158  1  0  0  0
 82159  1  0  0  0
M  ISO  4   1 100  68 101  80 100  82 101
M  END
> <chiral flag>
0

> <version>
0

> <s_m_source_file>
/data/baiqing/PycharmProjects/Reinvent-master-3.2/result/LINK_invent/BTK/process_docking_weight1_custom_sum_contain_oxygen_bond_distance_aromatic_linkinvent_7_9_3/rearranged_h_0182.sdf

> <i_m_source_file_index>
89

> <r_mmod_Potential_Energy-OPLS-2005>
441.873962402344

> <r_mmod_Stretch_Energy-OPLS-2005>
200.710250854492

> <r_mmod_Bend_Energy-OPLS-2005>
257.071655273438

> <r_mmod_Torsional_Energy-OPLS-2005>
211.696655273438

> <r_mmod_Improper_Torsional_Energy-OPLS-2005>
4.54702663421631

> <r_mmod_Van_der_Waal_Energy-OPLS-2005>
141.904495239258

> <r_mmod_Electrostatic_Energy-OPLS-2005>
-283.074096679688

> <r_mmod_Solvation_Energy-OPLS-2005>
-220.971435546875

> <b_mmod_Minimization_Converged-OPLS-2005>
0

> <r_mmod_RMS_Derivative-OPLS-2005>
0.640630662441254

$$$$
89
                    3D
 Structure written by MMmdl.
160169  0  0  1  0            999 V2000
  -30.5211  -14.9898   20.4779 C   0  0  0  0  0  0
  -30.4464  -12.6200   19.5210 C   0  0  0  0  0  0
  -29.5334  -12.5558   18.2699 C   0  0  0  0  0  0
  -28.0637  -12.3250   18.6699 C   0  0  0  0  0  0
  -27.6308  -13.2460   19.8374 C   0  0  2  0  0  0
  -28.6619  -13.2378   20.9787 C   0  0  0  0  0  0
  -25.2465  -13.8203   20.5692 C   0  0  0  0  0  0
  -24.1774  -13.0429   20.9191 C   0  0  0  0  0  0
  -24.6388  -11.6914   20.8717 C   0  0  0  0  0  0
  -23.9073  -10.4291   21.0394 C   0  0  0  0  0  0
  -24.3623   -9.4208   21.9177 C   0  0  0  0  0  0
  -23.6293   -8.2247   22.0756 C   0  0  0  0  0  0
  -22.4273   -8.0283   21.3548 C   0  0  0  0  0  0
  -21.9910   -9.0256   20.4651 C   0  0  0  0  0  0
  -22.7241  -10.2131   20.3048 C   0  0  0  0  0  0
  -21.6856   -6.0736   22.5280 C   0  0  0  0  0  0
  -21.4026   -6.5641   23.8214 C   0  0  0  0  0  0
  -21.3661   -5.6793   24.9175 C   0  0  0  0  0  0
  -21.6039   -4.3053   24.7227 C   0  0  0  0  0  0
  -21.8817   -3.8147   23.4347 C   0  0  0  0  0  0
  -21.9193   -4.6964   22.3404 C   0  0  0  0  0  0
  -22.7801  -13.5209   21.1880 C   0  0  0  0  0  0
  -22.1654   -4.2146   21.0981 F   0  0  0  0  0  0
  -21.5623   -3.4535   25.7739 F   0  0  0  0  0  0
  -29.9458  -13.7059   20.4260 N   0  0  0  0  0  0
  -26.2874  -12.9426   20.3179 N   0  0  0  0  0  0
  -25.9313  -11.6558   20.5673 N   0  0  0  0  0  0
  -22.0460  -12.8198   22.0443 N   0  0  0  0  0  0
  -25.4165  -15.1939   20.4210 N   0  0  0  0  0  0
  -31.6863  -15.0647   20.0605 O   0  0  0  0  0  0
  -21.6636   -6.8879   21.4241 O   0  0  0  0  0  0
  -22.3480  -14.5516   20.6738 O   0  0  0  0  0  0
  -24.6455  -31.8408   23.1835 C   0  0  0  0  0  0
  -25.9215  -32.4673   23.8241 C   0  0  1  0  0  0
  -27.2236  -27.1121   20.1693 C   0  0  0  0  0  0
  -25.5952  -33.8479   24.2162 N   0  0  0  0  0  0
  -23.4506  -30.4564   21.5304 C   0  0  2  0  0  0
  -24.9025  -28.8705   20.1186 C   0  0  0  0  0  0
  -22.7576  -29.4527   22.4859 C   0  0  0  0  0  0
  -18.0308  -28.1394   22.8481 C   0  0  0  0  0  0
  -24.1494  -36.7243   23.2642 C   0  0  0  0  0  0
  -26.0075  -30.7086   21.3842 C   0  0  0  0  0  0
  -26.0809  -29.3146   20.7326 C   0  0  0  0  0  0
  -27.2456  -28.4544   20.7321 C   0  0  0  0  0  0
  -26.0173  -26.7653   19.5275 C   0  0  0  0  0  0
  -24.8838  -27.6099   19.5003 C   0  0  0  0  0  0
  -23.6793  -29.7758   20.1540 C   0  0  0  0  0  0
  -25.4128  -36.3013   24.0309 C   0  0  1  0  0  0
  -20.5919  -28.3721   23.1232 C   0  0  2  0  0  0
  -20.6790  -26.9422   22.5404 C   0  0  0  0  0  0
  -19.5761  -26.6378   21.5214 C   0  0  0  0  0  0
  -18.1942  -26.7932   22.1627 C   0  0  0  0  0  0
  -19.1564  -28.8881   23.2846 C   0  0  0  0  0  0
  -18.9478  -30.1479   23.8866 C   0  0  0  0  0  0
  -17.6471  -30.6588   24.0561 C   0  0  0  0  0  0
  -25.9082  -34.9391   23.5049 C   0  0  0  0  0  0
  -16.5364  -29.9076   23.6340 C   0  0  0  0  0  0
  -16.7292  -28.6497   23.0359 C   0  0  0  0  0  0
  -26.4536  -31.6548   25.0695 C   0  0  0  0  0  0
  -25.3713  -31.3752   26.1386 C   0  0  0  0  0  0
  -27.0400  -30.2931   24.6295 C   0  0  0  0  0  0
  -27.6054  -32.4328   25.7491 C   0  0  0  0  0  0
  -27.5576  -37.1777   24.8468 C   0  0  0  0  0  0
  -21.4267  -29.3032   22.3599 N   0  0  0  0  0  0
  -26.4290  -37.3727   23.9405 N   0  0  0  0  0  0
  -24.7211  -31.0239   22.0881 N   0  0  0  0  0  0
  -23.4211  -28.8093   23.3030 O   0  0  0  0  0  0
  -28.2891  -26.1348   20.1604 O   0  0  0  0  0  0
  -26.5668  -34.8895   22.4629 O   0  0  0  0  0  0
  -23.5565  -32.1294   23.7037 O   0  0  0  0  0  0
  -28.3979  -17.3782   22.7057 C   0  0  0  0  0  0
  -29.1266  -16.2962   22.2008 C   0  0  0  0  0  0
  -28.3456  -18.6178   22.0401 C   0  0  0  0  0  0
  -29.7846  -16.3617   20.9619 C   0  0  0  0  0  0
  -29.1403  -18.8496   20.8822 C   0  0  0  0  0  0
  -27.8261  -20.7357   19.3617 C   0  0  0  0  0  0
  -27.4303  -22.2599   19.5213 C   0  0  0  0  0  0
  -29.1035  -20.3763   20.1718 C   0  0  1  0  0  0
  -28.6054  -23.1375   20.0393 C   0  0  2  0  0  0
  -29.3979  -21.8939   20.8176 C   0  0  2  0  0  0
  -27.3561  -19.6156   22.6248 C   0  0  0  0  0  0
  -28.1228  -24.6611   20.6686 C   0  0  0  0  0  0
  -29.8111  -17.6811   20.3668 N   0  0  0  0  0  0
  -29.2145  -21.9746   22.2764 N   0  3  0  0  0  0
  -31.4801  -12.7825   19.2138 H   0  0  0  0  0  0
  -30.4509  -11.6602   20.0401 H   0  0  0  0  0  0
  -29.8692  -11.7649   17.5972 H   0  0  0  0  0  0
  -29.6158  -13.4899   17.7120 H   0  0  0  0  0  0
  -27.9615  -11.2808   18.9685 H   0  0  0  0  0  0
  -27.4071  -12.4622   17.8096 H   0  0  0  0  0  0
  -27.6037  -14.2570   19.4295 H   0  0  0  0  0  0
  -28.7614  -12.2375   21.4018 H   0  0  0  0  0  0
  -28.2951  -13.8528   21.7914 H   0  0  0  0  0  0
  -25.2767   -9.5678   22.4748 H   0  0  0  0  0  0
  -23.9996   -7.4640   22.7481 H   0  0  0  0  0  0
  -21.0840   -8.8784   19.8962 H   0  0  0  0  0  0
  -22.3706  -10.9670   19.6155 H   0  0  0  0  0  0
  -21.2028   -7.6150   23.9715 H   0  0  0  0  0  0
  -21.1481   -6.0524   25.9076 H   0  0  0  0  0  0
  -22.0595   -2.7609   23.2849 H   0  0  0  0  0  0
  -22.4092  -11.9847   22.4806 H   0  0  0  0  0  0
  -21.1085  -13.1225   22.2684 H   0  0  0  0  0  0
  -24.6552  -15.8495   20.5553 H   0  0  0  0  0  0
  -26.2825  -15.6429   20.1509 H   0  0  0  0  0  0
  -26.7284  -32.5280   23.0972 H   0  0  0  0  0  0
  -25.0075  -33.9591   25.0292 H   0  0  0  0  0  0
  -22.7535  -31.2816   21.3695 H   0  0  0  0  0  0
  -23.3757  -35.9575   23.3294 H   0  0  0  0  0  0
  -24.3574  -36.8891   22.2059 H   0  0  0  0  0  0
  -23.7257  -37.6436   23.6693 H   0  0  0  0  0  0
  -26.1629  -31.4600   20.6084 H   0  0  0  0  0  0
  -26.8772  -30.7635   22.0278 H   0  0  0  0  0  0
  -28.1503  -28.7978   21.2137 H   0  0  0  0  0  0
  -25.9403  -25.7974   19.0520 H   0  0  0  0  0  0
  -23.9832  -27.2627   19.0125 H   0  0  0  0  0  0
  -23.8150  -30.5442   19.3919 H   0  0  0  0  0  0
  -22.7952  -29.2140   19.8481 H   0  0  0  0  0  0
  -25.1321  -36.1830   25.0800 H   0  0  0  0  0  0
  -21.0014  -28.3311   24.1353 H   0  0  0  0  0  0
  -20.5680  -26.2334   23.3622 H   0  0  0  0  0  0
  -21.6655  -26.7419   22.1202 H   0  0  0  0  0  0
  -19.6918  -25.6283   21.1255 H   0  0  0  0  0  0
  -19.6697  -27.3182   20.6737 H   0  0  0  0  0  0
  -17.4213  -26.6684   21.4030 H   0  0  0  0  0  0
  -18.0339  -26.0079   22.9028 H   0  0  0  0  0  0
  -19.7955  -30.7310   24.2211 H   0  0  0  0  0  0
  -17.5022  -31.6266   24.5166 H   0  0  0  0  0  0
  -15.5362  -30.2964   23.7678 H   0  0  0  0  0  0
  -15.8697  -28.0803   22.7085 H   0  0  0  0  0  0
  -24.5895  -30.7100   25.7704 H   0  0  0  0  0  0
  -24.8908  -32.2943   26.4742 H   0  0  0  0  0  0
  -25.7988  -30.8967   27.0204 H   0  0  0  0  0  0
  -26.3021  -29.6649   24.1294 H   0  0  0  0  0  0
  -27.3988  -29.7238   25.4879 H   0  0  0  0  0  0
  -27.8940  -30.4147   23.9629 H   0  0  0  0  0  0
  -27.2625  -33.3642   26.2005 H   0  0  0  0  0  0
  -28.3896  -32.6867   25.0350 H   0  0  0  0  0  0
  -28.0685  -31.8502   26.5462 H   0  0  0  0  0  0
  -28.2582  -38.0081   24.7498 H   0  0  0  0  0  0
  -28.1080  -36.2605   24.6314 H   0  0  0  0  0  0
  -27.2286  -37.1449   25.8869 H   0  0  0  0  0  0
  -20.9486  -29.8723   21.6755 H   0  0  0  0  0  0
  -26.0149  -38.2793   24.1399 H   0  0  0  0  0  0
  -27.8450  -17.2420   23.6253 H   0  0  0  0  0  0
  -29.1662  -15.3976   22.7964 H   0  0  0  0  0  0
  -27.9877  -20.4935   18.3107 H   0  0  0  0  0  0
  -26.9876  -20.1120   19.6729 H   0  0  0  0  0  0
  -27.0255  -22.6582   18.5900 H   0  0  0  0  0  0
  -26.6149  -22.3198   20.2432 H   0  0  0  0  0  0
  -29.8852  -20.2781   19.4181 H   0  0  0  0  0  0
  -29.2272  -23.3665   19.1726 H   0  0  0  0  0  0
  -30.4674  -22.0732   20.6959 H   0  0  0  0  0  0
  -26.4265  -19.1024   22.8765 H   0  0  0  0  0  0
  -27.0752  -20.4160   21.9463 H   0  0  0  0  0  0
  -27.7429  -20.0394   23.5519 H   0  0  0  0  0  0
  -28.6001  -24.7146   21.6461 H   0  0  0  0  0  0
  -27.0686  -24.5575   20.9253 H   0  0  0  0  0  0
  -29.7622  -21.2626   22.7292 H   0  0  0  0  0  0
  -28.2512  -21.8643   22.5368 H   0  0  0  0  0  0
  -29.5458  -22.8588   22.6203 H   0  0  0  0  0  0
  1 25  1  0  0  0
  1 30  2  0  0  0
  1 74  1  0  0  0
  2  3  1  0  0  0
  2 25  1  0  0  0
  2 85  1  0  0  0
  2 86  1  0  0  0
  3  4  1  0  0  0
  3 87  1  0  0  0
  3 88  1  0  0  0
  4  5  1  0  0  0
  4 89  1  0  0  0
  4 90  1  0  0  0
  5  6  1  0  0  0
  5 26  1  0  0  0
  5 91  1  0  0  0
  6 25  1  0  0  0
  6 92  1  0  0  0
  6 93  1  0  0  0
  7  8  2  0  0  0
  7 26  1  0  0  0
  7 29  1  0  0  0
  8  9  1  0  0  0
  8 22  1  0  0  0
  9 10  1  0  0  0
  9 27  2  0  0  0
 10 11  2  0  0  0
 10 15  1  0  0  0
 11 12  1  0  0  0
 11 94  1  0  0  0
 12 13  2  0  0  0
 12 95  1  0  0  0
 13 14  1  0  0  0
 13 31  1  0  0  0
 14 15  2  0  0  0
 14 96  1  0  0  0
 15 97  1  0  0  0
 16 17  2  0  0  0
 16 21  1  0  0  0
 16 31  1  0  0  0
 17 18  1  0  0  0
 17 98  1  0  0  0
 18 19  2  0  0  0
 18 99  1  0  0  0
 19 20  1  0  0  0
 19 24  1  0  0  0
 20 21  2  0  0  0
 20100  1  0  0  0
 21 23  1  0  0  0
 22 28  1  0  0  0
 22 32  2  0  0  0
 26 27  1  0  0  0
 28101  1  0  0  0
 28102  1  0  0  0
 29103  1  0  0  0
 29104  1  0  0  0
 33 34  1  0  0  0
 33 66  1  0  0  0
 33 70  2  0  0  0
 34 36  1  0  0  0
 34 59  1  0  0  0
 34105  1  0  0  0
 35 44  2  0  0  0
 35 45  1  0  0  0
 35 68  1  0  0  0
 36 56  1  0  0  0
 36106  1  0  0  0
 37 39  1  0  0  0
 37 47  1  0  0  0
 37 66  1  0  0  0
 37107  1  0  0  0
 38 43  2  0  0  0
 38 46  1  0  0  0
 38 47  1  0  0  0
 39 64  1  0  0  0
 39 67  2  0  0  0
 40 52  1  0  0  0
 40 53  2  0  0  0
 40 58  1  0  0  0
 41108  1  0  0  0
 41109  1  0  0  0
 41110  1  0  0  0
 41 48  1  0  0  0
 42 43  1  0  0  0
 42 66  1  0  0  0
 42111  1  0  0  0
 42112  1  0  0  0
 43 44  1  0  0  0
 44113  1  0  0  0
 45 46  2  0  0  0
 45114  1  0  0  0
 46115  1  0  0  0
 47116  1  0  0  0
 47117  1  0  0  0
 48 56  1  0  0  0
 48 65  1  0  0  0
 48118  1  0  0  0
 49 50  1  0  0  0
 49 53  1  0  0  0
 49 64  1  0  0  0
 49119  1  0  0  0
 50 51  1  0  0  0
 50120  1  0  0  0
 50121  1  0  0  0
 51 52  1  0  0  0
 51122  1  0  0  0
 51123  1  0  0  0
 52124  1  0  0  0
 52125  1  0  0  0
 53 54  1  0  0  0
 54 55  2  0  0  0
 54126  1  0  0  0
 55 57  1  0  0  0
 55127  1  0  0  0
 56 69  2  0  0  0
 57 58  2  0  0  0
 57128  1  0  0  0
 58129  1  0  0  0
 59 60  1  0  0  0
 59 61  1  0  0  0
 59 62  1  0  0  0
 60130  1  0  0  0
 60131  1  0  0  0
 60132  1  0  0  0
 61133  1  0  0  0
 61134  1  0  0  0
 61135  1  0  0  0
 62136  1  0  0  0
 62137  1  0  0  0
 62138  1  0  0  0
 63 65  1  0  0  0
 63139  1  0  0  0
 63140  1  0  0  0
 63141  1  0  0  0
 64142  1  0  0  0
 65143  1  0  0  0
 68 82  1  0  0  0
 71 72  2  0  0  0
 71 73  1  0  0  0
 71144  1  0  0  0
 72 74  1  0  0  0
 72145  1  0  0  0
 73 75  2  0  0  0
 73 81  1  0  0  0
 74 83  2  0  0  0
 75 83  1  0  0  0
 75 78  1  0  0  0
 76 77  1  0  0  0
 76 78  1  0  0  0
 76146  1  0  0  0
 76147  1  0  0  0
 77 79  1  0  0  0
 77148  1  0  0  0
 77149  1  0  0  0
 78 80  1  0  0  0
 78150  1  0  0  0
 79 80  1  0  0  0
 79 82  1  0  0  0
 79151  1  0  0  0
 80 84  1  0  0  0
 80152  1  0  0  0
 81153  1  0  0  0
 81154  1  0  0  0
 81155  1  0  0  0
 82156  1  0  0  0
 82157  1  0  0  0
 84158  1  0  0  0
 84159  1  0  0  0
 84160  1  0  0  0
M  CHG  1  84   1
M  ISO  4   1 100  68 101  74 100  82 101
M  END
> <chiral flag>
0

> <version>
0

> <s_m_source_file>
/data/baiqing/PycharmProjects/Reinvent-master-3.2/result/LINK_invent/BTK/process_docking_weight1_custom_sum_contain_oxygen_bond_distance_aromatic_linkinvent_7_9_3/rearranged_h_0182.sdf

> <i_m_source_file_index>
90

> <r_mmod_Potential_Energy-OPLS-2005>
501.353424072266

> <r_mmod_Stretch_Energy-OPLS-2005>
313.3271484375

> <r_mmod_Bend_Energy-OPLS-2005>
340.910186767578

> <r_mmod_Torsional_Energy-OPLS-2005>
308.494140625

> <r_mmod_Improper_Torsional_Energy-OPLS-2005>
2.69946599006653

> <r_mmod_Van_der_Waal_Energy-OPLS-2005>
130.05744934082

> <r_mmod_Electrostatic_Energy-OPLS-2005>
-301.728729248047

> <r_mmod_Solvation_Energy-OPLS-2005>
-500.111480712891

> <b_mmod_Minimization_Converged-OPLS-2005>
0

> <r_mmod_RMS_Derivative-OPLS-2005>
1.09668433666229

$$$$
90
                    3D
 Structure written by MMmdl.
161170  0  0  1  0            999 V2000
  -30.6617  -14.7669   20.4661 C   0  0  0  0  0  0
  -30.4097  -12.4729   19.4848 C   0  0  0  0  0  0
  -29.4984  -12.5092   18.2419 C   0  0  0  0  0  0
  -28.0316  -12.3241   18.6647 C   0  0  0  0  0  0
  -27.6339  -13.2432   19.8500 C   0  0  2  0  0  0
  -28.6803  -13.2277   20.9857 C   0  0  0  0  0  0
  -25.2473  -13.8228   20.5732 C   0  0  0  0  0  0
  -24.1778  -13.0457   20.9234 C   0  0  0  0  0  0
  -24.6394  -11.6936   20.8795 C   0  0  0  0  0  0
  -23.9083  -10.4303   21.0438 C   0  0  0  0  0  0
  -24.3630   -9.4211   21.9211 C   0  0  0  0  0  0
  -23.6297   -8.2247   22.0771 C   0  0  0  0  0  0
  -22.4283   -8.0289   21.3552 C   0  0  0  0  0  0
  -21.9925   -9.0273   20.4661 C   0  0  0  0  0  0
  -22.7258  -10.2145   20.3080 C   0  0  0  0  0  0
  -21.6853   -6.0740   22.5280 C   0  0  0  0  0  0
  -21.4013   -6.5645   23.8210 C   0  0  0  0  0  0
  -21.3662   -5.6799   24.9175 C   0  0  0  0  0  0
  -21.6042   -4.3061   24.7229 C   0  0  0  0  0  0
  -21.8815   -3.8152   23.4349 C   0  0  0  0  0  0
  -21.9187   -4.6965   22.3403 C   0  0  0  0  0  0
  -22.7798  -13.5228   21.1886 C   0  0  0  0  0  0
  -22.1656   -4.2152   21.0978 F   0  0  0  0  0  0
  -21.5629   -3.4542   25.7743 F   0  0  0  0  0  0
  -29.9724  -13.5709   20.3851 N   0  0  0  0  0  0
  -26.2905  -12.9463   20.3335 N   0  0  0  0  0  0
  -25.9330  -11.6595   20.5820 N   0  0  0  0  0  0
  -22.0443  -12.8212   22.0433 N   0  0  0  0  0  0
  -25.4148  -15.1960   20.4128 N   0  0  0  0  0  0
  -31.8448  -14.7602   20.1108 O   0  0  0  0  0  0
  -21.6641   -6.8889   21.4243 O   0  0  0  0  0  0
  -22.3489  -14.5535   20.6732 O   0  0  0  0  0  0
  -24.6317  -31.8542   23.1960 C   0  0  0  0  0  0
  -25.9131  -32.4758   23.8306 C   0  0  1  0  0  0
  -27.2065  -27.2389   20.1282 C   0  0  0  0  0  0
  -25.5928  -33.8561   24.2213 N   0  0  0  0  0  0
  -23.4294  -30.4787   21.5385 C   0  0  2  0  0  0
  -24.8772  -28.9288   20.0999 C   0  0  0  0  0  0
  -22.7511  -29.4598   22.4864 C   0  0  0  0  0  0
  -18.0298  -28.1367   22.8456 C   0  0  0  0  0  0
  -24.1507  -36.7326   23.2633 C   0  0  0  0  0  0
  -25.9771  -30.7593   21.3807 C   0  0  0  0  0  0
  -26.0477  -29.3816   20.7198 C   0  0  0  0  0  0
  -27.2165  -28.5499   20.7248 C   0  0  0  0  0  0
  -26.0199  -26.8757   19.4520 C   0  0  0  0  0  0
  -24.8701  -27.6864   19.4512 C   0  0  0  0  0  0
  -23.6471  -29.8160   20.1529 C   0  0  0  0  0  0
  -25.4129  -36.3071   24.0301 C   0  0  1  0  0  0
  -20.5898  -28.3697   23.1237 C   0  0  2  0  0  0
  -20.6785  -26.9409   22.5388 C   0  0  0  0  0  0
  -19.5767  -26.6360   21.5190 C   0  0  0  0  0  0
  -18.1940  -26.7907   22.1600 C   0  0  0  0  0  0
  -19.1550  -28.8845   23.2833 C   0  0  0  0  0  0
  -18.9474  -30.1441   23.8860 C   0  0  0  0  0  0
  -17.6475  -30.6567   24.0552 C   0  0  0  0  0  0
  -25.9066  -34.9443   23.5056 C   0  0  0  0  0  0
  -16.5361  -29.9066   23.6326 C   0  0  0  0  0  0
  -16.7288  -28.6486   23.0337 C   0  0  0  0  0  0
  -26.4475  -31.6607   25.0717 C   0  0  0  0  0  0
  -25.3668  -31.3782   26.1421 C   0  0  0  0  0  0
  -27.0335  -30.3019   24.6247 C   0  0  0  0  0  0
  -27.6003  -32.4383   25.7496 C   0  0  0  0  0  0
  -27.5589  -37.1806   24.8442 C   0  0  0  0  0  0
  -21.4215  -29.3057   22.3636 N   0  0  0  0  0  0
  -26.4307  -37.3760   23.9383 N   0  0  0  0  0  0
  -24.6979  -31.0493   22.0944 N   0  0  0  0  0  0
  -23.4217  -28.8113   23.2936 O   0  0  0  0  0  0
  -28.2783  -26.3120   20.2188 O   0  0  0  0  0  0
  -26.5654  -34.8926   22.4638 O   0  0  0  0  0  0
  -23.5468  -32.1375   23.7242 O   0  0  0  0  0  0
  -32.2747  -19.4154   21.8608 C   0  0  0  0  0  0
  -32.6219  -18.0899   22.1371 C   0  0  0  0  0  0
  -30.2671  -18.7039   20.8947 C   0  0  0  0  0  0
  -30.6606  -17.2717   21.0958 C   0  0  0  0  0  0
  -28.7384  -23.7219   21.0106 C   0  0  0  0  0  0
  -28.3319  -24.2014   18.7216 C   0  0  0  0  0  0
  -28.0216  -24.8171   20.1010 C   0  0  2  0  0  0
  -28.9879  -22.3673   20.1814 C   0  0  1  0  0  0
  -33.9266  -17.7386   22.8177 C   0  0  0  0  0  0
  -29.0355  -19.4316   20.2248 C   0  0  0  0  0  0
  -28.5630  -20.9077   20.7886 C   0  0  0  0  0  0
  -31.1146  -19.7045   21.2510 N   0  0  0  0  0  0
  -31.8268  -17.0671   21.7743 N   0  0  0  0  0  0
  -30.0091  -15.9904   20.6962 N   0  0  0  0  0  0
  -28.3597  -22.7105   18.8830 N   0  3  0  0  0  0
  -31.4552  -12.5536   19.1838 H   0  0  0  0  0  0
  -30.3263  -11.5091   19.9917 H   0  0  0  0  0  0
  -29.7855  -11.7298   17.5343 H   0  0  0  0  0  0
  -29.6158  -13.4602   17.7201 H   0  0  0  0  0  0
  -27.9083  -11.2798   18.9533 H   0  0  0  0  0  0
  -27.3630  -12.4853   17.8187 H   0  0  0  0  0  0
  -27.6145  -14.2554   19.4457 H   0  0  0  0  0  0
  -28.7250  -12.2501   21.4682 H   0  0  0  0  0  0
  -28.4168  -13.9459   21.7646 H   0  0  0  0  0  0
  -25.2768   -9.5677   22.4798 H   0  0  0  0  0  0
  -23.9993   -7.4640   22.7499 H   0  0  0  0  0  0
  -21.0852   -8.8811   19.8973 H   0  0  0  0  0  0
  -22.3731  -10.9698   19.6200 H   0  0  0  0  0  0
  -21.2009   -7.6155   23.9718 H   0  0  0  0  0  0
  -21.1489   -6.0531   25.9078 H   0  0  0  0  0  0
  -22.0590   -2.7612   23.2852 H   0  0  0  0  0  0
  -22.4049  -11.9840   22.4771 H   0  0  0  0  0  0
  -21.1087  -13.1274   22.2701 H   0  0  0  0  0  0
  -24.6450  -15.8477   20.5183 H   0  0  0  0  0  0
  -26.2563  -15.6328   20.0615 H   0  0  0  0  0  0
  -26.7188  -32.5395   23.1040 H   0  0  0  0  0  0
  -25.0053  -33.9694   25.0343 H   0  0  0  0  0  0
  -22.7253  -31.2997   21.3920 H   0  0  0  0  0  0
  -23.3756  -35.9672   23.3279 H   0  0  0  0  0  0
  -24.3573  -36.9002   22.2048 H   0  0  0  0  0  0
  -23.7308  -37.6533   23.6704 H   0  0  0  0  0  0
  -26.1183  -31.5211   20.6118 H   0  0  0  0  0  0
  -26.8525  -30.8062   22.0170 H   0  0  0  0  0  0
  -28.1072  -28.8855   21.2363 H   0  0  0  0  0  0
  -25.9428  -25.9377   18.9219 H   0  0  0  0  0  0
  -23.9804  -27.3436   18.9405 H   0  0  0  0  0  0
  -23.7662  -30.5942   19.3981 H   0  0  0  0  0  0
  -22.7652  -29.2487   19.8516 H   0  0  0  0  0  0
  -25.1311  -36.1899   25.0793 H   0  0  0  0  0  0
  -20.9973  -28.3297   24.1364 H   0  0  0  0  0  0
  -20.5663  -26.2309   23.3595 H   0  0  0  0  0  0
  -21.6650  -26.7423   22.1182 H   0  0  0  0  0  0
  -19.6940  -25.6262   21.1246 H   0  0  0  0  0  0
  -19.6720  -27.3141   20.6693 H   0  0  0  0  0  0
  -17.4205  -26.6633   21.4009 H   0  0  0  0  0  0
  -18.0355  -26.0042   22.8994 H   0  0  0  0  0  0
  -19.7961  -30.7241   24.2223 H   0  0  0  0  0  0
  -17.5046  -31.6246   24.5156 H   0  0  0  0  0  0
  -15.5362  -30.2955   23.7673 H   0  0  0  0  0  0
  -15.8688  -28.0806   22.7058 H   0  0  0  0  0  0
  -24.5845  -30.7132   25.7744 H   0  0  0  0  0  0
  -24.8831  -32.2947   26.4810 H   0  0  0  0  0  0
  -25.7921  -30.8986   27.0237 H   0  0  0  0  0  0
  -26.2927  -29.6751   24.1262 H   0  0  0  0  0  0
  -27.3985  -29.7315   25.4793 H   0  0  0  0  0  0
  -27.8818  -30.4285   23.9513 H   0  0  0  0  0  0
  -27.2608  -33.3723   26.2001 H   0  0  0  0  0  0
  -28.3846  -32.6902   25.0339 H   0  0  0  0  0  0
  -28.0639  -31.8564   26.5477 H   0  0  0  0  0  0
  -28.2561  -38.0142   24.7510 H   0  0  0  0  0  0
  -28.1126  -36.2662   24.6242 H   0  0  0  0  0  0
  -27.2286  -37.1445   25.8837 H   0  0  0  0  0  0
  -20.9380  -29.8877   21.6933 H   0  0  0  0  0  0
  -26.0187  -38.2834   24.1376 H   0  0  0  0  0  0
  -32.9152  -20.2446   22.1268 H   0  0  0  0  0  0
  -28.1441  -23.5324   21.9055 H   0  0  0  0  0  0
  -29.6967  -24.1078   21.3548 H   0  0  0  0  0  0
  -29.3204  -24.5319   18.3976 H   0  0  0  0  0  0
  -27.6216  -24.5114   17.9557 H   0  0  0  0  0  0
  -26.9654  -24.6440   20.3079 H   0  0  0  0  0  0
  -30.0628  -22.3222   19.9997 H   0  0  0  0  0  0
  -34.2666  -18.5580   23.4508 H   0  0  0  0  0  0
  -34.6979  -17.5422   22.0724 H   0  0  0  0  0  0
  -33.8203  -16.8511   23.4409 H   0  0  0  0  0  0
  -28.1944  -18.7472   20.3448 H   0  0  0  0  0  0
  -29.2056  -19.4896   19.1495 H   0  0  0  0  0  0
  -27.4732  -20.9016   20.7514 H   0  0  0  0  0  0
  -28.7742  -20.9208   21.8581 H   0  0  0  0  0  0
  -29.0023  -15.9761   20.7071 H   0  0  0  0  0  0
  -28.8455  -22.2698   18.1176 H   0  0  0  0  0  0
  -27.4094  -22.3715   18.8827 H   0  0  0  0  0  0
  1 25  1  0  0  0
  1 30  2  0  0  0
  1 84  1  0  0  0
  2  3  1  0  0  0
  2 25  1  0  0  0
  2 86  1  0  0  0
  2 87  1  0  0  0
  3  4  1  0  0  0
  3 88  1  0  0  0
  3 89  1  0  0  0
  4  5  1  0  0  0
  4 90  1  0  0  0
  4 91  1  0  0  0
  5  6  1  0  0  0
  5 26  1  0  0  0
  5 92  1  0  0  0
  6 25  1  0  0  0
  6 93  1  0  0  0
  6 94  1  0  0  0
  7  8  2  0  0  0
  7 26  1  0  0  0
  7 29  1  0  0  0
  8  9  1  0  0  0
  8 22  1  0  0  0
  9 10  1  0  0  0
  9 27  2  0  0  0
 10 11  2  0  0  0
 10 15  1  0  0  0
 11 12  1  0  0  0
 11 95  1  0  0  0
 12 13  2  0  0  0
 12 96  1  0  0  0
 13 14  1  0  0  0
 13 31  1  0  0  0
 14 15  2  0  0  0
 14 97  1  0  0  0
 15 98  1  0  0  0
 16 17  2  0  0  0
 16 21  1  0  0  0
 16 31  1  0  0  0
 17 18  1  0  0  0
 17 99  1  0  0  0
 18 19  2  0  0  0
 18100  1  0  0  0
 19 20  1  0  0  0
 19 24  1  0  0  0
 20 21  2  0  0  0
 20101  1  0  0  0
 21 23  1  0  0  0
 22 28  1  0  0  0
 22 32  2  0  0  0
 26 27  1  0  0  0
 28102  1  0  0  0
 28103  1  0  0  0
 29104  1  0  0  0
 29105  1  0  0  0
 33 34  1  0  0  0
 33 66  1  0  0  0
 33 70  2  0  0  0
 34 36  1  0  0  0
 34 59  1  0  0  0
 34106  1  0  0  0
 35 44  2  0  0  0
 35 45  1  0  0  0
 35 68  1  0  0  0
 36 56  1  0  0  0
 36107  1  0  0  0
 37 39  1  0  0  0
 37 47  1  0  0  0
 37 66  1  0  0  0
 37108  1  0  0  0
 38 43  2  0  0  0
 38 46  1  0  0  0
 38 47  1  0  0  0
 39 64  1  0  0  0
 39 67  2  0  0  0
 40 52  1  0  0  0
 40 53  2  0  0  0
 40 58  1  0  0  0
 41109  1  0  0  0
 41110  1  0  0  0
 41111  1  0  0  0
 41 48  1  0  0  0
 42 43  1  0  0  0
 42 66  1  0  0  0
 42112  1  0  0  0
 42113  1  0  0  0
 43 44  1  0  0  0
 44114  1  0  0  0
 45 46  2  0  0  0
 45115  1  0  0  0
 46116  1  0  0  0
 47117  1  0  0  0
 47118  1  0  0  0
 48 56  1  0  0  0
 48 65  1  0  0  0
 48119  1  0  0  0
 49 50  1  0  0  0
 49 53  1  0  0  0
 49 64  1  0  0  0
 49120  1  0  0  0
 50 51  1  0  0  0
 50121  1  0  0  0
 50122  1  0  0  0
 51 52  1  0  0  0
 51123  1  0  0  0
 51124  1  0  0  0
 52125  1  0  0  0
 52126  1  0  0  0
 53 54  1  0  0  0
 54 55  2  0  0  0
 54127  1  0  0  0
 55 57  1  0  0  0
 55128  1  0  0  0
 56 69  2  0  0  0
 57 58  2  0  0  0
 57129  1  0  0  0
 58130  1  0  0  0
 59 60  1  0  0  0
 59 61  1  0  0  0
 59 62  1  0  0  0
 60131  1  0  0  0
 60132  1  0  0  0
 60133  1  0  0  0
 61134  1  0  0  0
 61135  1  0  0  0
 61136  1  0  0  0
 62137  1  0  0  0
 62138  1  0  0  0
 62139  1  0  0  0
 63 65  1  0  0  0
 63140  1  0  0  0
 63141  1  0  0  0
 63142  1  0  0  0
 64143  1  0  0  0
 65144  1  0  0  0
 68 77  1  0  0  0
 71 72  2  0  0  0
 71 82  1  0  0  0
 71145  1  0  0  0
 72 79  1  0  0  0
 72 83  1  0  0  0
 73 74  1  0  0  0
 73 80  1  0  0  0
 73 82  2  0  0  0
 74 83  2  0  0  0
 74 84  1  0  0  0
 75 77  1  0  0  0
 75 78  1  0  0  0
 75146  1  0  0  0
 75147  1  0  0  0
 76 77  1  0  0  0
 76 85  1  0  0  0
 76148  1  0  0  0
 76149  1  0  0  0
 77150  1  0  0  0
 78 81  1  0  0  0
 78 85  1  0  0  0
 78151  1  0  0  0
 79152  1  0  0  0
 79153  1  0  0  0
 79154  1  0  0  0
 80 81  1  0  0  0
 80155  1  0  0  0
 80156  1  0  0  0
 81157  1  0  0  0
 81158  1  0  0  0
 84159  1  0  0  0
 85160  1  0  0  0
 85161  1  0  0  0
M  CHG  1  85   1
M  ISO  4   1 100  68 101  77 101  84 100
M  END
> <chiral flag>
0

> <version>
0

> <s_m_source_file>
/data/baiqing/PycharmProjects/Reinvent-master-3.2/result/LINK_invent/BTK/process_docking_weight1_custom_sum_contain_oxygen_bond_distance_aromatic_linkinvent_7_9_3/rearranged_h_0182.sdf

> <i_m_source_file_index>
91

> <r_mmod_Potential_Energy-OPLS-2005>
217.359222412109

> <r_mmod_Stretch_Energy-OPLS-2005>
154.594100952148

> <r_mmod_Bend_Energy-OPLS-2005>
263.278015136719

> <r_mmod_Torsional_Energy-OPLS-2005>
290.641143798828

> <r_mmod_Improper_Torsional_Energy-OPLS-2005>
5.68216896057129

> <r_mmod_Van_der_Waal_Energy-OPLS-2005>
149.871459960938

> <r_mmod_Electrostatic_Energy-OPLS-2005>
-265.104034423828

> <r_mmod_Solvation_Energy-OPLS-2005>
-483.173217773438

> <b_mmod_Minimization_Converged-OPLS-2005>
0

> <r_mmod_RMS_Derivative-OPLS-2005>
2.12569880485535

$$$$
91
                    3D
 Structure written by MMmdl.
152161  0  0  1  0            999 V2000
  -30.4035  -15.3721   20.3734 C   0  0  0  0  0  0
  -30.4421  -12.8862   19.5366 C   0  0  0  0  0  0
  -29.5402  -12.6114   18.3020 C   0  0  0  0  0  0
  -28.0931  -12.3114   18.7293 C   0  0  0  0  0  0
  -27.6141  -13.2819   19.8365 C   0  0  2  0  0  0
  -28.6548  -13.4477   20.9707 C   0  0  0  0  0  0
  -25.2290  -13.8219   20.5660 C   0  0  0  0  0  0
  -24.1698  -13.0398   20.9253 C   0  0  0  0  0  0
  -24.6404  -11.6922   20.8777 C   0  0  0  0  0  0
  -23.9103  -10.4286   21.0400 C   0  0  0  0  0  0
  -24.3647   -9.4206   21.9178 C   0  0  0  0  0  0
  -23.6315   -8.2245   22.0748 C   0  0  0  0  0  0
  -22.4294   -8.0287   21.3533 C   0  0  0  0  0  0
  -21.9933   -9.0263   20.4634 C   0  0  0  0  0  0
  -22.7273  -10.2135   20.3046 C   0  0  0  0  0  0
  -21.6863   -6.0749   22.5282 C   0  0  0  0  0  0
  -21.4027   -6.5647   23.8218 C   0  0  0  0  0  0
  -21.3662   -5.6788   24.9174 C   0  0  0  0  0  0
  -21.6043   -4.3054   24.7217 C   0  0  0  0  0  0
  -21.8822   -3.8153   23.4336 C   0  0  0  0  0  0
  -21.9198   -4.6976   22.3398 C   0  0  0  0  0  0
  -22.7715  -13.5145   21.1897 C   0  0  0  0  0  0
  -22.1662   -4.2166   21.0973 F   0  0  0  0  0  0
  -21.5619   -3.4533   25.7726 F   0  0  0  0  0  0
  -29.8626  -14.0337   20.3486 N   0  0  0  0  0  0
  -26.2812  -12.9553   20.3272 N   0  0  0  0  0  0
  -25.9359  -11.6650   20.5784 N   0  0  0  0  0  0
  -22.0382  -12.8140   22.0469 N   0  0  0  0  0  0
  -25.3669  -15.1939   20.3902 N   0  0  0  0  0  0
  -31.6079  -15.3565   20.0707 O   0  0  0  0  0  0
  -21.6647   -6.8893   21.4242 O   0  0  0  0  0  0
  -22.3387  -14.5442   20.6738 O   0  0  0  0  0  0
  -24.6689  -31.8167   23.1635 C   0  0  0  0  0  0
  -25.9339  -32.4549   23.8130 C   0  0  1  0  0  0
  -27.2285  -26.8694   20.1922 C   0  0  0  0  0  0
  -25.5976  -33.8367   24.2032 N   0  0  0  0  0  0
  -23.4881  -30.4244   21.5133 C   0  0  2  0  0  0
  -24.9449  -28.7987   20.1109 C   0  0  0  0  0  0
  -22.7701  -29.4404   22.4746 C   0  0  0  0  0  0
  -18.0326  -28.1414   22.8457 C   0  0  0  0  0  0
  -24.1494  -36.7193   23.2652 C   0  0  0  0  0  0
  -26.0603  -30.6034   21.4039 C   0  0  0  0  0  0
  -26.1289  -29.1867   20.7503 C   0  0  0  0  0  0
  -27.2611  -28.2439   20.7656 C   0  0  0  0  0  0
  -26.0159  -26.6497   19.4974 C   0  0  0  0  0  0
  -24.9172  -27.5519   19.4638 C   0  0  0  0  0  0
  -23.7330  -29.7332   20.1421 C   0  0  0  0  0  0
  -25.4134  -36.2944   24.0297 C   0  0  1  0  0  0
  -20.5959  -28.3764   23.1163 C   0  0  2  0  0  0
  -20.6803  -26.9436   22.5397 C   0  0  0  0  0  0
  -19.5774  -26.6370   21.5216 C   0  0  0  0  0  0
  -18.1956  -26.7943   22.1622 C   0  0  0  0  0  0
  -19.1591  -28.8911   23.2797 C   0  0  0  0  0  0
  -18.9502  -30.1493   23.8841 C   0  0  0  0  0  0
  -17.6493  -30.6602   24.0550 C   0  0  0  0  0  0
  -25.9103  -34.9330   23.4991 C   0  0  0  0  0  0
  -16.5384  -29.9088   23.6342 C   0  0  0  0  0  0
  -16.7308  -28.6508   23.0361 C   0  0  0  0  0  0
  -26.4569  -31.6519   25.0686 C   0  0  0  0  0  0
  -25.3679  -31.3798   26.1331 C   0  0  0  0  0  0
  -27.0481  -30.2875   24.6477 C   0  0  0  0  0  0
  -27.6042  -32.4345   25.7496 C   0  0  0  0  0  0
  -27.5565  -37.1752   24.8466 C   0  0  0  0  0  0
  -21.4361  -29.3040   22.3500 N   0  0  0  0  0  0
  -26.4274  -37.3686   23.9409 N   0  0  0  0  0  0
  -24.7610  -30.9767   22.0803 N   0  0  0  0  0  0
  -23.4212  -28.7981   23.3023 O   0  0  0  0  0  0
  -28.2146  -25.7314   20.2997 O   0  0  0  0  0  0
  -26.5727  -34.8879   22.4596 O   0  0  0  0  0  0
  -23.5741  -32.1172   23.6680 O   0  0  0  0  0  0
  -30.1187  -20.2731   21.7055 C   0  0  0  0  0  0
  -29.3885  -19.9580   20.5396 C   0  0  0  0  0  0
  -29.6125  -22.6249   21.6816 C   0  0  0  0  0  0
  -28.8176  -22.5917   20.5058 C   0  0  0  0  0  0
  -28.0119  -17.7661   19.8528 C   0  0  0  0  0  0
  -28.3080  -16.8413   21.0466 C   0  0  0  0  0  0
  -29.4443  -18.2809   19.9441 C   0  0  2  0  0  0
  -29.8200  -23.9257   22.4335 C   0  0  0  0  0  0
  -27.9936  -24.0926   20.0002 C   0  0  0  0  0  0
  -30.2242  -21.5305   22.2369 N   0  0  0  0  0  0
  -28.7495  -21.1911   19.9744 N   0  0  0  0  0  0
  -29.6567  -16.6856   20.5177 N   0  0  0  0  0  0
  -31.4525  -13.1080   19.1920 H   0  0  0  0  0  0
  -30.5491  -11.9870   20.1450 H   0  0  0  0  0  0
  -29.9384  -11.7846   17.7124 H   0  0  0  0  0  0
  -29.5490  -13.4848   17.6479 H   0  0  0  0  0  0
  -28.0611  -11.2869   19.1031 H   0  0  0  0  0  0
  -27.4250  -12.3432   17.8679 H   0  0  0  0  0  0
  -27.5277  -14.2491   19.3398 H   0  0  0  0  0  0
  -28.8606  -12.4894   21.4502 H   0  0  0  0  0  0
  -28.2880  -14.0821   21.7749 H   0  0  0  0  0  0
  -25.2786   -9.5698   22.4758 H   0  0  0  0  0  0
  -24.0023   -7.4642   22.7473 H   0  0  0  0  0  0
  -21.0862   -8.8799   19.8942 H   0  0  0  0  0  0
  -22.3730  -10.9680   19.6164 H   0  0  0  0  0  0
  -21.2030   -7.6157   23.9736 H   0  0  0  0  0  0
  -21.1468   -6.0507   25.9077 H   0  0  0  0  0  0
  -22.0593   -2.7615   23.2827 H   0  0  0  0  0  0
  -22.4022  -11.9824   22.4873 H   0  0  0  0  0  0
  -21.0996  -13.1147   22.2667 H   0  0  0  0  0  0
  -24.5798  -15.8243   20.4999 H   0  0  0  0  0  0
  -26.1872  -15.6453   20.0098 H   0  0  0  0  0  0
  -26.7413  -32.5071   23.0846 H   0  0  0  0  0  0
  -25.0060  -33.9431   25.0139 H   0  0  0  0  0  0
  -22.8053  -31.2576   21.3349 H   0  0  0  0  0  0
  -23.3765  -35.9515   23.3279 H   0  0  0  0  0  0
  -24.3570  -36.8879   22.2073 H   0  0  0  0  0  0
  -23.7244  -37.6368   23.6734 H   0  0  0  0  0  0
  -26.2478  -31.3404   20.6214 H   0  0  0  0  0  0
  -26.9175  -30.6620   22.0629 H   0  0  0  0  0  0
  -28.1534  -28.5399   21.2991 H   0  0  0  0  0  0
  -25.8802  -25.6988   19.0030 H   0  0  0  0  0  0
  -24.0187  -27.2479   18.9440 H   0  0  0  0  0  0
  -23.8954  -30.4997   19.3835 H   0  0  0  0  0  0
  -22.8422  -29.1905   19.8212 H   0  0  0  0  0  0
  -25.1335  -36.1734   25.0788 H   0  0  0  0  0  0
  -21.0044  -28.3385   24.1289 H   0  0  0  0  0  0
  -20.5682  -26.2388   23.3648 H   0  0  0  0  0  0
  -21.6665  -26.7400   22.1205 H   0  0  0  0  0  0
  -19.6932  -25.6265   21.1284 H   0  0  0  0  0  0
  -19.6716  -27.3148   20.6720 H   0  0  0  0  0  0
  -17.4224  -26.6676   21.4028 H   0  0  0  0  0  0
  -18.0350  -26.0104   22.9039 H   0  0  0  0  0  0
  -19.7979  -30.7319   24.2191 H   0  0  0  0  0  0
  -17.5049  -31.6278   24.5159 H   0  0  0  0  0  0
  -15.5382  -30.2973   23.7697 H   0  0  0  0  0  0
  -15.8708  -28.0808   22.7107 H   0  0  0  0  0  0
  -24.5857  -30.7156   25.7636 H   0  0  0  0  0  0
  -24.8880  -32.3016   26.4631 H   0  0  0  0  0  0
  -25.7893  -30.9036   27.0194 H   0  0  0  0  0  0
  -26.3170  -29.6519   24.1469 H   0  0  0  0  0  0
  -27.3968  -29.7274   25.5164 H   0  0  0  0  0  0
  -27.9126  -30.4033   23.9937 H   0  0  0  0  0  0
  -27.2589  -33.3687   26.1939 H   0  0  0  0  0  0
  -28.3926  -32.6844   25.0382 H   0  0  0  0  0  0
  -28.0631  -31.8566   26.5530 H   0  0  0  0  0  0
  -28.2560  -38.0067   24.7504 H   0  0  0  0  0  0
  -28.1079  -36.2589   24.6299 H   0  0  0  0  0  0
  -27.2280  -37.1402   25.8868 H   0  0  0  0  0  0
  -20.9630  -29.8731   21.6619 H   0  0  0  0  0  0
  -26.0116  -38.2744   24.1411 H   0  0  0  0  0  0
  -30.6591  -19.4946   22.2248 H   0  0  0  0  0  0
  -27.2399  -18.5111   20.0495 H   0  0  0  0  0  0
  -27.8033  -17.2217   18.9290 H   0  0  0  0  0  0
  -27.6899  -15.9566   21.0527 H   0  0  0  0  0  0
  -28.2751  -17.3423   22.0161 H   0  0  0  0  0  0
  -29.8671  -18.3634   18.9424 H   0  0  0  0  0  0
  -30.3080  -24.6621   21.7942 H   0  0  0  0  0  0
  -30.4413  -23.7856   23.3184 H   0  0  0  0  0  0
  -28.8637  -24.3355   22.7583 H   0  0  0  0  0  0
  -26.9635  -23.9133   20.3065 H   0  0  0  0  0  0
  -27.9652  -24.0247   18.9131 H   0  0  0  0  0  0
  1 25  1  0  0  0
  1 30  2  0  0  0
  1 82  1  0  0  0
  2  3  1  0  0  0
  2 25  1  0  0  0
  2 83  1  0  0  0
  2 84  1  0  0  0
  3  4  1  0  0  0
  3 85  1  0  0  0
  3 86  1  0  0  0
  4  5  1  0  0  0
  4 87  1  0  0  0
  4 88  1  0  0  0
  5  6  1  0  0  0
  5 26  1  0  0  0
  5 89  1  0  0  0
  6 25  1  0  0  0
  6 90  1  0  0  0
  6 91  1  0  0  0
  7  8  2  0  0  0
  7 26  1  0  0  0
  7 29  1  0  0  0
  8  9  1  0  0  0
  8 22  1  0  0  0
  9 10  1  0  0  0
  9 27  2  0  0  0
 10 11  2  0  0  0
 10 15  1  0  0  0
 11 12  1  0  0  0
 11 92  1  0  0  0
 12 13  2  0  0  0
 12 93  1  0  0  0
 13 14  1  0  0  0
 13 31  1  0  0  0
 14 15  2  0  0  0
 14 94  1  0  0  0
 15 95  1  0  0  0
 16 17  2  0  0  0
 16 21  1  0  0  0
 16 31  1  0  0  0
 17 18  1  0  0  0
 17 96  1  0  0  0
 18 19  2  0  0  0
 18 97  1  0  0  0
 19 20  1  0  0  0
 19 24  1  0  0  0
 20 21  2  0  0  0
 20 98  1  0  0  0
 21 23  1  0  0  0
 22 28  1  0  0  0
 22 32  2  0  0  0
 26 27  1  0  0  0
 28 99  1  0  0  0
 28100  1  0  0  0
 29101  1  0  0  0
 29102  1  0  0  0
 33 34  1  0  0  0
 33 66  1  0  0  0
 33 70  2  0  0  0
 34 36  1  0  0  0
 34 59  1  0  0  0
 34103  1  0  0  0
 35 44  2  0  0  0
 35 45  1  0  0  0
 35 68  1  0  0  0
 36 56  1  0  0  0
 36104  1  0  0  0
 37 39  1  0  0  0
 37 47  1  0  0  0
 37 66  1  0  0  0
 37105  1  0  0  0
 38 43  2  0  0  0
 38 46  1  0  0  0
 38 47  1  0  0  0
 39 64  1  0  0  0
 39 67  2  0  0  0
 40 52  1  0  0  0
 40 53  2  0  0  0
 40 58  1  0  0  0
 41106  1  0  0  0
 41107  1  0  0  0
 41108  1  0  0  0
 41 48  1  0  0  0
 42 43  1  0  0  0
 42 66  1  0  0  0
 42109  1  0  0  0
 42110  1  0  0  0
 43 44  1  0  0  0
 44111  1  0  0  0
 45 46  2  0  0  0
 45112  1  0  0  0
 46113  1  0  0  0
 47114  1  0  0  0
 47115  1  0  0  0
 48 56  1  0  0  0
 48 65  1  0  0  0
 48116  1  0  0  0
 49 50  1  0  0  0
 49 53  1  0  0  0
 49 64  1  0  0  0
 49117  1  0  0  0
 50 51  1  0  0  0
 50118  1  0  0  0
 50119  1  0  0  0
 51 52  1  0  0  0
 51120  1  0  0  0
 51121  1  0  0  0
 52122  1  0  0  0
 52123  1  0  0  0
 53 54  1  0  0  0
 54 55  2  0  0  0
 54124  1  0  0  0
 55 57  1  0  0  0
 55125  1  0  0  0
 56 69  2  0  0  0
 57 58  2  0  0  0
 57126  1  0  0  0
 58127  1  0  0  0
 59 60  1  0  0  0
 59 61  1  0  0  0
 59 62  1  0  0  0
 60128  1  0  0  0
 60129  1  0  0  0
 60130  1  0  0  0
 61131  1  0  0  0
 61132  1  0  0  0
 61133  1  0  0  0
 62134  1  0  0  0
 62135  1  0  0  0
 62136  1  0  0  0
 63 65  1  0  0  0
 63137  1  0  0  0
 63138  1  0  0  0
 63139  1  0  0  0
 64140  1  0  0  0
 65141  1  0  0  0
 68 79  1  0  0  0
 71 72  2  0  0  0
 71 80  1  0  0  0
 71142  1  0  0  0
 72 81  1  0  0  0
 72 77  1  0  0  0
 73 74  1  0  0  0
 73 78  1  0  0  0
 73 80  2  0  0  0
 74 79  1  0  0  0
 74 81  2  0  0  0
 75 76  1  0  0  0
 75 77  1  0  0  0
 75143  1  0  0  0
 75144  1  0  0  0
 76 82  1  0  0  0
 76145  1  0  0  0
 76146  1  0  0  0
 77 82  1  0  0  0
 77147  1  0  0  0
 78148  1  0  0  0
 78149  1  0  0  0
 78150  1  0  0  0
 79151  1  0  0  0
 79152  1  0  0  0
M  ISO  4   1 100  68 101  79 101  82 100
M  END
> <chiral flag>
0

> <version>
0

> <s_m_source_file>
/data/baiqing/PycharmProjects/Reinvent-master-3.2/result/LINK_invent/BTK/process_docking_weight1_custom_sum_contain_oxygen_bond_distance_aromatic_linkinvent_7_9_3/rearranged_h_0182.sdf

> <i_m_source_file_index>
92

> <r_mmod_Potential_Energy-OPLS-2005>
1688.63452148438

> <r_mmod_Stretch_Energy-OPLS-2005>
705.954711914062

> <r_mmod_Bend_Energy-OPLS-2005>
509.647125244141

> <r_mmod_Torsional_Energy-OPLS-2005>
264.465484619141

> <r_mmod_Improper_Torsional_Energy-OPLS-2005>
6.73579263687134

> <r_mmod_Van_der_Waal_Energy-OPLS-2005>
125.166778564453

> <r_mmod_Electrostatic_Energy-OPLS-2005>
-254.074783325195

> <r_mmod_Solvation_Energy-OPLS-2005>
-227.046279907227

> <b_mmod_Minimization_Converged-OPLS-2005>
0

> <r_mmod_RMS_Derivative-OPLS-2005>
1.06065404415131

$$$$
92
                    3D
 Structure written by MMmdl.
156164  0  0  1  0            999 V2000
  -30.4560  -15.1491   20.3898 C   0  0  0  0  0  0
  -30.4535  -12.7281   19.5050 C   0  0  0  0  0  0
  -29.5346  -12.5460   18.2709 C   0  0  0  0  0  0
  -28.0751  -12.2995   18.6998 C   0  0  0  0  0  0
  -27.6202  -13.2627   19.8256 C   0  0  2  0  0  0
  -28.6651  -13.3686   20.9555 C   0  0  0  0  0  0
  -25.2427  -13.8228   20.5753 C   0  0  0  0  0  0
  -24.1768  -13.0439   20.9267 C   0  0  0  0  0  0
  -24.6397  -11.6926   20.8798 C   0  0  0  0  0  0
  -23.9094  -10.4296   21.0452 C   0  0  0  0  0  0
  -24.3639   -9.4192   21.9211 C   0  0  0  0  0  0
  -23.6305   -8.2225   22.0752 C   0  0  0  0  0  0
  -22.4285   -8.0289   21.3551 C   0  0  0  0  0  0
  -21.9935   -9.0264   20.4651 C   0  0  0  0  0  0
  -22.7275  -10.2134   20.3074 C   0  0  0  0  0  0
  -21.6838   -6.0750   22.5289 C   0  0  0  0  0  0
  -21.4004   -6.5646   23.8223 C   0  0  0  0  0  0
  -21.3666   -5.6793   24.9193 C   0  0  0  0  0  0
  -21.6046   -4.3058   24.7246 C   0  0  0  0  0  0
  -21.8815   -3.8155   23.4357 C   0  0  0  0  0  0
  -21.9175   -4.6972   22.3419 C   0  0  0  0  0  0
  -22.7776  -13.5206   21.1910 C   0  0  0  0  0  0
  -22.1656   -4.2153   21.0999 F   0  0  0  0  0  0
  -21.5628   -3.4533   25.7758 F   0  0  0  0  0  0
  -29.9065  -13.8505   20.3329 N   0  0  0  0  0  0
  -26.2854  -12.9479   20.3222 N   0  0  0  0  0  0
  -25.9332  -11.6599   20.5732 N   0  0  0  0  0  0
  -22.0398  -12.8203   22.0452 N   0  0  0  0  0  0
  -25.4027  -15.1963   20.4201 N   0  0  0  0  0  0
  -31.6800  -15.2055   20.2159 O   0  0  0  0  0  0
  -21.6632   -6.8890   21.4251 O   0  0  0  0  0  0
  -22.3465  -14.5505   20.6722 O   0  0  0  0  0  0
  -24.6539  -31.8332   23.1782 C   0  0  0  0  0  0
  -25.9265  -32.4636   23.8214 C   0  0  1  0  0  0
  -27.2181  -27.0167   20.1811 C   0  0  0  0  0  0
  -25.5990  -33.8459   24.2143 N   0  0  0  0  0  0
  -23.4639  -30.4476   21.5259 C   0  0  2  0  0  0
  -24.9141  -28.8470   20.1169 C   0  0  0  0  0  0
  -22.7611  -29.4484   22.4810 C   0  0  0  0  0  0
  -18.0314  -28.1413   22.8453 C   0  0  0  0  0  0
  -24.1493  -36.7223   23.2644 C   0  0  0  0  0  0
  -26.0270  -30.6709   21.3923 C   0  0  0  0  0  0
  -26.0959  -29.2666   20.7425 C   0  0  0  0  0  0
  -27.2462  -28.3707   20.7497 C   0  0  0  0  0  0
  -26.0073  -26.7249   19.5166 C   0  0  0  0  0  0
  -24.8899  -27.5939   19.4858 C   0  0  0  0  0  0
  -23.6978  -29.7660   20.1504 C   0  0  0  0  0  0
  -25.4133  -36.3000   24.0304 C   0  0  1  0  0  0
  -20.5928  -28.3739   23.1205 C   0  0  2  0  0  0
  -20.6785  -26.9431   22.5396 C   0  0  0  0  0  0
  -19.5763  -26.6385   21.5204 C   0  0  0  0  0  0
  -18.1940  -26.7950   22.1607 C   0  0  0  0  0  0
  -19.1570  -28.8890   23.2812 C   0  0  0  0  0  0
  -18.9495  -30.1480   23.8847 C   0  0  0  0  0  0
  -17.6494  -30.6594   24.0563 C   0  0  0  0  0  0
  -25.9100  -34.9378   23.5033 C   0  0  0  0  0  0
  -16.5376  -29.9089   23.6344 C   0  0  0  0  0  0
  -16.7291  -28.6517   23.0348 C   0  0  0  0  0  0
  -26.4539  -31.6546   25.0703 C   0  0  0  0  0  0
  -25.3679  -31.3755   26.1371 C   0  0  0  0  0  0
  -27.0430  -30.2938   24.6363 C   0  0  0  0  0  0
  -27.6054  -32.4334   25.7494 C   0  0  0  0  0  0
  -27.5559  -37.1766   24.8462 C   0  0  0  0  0  0
  -21.4286  -29.3057   22.3563 N   0  0  0  0  0  0
  -26.4274  -37.3727   23.9400 N   0  0  0  0  0  0
  -24.7363  -31.0080   22.0869 N   0  0  0  0  0  0
  -23.4193  -28.8052   23.3014 O   0  0  0  0  0  0
  -28.2608  -25.9819   20.1986 O   0  0  0  0  0  0
  -26.5671  -34.8889   22.4608 O   0  0  0  0  0  0
  -23.5632  -32.1262   23.6934 O   0  0  0  0  0  0
  -30.4107  -19.0504   19.7788 C   0  0  0  0  0  0
  -28.1971  -18.7561   20.4759 C   0  0  0  0  0  0
  -30.3572  -20.6705   20.1208 C   0  0  0  0  0  0
  -29.6084  -17.9814   20.6508 C   0  0  1  0  0  0
  -27.9252  -20.4101   20.4593 C   0  0  2  0  0  0
  -26.8771  -20.7477   19.3812 C   0  0  0  0  0  0
  -28.9211  -22.9985   19.8824 C   0  0  0  0  0  0
  -28.0522  -24.4027   20.4706 C   0  0  0  0  0  0
  -29.6147  -16.3415   20.4444 N   0  0  0  0  0  0
  -29.0591  -21.4497   20.4443 N   0  3  1  0  0  0
  -31.4754  -12.9352   19.1782 H   0  0  0  0  0  0
  -30.5119  -11.8084   20.0862 H   0  0  0  0  0  0
  -29.8896  -11.7195   17.6547 H   0  0  0  0  0  0
  -29.5821  -13.4378   17.6443 H   0  0  0  0  0  0
  -28.0059  -11.2683   19.0493 H   0  0  0  0  0  0
  -27.4090  -12.3742   17.8408 H   0  0  0  0  0  0
  -27.5522  -14.2446   19.3553 H   0  0  0  0  0  0
  -28.8145  -12.4085   21.4504 H   0  0  0  0  0  0
  -28.3332  -14.0665   21.7259 H   0  0  0  0  0  0
  -25.2767   -9.5651   22.4809 H   0  0  0  0  0  0
  -24.0002   -7.4605   22.7466 H   0  0  0  0  0  0
  -21.0852   -8.8805   19.8952 H   0  0  0  0  0  0
  -22.3752  -10.9687   19.6194 H   0  0  0  0  0  0
  -21.1999   -7.6149   23.9735 H   0  0  0  0  0  0
  -21.1494   -6.0527   25.9094 H   0  0  0  0  0  0
  -22.0586   -2.7608   23.2862 H   0  0  0  0  0  0
  -22.4002  -11.9904   22.4917 H   0  0  0  0  0  0
  -21.0999  -13.1222   22.2612 H   0  0  0  0  0  0
  -24.6188  -15.8336   20.5234 H   0  0  0  0  0  0
  -26.2233  -15.6368   20.0274 H   0  0  0  0  0  0
  -26.7342  -32.5197   23.0938 H   0  0  0  0  0  0
  -25.0136  -33.9577   25.0293 H   0  0  0  0  0  0
  -22.7735  -31.2771   21.3578 H   0  0  0  0  0  0
  -23.3758  -35.9542   23.3281 H   0  0  0  0  0  0
  -24.3568  -36.8890   22.2059 H   0  0  0  0  0  0
  -23.7236  -37.6408   23.6710 H   0  0  0  0  0  0
  -26.1908  -31.4142   20.6115 H   0  0  0  0  0  0
  -26.8952  -30.7319   22.0358 H   0  0  0  0  0  0
  -28.1446  -28.6902   21.2594 H   0  0  0  0  0  0
  -25.9034  -25.7691   19.0242 H   0  0  0  0  0  0
  -23.9931  -27.2642   18.9772 H   0  0  0  0  0  0
  -23.8524  -30.5368   19.3947 H   0  0  0  0  0  0
  -22.8079  -29.2199   19.8318 H   0  0  0  0  0  0
  -25.1323  -36.1815   25.0791 H   0  0  0  0  0  0
  -21.0023  -28.3359   24.1326 H   0  0  0  0  0  0
  -20.5677  -26.2362   23.3631 H   0  0  0  0  0  0
  -21.6652  -26.7428   22.1197 H   0  0  0  0  0  0
  -19.6934  -25.6291   21.1252 H   0  0  0  0  0  0
  -19.6718  -27.3174   20.6723 H   0  0  0  0  0  0
  -17.4214  -26.6678   21.4009 H   0  0  0  0  0  0
  -18.0338  -26.0124   22.9039 H   0  0  0  0  0  0
  -19.7979  -30.7296   24.2204 H   0  0  0  0  0  0
  -17.5057  -31.6281   24.5163 H   0  0  0  0  0  0
  -15.5376  -30.2980   23.7708 H   0  0  0  0  0  0
  -15.8691  -28.0825   22.7084 H   0  0  0  0  0  0
  -24.5902  -30.7080   25.7657 H   0  0  0  0  0  0
  -24.8830  -32.2944   26.4707 H   0  0  0  0  0  0
  -25.7935  -30.8981   27.0219 H   0  0  0  0  0  0
  -26.3094  -29.6622   24.1377 H   0  0  0  0  0  0
  -27.3996  -29.7297   25.4993 H   0  0  0  0  0  0
  -27.8993  -30.4133   23.9722 H   0  0  0  0  0  0
  -27.2670  -33.3692   26.1956 H   0  0  0  0  0  0
  -28.3925  -32.6827   25.0360 H   0  0  0  0  0  0
  -28.0655  -31.8544   26.5513 H   0  0  0  0  0  0
  -28.2569  -38.0071   24.7517 H   0  0  0  0  0  0
  -28.1062  -36.2604   24.6288 H   0  0  0  0  0  0
  -27.2265  -37.1394   25.8862 H   0  0  0  0  0  0
  -20.9523  -29.8787   21.6736 H   0  0  0  0  0  0
  -26.0123  -38.2779   24.1443 H   0  0  0  0  0  0
  -31.4617  -18.7588   19.7912 H   0  0  0  0  0  0
  -30.1131  -18.9255   18.7361 H   0  0  0  0  0  0
  -27.4988  -18.3237   21.1958 H   0  0  0  0  0  0
  -27.8104  -18.3923   19.5203 H   0  0  0  0  0  0
  -30.8263  -21.1775   19.2750 H   0  0  0  0  0  0
  -31.0326  -20.8568   20.9574 H   0  0  0  0  0  0
  -29.9318  -18.1214   21.6833 H   0  0  0  0  0  0
  -27.4398  -20.6155   21.4149 H   0  0  0  0  0  0
  -26.0080  -20.0954   19.4632 H   0  0  0  0  0  0
  -27.2948  -20.6207   18.3819 H   0  0  0  0  0  0
  -26.5124  -21.7727   19.4581 H   0  0  0  0  0  0
  -29.9568  -23.3403   19.8984 H   0  0  0  0  0  0
  -28.6853  -22.9106   18.8215 H   0  0  0  0  0  0
  -28.1249  -24.3368   21.5562 H   0  0  0  0  0  0
  -26.9981  -24.2050   20.2822 H   0  0  0  0  0  0
  -28.6604  -16.0146   20.4546 H   0  0  0  0  0  0
  -29.1828  -21.6150   21.4345 H   0  0  0  0  0  0
  1 25  1  0  0  0
  1 30  2  0  0  0
  1 79  1  0  0  0
  2  3  1  0  0  0
  2 25  1  0  0  0
  2 81  1  0  0  0
  2 82  1  0  0  0
  3  4  1  0  0  0
  3 83  1  0  0  0
  3 84  1  0  0  0
  4  5  1  0  0  0
  4 85  1  0  0  0
  4 86  1  0  0  0
  5  6  1  0  0  0
  5 26  1  0  0  0
  5 87  1  0  0  0
  6 25  1  0  0  0
  6 88  1  0  0  0
  6 89  1  0  0  0
  7  8  2  0  0  0
  7 26  1  0  0  0
  7 29  1  0  0  0
  8  9  1  0  0  0
  8 22  1  0  0  0
  9 10  1  0  0  0
  9 27  2  0  0  0
 10 11  2  0  0  0
 10 15  1  0  0  0
 11 12  1  0  0  0
 11 90  1  0  0  0
 12 13  2  0  0  0
 12 91  1  0  0  0
 13 14  1  0  0  0
 13 31  1  0  0  0
 14 15  2  0  0  0
 14 92  1  0  0  0
 15 93  1  0  0  0
 16 17  2  0  0  0
 16 21  1  0  0  0
 16 31  1  0  0  0
 17 18  1  0  0  0
 17 94  1  0  0  0
 18 19  2  0  0  0
 18 95  1  0  0  0
 19 20  1  0  0  0
 19 24  1  0  0  0
 20 21  2  0  0  0
 20 96  1  0  0  0
 21 23  1  0  0  0
 22 28  1  0  0  0
 22 32  2  0  0  0
 26 27  1  0  0  0
 28 97  1  0  0  0
 28 98  1  0  0  0
 29 99  1  0  0  0
 29100  1  0  0  0
 33 34  1  0  0  0
 33 66  1  0  0  0
 33 70  2  0  0  0
 34 36  1  0  0  0
 34 59  1  0  0  0
 34101  1  0  0  0
 35 44  2  0  0  0
 35 45  1  0  0  0
 35 68  1  0  0  0
 36 56  1  0  0  0
 36102  1  0  0  0
 37 39  1  0  0  0
 37 47  1  0  0  0
 37 66  1  0  0  0
 37103  1  0  0  0
 38 43  2  0  0  0
 38 46  1  0  0  0
 38 47  1  0  0  0
 39 64  1  0  0  0
 39 67  2  0  0  0
 40 52  1  0  0  0
 40 53  2  0  0  0
 40 58  1  0  0  0
 41104  1  0  0  0
 41105  1  0  0  0
 41106  1  0  0  0
 41 48  1  0  0  0
 42 43  1  0  0  0
 42 66  1  0  0  0
 42107  1  0  0  0
 42108  1  0  0  0
 43 44  1  0  0  0
 44109  1  0  0  0
 45 46  2  0  0  0
 45110  1  0  0  0
 46111  1  0  0  0
 47112  1  0  0  0
 47113  1  0  0  0
 48 56  1  0  0  0
 48 65  1  0  0  0
 48114  1  0  0  0
 49 50  1  0  0  0
 49 53  1  0  0  0
 49 64  1  0  0  0
 49115  1  0  0  0
 50 51  1  0  0  0
 50116  1  0  0  0
 50117  1  0  0  0
 51 52  1  0  0  0
 51118  1  0  0  0
 51119  1  0  0  0
 52120  1  0  0  0
 52121  1  0  0  0
 53 54  1  0  0  0
 54 55  2  0  0  0
 54122  1  0  0  0
 55 57  1  0  0  0
 55123  1  0  0  0
 56 69  2  0  0  0
 57 58  2  0  0  0
 57124  1  0  0  0
 58125  1  0  0  0
 59 60  1  0  0  0
 59 61  1  0  0  0
 59 62  1  0  0  0
 60126  1  0  0  0
 60127  1  0  0  0
 60128  1  0  0  0
 61129  1  0  0  0
 61130  1  0  0  0
 61131  1  0  0  0
 62132  1  0  0  0
 62133  1  0  0  0
 62134  1  0  0  0
 63 65  1  0  0  0
 63135  1  0  0  0
 63136  1  0  0  0
 63137  1  0  0  0
 64138  1  0  0  0
 65139  1  0  0  0
 68 78  1  0  0  0
 71 73  1  0  0  0
 71 74  1  0  0  0
 71140  1  0  0  0
 71141  1  0  0  0
 72 74  1  0  0  0
 72 75  1  0  0  0
 72142  1  0  0  0
 72143  1  0  0  0
 73 80  1  0  0  0
 73144  1  0  0  0
 73145  1  0  0  0
 74 79  1  0  0  0
 74146  1  0  0  0
 75 76  1  0  0  0
 75 80  1  0  0  0
 75147  1  0  0  0
 76148  1  0  0  0
 76149  1  0  0  0
 76150  1  0  0  0
 77 78  1  0  0  0
 77151  1  0  0  0
 77152  1  0  0  0
 77 80  1  0  0  0
 78153  1  0  0  0
 78154  1  0  0  0
 79155  1  0  0  0
 80156  1  0  0  0
M  CHG  1  80   1
M  ISO  4   1 100  68 101  78 101  79 100
M  END
> <chiral flag>
0

> <version>
0

> <s_m_source_file>
/data/baiqing/PycharmProjects/Reinvent-master-3.2/result/LINK_invent/BTK/process_docking_weight1_custom_sum_contain_oxygen_bond_distance_aromatic_linkinvent_7_9_3/rearranged_h_0182.sdf

> <i_m_source_file_index>
93

> <r_mmod_Potential_Energy-OPLS-2005>
937.53125

> <r_mmod_Stretch_Energy-OPLS-2005>
413.686187744141

> <r_mmod_Bend_Energy-OPLS-2005>
441.400909423828

> <r_mmod_Torsional_Energy-OPLS-2005>
286.312316894531

> <r_mmod_Improper_Torsional_Energy-OPLS-2005>
4.29921054840088

> <r_mmod_Van_der_Waal_Energy-OPLS-2005>
110.285713195801

> <r_mmod_Electrostatic_Energy-OPLS-2005>
-211.466995239258

> <r_mmod_Solvation_Energy-OPLS-2005>
-445.524322509766

> <b_mmod_Minimization_Converged-OPLS-2005>
0

> <r_mmod_RMS_Derivative-OPLS-2005>
3.13679003715515

$$$$
93
                    3D
 Structure written by MMmdl.
147156  0  0  1  0            999 V2000
  -30.2969  -15.6466   20.3539 C   0  0  0  0  0  0
  -30.4335  -13.0911   19.5404 C   0  0  0  0  0  0
  -29.5525  -12.6745   18.3245 C   0  0  0  0  0  0
  -28.1227  -12.3166   18.7609 C   0  0  0  0  0  0
  -27.6024  -13.3075   19.8258 C   0  0  2  0  0  0
  -28.6309  -13.5900   20.9486 C   0  0  0  0  0  0
  -25.2233  -13.8216   20.5691 C   0  0  0  0  0  0
  -24.1679  -13.0367   20.9287 C   0  0  0  0  0  0
  -24.6424  -11.6904   20.8790 C   0  0  0  0  0  0
  -23.9129  -10.4259   21.0407 C   0  0  0  0  0  0
  -24.3658   -9.4176   21.9191 C   0  0  0  0  0  0
  -23.6312   -8.2221   22.0759 C   0  0  0  0  0  0
  -22.4294   -8.0273   21.3544 C   0  0  0  0  0  0
  -21.9945   -9.0249   20.4643 C   0  0  0  0  0  0
  -22.7296  -10.2115   20.3053 C   0  0  0  0  0  0
  -21.6853   -6.0735   22.5279 C   0  0  0  0  0  0
  -21.4012   -6.5640   23.8213 C   0  0  0  0  0  0
  -21.3660   -5.6791   24.9175 C   0  0  0  0  0  0
  -21.6044   -4.3053   24.7225 C   0  0  0  0  0  0
  -21.8820   -3.8145   23.4345 C   0  0  0  0  0  0
  -21.9193   -4.6961   22.3403 C   0  0  0  0  0  0
  -22.7690  -13.5102   21.1915 C   0  0  0  0  0  0
  -22.1664   -4.2147   21.0980 F   0  0  0  0  0  0
  -21.5630   -3.4537   25.7738 F   0  0  0  0  0  0
  -29.7974  -14.2604   20.3094 N   0  0  0  0  0  0
  -26.2782  -12.9608   20.3267 N   0  0  0  0  0  0
  -25.9386  -11.6677   20.5761 N   0  0  0  0  0  0
  -22.0364  -12.8100   22.0486 N   0  0  0  0  0  0
  -25.3540  -15.1927   20.3901 N   0  0  0  0  0  0
  -31.5172  -15.6047   20.0994 O   0  0  0  0  0  0
  -21.6642   -6.8881   21.4244 O   0  0  0  0  0  0
  -22.3366  -14.5404   20.6750 O   0  0  0  0  0  0
  -24.6854  -31.7981   23.1499 C   0  0  0  0  0  0
  -25.9429  -32.4460   23.8051 C   0  0  1  0  0  0
  -27.2357  -26.6926   20.2128 C   0  0  0  0  0  0
  -25.6005  -33.8285   24.1942 N   0  0  0  0  0  0
  -23.5131  -30.3984   21.5032 C   0  0  2  0  0  0
  -24.9736  -28.7374   20.1164 C   0  0  0  0  0  0
  -22.7778  -29.4307   22.4699 C   0  0  0  0  0  0
  -18.0341  -28.1426   22.8456 C   0  0  0  0  0  0
  -24.1492  -36.7143   23.2650 C   0  0  0  0  0  0
  -26.0941  -30.5275   21.4168 C   0  0  0  0  0  0
  -26.1615  -29.0906   20.7674 C   0  0  0  0  0  0
  -27.2752  -28.0955   20.7855 C   0  0  0  0  0  0
  -26.0161  -26.5544   19.5001 C   0  0  0  0  0  0
  -24.9406  -27.4950   19.4593 C   0  0  0  0  0  0
  -23.7688  -29.6928   20.1395 C   0  0  0  0  0  0
  -25.4141  -36.2885   24.0282 C   0  0  1  0  0  0
  -20.5979  -28.3786   23.1137 C   0  0  2  0  0  0
  -20.6805  -26.9443   22.5401 C   0  0  0  0  0  0
  -19.5780  -26.6373   21.5216 C   0  0  0  0  0  0
  -18.1964  -26.7955   22.1618 C   0  0  0  0  0  0
  -19.1609  -28.8931   23.2778 C   0  0  0  0  0  0
  -18.9515  -30.1514   23.8822 C   0  0  0  0  0  0
  -17.6504  -30.6608   24.0550 C   0  0  0  0  0  0
  -25.9124  -34.9281   23.4945 C   0  0  0  0  0  0
  -16.5393  -29.9087   23.6354 C   0  0  0  0  0  0
  -16.7320  -28.6512   23.0368 C   0  0  0  0  0  0
  -26.4605  -31.6499   25.0675 C   0  0  0  0  0  0
  -25.3670  -31.3828   26.1288 C   0  0  0  0  0  0
  -27.0540  -30.2837   24.6582 C   0  0  0  0  0  0
  -27.6054  -32.4358   25.7494 C   0  0  0  0  0  0
  -27.5560  -37.1725   24.8465 C   0  0  0  0  0  0
  -21.4423  -29.3030   22.3454 N   0  0  0  0  0  0
  -26.4261  -37.3653   23.9415 N   0  0  0  0  0  0
  -24.7877  -30.9415   22.0758 N   0  0  0  0  0  0
  -23.4216  -28.7913   23.3052 O   0  0  0  0  0  0
  -28.1873  -25.4610   20.3129 O   0  0  0  0  0  0
  -26.5758  -34.8864   22.4559 O   0  0  0  0  0  0
  -23.5870  -32.1059   23.6444 O   0  0  0  0  0  0
  -27.9547  -20.8463   20.9216 C   0  0  0  0  0  0
  -30.1275  -19.8806   19.7147 C   0  0  0  0  0  0
  -28.3399  -19.3729   20.9276 C   0  0  0  0  0  0
  -29.4633  -18.6900   20.3330 C   0  0  0  0  0  0
  -28.6467  -22.0116   20.3008 C   0  0  0  0  0  0
  -27.5403  -18.2559   21.5653 C   0  0  0  0  0  0
  -28.2734  -16.8699   21.3194 C   0  0  0  0  0  0
  -27.9474  -23.7405   20.0163 C   0  0  0  0  0  0
  -29.7527  -21.3177   19.6874 N   0  0  0  0  0  0
  -29.5117  -17.0012   20.5239 N   0  0  0  0  0  0
  -31.4199  -13.3646   19.1656 H   0  0  0  0  0  0
  -30.6162  -12.2370   20.1948 H   0  0  0  0  0  0
  -30.0062  -11.8377   17.7920 H   0  0  0  0  0  0
  -29.5139  -13.5029   17.6155 H   0  0  0  0  0  0
  -28.1417  -11.3101   19.1799 H   0  0  0  0  0  0
  -27.4530  -12.2821   17.9005 H   0  0  0  0  0  0
  -27.4755  -14.2444   19.2821 H   0  0  0  0  0  0
  -28.9053  -12.6723   21.4708 H   0  0  0  0  0  0
  -28.1967  -14.2272   21.7153 H   0  0  0  0  0  0
  -25.2795   -9.5648   22.4778 H   0  0  0  0  0  0
  -24.0007   -7.4611   22.7484 H   0  0  0  0  0  0
  -21.0874   -8.8781   19.8947 H   0  0  0  0  0  0
  -22.3761  -10.9659   19.6163 H   0  0  0  0  0  0
  -21.2004   -7.6148   23.9716 H   0  0  0  0  0  0
  -21.1482   -6.0521   25.9078 H   0  0  0  0  0  0
  -22.0598   -2.7606   23.2844 H   0  0  0  0  0  0
  -22.4012  -11.9784   22.4893 H   0  0  0  0  0  0
  -21.0969  -13.1096   22.2679 H   0  0  0  0  0  0
  -24.5561  -15.8132   20.4702 H   0  0  0  0  0  0
  -26.1598  -15.6340   19.9693 H   0  0  0  0  0  0
  -26.7512  -32.4934   23.0764 H   0  0  0  0  0  0
  -25.0088  -33.9325   25.0050 H   0  0  0  0  0  0
  -22.8391  -31.2359   21.3106 H   0  0  0  0  0  0
  -23.3774  -35.9451   23.3256 H   0  0  0  0  0  0
  -24.3565  -36.8861   22.2077 H   0  0  0  0  0  0
  -23.7228  -37.6296   23.6763 H   0  0  0  0  0  0
  -26.2971  -31.2512   20.6265 H   0  0  0  0  0  0
  -26.9449  -30.5976   22.0823 H   0  0  0  0  0  0
  -28.1649  -28.3697   21.3346 H   0  0  0  0  0  0
  -25.8483  -25.6147   18.9939 H   0  0  0  0  0  0
  -24.0452  -27.2157   18.9208 H   0  0  0  0  0  0
  -23.9434  -30.4516   19.3758 H   0  0  0  0  0  0
  -22.8744  -29.1578   19.8159 H   0  0  0  0  0  0
  -25.1351  -36.1636   25.0770 H   0  0  0  0  0  0
  -21.0064  -28.3407   24.1262 H   0  0  0  0  0  0
  -20.5663  -26.2413   23.3665 H   0  0  0  0  0  0
  -21.6667  -26.7378   22.1221 H   0  0  0  0  0  0
  -19.6933  -25.6262   21.1296 H   0  0  0  0  0  0
  -19.6723  -27.3142   20.6716 H   0  0  0  0  0  0
  -17.4232  -26.6699   21.4021 H   0  0  0  0  0  0
  -18.0349  -26.0116   22.9033 H   0  0  0  0  0  0
  -19.7989  -30.7353   24.2154 H   0  0  0  0  0  0
  -17.5053  -31.6281   24.5166 H   0  0  0  0  0  0
  -15.5388  -30.2964   23.7726 H   0  0  0  0  0  0
  -15.8722  -28.0806   22.7120 H   0  0  0  0  0  0
  -24.5871  -30.7163   25.7585 H   0  0  0  0  0  0
  -24.8842  -32.3057   26.4511 H   0  0  0  0  0  0
  -25.7839  -30.9114   27.0198 H   0  0  0  0  0  0
  -26.3265  -29.6447   24.1571 H   0  0  0  0  0  0
  -27.3965  -29.7286   25.5325 H   0  0  0  0  0  0
  -27.9246  -30.3963   24.0121 H   0  0  0  0  0  0
  -27.2603  -33.3738   26.1859 H   0  0  0  0  0  0
  -28.3979  -32.6792   25.0404 H   0  0  0  0  0  0
  -28.0601  -31.8624   26.5584 H   0  0  0  0  0  0
  -28.2532  -38.0061   24.7526 H   0  0  0  0  0  0
  -28.1095  -36.2583   24.6268 H   0  0  0  0  0  0
  -27.2282  -37.1335   25.8868 H   0  0  0  0  0  0
  -20.9727  -29.8684   21.6517 H   0  0  0  0  0  0
  -26.0080  -38.2693   24.1441 H   0  0  0  0  0  0
  -27.0149  -21.0831   21.4021 H   0  0  0  0  0  0
  -31.0301  -19.6842   19.1555 H   0  0  0  0  0  0
  -26.5386  -18.2414   21.1344 H   0  0  0  0  0  0
  -27.4294  -18.4518   22.6322 H   0  0  0  0  0  0
  -27.6059  -16.2057   20.7871 H   0  0  0  0  0  0
  -28.5026  -16.4092   22.2815 H   0  0  0  0  0  0
  -26.9328  -23.6102   20.3928 H   0  0  0  0  0  0
  -27.8163  -23.7325   18.9347 H   0  0  0  0  0  0
  1 25  1  0  0  0
  1 30  2  0  0  0
  1 80  1  0  0  0
  2  3  1  0  0  0
  2 25  1  0  0  0
  2 81  1  0  0  0
  2 82  1  0  0  0
  3  4  1  0  0  0
  3 83  1  0  0  0
  3 84  1  0  0  0
  4  5  1  0  0  0
  4 85  1  0  0  0
  4 86  1  0  0  0
  5  6  1  0  0  0
  5 26  1  0  0  0
  5 87  1  0  0  0
  6 25  1  0  0  0
  6 88  1  0  0  0
  6 89  1  0  0  0
  7  8  2  0  0  0
  7 26  1  0  0  0
  7 29  1  0  0  0
  8  9  1  0  0  0
  8 22  1  0  0  0
  9 10  1  0  0  0
  9 27  2  0  0  0
 10 11  2  0  0  0
 10 15  1  0  0  0
 11 12  1  0  0  0
 11 90  1  0  0  0
 12 13  2  0  0  0
 12 91  1  0  0  0
 13 14  1  0  0  0
 13 31  1  0  0  0
 14 15  2  0  0  0
 14 92  1  0  0  0
 15 93  1  0  0  0
 16 17  2  0  0  0
 16 21  1  0  0  0
 16 31  1  0  0  0
 17 18  1  0  0  0
 17 94  1  0  0  0
 18 19  2  0  0  0
 18 95  1  0  0  0
 19 20  1  0  0  0
 19 24  1  0  0  0
 20 21  2  0  0  0
 20 96  1  0  0  0
 21 23  1  0  0  0
 22 28  1  0  0  0
 22 32  2  0  0  0
 26 27  1  0  0  0
 28 97  1  0  0  0
 28 98  1  0  0  0
 29 99  1  0  0  0
 29100  1  0  0  0
 33 34  1  0  0  0
 33 66  1  0  0  0
 33 70  2  0  0  0
 34 36  1  0  0  0
 34 59  1  0  0  0
 34101  1  0  0  0
 35 44  2  0  0  0
 35 45  1  0  0  0
 35 68  1  0  0  0
 36 56  1  0  0  0
 36102  1  0  0  0
 37 39  1  0  0  0
 37 47  1  0  0  0
 37 66  1  0  0  0
 37103  1  0  0  0
 38 43  2  0  0  0
 38 46  1  0  0  0
 38 47  1  0  0  0
 39 64  1  0  0  0
 39 67  2  0  0  0
 40 52  1  0  0  0
 40 53  2  0  0  0
 40 58  1  0  0  0
 41104  1  0  0  0
 41105  1  0  0  0
 41106  1  0  0  0
 41 48  1  0  0  0
 42 43  1  0  0  0
 42 66  1  0  0  0
 42107  1  0  0  0
 42108  1  0  0  0
 43 44  1  0  0  0
 44109  1  0  0  0
 45 46  2  0  0  0
 45110  1  0  0  0
 46111  1  0  0  0
 47112  1  0  0  0
 47113  1  0  0  0
 48 56  1  0  0  0
 48 65  1  0  0  0
 48114  1  0  0  0
 49 50  1  0  0  0
 49 53  1  0  0  0
 49 64  1  0  0  0
 49115  1  0  0  0
 50 51  1  0  0  0
 50116  1  0  0  0
 50117  1  0  0  0
 51 52  1  0  0  0
 51118  1  0  0  0
 51119  1  0  0  0
 52120  1  0  0  0
 52121  1  0  0  0
 53 54  1  0  0  0
 54 55  2  0  0  0
 54122  1  0  0  0
 55 57  1  0  0  0
 55123  1  0  0  0
 56 69  2  0  0  0
 57 58  2  0  0  0
 57124  1  0  0  0
 58125  1  0  0  0
 59 60  1  0  0  0
 59 61  1  0  0  0
 59 62  1  0  0  0
 60126  1  0  0  0
 60127  1  0  0  0
 60128  1  0  0  0
 61129  1  0  0  0
 61130  1  0  0  0
 61131  1  0  0  0
 62132  1  0  0  0
 62133  1  0  0  0
 62134  1  0  0  0
 63 65  1  0  0  0
 63135  1  0  0  0
 63136  1  0  0  0
 63137  1  0  0  0
 64138  1  0  0  0
 65139  1  0  0  0
 68 78  1  0  0  0
 71 73  2  0  0  0
 71 75  1  0  0  0
 71140  1  0  0  0
 72 74  2  0  0  0
 72 79  1  0  0  0
 72141  1  0  0  0
 73 74  1  0  0  0
 73 76  1  0  0  0
 74 80  1  0  0  0
 75 78  1  0  0  0
 75 79  2  0  0  0
 76 77  1  0  0  0
 76142  1  0  0  0
 76143  1  0  0  0
 77 80  1  0  0  0
 77144  1  0  0  0
 77145  1  0  0  0
 78146  1  0  0  0
 78147  1  0  0  0
M  ISO  4   1 100  68 101  78 101  80 100
M  END
> <chiral flag>
0

> <version>
0

> <s_m_source_file>
/data/baiqing/PycharmProjects/Reinvent-master-3.2/result/LINK_invent/BTK/process_docking_weight1_custom_sum_contain_oxygen_bond_distance_aromatic_linkinvent_7_9_3/rearranged_h_0182.sdf

> <i_m_source_file_index>
94

> <r_mmod_Potential_Energy-OPLS-2005>
2426.48510742188

> <r_mmod_Stretch_Energy-OPLS-2005>
956.960083007812

> <r_mmod_Bend_Energy-OPLS-2005>
765.493408203125

> <r_mmod_Torsional_Energy-OPLS-2005>
282.732055664062

> <r_mmod_Improper_Torsional_Energy-OPLS-2005>
6.44434690475464

> <r_mmod_Van_der_Waal_Energy-OPLS-2005>
133.418365478516

> <r_mmod_Electrostatic_Energy-OPLS-2005>
-409.380035400391

> <r_mmod_Solvation_Energy-OPLS-2005>
-223.012893676758

> <b_mmod_Minimization_Converged-OPLS-2005>
0

> <r_mmod_RMS_Derivative-OPLS-2005>
0.590152621269226

$$$$
94
                    3D
 Structure written by MMmdl.
152161  0  0  1  0            999 V2000
  -30.5752  -14.8995   20.4268 C   0  0  0  0  0  0
  -30.4336  -12.5586   19.4880 C   0  0  0  0  0  0
  -29.5142  -12.5175   18.2471 C   0  0  0  0  0  0
  -28.0467  -12.3141   18.6680 C   0  0  0  0  0  0
  -27.6291  -13.2457   19.8365 C   0  0  2  0  0  0
  -28.6738  -13.2661   20.9719 C   0  0  0  0  0  0
  -25.2460  -13.8214   20.5712 C   0  0  0  0  0  0
  -24.1776  -13.0439   20.9232 C   0  0  0  0  0  0
  -24.6390  -11.6924   20.8760 C   0  0  0  0  0  0
  -23.9075  -10.4293   21.0411 C   0  0  0  0  0  0
  -24.3624   -9.4207   21.9187 C   0  0  0  0  0  0
  -23.6298   -8.2242   22.0754 C   0  0  0  0  0  0
  -22.4279   -8.0282   21.3544 C   0  0  0  0  0  0
  -21.9918   -9.0256   20.4646 C   0  0  0  0  0  0
  -22.7249  -10.2134   20.3058 C   0  0  0  0  0  0
  -21.6854   -6.0736   22.5279 C   0  0  0  0  0  0
  -21.4014   -6.5640   23.8213 C   0  0  0  0  0  0
  -21.3659   -5.6792   24.9175 C   0  0  0  0  0  0
  -21.6045   -4.3055   24.7225 C   0  0  0  0  0  0
  -21.8819   -3.8147   23.4346 C   0  0  0  0  0  0
  -21.9193   -4.6964   22.3403 C   0  0  0  0  0  0
  -22.7796  -13.5210   21.1886 C   0  0  0  0  0  0
  -22.1662   -4.2150   21.0980 F   0  0  0  0  0  0
  -21.5629   -3.4538   25.7738 F   0  0  0  0  0  0
  -29.9518  -13.6590   20.3676 N   0  0  0  0  0  0
  -26.2883  -12.9443   20.3246 N   0  0  0  0  0  0
  -25.9321  -11.6575   20.5746 N   0  0  0  0  0  0
  -22.0447  -12.8194   22.0439 N   0  0  0  0  0  0
  -25.4121  -15.1942   20.4125 N   0  0  0  0  0  0
  -31.7835  -14.9408   20.1776 O   0  0  0  0  0  0
  -21.6642   -6.8880   21.4241 O   0  0  0  0  0  0
  -22.3480  -14.5514   20.6731 O   0  0  0  0  0  0
  -24.6417  -31.8460   23.1897 C   0  0  0  0  0  0
  -25.9198  -32.4706   23.8278 C   0  0  1  0  0  0
  -27.2142  -27.1543   20.1465 C   0  0  0  0  0  0
  -25.5952  -33.8511   24.2197 N   0  0  0  0  0  0
  -23.4436  -30.4664   21.5356 C   0  0  2  0  0  0
  -24.8912  -28.8959   20.1120 C   0  0  0  0  0  0
  -22.7556  -29.4558   22.4872 C   0  0  0  0  0  0
  -18.0302  -28.1395   22.8480 C   0  0  0  0  0  0
  -24.1491  -36.7257   23.2642 C   0  0  0  0  0  0
  -25.9985  -30.7260   21.3848 C   0  0  0  0  0  0
  -26.0693  -29.3390   20.7263 C   0  0  0  0  0  0
  -27.2330  -28.4849   20.7245 C   0  0  0  0  0  0
  -26.0080  -26.8071   19.4986 C   0  0  0  0  0  0
  -24.8724  -27.6429   19.4832 C   0  0  0  0  0  0
  -23.6680  -29.7965   20.1547 C   0  0  0  0  0  0
  -25.4123  -36.3038   24.0317 C   0  0  1  0  0  0
  -20.5913  -28.3718   23.1242 C   0  0  2  0  0  0
  -20.6788  -26.9425   22.5404 C   0  0  0  0  0  0
  -19.5761  -26.6385   21.5212 C   0  0  0  0  0  0
  -18.1943  -26.7935   22.1625 C   0  0  0  0  0  0
  -19.1558  -28.8875   23.2854 C   0  0  0  0  0  0
  -18.9475  -30.1471   23.8879 C   0  0  0  0  0  0
  -17.6471  -30.6593   24.0560 C   0  0  0  0  0  0
  -25.9073  -34.9413   23.5065 C   0  0  0  0  0  0
  -16.5363  -29.9086   23.6337 C   0  0  0  0  0  0
  -16.7287  -28.6504   23.0359 C   0  0  0  0  0  0
  -26.4524  -31.6569   25.0713 C   0  0  0  0  0  0
  -25.3713  -31.3751   26.1411 C   0  0  0  0  0  0
  -27.0387  -30.2968   24.6279 C   0  0  0  0  0  0
  -27.6054  -32.4333   25.7500 C   0  0  0  0  0  0
  -27.5574  -37.1786   24.8467 C   0  0  0  0  0  0
  -21.4251  -29.3048   22.3617 N   0  0  0  0  0  0
  -26.4286  -37.3750   23.9408 N   0  0  0  0  0  0
  -24.7145  -31.0334   22.0920 N   0  0  0  0  0  0
  -23.4209  -28.8107   23.3016 O   0  0  0  0  0  0
  -28.2793  -26.1890   20.1993 O   0  0  0  0  0  0
  -26.5656  -34.8908   22.4642 O   0  0  0  0  0  0
  -23.5542  -32.1327   23.7131 O   0  0  0  0  0  0
  -28.4753  -20.9212   21.2266 C   0  0  0  0  0  0
  -29.0780  -21.8569   20.3317 C   0  0  0  0  0  0
  -29.9700  -21.1986   19.4833 C   0  0  0  0  0  0
  -29.6731  -19.0144   20.3741 C   0  0  0  0  0  0
  -30.7337  -22.2009   18.6564 C   0  0  0  0  0  0
  -30.1122  -23.5928   18.9939 C   0  0  0  0  0  0
  -29.1949  -23.4836   20.2467 C   0  0  1  0  0  0
  -30.3946  -17.5586   20.6315 C   0  0  0  0  0  0
  -28.0108  -24.6601   20.1796 C   0  0  0  0  0  0
  -28.7808  -19.5576   21.2413 N   0  0  0  0  0  0
  -30.2598  -19.8501   19.4846 N   0  0  0  0  0  0
  -29.8426  -16.0993   20.5609 N   0  0  0  0  0  0
  -31.4691  -12.7034   19.1761 H   0  0  0  0  0  0
  -30.4133  -11.6055   20.0189 H   0  0  0  0  0  0
  -29.8243  -11.7192   17.5714 H   0  0  0  0  0  0
  -29.6105  -13.4490   17.6870 H   0  0  0  0  0  0
  -27.9360  -11.2725   18.9718 H   0  0  0  0  0  0
  -27.3830  -12.4537   17.8139 H   0  0  0  0  0  0
  -27.5954  -14.2495   19.4121 H   0  0  0  0  0  0
  -28.7513  -12.2911   21.4550 H   0  0  0  0  0  0
  -28.3838  -13.9759   21.7482 H   0  0  0  0  0  0
  -25.2767   -9.5684   22.4765 H   0  0  0  0  0  0
  -24.0007   -7.4632   22.7472 H   0  0  0  0  0  0
  -21.0850   -8.8776   19.8950 H   0  0  0  0  0  0
  -22.3707  -10.9675   19.6169 H   0  0  0  0  0  0
  -21.2006   -7.6148   23.9716 H   0  0  0  0  0  0
  -21.1481   -6.0522   25.9078 H   0  0  0  0  0  0
  -22.0598   -2.7609   23.2846 H   0  0  0  0  0  0
  -22.4072  -11.9860   22.4828 H   0  0  0  0  0  0
  -21.1061  -13.1209   22.2643 H   0  0  0  0  0  0
  -24.6412  -15.8440   20.5230 H   0  0  0  0  0  0
  -26.2516  -15.6353   20.0607 H   0  0  0  0  0  0
  -26.7261  -32.5317   23.1007 H   0  0  0  0  0  0
  -25.0083  -33.9629   25.0333 H   0  0  0  0  0  0
  -22.7453  -31.2918   21.3828 H   0  0  0  0  0  0
  -23.3759  -35.9583   23.3297 H   0  0  0  0  0  0
  -24.3576  -36.8896   22.2058 H   0  0  0  0  0  0
  -23.7240  -37.6449   23.6683 H   0  0  0  0  0  0
  -26.1516  -31.4815   20.6130 H   0  0  0  0  0  0
  -26.8702  -30.7757   22.0258 H   0  0  0  0  0  0
  -28.1326  -28.8209   21.2209 H   0  0  0  0  0  0
  -25.9050  -25.8538   19.0052 H   0  0  0  0  0  0
  -23.9729  -27.2989   18.9913 H   0  0  0  0  0  0
  -23.8033  -30.5707   19.3985 H   0  0  0  0  0  0
  -22.7828  -29.2378   19.8453 H   0  0  0  0  0  0
  -25.1312  -36.1866   25.0809 H   0  0  0  0  0  0
  -21.0006  -28.3305   24.1364 H   0  0  0  0  0  0
  -20.5682  -26.2331   23.3620 H   0  0  0  0  0  0
  -21.6653  -26.7436   22.1200 H   0  0  0  0  0  0
  -19.6923  -25.6292   21.1253 H   0  0  0  0  0  0
  -19.6696  -27.3186   20.6733 H   0  0  0  0  0  0
  -17.4211  -26.6679   21.4030 H   0  0  0  0  0  0
  -18.0343  -26.0081   22.9026 H   0  0  0  0  0  0
  -19.7951  -30.7293   24.2240 H   0  0  0  0  0  0
  -17.5026  -31.6271   24.5165 H   0  0  0  0  0  0
  -15.5362  -30.2981   23.7673 H   0  0  0  0  0  0
  -15.8688  -28.0815   22.7088 H   0  0  0  0  0  0
  -24.5901  -30.7089   25.7731 H   0  0  0  0  0  0
  -24.8890  -32.2930   26.4781 H   0  0  0  0  0  0
  -25.8000  -30.8962   27.0223 H   0  0  0  0  0  0
  -26.2999  -29.6695   24.1279 H   0  0  0  0  0  0
  -27.4001  -29.7263   25.4845 H   0  0  0  0  0  0
  -27.8907  -30.4212   23.9592 H   0  0  0  0  0  0
  -27.2646  -33.3651   26.2025 H   0  0  0  0  0  0
  -28.3894  -32.6864   25.0350 H   0  0  0  0  0  0
  -28.0691  -31.8493   26.5462 H   0  0  0  0  0  0
  -28.2588  -38.0085   24.7510 H   0  0  0  0  0  0
  -28.1074  -36.2615   24.6300 H   0  0  0  0  0  0
  -27.2292  -37.1439   25.8870 H   0  0  0  0  0  0
  -20.9458  -29.8759   21.6796 H   0  0  0  0  0  0
  -26.0154  -38.2819   24.1411 H   0  0  0  0  0  0
  -27.8074  -21.2665   22.0017 H   0  0  0  0  0  0
  -30.6602  -21.9696   17.5935 H   0  0  0  0  0  0
  -31.7862  -22.1679   18.9388 H   0  0  0  0  0  0
  -29.4931  -23.8799   18.1431 H   0  0  0  0  0  0
  -30.8657  -24.3742   19.0954 H   0  0  0  0  0  0
  -29.7990  -23.7340   21.1198 H   0  0  0  0  0  0
  -30.8253  -17.6421   21.6293 H   0  0  0  0  0  0
  -31.2642  -17.5614   19.9732 H   0  0  0  0  0  0
  -27.3288  -24.4719   21.0094 H   0  0  0  0  0  0
  -27.4380  -24.4372   19.2812 H   0  0  0  0  0  0
  -28.8456  -16.0159   20.6812 H   0  0  0  0  0  0
  1 25  1  0  0  0
  1 30  2  0  0  0
  1 82  1  0  0  0
  2  3  1  0  0  0
  2 25  1  0  0  0
  2 83  1  0  0  0
  2 84  1  0  0  0
  3  4  1  0  0  0
  3 85  1  0  0  0
  3 86  1  0  0  0
  4  5  1  0  0  0
  4 87  1  0  0  0
  4 88  1  0  0  0
  5  6  1  0  0  0
  5 26  1  0  0  0
  5 89  1  0  0  0
  6 25  1  0  0  0
  6 90  1  0  0  0
  6 91  1  0  0  0
  7  8  2  0  0  0
  7 26  1  0  0  0
  7 29  1  0  0  0
  8  9  1  0  0  0
  8 22  1  0  0  0
  9 10  1  0  0  0
  9 27  2  0  0  0
 10 11  2  0  0  0
 10 15  1  0  0  0
 11 12  1  0  0  0
 11 92  1  0  0  0
 12 13  2  0  0  0
 12 93  1  0  0  0
 13 14  1  0  0  0
 13 31  1  0  0  0
 14 15  2  0  0  0
 14 94  1  0  0  0
 15 95  1  0  0  0
 16 17  2  0  0  0
 16 21  1  0  0  0
 16 31  1  0  0  0
 17 18  1  0  0  0
 17 96  1  0  0  0
 18 19  2  0  0  0
 18 97  1  0  0  0
 19 20  1  0  0  0
 19 24  1  0  0  0
 20 21  2  0  0  0
 20 98  1  0  0  0
 21 23  1  0  0  0
 22 28  1  0  0  0
 22 32  2  0  0  0
 26 27  1  0  0  0
 28 99  1  0  0  0
 28100  1  0  0  0
 29101  1  0  0  0
 29102  1  0  0  0
 33 34  1  0  0  0
 33 66  1  0  0  0
 33 70  2  0  0  0
 34 36  1  0  0  0
 34 59  1  0  0  0
 34103  1  0  0  0
 35 44  2  0  0  0
 35 45  1  0  0  0
 35 68  1  0  0  0
 36 56  1  0  0  0
 36104  1  0  0  0
 37 39  1  0  0  0
 37 47  1  0  0  0
 37 66  1  0  0  0
 37105  1  0  0  0
 38 43  2  0  0  0
 38 46  1  0  0  0
 38 47  1  0  0  0
 39 64  1  0  0  0
 39 67  2  0  0  0
 40 52  1  0  0  0
 40 53  2  0  0  0
 40 58  1  0  0  0
 41106  1  0  0  0
 41107  1  0  0  0
 41108  1  0  0  0
 41 48  1  0  0  0
 42 43  1  0  0  0
 42 66  1  0  0  0
 42109  1  0  0  0
 42110  1  0  0  0
 43 44  1  0  0  0
 44111  1  0  0  0
 45 46  2  0  0  0
 45112  1  0  0  0
 46113  1  0  0  0
 47114  1  0  0  0
 47115  1  0  0  0
 48 56  1  0  0  0
 48 65  1  0  0  0
 48116  1  0  0  0
 49 50  1  0  0  0
 49 53  1  0  0  0
 49 64  1  0  0  0
 49117  1  0  0  0
 50 51  1  0  0  0
 50118  1  0  0  0
 50119  1  0  0  0
 51 52  1  0  0  0
 51120  1  0  0  0
 51121  1  0  0  0
 52122  1  0  0  0
 52123  1  0  0  0
 53 54  1  0  0  0
 54 55  2  0  0  0
 54124  1  0  0  0
 55 57  1  0  0  0
 55125  1  0  0  0
 56 69  2  0  0  0
 57 58  2  0  0  0
 57126  1  0  0  0
 58127  1  0  0  0
 59 60  1  0  0  0
 59 61  1  0  0  0
 59 62  1  0  0  0
 60128  1  0  0  0
 60129  1  0  0  0
 60130  1  0  0  0
 61131  1  0  0  0
 61132  1  0  0  0
 61133  1  0  0  0
 62134  1  0  0  0
 62135  1  0  0  0
 62136  1  0  0  0
 63 65  1  0  0  0
 63137  1  0  0  0
 63138  1  0  0  0
 63139  1  0  0  0
 64140  1  0  0  0
 65141  1  0  0  0
 68 79  1  0  0  0
 71 72  2  0  0  0
 71 80  1  0  0  0
 71142  1  0  0  0
 72 73  1  0  0  0
 72 77  1  0  0  0
 73 75  1  0  0  0
 73 81  2  0  0  0
 74 78  1  0  0  0
 74 80  2  0  0  0
 74 81  1  0  0  0
 75 76  1  0  0  0
 75143  1  0  0  0
 75144  1  0  0  0
 76 77  1  0  0  0
 76145  1  0  0  0
 76146  1  0  0  0
 77 79  1  0  0  0
 77147  1  0  0  0
 78 82  1  0  0  0
 78148  1  0  0  0
 78149  1  0  0  0
 79150  1  0  0  0
 79151  1  0  0  0
 82152  1  0  0  0
M  ISO  4   1 100  68 101  79 101  82 100
M  END
> <chiral flag>
0

> <version>
0

> <s_m_source_file>
/data/baiqing/PycharmProjects/Reinvent-master-3.2/result/LINK_invent/BTK/process_docking_weight1_custom_sum_contain_oxygen_bond_distance_aromatic_linkinvent_7_9_3/rearranged_h_0182.sdf

> <i_m_source_file_index>
95

> <r_mmod_Potential_Energy-OPLS-2005>
-98.4305725097656

> <r_mmod_Stretch_Energy-OPLS-2005>
199.514083862305

> <r_mmod_Bend_Energy-OPLS-2005>
303.034118652344

> <r_mmod_Torsional_Energy-OPLS-2005>
230.228454589844

> <r_mmod_Improper_Torsional_Energy-OPLS-2005>
10.1333284378052

> <r_mmod_Van_der_Waal_Energy-OPLS-2005>
138.111541748047

> <r_mmod_Electrostatic_Energy-OPLS-2005>
-907.502807617188

> <r_mmod_Solvation_Energy-OPLS-2005>
-238.552368164062

> <b_mmod_Minimization_Converged-OPLS-2005>
0

> <r_mmod_RMS_Derivative-OPLS-2005>
0.195873335003853

$$$$
96
                    3D
 Structure written by MMmdl.
152161  0  0  1  0            999 V2000
  -30.3976  -15.3844   20.3264 C   0  0  0  0  0  0
  -30.4308  -12.8817   19.5464 C   0  0  0  0  0  0
  -29.5394  -12.5981   18.3092 C   0  0  0  0  0  0
  -28.0991  -12.2894   18.7428 C   0  0  0  0  0  0
  -27.6059  -13.2839   19.8201 C   0  0  2  0  0  0
  -28.6287  -13.5167   20.9545 C   0  0  0  0  0  0
  -25.2366  -13.8257   20.5758 C   0  0  0  0  0  0
  -24.1723  -13.0439   20.9258 C   0  0  0  0  0  0
  -24.6402  -11.6939   20.8745 C   0  0  0  0  0  0
  -23.9082  -10.4296   21.0401 C   0  0  0  0  0  0
  -24.3641   -9.4203   21.9160 C   0  0  0  0  0  0
  -23.6318   -8.2239   22.0732 C   0  0  0  0  0  0
  -22.4299   -8.0285   21.3535 C   0  0  0  0  0  0
  -21.9929   -9.0252   20.4636 C   0  0  0  0  0  0
  -22.7253  -10.2133   20.3042 C   0  0  0  0  0  0
  -21.6860   -6.0729   22.5278 C   0  0  0  0  0  0
  -21.4024   -6.5633   23.8213 C   0  0  0  0  0  0
  -21.3665   -5.6782   24.9175 C   0  0  0  0  0  0
  -21.6041   -4.3047   24.7217 C   0  0  0  0  0  0
  -21.8819   -3.8144   23.4340 C   0  0  0  0  0  0
  -21.9196   -4.6959   22.3397 C   0  0  0  0  0  0
  -22.7741  -13.5189   21.1915 C   0  0  0  0  0  0
  -22.1661   -4.2154   21.0974 F   0  0  0  0  0  0
  -21.5632   -3.4522   25.7724 F   0  0  0  0  0  0
  -29.8536  -14.0510   20.3298 N   0  0  0  0  0  0
  -26.2785  -12.9541   20.3203 N   0  0  0  0  0  0
  -25.9341  -11.6639   20.5704 N   0  0  0  0  0  0
  -22.0409  -12.8172   22.0481 N   0  0  0  0  0  0
  -25.4019  -15.1980   20.4211 N   0  0  0  0  0  0
  -31.6151  -15.3426   20.0720 O   0  0  0  0  0  0
  -21.6656   -6.8885   21.4251 O   0  0  0  0  0  0
  -22.3411  -14.5481   20.6728 O   0  0  0  0  0  0
  -24.6690  -31.8170   23.1656 C   0  0  0  0  0  0
  -25.9343  -32.4550   23.8138 C   0  0  1  0  0  0
  -27.2186  -26.8581   20.1929 C   0  0  0  0  0  0
  -25.5987  -33.8369   24.2033 N   0  0  0  0  0  0
  -23.4869  -30.4243   21.5159 C   0  0  2  0  0  0
  -24.9429  -28.7992   20.1076 C   0  0  0  0  0  0
  -22.7697  -29.4403   22.4767 C   0  0  0  0  0  0
  -18.0330  -28.1418   22.8461 C   0  0  0  0  0  0
  -24.1502  -36.7193   23.2649 C   0  0  0  0  0  0
  -26.0585  -30.5999   21.4078 C   0  0  0  0  0  0
  -26.1247  -29.1829   20.7509 C   0  0  0  0  0  0
  -27.2524  -28.2340   20.7678 C   0  0  0  0  0  0
  -26.0108  -26.6483   19.4859 C   0  0  0  0  0  0
  -24.9157  -27.5561   19.4529 C   0  0  0  0  0  0
  -23.7308  -29.7347   20.1431 C   0  0  0  0  0  0
  -25.4146  -36.2949   24.0295 C   0  0  1  0  0  0
  -20.5954  -28.3763   23.1184 C   0  0  2  0  0  0
  -20.6803  -26.9427   22.5425 C   0  0  0  0  0  0
  -19.5795  -26.6367   21.5236 C   0  0  0  0  0  0
  -18.1966  -26.7948   22.1610 C   0  0  0  0  0  0
  -19.1589  -28.8919   23.2807 C   0  0  0  0  0  0
  -18.9493  -30.1504   23.8855 C   0  0  0  0  0  0
  -17.6480  -30.6602   24.0554 C   0  0  0  0  0  0
  -25.9114  -34.9331   23.4987 C   0  0  0  0  0  0
  -16.5376  -29.9082   23.6345 C   0  0  0  0  0  0
  -16.7311  -28.6508   23.0360 C   0  0  0  0  0  0
  -26.4575  -31.6524   25.0693 C   0  0  0  0  0  0
  -25.3673  -31.3805   26.1328 C   0  0  0  0  0  0
  -27.0473  -30.2874   24.6487 C   0  0  0  0  0  0
  -27.6067  -32.4337   25.7490 C   0  0  0  0  0  0
  -27.5582  -37.1751   24.8460 C   0  0  0  0  0  0
  -21.4356  -29.3029   22.3515 N   0  0  0  0  0  0
  -26.4289  -37.3688   23.9398 N   0  0  0  0  0  0
  -24.7599  -30.9757   22.0832 N   0  0  0  0  0  0
  -23.4207  -28.7987   23.3052 O   0  0  0  0  0  0
  -28.2073  -25.7210   20.3213 O   0  0  0  0  0  0
  -26.5731  -34.8877   22.4589 O   0  0  0  0  0  0
  -23.5740  -32.1179   23.6706 O   0  0  0  0  0  0
  -29.7527  -20.7931   18.7785 C   0  0  0  0  0  0
  -30.2759  -19.5901   18.2453 C   0  0  0  0  0  0
  -29.1284  -20.8311   20.0314 C   0  0  0  0  0  0
  -29.6892  -18.2125   20.0591 C   0  0  0  0  0  0
  -30.5419  -20.5354   15.7862 C   0  0  0  0  0  0
  -30.1252  -19.0872   15.6951 C   0  0  0  0  0  0
  -30.9176  -19.5686   16.8882 C   0  0  0  0  0  0
  -28.7032  -22.4545   20.6420 C   0  0  0  0  0  0
  -28.1439  -24.0745   19.9334 C   0  0  0  0  0  0
  -30.2443  -18.3780   18.8631 N   0  0  0  0  0  0
  -29.1288  -19.4551   20.6280 N   0  0  0  0  0  0
  -29.6534  -16.6902   20.5052 N   0  0  0  0  0  0
  -31.4496  -13.0795   19.2113 H   0  0  0  0  0  0
  -30.5084  -11.9942   20.1768 H   0  0  0  0  0  0
  -29.9451  -11.7670   17.7289 H   0  0  0  0  0  0
  -29.5432  -13.4698   17.6522 H   0  0  0  0  0  0
  -28.0918  -11.2771   19.1508 H   0  0  0  0  0  0
  -27.4276  -12.2783   17.8828 H   0  0  0  0  0  0
  -27.5053  -14.2312   19.2899 H   0  0  0  0  0  0
  -28.8192  -12.5994   21.5153 H   0  0  0  0  0  0
  -28.2405  -14.2450   21.6681 H   0  0  0  0  0  0
  -25.2781   -9.5678   22.4733 H   0  0  0  0  0  0
  -24.0014   -7.4633   22.7436 H   0  0  0  0  0  0
  -21.0851   -8.8760   19.8954 H   0  0  0  0  0  0
  -22.3687  -10.9661   19.6155 H   0  0  0  0  0  0
  -21.2020   -7.6148   23.9721 H   0  0  0  0  0  0
  -21.1490   -6.0512   25.9077 H   0  0  0  0  0  0
  -22.0597   -2.7606   23.2834 H   0  0  0  0  0  0
  -22.4069  -11.9876   22.4895 H   0  0  0  0  0  0
  -21.1019  -13.1162   22.2678 H   0  0  0  0  0  0
  -24.6311  -15.8483   20.5338 H   0  0  0  0  0  0
  -26.2410  -15.6383   20.0672 H   0  0  0  0  0  0
  -26.7404  -32.5072   23.0848 H   0  0  0  0  0  0
  -25.0062  -33.9445   25.0136 H   0  0  0  0  0  0
  -22.8028  -31.2585   21.3400 H   0  0  0  0  0  0
  -23.3782  -35.9507   23.3280 H   0  0  0  0  0  0
  -24.3572  -36.8877   22.2067 H   0  0  0  0  0  0
  -23.7248  -37.6362   23.6734 H   0  0  0  0  0  0
  -26.2489  -31.3396   20.6293 H   0  0  0  0  0  0
  -26.9137  -30.6572   22.0692 H   0  0  0  0  0  0
  -28.1426  -28.5221   21.3076 H   0  0  0  0  0  0
  -25.8706  -25.7021   18.9843 H   0  0  0  0  0  0
  -24.0202  -27.2610   18.9237 H   0  0  0  0  0  0
  -23.8894  -30.5021   19.3846 H   0  0  0  0  0  0
  -22.8392  -29.1927   19.8254 H   0  0  0  0  0  0
  -25.1358  -36.1738   25.0787 H   0  0  0  0  0  0
  -21.0040  -28.3394   24.1312 H   0  0  0  0  0  0
  -20.5675  -26.2394   23.3683 H   0  0  0  0  0  0
  -21.6668  -26.7405   22.1251 H   0  0  0  0  0  0
  -19.6945  -25.6263   21.1315 H   0  0  0  0  0  0
  -19.6745  -27.3139   20.6736 H   0  0  0  0  0  0
  -17.4243  -26.6716   21.3995 H   0  0  0  0  0  0
  -18.0321  -26.0107   22.9016 H   0  0  0  0  0  0
  -19.7961  -30.7330   24.2204 H   0  0  0  0  0  0
  -17.5026  -31.6273   24.5155 H   0  0  0  0  0  0
  -15.5368  -30.2955   23.7703 H   0  0  0  0  0  0
  -15.8710  -28.0799   22.7096 H   0  0  0  0  0  0
  -24.5890  -30.7124   25.7624 H   0  0  0  0  0  0
  -24.8831  -32.3015   26.4579 H   0  0  0  0  0  0
  -25.7877  -30.9081   27.0217 H   0  0  0  0  0  0
  -26.3150  -29.6523   24.1486 H   0  0  0  0  0  0
  -27.3953  -29.7273   25.5178 H   0  0  0  0  0  0
  -27.9118  -30.4017   23.9946 H   0  0  0  0  0  0
  -27.2646  -33.3685   26.1941 H   0  0  0  0  0  0
  -28.3942  -32.6817   25.0362 H   0  0  0  0  0  0
  -28.0668  -31.8547   26.5510 H   0  0  0  0  0  0
  -28.2583  -38.0060   24.7503 H   0  0  0  0  0  0
  -28.1095  -36.2590   24.6295 H   0  0  0  0  0  0
  -27.2301  -37.1398   25.8861 H   0  0  0  0  0  0
  -20.9634  -29.8672   21.6590 H   0  0  0  0  0  0
  -26.0141  -38.2750   24.1394 H   0  0  0  0  0  0
  -29.8711  -21.7178   18.2279 H   0  0  0  0  0  0
  -29.7557  -21.2636   15.9668 H   0  0  0  0  0  0
  -31.3299  -20.8657   15.1154 H   0  0  0  0  0  0
  -30.6315  -18.4605   14.9655 H   0  0  0  0  0  0
  -29.0711  -18.8664   15.8480 H   0  0  0  0  0  0
  -31.9648  -19.2737   16.9581 H   0  0  0  0  0  0
  -29.6114  -22.7225   21.1796 H   0  0  0  0  0  0
  -27.9919  -22.2398   21.4365 H   0  0  0  0  0  0
  -27.0963  -23.8972   19.6908 H   0  0  0  0  0  0
  -28.6245  -24.0825   18.9569 H   0  0  0  0  0  0
  -28.7814  -16.4993   20.9694 H   0  0  0  0  0  0
  1 25  1  0  0  0
  1 30  2  0  0  0
  1 82  1  0  0  0
  2  3  1  0  0  0
  2 25  1  0  0  0
  2 83  1  0  0  0
  2 84  1  0  0  0
  3  4  1  0  0  0
  3 85  1  0  0  0
  3 86  1  0  0  0
  4  5  1  0  0  0
  4 87  1  0  0  0
  4 88  1  0  0  0
  5  6  1  0  0  0
  5 26  1  0  0  0
  5 89  1  0  0  0
  6 25  1  0  0  0
  6 90  1  0  0  0
  6 91  1  0  0  0
  7  8  2  0  0  0
  7 26  1  0  0  0
  7 29  1  0  0  0
  8  9  1  0  0  0
  8 22  1  0  0  0
  9 10  1  0  0  0
  9 27  2  0  0  0
 10 11  2  0  0  0
 10 15  1  0  0  0
 11 12  1  0  0  0
 11 92  1  0  0  0
 12 13  2  0  0  0
 12 93  1  0  0  0
 13 14  1  0  0  0
 13 31  1  0  0  0
 14 15  2  0  0  0
 14 94  1  0  0  0
 15 95  1  0  0  0
 16 17  2  0  0  0
 16 21  1  0  0  0
 16 31  1  0  0  0
 17 18  1  0  0  0
 17 96  1  0  0  0
 18 19  2  0  0  0
 18 97  1  0  0  0
 19 20  1  0  0  0
 19 24  1  0  0  0
 20 21  2  0  0  0
 20 98  1  0  0  0
 21 23  1  0  0  0
 22 28  1  0  0  0
 22 32  2  0  0  0
 26 27  1  0  0  0
 28 99  1  0  0  0
 28100  1  0  0  0
 29101  1  0  0  0
 29102  1  0  0  0
 33 34  1  0  0  0
 33 66  1  0  0  0
 33 70  2  0  0  0
 34 36  1  0  0  0
 34 59  1  0  0  0
 34103  1  0  0  0
 35 44  2  0  0  0
 35 45  1  0  0  0
 35 68  1  0  0  0
 36 56  1  0  0  0
 36104  1  0  0  0
 37 39  1  0  0  0
 37 47  1  0  0  0
 37 66  1  0  0  0
 37105  1  0  0  0
 38 43  2  0  0  0
 38 46  1  0  0  0
 38 47  1  0  0  0
 39 64  1  0  0  0
 39 67  2  0  0  0
 40 52  1  0  0  0
 40 53  2  0  0  0
 40 58  1  0  0  0
 41106  1  0  0  0
 41107  1  0  0  0
 41108  1  0  0  0
 41 48  1  0  0  0
 42 43  1  0  0  0
 42 66  1  0  0  0
 42109  1  0  0  0
 42110  1  0  0  0
 43 44  1  0  0  0
 44111  1  0  0  0
 45 46  2  0  0  0
 45112  1  0  0  0
 46113  1  0  0  0
 47114  1  0  0  0
 47115  1  0  0  0
 48 56  1  0  0  0
 48 65  1  0  0  0
 48116  1  0  0  0
 49 50  1  0  0  0
 49 53  1  0  0  0
 49 64  1  0  0  0
 49117  1  0  0  0
 50 51  1  0  0  0
 50118  1  0  0  0
 50119  1  0  0  0
 51 52  1  0  0  0
 51120  1  0  0  0
 51121  1  0  0  0
 52122  1  0  0  0
 52123  1  0  0  0
 53 54  1  0  0  0
 54 55  2  0  0  0
 54124  1  0  0  0
 55 57  1  0  0  0
 55125  1  0  0  0
 56 69  2  0  0  0
 57 58  2  0  0  0
 57126  1  0  0  0
 58127  1  0  0  0
 59 60  1  0  0  0
 59 61  1  0  0  0
 59 62  1  0  0  0
 60128  1  0  0  0
 60129  1  0  0  0
 60130  1  0  0  0
 61131  1  0  0  0
 61132  1  0  0  0
 61133  1  0  0  0
 62134  1  0  0  0
 62135  1  0  0  0
 62136  1  0  0  0
 63 65  1  0  0  0
 63137  1  0  0  0
 63138  1  0  0  0
 63139  1  0  0  0
 64140  1  0  0  0
 65141  1  0  0  0
 68 79  1  0  0  0
 71 72  2  0  0  0
 71 73  1  0  0  0
 71142  1  0  0  0
 72 80  1  0  0  0
 72 77  1  0  0  0
 73 78  1  0  0  0
 73 81  2  0  0  0
 74 80  2  0  0  0
 74 81  1  0  0  0
 74 82  1  0  0  0
 75 76  1  0  0  0
 75 77  1  0  0  0
 75143  1  0  0  0
 75144  1  0  0  0
 76 77  1  0  0  0
 76145  1  0  0  0
 76146  1  0  0  0
 77147  1  0  0  0
 78 79  1  0  0  0
 78148  1  0  0  0
 78149  1  0  0  0
 79150  1  0  0  0
 79151  1  0  0  0
 82152  1  0  0  0
M  ISO  4   1 100  68 101  79 101  82 100
M  END
> <chiral flag>
0

> <version>
0

> <s_m_source_file>
/data/baiqing/PycharmProjects/Reinvent-master-3.2/result/LINK_invent/BTK/process_docking_weight1_custom_sum_contain_oxygen_bond_distance_aromatic_linkinvent_7_9_3/rearranged_h_0182.sdf

> <i_m_source_file_index>
96

> <r_mmod_Potential_Energy-OPLS-2005>
1157.78039550781

> <r_mmod_Stretch_Energy-OPLS-2005>
714.935729980469

> <r_mmod_Bend_Energy-OPLS-2005>
500.470245361328

> <r_mmod_Torsional_Energy-OPLS-2005>
246.979278564453

> <r_mmod_Improper_Torsional_Energy-OPLS-2005>
3.62215232849121

> <r_mmod_Van_der_Waal_Energy-OPLS-2005>
126.880554199219

> <r_mmod_Electrostatic_Energy-OPLS-2005>
-760.874572753906

> <r_mmod_Solvation_Energy-OPLS-2005>
-254.166641235352

> <b_mmod_Minimization_Converged-OPLS-2005>
0

> <r_mmod_RMS_Derivative-OPLS-2005>
3.40351438522339

$$$$
97
                    3D
 Structure written by MMmdl.
158168  0  0  1  0            999 V2000
  -30.4542  -15.2497   20.3792 C   0  0  0  0  0  0
  -30.4368  -12.8016   19.5174 C   0  0  0  0  0  0
  -29.5283  -12.5734   18.2833 C   0  0  0  0  0  0
  -28.0799  -12.2956   18.7186 C   0  0  0  0  0  0
  -27.6115  -13.2741   19.8235 C   0  0  2  0  0  0
  -28.6475  -13.4479   20.9546 C   0  0  0  0  0  0
  -25.2390  -13.8251   20.5758 C   0  0  0  0  0  0
  -24.1739  -13.0440   20.9262 C   0  0  0  0  0  0
  -24.6397  -11.6935   20.8780 C   0  0  0  0  0  0
  -23.9099  -10.4295   21.0419 C   0  0  0  0  0  0
  -24.3641   -9.4204   21.9194 C   0  0  0  0  0  0
  -23.6303   -8.2246   22.0757 C   0  0  0  0  0  0
  -22.4284   -8.0292   21.3547 C   0  0  0  0  0  0
  -21.9932   -9.0269   20.4646 C   0  0  0  0  0  0
  -22.7273  -10.2141   20.3060 C   0  0  0  0  0  0
  -21.6856   -6.0745   22.5278 C   0  0  0  0  0  0
  -21.4017   -6.5643   23.8213 C   0  0  0  0  0  0
  -21.3658   -5.6794   24.9172 C   0  0  0  0  0  0
  -21.6041   -4.3061   24.7219 C   0  0  0  0  0  0
  -21.8819   -3.8150   23.4343 C   0  0  0  0  0  0
  -21.9192   -4.6970   22.3402 C   0  0  0  0  0  0
  -22.7759  -13.5195   21.1906 C   0  0  0  0  0  0
  -22.1660   -4.2157   21.0985 F   0  0  0  0  0  0
  -21.5624   -3.4543   25.7734 F   0  0  0  0  0  0
  -29.8801  -13.9490   20.3244 N   0  0  0  0  0  0
  -26.2821  -12.9522   20.3239 N   0  0  0  0  0  0
  -25.9336  -11.6630   20.5745 N   0  0  0  0  0  0
  -22.0414  -12.8172   22.0455 N   0  0  0  0  0  0
  -25.4034  -15.1983   20.4188 N   0  0  0  0  0  0
  -31.6765  -15.2427   20.1783 O   0  0  0  0  0  0
  -21.6643   -6.8889   21.4244 O   0  0  0  0  0  0
  -22.3439  -14.5499   20.6750 O   0  0  0  0  0  0
  -24.6617  -31.8250   23.1699 C   0  0  0  0  0  0
  -25.9298  -32.4599   23.8158 C   0  0  1  0  0  0
  -27.2159  -26.9363   20.1859 C   0  0  0  0  0  0
  -25.5965  -33.8415   24.2063 N   0  0  0  0  0  0
  -23.4763  -30.4386   21.5195 C   0  0  2  0  0  0
  -24.9310  -28.8306   20.1090 C   0  0  0  0  0  0
  -22.7660  -29.4446   22.4759 C   0  0  0  0  0  0
  -18.0322  -28.1417   22.8458 C   0  0  0  0  0  0
  -24.1502  -36.7214   23.2649 C   0  0  0  0  0  0
  -26.0464  -30.6350   21.4015 C   0  0  0  0  0  0
  -26.1144  -29.2268   20.7445 C   0  0  0  0  0  0
  -27.2514  -28.3000   20.7600 C   0  0  0  0  0  0
  -26.0066  -26.6975   19.4925 C   0  0  0  0  0  0
  -24.9028  -27.5865   19.4613 C   0  0  0  0  0  0
  -23.7165  -29.7577   20.1442 C   0  0  0  0  0  0
  -25.4143  -36.2975   24.0301 C   0  0  1  0  0  0
  -20.5948  -28.3764   23.1184 C   0  0  2  0  0  0
  -20.6807  -26.9444   22.5402 C   0  0  0  0  0  0
  -19.5777  -26.6382   21.5219 C   0  0  0  0  0  0
  -18.1952  -26.7952   22.1620 C   0  0  0  0  0  0
  -19.1583  -28.8906   23.2814 C   0  0  0  0  0  0
  -18.9498  -30.1491   23.8862 C   0  0  0  0  0  0
  -17.6490  -30.6601   24.0558 C   0  0  0  0  0  0
  -25.9109  -34.9361   23.5007 C   0  0  0  0  0  0
  -16.5377  -29.9093   23.6343 C   0  0  0  0  0  0
  -16.7305  -28.6515   23.0354 C   0  0  0  0  0  0
  -26.4556  -31.6530   25.0676 C   0  0  0  0  0  0
  -25.3672  -31.3769   26.1314 C   0  0  0  0  0  0
  -27.0459  -30.2903   24.6408 C   0  0  0  0  0  0
  -27.6062  -32.4333   25.7466 C   0  0  0  0  0  0
  -27.5575  -37.1760   24.8469 C   0  0  0  0  0  0
  -21.4328  -29.3048   22.3515 N   0  0  0  0  0  0
  -26.4288  -37.3708   23.9406 N   0  0  0  0  0  0
  -24.7494  -30.9926   22.0839 N   0  0  0  0  0  0
  -23.4213  -28.8005   23.2988 O   0  0  0  0  0  0
  -28.1962  -25.8141   20.2910 O   0  0  0  0  0  0
  -26.5718  -34.8894   22.4605 O   0  0  0  0  0  0
  -23.5688  -32.1221   23.6795 O   0  0  0  0  0  0
  -27.9008  -21.5980   21.1272 C   0  0  0  0  0  0
  -29.2502  -19.6495   20.4638 C   0  0  0  0  0  0
  -28.5517  -22.6553   20.3366 C   0  0  0  0  0  0
  -29.9220  -20.6608   19.7122 C   0  0  0  0  0  0
  -32.5463  -21.9847   18.4012 C   0  0  0  0  0  0
  -33.3021  -20.7025   18.1503 C   0  0  0  0  0  0
  -31.0412  -18.5658   19.3260 C   0  0  0  0  0  0
  -30.0698  -18.1509   20.4776 C   0  0  2  0  0  0
  -31.7923  -20.7142   18.0664 C   0  0  0  0  0  0
  -31.1111  -20.5553   16.7205 C   0  0  0  0  0  0
  -27.8448  -24.2319   20.0196 C   0  0  0  0  0  0
  -28.2241  -20.2053   21.2193 N   0  0  0  0  0  0
  -29.5998  -22.0539   19.6110 N   0  0  0  0  0  0
  -31.0481  -20.0505   19.1301 N   0  0  0  0  0  0
  -29.7048  -16.5251   20.4599 N   0  0  0  0  0  0
  -31.4545  -13.0040   19.1803 H   0  0  0  0  0  0
  -30.5046  -11.8958   20.1227 H   0  0  0  0  0  0
  -29.9044  -11.7471   17.6792 H   0  0  0  0  0  0
  -29.5527  -13.4575   17.6446 H   0  0  0  0  0  0
  -28.0417  -11.2735   19.0981 H   0  0  0  0  0  0
  -27.4060  -12.3287   17.8621 H   0  0  0  0  0  0
  -27.5263  -14.2400   19.3242 H   0  0  0  0  0  0
  -28.8132  -12.5136   21.4927 H   0  0  0  0  0  0
  -28.2908  -14.1723   21.6886 H   0  0  0  0  0  0
  -25.2783   -9.5677   22.4775 H   0  0  0  0  0  0
  -24.0004   -7.4637   22.7480 H   0  0  0  0  0  0
  -21.0860   -8.8802   19.8952 H   0  0  0  0  0  0
  -22.3739  -10.9688   19.6171 H   0  0  0  0  0  0
  -21.2016   -7.6150   23.9718 H   0  0  0  0  0  0
  -21.1476   -6.0526   25.9077 H   0  0  0  0  0  0
  -22.0597   -2.7613   23.2842 H   0  0  0  0  0  0
  -22.4039  -11.9828   22.4825 H   0  0  0  0  0  0
  -21.1035  -13.1191   22.2681 H   0  0  0  0  0  0
  -24.6346  -15.8500   20.5327 H   0  0  0  0  0  0
  -26.2447  -15.6385   20.0703 H   0  0  0  0  0  0
  -26.7361  -32.5145   23.0862 H   0  0  0  0  0  0
  -25.0040  -33.9492   25.0164 H   0  0  0  0  0  0
  -22.7903  -31.2712   21.3488 H   0  0  0  0  0  0
  -23.3776  -35.9534   23.3288 H   0  0  0  0  0  0
  -24.3579  -36.8889   22.2070 H   0  0  0  0  0  0
  -23.7253  -37.6396   23.6721 H   0  0  0  0  0  0
  -26.2285  -31.3766   20.6231 H   0  0  0  0  0  0
  -26.9074  -30.6894   22.0557 H   0  0  0  0  0  0
  -28.1429  -28.5998   21.2928 H   0  0  0  0  0  0
  -25.8698  -25.7505   18.9934 H   0  0  0  0  0  0
  -24.0061  -27.2793   18.9412 H   0  0  0  0  0  0
  -23.8719  -30.5294   19.3894 H   0  0  0  0  0  0
  -22.8274  -29.2134   19.8223 H   0  0  0  0  0  0
  -25.1340  -36.1774   25.0794 H   0  0  0  0  0  0
  -21.0048  -28.3380   24.1304 H   0  0  0  0  0  0
  -20.5707  -26.2373   23.3637 H   0  0  0  0  0  0
  -21.6662  -26.7425   22.1186 H   0  0  0  0  0  0
  -19.6942  -25.6286   21.1264 H   0  0  0  0  0  0
  -19.6725  -27.3175   20.6736 H   0  0  0  0  0  0
  -17.4223  -26.6696   21.4020 H   0  0  0  0  0  0
  -18.0341  -26.0114   22.9036 H   0  0  0  0  0  0
  -19.7973  -30.7309   24.2220 H   0  0  0  0  0  0
  -17.5042  -31.6279   24.5164 H   0  0  0  0  0  0
  -15.5376  -30.2980   23.7692 H   0  0  0  0  0  0
  -15.8705  -28.0819   22.7091 H   0  0  0  0  0  0
  -24.5877  -30.7115   25.7575 H   0  0  0  0  0  0
  -24.8830  -32.2966   26.4617 H   0  0  0  0  0  0
  -25.7871  -30.8983   27.0168 H   0  0  0  0  0  0
  -26.3121  -29.6562   24.1421 H   0  0  0  0  0  0
  -27.4010  -29.7285   25.5055 H   0  0  0  0  0  0
  -27.9053  -30.4095   23.9809 H   0  0  0  0  0  0
  -27.2661  -33.3703   26.1889 H   0  0  0  0  0  0
  -28.3933  -32.6780   25.0318 H   0  0  0  0  0  0
  -28.0656  -31.8551   26.5495 H   0  0  0  0  0  0
  -28.2564  -38.0078   24.7505 H   0  0  0  0  0  0
  -28.1089  -36.2597   24.6301 H   0  0  0  0  0  0
  -27.2279  -37.1410   25.8867 H   0  0  0  0  0  0
  -20.9570  -29.8749   21.6662 H   0  0  0  0  0  0
  -26.0140  -38.2773   24.1401 H   0  0  0  0  0  0
  -27.0245  -21.8734   21.6959 H   0  0  0  0  0  0
  -32.6106  -22.7586   17.6383 H   0  0  0  0  0  0
  -32.5165  -22.3502   19.4271 H   0  0  0  0  0  0
  -33.7662  -20.2202   19.0094 H   0  0  0  0  0  0
  -33.8699  -20.6425   17.2228 H   0  0  0  0  0  0
  -30.7044  -18.1091   18.3952 H   0  0  0  0  0  0
  -32.0493  -18.1951   19.5136 H   0  0  0  0  0  0
  -30.6413  -18.2342   21.4022 H   0  0  0  0  0  0
  -31.6812  -21.0616   15.9406 H   0  0  0  0  0  0
  -30.1103  -20.9881   16.7441 H   0  0  0  0  0  0
  -31.0318  -19.5029   16.4487 H   0  0  0  0  0  0
  -26.8533  -24.1249   20.4602 H   0  0  0  0  0  0
  -27.6610  -24.1984   18.9456 H   0  0  0  0  0  0
  -28.7134  -16.3669   20.5555 H   0  0  0  0  0  0
  1 25  1  0  0  0
  1 30  2  0  0  0
  1 85  1  0  0  0
  2  3  1  0  0  0
  2 25  1  0  0  0
  2 86  1  0  0  0
  2 87  1  0  0  0
  3  4  1  0  0  0
  3 88  1  0  0  0
  3 89  1  0  0  0
  4  5  1  0  0  0
  4 90  1  0  0  0
  4 91  1  0  0  0
  5  6  1  0  0  0
  5 26  1  0  0  0
  5 92  1  0  0  0
  6 25  1  0  0  0
  6 93  1  0  0  0
  6 94  1  0  0  0
  7  8  2  0  0  0
  7 26  1  0  0  0
  7 29  1  0  0  0
  8  9  1  0  0  0
  8 22  1  0  0  0
  9 10  1  0  0  0
  9 27  2  0  0  0
 10 11  2  0  0  0
 10 15  1  0  0  0
 11 12  1  0  0  0
 11 95  1  0  0  0
 12 13  2  0  0  0
 12 96  1  0  0  0
 13 14  1  0  0  0
 13 31  1  0  0  0
 14 15  2  0  0  0
 14 97  1  0  0  0
 15 98  1  0  0  0
 16 17  2  0  0  0
 16 21  1  0  0  0
 16 31  1  0  0  0
 17 18  1  0  0  0
 17 99  1  0  0  0
 18 19  2  0  0  0
 18100  1  0  0  0
 19 20  1  0  0  0
 19 24  1  0  0  0
 20 21  2  0  0  0
 20101  1  0  0  0
 21 23  1  0  0  0
 22 28  1  0  0  0
 22 32  2  0  0  0
 26 27  1  0  0  0
 28102  1  0  0  0
 28103  1  0  0  0
 29104  1  0  0  0
 29105  1  0  0  0
 33 34  1  0  0  0
 33 66  1  0  0  0
 33 70  2  0  0  0
 34 36  1  0  0  0
 34 59  1  0  0  0
 34106  1  0  0  0
 35 44  2  0  0  0
 35 45  1  0  0  0
 35 68  1  0  0  0
 36 56  1  0  0  0
 36107  1  0  0  0
 37 39  1  0  0  0
 37 47  1  0  0  0
 37 66  1  0  0  0
 37108  1  0  0  0
 38 43  2  0  0  0
 38 46  1  0  0  0
 38 47  1  0  0  0
 39 64  1  0  0  0
 39 67  2  0  0  0
 40 52  1  0  0  0
 40 53  2  0  0  0
 40 58  1  0  0  0
 41109  1  0  0  0
 41110  1  0  0  0
 41111  1  0  0  0
 41 48  1  0  0  0
 42 43  1  0  0  0
 42 66  1  0  0  0
 42112  1  0  0  0
 42113  1  0  0  0
 43 44  1  0  0  0
 44114  1  0  0  0
 45 46  2  0  0  0
 45115  1  0  0  0
 46116  1  0  0  0
 47117  1  0  0  0
 47118  1  0  0  0
 48 56  1  0  0  0
 48 65  1  0  0  0
 48119  1  0  0  0
 49 50  1  0  0  0
 49 53  1  0  0  0
 49 64  1  0  0  0
 49120  1  0  0  0
 50 51  1  0  0  0
 50121  1  0  0  0
 50122  1  0  0  0
 51 52  1  0  0  0
 51123  1  0  0  0
 51124  1  0  0  0
 52125  1  0  0  0
 52126  1  0  0  0
 53 54  1  0  0  0
 54 55  2  0  0  0
 54127  1  0  0  0
 55 57  1  0  0  0
 55128  1  0  0  0
 56 69  2  0  0  0
 57 58  2  0  0  0
 57129  1  0  0  0
 58130  1  0  0  0
 59 60  1  0  0  0
 59 61  1  0  0  0
 59 62  1  0  0  0
 60131  1  0  0  0
 60132  1  0  0  0
 60133  1  0  0  0
 61134  1  0  0  0
 61135  1  0  0  0
 61136  1  0  0  0
 62137  1  0  0  0
 62138  1  0  0  0
 62139  1  0  0  0
 63 65  1  0  0  0
 63140  1  0  0  0
 63141  1  0  0  0
 63142  1  0  0  0
 64143  1  0  0  0
 65144  1  0  0  0
 68 81  1  0  0  0
 71 73  2  0  0  0
 71 82  1  0  0  0
 71145  1  0  0  0
 72 74  1  0  0  0
 72 78  1  0  0  0
 72 82  2  0  0  0
 73 81  1  0  0  0
 73 83  1  0  0  0
 74 83  2  0  0  0
 74 84  1  0  0  0
 75 76  1  0  0  0
 75 79  1  0  0  0
 75146  1  0  0  0
 75147  1  0  0  0
 76 79  1  0  0  0
 76148  1  0  0  0
 76149  1  0  0  0
 77 78  1  0  0  0
 77 84  1  0  0  0
 77150  1  0  0  0
 77151  1  0  0  0
 78 85  1  0  0  0
 78152  1  0  0  0
 79 80  1  0  0  0
 79 84  1  0  0  0
 80153  1  0  0  0
 80154  1  0  0  0
 80155  1  0  0  0
 81156  1  0  0  0
 81157  1  0  0  0
 85158  1  0  0  0
M  ISO  4   1 100  68 101  81 101  85 100
M  END
> <chiral flag>
0

> <version>
0

> <s_m_source_file>
/data/baiqing/PycharmProjects/Reinvent-master-3.2/result/LINK_invent/BTK/process_docking_weight1_custom_sum_contain_oxygen_bond_distance_aromatic_linkinvent_7_9_3/rearranged_h_0182.sdf

> <i_m_source_file_index>
97

> <r_mmod_Potential_Energy-OPLS-2005>
1257.38781738281

> <r_mmod_Stretch_Energy-OPLS-2005>
494.688903808594

> <r_mmod_Bend_Energy-OPLS-2005>
509.938171386719

> <r_mmod_Torsional_Energy-OPLS-2005>
267.638763427734

> <r_mmod_Improper_Torsional_Energy-OPLS-2005>
10.1846694946289

> <r_mmod_Van_der_Waal_Energy-OPLS-2005>
125.25032043457

> <r_mmod_Electrostatic_Energy-OPLS-2005>
-362.416809082031

> <r_mmod_Solvation_Energy-OPLS-2005>
-236.95930480957

> <b_mmod_Minimization_Converged-OPLS-2005>
0

> <r_mmod_RMS_Derivative-OPLS-2005>
1.30347144603729

$$$$
98
                    3D
 Structure written by MMmdl.
162171  0  0  1  0            999 V2000
  -30.7401  -14.3484   20.6478 C   0  0  0  0  0  0
  -30.3436  -12.2565   19.3857 C   0  0  0  0  0  0
  -29.3931  -12.4817   18.1765 C   0  0  0  0  0  0
  -27.8845  -12.5458   18.5795 C   0  0  0  0  0  0
  -27.6641  -13.5838   19.7402 C   0  0  2  0  0  0
  -28.6053  -13.0110   20.8812 C   0  0  0  0  0  0
  -25.4358  -15.4190   20.5423 C   0  0  0  0  0  0
  -24.4034  -14.1299   20.8141 C   0  0  0  0  0  0
  -24.6752  -12.5712   20.7897 C   0  0  0  0  0  0
  -23.9801  -11.0262   20.9907 C   0  0  0  0  0  0
  -24.4257   -9.9160   21.8438 C   0  0  0  0  0  0
  -23.7668   -8.6250   22.0300 C   0  0  0  0  0  0
  -22.5680   -8.2803   21.3474 C   0  0  0  0  0  0
  -22.1343   -9.2893   20.4521 C   0  0  0  0  0  0
  -22.8000  -10.5657   20.2910 C   0  0  0  0  0  0
  -21.7998   -6.1904   22.5049 C   0  0  0  0  0  0
  -21.4829   -6.6399   23.8094 C   0  0  0  0  0  0
  -21.3885   -5.7311   24.8898 C   0  0  0  0  0  0
  -21.6004   -4.3542   24.6858 C   0  0  0  0  0  0
  -21.8741   -3.8844   23.3916 C   0  0  0  0  0  0
  -21.9568   -4.7883   22.3098 C   0  0  0  0  0  0
  -22.8982  -14.1418   21.0932 C   0  0  0  0  0  0
  -22.1842   -4.2911   21.0715 F   0  0  0  0  0  0
  -21.5389   -3.4872   25.7279 F   0  0  0  0  0  0
  -30.0015  -13.2225   20.4365 N   0  0  0  0  0  0
  -26.2413  -13.9855   20.1685 N   0  0  0  0  0  0
  -25.8669  -12.6262   20.4082 N   0  0  0  0  0  0
  -22.2982  -13.2356   21.9010 N   0  0  0  0  0  0
  -26.4199  -17.4626   22.0883 N   0  0  0  0  0  0
  -31.8500  -14.5568   20.1532 O   0  0  0  0  0  0
  -21.8577   -7.0613   21.4127 O   0  0  0  0  0  0
  -22.1996  -14.9493   20.5230 O   0  0  0  0  0  0
  -24.7667  -31.6693   23.0852 C   0  0  0  0  0  0
  -25.9848  -32.3795   23.7648 C   0  0  1  0  0  0
  -26.4014  -25.4438   20.3395 C   0  0  0  0  0  0
  -25.6048  -33.7725   24.1373 N   0  0  0  0  0  0
  -23.5855  -30.2790   21.4688 C   0  0  2  0  0  0
  -24.8860  -28.3937   20.0944 C   0  0  0  0  0  0
  -22.7874  -29.3715   22.4478 C   0  0  0  0  0  0
  -18.0305  -28.1456   22.8392 C   0  0  0  0  0  0
  -24.1486  -36.6897   23.2677 C   0  0  0  0  0  0
  -26.1435  -29.9272   21.5437 C   0  0  0  0  0  0
  -26.0235  -28.3857   20.8894 C   0  0  0  0  0  0
  -26.7604  -26.9636   20.9634 C   0  0  0  0  0  0
  -25.4791  -25.9912   19.3785 C   0  0  0  0  0  0
  -24.7510  -27.2477   19.2909 C   0  0  0  0  0  0
  -23.8486  -29.5564   20.1024 C   0  0  0  0  0  0
  -25.4173  -36.2535   24.0206 C   0  0  1  0  0  0
  -20.5939  -28.3789   23.1041 C   0  0  2  0  0  0
  -20.6729  -26.9395   22.5428 C   0  0  0  0  0  0
  -19.5743  -26.6319   21.5214 C   0  0  0  0  0  0
  -18.1918  -26.7964   22.1582 C   0  0  0  0  0  0
  -19.1585  -28.8956   23.2684 C   0  0  0  0  0  0
  -18.9519  -30.1534   23.8745 C   0  0  0  0  0  0
  -17.6520  -30.6629   24.0530 C   0  0  0  0  0  0
  -25.9223  -34.8939   23.4715 C   0  0  0  0  0  0
  -16.5392  -29.9114   23.6377 C   0  0  0  0  0  0
  -16.7294  -28.6548   23.0355 C   0  0  0  0  0  0
  -26.4766  -31.6391   25.0726 C   0  0  0  0  0  0
  -25.3595  -31.4020   26.1190 C   0  0  0  0  0  0
  -27.0906  -30.2660   24.7427 C   0  0  0  0  0  0
  -27.6016  -32.4572   25.7526 C   0  0  0  0  0  0
  -27.5526  -37.1592   24.8456 C   0  0  0  0  0  0
  -21.4484  -29.2886   22.3252 N   0  0  0  0  0  0
  -26.4197  -37.3425   23.9428 N   0  0  0  0  0  0
  -24.8846  -30.6989   22.0758 N   0  0  0  0  0  0
  -23.3978  -28.7395   23.3138 O   0  0  0  0  0  0
  -26.6634  -23.6028   20.4310 O   0  0  0  0  0  0
  -26.6000  -34.8709   22.4435 O   0  0  0  0  0  0
  -23.6566  -32.0420   23.5212 O   0  0  0  0  0  0
  -26.5384  -15.3226   22.4663 C   0  0  0  0  0  0
  -24.6756  -16.2383   22.5338 C   0  0  0  0  0  0
  -24.3660  -17.7990   21.3365 C   0  0  0  0  0  0
  -27.6323  -16.1329   20.8753 C   0  0  0  0  0  0
  -25.7027  -18.9189   20.3988 C   0  0  0  0  0  0
  -22.6500  -17.3773   23.1214 C   0  0  0  0  0  0
  -23.7661  -16.4451   23.7044 C   0  0  1  0  0  0
  -23.1716  -18.4319   22.0550 C   0  0  0  0  0  0
  -23.3115  -15.2073   24.4868 C   0  0  0  0  0  0
  -22.0760  -18.8366   21.0570 C   0  0  0  0  0  0
  -23.6159  -19.6807   22.8379 C   0  0  0  0  0  0
  -29.1432  -16.1271   20.7504 C   0  0  0  0  0  0
  -25.8705  -21.3902   20.2333 C   0  0  0  0  0  0
  -26.9769  -17.6542   19.9505 N   0  0  0  0  0  0
  -30.1521  -15.2939   21.3980 N   0  0  0  0  0  0
  -31.3869  -12.3305   19.0764 H   0  0  0  0  0  0
  -30.2263  -11.2446   19.7736 H   0  0  0  0  0  0
  -29.5400  -11.6841   17.4472 H   0  0  0  0  0  0
  -29.6697  -13.4044   17.6683 H   0  0  0  0  0  0
  -27.5644  -11.5441   18.8668 H   0  0  0  0  0  0
  -27.2754  -12.8189   17.7179 H   0  0  0  0  0  0
  -28.0632  -14.4460   19.2225 H   0  0  0  0  0  0
  -28.4221  -11.9446   21.0218 H   0  0  0  0  0  0
  -28.4130  -13.4122   21.8776 H   0  0  0  0  0  0
  -25.3293  -10.0859   22.4114 H   0  0  0  0  0  0
  -24.2099   -7.9077   22.7083 H   0  0  0  0  0  0
  -21.2501   -9.0998   19.8583 H   0  0  0  0  0  0
  -22.3539  -11.2559   19.5898 H   0  0  0  0  0  0
  -21.3193   -7.6927   23.9822 H   0  0  0  0  0  0
  -21.1621   -6.0985   25.8816 H   0  0  0  0  0  0
  -22.0178   -2.8261   23.2239 H   0  0  0  0  0  0
  -22.8294  -12.5355   22.3935 H   0  0  0  0  0  0
  -21.2956  -13.2739   22.0231 H   0  0  0  0  0  0
  -25.4798  -17.8837   22.0673 H   0  0  0  0  0  0
  -26.8559  -17.7581   21.1804 H   0  0  0  0  0  0
  -26.8033  -32.4036   23.0426 H   0  0  0  0  0  0
  -24.9951  -33.8621   24.9361 H   0  0  0  0  0  0
  -22.9738  -31.1589   21.2530 H   0  0  0  0  0  0
  -23.3789  -35.9183   23.3164 H   0  0  0  0  0  0
  -24.3507  -36.8810   22.2130 H   0  0  0  0  0  0
  -23.7189  -37.5950   23.6967 H   0  0  0  0  0  0
  -26.5390  -30.5554   20.7461 H   0  0  0  0  0  0
  -26.9506  -29.9018   22.2580 H   0  0  0  0  0  0
  -27.5650  -26.9509   21.6835 H   0  0  0  0  0  0
  -25.1065  -25.2489   18.6853 H   0  0  0  0  0  0
  -23.9612  -27.2748   18.5537 H   0  0  0  0  0  0
  -24.1931  -30.2932   19.3748 H   0  0  0  0  0  0
  -22.9047  -29.1778   19.7069 H   0  0  0  0  0  0
  -25.1416  -36.1147   25.0681 H   0  0  0  0  0  0
  -20.9977  -28.3503   24.1187 H   0  0  0  0  0  0
  -20.5512  -26.2449   23.3749 H   0  0  0  0  0  0
  -21.6598  -26.7243   22.1296 H   0  0  0  0  0  0
  -19.6899  -25.6184   21.1345 H   0  0  0  0  0  0
  -19.6749  -27.3039   20.6676 H   0  0  0  0  0  0
  -17.4202  -26.6691   21.3971 H   0  0  0  0  0  0
  -18.0293  -26.0144   22.9007 H   0  0  0  0  0  0
  -19.8006  -30.7358   24.2073 H   0  0  0  0  0  0
  -17.5088  -31.6291   24.5168 H   0  0  0  0  0  0
  -15.5396  -30.2991   23.7797 H   0  0  0  0  0  0
  -15.8678  -28.0841   22.7163 H   0  0  0  0  0  0
  -24.5794  -30.7373   25.7456 H   0  0  0  0  0  0
  -24.8806  -32.3369   26.4122 H   0  0  0  0  0  0
  -25.7540  -30.9448   27.0280 H   0  0  0  0  0  0
  -26.3623  -29.5723   24.3232 H   0  0  0  0  0  0
  -27.4666  -29.7828   25.6462 H   0  0  0  0  0  0
  -27.9482  -30.3556   24.0762 H   0  0  0  0  0  0
  -27.2394  -33.4060   26.1500 H   0  0  0  0  0  0
  -28.4063  -32.6857   25.0525 H   0  0  0  0  0  0
  -28.0449  -31.9183   26.5913 H   0  0  0  0  0  0
  -28.2407  -38.0005   24.7548 H   0  0  0  0  0  0
  -28.1148  -36.2515   24.6217 H   0  0  0  0  0  0
  -27.2264  -37.1120   25.8857 H   0  0  0  0  0  0
  -20.9975  -29.8524   21.6174 H   0  0  0  0  0  0
  -25.9926  -38.2415   24.1485 H   0  0  0  0  0  0
  -26.9429  -14.6566   23.2115 H   0  0  0  0  0  0
  -22.0825  -17.8493   23.9248 H   0  0  0  0  0  0
  -21.9372  -16.7275   22.6140 H   0  0  0  0  0  0
  -24.3561  -17.0415   24.3995 H   0  0  0  0  0  0
  -22.6049  -14.5943   23.9454 H   0  0  0  0  0  0
  -22.8168  -15.5146   25.4095 H   0  0  0  0  0  0
  -24.1701  -14.5905   24.7669 H   0  0  0  0  0  0
  -21.6633  -17.9751   20.5327 H   0  0  0  0  0  0
  -22.4623  -19.5249   20.3033 H   0  0  0  0  0  0
  -21.2537  -19.3400   21.5694 H   0  0  0  0  0  0
  -24.4427  -19.4622   23.5128 H   0  0  0  0  0  0
  -22.7984  -20.0732   23.4451 H   0  0  0  0  0  0
  -23.9287  -20.4895   22.1856 H   0  0  0  0  0  0
  -29.3038  -16.0911   19.6697 H   0  0  0  0  0  0
  -28.6285  -15.3125   21.1856 H   0  0  0  0  0  0
  -24.8657  -21.6086   20.5918 H   0  0  0  0  0  0
  -25.7506  -21.4278   19.1499 H   0  0  0  0  0  0
  -30.8144  -15.8704   21.8920 H   0  0  0  0  0  0
  1 25  1  0  0  0
  1 30  2  0  0  0
  1 85  1  0  0  0
  2  3  1  0  0  0
  2 25  1  0  0  0
  2 86  1  0  0  0
  2 87  1  0  0  0
  3  4  1  0  0  0
  3 88  1  0  0  0
  3 89  1  0  0  0
  4  5  1  0  0  0
  4 90  1  0  0  0
  4 91  1  0  0  0
  5  6  1  0  0  0
  5 26  1  0  0  0
  5 92  1  0  0  0
  6 25  1  0  0  0
  6 93  1  0  0  0
  6 94  1  0  0  0
  7  8  2  0  0  0
  7 26  1  0  0  0
  7 29  1  0  0  0
  8  9  1  0  0  0
  8 22  1  0  0  0
  9 10  1  0  0  0
  9 27  2  0  0  0
 10 11  2  0  0  0
 10 15  1  0  0  0
 11 12  1  0  0  0
 11 95  1  0  0  0
 12 13  2  0  0  0
 12 96  1  0  0  0
 13 14  1  0  0  0
 13 31  1  0  0  0
 14 15  2  0  0  0
 14 97  1  0  0  0
 15 98  1  0  0  0
 16 17  2  0  0  0
 16 21  1  0  0  0
 16 31  1  0  0  0
 17 18  1  0  0  0
 17 99  1  0  0  0
 18 19  2  0  0  0
 18100  1  0  0  0
 19 20  1  0  0  0
 19 24  1  0  0  0
 20 21  2  0  0  0
 20101  1  0  0  0
 21 23  1  0  0  0
 22 28  1  0  0  0
 22 32  2  0  0  0
 26 27  1  0  0  0
 28102  1  0  0  0
 28103  1  0  0  0
 29104  1  0  0  0
 29105  1  0  0  0
 33 34  1  0  0  0
 33 66  1  0  0  0
 33 70  2  0  0  0
 34 36  1  0  0  0
 34 59  1  0  0  0
 34106  1  0  0  0
 35 44  2  0  0  0
 35 45  1  0  0  0
 35 68  1  0  0  0
 36 56  1  0  0  0
 36107  1  0  0  0
 37 39  1  0  0  0
 37 47  1  0  0  0
 37 66  1  0  0  0
 37108  1  0  0  0
 38 43  2  0  0  0
 38 46  1  0  0  0
 38 47  1  0  0  0
 39 64  1  0  0  0
 39 67  2  0  0  0
 40 52  1  0  0  0
 40 53  2  0  0  0
 40 58  1  0  0  0
 41109  1  0  0  0
 41110  1  0  0  0
 41111  1  0  0  0
 41 48  1  0  0  0
 42 43  1  0  0  0
 42 66  1  0  0  0
 42112  1  0  0  0
 42113  1  0  0  0
 43 44  1  0  0  0
 44114  1  0  0  0
 45 46  2  0  0  0
 45115  1  0  0  0
 46116  1  0  0  0
 47117  1  0  0  0
 47118  1  0  0  0
 48 56  1  0  0  0
 48 65  1  0  0  0
 48119  1  0  0  0
 49 50  1  0  0  0
 49 53  1  0  0  0
 49 64  1  0  0  0
 49120  1  0  0  0
 50 51  1  0  0  0
 50121  1  0  0  0
 50122  1  0  0  0
 51 52  1  0  0  0
 51123  1  0  0  0
 51124  1  0  0  0
 52125  1  0  0  0
 52126  1  0  0  0
 53 54  1  0  0  0
 54 55  2  0  0  0
 54127  1  0  0  0
 55 57  1  0  0  0
 55128  1  0  0  0
 56 69  2  0  0  0
 57 58  2  0  0  0
 57129  1  0  0  0
 58130  1  0  0  0
 59 60  1  0  0  0
 59 61  1  0  0  0
 59 62  1  0  0  0
 60131  1  0  0  0
 60132  1  0  0  0
 60133  1  0  0  0
 61134  1  0  0  0
 61135  1  0  0  0
 61136  1  0  0  0
 62137  1  0  0  0
 62138  1  0  0  0
 62139  1  0  0  0
 63 65  1  0  0  0
 63140  1  0  0  0
 63141  1  0  0  0
 63142  1  0  0  0
 64143  1  0  0  0
 65144  1  0  0  0
 68 83  1  0  0  0
 71 72  2  0  0  0
 71 74  1  0  0  0
 71145  1  0  0  0
 72 73  1  0  0  0
 72 77  1  0  0  0
 73 75  2  0  0  0
 73 78  1  0  0  0
 74 82  1  0  0  0
 74 84  2  0  0  0
 75 83  1  0  0  0
 75 84  1  0  0  0
 76 77  1  0  0  0
 76 78  1  0  0  0
 76146  1  0  0  0
 76147  1  0  0  0
 77 79  1  0  0  0
 77148  1  0  0  0
 78 80  1  0  0  0
 78 81  1  0  0  0
 79149  1  0  0  0
 79150  1  0  0  0
 79151  1  0  0  0
 80152  1  0  0  0
 80153  1  0  0  0
 80154  1  0  0  0
 81155  1  0  0  0
 81156  1  0  0  0
 81157  1  0  0  0
 82 85  1  0  0  0
 82158  1  0  0  0
 82159  1  0  0  0
 83160  1  0  0  0
 83161  1  0  0  0
 85162  1  0  0  0
M  ISO  4   1 100  68 101  83 101  85 100
M  END
> <chiral flag>
0

> <version>
0

> <s_m_source_file>
/data/baiqing/PycharmProjects/Reinvent-master-3.2/result/LINK_invent/BTK/process_docking_weight1_custom_sum_contain_oxygen_bond_distance_aromatic_linkinvent_7_9_3/rearranged_h_0182.sdf

> <i_m_source_file_index>
98

> <r_mmod_Potential_Energy-OPLS-2005>
20238.224609375

> <r_mmod_Stretch_Energy-OPLS-2005>
11437.1328125

> <r_mmod_Bend_Energy-OPLS-2005>
1719.01721191406

> <r_mmod_Torsional_Energy-OPLS-2005>
532.303894042969

> <r_mmod_Improper_Torsional_Energy-OPLS-2005>
77.2280807495117

> <r_mmod_Van_der_Waal_Energy-OPLS-2005>
2920.47778320312

> <r_mmod_Electrostatic_Energy-OPLS-2005>
-692.212646484375

> <r_mmod_Solvation_Energy-OPLS-2005>
-218.355850219727

> <b_mmod_Minimization_Converged-OPLS-2005>
0

> <r_mmod_RMS_Derivative-OPLS-2005>
9.84754848480225

$$$$
