0
                    3D
 Structure written by MMmdl.
161169  0  0  1  0            999 V2000
  -30.4752  -15.1989   20.3751 C   0  0  0  0  0  0
  -30.4372  -12.7634   19.5139 C   0  0  0  0  0  0
  -29.5290  -12.5608   18.2765 C   0  0  0  0  0  0
  -28.0752  -12.2979   18.7074 C   0  0  0  0  0  0
  -27.6131  -13.2703   19.8216 C   0  0  2  0  0  0
  -28.6512  -13.4258   20.9531 C   0  0  0  0  0  0
  -25.2400  -13.8242   20.5743 C   0  0  0  0  0  0
  -24.1748  -13.0436   20.9257 C   0  0  0  0  0  0
  -24.6401  -11.6932   20.8765 C   0  0  0  0  0  0
  -23.9094  -10.4292   21.0407 C   0  0  0  0  0  0
  -24.3639   -9.4205   21.9185 C   0  0  0  0  0  0
  -23.6305   -8.2240   22.0755 C   0  0  0  0  0  0
  -22.4286   -8.0281   21.3546 C   0  0  0  0  0  0
  -21.9927   -9.0256   20.4646 C   0  0  0  0  0  0
  -22.7263  -10.2132   20.3055 C   0  0  0  0  0  0
  -21.6853   -6.0737   22.5280 C   0  0  0  0  0  0
  -21.4015   -6.5645   23.8212 C   0  0  0  0  0  0
  -21.3660   -5.6797   24.9174 C   0  0  0  0  0  0
  -21.6040   -4.3057   24.7224 C   0  0  0  0  0  0
  -21.8820   -3.8151   23.4346 C   0  0  0  0  0  0
  -21.9193   -4.6967   22.3404 C   0  0  0  0  0  0
  -22.7765  -13.5188   21.1902 C   0  0  0  0  0  0
  -22.1662   -4.2154   21.0978 F   0  0  0  0  0  0
  -21.5627   -3.4539   25.7736 F   0  0  0  0  0  0
  -29.8898  -13.9086   20.3237 N   0  0  0  0  0  0
  -26.2825  -12.9512   20.3217 N   0  0  0  0  0  0
  -25.9333  -11.6623   20.5725 N   0  0  0  0  0  0
  -22.0425  -12.8168   22.0456 N   0  0  0  0  0  0
  -25.4035  -15.1973   20.4176 N   0  0  0  0  0  0
  -31.6980  -15.1921   20.1811 O   0  0  0  0  0  0
  -21.6643   -6.8884   21.4244 O   0  0  0  0  0  0
  -22.3445  -14.5489   20.6741 O   0  0  0  0  0  0
  -24.6622  -31.8280   23.1735 C   0  0  0  0  0  0
  -25.9315  -32.4608   23.8188 C   0  0  1  0  0  0
  -27.2143  -26.9562   20.1491 C   0  0  0  0  0  0
  -25.5996  -33.8420   24.2090 N   0  0  0  0  0  0
  -23.4736  -30.4457   21.5236 C   0  0  2  0  0  0
  -24.9221  -28.8480   20.1077 C   0  0  0  0  0  0
  -22.7663  -29.4477   22.4781 C   0  0  0  0  0  0
  -18.0329  -28.1410   22.8470 C   0  0  0  0  0  0
  -24.1497  -36.7205   23.2646 C   0  0  0  0  0  0
  -26.0443  -30.6435   21.3991 C   0  0  0  0  0  0
  -26.1099  -29.2402   20.7348 C   0  0  0  0  0  0
  -27.2475  -28.3155   20.7352 C   0  0  0  0  0  0
  -25.9773  -26.7107   19.5075 C   0  0  0  0  0  0
  -24.8799  -27.5996   19.4779 C   0  0  0  0  0  0
  -23.7089  -29.7715   20.1468 C   0  0  0  0  0  0
  -25.4136  -36.2970   24.0301 C   0  0  1  0  0  0
  -20.5953  -28.3756   23.1186 C   0  0  2  0  0  0
  -20.6807  -26.9441   22.5394 C   0  0  0  0  0  0
  -19.5776  -26.6382   21.5213 C   0  0  0  0  0  0
  -18.1959  -26.7943   22.1624 C   0  0  0  0  0  0
  -19.1591  -28.8902   23.2819 C   0  0  0  0  0  0
  -18.9501  -30.1490   23.8856 C   0  0  0  0  0  0
  -17.6492  -30.6601   24.0554 C   0  0  0  0  0  0
  -25.9105  -34.9358   23.5007 C   0  0  0  0  0  0
  -16.5381  -29.9090   23.6344 C   0  0  0  0  0  0
  -16.7310  -28.6507   23.0367 C   0  0  0  0  0  0
  -26.4564  -31.6542   25.0707 C   0  0  0  0  0  0
  -25.3689  -31.3784   26.1360 C   0  0  0  0  0  0
  -27.0457  -30.2911   24.6426 C   0  0  0  0  0  0
  -27.6063  -32.4346   25.7503 C   0  0  0  0  0  0
  -27.5567  -37.1759   24.8467 C   0  0  0  0  0  0
  -21.4333  -29.3055   22.3533 N   0  0  0  0  0  0
  -26.4276  -37.3706   23.9412 N   0  0  0  0  0  0
  -24.7484  -30.9980   22.0852 N   0  0  0  0  0  0
  -23.4228  -28.8035   23.2999 O   0  0  0  0  0  0
  -28.2218  -25.8607   20.2687 O   0  0  0  0  0  0
  -26.5705  -34.8888   22.4597 O   0  0  0  0  0  0
  -23.5698  -32.1229   23.6847 O   0  0  0  0  0  0
  -28.0233  -21.7409   20.7609 C   0  0  0  0  0  0
  -28.3509  -20.2925   20.8859 C   0  0  0  0  0  0
  -28.7952  -22.7561   20.0482 C   0  0  0  0  0  0
  -29.4930  -19.6338   20.2803 C   0  0  0  0  0  0
  -29.9204  -22.0004   19.4853 C   0  0  0  0  0  0
  -27.4993  -24.2382   18.2912 C   0  0  0  0  0  0
  -31.7812  -21.1046   16.8078 C   0  0  0  0  0  0
  -33.2565  -22.9673   17.6350 C   0  0  0  0  0  0
  -30.9061  -22.7551   18.5810 C   0  0  0  0  0  0
  -30.1928  -18.0506   20.4519 C   0  0  0  0  0  0
  -28.3383  -24.3783   19.5695 C   0  0  1  0  0  0
  -32.1353  -21.9868   18.0209 C   0  0  0  0  0  0
  -30.2178  -20.6162   19.6201 N   0  0  0  0  0  0
  -29.7387  -16.4701   20.4415 N   0  0  0  0  0  0
  -31.4590  -12.9547   19.1834 H   0  0  0  0  0  0
  -30.4881  -11.8524   20.1123 H   0  0  0  0  0  0
  -29.8951  -11.7343   17.6655 H   0  0  0  0  0  0
  -29.5689  -13.4506   17.6461 H   0  0  0  0  0  0
  -28.0232  -11.2718   19.0740 H   0  0  0  0  0  0
  -27.4053  -12.3500   17.8485 H   0  0  0  0  0  0
  -27.5339  -14.2415   19.3318 H   0  0  0  0  0  0
  -28.8048  -12.4871   21.4874 H   0  0  0  0  0  0
  -28.3043  -14.1521   21.6898 H   0  0  0  0  0  0
  -25.2780   -9.5675   22.4764 H   0  0  0  0  0  0
  -24.0007   -7.4632   22.7476 H   0  0  0  0  0  0
  -21.0856   -8.8780   19.8951 H   0  0  0  0  0  0
  -22.3723  -10.9673   19.6164 H   0  0  0  0  0  0
  -21.2010   -7.6153   23.9718 H   0  0  0  0  0  0
  -21.1477   -6.0525   25.9077 H   0  0  0  0  0  0
  -22.0599   -2.7613   23.2842 H   0  0  0  0  0  0
  -22.4060  -11.9840   22.4848 H   0  0  0  0  0  0
  -21.1034  -13.1171   22.2656 H   0  0  0  0  0  0
  -24.6320  -15.8460   20.5289 H   0  0  0  0  0  0
  -26.2420  -15.6389   20.0642 H   0  0  0  0  0  0
  -26.7383  -32.5139   23.0901 H   0  0  0  0  0  0
  -25.0117  -33.9508   25.0223 H   0  0  0  0  0  0
  -22.7853  -31.2773   21.3589 H   0  0  0  0  0  0
  -23.3771  -35.9524   23.3284 H   0  0  0  0  0  0
  -24.3581  -36.8875   22.2066 H   0  0  0  0  0  0
  -23.7245  -37.6383   23.6718 H   0  0  0  0  0  0
  -26.2273  -31.3903   20.6251 H   0  0  0  0  0  0
  -26.9037  -30.6905   22.0557 H   0  0  0  0  0  0
  -28.1444  -28.6163   21.2581 H   0  0  0  0  0  0
  -25.7654  -25.7527   19.0764 H   0  0  0  0  0  0
  -23.9686  -27.2791   18.9919 H   0  0  0  0  0  0
  -23.8641  -30.5439   19.3928 H   0  0  0  0  0  0
  -22.8179  -29.2284   19.8271 H   0  0  0  0  0  0
  -25.1334  -36.1758   25.0791 H   0  0  0  0  0  0
  -21.0048  -28.3356   24.1308 H   0  0  0  0  0  0
  -20.5696  -26.2375   23.3633 H   0  0  0  0  0  0
  -21.6668  -26.7427   22.1191 H   0  0  0  0  0  0
  -19.6941  -25.6284   21.1272 H   0  0  0  0  0  0
  -19.6710  -27.3169   20.6723 H   0  0  0  0  0  0
  -17.4226  -26.6693   21.4029 H   0  0  0  0  0  0
  -18.0354  -26.0096   22.9027 H   0  0  0  0  0  0
  -19.7975  -30.7322   24.2203 H   0  0  0  0  0  0
  -17.5044  -31.6278   24.5167 H   0  0  0  0  0  0
  -15.5379  -30.2976   23.7699 H   0  0  0  0  0  0
  -15.8709  -28.0812   22.7109 H   0  0  0  0  0  0
  -24.5892  -30.7118   25.7652 H   0  0  0  0  0  0
  -24.8856  -32.2985   26.4659 H   0  0  0  0  0  0
  -25.7918  -30.9026   27.0217 H   0  0  0  0  0  0
  -26.3124  -29.6586   24.1410 H   0  0  0  0  0  0
  -27.3975  -29.7274   25.5076 H   0  0  0  0  0  0
  -27.9072  -30.4103   23.9852 H   0  0  0  0  0  0
  -27.2647  -33.3699   26.1948 H   0  0  0  0  0  0
  -28.3938  -32.6819   25.0370 H   0  0  0  0  0  0
  -28.0658  -31.8555   26.5521 H   0  0  0  0  0  0
  -28.2561  -38.0073   24.7510 H   0  0  0  0  0  0
  -28.1081  -36.2599   24.6296 H   0  0  0  0  0  0
  -27.2286  -37.1397   25.8870 H   0  0  0  0  0  0
  -20.9577  -29.8753   21.6678 H   0  0  0  0  0  0
  -26.0119  -38.2763   24.1418 H   0  0  0  0  0  0
  -27.1021  -22.0698   21.2192 H   0  0  0  0  0  0
  -27.6869  -19.6804   21.4813 H   0  0  0  0  0  0
  -27.9648  -23.5379   17.5975 H   0  0  0  0  0  0
  -27.4114  -25.1809   17.7509 H   0  0  0  0  0  0
  -26.5070  -23.8420   18.5049 H   0  0  0  0  0  0
  -32.6529  -20.5516   16.4564 H   0  0  0  0  0  0
  -31.4098  -21.7007   15.9736 H   0  0  0  0  0  0
  -31.0139  -20.3705   17.0531 H   0  0  0  0  0  0
  -34.1305  -22.4400   17.2509 H   0  0  0  0  0  0
  -33.5849  -23.5514   18.4956 H   0  0  0  0  0  0
  -32.9270  -23.6668   16.8654 H   0  0  0  0  0  0
  -31.2756  -23.5900   19.1780 H   0  0  0  0  0  0
  -30.3574  -23.1951   17.7487 H   0  0  0  0  0  0
  -30.7283  -18.1363   21.3972 H   0  0  0  0  0  0
  -30.9912  -18.0630   19.7093 H   0  0  0  0  0  0
  -29.2941  -24.6589   19.1384 H   0  0  0  0  0  0
  -32.5477  -21.3548   18.8085 H   0  0  0  0  0  0
  -28.7406  -16.3505   20.5206 H   0  0  0  0  0  0
  1 25  1  0  0  0
  1 30  2  0  0  0
  1 84  1  0  0  0
  2  3  1  0  0  0
  2 25  1  0  0  0
  2 85  1  0  0  0
  2 86  1  0  0  0
  3  4  1  0  0  0
  3 87  1  0  0  0
  3 88  1  0  0  0
  4  5  1  0  0  0
  4 89  1  0  0  0
  4 90  1  0  0  0
  5  6  1  0  0  0
  5 26  1  0  0  0
  5 91  1  0  0  0
  6 25  1  0  0  0
  6 92  1  0  0  0
  6 93  1  0  0  0
  7  8  2  0  0  0
  7 26  1  0  0  0
  7 29  1  0  0  0
  8  9  1  0  0  0
  8 22  1  0  0  0
  9 10  1  0  0  0
  9 27  2  0  0  0
 10 11  2  0  0  0
 10 15  1  0  0  0
 11 12  1  0  0  0
 11 94  1  0  0  0
 12 13  2  0  0  0
 12 95  1  0  0  0
 13 14  1  0  0  0
 13 31  1  0  0  0
 14 15  2  0  0  0
 14 96  1  0  0  0
 15 97  1  0  0  0
 16 17  2  0  0  0
 16 21  1  0  0  0
 16 31  1  0  0  0
 17 18  1  0  0  0
 17 98  1  0  0  0
 18 19  2  0  0  0
 18 99  1  0  0  0
 19 20  1  0  0  0
 19 24  1  0  0  0
 20 21  2  0  0  0
 20100  1  0  0  0
 21 23  1  0  0  0
 22 28  1  0  0  0
 22 32  2  0  0  0
 26 27  1  0  0  0
 28101  1  0  0  0
 28102  1  0  0  0
 29103  1  0  0  0
 29104  1  0  0  0
 33 34  1  0  0  0
 33 66  1  0  0  0
 33 70  2  0  0  0
 34 36  1  0  0  0
 34 59  1  0  0  0
 34105  1  0  0  0
 35 44  2  0  0  0
 35 45  1  0  0  0
 35 68  1  0  0  0
 36 56  1  0  0  0
 36106  1  0  0  0
 37 39  1  0  0  0
 37 47  1  0  0  0
 37 66  1  0  0  0
 37107  1  0  0  0
 38 43  2  0  0  0
 38 46  1  0  0  0
 38 47  1  0  0  0
 39 64  1  0  0  0
 39 67  2  0  0  0
 40 52  1  0  0  0
 40 53  2  0  0  0
 40 58  1  0  0  0
 41108  1  0  0  0
 41109  1  0  0  0
 41110  1  0  0  0
 41 48  1  0  0  0
 42 43  1  0  0  0
 42 66  1  0  0  0
 42111  1  0  0  0
 42112  1  0  0  0
 43 44  1  0  0  0
 44113  1  0  0  0
 45 46  2  0  0  0
 45114  1  0  0  0
 46115  1  0  0  0
 47116  1  0  0  0
 47117  1  0  0  0
 48 56  1  0  0  0
 48 65  1  0  0  0
 48118  1  0  0  0
 49 50  1  0  0  0
 49 53  1  0  0  0
 49 64  1  0  0  0
 49119  1  0  0  0
 50 51  1  0  0  0
 50120  1  0  0  0
 50121  1  0  0  0
 51 52  1  0  0  0
 51122  1  0  0  0
 51123  1  0  0  0
 52124  1  0  0  0
 52125  1  0  0  0
 53 54  1  0  0  0
 54 55  2  0  0  0
 54126  1  0  0  0
 55 57  1  0  0  0
 55127  1  0  0  0
 56 69  2  0  0  0
 57 58  2  0  0  0
 57128  1  0  0  0
 58129  1  0  0  0
 59 60  1  0  0  0
 59 61  1  0  0  0
 59 62  1  0  0  0
 60130  1  0  0  0
 60131  1  0  0  0
 60132  1  0  0  0
 61133  1  0  0  0
 61134  1  0  0  0
 61135  1  0  0  0
 62136  1  0  0  0
 62137  1  0  0  0
 62138  1  0  0  0
 63 65  1  0  0  0
 63139  1  0  0  0
 63140  1  0  0  0
 63141  1  0  0  0
 64142  1  0  0  0
 65143  1  0  0  0
 68 81  1  0  0  0
 71 72  2  0  0  0
 71 73  1  0  0  0
 71144  1  0  0  0
 72 74  1  0  0  0
 72145  1  0  0  0
 73 75  2  0  0  0
 73 81  1  0  0  0
 74 80  1  0  0  0
 74 83  2  0  0  0
 75 79  1  0  0  0
 75 83  1  0  0  0
 76146  1  0  0  0
 76147  1  0  0  0
 76148  1  0  0  0
 76 81  1  0  0  0
 77149  1  0  0  0
 77150  1  0  0  0
 77151  1  0  0  0
 77 82  1  0  0  0
 78 82  1  0  0  0
 78152  1  0  0  0
 78153  1  0  0  0
 78154  1  0  0  0
 79 82  1  0  0  0
 79155  1  0  0  0
 79156  1  0  0  0
 80 84  1  0  0  0
 80157  1  0  0  0
 80158  1  0  0  0
 81159  1  0  0  0
 82160  1  0  0  0
 84161  1  0  0  0
M  ISO  4   1 100  68 101  81 101  84 100
M  END
> <chiral flag>
0

> <version>
0

> <s_m_source_file>
/data/baiqing/PycharmProjects/Reinvent-master-3.2/result/LINK_invent/BTK/process_docking_weight1_custom_sum_contain_oxygen_bond_distance_aromatic_linkinvent_7_9_3/rearranged_h_0116.sdf

> <i_m_source_file_index>
1

> <r_mmod_Potential_Energy-OPLS-2005>
988.928894042969

> <r_mmod_Stretch_Energy-OPLS-2005>
476.210754394531

> <r_mmod_Bend_Energy-OPLS-2005>
493.167205810547

> <r_mmod_Torsional_Energy-OPLS-2005>
235.538681030273

> <r_mmod_Improper_Torsional_Energy-OPLS-2005>
8.66890525817871

> <r_mmod_Van_der_Waal_Energy-OPLS-2005>
144.569564819336

> <r_mmod_Electrostatic_Energy-OPLS-2005>
-549.734741210938

> <r_mmod_Solvation_Energy-OPLS-2005>
-221.972274780273

> <b_mmod_Minimization_Converged-OPLS-2005>
0

> <r_mmod_RMS_Derivative-OPLS-2005>
0.773549377918243

$$$$
1
                    3D
 Structure written by MMmdl.
165172  0  0  1  0            999 V2000
  -30.4306  -15.2511   20.3612 C   0  0  0  0  0  0
  -30.4410  -12.8032   19.4969 C   0  0  0  0  0  0
  -29.5315  -12.5797   18.2638 C   0  0  0  0  0  0
  -28.0759  -12.3117   18.6926 C   0  0  0  0  0  0
  -27.6107  -13.2749   19.8142 C   0  0  2  0  0  0
  -28.6533  -13.4363   20.9392 C   0  0  0  0  0  0
  -25.2409  -13.8239   20.5745 C   0  0  0  0  0  0
  -24.1763  -13.0431   20.9262 C   0  0  0  0  0  0
  -24.6416  -11.6933   20.8765 C   0  0  0  0  0  0
  -23.9115  -10.4291   21.0402 C   0  0  0  0  0  0
  -24.3656   -9.4203   21.9180 C   0  0  0  0  0  0
  -23.6321   -8.2239   22.0756 C   0  0  0  0  0  0
  -22.4302   -8.0286   21.3541 C   0  0  0  0  0  0
  -21.9952   -9.0265   20.4647 C   0  0  0  0  0  0
  -22.7288  -10.2137   20.3045 C   0  0  0  0  0  0
  -21.6860   -6.0747   22.5281 C   0  0  0  0  0  0
  -21.4022   -6.5646   23.8214 C   0  0  0  0  0  0
  -21.3656   -5.6798   24.9175 C   0  0  0  0  0  0
  -21.6033   -4.3058   24.7221 C   0  0  0  0  0  0
  -21.8819   -3.8149   23.4342 C   0  0  0  0  0  0
  -21.9197   -4.6971   22.3397 C   0  0  0  0  0  0
  -22.7778  -13.5191   21.1900 C   0  0  0  0  0  0
  -22.1662   -4.2165   21.0975 F   0  0  0  0  0  0
  -21.5622   -3.4541   25.7726 F   0  0  0  0  0  0
  -29.8757  -13.9455   20.2979 N   0  0  0  0  0  0
  -26.2831  -12.9516   20.3198 N   0  0  0  0  0  0
  -25.9354  -11.6622   20.5715 N   0  0  0  0  0  0
  -22.0425  -12.8176   22.0443 N   0  0  0  0  0  0
  -25.4026  -15.1974   20.4168 N   0  0  0  0  0  0
  -31.6618  -15.2666   20.2314 O   0  0  0  0  0  0
  -21.6651   -6.8894   21.4245 O   0  0  0  0  0  0
  -22.3473  -14.5490   20.6731 O   0  0  0  0  0  0
  -24.6629  -31.8241   23.1705 C   0  0  0  0  0  0
  -25.9310  -32.4590   23.8159 C   0  0  1  0  0  0
  -27.2173  -26.9337   20.1791 C   0  0  0  0  0  0
  -25.5989  -33.8406   24.2067 N   0  0  0  0  0  0
  -23.4761  -30.4357   21.5213 C   0  0  2  0  0  0
  -24.9276  -28.8210   20.1173 C   0  0  0  0  0  0
  -22.7663  -29.4445   22.4805 C   0  0  0  0  0  0
  -18.0319  -28.1401   22.8469 C   0  0  0  0  0  0
  -24.1496  -36.7204   23.2644 C   0  0  0  0  0  0
  -26.0454  -30.6339   21.3974 C   0  0  0  0  0  0
  -26.1142  -29.2232   20.7440 C   0  0  0  0  0  0
  -27.2569  -28.3023   20.7452 C   0  0  0  0  0  0
  -25.9990  -26.6821   19.5098 C   0  0  0  0  0  0
  -24.8944  -27.5706   19.4808 C   0  0  0  0  0  0
  -23.7136  -29.7481   20.1496 C   0  0  0  0  0  0
  -25.4139  -36.2972   24.0299 C   0  0  1  0  0  0
  -20.5944  -28.3748   23.1205 C   0  0  2  0  0  0
  -20.6796  -26.9434   22.5411 C   0  0  0  0  0  0
  -19.5769  -26.6373   21.5222 C   0  0  0  0  0  0
  -18.1951  -26.7937   22.1626 C   0  0  0  0  0  0
  -19.1578  -28.8899   23.2823 C   0  0  0  0  0  0
  -18.9488  -30.1489   23.8855 C   0  0  0  0  0  0
  -17.6479  -30.6597   24.0551 C   0  0  0  0  0  0
  -25.9106  -34.9355   23.5004 C   0  0  0  0  0  0
  -16.5369  -29.9081   23.6345 C   0  0  0  0  0  0
  -16.7300  -28.6503   23.0366 C   0  0  0  0  0  0
  -26.4560  -31.6524   25.0682 C   0  0  0  0  0  0
  -25.3677  -31.3761   26.1331 C   0  0  0  0  0  0
  -27.0447  -30.2890   24.6395 C   0  0  0  0  0  0
  -27.6049  -32.4325   25.7494 C   0  0  0  0  0  0
  -27.5577  -37.1764   24.8460 C   0  0  0  0  0  0
  -21.4334  -29.3041   22.3555 N   0  0  0  0  0  0
  -26.4279  -37.3715   23.9413 N   0  0  0  0  0  0
  -24.7496  -30.9908   22.0837 N   0  0  0  0  0  0
  -23.4218  -28.8012   23.3041 O   0  0  0  0  0  0
  -28.2373  -25.8443   20.1882 O   0  0  0  0  0  0
  -26.5719  -34.8895   22.4601 O   0  0  0  0  0  0
  -23.5708  -32.1206   23.6814 O   0  0  0  0  0  0
  -31.1967  -18.9115   16.5429 C   0  0  0  0  0  0
  -29.0802  -17.7021   17.2098 C   0  0  0  0  0  0
  -27.8093  -24.1717   21.9474 C   0  0  0  0  0  0
  -29.7182  -21.1990   21.8241 C   0  0  0  0  0  0
  -29.7584  -18.1428   20.6743 C   0  0  0  0  0  0
  -28.8729  -22.7148   19.9260 C   0  0  0  0  0  0
  -30.2583  -18.5632   17.7132 C   0  0  0  0  0  0
  -29.1235  -19.6456   19.8823 C   0  0  2  0  0  0
  -28.0080  -24.2227   20.4299 C   0  0  2  0  0  0
  -29.8257  -19.8391   18.4942 C   0  0  2  0  0  0
  -29.6293  -16.4981   20.3685 N   0  0  0  0  0  0
  -28.9114  -21.1633   20.5847 N   0  3  1  0  0  0
  -28.9904  -20.5659   17.6049 O   0  0  0  0  0  0
  -31.4573  -13.0188   19.1644 H   0  0  0  0  0  0
  -30.5105  -11.8943   20.0979 H   0  0  0  0  0  0
  -29.9070  -11.7545   17.6587 H   0  0  0  0  0  0
  -29.5663  -13.4639   17.6245 H   0  0  0  0  0  0
  -28.0206  -11.2822   19.0474 H   0  0  0  0  0  0
  -27.4082  -12.3726   17.8317 H   0  0  0  0  0  0
  -27.5264  -14.2471   19.3277 H   0  0  0  0  0  0
  -28.8260  -12.4964   21.4650 H   0  0  0  0  0  0
  -28.3054  -14.1544   21.6841 H   0  0  0  0  0  0
  -25.2782   -9.5682   22.4783 H   0  0  0  0  0  0
  -24.0012   -7.4633   22.7484 H   0  0  0  0  0  0
  -21.0871   -8.8789   19.8969 H   0  0  0  0  0  0
  -22.3730  -10.9679   19.6167 H   0  0  0  0  0  0
  -21.2020   -7.6154   23.9733 H   0  0  0  0  0  0
  -21.1482   -6.0518   25.9081 H   0  0  0  0  0  0
  -22.0604   -2.7612   23.2834 H   0  0  0  0  0  0
  -22.4026  -11.9832   22.4824 H   0  0  0  0  0  0
  -21.1035  -13.1200   22.2636 H   0  0  0  0  0  0
  -24.6277  -15.8433   20.5227 H   0  0  0  0  0  0
  -26.2358  -15.6378   20.0537 H   0  0  0  0  0  0
  -26.7380  -32.5127   23.0877 H   0  0  0  0  0  0
  -25.0071  -33.9472   25.0175 H   0  0  0  0  0  0
  -22.7898  -31.2678   21.3504 H   0  0  0  0  0  0
  -23.3785  -35.9504   23.3249 H   0  0  0  0  0  0
  -24.3579  -36.8906   22.2067 H   0  0  0  0  0  0
  -23.7215  -37.6363   23.6732 H   0  0  0  0  0  0
  -26.2217  -31.3756   20.6171 H   0  0  0  0  0  0
  -26.9084  -30.6928   22.0493 H   0  0  0  0  0  0
  -28.1621  -28.6148   21.2469 H   0  0  0  0  0  0
  -25.8722  -25.7340   19.0086 H   0  0  0  0  0  0
  -23.9930  -27.2586   18.9716 H   0  0  0  0  0  0
  -23.8665  -30.5134   19.3880 H   0  0  0  0  0  0
  -22.8232  -29.2000   19.8357 H   0  0  0  0  0  0
  -25.1335  -36.1758   25.0788 H   0  0  0  0  0  0
  -21.0025  -28.3341   24.1331 H   0  0  0  0  0  0
  -20.5685  -26.2359   23.3643 H   0  0  0  0  0  0
  -21.6658  -26.7417   22.1207 H   0  0  0  0  0  0
  -19.6928  -25.6274   21.1277 H   0  0  0  0  0  0
  -19.6706  -27.3163   20.6735 H   0  0  0  0  0  0
  -17.4222  -26.6692   21.4023 H   0  0  0  0  0  0
  -18.0338  -26.0085   22.9029 H   0  0  0  0  0  0
  -19.7960  -30.7322   24.2200 H   0  0  0  0  0  0
  -17.5028  -31.6274   24.5155 H   0  0  0  0  0  0
  -15.5368  -30.2967   23.7696 H   0  0  0  0  0  0
  -15.8699  -28.0806   22.7108 H   0  0  0  0  0  0
  -24.5885  -30.7090   25.7626 H   0  0  0  0  0  0
  -24.8843  -32.2955   26.4643 H   0  0  0  0  0  0
  -25.7906  -30.8993   27.0183 H   0  0  0  0  0  0
  -26.3103  -29.6576   24.1388 H   0  0  0  0  0  0
  -27.3968  -29.7242   25.5038 H   0  0  0  0  0  0
  -27.9049  -30.4072   23.9803 H   0  0  0  0  0  0
  -27.2620  -33.3675   26.1937 H   0  0  0  0  0  0
  -28.3941  -32.6803   25.0379 H   0  0  0  0  0  0
  -28.0627  -31.8533   26.5527 H   0  0  0  0  0  0
  -28.2552  -38.0106   24.7563 H   0  0  0  0  0  0
  -28.1121  -36.2638   24.6217 H   0  0  0  0  0  0
  -27.2304  -37.1314   25.8864 H   0  0  0  0  0  0
  -20.9588  -29.8718   21.6673 H   0  0  0  0  0  0
  -26.0122  -38.2766   24.1445 H   0  0  0  0  0  0
  -31.5471  -18.0133   16.0332 H   0  0  0  0  0  0
  -32.0784  -19.4508   16.8923 H   0  0  0  0  0  0
  -30.7013  -19.5380   15.8005 H   0  0  0  0  0  0
  -29.4400  -16.7461   16.8273 H   0  0  0  0  0  0
  -28.5365  -18.1839   16.3969 H   0  0  0  0  0  0
  -28.3668  -17.4772   18.0016 H   0  0  0  0  0  0
  -27.3956  -23.2133   22.2588 H   0  0  0  0  0  0
  -27.1141  -24.9438   22.2779 H   0  0  0  0  0  0
  -28.7532  -24.3266   22.4673 H   0  0  0  0  0  0
  -29.5797  -22.1229   22.3812 H   0  0  0  0  0  0
  -30.7794  -21.1106   21.5934 H   0  0  0  0  0  0
  -29.4426  -20.3850   22.4936 H   0  0  0  0  0  0
  -29.3718  -18.1959   21.6899 H   0  0  0  0  0  0
  -30.8288  -18.3081   20.8011 H   0  0  0  0  0  0
  -29.9234  -22.9951   19.8447 H   0  0  0  0  0  0
  -28.5603  -22.5970   18.8918 H   0  0  0  0  0  0
  -30.8587  -17.9405   18.3743 H   0  0  0  0  0  0
  -28.0937  -19.3683   19.6555 H   0  0  0  0  0  0
  -27.0155  -24.0578   20.0135 H   0  0  0  0  0  0
  -30.7205  -20.4366   18.6760 H   0  0  0  0  0  0
  -28.6561  -16.2412   20.3011 H   0  0  0  0  0  0
  -27.9628  -21.0714   20.9185 H   0  0  0  0  0  0
  -28.3313  -19.9664   17.2716 H   0  0  0  0  0  0
  1 25  1  0  0  0
  1 30  2  0  0  0
  1 81  1  0  0  0
  2  3  1  0  0  0
  2 25  1  0  0  0
  2 84  1  0  0  0
  2 85  1  0  0  0
  3  4  1  0  0  0
  3 86  1  0  0  0
  3 87  1  0  0  0
  4  5  1  0  0  0
  4 88  1  0  0  0
  4 89  1  0  0  0
  5  6  1  0  0  0
  5 26  1  0  0  0
  5 90  1  0  0  0
  6 25  1  0  0  0
  6 91  1  0  0  0
  6 92  1  0  0  0
  7  8  2  0  0  0
  7 26  1  0  0  0
  7 29  1  0  0  0
  8  9  1  0  0  0
  8 22  1  0  0  0
  9 10  1  0  0  0
  9 27  2  0  0  0
 10 11  2  0  0  0
 10 15  1  0  0  0
 11 12  1  0  0  0
 11 93  1  0  0  0
 12 13  2  0  0  0
 12 94  1  0  0  0
 13 14  1  0  0  0
 13 31  1  0  0  0
 14 15  2  0  0  0
 14 95  1  0  0  0
 15 96  1  0  0  0
 16 17  2  0  0  0
 16 21  1  0  0  0
 16 31  1  0  0  0
 17 18  1  0  0  0
 17 97  1  0  0  0
 18 19  2  0  0  0
 18 98  1  0  0  0
 19 20  1  0  0  0
 19 24  1  0  0  0
 20 21  2  0  0  0
 20 99  1  0  0  0
 21 23  1  0  0  0
 22 28  1  0  0  0
 22 32  2  0  0  0
 26 27  1  0  0  0
 28100  1  0  0  0
 28101  1  0  0  0
 29102  1  0  0  0
 29103  1  0  0  0
 33 34  1  0  0  0
 33 66  1  0  0  0
 33 70  2  0  0  0
 34 36  1  0  0  0
 34 59  1  0  0  0
 34104  1  0  0  0
 35 44  2  0  0  0
 35 45  1  0  0  0
 35 68  1  0  0  0
 36 56  1  0  0  0
 36105  1  0  0  0
 37 39  1  0  0  0
 37 47  1  0  0  0
 37 66  1  0  0  0
 37106  1  0  0  0
 38 43  2  0  0  0
 38 46  1  0  0  0
 38 47  1  0  0  0
 39 64  1  0  0  0
 39 67  2  0  0  0
 40 52  1  0  0  0
 40 53  2  0  0  0
 40 58  1  0  0  0
 41107  1  0  0  0
 41108  1  0  0  0
 41109  1  0  0  0
 41 48  1  0  0  0
 42 43  1  0  0  0
 42 66  1  0  0  0
 42110  1  0  0  0
 42111  1  0  0  0
 43 44  1  0  0  0
 44112  1  0  0  0
 45 46  2  0  0  0
 45113  1  0  0  0
 46114  1  0  0  0
 47115  1  0  0  0
 47116  1  0  0  0
 48 56  1  0  0  0
 48 65  1  0  0  0
 48117  1  0  0  0
 49 50  1  0  0  0
 49 53  1  0  0  0
 49 64  1  0  0  0
 49118  1  0  0  0
 50 51  1  0  0  0
 50119  1  0  0  0
 50120  1  0  0  0
 51 52  1  0  0  0
 51121  1  0  0  0
 51122  1  0  0  0
 52123  1  0  0  0
 52124  1  0  0  0
 53 54  1  0  0  0
 54 55  2  0  0  0
 54125  1  0  0  0
 55 57  1  0  0  0
 55126  1  0  0  0
 56 69  2  0  0  0
 57 58  2  0  0  0
 57127  1  0  0  0
 58128  1  0  0  0
 59 60  1  0  0  0
 59 61  1  0  0  0
 59 62  1  0  0  0
 60129  1  0  0  0
 60130  1  0  0  0
 60131  1  0  0  0
 61132  1  0  0  0
 61133  1  0  0  0
 61134  1  0  0  0
 62135  1  0  0  0
 62136  1  0  0  0
 62137  1  0  0  0
 63 65  1  0  0  0
 63138  1  0  0  0
 63139  1  0  0  0
 63140  1  0  0  0
 64141  1  0  0  0
 65142  1  0  0  0
 68 79  1  0  0  0
 71143  1  0  0  0
 71144  1  0  0  0
 71145  1  0  0  0
 71 77  1  0  0  0
 72 77  1  0  0  0
 72146  1  0  0  0
 72147  1  0  0  0
 72148  1  0  0  0
 73149  1  0  0  0
 73150  1  0  0  0
 73151  1  0  0  0
 73 79  1  0  0  0
 74152  1  0  0  0
 74153  1  0  0  0
 74154  1  0  0  0
 74 82  1  0  0  0
 75 81  1  0  0  0
 75155  1  0  0  0
 75156  1  0  0  0
 75 78  1  0  0  0
 76 79  1  0  0  0
 76 82  1  0  0  0
 76157  1  0  0  0
 76158  1  0  0  0
 77 80  1  0  0  0
 77159  1  0  0  0
 78 80  1  0  0  0
 78 82  1  0  0  0
 78160  1  0  0  0
 79161  1  0  0  0
 80 83  1  0  0  0
 80162  1  0  0  0
 81163  1  0  0  0
 82164  1  0  0  0
 83165  1  0  0  0
M  CHG  1  82   1
M  ISO  4   1 100  68 101  79 101  81 100
M  END
> <chiral flag>
0

> <version>
0

> <s_m_source_file>
/data/baiqing/PycharmProjects/Reinvent-master-3.2/result/LINK_invent/BTK/process_docking_weight1_custom_sum_contain_oxygen_bond_distance_aromatic_linkinvent_7_9_3/rearranged_h_0116.sdf

> <i_m_source_file_index>
2

> <r_mmod_Potential_Energy-OPLS-2005>
1223.66394042969

> <r_mmod_Stretch_Energy-OPLS-2005>
631.842346191406

> <r_mmod_Bend_Energy-OPLS-2005>
462.578552246094

> <r_mmod_Torsional_Energy-OPLS-2005>
288.5498046875

> <r_mmod_Improper_Torsional_Energy-OPLS-2005>
4.41631746292114

> <r_mmod_Van_der_Waal_Energy-OPLS-2005>
107.778656005859

> <r_mmod_Electrostatic_Energy-OPLS-2005>
-265.441375732422

> <r_mmod_Solvation_Energy-OPLS-2005>
-450.563629150391

> <b_mmod_Minimization_Converged-OPLS-2005>
0

> <r_mmod_RMS_Derivative-OPLS-2005>
1.79785323143005

$$$$
2
                    3D
 Structure written by MMmdl.
170178  0  0  1  0            999 V2000
  -30.7299  -14.3892   20.6742 C   0  0  0  0  0  0
  -30.4328  -12.2987   19.3935 C   0  0  0  0  0  0
  -29.4899  -12.5500   18.2004 C   0  0  0  0  0  0
  -28.0143  -12.3996   18.6159 C   0  0  0  0  0  0
  -27.6752  -13.2033   19.8968 C   0  0  2  0  0  0
  -28.7150  -12.9108   20.9994 C   0  0  0  0  0  0
  -25.2650  -13.8169   20.5720 C   0  0  0  0  0  0
  -24.1859  -13.0440   20.9172 C   0  0  0  0  0  0
  -24.6399  -11.6904   20.8717 C   0  0  0  0  0  0
  -23.9056  -10.4294   21.0402 C   0  0  0  0  0  0
  -24.3629   -9.4218   21.9173 C   0  0  0  0  0  0
  -23.6320   -8.2237   22.0735 C   0  0  0  0  0  0
  -22.4291   -8.0273   21.3530 C   0  0  0  0  0  0
  -21.9921   -9.0246   20.4630 C   0  0  0  0  0  0
  -22.7237  -10.2134   20.3048 C   0  0  0  0  0  0
  -21.6855   -6.0752   22.5263 C   0  0  0  0  0  0
  -21.4010   -6.5639   23.8210 C   0  0  0  0  0  0
  -21.3676   -5.6787   24.9165 C   0  0  0  0  0  0
  -21.6069   -4.3041   24.7202 C   0  0  0  0  0  0
  -21.8825   -3.8147   23.4313 C   0  0  0  0  0  0
  -21.9197   -4.6983   22.3383 C   0  0  0  0  0  0
  -22.7893  -13.5245   21.1867 C   0  0  0  0  0  0
  -22.1659   -4.2173   21.0962 F   0  0  0  0  0  0
  -21.5656   -3.4524   25.7716 F   0  0  0  0  0  0
  -30.0606  -13.2214   20.4750 N   0  0  0  0  0  0
  -26.3100  -12.9325   20.3481 N   0  0  0  0  0  0
  -25.9333  -11.6479   20.5784 N   0  0  0  0  0  0
  -22.0513  -12.8230   22.0423 N   0  0  0  0  0  0
  -25.4343  -15.1882   20.4197 N   0  0  0  0  0  0
  -31.7583  -14.6953   20.0608 O   0  0  0  0  0  0
  -21.6634   -6.8883   21.4222 O   0  0  0  0  0  0
  -22.3575  -14.5552   20.6732 O   0  0  0  0  0  0
  -24.6134  -31.8685   23.2086 C   0  0  0  0  0  0
  -25.9031  -32.4835   23.8388 C   0  0  1  0  0  0
  -27.2386  -27.4498   20.0613 C   0  0  0  0  0  0
  -25.5894  -33.8640   24.2315 N   0  0  0  0  0  0
  -23.4000  -30.4971   21.5494 C   0  0  2  0  0  0
  -24.8395  -28.9613   20.1207 C   0  0  0  0  0  0
  -22.7410  -29.4676   22.4964 C   0  0  0  0  0  0
  -18.0293  -28.1416   22.8529 C   0  0  0  0  0  0
  -24.1493  -36.7328   23.2633 C   0  0  0  0  0  0
  -25.9309  -30.8402   21.3547 C   0  0  0  0  0  0
  -26.0044  -29.4723   20.7062 C   0  0  0  0  0  0
  -27.2019  -28.7230   20.6804 C   0  0  0  0  0  0
  -26.0380  -26.9438   19.5011 C   0  0  0  0  0  0
  -24.8481  -27.6900   19.5289 C   0  0  0  0  0  0
  -23.6068  -29.8324   20.1636 C   0  0  0  0  0  0
  -25.4104  -36.3113   24.0330 C   0  0  1  0  0  0
  -20.5890  -28.3683   23.1331 C   0  0  2  0  0  0
  -20.6774  -26.9423   22.5421 C   0  0  0  0  0  0
  -19.5726  -26.6417   21.5239 C   0  0  0  0  0  0
  -18.1917  -26.7965   22.1668 C   0  0  0  0  0  0
  -19.1552  -28.8863   23.2932 C   0  0  0  0  0  0
  -18.9470  -30.1477   23.8927 C   0  0  0  0  0  0
  -17.6472  -30.6602   24.0606 C   0  0  0  0  0  0
  -25.9033  -34.9490   23.5120 C   0  0  0  0  0  0
  -16.5358  -29.9122   23.6340 C   0  0  0  0  0  0
  -16.7290  -28.6553   23.0346 C   0  0  0  0  0  0
  -26.4443  -31.6607   25.0717 C   0  0  0  0  0  0
  -25.3697  -31.3745   26.1453 C   0  0  0  0  0  0
  -27.0189  -30.3026   24.6069 C   0  0  0  0  0  0
  -27.6027  -32.4279   25.7516 C   0  0  0  0  0  0
  -27.5571  -37.1828   24.8465 C   0  0  0  0  0  0
  -21.4137  -29.3059   22.3739 N   0  0  0  0  0  0
  -26.4275  -37.3800   23.9422 N   0  0  0  0  0  0
  -24.6670  -31.0845   22.0942 N   0  0  0  0  0  0
  -23.4208  -28.8214   23.2994 O   0  0  0  0  0  0
  -28.4407  -26.7625   20.0395 O   0  0  0  0  0  0
  -26.5606  -34.8933   22.4694 O   0  0  0  0  0  0
  -23.5340  -32.1432   23.7518 O   0  0  0  0  0  0
  -27.5650  -17.6761   21.8408 C   0  0  0  0  0  0
  -28.3682  -16.5655   22.1221 C   0  0  0  0  0  0
  -27.9951  -18.6148   20.8819 C   0  0  0  0  0  0
  -29.2822  -18.4373   20.3011 C   0  0  0  0  0  0
  -29.5725  -16.3914   21.4254 C   0  0  0  0  0  0
  -27.0142  -19.7107   20.4984 C   0  0  0  0  0  0
  -29.5976  -18.9710   17.8312 C   0  0  0  0  0  0
  -27.4588  -24.3377   21.2120 C   0  0  0  0  0  0
  -29.8094  -20.9022   19.5261 C   0  0  0  0  0  0
  -30.4359  -21.3639   20.8631 C   0  0  0  0  0  0
  -29.9110  -23.8488   20.5973 C   0  0  0  0  0  0
  -28.5774  -25.5698   19.2465 C   0  0  0  0  0  0
  -29.9482  -19.3769   19.2750 C   0  0  1  0  0  0
  -28.5091  -24.2605   20.0785 C   0  0  2  0  0  0
  -30.0263  -17.3390   20.5743 N   0  0  0  0  0  0
  -30.2123  -15.1515   21.6460 N   0  0  0  0  0  0
  -29.8793  -22.6228   21.4278 N   0  3  0  0  0  0
  -31.4737  -12.4254   19.0864 H   0  0  0  0  0  0
  -30.3515  -11.2685   19.7403 H   0  0  0  0  0  0
  -29.7217  -11.8557   17.3925 H   0  0  0  0  0  0
  -29.6593  -13.5529   17.8048 H   0  0  0  0  0  0
  -27.8206  -11.3386   18.7785 H   0  0  0  0  0  0
  -27.3583  -12.7039   17.7992 H   0  0  0  0  0  0
  -27.7408  -14.2650   19.6535 H   0  0  0  0  0  0
  -28.6823  -11.8549   21.2714 H   0  0  0  0  0  0
  -28.4617  -13.4464   21.9136 H   0  0  0  0  0  0
  -25.2772   -9.5723   22.4743 H   0  0  0  0  0  0
  -24.0046   -7.4632   22.7453 H   0  0  0  0  0  0
  -21.0857   -8.8763   19.8939 H   0  0  0  0  0  0
  -22.3675  -10.9679   19.6168 H   0  0  0  0  0  0
  -21.1945   -7.6134   23.9714 H   0  0  0  0  0  0
  -21.1525   -6.0503   25.9087 H   0  0  0  0  0  0
  -22.0588   -2.7603   23.2781 H   0  0  0  0  0  0
  -22.4088  -11.9848   22.4784 H   0  0  0  0  0  0
  -21.1126  -13.1248   22.2629 H   0  0  0  0  0  0
  -24.6696  -15.8413   20.5520 H   0  0  0  0  0  0
  -26.3075  -15.6390   20.1785 H   0  0  0  0  0  0
  -26.7129  -32.5551   23.1189 H   0  0  0  0  0  0
  -25.0028  -33.9824   25.0443 H   0  0  0  0  0  0
  -22.6849  -31.3112   21.4136 H   0  0  0  0  0  0
  -23.3715  -35.9696   23.3299 H   0  0  0  0  0  0
  -24.3590  -36.8924   22.2041 H   0  0  0  0  0  0
  -23.7266  -37.6559   23.6628 H   0  0  0  0  0  0
  -26.0356  -31.6048   20.5820 H   0  0  0  0  0  0
  -26.8244  -30.8993   21.9662 H   0  0  0  0  0  0
  -28.1016  -29.1309   21.1218 H   0  0  0  0  0  0
  -25.9789  -25.9677   19.0462 H   0  0  0  0  0  0
  -23.9444  -27.2799   19.0998 H   0  0  0  0  0  0
  -23.7321  -30.6088   19.4058 H   0  0  0  0  0  0
  -22.7299  -29.2608   19.8543 H   0  0  0  0  0  0
  -25.1276  -36.1980   25.0812 H   0  0  0  0  0  0
  -21.0028  -28.3242   24.1435 H   0  0  0  0  0  0
  -20.5717  -26.2276   23.3619 H   0  0  0  0  0  0
  -21.6628  -26.7470   22.1171 H   0  0  0  0  0  0
  -19.6852  -25.6333   21.1245 H   0  0  0  0  0  0
  -19.6640  -27.3257   20.6799 H   0  0  0  0  0  0
  -17.4177  -26.6757   21.4072 H   0  0  0  0  0  0
  -18.0286  -26.0122   22.9082 H   0  0  0  0  0  0
  -19.7935  -30.7321   24.2281 H   0  0  0  0  0  0
  -17.5012  -31.6287   24.5206 H   0  0  0  0  0  0
  -15.5352  -30.3044   23.7608 H   0  0  0  0  0  0
  -15.8704  -28.0886   22.7001 H   0  0  0  0  0  0
  -24.5956  -30.6965   25.7849 H   0  0  0  0  0  0
  -24.8772  -32.2901   26.4757 H   0  0  0  0  0  0
  -25.8070  -30.9096   27.0295 H   0  0  0  0  0  0
  -26.2714  -29.6926   24.0974 H   0  0  0  0  0  0
  -27.3757  -29.7145   25.4533 H   0  0  0  0  0  0
  -27.8664  -30.4310   23.9319 H   0  0  0  0  0  0
  -27.2660  -33.3605   26.2080 H   0  0  0  0  0  0
  -28.3899  -32.6763   25.0377 H   0  0  0  0  0  0
  -28.0608  -31.8363   26.5468 H   0  0  0  0  0  0
  -28.2595  -38.0120   24.7495 H   0  0  0  0  0  0
  -28.1054  -36.2647   24.6297 H   0  0  0  0  0  0
  -27.2301  -37.1491   25.8873 H   0  0  0  0  0  0
  -20.9277  -29.8827   21.7023 H   0  0  0  0  0  0
  -26.0147  -38.2875   24.1415 H   0  0  0  0  0  0
  -26.6030  -17.7684   22.3268 H   0  0  0  0  0  0
  -28.0099  -15.8270   22.8278 H   0  0  0  0  0  0
  -26.0212  -19.4992   20.8986 H   0  0  0  0  0  0
  -26.9066  -19.7870   19.4147 H   0  0  0  0  0  0
  -27.3050  -20.6735   20.9138 H   0  0  0  0  0  0
  -28.5466  -19.1336   17.5973 H   0  0  0  0  0  0
  -29.8123  -17.9126   17.6638 H   0  0  0  0  0  0
  -30.1899  -19.5415   17.1150 H   0  0  0  0  0  0
  -27.7426  -25.0725   21.9685 H   0  0  0  0  0  0
  -27.3175  -23.3810   21.7134 H   0  0  0  0  0  0
  -26.4825  -24.6275   20.8297 H   0  0  0  0  0  0
  -30.3240  -21.4364   18.7234 H   0  0  0  0  0  0
  -28.7752  -21.2138   19.4280 H   0  0  0  0  0  0
  -31.5141  -21.4657   20.7273 H   0  0  0  0  0  0
  -30.3013  -20.5961   21.6280 H   0  0  0  0  0  0
  -30.3047  -24.6605   21.2111 H   0  0  0  0  0  0
  -30.6190  -23.7274   19.7764 H   0  0  0  0  0  0
  -29.5502  -25.6251   18.7544 H   0  0  0  0  0  0
  -27.8835  -25.5332   18.4072 H   0  0  0  0  0  0
  -31.0206  -19.1940   19.3721 H   0  0  0  0  0  0
  -28.1875  -23.4796   19.3884 H   0  0  0  0  0  0
  -29.6996  -14.5831   22.2994 H   0  0  0  0  0  0
  -28.9373  -22.4824   21.7509 H   0  0  0  0  0  0
  -30.4302  -22.8255   22.2479 H   0  0  0  0  0  0
  1 25  1  0  0  0
  1 30  2  0  0  0
  1 86  1  0  0  0
  2  3  1  0  0  0
  2 25  1  0  0  0
  2 88  1  0  0  0
  2 89  1  0  0  0
  3  4  1  0  0  0
  3 90  1  0  0  0
  3 91  1  0  0  0
  4  5  1  0  0  0
  4 92  1  0  0  0
  4 93  1  0  0  0
  5  6  1  0  0  0
  5 26  1  0  0  0
  5 94  1  0  0  0
  6 25  1  0  0  0
  6 95  1  0  0  0
  6 96  1  0  0  0
  7  8  2  0  0  0
  7 26  1  0  0  0
  7 29  1  0  0  0
  8  9  1  0  0  0
  8 22  1  0  0  0
  9 10  1  0  0  0
  9 27  2  0  0  0
 10 11  2  0  0  0
 10 15  1  0  0  0
 11 12  1  0  0  0
 11 97  1  0  0  0
 12 13  2  0  0  0
 12 98  1  0  0  0
 13 14  1  0  0  0
 13 31  1  0  0  0
 14 15  2  0  0  0
 14 99  1  0  0  0
 15100  1  0  0  0
 16 17  2  0  0  0
 16 21  1  0  0  0
 16 31  1  0  0  0
 17 18  1  0  0  0
 17101  1  0  0  0
 18 19  2  0  0  0
 18102  1  0  0  0
 19 20  1  0  0  0
 19 24  1  0  0  0
 20 21  2  0  0  0
 20103  1  0  0  0
 21 23  1  0  0  0
 22 28  1  0  0  0
 22 32  2  0  0  0
 26 27  1  0  0  0
 28104  1  0  0  0
 28105  1  0  0  0
 29106  1  0  0  0
 29107  1  0  0  0
 33 34  1  0  0  0
 33 66  1  0  0  0
 33 70  2  0  0  0
 34 36  1  0  0  0
 34 59  1  0  0  0
 34108  1  0  0  0
 35 44  2  0  0  0
 35 45  1  0  0  0
 35 68  1  0  0  0
 36 56  1  0  0  0
 36109  1  0  0  0
 37 39  1  0  0  0
 37 47  1  0  0  0
 37 66  1  0  0  0
 37110  1  0  0  0
 38 43  2  0  0  0
 38 46  1  0  0  0
 38 47  1  0  0  0
 39 64  1  0  0  0
 39 67  2  0  0  0
 40 52  1  0  0  0
 40 53  2  0  0  0
 40 58  1  0  0  0
 41111  1  0  0  0
 41112  1  0  0  0
 41113  1  0  0  0
 41 48  1  0  0  0
 42 43  1  0  0  0
 42 66  1  0  0  0
 42114  1  0  0  0
 42115  1  0  0  0
 43 44  1  0  0  0
 44116  1  0  0  0
 45 46  2  0  0  0
 45117  1  0  0  0
 46118  1  0  0  0
 47119  1  0  0  0
 47120  1  0  0  0
 48 56  1  0  0  0
 48 65  1  0  0  0
 48121  1  0  0  0
 49 50  1  0  0  0
 49 53  1  0  0  0
 49 64  1  0  0  0
 49122  1  0  0  0
 50 51  1  0  0  0
 50123  1  0  0  0
 50124  1  0  0  0
 51 52  1  0  0  0
 51125  1  0  0  0
 51126  1  0  0  0
 52127  1  0  0  0
 52128  1  0  0  0
 53 54  1  0  0  0
 54 55  2  0  0  0
 54129  1  0  0  0
 55 57  1  0  0  0
 55130  1  0  0  0
 56 69  2  0  0  0
 57 58  2  0  0  0
 57131  1  0  0  0
 58132  1  0  0  0
 59 60  1  0  0  0
 59 61  1  0  0  0
 59 62  1  0  0  0
 60133  1  0  0  0
 60134  1  0  0  0
 60135  1  0  0  0
 61136  1  0  0  0
 61137  1  0  0  0
 61138  1  0  0  0
 62139  1  0  0  0
 62140  1  0  0  0
 62141  1  0  0  0
 63 65  1  0  0  0
 63142  1  0  0  0
 63143  1  0  0  0
 63144  1  0  0  0
 64145  1  0  0  0
 65146  1  0  0  0
 68 82  1  0  0  0
 71 72  2  0  0  0
 71 73  1  0  0  0
 71147  1  0  0  0
 72 75  1  0  0  0
 72148  1  0  0  0
 73 74  2  0  0  0
 73 76  1  0  0  0
 74 83  1  0  0  0
 74 85  1  0  0  0
 75 85  2  0  0  0
 75 86  1  0  0  0
 76149  1  0  0  0
 76150  1  0  0  0
 76151  1  0  0  0
 77152  1  0  0  0
 77153  1  0  0  0
 77154  1  0  0  0
 77 83  1  0  0  0
 78155  1  0  0  0
 78156  1  0  0  0
 78157  1  0  0  0
 78 84  1  0  0  0
 79 80  1  0  0  0
 79 83  1  0  0  0
 79158  1  0  0  0
 79159  1  0  0  0
 80 87  1  0  0  0
 80160  1  0  0  0
 80161  1  0  0  0
 81 84  1  0  0  0
 81 87  1  0  0  0
 81162  1  0  0  0
 81163  1  0  0  0
 82 84  1  0  0  0
 82164  1  0  0  0
 82165  1  0  0  0
 83166  1  0  0  0
 84167  1  0  0  0
 86168  1  0  0  0
 87169  1  0  0  0
 87170  1  0  0  0
M  CHG  1  87   1
M  ISO  4   1 100  68 101  82 101  86 100
M  END
> <chiral flag>
0

> <version>
0

> <s_m_source_file>
/data/baiqing/PycharmProjects/Reinvent-master-3.2/result/LINK_invent/BTK/process_docking_weight1_custom_sum_contain_oxygen_bond_distance_aromatic_linkinvent_7_9_3/rearranged_h_0116.sdf

> <i_m_source_file_index>
3

> <r_mmod_Potential_Energy-OPLS-2005>
-356.807556152344

> <r_mmod_Stretch_Energy-OPLS-2005>
38.7208709716797

> <r_mmod_Bend_Energy-OPLS-2005>
126.937713623047

> <r_mmod_Torsional_Energy-OPLS-2005>
251.092803955078

> <r_mmod_Improper_Torsional_Energy-OPLS-2005>
6.44325160980225

> <r_mmod_Van_der_Waal_Energy-OPLS-2005>
151.751083374023

> <r_mmod_Electrostatic_Energy-OPLS-2005>
-470.264434814453

> <r_mmod_Solvation_Energy-OPLS-2005>
-470.231964111328

> <b_mmod_Minimization_Converged-OPLS-2005>
0

> <r_mmod_RMS_Derivative-OPLS-2005>
4.47758626937866

$$$$
3
                    3D
 Structure written by MMmdl.
165173  0  0  1  0            999 V2000
  -30.7642  -14.4158   20.6476 C   0  0  0  0  0  0
  -30.4052  -12.2938   19.4278 C   0  0  0  0  0  0
  -29.4919  -12.5214   18.2083 C   0  0  0  0  0  0
  -28.0150  -12.3637   18.6143 C   0  0  0  0  0  0
  -27.6567  -13.2075   19.8648 C   0  0  2  0  0  0
  -28.6880  -12.9949   20.9925 C   0  0  0  0  0  0
  -25.2558  -13.8154   20.5640 C   0  0  0  0  0  0
  -24.1821  -13.0434   20.9136 C   0  0  0  0  0  0
  -24.6372  -11.6897   20.8697 C   0  0  0  0  0  0
  -23.9032  -10.4287   21.0385 C   0  0  0  0  0  0
  -24.3588   -9.4204   21.9166 C   0  0  0  0  0  0
  -23.6266   -8.2242   22.0747 C   0  0  0  0  0  0
  -22.4251   -8.0270   21.3536 C   0  0  0  0  0  0
  -21.9871   -9.0240   20.4639 C   0  0  0  0  0  0
  -22.7194  -10.2122   20.3041 C   0  0  0  0  0  0
  -21.6857   -6.0712   22.5262 C   0  0  0  0  0  0
  -21.4028   -6.5627   23.8191 C   0  0  0  0  0  0
  -21.3667   -5.6787   24.9160 C   0  0  0  0  0  0
  -21.6039   -4.3042   24.7216 C   0  0  0  0  0  0
  -21.8824   -3.8129   23.4341 C   0  0  0  0  0  0
  -21.9190   -4.6941   22.3392 C   0  0  0  0  0  0
  -22.7843  -13.5228   21.1826 C   0  0  0  0  0  0
  -22.1656   -4.2126   21.0968 F   0  0  0  0  0  0
  -21.5622   -3.4528   25.7732 F   0  0  0  0  0  0
  -30.0341  -13.2777   20.4602 N   0  0  0  0  0  0
  -26.2982  -12.9326   20.3278 N   0  0  0  0  0  0
  -25.9289  -11.6484   20.5703 N   0  0  0  0  0  0
  -22.0495  -12.8235   22.0401 N   0  0  0  0  0  0
  -25.4257  -15.1881   20.4086 N   0  0  0  0  0  0
  -31.8148  -14.6277   20.0321 O   0  0  0  0  0  0
  -21.6633   -6.8855   21.4225 O   0  0  0  0  0  0
  -22.3524  -14.5536   20.6667 O   0  0  0  0  0  0
  -24.6118  -31.8696   23.2113 C   0  0  0  0  0  0
  -25.9027  -32.4820   23.8397 C   0  0  1  0  0  0
  -27.2299  -27.4552   20.1036 C   0  0  0  0  0  0
  -25.5879  -33.8621   24.2331 N   0  0  0  0  0  0
  -23.3974  -30.4919   21.5539 C   0  0  2  0  0  0
  -24.8410  -28.9594   20.1144 C   0  0  0  0  0  0
  -22.7402  -29.4669   22.5049 C   0  0  0  0  0  0
  -18.0274  -28.1370   22.8496 C   0  0  0  0  0  0
  -24.1490  -36.7324   23.2639 C   0  0  0  0  0  0
  -25.9217  -30.8419   21.3608 C   0  0  0  0  0  0
  -25.9982  -29.4788   20.7063 C   0  0  0  0  0  0
  -27.1946  -28.7350   20.6939 C   0  0  0  0  0  0
  -26.0564  -26.9398   19.5067 C   0  0  0  0  0  0
  -24.8635  -27.6897   19.5101 C   0  0  0  0  0  0
  -23.6009  -29.8213   20.1678 C   0  0  0  0  0  0
  -25.4100  -36.3110   24.0339 C   0  0  1  0  0  0
  -20.5854  -28.3655   23.1344 C   0  0  2  0  0  0
  -20.6773  -26.9406   22.5425 C   0  0  0  0  0  0
  -19.5755  -26.6384   21.5216 C   0  0  0  0  0  0
  -18.1928  -26.7918   22.1617 C   0  0  0  0  0  0
  -19.1517  -28.8826   23.2916 C   0  0  0  0  0  0
  -18.9439  -30.1430   23.8922 C   0  0  0  0  0  0
  -17.6444  -30.6577   24.0566 C   0  0  0  0  0  0
  -25.9020  -34.9478   23.5134 C   0  0  0  0  0  0
  -16.5345  -29.9072   23.6329 C   0  0  0  0  0  0
  -16.7261  -28.6494   23.0340 C   0  0  0  0  0  0
  -26.4463  -31.6586   25.0719 C   0  0  0  0  0  0
  -25.3728  -31.3690   26.1471 C   0  0  0  0  0  0
  -27.0298  -30.3035   24.6075 C   0  0  0  0  0  0
  -27.6053  -32.4309   25.7456 C   0  0  0  0  0  0
  -27.5592  -37.1809   24.8465 C   0  0  0  0  0  0
  -21.4140  -29.3019   22.3758 N   0  0  0  0  0  0
  -26.4305  -37.3788   23.9408 N   0  0  0  0  0  0
  -24.6617  -31.0817   22.1011 N   0  0  0  0  0  0
  -23.4183  -28.8235   23.3101 O   0  0  0  0  0  0
  -28.4187  -26.7655   20.1350 O   0  0  0  0  0  0
  -26.5602  -34.8943   22.4708 O   0  0  0  0  0  0
  -23.5330  -32.1461   23.7520 O   0  0  0  0  0  0
  -29.8982  -17.1719   19.6411 C   0  0  0  0  0  0
  -29.7272  -17.8569   22.0016 C   0  0  0  0  0  0
  -30.2901  -18.6094   19.2472 C   0  0  0  0  0  0
  -30.0487  -19.3218   21.6053 C   0  0  0  0  0  0
  -30.4063  -16.8286   21.0594 C   0  0  1  0  0  0
  -30.2576  -15.1296   22.8708 C   0  0  0  0  0  0
  -30.2240  -23.5086   19.8882 C   0  0  0  0  0  0
  -29.5097  -22.2153   20.3407 C   0  0  0  0  0  0
  -29.7441  -24.8295   20.5151 C   0  0  0  0  0  0
  -30.2679  -20.9893   19.7770 C   0  0  0  0  0  0
  -28.3873  -25.3455   20.0100 C   0  0  0  0  0  0
  -30.2154  -15.3907   21.4239 N   0  0  0  0  0  0
  -29.7590  -19.6453   20.1778 N   0  3  1  0  0  0
  -31.4561  -12.3566   19.1396 H   0  0  0  0  0  0
  -30.2691  -11.2836   19.8160 H   0  0  0  0  0  0
  -29.7373  -11.8164   17.4126 H   0  0  0  0  0  0
  -29.6623  -13.5190   17.8013 H   0  0  0  0  0  0
  -27.8400  -11.3068   18.8171 H   0  0  0  0  0  0
  -27.3632  -12.6225   17.7784 H   0  0  0  0  0  0
  -27.7006  -14.2552   19.5672 H   0  0  0  0  0  0
  -28.6513  -11.9680   21.3571 H   0  0  0  0  0  0
  -28.4134  -13.6142   21.8438 H   0  0  0  0  0  0
  -25.2732   -9.5692   22.4734 H   0  0  0  0  0  0
  -23.9964   -7.4649   22.7485 H   0  0  0  0  0  0
  -21.0786   -8.8755   19.8968 H   0  0  0  0  0  0
  -22.3627  -10.9655   19.6154 H   0  0  0  0  0  0
  -21.2044   -7.6140   23.9690 H   0  0  0  0  0  0
  -21.1481   -6.0517   25.9060 H   0  0  0  0  0  0
  -22.0599   -2.7588   23.2844 H   0  0  0  0  0  0
  -22.4099  -11.9886   22.4790 H   0  0  0  0  0  0
  -21.1126  -13.1292   22.2635 H   0  0  0  0  0  0
  -24.6577  -15.8414   20.5183 H   0  0  0  0  0  0
  -26.2881  -15.6332   20.1216 H   0  0  0  0  0  0
  -26.7106  -32.5528   23.1174 H   0  0  0  0  0  0
  -25.0027  -33.9773   25.0468 H   0  0  0  0  0  0
  -22.6858  -31.3080   21.4169 H   0  0  0  0  0  0
  -23.3745  -35.9670   23.3310 H   0  0  0  0  0  0
  -24.3619  -36.8933   22.2062 H   0  0  0  0  0  0
  -23.7247  -37.6531   23.6655 H   0  0  0  0  0  0
  -26.0374  -31.6095   20.5945 H   0  0  0  0  0  0
  -26.8086  -30.8889   21.9811 H   0  0  0  0  0  0
  -28.0899  -29.1336   21.1515 H   0  0  0  0  0  0
  -26.0484  -25.9679   19.0373 H   0  0  0  0  0  0
  -23.9728  -27.2828   19.0537 H   0  0  0  0  0  0
  -23.7014  -30.5949   19.4060 H   0  0  0  0  0  0
  -22.7240  -29.2370   19.8796 H   0  0  0  0  0  0
  -25.1273  -36.1990   25.0833 H   0  0  0  0  0  0
  -20.9928  -28.3202   24.1469 H   0  0  0  0  0  0
  -20.5678  -26.2266   23.3603 H   0  0  0  0  0  0
  -21.6649  -26.7466   22.1221 H   0  0  0  0  0  0
  -19.6932  -25.6292   21.1246 H   0  0  0  0  0  0
  -19.6694  -27.3190   20.6747 H   0  0  0  0  0  0
  -17.4211  -26.6681   21.4005 H   0  0  0  0  0  0
  -18.0323  -26.0039   22.8985 H   0  0  0  0  0  0
  -19.7909  -30.7238   24.2324 H   0  0  0  0  0  0
  -17.4993  -31.6259   24.5147 H   0  0  0  0  0  0
  -15.5335  -30.2970   23.7638 H   0  0  0  0  0  0
  -15.8674  -28.0808   22.7042 H   0  0  0  0  0  0
  -24.5853  -30.7103   25.7786 H   0  0  0  0  0  0
  -24.8966  -32.2850   26.4979 H   0  0  0  0  0  0
  -25.8055  -30.8778   27.0194 H   0  0  0  0  0  0
  -26.2831  -29.6779   24.1159 H   0  0  0  0  0  0
  -27.4126  -29.7285   25.4520 H   0  0  0  0  0  0
  -27.8661  -30.4384   23.9202 H   0  0  0  0  0  0
  -27.2678  -33.3585   26.2098 H   0  0  0  0  0  0
  -28.3807  -32.6902   25.0230 H   0  0  0  0  0  0
  -28.0800  -31.8391   26.5299 H   0  0  0  0  0  0
  -28.2600  -38.0109   24.7511 H   0  0  0  0  0  0
  -28.1085  -36.2644   24.6270 H   0  0  0  0  0  0
  -27.2335  -37.1449   25.8874 H   0  0  0  0  0  0
  -20.9321  -29.8724   21.6954 H   0  0  0  0  0  0
  -26.0199  -38.2889   24.1337 H   0  0  0  0  0  0
  -30.3103  -16.4974   18.8902 H   0  0  0  0  0  0
  -28.8148  -17.0533   19.5879 H   0  0  0  0  0  0
  -28.6468  -17.7030   22.0114 H   0  0  0  0  0  0
  -30.0652  -17.7281   23.0302 H   0  0  0  0  0  0
  -29.9315  -18.8137   18.2375 H   0  0  0  0  0  0
  -31.3785  -18.6866   19.2048 H   0  0  0  0  0  0
  -31.1022  -19.5167   21.8123 H   0  0  0  0  0  0
  -29.4818  -19.9982   22.2455 H   0  0  0  0  0  0
  -31.4827  -17.0146   21.0933 H   0  0  0  0  0  0
  -29.3695  -15.5257   23.3637 H   0  0  0  0  0  0
  -31.1407  -15.5879   23.3168 H   0  0  0  0  0  0
  -30.3014  -14.0656   23.1148 H   0  0  0  0  0  0
  -30.1875  -23.5907   18.8001 H   0  0  0  0  0  0
  -31.2834  -23.4147   20.1353 H   0  0  0  0  0  0
  -28.4756  -22.2158   19.9890 H   0  0  0  0  0  0
  -29.4736  -22.1816   21.4284 H   0  0  0  0  0  0
  -30.4950  -25.5807   20.2656 H   0  0  0  0  0  0
  -29.7425  -24.7701   21.6051 H   0  0  0  0  0  0
  -31.3238  -21.0593   20.0470 H   0  0  0  0  0  0
  -30.2410  -21.0664   18.6890 H   0  0  0  0  0  0
  -27.5834  -24.9078   20.6046 H   0  0  0  0  0  0
  -28.2266  -25.0727   18.9659 H   0  0  0  0  0  0
  -28.7565  -19.6534   20.0566 H   0  0  0  0  0  0
  1 25  1  0  0  0
  1 30  2  0  0  0
  1 82  1  0  0  0
  2  3  1  0  0  0
  2 25  1  0  0  0
  2 84  1  0  0  0
  2 85  1  0  0  0
  3  4  1  0  0  0
  3 86  1  0  0  0
  3 87  1  0  0  0
  4  5  1  0  0  0
  4 88  1  0  0  0
  4 89  1  0  0  0
  5  6  1  0  0  0
  5 26  1  0  0  0
  5 90  1  0  0  0
  6 25  1  0  0  0
  6 91  1  0  0  0
  6 92  1  0  0  0
  7  8  2  0  0  0
  7 26  1  0  0  0
  7 29  1  0  0  0
  8  9  1  0  0  0
  8 22  1  0  0  0
  9 10  1  0  0  0
  9 27  2  0  0  0
 10 11  2  0  0  0
 10 15  1  0  0  0
 11 12  1  0  0  0
 11 93  1  0  0  0
 12 13  2  0  0  0
 12 94  1  0  0  0
 13 14  1  0  0  0
 13 31  1  0  0  0
 14 15  2  0  0  0
 14 95  1  0  0  0
 15 96  1  0  0  0
 16 17  2  0  0  0
 16 21  1  0  0  0
 16 31  1  0  0  0
 17 18  1  0  0  0
 17 97  1  0  0  0
 18 19  2  0  0  0
 18 98  1  0  0  0
 19 20  1  0  0  0
 19 24  1  0  0  0
 20 21  2  0  0  0
 20 99  1  0  0  0
 21 23  1  0  0  0
 22 28  1  0  0  0
 22 32  2  0  0  0
 26 27  1  0  0  0
 28100  1  0  0  0
 28101  1  0  0  0
 29102  1  0  0  0
 29103  1  0  0  0
 33 34  1  0  0  0
 33 66  1  0  0  0
 33 70  2  0  0  0
 34 36  1  0  0  0
 34 59  1  0  0  0
 34104  1  0  0  0
 35 44  2  0  0  0
 35 45  1  0  0  0
 35 68  1  0  0  0
 36 56  1  0  0  0
 36105  1  0  0  0
 37 39  1  0  0  0
 37 47  1  0  0  0
 37 66  1  0  0  0
 37106  1  0  0  0
 38 43  2  0  0  0
 38 46  1  0  0  0
 38 47  1  0  0  0
 39 64  1  0  0  0
 39 67  2  0  0  0
 40 52  1  0  0  0
 40 53  2  0  0  0
 40 58  1  0  0  0
 41107  1  0  0  0
 41108  1  0  0  0
 41109  1  0  0  0
 41 48  1  0  0  0
 42 43  1  0  0  0
 42 66  1  0  0  0
 42110  1  0  0  0
 42111  1  0  0  0
 43 44  1  0  0  0
 44112  1  0  0  0
 45 46  2  0  0  0
 45113  1  0  0  0
 46114  1  0  0  0
 47115  1  0  0  0
 47116  1  0  0  0
 48 56  1  0  0  0
 48 65  1  0  0  0
 48117  1  0  0  0
 49 50  1  0  0  0
 49 53  1  0  0  0
 49 64  1  0  0  0
 49118  1  0  0  0
 50 51  1  0  0  0
 50119  1  0  0  0
 50120  1  0  0  0
 51 52  1  0  0  0
 51121  1  0  0  0
 51122  1  0  0  0
 52123  1  0  0  0
 52124  1  0  0  0
 53 54  1  0  0  0
 54 55  2  0  0  0
 54125  1  0  0  0
 55 57  1  0  0  0
 55126  1  0  0  0
 56 69  2  0  0  0
 57 58  2  0  0  0
 57127  1  0  0  0
 58128  1  0  0  0
 59 60  1  0  0  0
 59 61  1  0  0  0
 59 62  1  0  0  0
 60129  1  0  0  0
 60130  1  0  0  0
 60131  1  0  0  0
 61132  1  0  0  0
 61133  1  0  0  0
 61134  1  0  0  0
 62135  1  0  0  0
 62136  1  0  0  0
 62137  1  0  0  0
 63 65  1  0  0  0
 63138  1  0  0  0
 63139  1  0  0  0
 63140  1  0  0  0
 64141  1  0  0  0
 65142  1  0  0  0
 68 81  1  0  0  0
 71 73  1  0  0  0
 71 75  1  0  0  0
 71143  1  0  0  0
 71144  1  0  0  0
 72 74  1  0  0  0
 72 75  1  0  0  0
 72145  1  0  0  0
 72146  1  0  0  0
 73 83  1  0  0  0
 73147  1  0  0  0
 73148  1  0  0  0
 74 83  1  0  0  0
 74149  1  0  0  0
 74150  1  0  0  0
 75 82  1  0  0  0
 75151  1  0  0  0
 76 82  1  0  0  0
 76152  1  0  0  0
 76153  1  0  0  0
 76154  1  0  0  0
 77 78  1  0  0  0
 77 79  1  0  0  0
 77155  1  0  0  0
 77156  1  0  0  0
 78 80  1  0  0  0
 78157  1  0  0  0
 78158  1  0  0  0
 79 81  1  0  0  0
 79159  1  0  0  0
 79160  1  0  0  0
 80161  1  0  0  0
 80162  1  0  0  0
 80 83  1  0  0  0
 81163  1  0  0  0
 81164  1  0  0  0
 83165  1  0  0  0
M  CHG  1  83   1
M  ISO  4   1 100  68 101  81 101  82 100
M  END
> <chiral flag>
0

> <version>
0

> <s_m_source_file>
/data/baiqing/PycharmProjects/Reinvent-master-3.2/result/LINK_invent/BTK/process_docking_weight1_custom_sum_contain_oxygen_bond_distance_aromatic_linkinvent_7_9_3/rearranged_h_0116.sdf

> <i_m_source_file_index>
4

> <r_mmod_Potential_Energy-OPLS-2005>
78.5683517456055

> <r_mmod_Stretch_Energy-OPLS-2005>
39.2442092895508

> <r_mmod_Bend_Energy-OPLS-2005>
116.100219726562

> <r_mmod_Torsional_Energy-OPLS-2005>
306.596130371094

> <r_mmod_Improper_Torsional_Energy-OPLS-2005>
6.30400991439819

> <r_mmod_Van_der_Waal_Energy-OPLS-2005>
150.887130737305

> <r_mmod_Electrostatic_Energy-OPLS-2005>
-127.168525695801

> <r_mmod_Solvation_Energy-OPLS-2005>
-423.406219482422

> <b_mmod_Minimization_Converged-OPLS-2005>
0

> <r_mmod_RMS_Derivative-OPLS-2005>
2.59904837608337

$$$$
4
                    3D
 Structure written by MMmdl.
157165  0  0  1  0            999 V2000
  -30.6583  -14.6299   20.4532 C   0  0  0  0  0  0
  -30.4242  -12.3703   19.4743 C   0  0  0  0  0  0
  -29.5090  -12.4989   18.2376 C   0  0  0  0  0  0
  -28.0355  -12.3208   18.6514 C   0  0  0  0  0  0
  -27.6503  -13.2196   19.8572 C   0  0  2  0  0  0
  -28.6941  -13.1297   20.9970 C   0  0  0  0  0  0
  -25.2575  -13.8200   20.5679 C   0  0  0  0  0  0
  -24.1869  -13.0469   20.9206 C   0  0  0  0  0  0
  -24.6422  -11.6922   20.8774 C   0  0  0  0  0  0
  -23.9105  -10.4307   21.0450 C   0  0  0  0  0  0
  -24.3677   -9.4217   21.9233 C   0  0  0  0  0  0
  -23.6338   -8.2254   22.0774 C   0  0  0  0  0  0
  -22.4309   -8.0313   21.3566 C   0  0  0  0  0  0
  -21.9949   -9.0291   20.4658 C   0  0  0  0  0  0
  -22.7277  -10.2166   20.3085 C   0  0  0  0  0  0
  -21.6843   -6.0769   22.5292 C   0  0  0  0  0  0
  -21.3996   -6.5666   23.8232 C   0  0  0  0  0  0
  -21.3671   -5.6806   24.9188 C   0  0  0  0  0  0
  -21.6058   -4.3066   24.7226 C   0  0  0  0  0  0
  -21.8831   -3.8173   23.4346 C   0  0  0  0  0  0
  -21.9189   -4.6995   22.3406 C   0  0  0  0  0  0
  -22.7900  -13.5255   21.1822 C   0  0  0  0  0  0
  -22.1668   -4.2206   21.0968 F   0  0  0  0  0  0
  -21.5628   -3.4531   25.7730 F   0  0  0  0  0  0
  -30.0159  -13.4231   20.4277 N   0  0  0  0  0  0
  -26.3006  -12.9382   20.3338 N   0  0  0  0  0  0
  -25.9366  -11.6532   20.5825 N   0  0  0  0  0  0
  -22.0519  -12.8284   22.0373 N   0  0  0  0  0  0
  -25.4321  -15.1930   20.4039 N   0  0  0  0  0  0
  -31.8299  -14.7367   20.0856 O   0  0  0  0  0  0
  -21.6643   -6.8928   21.4262 O   0  0  0  0  0  0
  -22.3620  -14.5555   20.6616 O   0  0  0  0  0  0
  -24.6174  -31.8637   23.2023 C   0  0  0  0  0  0
  -25.9023  -32.4822   23.8351 C   0  0  1  0  0  0
  -27.2302  -27.3631   20.1210 C   0  0  0  0  0  0
  -25.5857  -33.8629   24.2286 N   0  0  0  0  0  0
  -23.4166  -30.4832   21.5392 C   0  0  2  0  0  0
  -24.8677  -28.9391   20.1133 C   0  0  0  0  0  0
  -22.7484  -29.4618   22.4902 C   0  0  0  0  0  0
  -18.0289  -28.1402   22.8473 C   0  0  0  0  0  0
  -24.1492  -36.7342   23.2646 C   0  0  0  0  0  0
  -25.9525  -30.8086   21.3677 C   0  0  0  0  0  0
  -26.0310  -29.4381   20.7125 C   0  0  0  0  0  0
  -27.2226  -28.6619   20.7013 C   0  0  0  0  0  0
  -26.0504  -26.8938   19.5129 C   0  0  0  0  0  0
  -24.8751  -27.6716   19.5064 C   0  0  0  0  0  0
  -23.6359  -29.8164   20.1553 C   0  0  0  0  0  0
  -25.4114  -36.3127   24.0334 C   0  0  1  0  0  0
  -20.5889  -28.3691   23.1284 C   0  0  2  0  0  0
  -20.6785  -26.9411   22.5396 C   0  0  0  0  0  0
  -19.5747  -26.6366   21.5225 C   0  0  0  0  0  0
  -18.1922  -26.7932   22.1614 C   0  0  0  0  0  0
  -19.1539  -28.8849   23.2889 C   0  0  0  0  0  0
  -18.9477  -30.1462   23.8896 C   0  0  0  0  0  0
  -17.6482  -30.6593   24.0572 C   0  0  0  0  0  0
  -25.9027  -34.9492   23.5124 C   0  0  0  0  0  0
  -16.5380  -29.9112   23.6311 C   0  0  0  0  0  0
  -16.7271  -28.6542   23.0301 C   0  0  0  0  0  0
  -26.4400  -31.6654   25.0726 C   0  0  0  0  0  0
  -25.3606  -31.3842   26.1457 C   0  0  0  0  0  0
  -27.0240  -30.3094   24.6131 C   0  0  0  0  0  0
  -27.5978  -32.4393   25.7475 C   0  0  0  0  0  0
  -27.5600  -37.1817   24.8451 C   0  0  0  0  0  0
  -21.4189  -29.3082   22.3716 N   0  0  0  0  0  0
  -26.4310  -37.3807   23.9408 N   0  0  0  0  0  0
  -24.6807  -31.0674   22.0953 N   0  0  0  0  0  0
  -23.4256  -28.8133   23.2910 O   0  0  0  0  0  0
  -28.3500  -26.5423   20.1250 O   0  0  0  0  0  0
  -26.5602  -34.8959   22.4692 O   0  0  0  0  0  0
  -23.5330  -32.1406   23.7351 O   0  0  0  0  0  0
  -29.3523  -22.9608   21.3412 C   0  0  0  0  0  0
  -29.5990  -21.6063   21.3913 C   0  0  0  0  0  0
  -30.2987  -19.7125   19.7764 C   0  0  0  0  0  0
  -28.6336  -19.2043   20.8724 C   0  0  0  0  0  0
  -29.9539  -18.4342   20.5908 C   0  0  1  0  0  0
  -30.3957  -21.0031   22.5470 C   0  0  0  0  0  0
  -28.6624  -23.9317   20.3385 C   0  0  0  0  0  0
  -30.0591  -17.0340   19.8638 C   0  0  0  0  0  0
  -28.2803  -25.3444   20.9626 C   0  0  0  0  0  0
  -29.8830  -15.7449   20.6170 N   0  0  0  0  0  0
  -29.2141  -20.4945   20.4006 N   0  3  1  0  0  0
  -31.4733  -12.4471   19.1811 H   0  0  0  0  0  0
  -30.3128  -11.3857   19.9358 H   0  0  0  0  0  0
  -29.7820  -11.7578   17.4860 H   0  0  0  0  0  0
  -29.6529  -13.4776   17.7750 H   0  0  0  0  0  0
  -27.8902  -11.2694   18.9112 H   0  0  0  0  0  0
  -27.3809  -12.5230   17.8029 H   0  0  0  0  0  0
  -27.6502  -14.2426   19.4829 H   0  0  0  0  0  0
  -28.6992  -12.1375   21.4471 H   0  0  0  0  0  0
  -28.4467  -13.8264   21.8001 H   0  0  0  0  0  0
  -25.2854   -9.5683   22.4796 H   0  0  0  0  0  0
  -24.0060   -7.4642   22.7471 H   0  0  0  0  0  0
  -21.0890   -8.8827   19.8946 H   0  0  0  0  0  0
  -22.3787  -10.9733   19.6192 H   0  0  0  0  0  0
  -21.1959   -7.6171   23.9758 H   0  0  0  0  0  0
  -21.1484   -6.0521   25.9102 H   0  0  0  0  0  0
  -22.0586   -2.7646   23.2815 H   0  0  0  0  0  0
  -22.4083  -11.9959   22.4838 H   0  0  0  0  0  0
  -21.1142  -13.1369   22.2490 H   0  0  0  0  0  0
  -24.6545  -15.8417   20.4706 H   0  0  0  0  0  0
  -26.2778  -15.6314   20.0619 H   0  0  0  0  0  0
  -26.7101  -32.5480   23.1117 H   0  0  0  0  0  0
  -24.9971  -33.9814   25.0404 H   0  0  0  0  0  0
  -22.7053  -31.2988   21.3856 H   0  0  0  0  0  0
  -23.3756  -35.9675   23.3295 H   0  0  0  0  0  0
  -24.3605  -36.8953   22.2065 H   0  0  0  0  0  0
  -23.7245  -37.6548   23.6657 H   0  0  0  0  0  0
  -26.0714  -31.5723   20.5988 H   0  0  0  0  0  0
  -26.8399  -30.8653   21.9862 H   0  0  0  0  0  0
  -28.1240  -29.0427   21.1600 H   0  0  0  0  0  0
  -26.0354  -25.9140   19.0562 H   0  0  0  0  0  0
  -23.9823  -27.2805   19.0421 H   0  0  0  0  0  0
  -23.7651  -30.5911   19.3991 H   0  0  0  0  0  0
  -22.7584  -29.2491   19.8397 H   0  0  0  0  0  0
  -25.1282  -36.1994   25.0821 H   0  0  0  0  0  0
  -20.9986  -28.3233   24.1409 H   0  0  0  0  0  0
  -20.5696  -26.2290   23.3588 H   0  0  0  0  0  0
  -21.6643  -26.7420   22.1181 H   0  0  0  0  0  0
  -19.6932  -25.6279   21.1252 H   0  0  0  0  0  0
  -19.6707  -27.3154   20.6748 H   0  0  0  0  0  0
  -17.4200  -26.6675   21.4013 H   0  0  0  0  0  0
  -18.0328  -26.0104   22.9027 H   0  0  0  0  0  0
  -19.7968  -30.7287   24.2248 H   0  0  0  0  0  0
  -17.5043  -31.6252   24.5190 H   0  0  0  0  0  0
  -15.5383  -30.3017   23.7663 H   0  0  0  0  0  0
  -15.8663  -28.0900   22.6969 H   0  0  0  0  0  0
  -24.5741  -30.7227   25.7804 H   0  0  0  0  0  0
  -24.8821  -32.3032   26.4857 H   0  0  0  0  0  0
  -25.7880  -30.9031   27.0261 H   0  0  0  0  0  0
  -26.2811  -29.6900   24.1085 H   0  0  0  0  0  0
  -27.3919  -29.7297   25.4609 H   0  0  0  0  0  0
  -27.8675  -30.4444   23.9360 H   0  0  0  0  0  0
  -27.2585  -33.3693   26.2066 H   0  0  0  0  0  0
  -28.3748  -32.6984   25.0264 H   0  0  0  0  0  0
  -28.0677  -31.8509   26.5360 H   0  0  0  0  0  0
  -28.2570  -38.0161   24.7541 H   0  0  0  0  0  0
  -28.1137  -36.2687   24.6194 H   0  0  0  0  0  0
  -27.2324  -37.1368   25.8856 H   0  0  0  0  0  0
  -20.9349  -29.8917   21.7048 H   0  0  0  0  0  0
  -26.0197  -38.2881   24.1436 H   0  0  0  0  0  0
  -29.7536  -23.5008   22.1872 H   0  0  0  0  0  0
  -30.1114  -19.6022   18.7056 H   0  0  0  0  0  0
  -31.2954  -20.1134   19.9546 H   0  0  0  0  0  0
  -27.8149  -18.8823   20.2267 H   0  0  0  0  0  0
  -28.3111  -19.2084   21.9126 H   0  0  0  0  0  0
  -30.5676  -18.4294   21.4955 H   0  0  0  0  0  0
  -31.3027  -20.5054   22.1976 H   0  0  0  0  0  0
  -29.7968  -20.2940   23.1163 H   0  0  0  0  0  0
  -30.7173  -21.7711   23.2468 H   0  0  0  0  0  0
  -27.7774  -23.4721   19.8981 H   0  0  0  0  0  0
  -29.3728  -24.0954   19.5280 H   0  0  0  0  0  0
  -31.0185  -17.0055   19.3451 H   0  0  0  0  0  0
  -29.3323  -17.0061   19.0486 H   0  0  0  0  0  0
  -28.9734  -25.5501   21.7786 H   0  0  0  0  0  0
  -27.3043  -25.2659   21.4496 H   0  0  0  0  0  0
  -28.9539  -15.5606   20.9598 H   0  0  0  0  0  0
  -28.6203  -20.8738   19.6771 H   0  0  0  0  0  0
  1 25  1  0  0  0
  1 30  2  0  0  0
  1 80  1  0  0  0
  2  3  1  0  0  0
  2 25  1  0  0  0
  2 82  1  0  0  0
  2 83  1  0  0  0
  3  4  1  0  0  0
  3 84  1  0  0  0
  3 85  1  0  0  0
  4  5  1  0  0  0
  4 86  1  0  0  0
  4 87  1  0  0  0
  5  6  1  0  0  0
  5 26  1  0  0  0
  5 88  1  0  0  0
  6 25  1  0  0  0
  6 89  1  0  0  0
  6 90  1  0  0  0
  7  8  2  0  0  0
  7 26  1  0  0  0
  7 29  1  0  0  0
  8  9  1  0  0  0
  8 22  1  0  0  0
  9 10  1  0  0  0
  9 27  2  0  0  0
 10 11  2  0  0  0
 10 15  1  0  0  0
 11 12  1  0  0  0
 11 91  1  0  0  0
 12 13  2  0  0  0
 12 92  1  0  0  0
 13 14  1  0  0  0
 13 31  1  0  0  0
 14 15  2  0  0  0
 14 93  1  0  0  0
 15 94  1  0  0  0
 16 17  2  0  0  0
 16 21  1  0  0  0
 16 31  1  0  0  0
 17 18  1  0  0  0
 17 95  1  0  0  0
 18 19  2  0  0  0
 18 96  1  0  0  0
 19 20  1  0  0  0
 19 24  1  0  0  0
 20 21  2  0  0  0
 20 97  1  0  0  0
 21 23  1  0  0  0
 22 28  1  0  0  0
 22 32  2  0  0  0
 26 27  1  0  0  0
 28 98  1  0  0  0
 28 99  1  0  0  0
 29100  1  0  0  0
 29101  1  0  0  0
 33 34  1  0  0  0
 33 66  1  0  0  0
 33 70  2  0  0  0
 34 36  1  0  0  0
 34 59  1  0  0  0
 34102  1  0  0  0
 35 44  2  0  0  0
 35 45  1  0  0  0
 35 68  1  0  0  0
 36 56  1  0  0  0
 36103  1  0  0  0
 37 39  1  0  0  0
 37 47  1  0  0  0
 37 66  1  0  0  0
 37104  1  0  0  0
 38 43  2  0  0  0
 38 46  1  0  0  0
 38 47  1  0  0  0
 39 64  1  0  0  0
 39 67  2  0  0  0
 40 52  1  0  0  0
 40 53  2  0  0  0
 40 58  1  0  0  0
 41105  1  0  0  0
 41106  1  0  0  0
 41107  1  0  0  0
 41 48  1  0  0  0
 42 43  1  0  0  0
 42 66  1  0  0  0
 42108  1  0  0  0
 42109  1  0  0  0
 43 44  1  0  0  0
 44110  1  0  0  0
 45 46  2  0  0  0
 45111  1  0  0  0
 46112  1  0  0  0
 47113  1  0  0  0
 47114  1  0  0  0
 48 56  1  0  0  0
 48 65  1  0  0  0
 48115  1  0  0  0
 49 50  1  0  0  0
 49 53  1  0  0  0
 49 64  1  0  0  0
 49116  1  0  0  0
 50 51  1  0  0  0
 50117  1  0  0  0
 50118  1  0  0  0
 51 52  1  0  0  0
 51119  1  0  0  0
 51120  1  0  0  0
 52121  1  0  0  0
 52122  1  0  0  0
 53 54  1  0  0  0
 54 55  2  0  0  0
 54123  1  0  0  0
 55 57  1  0  0  0
 55124  1  0  0  0
 56 69  2  0  0  0
 57 58  2  0  0  0
 57125  1  0  0  0
 58126  1  0  0  0
 59 60  1  0  0  0
 59 61  1  0  0  0
 59 62  1  0  0  0
 60127  1  0  0  0
 60128  1  0  0  0
 60129  1  0  0  0
 61130  1  0  0  0
 61131  1  0  0  0
 61132  1  0  0  0
 62133  1  0  0  0
 62134  1  0  0  0
 62135  1  0  0  0
 63 65  1  0  0  0
 63136  1  0  0  0
 63137  1  0  0  0
 63138  1  0  0  0
 64139  1  0  0  0
 65140  1  0  0  0
 68 79  1  0  0  0
 71 72  2  0  0  0
 71 77  1  0  0  0
 71141  1  0  0  0
 72 76  1  0  0  0
 72 81  1  0  0  0
 73 75  1  0  0  0
 73 81  1  0  0  0
 73142  1  0  0  0
 73143  1  0  0  0
 74 75  1  0  0  0
 74 81  1  0  0  0
 74144  1  0  0  0
 74145  1  0  0  0
 75 78  1  0  0  0
 75146  1  0  0  0
 76147  1  0  0  0
 76148  1  0  0  0
 76149  1  0  0  0
 77 79  1  0  0  0
 77150  1  0  0  0
 77151  1  0  0  0
 78 80  1  0  0  0
 78152  1  0  0  0
 78153  1  0  0  0
 79154  1  0  0  0
 79155  1  0  0  0
 80156  1  0  0  0
 81157  1  0  0  0
M  CHG  1  81   1
M  ISO  4   1 100  68 101  79 101  80 100
M  END
> <chiral flag>
0

> <version>
0

> <s_m_source_file>
/data/baiqing/PycharmProjects/Reinvent-master-3.2/result/LINK_invent/BTK/process_docking_weight1_custom_sum_contain_oxygen_bond_distance_aromatic_linkinvent_7_9_3/rearranged_h_0116.sdf

> <i_m_source_file_index>
5

> <r_mmod_Potential_Energy-OPLS-2005>
-38.7172241210938

> <r_mmod_Stretch_Energy-OPLS-2005>
69.1117095947266

> <r_mmod_Bend_Energy-OPLS-2005>
159.009246826172

> <r_mmod_Torsional_Energy-OPLS-2005>
285.686340332031

> <r_mmod_Improper_Torsional_Energy-OPLS-2005>
8.93164539337158

> <r_mmod_Van_der_Waal_Energy-OPLS-2005>
128.949096679688

> <r_mmod_Electrostatic_Energy-OPLS-2005>
-264.416687011719

> <r_mmod_Solvation_Energy-OPLS-2005>
-468.025665283203

> <b_mmod_Minimization_Converged-OPLS-2005>
0

> <r_mmod_RMS_Derivative-OPLS-2005>
5.19839143753052

$$$$
5
                    3D
 Structure written by MMmdl.
161170  0  0  1  0            999 V2000
  -30.6349  -14.7213   20.4604 C   0  0  0  0  0  0
  -30.4280  -12.4397   19.4751 C   0  0  0  0  0  0
  -29.5051  -12.5041   18.2384 C   0  0  0  0  0  0
  -28.0323  -12.3342   18.6541 C   0  0  0  0  0  0
  -27.6458  -13.2318   19.8597 C   0  0  2  0  0  0
  -28.6910  -13.1590   20.9958 C   0  0  0  0  0  0
  -25.2533  -13.8204   20.5714 C   0  0  0  0  0  0
  -24.1811  -13.0453   20.9196 C   0  0  0  0  0  0
  -24.6394  -11.6928   20.8757 C   0  0  0  0  0  0
  -23.9060  -10.4309   21.0415 C   0  0  0  0  0  0
  -24.3613   -9.4222   21.9186 C   0  0  0  0  0  0
  -23.6295   -8.2252   22.0750 C   0  0  0  0  0  0
  -22.4276   -8.0286   21.3539 C   0  0  0  0  0  0
  -21.9915   -9.0260   20.4638 C   0  0  0  0  0  0
  -22.7237  -10.2147   20.3055 C   0  0  0  0  0  0
  -21.6861   -6.0733   22.5274 C   0  0  0  0  0  0
  -21.4016   -6.5636   23.8206 C   0  0  0  0  0  0
  -21.3662   -5.6790   24.9166 C   0  0  0  0  0  0
  -21.6044   -4.3053   24.7221 C   0  0  0  0  0  0
  -21.8819   -3.8143   23.4343 C   0  0  0  0  0  0
  -21.9195   -4.6960   22.3397 C   0  0  0  0  0  0
  -22.7833  -13.5232   21.1857 C   0  0  0  0  0  0
  -22.1665   -4.2146   21.0974 F   0  0  0  0  0  0
  -21.5632   -3.4534   25.7733 F   0  0  0  0  0  0
  -29.9962  -13.5020   20.4162 N   0  0  0  0  0  0
  -26.2964  -12.9406   20.3341 N   0  0  0  0  0  0
  -25.9331  -11.6545   20.5790 N   0  0  0  0  0  0
  -22.0477  -12.8218   22.0410 N   0  0  0  0  0  0
  -25.4260  -15.1923   20.4103 N   0  0  0  0  0  0
  -31.8063  -14.8006   20.0853 O   0  0  0  0  0  0
  -21.6645   -6.8881   21.4237 O   0  0  0  0  0  0
  -22.3519  -14.5542   20.6715 O   0  0  0  0  0  0
  -24.6308  -31.8559   23.2009 C   0  0  0  0  0  0
  -25.9122  -32.4761   23.8352 C   0  0  1  0  0  0
  -27.2084  -27.2546   20.1297 C   0  0  0  0  0  0
  -25.5922  -33.8568   24.2271 N   0  0  0  0  0  0
  -23.4274  -30.4797   21.5446 C   0  0  2  0  0  0
  -24.8733  -28.9343   20.1085 C   0  0  0  0  0  0
  -22.7510  -29.4574   22.4912 C   0  0  0  0  0  0
  -18.0298  -28.1367   22.8465 C   0  0  0  0  0  0
  -24.1494  -36.7279   23.2644 C   0  0  0  0  0  0
  -25.9758  -30.7661   21.3842 C   0  0  0  0  0  0
  -26.0461  -29.3886   20.7255 C   0  0  0  0  0  0
  -27.2165  -28.5619   20.7268 C   0  0  0  0  0  0
  -26.0182  -26.8861   19.4608 C   0  0  0  0  0  0
  -24.8660  -27.6908   19.4641 C   0  0  0  0  0  0
  -23.6459  -29.8217   20.1581 C   0  0  0  0  0  0
  -25.4119  -36.3071   24.0337 C   0  0  1  0  0  0
  -20.5904  -28.3664   23.1267 C   0  0  2  0  0  0
  -20.6786  -26.9382   22.5411 C   0  0  0  0  0  0
  -19.5768  -26.6362   21.5208 C   0  0  0  0  0  0
  -18.1942  -26.7904   22.1609 C   0  0  0  0  0  0
  -19.1558  -28.8835   23.2847 C   0  0  0  0  0  0
  -18.9479  -30.1440   23.8861 C   0  0  0  0  0  0
  -17.6480  -30.6568   24.0552 C   0  0  0  0  0  0
  -25.9062  -34.9445   23.5104 C   0  0  0  0  0  0
  -16.5365  -29.9064   23.6334 C   0  0  0  0  0  0
  -16.7286  -28.6490   23.0331 C   0  0  0  0  0  0
  -26.4491  -31.6584   25.0746 C   0  0  0  0  0  0
  -25.3707  -31.3748   26.1465 C   0  0  0  0  0  0
  -27.0345  -30.3006   24.6228 C   0  0  0  0  0  0
  -27.6032  -32.4343   25.7513 C   0  0  0  0  0  0
  -27.5576  -37.1798   24.8469 C   0  0  0  0  0  0
  -21.4220  -29.3012   22.3661 N   0  0  0  0  0  0
  -26.4288  -37.3767   23.9413 N   0  0  0  0  0  0
  -24.6969  -31.0519   22.0986 N   0  0  0  0  0  0
  -23.4217  -28.8099   23.2993 O   0  0  0  0  0  0
  -28.2852  -26.3333   20.1820 O   0  0  0  0  0  0
  -26.5635  -34.8917   22.4681 O   0  0  0  0  0  0
  -23.5457  -32.1381   23.7299 O   0  0  0  0  0  0
  -28.5958  -21.1076   21.3485 C   0  0  0  0  0  0
  -27.6751  -24.7231   21.9602 C   0  0  0  0  0  0
  -31.5744  -17.8459   20.6084 C   0  0  0  0  0  0
  -29.1602  -18.4756   20.8761 C   0  0  0  0  0  0
  -27.6214  -23.2053   22.1960 C   0  0  0  0  0  0
  -28.9087  -23.6017   20.2555 C   0  0  0  0  0  0
  -31.7998  -19.2933   20.0954 C   0  0  0  0  0  0
  -29.4604  -20.0439   20.5203 C   0  0  2  0  0  0
  -30.1450  -17.3370   20.3103 C   0  0  2  0  0  0
  -27.9651  -24.8864   20.4799 C   0  0  2  0  0  0
  -28.4630  -22.5026   21.2010 N   0  0  0  0  0  0
  -29.8921  -15.8689   20.7105 N   0  0  0  0  0  0
  -30.9037  -20.2879   20.7375 N   0  3  0  0  0  0
  -27.9829  -20.5893   22.2890 O   0  0  0  0  0  0
  -31.4687  -12.5507   19.1665 H   0  0  0  0  0  0
  -30.3650  -11.4602   19.9520 H   0  0  0  0  0  0
  -29.7808  -11.7329   17.5176 H   0  0  0  0  0  0
  -29.6351  -13.4597   17.7277 H   0  0  0  0  0  0
  -27.8844  -11.2858   18.9137 H   0  0  0  0  0  0
  -27.3722  -12.5317   17.8079 H   0  0  0  0  0  0
  -27.6451  -14.2553   19.4842 H   0  0  0  0  0  0
  -28.7217  -12.1596   21.4334 H   0  0  0  0  0  0
  -28.4314  -13.8407   21.8073 H   0  0  0  0  0  0
  -25.2759   -9.5699   22.4761 H   0  0  0  0  0  0
  -24.0006   -7.4642   22.7470 H   0  0  0  0  0  0
  -21.0848   -8.8771   19.8944 H   0  0  0  0  0  0
  -22.3691  -10.9679   19.6162 H   0  0  0  0  0  0
  -21.2011   -7.6143   23.9707 H   0  0  0  0  0  0
  -21.1484   -6.0517   25.9069 H   0  0  0  0  0  0
  -22.0600   -2.7604   23.2838 H   0  0  0  0  0  0
  -22.4098  -11.9871   22.4780 H   0  0  0  0  0  0
  -21.1087  -13.1235   22.2616 H   0  0  0  0  0  0
  -24.6609  -15.8498   20.5138 H   0  0  0  0  0  0
  -26.2718  -15.6234   20.0601 H   0  0  0  0  0  0
  -26.7178  -32.5394   23.1078 H   0  0  0  0  0  0
  -25.0060  -33.9715   25.0405 H   0  0  0  0  0  0
  -22.7238  -31.3022   21.4017 H   0  0  0  0  0  0
  -23.3766  -35.9599   23.3315 H   0  0  0  0  0  0
  -24.3587  -36.8905   22.2055 H   0  0  0  0  0  0
  -23.7255  -37.6490   23.6665 H   0  0  0  0  0  0
  -26.1217  -31.5271   20.6166 H   0  0  0  0  0  0
  -26.8509  -30.8088   22.0204 H   0  0  0  0  0  0
  -28.1105  -28.9004   21.2314 H   0  0  0  0  0  0
  -25.9449  -25.9561   18.9200 H   0  0  0  0  0  0
  -23.9746  -27.3453   18.9581 H   0  0  0  0  0  0
  -23.7710  -30.6029   19.4075 H   0  0  0  0  0  0
  -22.7628  -29.2588   19.8483 H   0  0  0  0  0  0
  -25.1305  -36.1916   25.0831 H   0  0  0  0  0  0
  -20.9979  -28.3215   24.1395 H   0  0  0  0  0  0
  -20.5701  -26.2249   23.3598 H   0  0  0  0  0  0
  -21.6643  -26.7414   22.1195 H   0  0  0  0  0  0
  -19.6943  -25.6279   21.1227 H   0  0  0  0  0  0
  -19.6716  -27.3167   20.6739 H   0  0  0  0  0  0
  -17.4217  -26.6641   21.4010 H   0  0  0  0  0  0
  -18.0341  -26.0055   22.9013 H   0  0  0  0  0  0
  -19.7964  -30.7261   24.2194 H   0  0  0  0  0  0
  -17.5048  -31.6249   24.5148 H   0  0  0  0  0  0
  -15.5366  -30.2959   23.7689 H   0  0  0  0  0  0
  -15.8680  -28.0820   22.7037 H   0  0  0  0  0  0
  -24.5878  -30.7096   25.7805 H   0  0  0  0  0  0
  -24.8892  -32.2919   26.4862 H   0  0  0  0  0  0
  -25.8009  -30.8952   27.0256 H   0  0  0  0  0  0
  -26.2931  -29.6762   24.1225 H   0  0  0  0  0  0
  -27.4013  -29.7266   25.4741 H   0  0  0  0  0  0
  -27.8807  -30.4313   23.9488 H   0  0  0  0  0  0
  -27.2622  -33.3656   26.2041 H   0  0  0  0  0  0
  -28.3836  -32.6883   25.0337 H   0  0  0  0  0  0
  -28.0680  -31.8508   26.5471 H   0  0  0  0  0  0
  -28.2578  -38.0100   24.7505 H   0  0  0  0  0  0
  -28.1085  -36.2634   24.6300 H   0  0  0  0  0  0
  -27.2294  -37.1452   25.8870 H   0  0  0  0  0  0
  -20.9405  -29.8765   21.6892 H   0  0  0  0  0  0
  -26.0179  -38.2844   24.1421 H   0  0  0  0  0  0
  -28.4878  -25.1574   22.5446 H   0  0  0  0  0  0
  -26.7527  -25.2200   22.2648 H   0  0  0  0  0  0
  -31.7847  -17.7871   21.6768 H   0  0  0  0  0  0
  -32.3144  -17.2160   20.1182 H   0  0  0  0  0  0
  -28.1392  -18.2439   20.5718 H   0  0  0  0  0  0
  -29.1613  -18.3679   21.9624 H   0  0  0  0  0  0
  -26.5903  -22.8607   22.0905 H   0  0  0  0  0  0
  -27.9349  -22.9804   23.2173 H   0  0  0  0  0  0
  -29.9428  -23.8571   20.4890 H   0  0  0  0  0  0
  -28.8798  -23.2673   19.2186 H   0  0  0  0  0  0
  -31.6660  -19.3315   19.0130 H   0  0  0  0  0  0
  -32.8333  -19.5882   20.2826 H   0  0  0  0  0  0
  -29.2449  -20.2055   19.4639 H   0  0  0  0  0  0
  -30.0285  -17.3464   19.2243 H   0  0  0  0  0  0
  -27.0559  -24.6020   19.9560 H   0  0  0  0  0  0
  -28.9595  -15.6784   21.0463 H   0  0  0  0  0  0
  -31.1327  -21.2032   20.3838 H   0  0  0  0  0  0
  -31.0797  -20.3045   21.7297 H   0  0  0  0  0  0
  1 25  1  0  0  0
  1 30  2  0  0  0
  1 82  1  0  0  0
  2  3  1  0  0  0
  2 25  1  0  0  0
  2 85  1  0  0  0
  2 86  1  0  0  0
  3  4  1  0  0  0
  3 87  1  0  0  0
  3 88  1  0  0  0
  4  5  1  0  0  0
  4 89  1  0  0  0
  4 90  1  0  0  0
  5  6  1  0  0  0
  5 26  1  0  0  0
  5 91  1  0  0  0
  6 25  1  0  0  0
  6 92  1  0  0  0
  6 93  1  0  0  0
  7  8  2  0  0  0
  7 26  1  0  0  0
  7 29  1  0  0  0
  8  9  1  0  0  0
  8 22  1  0  0  0
  9 10  1  0  0  0
  9 27  2  0  0  0
 10 11  2  0  0  0
 10 15  1  0  0  0
 11 12  1  0  0  0
 11 94  1  0  0  0
 12 13  2  0  0  0
 12 95  1  0  0  0
 13 14  1  0  0  0
 13 31  1  0  0  0
 14 15  2  0  0  0
 14 96  1  0  0  0
 15 97  1  0  0  0
 16 17  2  0  0  0
 16 21  1  0  0  0
 16 31  1  0  0  0
 17 18  1  0  0  0
 17 98  1  0  0  0
 18 19  2  0  0  0
 18 99  1  0  0  0
 19 20  1  0  0  0
 19 24  1  0  0  0
 20 21  2  0  0  0
 20100  1  0  0  0
 21 23  1  0  0  0
 22 28  1  0  0  0
 22 32  2  0  0  0
 26 27  1  0  0  0
 28101  1  0  0  0
 28102  1  0  0  0
 29103  1  0  0  0
 29104  1  0  0  0
 33 34  1  0  0  0
 33 66  1  0  0  0
 33 70  2  0  0  0
 34 36  1  0  0  0
 34 59  1  0  0  0
 34105  1  0  0  0
 35 44  2  0  0  0
 35 45  1  0  0  0
 35 68  1  0  0  0
 36 56  1  0  0  0
 36106  1  0  0  0
 37 39  1  0  0  0
 37 47  1  0  0  0
 37 66  1  0  0  0
 37107  1  0  0  0
 38 43  2  0  0  0
 38 46  1  0  0  0
 38 47  1  0  0  0
 39 64  1  0  0  0
 39 67  2  0  0  0
 40 52  1  0  0  0
 40 53  2  0  0  0
 40 58  1  0  0  0
 41108  1  0  0  0
 41109  1  0  0  0
 41110  1  0  0  0
 41 48  1  0  0  0
 42 43  1  0  0  0
 42 66  1  0  0  0
 42111  1  0  0  0
 42112  1  0  0  0
 43 44  1  0  0  0
 44113  1  0  0  0
 45 46  2  0  0  0
 45114  1  0  0  0
 46115  1  0  0  0
 47116  1  0  0  0
 47117  1  0  0  0
 48 56  1  0  0  0
 48 65  1  0  0  0
 48118  1  0  0  0
 49 50  1  0  0  0
 49 53  1  0  0  0
 49 64  1  0  0  0
 49119  1  0  0  0
 50 51  1  0  0  0
 50120  1  0  0  0
 50121  1  0  0  0
 51 52  1  0  0  0
 51122  1  0  0  0
 51123  1  0  0  0
 52124  1  0  0  0
 52125  1  0  0  0
 53 54  1  0  0  0
 54 55  2  0  0  0
 54126  1  0  0  0
 55 57  1  0  0  0
 55127  1  0  0  0
 56 69  2  0  0  0
 57 58  2  0  0  0
 57128  1  0  0  0
 58129  1  0  0  0
 59 60  1  0  0  0
 59 61  1  0  0  0
 59 62  1  0  0  0
 60130  1  0  0  0
 60131  1  0  0  0
 60132  1  0  0  0
 61133  1  0  0  0
 61134  1  0  0  0
 61135  1  0  0  0
 62136  1  0  0  0
 62137  1  0  0  0
 62138  1  0  0  0
 63 65  1  0  0  0
 63139  1  0  0  0
 63140  1  0  0  0
 63141  1  0  0  0
 64142  1  0  0  0
 65143  1  0  0  0
 68 80  1  0  0  0
 71 81  1  0  0  0
 71 84  2  0  0  0
 71 78  1  0  0  0
 72 75  1  0  0  0
 72 80  1  0  0  0
 72144  1  0  0  0
 72145  1  0  0  0
 73 77  1  0  0  0
 73 79  1  0  0  0
 73146  1  0  0  0
 73147  1  0  0  0
 74 78  1  0  0  0
 74 79  1  0  0  0
 74148  1  0  0  0
 74149  1  0  0  0
 75 81  1  0  0  0
 75150  1  0  0  0
 75151  1  0  0  0
 76 80  1  0  0  0
 76 81  1  0  0  0
 76152  1  0  0  0
 76153  1  0  0  0
 77 83  1  0  0  0
 77154  1  0  0  0
 77155  1  0  0  0
 78 83  1  0  0  0
 78156  1  0  0  0
 79 82  1  0  0  0
 79157  1  0  0  0
 80158  1  0  0  0
 82159  1  0  0  0
 83160  1  0  0  0
 83161  1  0  0  0
M  CHG  1  83   1
M  ISO  4   1 100  68 101  80 101  82 100
M  END
> <chiral flag>
0

> <version>
0

> <s_m_source_file>
/data/baiqing/PycharmProjects/Reinvent-master-3.2/result/LINK_invent/BTK/process_docking_weight1_custom_sum_contain_oxygen_bond_distance_aromatic_linkinvent_7_9_3/rearranged_h_0116.sdf

> <i_m_source_file_index>
6

> <r_mmod_Potential_Energy-OPLS-2005>
58.3530158996582

> <r_mmod_Stretch_Energy-OPLS-2005>
132.402847290039

> <r_mmod_Bend_Energy-OPLS-2005>
231.746597290039

> <r_mmod_Torsional_Energy-OPLS-2005>
309.121185302734

> <r_mmod_Improper_Torsional_Energy-OPLS-2005>
5.5330376625061

> <r_mmod_Van_der_Waal_Energy-OPLS-2005>
133.091949462891

> <r_mmod_Electrostatic_Energy-OPLS-2005>
-328.226318359375

> <r_mmod_Solvation_Energy-OPLS-2005>
-508.257873535156

> <b_mmod_Minimization_Converged-OPLS-2005>
0

> <r_mmod_RMS_Derivative-OPLS-2005>
1.89955699443817

$$$$
6
                    3D
 Structure written by MMmdl.
162170  0  0  1  0            999 V2000
  -30.7206  -14.4524   20.5995 C   0  0  0  0  0  0
  -30.3973  -12.3044   19.4135 C   0  0  0  0  0  0
  -29.4724  -12.5180   18.1976 C   0  0  0  0  0  0
  -27.9875  -12.4190   18.6016 C   0  0  0  0  0  0
  -27.6553  -13.2244   19.8857 C   0  0  2  0  0  0
  -28.7008  -12.9878   20.9980 C   0  0  0  0  0  0
  -25.2529  -13.8254   20.5758 C   0  0  0  0  0  0
  -24.1815  -13.0495   20.9192 C   0  0  0  0  0  0
  -24.6410  -11.6946   20.8806 C   0  0  0  0  0  0
  -23.9091  -10.4317   21.0432 C   0  0  0  0  0  0
  -24.3636   -9.4203   21.9179 C   0  0  0  0  0  0
  -23.6300   -8.2244   22.0730 C   0  0  0  0  0  0
  -22.4278   -8.0312   21.3541 C   0  0  0  0  0  0
  -21.9948   -9.0291   20.4640 C   0  0  0  0  0  0
  -22.7282  -10.2165   20.3054 C   0  0  0  0  0  0
  -21.6850   -6.0750   22.5266 C   0  0  0  0  0  0
  -21.4022   -6.5646   23.8207 C   0  0  0  0  0  0
  -21.3651   -5.6797   24.9167 C   0  0  0  0  0  0
  -21.6044   -4.3060   24.7224 C   0  0  0  0  0  0
  -21.8815   -3.8155   23.4345 C   0  0  0  0  0  0
  -21.9185   -4.6968   22.3394 C   0  0  0  0  0  0
  -22.7823  -13.5238   21.1850 C   0  0  0  0  0  0
  -22.1651   -4.2165   21.0965 F   0  0  0  0  0  0
  -21.5621   -3.4527   25.7722 F   0  0  0  0  0  0
  -30.0271  -13.2919   20.4385 N   0  0  0  0  0  0
  -26.2990  -12.9462   20.3485 N   0  0  0  0  0  0
  -25.9346  -11.6589   20.5868 N   0  0  0  0  0  0
  -22.0494  -12.8210   22.0412 N   0  0  0  0  0  0
  -25.4344  -15.1978   20.4173 N   0  0  0  0  0  0
  -31.8206  -14.6455   20.0759 O   0  0  0  0  0  0
  -21.6642   -6.8906   21.4235 O   0  0  0  0  0  0
  -22.3465  -14.5513   20.6661 O   0  0  0  0  0  0
  -24.6164  -31.8594   23.2120 C   0  0  0  0  0  0
  -25.9034  -32.4779   23.8426 C   0  0  1  0  0  0
  -27.2444  -27.4016   20.1205 C   0  0  0  0  0  0
  -25.5884  -33.8587   24.2328 N   0  0  0  0  0  0
  -23.4104  -30.4794   21.5485 C   0  0  2  0  0  0
  -24.8618  -28.9347   20.1271 C   0  0  0  0  0  0
  -22.7430  -29.4568   22.4974 C   0  0  0  0  0  0
  -18.0239  -28.1387   22.8480 C   0  0  0  0  0  0
  -24.1479  -36.7300   23.2643 C   0  0  0  0  0  0
  -25.9401  -30.8212   21.3667 C   0  0  0  0  0  0
  -26.0206  -29.4476   20.7232 C   0  0  0  0  0  0
  -27.2167  -28.6876   20.7148 C   0  0  0  0  0  0
  -26.0672  -26.9042   19.5249 C   0  0  0  0  0  0
  -24.8791  -27.6616   19.5299 C   0  0  0  0  0  0
  -23.6264  -29.8056   20.1662 C   0  0  0  0  0  0
  -25.4101  -36.3082   24.0338 C   0  0  1  0  0  0
  -20.5842  -28.3636   23.1322 C   0  0  2  0  0  0
  -20.6712  -26.9367   22.5417 C   0  0  0  0  0  0
  -19.5697  -26.6376   21.5211 C   0  0  0  0  0  0
  -18.1884  -26.7919   22.1638 C   0  0  0  0  0  0
  -19.1498  -28.8834   23.2887 C   0  0  0  0  0  0
  -18.9425  -30.1442   23.8893 C   0  0  0  0  0  0
  -17.6431  -30.6580   24.0574 C   0  0  0  0  0  0
  -25.9025  -34.9442   23.5125 C   0  0  0  0  0  0
  -16.5325  -29.9088   23.6332 C   0  0  0  0  0  0
  -16.7234  -28.6513   23.0345 C   0  0  0  0  0  0
  -26.4472  -31.6585   25.0781 C   0  0  0  0  0  0
  -25.3781  -31.3706   26.1576 C   0  0  0  0  0  0
  -27.0305  -30.3027   24.6170 C   0  0  0  0  0  0
  -27.6047  -32.4307   25.7550 C   0  0  0  0  0  0
  -27.5567  -37.1814   24.8466 C   0  0  0  0  0  0
  -21.4146  -29.3004   22.3750 N   0  0  0  0  0  0
  -26.4273  -37.3767   23.9414 N   0  0  0  0  0  0
  -24.6738  -31.0684   22.1021 N   0  0  0  0  0  0
  -23.4186  -28.8070   23.2992 O   0  0  0  0  0  0
  -28.4216  -26.6869   20.0345 O   0  0  0  0  0  0
  -26.5601  -34.8897   22.4690 O   0  0  0  0  0  0
  -23.5335  -32.1339   23.7485 O   0  0  0  0  0  0
  -30.2426  -20.2703   20.4515 C   0  0  0  0  0  0
  -30.8489  -19.0339   20.7396 C   0  0  0  0  0  0
  -28.8437  -20.4313   20.6171 C   0  0  0  0  0  0
  -30.0641  -17.9609   21.1856 C   0  0  0  0  0  0
  -28.1202  -19.2606   21.0089 C   0  0  0  0  0  0
  -25.7302  -20.1631   20.4200 C   0  0  0  0  0  0
  -26.3338  -19.4660   22.7799 C   0  0  0  0  0  0
  -30.7400  -16.6874   21.7054 C   0  0  0  0  0  0
  -28.0774  -24.1494   20.1980 C   0  0  0  0  0  0
  -28.5747  -25.4860   20.8255 C   0  0  0  0  0  0
  -28.8844  -22.8885   20.6551 C   0  0  0  0  0  0
  -26.6100  -19.2385   21.2864 C   0  0  0  0  0  0
  -28.7230  -18.0712   21.2958 N   0  0  0  0  0  0
  -30.1202  -15.4112   21.3240 N   0  0  0  0  0  0
  -28.1981  -21.6459   20.3966 O   0  0  0  0  0  0
  -31.4424  -12.3795   19.1121 H   0  0  0  0  0  0
  -30.2750  -11.2977   19.8153 H   0  0  0  0  0  0
  -29.6885  -11.7832   17.4197 H   0  0  0  0  0  0
  -29.6611  -13.4987   17.7566 H   0  0  0  0  0  0
  -27.7361  -11.3684   18.7359 H   0  0  0  0  0  0
  -27.3596  -12.7742   17.7816 H   0  0  0  0  0  0
  -27.7026  -14.2793   19.6142 H   0  0  0  0  0  0
  -28.6813  -11.9501   21.3346 H   0  0  0  0  0  0
  -28.4675  -13.5806   21.8835 H   0  0  0  0  0  0
  -25.2777   -9.5645   22.4767 H   0  0  0  0  0  0
  -23.9994   -7.4625   22.7438 H   0  0  0  0  0  0
  -21.0877   -8.8846   19.8945 H   0  0  0  0  0  0
  -22.3762  -10.9719   19.6172 H   0  0  0  0  0  0
  -21.2036   -7.6163   23.9707 H   0  0  0  0  0  0
  -21.1465   -6.0535   25.9067 H   0  0  0  0  0  0
  -22.0607   -2.7614   23.2831 H   0  0  0  0  0  0
  -22.4142  -11.9870   22.4781 H   0  0  0  0  0  0
  -21.1113  -13.1218   22.2636 H   0  0  0  0  0  0
  -24.6941  -15.8779   20.5497 H   0  0  0  0  0  0
  -26.3198  -15.6203   20.1652 H   0  0  0  0  0  0
  -26.7123  -32.5481   23.1219 H   0  0  0  0  0  0
  -25.0037  -33.9755   25.0477 H   0  0  0  0  0  0
  -22.6978  -31.2927   21.4019 H   0  0  0  0  0  0
  -23.3720  -35.9658   23.3313 H   0  0  0  0  0  0
  -24.3548  -36.8915   22.2052 H   0  0  0  0  0  0
  -23.7278  -37.6533   23.6647 H   0  0  0  0  0  0
  -26.0426  -31.5818   20.5952 H   0  0  0  0  0  0
  -26.8315  -30.8862   21.9797 H   0  0  0  0  0  0
  -28.1178  -29.0784   21.1651 H   0  0  0  0  0  0
  -26.0700  -25.9377   19.0417 H   0  0  0  0  0  0
  -23.9876  -27.2550   19.0737 H   0  0  0  0  0  0
  -23.7417  -30.5759   19.4029 H   0  0  0  0  0  0
  -22.7539  -29.2229   19.8660 H   0  0  0  0  0  0
  -25.1269  -36.1939   25.0833 H   0  0  0  0  0  0
  -20.9918  -28.3202   24.1455 H   0  0  0  0  0  0
  -20.5562  -26.2261   23.3617 H   0  0  0  0  0  0
  -21.6588  -26.7356   22.1262 H   0  0  0  0  0  0
  -19.6854  -25.6293   21.1222 H   0  0  0  0  0  0
  -19.6660  -27.3212   20.6768 H   0  0  0  0  0  0
  -17.4152  -26.6651   21.4053 H   0  0  0  0  0  0
  -18.0285  -26.0069   22.9035 H   0  0  0  0  0  0
  -19.7910  -30.7246   24.2288 H   0  0  0  0  0  0
  -17.4994  -31.6260   24.5170 H   0  0  0  0  0  0
  -15.5333  -30.3006   23.7646 H   0  0  0  0  0  0
  -15.8628  -28.0845   22.7060 H   0  0  0  0  0  0
  -24.5922  -30.7064   25.7964 H   0  0  0  0  0  0
  -24.9028  -32.2875   26.5071 H   0  0  0  0  0  0
  -25.8179  -30.8875   27.0319 H   0  0  0  0  0  0
  -26.2878  -29.6835   24.1148 H   0  0  0  0  0  0
  -27.3990  -29.7199   25.4619 H   0  0  0  0  0  0
  -27.8724  -30.4325   23.9374 H   0  0  0  0  0  0
  -27.2649  -33.3562   26.2205 H   0  0  0  0  0  0
  -28.3845  -32.6955   25.0399 H   0  0  0  0  0  0
  -28.0761  -31.8427   26.5446 H   0  0  0  0  0  0
  -28.2581  -38.0102   24.7453 H   0  0  0  0  0  0
  -28.1050  -36.2630   24.6329 H   0  0  0  0  0  0
  -27.2269  -37.1515   25.8864 H   0  0  0  0  0  0
  -20.9320  -29.8803   21.7035 H   0  0  0  0  0  0
  -26.0143  -38.2827   24.1476 H   0  0  0  0  0  0
  -30.8756  -21.0781   20.1211 H   0  0  0  0  0  0
  -31.9199  -18.9233   20.6588 H   0  0  0  0  0  0
  -25.8917  -19.9959   19.3556 H   0  0  0  0  0  0
  -25.8915  -21.2219   20.6254 H   0  0  0  0  0  0
  -24.6766  -19.9786   20.6239 H   0  0  0  0  0  0
  -26.8140  -18.6945   23.3835 H   0  0  0  0  0  0
  -25.2656  -19.4386   23.0016 H   0  0  0  0  0  0
  -26.7192  -20.4356   23.0989 H   0  0  0  0  0  0
  -31.7943  -16.7088   21.4219 H   0  0  0  0  0  0
  -30.7445  -16.7412   22.7944 H   0  0  0  0  0  0
  -28.1442  -24.2248   19.1124 H   0  0  0  0  0  0
  -27.0189  -24.0262   20.4316 H   0  0  0  0  0  0
  -29.6510  -25.3913   20.9865 H   0  0  0  0  0  0
  -28.1424  -25.6203   21.8165 H   0  0  0  0  0  0
  -29.0987  -22.9381   21.7250 H   0  0  0  0  0  0
  -29.8393  -22.9143   20.1335 H   0  0  0  0  0  0
  -26.2756  -18.2255   21.0580 H   0  0  0  0  0  0
  -29.1941  -15.2381   21.6809 H   0  0  0  0  0  0
  1 25  1  0  0  0
  1 30  2  0  0  0
  1 84  1  0  0  0
  2  3  1  0  0  0
  2 25  1  0  0  0
  2 86  1  0  0  0
  2 87  1  0  0  0
  3  4  1  0  0  0
  3 88  1  0  0  0
  3 89  1  0  0  0
  4  5  1  0  0  0
  4 90  1  0  0  0
  4 91  1  0  0  0
  5  6  1  0  0  0
  5 26  1  0  0  0
  5 92  1  0  0  0
  6 25  1  0  0  0
  6 93  1  0  0  0
  6 94  1  0  0  0
  7  8  2  0  0  0
  7 26  1  0  0  0
  7 29  1  0  0  0
  8  9  1  0  0  0
  8 22  1  0  0  0
  9 10  1  0  0  0
  9 27  2  0  0  0
 10 11  2  0  0  0
 10 15  1  0  0  0
 11 12  1  0  0  0
 11 95  1  0  0  0
 12 13  2  0  0  0
 12 96  1  0  0  0
 13 14  1  0  0  0
 13 31  1  0  0  0
 14 15  2  0  0  0
 14 97  1  0  0  0
 15 98  1  0  0  0
 16 17  2  0  0  0
 16 21  1  0  0  0
 16 31  1  0  0  0
 17 18  1  0  0  0
 17 99  1  0  0  0
 18 19  2  0  0  0
 18100  1  0  0  0
 19 20  1  0  0  0
 19 24  1  0  0  0
 20 21  2  0  0  0
 20101  1  0  0  0
 21 23  1  0  0  0
 22 28  1  0  0  0
 22 32  2  0  0  0
 26 27  1  0  0  0
 28102  1  0  0  0
 28103  1  0  0  0
 29104  1  0  0  0
 29105  1  0  0  0
 33 34  1  0  0  0
 33 66  1  0  0  0
 33 70  2  0  0  0
 34 36  1  0  0  0
 34 59  1  0  0  0
 34106  1  0  0  0
 35 44  2  0  0  0
 35 45  1  0  0  0
 35 68  1  0  0  0
 36 56  1  0  0  0
 36107  1  0  0  0
 37 39  1  0  0  0
 37 47  1  0  0  0
 37 66  1  0  0  0
 37108  1  0  0  0
 38 43  2  0  0  0
 38 46  1  0  0  0
 38 47  1  0  0  0
 39 64  1  0  0  0
 39 67  2  0  0  0
 40 52  1  0  0  0
 40 53  2  0  0  0
 40 58  1  0  0  0
 41109  1  0  0  0
 41110  1  0  0  0
 41111  1  0  0  0
 41 48  1  0  0  0
 42 43  1  0  0  0
 42 66  1  0  0  0
 42112  1  0  0  0
 42113  1  0  0  0
 43 44  1  0  0  0
 44114  1  0  0  0
 45 46  2  0  0  0
 45115  1  0  0  0
 46116  1  0  0  0
 47117  1  0  0  0
 47118  1  0  0  0
 48 56  1  0  0  0
 48 65  1  0  0  0
 48119  1  0  0  0
 49 50  1  0  0  0
 49 53  1  0  0  0
 49 64  1  0  0  0
 49120  1  0  0  0
 50 51  1  0  0  0
 50121  1  0  0  0
 50122  1  0  0  0
 51 52  1  0  0  0
 51123  1  0  0  0
 51124  1  0  0  0
 52125  1  0  0  0
 52126  1  0  0  0
 53 54  1  0  0  0
 54 55  2  0  0  0
 54127  1  0  0  0
 55 57  1  0  0  0
 55128  1  0  0  0
 56 69  2  0  0  0
 57 58  2  0  0  0
 57129  1  0  0  0
 58130  1  0  0  0
 59 60  1  0  0  0
 59 61  1  0  0  0
 59 62  1  0  0  0
 60131  1  0  0  0
 60132  1  0  0  0
 60133  1  0  0  0
 61134  1  0  0  0
 61135  1  0  0  0
 61136  1  0  0  0
 62137  1  0  0  0
 62138  1  0  0  0
 62139  1  0  0  0
 63 65  1  0  0  0
 63140  1  0  0  0
 63141  1  0  0  0
 63142  1  0  0  0
 64143  1  0  0  0
 65144  1  0  0  0
 68 80  1  0  0  0
 71 72  2  0  0  0
 71 73  1  0  0  0
 71145  1  0  0  0
 72 74  1  0  0  0
 72146  1  0  0  0
 73 75  2  0  0  0
 73 85  1  0  0  0
 74 78  1  0  0  0
 74 83  2  0  0  0
 75 82  1  0  0  0
 75 83  1  0  0  0
 76147  1  0  0  0
 76148  1  0  0  0
 76149  1  0  0  0
 76 82  1  0  0  0
 77 82  1  0  0  0
 77150  1  0  0  0
 77151  1  0  0  0
 77152  1  0  0  0
 78 84  1  0  0  0
 78153  1  0  0  0
 78154  1  0  0  0
 79 80  1  0  0  0
 79 81  1  0  0  0
 79155  1  0  0  0
 79156  1  0  0  0
 80157  1  0  0  0
 80158  1  0  0  0
 81 85  1  0  0  0
 81159  1  0  0  0
 81160  1  0  0  0
 82161  1  0  0  0
 84162  1  0  0  0
M  ISO  4   1 100  68 101  80 101  84 100
M  END
> <chiral flag>
0

> <version>
0

> <s_m_source_file>
/data/baiqing/PycharmProjects/Reinvent-master-3.2/result/LINK_invent/BTK/process_docking_weight1_custom_sum_contain_oxygen_bond_distance_aromatic_linkinvent_7_9_3/rearranged_h_0116.sdf

> <i_m_source_file_index>
7

> <r_mmod_Potential_Energy-OPLS-2005>
-284.747711181641

> <r_mmod_Stretch_Energy-OPLS-2005>
44.5191917419434

> <r_mmod_Bend_Energy-OPLS-2005>
117.169654846191

> <r_mmod_Torsional_Energy-OPLS-2005>
224.242477416992

> <r_mmod_Improper_Torsional_Energy-OPLS-2005>
2.80124735832214

> <r_mmod_Van_der_Waal_Energy-OPLS-2005>
150.012619018555

> <r_mmod_Electrostatic_Energy-OPLS-2005>
-627.806396484375

> <r_mmod_Solvation_Energy-OPLS-2005>
-207.891937255859

> <b_mmod_Minimization_Converged-OPLS-2005>
0

> <r_mmod_RMS_Derivative-OPLS-2005>
4.41860580444336

$$$$
7
                    3D
 Structure written by MMmdl.
153162  0  0  1  0            999 V2000
  -30.4090  -15.3694   20.3891 C   0  0  0  0  0  0
  -30.4464  -12.8764   19.5772 C   0  0  0  0  0  0
  -29.5625  -12.6031   18.3277 C   0  0  0  0  0  0
  -28.1067  -12.3257   18.7357 C   0  0  0  0  0  0
  -27.6164  -13.2944   19.8390 C   0  0  2  0  0  0
  -28.6394  -13.4950   20.9832 C   0  0  0  0  0  0
  -25.2395  -13.8297   20.5797 C   0  0  0  0  0  0
  -24.1743  -13.0460   20.9284 C   0  0  0  0  0  0
  -24.6444  -11.6953   20.8767 C   0  0  0  0  0  0
  -23.9141  -10.4304   21.0423 C   0  0  0  0  0  0
  -24.3667   -9.4212   21.9203 C   0  0  0  0  0  0
  -23.6294   -8.2279   22.0783 C   0  0  0  0  0  0
  -22.4274   -8.0333   21.3585 C   0  0  0  0  0  0
  -21.9933   -9.0309   20.4694 C   0  0  0  0  0  0
  -22.7307  -10.2155   20.3088 C   0  0  0  0  0  0
  -21.6865   -6.0754   22.5284 C   0  0  0  0  0  0
  -21.4045   -6.5659   23.8220 C   0  0  0  0  0  0
  -21.3647   -5.6810   24.9182 C   0  0  0  0  0  0
  -21.6027   -4.3067   24.7220 C   0  0  0  0  0  0
  -21.8798   -3.8169   23.4336 C   0  0  0  0  0  0
  -21.9193   -4.6982   22.3400 C   0  0  0  0  0  0
  -22.7750  -13.5197   21.1878 C   0  0  0  0  0  0
  -22.1655   -4.2185   21.0966 F   0  0  0  0  0  0
  -21.5598   -3.4548   25.7728 F   0  0  0  0  0  0
  -29.8695  -14.0345   20.3761 N   0  0  0  0  0  0
  -26.2846  -12.9617   20.3283 N   0  0  0  0  0  0
  -25.9390  -11.6694   20.5730 N   0  0  0  0  0  0
  -22.0401  -12.8210   22.0438 N   0  0  0  0  0  0
  -25.3977  -15.2045   20.4254 N   0  0  0  0  0  0
  -31.6095  -15.3667   20.0752 O   0  0  0  0  0  0
  -21.6647   -6.8911   21.4259 O   0  0  0  0  0  0
  -22.3415  -14.5480   20.6678 O   0  0  0  0  0  0
  -24.6671  -31.8140   23.1654 C   0  0  0  0  0  0
  -25.9317  -32.4536   23.8155 C   0  0  1  0  0  0
  -27.2279  -26.8547   20.2247 C   0  0  0  0  0  0
  -25.5957  -33.8358   24.2031 N   0  0  0  0  0  0
  -23.4891  -30.4223   21.5116 C   0  0  2  0  0  0
  -24.9493  -28.7961   20.1123 C   0  0  0  0  0  0
  -22.7693  -29.4400   22.4725 C   0  0  0  0  0  0
  -18.0343  -28.1398   22.8458 C   0  0  0  0  0  0
  -24.1503  -36.7217   23.2661 C   0  0  0  0  0  0
  -26.0601  -30.6014   21.4087 C   0  0  0  0  0  0
  -26.1293  -29.1814   20.7595 C   0  0  0  0  0  0
  -27.2565  -28.2326   20.7916 C   0  0  0  0  0  0
  -26.0225  -26.6410   19.5128 C   0  0  0  0  0  0
  -24.9259  -27.5477   19.4668 C   0  0  0  0  0  0
  -23.7372  -29.7320   20.1394 C   0  0  0  0  0  0
  -25.4143  -36.2940   24.0291 C   0  0  1  0  0  0
  -20.5967  -28.3758   23.1160 C   0  0  2  0  0  0
  -20.6804  -26.9425   22.5412 C   0  0  0  0  0  0
  -19.5789  -26.6353   21.5217 C   0  0  0  0  0  0
  -18.1967  -26.7927   22.1618 C   0  0  0  0  0  0
  -19.1599  -28.8905   23.2796 C   0  0  0  0  0  0
  -18.9504  -30.1481   23.8851 C   0  0  0  0  0  0
  -17.6493  -30.6578   24.0555 C   0  0  0  0  0  0
  -25.9096  -34.9317   23.4991 C   0  0  0  0  0  0
  -16.5387  -29.9069   23.6331 C   0  0  0  0  0  0
  -16.7325  -28.6490   23.0357 C   0  0  0  0  0  0
  -26.4523  -31.6528   25.0733 C   0  0  0  0  0  0
  -25.3626  -31.3830   26.1384 C   0  0  0  0  0  0
  -27.0428  -30.2873   24.6547 C   0  0  0  0  0  0
  -27.5997  -32.4362   25.7541 C   0  0  0  0  0  0
  -27.5548  -37.1789   24.8468 C   0  0  0  0  0  0
  -21.4352  -29.3036   22.3492 N   0  0  0  0  0  0
  -26.4294  -37.3663   23.9351 N   0  0  0  0  0  0
  -24.7604  -30.9744   22.0829 N   0  0  0  0  0  0
  -23.4190  -28.7986   23.3020 O   0  0  0  0  0  0
  -28.2067  -25.7099   20.3657 O   0  0  0  0  0  0
  -26.5728  -34.8871   22.4600 O   0  0  0  0  0  0
  -23.5723  -32.1159   23.6686 O   0  0  0  0  0  0
  -29.7455  -20.1387   22.0743 C   0  0  0  0  0  0
  -29.1915  -22.5765   22.0069 C   0  0  0  0  0  0
  -29.6796  -21.4252   22.6877 C   0  0  0  0  0  0
  -29.3494  -19.9078   20.7406 C   0  0  0  0  0  0
  -28.7391  -22.5520   20.6736 C   0  0  0  0  0  0
  -29.9007  -20.6029   25.1990 C   0  0  0  0  0  0
  -29.2228  -21.9515   25.2190 C   0  0  0  0  0  0
  -30.1767  -21.6031   24.0982 C   0  0  0  0  0  0
  -29.7277  -18.2930   20.0851 C   0  0  0  0  0  0
  -28.0172  -24.0647   20.0483 C   0  0  0  0  0  0
  -28.8530  -21.1683   20.0990 N   0  0  0  0  0  0
  -29.6553  -16.6610   20.5682 N   0  0  0  0  0  0
  -31.4667  -13.0845   19.2533 H   0  0  0  0  0  0
  -30.5225  -11.9817   20.1992 H   0  0  0  0  0  0
  -29.9592  -11.7637   17.7569 H   0  0  0  0  0  0
  -29.6065  -13.4660   17.6629 H   0  0  0  0  0  0
  -28.0546  -11.2982   19.0972 H   0  0  0  0  0  0
  -27.4489  -12.3781   17.8665 H   0  0  0  0  0  0
  -27.5239  -14.2580   19.3376 H   0  0  0  0  0  0
  -28.8178  -12.5629   21.5258 H   0  0  0  0  0  0
  -28.2550  -14.2118   21.7116 H   0  0  0  0  0  0
  -25.2818   -9.5658   22.4776 H   0  0  0  0  0  0
  -23.9996   -7.4658   22.7482 H   0  0  0  0  0  0
  -21.0861   -8.8859   19.8987 H   0  0  0  0  0  0
  -22.3800  -10.9702   19.6188 H   0  0  0  0  0  0
  -21.2102   -7.6176   23.9738 H   0  0  0  0  0  0
  -21.1464   -6.0542   25.9076 H   0  0  0  0  0  0
  -22.0591   -2.7634   23.2835 H   0  0  0  0  0  0
  -22.4016  -11.9895   22.4904 H   0  0  0  0  0  0
  -21.1019  -13.1252   22.2618 H   0  0  0  0  0  0
  -24.6249  -15.8477   20.5618 H   0  0  0  0  0  0
  -26.2204  -15.6537   20.0474 H   0  0  0  0  0  0
  -26.7409  -32.5055   23.0891 H   0  0  0  0  0  0
  -24.9977  -33.9405   25.0091 H   0  0  0  0  0  0
  -22.8078  -31.2561   21.3313 H   0  0  0  0  0  0
  -23.3720  -35.9599   23.3366 H   0  0  0  0  0  0
  -24.3575  -36.8816   22.2071 H   0  0  0  0  0  0
  -23.7335  -37.6448   23.6707 H   0  0  0  0  0  0
  -26.2455  -31.3399   20.6273 H   0  0  0  0  0  0
  -26.9156  -30.6630   22.0685 H   0  0  0  0  0  0
  -28.1396  -28.5238   21.3442 H   0  0  0  0  0  0
  -25.8877  -25.6876   19.0230 H   0  0  0  0  0  0
  -24.0319  -27.2420   18.9396 H   0  0  0  0  0  0
  -23.9016  -30.4980   19.3797 H   0  0  0  0  0  0
  -22.8466  -29.1891   19.8176 H   0  0  0  0  0  0
  -25.1364  -36.1739   25.0788 H   0  0  0  0  0  0
  -21.0056  -28.3380   24.1285 H   0  0  0  0  0  0
  -20.5639  -26.2388   23.3663 H   0  0  0  0  0  0
  -21.6672  -26.7364   22.1250 H   0  0  0  0  0  0
  -19.6939  -25.6240   21.1301 H   0  0  0  0  0  0
  -19.6713  -27.3106   20.6704 H   0  0  0  0  0  0
  -17.4224  -26.6655   21.4034 H   0  0  0  0  0  0
  -18.0370  -26.0080   22.9035 H   0  0  0  0  0  0
  -19.7980  -30.7312   24.2183 H   0  0  0  0  0  0
  -17.5049  -31.6252   24.5161 H   0  0  0  0  0  0
  -15.5383  -30.2956   23.7676 H   0  0  0  0  0  0
  -15.8727  -28.0787   22.7096 H   0  0  0  0  0  0
  -24.5775  -30.7212   25.7704 H   0  0  0  0  0  0
  -24.8866  -32.3068   26.4707 H   0  0  0  0  0  0
  -25.7842  -30.9048   27.0241 H   0  0  0  0  0  0
  -26.3108  -29.6517   24.1557 H   0  0  0  0  0  0
  -27.3890  -29.7293   25.5262 H   0  0  0  0  0  0
  -27.9086  -30.4005   24.0022 H   0  0  0  0  0  0
  -27.2513  -33.3665   26.2046 H   0  0  0  0  0  0
  -28.3856  -32.6915   25.0420 H   0  0  0  0  0  0
  -28.0625  -31.8554   26.5528 H   0  0  0  0  0  0
  -28.2624  -38.0016   24.7371 H   0  0  0  0  0  0
  -28.0979  -36.2544   24.6479 H   0  0  0  0  0  0
  -27.2259  -37.1666   25.8871 H   0  0  0  0  0  0
  -20.9604  -29.8710   21.6602 H   0  0  0  0  0  0
  -26.0141  -38.2739   24.1250 H   0  0  0  0  0  0
  -30.1605  -19.3108   22.6323 H   0  0  0  0  0  0
  -29.1495  -23.5195   22.5389 H   0  0  0  0  0  0
  -29.2906  -19.7344   24.9602 H   0  0  0  0  0  0
  -30.6772  -20.4364   25.9432 H   0  0  0  0  0  0
  -29.5618  -22.6606   25.9731 H   0  0  0  0  0  0
  -28.1559  -21.9736   25.0056 H   0  0  0  0  0  0
  -31.1471  -22.0945   24.1017 H   0  0  0  0  0  0
  -30.7781  -18.3984   19.8138 H   0  0  0  0  0  0
  -29.2073  -18.2930   19.1281 H   0  0  0  0  0  0
  -26.9524  -23.8990   20.2088 H   0  0  0  0  0  0
  -28.1373  -23.9872   18.9687 H   0  0  0  0  0  0
  -28.7404  -16.4667   20.9441 H   0  0  0  0  0  0
  1 25  1  0  0  0
  1 30  2  0  0  0
  1 82  1  0  0  0
  2  3  1  0  0  0
  2 25  1  0  0  0
  2 83  1  0  0  0
  2 84  1  0  0  0
  3  4  1  0  0  0
  3 85  1  0  0  0
  3 86  1  0  0  0
  4  5  1  0  0  0
  4 87  1  0  0  0
  4 88  1  0  0  0
  5  6  1  0  0  0
  5 26  1  0  0  0
  5 89  1  0  0  0
  6 25  1  0  0  0
  6 90  1  0  0  0
  6 91  1  0  0  0
  7  8  2  0  0  0
  7 26  1  0  0  0
  7 29  1  0  0  0
  8  9  1  0  0  0
  8 22  1  0  0  0
  9 10  1  0  0  0
  9 27  2  0  0  0
 10 11  2  0  0  0
 10 15  1  0  0  0
 11 12  1  0  0  0
 11 92  1  0  0  0
 12 13  2  0  0  0
 12 93  1  0  0  0
 13 14  1  0  0  0
 13 31  1  0  0  0
 14 15  2  0  0  0
 14 94  1  0  0  0
 15 95  1  0  0  0
 16 17  2  0  0  0
 16 21  1  0  0  0
 16 31  1  0  0  0
 17 18  1  0  0  0
 17 96  1  0  0  0
 18 19  2  0  0  0
 18 97  1  0  0  0
 19 20  1  0  0  0
 19 24  1  0  0  0
 20 21  2  0  0  0
 20 98  1  0  0  0
 21 23  1  0  0  0
 22 28  1  0  0  0
 22 32  2  0  0  0
 26 27  1  0  0  0
 28 99  1  0  0  0
 28100  1  0  0  0
 29101  1  0  0  0
 29102  1  0  0  0
 33 34  1  0  0  0
 33 66  1  0  0  0
 33 70  2  0  0  0
 34 36  1  0  0  0
 34 59  1  0  0  0
 34103  1  0  0  0
 35 44  2  0  0  0
 35 45  1  0  0  0
 35 68  1  0  0  0
 36 56  1  0  0  0
 36104  1  0  0  0
 37 39  1  0  0  0
 37 47  1  0  0  0
 37 66  1  0  0  0
 37105  1  0  0  0
 38 43  2  0  0  0
 38 46  1  0  0  0
 38 47  1  0  0  0
 39 64  1  0  0  0
 39 67  2  0  0  0
 40 52  1  0  0  0
 40 53  2  0  0  0
 40 58  1  0  0  0
 41106  1  0  0  0
 41107  1  0  0  0
 41108  1  0  0  0
 41 48  1  0  0  0
 42 43  1  0  0  0
 42 66  1  0  0  0
 42109  1  0  0  0
 42110  1  0  0  0
 43 44  1  0  0  0
 44111  1  0  0  0
 45 46  2  0  0  0
 45112  1  0  0  0
 46113  1  0  0  0
 47114  1  0  0  0
 47115  1  0  0  0
 48 56  1  0  0  0
 48 65  1  0  0  0
 48116  1  0  0  0
 49 50  1  0  0  0
 49 53  1  0  0  0
 49 64  1  0  0  0
 49117  1  0  0  0
 50 51  1  0  0  0
 50118  1  0  0  0
 50119  1  0  0  0
 51 52  1  0  0  0
 51120  1  0  0  0
 51121  1  0  0  0
 52122  1  0  0  0
 52123  1  0  0  0
 53 54  1  0  0  0
 54 55  2  0  0  0
 54124  1  0  0  0
 55 57  1  0  0  0
 55125  1  0  0  0
 56 69  2  0  0  0
 57 58  2  0  0  0
 57126  1  0  0  0
 58127  1  0  0  0
 59 60  1  0  0  0
 59 61  1  0  0  0
 59 62  1  0  0  0
 60128  1  0  0  0
 60129  1  0  0  0
 60130  1  0  0  0
 61131  1  0  0  0
 61132  1  0  0  0
 61133  1  0  0  0
 62134  1  0  0  0
 62135  1  0  0  0
 62136  1  0  0  0
 63 65  1  0  0  0
 63137  1  0  0  0
 63138  1  0  0  0
 63139  1  0  0  0
 64140  1  0  0  0
 65141  1  0  0  0
 68 80  1  0  0  0
 71 73  2  0  0  0
 71 74  1  0  0  0
 71142  1  0  0  0
 72 73  1  0  0  0
 72 75  2  0  0  0
 72143  1  0  0  0
 73 78  1  0  0  0
 74 79  1  0  0  0
 74 81  2  0  0  0
 75 80  1  0  0  0
 75 81  1  0  0  0
 76 77  1  0  0  0
 76 78  1  0  0  0
 76144  1  0  0  0
 76145  1  0  0  0
 77 78  1  0  0  0
 77146  1  0  0  0
 77147  1  0  0  0
 78148  1  0  0  0
 79 82  1  0  0  0
 79149  1  0  0  0
 79150  1  0  0  0
 80151  1  0  0  0
 80152  1  0  0  0
 82153  1  0  0  0
M  ISO  4   1 100  68 101  80 101  82 100
M  END
> <chiral flag>
0

> <version>
0

> <s_m_source_file>
/data/baiqing/PycharmProjects/Reinvent-master-3.2/result/LINK_invent/BTK/process_docking_weight1_custom_sum_contain_oxygen_bond_distance_aromatic_linkinvent_7_9_3/rearranged_h_0116.sdf

> <i_m_source_file_index>
8

> <r_mmod_Potential_Energy-OPLS-2005>
1311.09606933594

> <r_mmod_Stretch_Energy-OPLS-2005>
702.273864746094

> <r_mmod_Bend_Energy-OPLS-2005>
481.596801757812

> <r_mmod_Torsional_Energy-OPLS-2005>
247.519165039062

> <r_mmod_Improper_Torsional_Energy-OPLS-2005>
5.69372844696045

> <r_mmod_Van_der_Waal_Energy-OPLS-2005>
119.875450134277

> <r_mmod_Electrostatic_Energy-OPLS-2005>
-583.711608886719

> <r_mmod_Solvation_Energy-OPLS-2005>
-239.096542358398

> <b_mmod_Minimization_Converged-OPLS-2005>
0

> <r_mmod_RMS_Derivative-OPLS-2005>
4.10809803009033

$$$$
8
                    3D
 Structure written by MMmdl.
172181  0  0  1  0            999 V2000
  -30.7050  -14.5136   20.4558 C   0  0  0  0  0  0
  -30.4101  -12.2826   19.4552 C   0  0  0  0  0  0
  -29.4968  -12.3983   18.2203 C   0  0  0  0  0  0
  -28.0098  -12.3278   18.6254 C   0  0  0  0  0  0
  -27.6502  -13.2025   19.8589 C   0  0  2  0  0  0
  -28.6991  -13.0715   20.9847 C   0  0  0  0  0  0
  -25.2605  -13.8183   20.5727 C   0  0  0  0  0  0
  -24.1871  -13.0458   20.9241 C   0  0  0  0  0  0
  -24.6406  -11.6924   20.8779 C   0  0  0  0  0  0
  -23.9085  -10.4304   21.0430 C   0  0  0  0  0  0
  -24.3646   -9.4207   21.9182 C   0  0  0  0  0  0
  -23.6319   -8.2239   22.0728 C   0  0  0  0  0  0
  -22.4292   -8.0301   21.3529 C   0  0  0  0  0  0
  -21.9945   -9.0272   20.4614 C   0  0  0  0  0  0
  -22.7287  -10.2150   20.3035 C   0  0  0  0  0  0
  -21.6855   -6.0780   22.5280 C   0  0  0  0  0  0
  -21.4029   -6.5662   23.8235 C   0  0  0  0  0  0
  -21.3639   -5.6795   24.9179 C   0  0  0  0  0  0
  -21.6041   -4.3057   24.7209 C   0  0  0  0  0  0
  -21.8821   -3.8165   23.4317 C   0  0  0  0  0  0
  -21.9200   -4.7004   22.3398 C   0  0  0  0  0  0
  -22.7890  -13.5245   21.1921 C   0  0  0  0  0  0
  -22.1648   -4.2206   21.0965 F   0  0  0  0  0  0
  -21.5642   -3.4517   25.7705 F   0  0  0  0  0  0
  -30.0221  -13.3380   20.3995 N   0  0  0  0  0  0
  -26.3007  -12.9313   20.3374 N   0  0  0  0  0  0
  -25.9325  -11.6490   20.5813 N   0  0  0  0  0  0
  -22.0530  -12.8167   22.0425 N   0  0  0  0  0  0
  -25.4419  -15.1897   20.4118 N   0  0  0  0  0  0
  -31.8851  -14.6163   20.1072 O   0  0  0  0  0  0
  -21.6629   -6.8910   21.4238 O   0  0  0  0  0  0
  -22.3590  -14.5576   20.6806 O   0  0  0  0  0  0
  -24.6128  -31.8700   23.2121 C   0  0  0  0  0  0
  -25.9025  -32.4838   23.8415 C   0  0  1  0  0  0
  -27.2435  -27.4709   20.0925 C   0  0  0  0  0  0
  -25.5894  -33.8637   24.2349 N   0  0  0  0  0  0
  -23.4019  -30.4905   21.5513 C   0  0  2  0  0  0
  -24.8533  -28.9641   20.1090 C   0  0  0  0  0  0
  -22.7418  -29.4643   22.5000 C   0  0  0  0  0  0
  -18.0270  -28.1376   22.8497 C   0  0  0  0  0  0
  -24.1485  -36.7319   23.2637 C   0  0  0  0  0  0
  -25.9264  -30.8470   21.3613 C   0  0  0  0  0  0
  -26.0091  -29.4845   20.7069 C   0  0  0  0  0  0
  -27.2080  -28.7412   20.7029 C   0  0  0  0  0  0
  -26.0788  -26.9522   19.4943 C   0  0  0  0  0  0
  -24.8824  -27.6966   19.4979 C   0  0  0  0  0  0
  -23.6114  -29.8250   20.1637 C   0  0  0  0  0  0
  -25.4107  -36.3125   24.0340 C   0  0  1  0  0  0
  -20.5863  -28.3655   23.1332 C   0  0  2  0  0  0
  -20.6757  -26.9396   22.5418 C   0  0  0  0  0  0
  -19.5739  -26.6390   21.5213 C   0  0  0  0  0  0
  -18.1916  -26.7928   22.1621 C   0  0  0  0  0  0
  -19.1519  -28.8834   23.2916 C   0  0  0  0  0  0
  -18.9443  -30.1441   23.8924 C   0  0  0  0  0  0
  -17.6443  -30.6576   24.0568 C   0  0  0  0  0  0
  -25.9032  -34.9486   23.5138 C   0  0  0  0  0  0
  -16.5340  -29.9078   23.6322 C   0  0  0  0  0  0
  -16.7259  -28.6498   23.0345 C   0  0  0  0  0  0
  -26.4466  -31.6607   25.0726 C   0  0  0  0  0  0
  -25.3745  -31.3685   26.1477 C   0  0  0  0  0  0
  -27.0287  -30.3063   24.6061 C   0  0  0  0  0  0
  -27.6054  -32.4323   25.7482 C   0  0  0  0  0  0
  -27.5584  -37.1813   24.8462 C   0  0  0  0  0  0
  -21.4148  -29.3021   22.3744 N   0  0  0  0  0  0
  -26.4296  -37.3806   23.9407 N   0  0  0  0  0  0
  -24.6646  -31.0817   22.1010 N   0  0  0  0  0  0
  -23.4195  -28.8197   23.3044 O   0  0  0  0  0  0
  -28.3694  -26.6962   20.1681 O   0  0  0  0  0  0
  -26.5592  -34.8931   22.4700 O   0  0  0  0  0  0
  -23.5321  -32.1439   23.7527 O   0  0  0  0  0  0
  -30.3281  -21.9889   21.0366 C   0  0  0  0  0  0
  -32.3883  -21.6662   19.8003 C   0  0  0  0  0  0
  -31.4164  -22.5376   20.3297 C   0  0  0  0  0  0
  -30.1894  -20.5901   21.1921 C   0  0  0  0  0  0
  -32.2746  -20.2665   19.9522 C   0  0  0  0  0  0
  -31.1597  -19.7085   20.6422 C   0  0  0  0  0  0
  -31.0285  -17.5066   21.8970 C   0  0  0  0  0  0
  -29.9825  -16.3482   21.8775 C   0  0  0  0  0  0
  -30.8493  -17.6186   19.4076 C   0  0  0  0  0  0
  -29.7144  -16.5858   19.4734 C   0  0  1  0  0  0
  -28.9622  -20.0701   21.9251 C   0  0  0  0  0  0
  -33.3726  -19.3958   19.3556 C   0  0  0  0  0  0
  -29.5214  -15.9773   18.0688 C   0  0  0  0  0  0
  -31.5779  -24.0495   20.1906 C   0  0  0  0  0  0
  -29.2949  -26.8147   19.1029 C   0  0  0  0  0  0
  -30.5937  -26.1187   19.5554 C   0  0  0  0  0  0
  -30.9539  -18.3132   20.6773 N   0  0  0  0  0  0
  -29.9419  -15.6252   20.5893 N   0  0  0  0  0  0
  -30.4165  -24.7030   19.6776 O   0  0  0  0  0  0
  -31.4600  -12.3392   19.1634 H   0  0  0  0  0  0
  -30.2765  -11.3088   19.9300 H   0  0  0  0  0  0
  -29.7196  -11.5774   17.5380 H   0  0  0  0  0  0
  -29.7137  -13.3040   17.6601 H   0  0  0  0  0  0
  -27.7986  -11.2830   18.8525 H   0  0  0  0  0  0
  -27.3721  -12.5827   17.7766 H   0  0  0  0  0  0
  -27.6501  -14.2349   19.5252 H   0  0  0  0  0  0
  -28.6798  -12.0774   21.4353 H   0  0  0  0  0  0
  -28.4706  -13.7732   21.7882 H   0  0  0  0  0  0
  -25.2791   -9.5693   22.4761 H   0  0  0  0  0  0
  -24.0029   -7.4623   22.7437 H   0  0  0  0  0  0
  -21.0891   -8.8812   19.8899 H   0  0  0  0  0  0
  -22.3771  -10.9698   19.6134 H   0  0  0  0  0  0
  -21.2021   -7.6175   23.9767 H   0  0  0  0  0  0
  -21.1456   -6.0509   25.9101 H   0  0  0  0  0  0
  -22.0620   -2.7632   23.2804 H   0  0  0  0  0  0
  -22.4134  -11.9727   22.4628 H   0  0  0  0  0  0
  -21.1179  -13.1179   22.2753 H   0  0  0  0  0  0
  -24.6954  -15.8671   20.5331 H   0  0  0  0  0  0
  -26.3155  -15.6058   20.1138 H   0  0  0  0  0  0
  -26.7113  -32.5574   23.1204 H   0  0  0  0  0  0
  -25.0052  -33.9818   25.0496 H   0  0  0  0  0  0
  -22.6887  -31.3054   21.4129 H   0  0  0  0  0  0
  -23.3754  -35.9645   23.3295 H   0  0  0  0  0  0
  -24.3589  -36.8934   22.2054 H   0  0  0  0  0  0
  -23.7225  -37.6518   23.6647 H   0  0  0  0  0  0
  -26.0323  -31.6155   20.5942 H   0  0  0  0  0  0
  -26.8170  -30.9042   21.9755 H   0  0  0  0  0  0
  -28.0976  -29.1277   21.1818 H   0  0  0  0  0  0
  -26.0951  -25.9685   19.0461 H   0  0  0  0  0  0
  -23.9922  -27.2880   19.0395 H   0  0  0  0  0  0
  -23.7171  -30.6045   19.4077 H   0  0  0  0  0  0
  -22.7376  -29.2423   19.8667 H   0  0  0  0  0  0
  -25.1288  -36.1991   25.0836 H   0  0  0  0  0  0
  -20.9953  -28.3202   24.1454 H   0  0  0  0  0  0
  -20.5661  -26.2258   23.3600 H   0  0  0  0  0  0
  -21.6624  -26.7436   22.1201 H   0  0  0  0  0  0
  -19.6896  -25.6305   21.1229 H   0  0  0  0  0  0
  -19.6686  -27.3219   20.6760 H   0  0  0  0  0  0
  -17.4193  -26.6696   21.4013 H   0  0  0  0  0  0
  -18.0309  -26.0057   22.9004 H   0  0  0  0  0  0
  -19.7916  -30.7254   24.2306 H   0  0  0  0  0  0
  -17.4990  -31.6256   24.5170 H   0  0  0  0  0  0
  -15.5338  -30.2986   23.7618 H   0  0  0  0  0  0
  -15.8665  -28.0821   22.7043 H   0  0  0  0  0  0
  -24.5921  -30.7036   25.7792 H   0  0  0  0  0  0
  -24.8931  -32.2825   26.4960 H   0  0  0  0  0  0
  -25.8102  -30.8817   27.0211 H   0  0  0  0  0  0
  -26.2805  -29.6842   24.1128 H   0  0  0  0  0  0
  -27.4094  -29.7268   25.4479 H   0  0  0  0  0  0
  -27.8626  -30.4393   23.9166 H   0  0  0  0  0  0
  -27.2688  -33.3622   26.2078 H   0  0  0  0  0  0
  -28.3848  -32.6890   25.0294 H   0  0  0  0  0  0
  -28.0746  -31.8440   26.5379 H   0  0  0  0  0  0
  -28.2591  -38.0121   24.7526 H   0  0  0  0  0  0
  -28.1090  -36.2651   24.6262 H   0  0  0  0  0  0
  -27.2305  -37.1432   25.8866 H   0  0  0  0  0  0
  -20.9310  -29.8753   21.6975 H   0  0  0  0  0  0
  -26.0187  -38.2882   24.1419 H   0  0  0  0  0  0
  -29.5854  -22.6550   21.4526 H   0  0  0  0  0  0
  -33.2312  -22.0768   19.2636 H   0  0  0  0  0  0
  -32.0358  -17.0933   21.9833 H   0  0  0  0  0  0
  -30.8852  -18.1331   22.7772 H   0  0  0  0  0  0
  -28.9810  -16.7391   22.0569 H   0  0  0  0  0  0
  -30.1708  -15.6659   22.7084 H   0  0  0  0  0  0
  -30.6460  -18.3369   18.6086 H   0  0  0  0  0  0
  -31.7986  -17.1335   19.1729 H   0  0  0  0  0  0
  -28.7870  -17.1142   19.7014 H   0  0  0  0  0  0
  -28.1875  -20.8345   21.9761 H   0  0  0  0  0  0
  -29.2219  -19.7841   22.9440 H   0  0  0  0  0  0
  -28.5338  -19.2042   21.4209 H   0  0  0  0  0  0
  -34.2883  -19.9621   19.1815 H   0  0  0  0  0  0
  -33.0534  -18.9831   18.3980 H   0  0  0  0  0  0
  -33.6223  -18.5695   20.0218 H   0  0  0  0  0  0
  -30.4256  -15.4890   17.7049 H   0  0  0  0  0  0
  -29.2837  -16.7631   17.3505 H   0  0  0  0  0  0
  -28.7006  -15.2693   18.0224 H   0  0  0  0  0  0
  -32.4329  -24.2715   19.5484 H   0  0  0  0  0  0
  -31.8177  -24.4454   21.1787 H   0  0  0  0  0  0
  -28.8986  -26.3668   18.1904 H   0  0  0  0  0  0
  -29.4904  -27.8703   18.8976 H   0  0  0  0  0  0
  -30.9127  -26.5448   20.5093 H   0  0  0  0  0  0
  -31.3846  -26.3287   18.8337 H   0  0  0  0  0  0
  1 25  1  0  0  0
  1 30  2  0  0  0
  1 88  1  0  0  0
  2  3  1  0  0  0
  2 25  1  0  0  0
  2 90  1  0  0  0
  2 91  1  0  0  0
  3  4  1  0  0  0
  3 92  1  0  0  0
  3 93  1  0  0  0
  4  5  1  0  0  0
  4 94  1  0  0  0
  4 95  1  0  0  0
  5  6  1  0  0  0
  5 26  1  0  0  0
  5 96  1  0  0  0
  6 25  1  0  0  0
  6 97  1  0  0  0
  6 98  1  0  0  0
  7  8  2  0  0  0
  7 26  1  0  0  0
  7 29  1  0  0  0
  8  9  1  0  0  0
  8 22  1  0  0  0
  9 10  1  0  0  0
  9 27  2  0  0  0
 10 11  2  0  0  0
 10 15  1  0  0  0
 11 12  1  0  0  0
 11 99  1  0  0  0
 12 13  2  0  0  0
 12100  1  0  0  0
 13 14  1  0  0  0
 13 31  1  0  0  0
 14 15  2  0  0  0
 14101  1  0  0  0
 15102  1  0  0  0
 16 17  2  0  0  0
 16 21  1  0  0  0
 16 31  1  0  0  0
 17 18  1  0  0  0
 17103  1  0  0  0
 18 19  2  0  0  0
 18104  1  0  0  0
 19 20  1  0  0  0
 19 24  1  0  0  0
 20 21  2  0  0  0
 20105  1  0  0  0
 21 23  1  0  0  0
 22 28  1  0  0  0
 22 32  2  0  0  0
 26 27  1  0  0  0
 28106  1  0  0  0
 28107  1  0  0  0
 29108  1  0  0  0
 29109  1  0  0  0
 33 34  1  0  0  0
 33 66  1  0  0  0
 33 70  2  0  0  0
 34 36  1  0  0  0
 34 59  1  0  0  0
 34110  1  0  0  0
 35 44  2  0  0  0
 35 45  1  0  0  0
 35 68  1  0  0  0
 36 56  1  0  0  0
 36111  1  0  0  0
 37 39  1  0  0  0
 37 47  1  0  0  0
 37 66  1  0  0  0
 37112  1  0  0  0
 38 43  2  0  0  0
 38 46  1  0  0  0
 38 47  1  0  0  0
 39 64  1  0  0  0
 39 67  2  0  0  0
 40 52  1  0  0  0
 40 53  2  0  0  0
 40 58  1  0  0  0
 41113  1  0  0  0
 41114  1  0  0  0
 41115  1  0  0  0
 41 48  1  0  0  0
 42 43  1  0  0  0
 42 66  1  0  0  0
 42116  1  0  0  0
 42117  1  0  0  0
 43 44  1  0  0  0
 44118  1  0  0  0
 45 46  2  0  0  0
 45119  1  0  0  0
 46120  1  0  0  0
 47121  1  0  0  0
 47122  1  0  0  0
 48 56  1  0  0  0
 48 65  1  0  0  0
 48123  1  0  0  0
 49 50  1  0  0  0
 49 53  1  0  0  0
 49 64  1  0  0  0
 49124  1  0  0  0
 50 51  1  0  0  0
 50125  1  0  0  0
 50126  1  0  0  0
 51 52  1  0  0  0
 51127  1  0  0  0
 51128  1  0  0  0
 52129  1  0  0  0
 52130  1  0  0  0
 53 54  1  0  0  0
 54 55  2  0  0  0
 54131  1  0  0  0
 55 57  1  0  0  0
 55132  1  0  0  0
 56 69  2  0  0  0
 57 58  2  0  0  0
 57133  1  0  0  0
 58134  1  0  0  0
 59 60  1  0  0  0
 59 61  1  0  0  0
 59 62  1  0  0  0
 60135  1  0  0  0
 60136  1  0  0  0
 60137  1  0  0  0
 61138  1  0  0  0
 61139  1  0  0  0
 61140  1  0  0  0
 62141  1  0  0  0
 62142  1  0  0  0
 62143  1  0  0  0
 63 65  1  0  0  0
 63144  1  0  0  0
 63145  1  0  0  0
 63146  1  0  0  0
 64147  1  0  0  0
 65148  1  0  0  0
 68 85  1  0  0  0
 71 73  2  0  0  0
 71 74  1  0  0  0
 71149  1  0  0  0
 72 73  1  0  0  0
 72 75  2  0  0  0
 72150  1  0  0  0
 73 84  1  0  0  0
 74 76  2  0  0  0
 74 81  1  0  0  0
 75 76  1  0  0  0
 75 82  1  0  0  0
 76 87  1  0  0  0
 77 78  1  0  0  0
 77 87  1  0  0  0
 77151  1  0  0  0
 77152  1  0  0  0
 78 88  1  0  0  0
 78153  1  0  0  0
 78154  1  0  0  0
 79 80  1  0  0  0
 79 87  1  0  0  0
 79155  1  0  0  0
 79156  1  0  0  0
 80 83  1  0  0  0
 80 88  1  0  0  0
 80157  1  0  0  0
 81158  1  0  0  0
 81159  1  0  0  0
 81160  1  0  0  0
 82161  1  0  0  0
 82162  1  0  0  0
 82163  1  0  0  0
 83164  1  0  0  0
 83165  1  0  0  0
 83166  1  0  0  0
 84 89  1  0  0  0
 84167  1  0  0  0
 84168  1  0  0  0
 85 86  1  0  0  0
 85169  1  0  0  0
 85170  1  0  0  0
 86 89  1  0  0  0
 86171  1  0  0  0
 86172  1  0  0  0
M  ISO  4   1 100  68 101  85 101  88 100
M  END
> <chiral flag>
0

> <version>
0

> <s_m_source_file>
/data/baiqing/PycharmProjects/Reinvent-master-3.2/result/LINK_invent/BTK/process_docking_weight1_custom_sum_contain_oxygen_bond_distance_aromatic_linkinvent_7_9_3/rearranged_h_0116.sdf

> <i_m_source_file_index>
9

> <r_mmod_Potential_Energy-OPLS-2005>
188.088485717773

> <r_mmod_Stretch_Energy-OPLS-2005>
40.3846817016602

> <r_mmod_Bend_Energy-OPLS-2005>
115.771240234375

> <r_mmod_Torsional_Energy-OPLS-2005>
397.679351806641

> <r_mmod_Improper_Torsional_Energy-OPLS-2005>
11.9148149490356

> <r_mmod_Van_der_Waal_Energy-OPLS-2005>
153.001754760742

> <r_mmod_Electrostatic_Energy-OPLS-2005>
-352.028930664062

> <r_mmod_Solvation_Energy-OPLS-2005>
-202.463745117188

> <b_mmod_Minimization_Converged-OPLS-2005>
0

> <r_mmod_RMS_Derivative-OPLS-2005>
3.53595519065857

$$$$
9
                    3D
 Structure written by MMmdl.
182190  0  0  1  0            999 V2000
  -30.6707  -14.3956   20.5129 C   0  0  0  0  0  0
  -30.4183  -12.2360   19.4058 C   0  0  0  0  0  0
  -29.4886  -12.4884   18.1991 C   0  0  0  0  0  0
  -28.0049  -12.3611   18.6047 C   0  0  0  0  0  0
  -27.6602  -13.1806   19.8783 C   0  0  2  0  0  0
  -28.7028  -12.9108   20.9914 C   0  0  0  0  0  0
  -25.2611  -13.8107   20.5679 C   0  0  0  0  0  0
  -24.1843  -13.0458   20.9132 C   0  0  0  0  0  0
  -24.6340  -11.6882   20.8691 C   0  0  0  0  0  0
  -23.9026  -10.4288   21.0383 C   0  0  0  0  0  0
  -24.3570   -9.4215   21.9182 C   0  0  0  0  0  0
  -23.6253   -8.2245   22.0770 C   0  0  0  0  0  0
  -22.4248   -8.0256   21.3551 C   0  0  0  0  0  0
  -21.9865   -9.0221   20.4669 C   0  0  0  0  0  0
  -22.7175  -10.2119   20.3069 C   0  0  0  0  0  0
  -21.6866   -6.0691   22.5285 C   0  0  0  0  0  0
  -21.4012   -6.5614   23.8199 C   0  0  0  0  0  0
  -21.3664   -5.6781   24.9162 C   0  0  0  0  0  0
  -21.6058   -4.3048   24.7229 C   0  0  0  0  0  0
  -21.8818   -3.8127   23.4355 C   0  0  0  0  0  0
  -21.9196   -4.6920   22.3399 C   0  0  0  0  0  0
  -22.7870  -13.5240   21.1806 C   0  0  0  0  0  0
  -22.1664   -4.2104   21.0976 F   0  0  0  0  0  0
  -21.5628   -3.4538   25.7747 F   0  0  0  0  0  0
  -30.0426  -13.1978   20.4462 N   0  0  0  0  0  0
  -26.3014  -12.9240   20.3398 N   0  0  0  0  0  0
  -25.9259  -11.6432   20.5721 N   0  0  0  0  0  0
  -22.0522  -12.8258   22.0354 N   0  0  0  0  0  0
  -25.4459  -15.1837   20.4044 N   0  0  0  0  0  0
  -31.8090  -14.6131   20.0898 O   0  0  0  0  0  0
  -21.6647   -6.8836   21.4250 O   0  0  0  0  0  0
  -22.3568  -14.5547   20.6597 O   0  0  0  0  0  0
  -24.6201  -31.8691   23.2109 C   0  0  0  0  0  0
  -25.9107  -32.4836   23.8361 C   0  0  1  0  0  0
  -27.2238  -27.4162   20.0665 C   0  0  0  0  0  0
  -25.5965  -33.8636   24.2285 N   0  0  0  0  0  0
  -23.4004  -30.4993   21.5550 C   0  0  2  0  0  0
  -24.8385  -28.9662   20.1166 C   0  0  0  0  0  0
  -22.7384  -29.4702   22.4974 C   0  0  0  0  0  0
  -18.0266  -28.1405   22.8480 C   0  0  0  0  0  0
  -24.1502  -36.7328   23.2621 C   0  0  0  0  0  0
  -25.9274  -30.8323   21.3582 C   0  0  0  0  0  0
  -26.0055  -29.4598   20.7137 C   0  0  0  0  0  0
  -27.1940  -28.6851   20.7037 C   0  0  0  0  0  0
  -26.0367  -26.9561   19.4495 C   0  0  0  0  0  0
  -24.8521  -27.7106   19.4892 C   0  0  0  0  0  0
  -23.6012  -29.8411   20.1661 C   0  0  0  0  0  0
  -25.4142  -36.3135   24.0284 C   0  0  1  0  0  0
  -20.5861  -28.3738   23.1288 C   0  0  2  0  0  0
  -20.6793  -26.9490   22.5391 C   0  0  0  0  0  0
  -19.5780  -26.6410   21.5199 C   0  0  0  0  0  0
  -18.1945  -26.7940   22.1606 C   0  0  0  0  0  0
  -19.1526  -28.8887   23.2883 C   0  0  0  0  0  0
  -18.9458  -30.1468   23.8931 C   0  0  0  0  0  0
  -17.6476  -30.6616   24.0597 C   0  0  0  0  0  0
  -25.9083  -34.9493   23.5073 C   0  0  0  0  0  0
  -16.5365  -29.9126   23.6343 C   0  0  0  0  0  0
  -16.7263  -28.6541   23.0365 C   0  0  0  0  0  0
  -26.4477  -31.6632   25.0699 C   0  0  0  0  0  0
  -25.3664  -31.3833   26.1398 C   0  0  0  0  0  0
  -27.0262  -30.3070   24.6030 C   0  0  0  0  0  0
  -27.6040  -32.4341   25.7478 C   0  0  0  0  0  0
  -27.5583  -37.1837   24.8447 C   0  0  0  0  0  0
  -21.4121  -29.3100   22.3696 N   0  0  0  0  0  0
  -26.4314  -37.3832   23.9372 N   0  0  0  0  0  0
  -24.6685  -31.0783   22.1012 N   0  0  0  0  0  0
  -23.4126  -28.8236   23.3033 O   0  0  0  0  0  0
  -28.3957  -26.6740   20.0811 O   0  0  0  0  0  0
  -26.5621  -34.8938   22.4614 O   0  0  0  0  0  0
  -23.5423  -32.1442   23.7536 O   0  0  0  0  0  0
  -28.8582  -22.0972   20.5410 C   0  0  0  0  0  0
  -28.9609  -21.5004   21.7694 C   0  0  0  0  0  0
  -28.6265  -22.4974   22.7491 C   0  0  0  0  0  0
  -28.2256  -23.6157   22.0610 C   0  0  0  0  0  0
  -27.6828  -24.9186   22.5592 C   0  0  0  0  0  0
  -27.8402  -21.2733   24.8891 C   0  0  0  0  0  0
  -31.9681  -22.8356   23.1534 C   0  0  0  0  0  0
  -31.2256  -24.9343   26.3061 C   0  0  0  0  0  0
  -29.3648  -20.0652   22.0573 C   0  0  0  0  0  0
  -27.7711  -24.1839   19.6281 C   0  0  0  0  0  0
  -29.9360  -16.7642   20.3035 C   0  0  0  0  0  0
  -29.3707  -17.7312   21.3494 C   0  0  0  0  0  0
  -28.5371  -25.4940   19.2510 C   0  0  0  0  0  0
  -28.7096  -22.3864   24.2723 C   0  0  1  0  0  0
  -31.0490  -23.3404   24.2805 C   0  0  2  0  0  0
  -31.8591  -23.7642   25.5339 C   0  0  2  0  0  0
  -28.3117  -23.3575   20.7052 N   0  0  0  0  0  0
  -29.8315  -15.3930   20.7978 N   0  0  0  0  0  0
  -29.3074  -19.1439   20.9079 N   0  3  0  0  0  0
  -30.1150  -22.2648   24.6834 N   0  3  0  0  0  0
  -31.9560  -22.6478   26.4100 O   0  0  0  0  0  0
  -31.4603  -12.3329   19.1040 H   0  0  0  0  0  0
  -30.3016  -11.2139   19.7702 H   0  0  0  0  0  0
  -29.7126  -11.7887   17.3942 H   0  0  0  0  0  0
  -29.6759  -13.4864   17.7984 H   0  0  0  0  0  0
  -27.7977  -11.3020   18.7756 H   0  0  0  0  0  0
  -27.3634  -12.6651   17.7763 H   0  0  0  0  0  0
  -27.7123  -14.2291   19.5932 H   0  0  0  0  0  0
  -28.6568  -11.8629   21.2953 H   0  0  0  0  0  0
  -28.4778  -13.4829   21.8936 H   0  0  0  0  0  0
  -25.2712   -9.5680   22.4741 H   0  0  0  0  0  0
  -23.9966   -7.4641   22.7476 H   0  0  0  0  0  0
  -21.0806   -8.8713   19.8952 H   0  0  0  0  0  0
  -22.3624  -10.9633   19.6156 H   0  0  0  0  0  0
  -21.2015   -7.6128   23.9678 H   0  0  0  0  0  0
  -21.1494   -6.0527   25.9066 H   0  0  0  0  0  0
  -22.0600   -2.7590   23.2876 H   0  0  0  0  0  0
  -22.4113  -11.9892   22.4725 H   0  0  0  0  0  0
  -21.1161  -13.1314   22.2585 H   0  0  0  0  0  0
  -24.6867  -15.8489   20.5098 H   0  0  0  0  0  0
  -26.2887  -15.6087   20.0462 H   0  0  0  0  0  0
  -26.7171  -32.5575   23.1140 H   0  0  0  0  0  0
  -25.0199  -33.9775   25.0486 H   0  0  0  0  0  0
  -22.6949  -31.3228   21.4328 H   0  0  0  0  0  0
  -23.3755  -35.9685   23.3325 H   0  0  0  0  0  0
  -24.3618  -36.8925   22.2048 H   0  0  0  0  0  0
  -23.7263  -37.6535   23.6610 H   0  0  0  0  0  0
  -26.0129  -31.5947   20.5820 H   0  0  0  0  0  0
  -26.8250  -30.8982   21.9585 H   0  0  0  0  0  0
  -28.0974  -29.0656   21.1633 H   0  0  0  0  0  0
  -25.9800  -26.0225   18.9131 H   0  0  0  0  0  0
  -23.9590  -27.3201   19.0232 H   0  0  0  0  0  0
  -23.7129  -30.6274   19.4160 H   0  0  0  0  0  0
  -22.7144  -29.2766   19.8664 H   0  0  0  0  0  0
  -25.1344  -36.1998   25.0777 H   0  0  0  0  0  0
  -20.9962  -28.3354   24.1409 H   0  0  0  0  0  0
  -20.5806  -26.2362   23.3591 H   0  0  0  0  0  0
  -21.6653  -26.7600   22.1167 H   0  0  0  0  0  0
  -19.6993  -25.6313   21.1264 H   0  0  0  0  0  0
  -19.6729  -27.3198   20.6716 H   0  0  0  0  0  0
  -17.4229  -26.6702   21.3985 H   0  0  0  0  0  0
  -18.0377  -26.0056   22.8994 H   0  0  0  0  0  0
  -19.7961  -30.7248   24.2321 H   0  0  0  0  0  0
  -17.5068  -31.6293   24.5203 H   0  0  0  0  0  0
  -15.5399  -30.3091   23.7608 H   0  0  0  0  0  0
  -15.8644  -28.0862   22.7106 H   0  0  0  0  0  0
  -24.5803  -30.7247   25.7683 H   0  0  0  0  0  0
  -24.8908  -32.3076   26.4708 H   0  0  0  0  0  0
  -25.7908  -30.9032   27.0230 H   0  0  0  0  0  0
  -26.2775  -29.6913   24.1040 H   0  0  0  0  0  0
  -27.4009  -29.7226   25.4446 H   0  0  0  0  0  0
  -27.8614  -30.4392   23.9147 H   0  0  0  0  0  0
  -27.2616  -33.3624   26.2060 H   0  0  0  0  0  0
  -28.3843  -32.6958   25.0311 H   0  0  0  0  0  0
  -28.0690  -31.8476   26.5418 H   0  0  0  0  0  0
  -28.2607  -38.0125   24.7530 H   0  0  0  0  0  0
  -28.1047  -36.2665   24.6239 H   0  0  0  0  0  0
  -27.2273  -37.1460   25.8835 H   0  0  0  0  0  0
  -20.9281  -29.8835   21.6933 H   0  0  0  0  0  0
  -26.0192  -38.2887   24.1426 H   0  0  0  0  0  0
  -29.0572  -21.7180   19.5429 H   0  0  0  0  0  0
  -27.4436  -24.8879   23.6168 H   0  0  0  0  0  0
  -26.7554  -25.1719   22.0498 H   0  0  0  0  0  0
  -28.3984  -25.7291   22.4192 H   0  0  0  0  0  0
  -26.8558  -21.2449   24.4248 H   0  0  0  0  0  0
  -27.6664  -21.4814   25.9451 H   0  0  0  0  0  0
  -28.2767  -20.2735   24.8333 H   0  0  0  0  0  0
  -32.7302  -23.5694   22.8918 H   0  0  0  0  0  0
  -31.4013  -22.6424   22.2430 H   0  0  0  0  0  0
  -32.4815  -21.9180   23.4391 H   0  0  0  0  0  0
  -31.5356  -25.8918   25.8856 H   0  0  0  0  0  0
  -31.5300  -24.9434   27.3530 H   0  0  0  0  0  0
  -30.1353  -24.9046   26.2855 H   0  0  0  0  0  0
  -28.6927  -19.6739   22.8162 H   0  0  0  0  0  0
  -30.3708  -20.0523   22.4712 H   0  0  0  0  0  0
  -27.7159  -23.5505   18.7421 H   0  0  0  0  0  0
  -26.7339  -24.3713   19.8975 H   0  0  0  0  0  0
  -30.9757  -17.0292   20.0999 H   0  0  0  0  0  0
  -29.3934  -16.8207   19.3566 H   0  0  0  0  0  0
  -29.9829  -17.6538   22.2485 H   0  0  0  0  0  0
  -28.3727  -17.4140   21.6460 H   0  0  0  0  0  0
  -28.3020  -25.7684   18.2207 H   0  0  0  0  0  0
  -29.5988  -25.2498   19.2166 H   0  0  0  0  0  0
  -28.3500  -23.3104   24.7216 H   0  0  0  0  0  0
  -30.5127  -24.2126   23.8969 H   0  0  0  0  0  0
  -32.8680  -24.0614   25.2364 H   0  0  0  0  0  0
  -28.9352  -15.0936   21.1524 H   0  0  0  0  0  0
  -30.0743  -19.3482   20.2916 H   0  0  0  0  0  0
  -28.4457  -19.3013   20.4093 H   0  0  0  0  0  0
  -30.5006  -21.3935   24.3713 H   0  0  0  0  0  0
  -30.1995  -22.2569   25.6912 H   0  0  0  0  0  0
  -32.6584  -22.8136   27.0366 H   0  0  0  0  0  0
  1 25  1  0  0  0
  1 30  2  0  0  0
  1 88  1  0  0  0
  2  3  1  0  0  0
  2 25  1  0  0  0
  2 92  1  0  0  0
  2 93  1  0  0  0
  3  4  1  0  0  0
  3 94  1  0  0  0
  3 95  1  0  0  0
  4  5  1  0  0  0
  4 96  1  0  0  0
  4 97  1  0  0  0
  5  6  1  0  0  0
  5 26  1  0  0  0
  5 98  1  0  0  0
  6 25  1  0  0  0
  6 99  1  0  0  0
  6100  1  0  0  0
  7  8  2  0  0  0
  7 26  1  0  0  0
  7 29  1  0  0  0
  8  9  1  0  0  0
  8 22  1  0  0  0
  9 10  1  0  0  0
  9 27  2  0  0  0
 10 11  2  0  0  0
 10 15  1  0  0  0
 11 12  1  0  0  0
 11101  1  0  0  0
 12 13  2  0  0  0
 12102  1  0  0  0
 13 14  1  0  0  0
 13 31  1  0  0  0
 14 15  2  0  0  0
 14103  1  0  0  0
 15104  1  0  0  0
 16 17  2  0  0  0
 16 21  1  0  0  0
 16 31  1  0  0  0
 17 18  1  0  0  0
 17105  1  0  0  0
 18 19  2  0  0  0
 18106  1  0  0  0
 19 20  1  0  0  0
 19 24  1  0  0  0
 20 21  2  0  0  0
 20107  1  0  0  0
 21 23  1  0  0  0
 22 28  1  0  0  0
 22 32  2  0  0  0
 26 27  1  0  0  0
 28108  1  0  0  0
 28109  1  0  0  0
 29110  1  0  0  0
 29111  1  0  0  0
 33 34  1  0  0  0
 33 66  1  0  0  0
 33 70  2  0  0  0
 34 36  1  0  0  0
 34 59  1  0  0  0
 34112  1  0  0  0
 35 44  2  0  0  0
 35 45  1  0  0  0
 35 68  1  0  0  0
 36 56  1  0  0  0
 36113  1  0  0  0
 37 39  1  0  0  0
 37 47  1  0  0  0
 37 66  1  0  0  0
 37114  1  0  0  0
 38 43  2  0  0  0
 38 46  1  0  0  0
 38 47  1  0  0  0
 39 64  1  0  0  0
 39 67  2  0  0  0
 40 52  1  0  0  0
 40 53  2  0  0  0
 40 58  1  0  0  0
 41115  1  0  0  0
 41116  1  0  0  0
 41117  1  0  0  0
 41 48  1  0  0  0
 42 43  1  0  0  0
 42 66  1  0  0  0
 42118  1  0  0  0
 42119  1  0  0  0
 43 44  1  0  0  0
 44120  1  0  0  0
 45 46  2  0  0  0
 45121  1  0  0  0
 46122  1  0  0  0
 47123  1  0  0  0
 47124  1  0  0  0
 48 56  1  0  0  0
 48 65  1  0  0  0
 48125  1  0  0  0
 49 50  1  0  0  0
 49 53  1  0  0  0
 49 64  1  0  0  0
 49126  1  0  0  0
 50 51  1  0  0  0
 50127  1  0  0  0
 50128  1  0  0  0
 51 52  1  0  0  0
 51129  1  0  0  0
 51130  1  0  0  0
 52131  1  0  0  0
 52132  1  0  0  0
 53 54  1  0  0  0
 54 55  2  0  0  0
 54133  1  0  0  0
 55 57  1  0  0  0
 55134  1  0  0  0
 56 69  2  0  0  0
 57 58  2  0  0  0
 57135  1  0  0  0
 58136  1  0  0  0
 59 60  1  0  0  0
 59 61  1  0  0  0
 59 62  1  0  0  0
 60137  1  0  0  0
 60138  1  0  0  0
 60139  1  0  0  0
 61140  1  0  0  0
 61141  1  0  0  0
 61142  1  0  0  0
 62143  1  0  0  0
 62144  1  0  0  0
 62145  1  0  0  0
 63 65  1  0  0  0
 63146  1  0  0  0
 63147  1  0  0  0
 63148  1  0  0  0
 64149  1  0  0  0
 65150  1  0  0  0
 68 83  1  0  0  0
 71 72  2  0  0  0
 71 87  1  0  0  0
 71151  1  0  0  0
 72 73  1  0  0  0
 72 79  1  0  0  0
 73 74  2  0  0  0
 73 84  1  0  0  0
 74 75  1  0  0  0
 74 87  1  0  0  0
 75152  1  0  0  0
 75153  1  0  0  0
 75154  1  0  0  0
 76155  1  0  0  0
 76156  1  0  0  0
 76157  1  0  0  0
 76 84  1  0  0  0
 77158  1  0  0  0
 77159  1  0  0  0
 77160  1  0  0  0
 77 85  1  0  0  0
 78161  1  0  0  0
 78162  1  0  0  0
 78163  1  0  0  0
 78 86  1  0  0  0
 79 89  1  0  0  0
 79164  1  0  0  0
 79165  1  0  0  0
 80 83  1  0  0  0
 80 87  1  0  0  0
 80166  1  0  0  0
 80167  1  0  0  0
 81 82  1  0  0  0
 81 88  1  0  0  0
 81168  1  0  0  0
 81169  1  0  0  0
 82 89  1  0  0  0
 82170  1  0  0  0
 82171  1  0  0  0
 83172  1  0  0  0
 83173  1  0  0  0
 84 90  1  0  0  0
 84174  1  0  0  0
 85 86  1  0  0  0
 85 90  1  0  0  0
 85175  1  0  0  0
 86 91  1  0  0  0
 86176  1  0  0  0
 88177  1  0  0  0
 89178  1  0  0  0
 89179  1  0  0  0
 90180  1  0  0  0
 90181  1  0  0  0
 91182  1  0  0  0
M  CHG  2  89   1  90   1
M  ISO  4   1 100  68 101  83 101  88 100
M  END
> <chiral flag>
0

> <version>
0

> <s_m_source_file>
/data/baiqing/PycharmProjects/Reinvent-master-3.2/result/LINK_invent/BTK/process_docking_weight1_custom_sum_contain_oxygen_bond_distance_aromatic_linkinvent_7_9_3/rearranged_h_0116.sdf

> <i_m_source_file_index>
10

> <r_mmod_Potential_Energy-OPLS-2005>
-498.901977539062

> <r_mmod_Stretch_Energy-OPLS-2005>
37.4953269958496

> <r_mmod_Bend_Energy-OPLS-2005>
127.30982208252

> <r_mmod_Torsional_Energy-OPLS-2005>
258.260467529297

> <r_mmod_Improper_Torsional_Energy-OPLS-2005>
9.49571514129639

> <r_mmod_Van_der_Waal_Energy-OPLS-2005>
142.893661499023

> <r_mmod_Electrostatic_Energy-OPLS-2005>
-162.505859375

> <r_mmod_Solvation_Energy-OPLS-2005>
-926.182495117188

> <b_mmod_Minimization_Converged-OPLS-2005>
0

> <r_mmod_RMS_Derivative-OPLS-2005>
8.19475269317627

$$$$
10
                    3D
 Structure written by MMmdl.
172180  0  0  1  0            999 V2000
  -30.7573  -14.4059   20.5955 C   0  0  0  0  0  0
  -30.4052  -12.2662   19.4069 C   0  0  0  0  0  0
  -29.4855  -12.4899   18.1918 C   0  0  0  0  0  0
  -28.0049  -12.3393   18.5997 C   0  0  0  0  0  0
  -27.6572  -13.1687   19.8608 C   0  0  2  0  0  0
  -28.7043  -12.9676   20.9822 C   0  0  0  0  0  0
  -25.2592  -13.7986   20.5627 C   0  0  0  0  0  0
  -24.1819  -13.0356   20.9161 C   0  0  0  0  0  0
  -24.6356  -11.6796   20.8775 C   0  0  0  0  0  0
  -23.9041  -10.4231   21.0462 C   0  0  0  0  0  0
  -24.3611   -9.4151   21.9241 C   0  0  0  0  0  0
  -23.6290   -8.2190   22.0782 C   0  0  0  0  0  0
  -22.4276   -8.0275   21.3570 C   0  0  0  0  0  0
  -21.9908   -9.0232   20.4656 C   0  0  0  0  0  0
  -22.7224  -10.2109   20.3091 C   0  0  0  0  0  0
  -21.6822   -6.0749   22.5307 C   0  0  0  0  0  0
  -21.3991   -6.5662   23.8232 C   0  0  0  0  0  0
  -21.3675   -5.6834   24.9201 C   0  0  0  0  0  0
  -21.6038   -4.3087   24.7253 C   0  0  0  0  0  0
  -21.8819   -3.8179   23.4371 C   0  0  0  0  0  0
  -21.9156   -4.6977   22.3416 C   0  0  0  0  0  0
  -22.7865  -13.5208   21.1872 C   0  0  0  0  0  0
  -22.1622   -4.2148   21.0989 F   0  0  0  0  0  0
  -21.5628   -3.4579   25.7773 F   0  0  0  0  0  0
  -30.0407  -13.2567   20.4313 N   0  0  0  0  0  0
  -26.2998  -12.9103   20.3307 N   0  0  0  0  0  0
  -25.9267  -11.6307   20.5801 N   0  0  0  0  0  0
  -22.0521  -12.8212   22.0427 N   0  0  0  0  0  0
  -25.4301  -15.1686   20.3946 N   0  0  0  0  0  0
  -31.8792  -14.5746   20.1086 O   0  0  0  0  0  0
  -21.6617   -6.8882   21.4269 O   0  0  0  0  0  0
  -22.3567  -14.5558   20.6743 O   0  0  0  0  0  0
  -24.6176  -31.8684   23.2148 C   0  0  0  0  0  0
  -25.9072  -32.4823   23.8452 C   0  0  1  0  0  0
  -27.2166  -27.4302   20.0556 C   0  0  0  0  0  0
  -25.5919  -33.8624   24.2366 N   0  0  0  0  0  0
  -23.4046  -30.4987   21.5562 C   0  0  2  0  0  0
  -24.8402  -28.9686   20.1172 C   0  0  0  0  0  0
  -22.7435  -29.4666   22.4978 C   0  0  0  0  0  0
  -18.0280  -28.1360   22.8511 C   0  0  0  0  0  0
  -24.1480  -36.7311   23.2633 C   0  0  0  0  0  0
  -25.9401  -30.8230   21.3781 C   0  0  0  0  0  0
  -26.0082  -29.4654   20.7074 C   0  0  0  0  0  0
  -27.2005  -28.7036   20.6724 C   0  0  0  0  0  0
  -26.0189  -26.9481   19.4745 C   0  0  0  0  0  0
  -24.8386  -27.7061   19.5056 C   0  0  0  0  0  0
  -23.6124  -29.8446   20.1678 C   0  0  0  0  0  0
  -25.4094  -36.3110   24.0352 C   0  0  1  0  0  0
  -20.5873  -28.3645   23.1314 C   0  0  2  0  0  0
  -20.6754  -26.9375   22.5395 C   0  0  0  0  0  0
  -19.5722  -26.6377   21.5200 C   0  0  0  0  0  0
  -18.1913  -26.7914   22.1638 C   0  0  0  0  0  0
  -19.1526  -28.8820   23.2917 C   0  0  0  0  0  0
  -18.9445  -30.1431   23.8929 C   0  0  0  0  0  0
  -17.6445  -30.6565   24.0566 C   0  0  0  0  0  0
  -25.9040  -34.9472   23.5158 C   0  0  0  0  0  0
  -16.5330  -29.9056   23.6313 C   0  0  0  0  0  0
  -16.7272  -28.6465   23.0357 C   0  0  0  0  0  0
  -26.4476  -31.6608   25.0791 C   0  0  0  0  0  0
  -25.3748  -31.3684   26.1542 C   0  0  0  0  0  0
  -27.0308  -30.3045   24.6213 C   0  0  0  0  0  0
  -27.6086  -32.4306   25.7518 C   0  0  0  0  0  0
  -27.5591  -37.1798   24.8455 C   0  0  0  0  0  0
  -21.4152  -29.3028   22.3735 N   0  0  0  0  0  0
  -26.4282  -37.3800   23.9427 N   0  0  0  0  0  0
  -24.6726  -31.0787   22.1064 N   0  0  0  0  0  0
  -23.4206  -28.8175   23.3011 O   0  0  0  0  0  0
  -28.3892  -26.6950   20.0347 O   0  0  0  0  0  0
  -26.5587  -34.8918   22.4711 O   0  0  0  0  0  0
  -23.5370  -32.1454   23.7516 O   0  0  0  0  0  0
  -30.8446  -19.5853   21.0242 C   0  0  0  0  0  0
  -29.1555  -17.7381   21.0033 C   0  0  0  0  0  0
  -29.2476  -16.2805   20.5198 C   0  0  0  0  0  0
  -31.3445  -17.4543   22.1500 C   0  0  0  0  0  0
  -30.8271  -16.0129   22.4351 C   0  0  1  0  0  0
  -29.9207  -15.5697   26.2395 C   0  0  0  0  0  0
  -30.0513  -25.0150   21.5804 C   0  0  0  0  0  0
  -29.8725  -20.5500   20.2976 C   0  0  0  0  0  0
  -29.9238  -15.8891   23.6873 C   0  0  0  0  0  0
  -30.7141  -15.4407   24.9294 C   0  0  0  0  0  0
  -30.3029  -22.0512   20.3184 C   0  0  0  0  0  0
  -28.2670  -25.2808   19.7885 C   0  0  0  0  0  0
  -29.5056  -24.4672   20.2423 C   0  0  2  0  0  0
  -30.4572  -18.3181   21.3471 N   0  0  0  0  0  0
  -30.1542  -15.4052   21.2783 N   0  0  0  0  0  0
  -29.1617  -23.0113   20.3446 N   0  3  0  0  0  0
  -31.9709  -19.9979   21.3180 O   0  0  0  0  0  0
  -31.4503  -12.3247   19.1051 H   0  0  0  0  0  0
  -30.2688  -11.2577   19.8005 H   0  0  0  0  0  0
  -29.7286  -11.7847   17.3942 H   0  0  0  0  0  0
  -29.6572  -13.4852   17.7800 H   0  0  0  0  0  0
  -27.8016  -11.2825   18.7694 H   0  0  0  0  0  0
  -27.3618  -12.6368   17.7697 H   0  0  0  0  0  0
  -27.6863  -14.1972   19.5238 H   0  0  0  0  0  0
  -28.6844  -11.9380   21.3419 H   0  0  0  0  0  0
  -28.4643  -13.5793   21.8523 H   0  0  0  0  0  0
  -25.2754   -9.5616   22.4847 H   0  0  0  0  0  0
  -23.9999   -7.4574   22.7520 H   0  0  0  0  0  0
  -21.0841   -8.8726   19.8965 H   0  0  0  0  0  0
  -22.3682  -10.9656   19.6230 H   0  0  0  0  0  0
  -21.1982   -7.6180   23.9697 H   0  0  0  0  0  0
  -21.1520   -6.0604   25.9093 H   0  0  0  0  0  0
  -22.0587   -2.7635   23.2900 H   0  0  0  0  0  0
  -22.4175  -11.9838   22.4720 H   0  0  0  0  0  0
  -21.1157  -13.1209   22.2716 H   0  0  0  0  0  0
  -24.6557  -15.8165   20.4901 H   0  0  0  0  0  0
  -26.2620  -15.5936   20.0116 H   0  0  0  0  0  0
  -26.7132  -32.5487   23.1202 H   0  0  0  0  0  0
  -25.0082  -33.9782   25.0519 H   0  0  0  0  0  0
  -22.6944  -31.3175   21.4238 H   0  0  0  0  0  0
  -23.3765  -35.9619   23.3253 H   0  0  0  0  0  0
  -24.3600  -36.8965   22.2059 H   0  0  0  0  0  0
  -23.7195  -37.6492   23.6668 H   0  0  0  0  0  0
  -26.0799  -31.5975   20.6230 H   0  0  0  0  0  0
  -26.8193  -30.8507   22.0112 H   0  0  0  0  0  0
  -28.1070  -29.0872   21.1201 H   0  0  0  0  0  0
  -25.9597  -25.9900   18.9794 H   0  0  0  0  0  0
  -23.9363  -27.3182   19.0521 H   0  0  0  0  0  0
  -23.7392  -30.6279   19.4202 H   0  0  0  0  0  0
  -22.7303  -29.2836   19.8562 H   0  0  0  0  0  0
  -25.1252  -36.1987   25.0847 H   0  0  0  0  0  0
  -20.9983  -28.3185   24.1432 H   0  0  0  0  0  0
  -20.5641  -26.2245   23.3582 H   0  0  0  0  0  0
  -21.6626  -26.7397   22.1197 H   0  0  0  0  0  0
  -19.6866  -25.6297   21.1207 H   0  0  0  0  0  0
  -19.6647  -27.3206   20.6746 H   0  0  0  0  0  0
  -17.4178  -26.6686   21.4041 H   0  0  0  0  0  0
  -18.0310  -26.0035   22.9014 H   0  0  0  0  0  0
  -19.7910  -30.7237   24.2332 H   0  0  0  0  0  0
  -17.4977  -31.6252   24.5145 H   0  0  0  0  0  0
  -15.5328  -30.2952   23.7607 H   0  0  0  0  0  0
  -15.8686  -28.0767   22.7077 H   0  0  0  0  0  0
  -24.5914  -30.7050   25.7856 H   0  0  0  0  0  0
  -24.8943  -32.2813   26.5076 H   0  0  0  0  0  0
  -25.8107  -30.8781   27.0262 H   0  0  0  0  0  0
  -26.2865  -29.6805   24.1259 H   0  0  0  0  0  0
  -27.4027  -29.7292   25.4702 H   0  0  0  0  0  0
  -27.8733  -30.4338   23.9418 H   0  0  0  0  0  0
  -27.2777  -33.3620   26.2126 H   0  0  0  0  0  0
  -28.3873  -32.6847   25.0310 H   0  0  0  0  0  0
  -28.0799  -31.8418   26.5398 H   0  0  0  0  0  0
  -28.2558  -38.0150   24.7599 H   0  0  0  0  0  0
  -28.1151  -36.2695   24.6161 H   0  0  0  0  0  0
  -27.2342  -37.1299   25.8865 H   0  0  0  0  0  0
  -20.9308  -29.8804   21.7003 H   0  0  0  0  0  0
  -26.0179  -38.2872   24.1483 H   0  0  0  0  0  0
  -28.5106  -17.8071   21.8796 H   0  0  0  0  0  0
  -28.6476  -18.2857   20.2114 H   0  0  0  0  0  0
  -29.5271  -16.2664   19.4642 H   0  0  0  0  0  0
  -28.2435  -15.8697   20.5876 H   0  0  0  0  0  0
  -32.2928  -17.3789   21.6123 H   0  0  0  0  0  0
  -31.5804  -17.9456   23.0967 H   0  0  0  0  0  0
  -31.7233  -15.4244   22.6553 H   0  0  0  0  0  0
  -30.5085  -15.2030   27.0815 H   0  0  0  0  0  0
  -28.9928  -14.9973   26.2121 H   0  0  0  0  0  0
  -29.6694  -16.6100   26.4545 H   0  0  0  0  0  0
  -30.2244  -26.0908   21.5213 H   0  0  0  0  0  0
  -31.0060  -24.5643   21.8499 H   0  0  0  0  0  0
  -29.3478  -24.8516   22.3963 H   0  0  0  0  0  0
  -28.8907  -20.4492   20.7581 H   0  0  0  0  0  0
  -29.7671  -20.2125   19.2638 H   0  0  0  0  0  0
  -29.1301  -15.1561   23.5238 H   0  0  0  0  0  0
  -29.4089  -16.8326   23.8709 H   0  0  0  0  0  0
  -31.0217  -14.4008   24.7894 H   0  0  0  0  0  0
  -31.6373  -16.0128   25.0111 H   0  0  0  0  0  0
  -30.9192  -22.2492   19.4398 H   0  0  0  0  0  0
  -30.9260  -22.2576   21.1886 H   0  0  0  0  0  0
  -27.4011  -24.8994   20.3319 H   0  0  0  0  0  0
  -28.0880  -25.1133   18.7240 H   0  0  0  0  0  0
  -30.2762  -24.5900   19.4770 H   0  0  0  0  0  0
  -28.6339  -22.8642   21.1929 H   0  0  0  0  0  0
  -28.5461  -22.7817   19.5776 H   0  0  0  0  0  0
  1 25  1  0  0  0
  1 30  2  0  0  0
  1 85  1  0  0  0
  2  3  1  0  0  0
  2 25  1  0  0  0
  2 88  1  0  0  0
  2 89  1  0  0  0
  3  4  1  0  0  0
  3 90  1  0  0  0
  3 91  1  0  0  0
  4  5  1  0  0  0
  4 92  1  0  0  0
  4 93  1  0  0  0
  5  6  1  0  0  0
  5 26  1  0  0  0
  5 94  1  0  0  0
  6 25  1  0  0  0
  6 95  1  0  0  0
  6 96  1  0  0  0
  7  8  2  0  0  0
  7 26  1  0  0  0
  7 29  1  0  0  0
  8  9  1  0  0  0
  8 22  1  0  0  0
  9 10  1  0  0  0
  9 27  2  0  0  0
 10 11  2  0  0  0
 10 15  1  0  0  0
 11 12  1  0  0  0
 11 97  1  0  0  0
 12 13  2  0  0  0
 12 98  1  0  0  0
 13 14  1  0  0  0
 13 31  1  0  0  0
 14 15  2  0  0  0
 14 99  1  0  0  0
 15100  1  0  0  0
 16 17  2  0  0  0
 16 21  1  0  0  0
 16 31  1  0  0  0
 17 18  1  0  0  0
 17101  1  0  0  0
 18 19  2  0  0  0
 18102  1  0  0  0
 19 20  1  0  0  0
 19 24  1  0  0  0
 20 21  2  0  0  0
 20103  1  0  0  0
 21 23  1  0  0  0
 22 28  1  0  0  0
 22 32  2  0  0  0
 26 27  1  0  0  0
 28104  1  0  0  0
 28105  1  0  0  0
 29106  1  0  0  0
 29107  1  0  0  0
 33 34  1  0  0  0
 33 66  1  0  0  0
 33 70  2  0  0  0
 34 36  1  0  0  0
 34 59  1  0  0  0
 34108  1  0  0  0
 35 44  2  0  0  0
 35 45  1  0  0  0
 35 68  1  0  0  0
 36 56  1  0  0  0
 36109  1  0  0  0
 37 39  1  0  0  0
 37 47  1  0  0  0
 37 66  1  0  0  0
 37110  1  0  0  0
 38 43  2  0  0  0
 38 46  1  0  0  0
 38 47  1  0  0  0
 39 64  1  0  0  0
 39 67  2  0  0  0
 40 52  1  0  0  0
 40 53  2  0  0  0
 40 58  1  0  0  0
 41111  1  0  0  0
 41112  1  0  0  0
 41113  1  0  0  0
 41 48  1  0  0  0
 42 43  1  0  0  0
 42 66  1  0  0  0
 42114  1  0  0  0
 42115  1  0  0  0
 43 44  1  0  0  0
 44116  1  0  0  0
 45 46  2  0  0  0
 45117  1  0  0  0
 46118  1  0  0  0
 47119  1  0  0  0
 47120  1  0  0  0
 48 56  1  0  0  0
 48 65  1  0  0  0
 48121  1  0  0  0
 49 50  1  0  0  0
 49 53  1  0  0  0
 49 64  1  0  0  0
 49122  1  0  0  0
 50 51  1  0  0  0
 50123  1  0  0  0
 50124  1  0  0  0
 51 52  1  0  0  0
 51125  1  0  0  0
 51126  1  0  0  0
 52127  1  0  0  0
 52128  1  0  0  0
 53 54  1  0  0  0
 54 55  2  0  0  0
 54129  1  0  0  0
 55 57  1  0  0  0
 55130  1  0  0  0
 56 69  2  0  0  0
 57 58  2  0  0  0
 57131  1  0  0  0
 58132  1  0  0  0
 59 60  1  0  0  0
 59 61  1  0  0  0
 59 62  1  0  0  0
 60133  1  0  0  0
 60134  1  0  0  0
 60135  1  0  0  0
 61136  1  0  0  0
 61137  1  0  0  0
 61138  1  0  0  0
 62139  1  0  0  0
 62140  1  0  0  0
 62141  1  0  0  0
 63 65  1  0  0  0
 63142  1  0  0  0
 63143  1  0  0  0
 63144  1  0  0  0
 64145  1  0  0  0
 65146  1  0  0  0
 68 82  1  0  0  0
 71 78  1  0  0  0
 71 84  1  0  0  0
 71 87  2  0  0  0
 72 73  1  0  0  0
 72 84  1  0  0  0
 72147  1  0  0  0
 72148  1  0  0  0
 73 85  1  0  0  0
 73149  1  0  0  0
 73150  1  0  0  0
 74 75  1  0  0  0
 74 84  1  0  0  0
 74151  1  0  0  0
 74152  1  0  0  0
 75 79  1  0  0  0
 75 85  1  0  0  0
 75153  1  0  0  0
 76 80  1  0  0  0
 76154  1  0  0  0
 76155  1  0  0  0
 76156  1  0  0  0
 77157  1  0  0  0
 77158  1  0  0  0
 77159  1  0  0  0
 77 83  1  0  0  0
 78 81  1  0  0  0
 78160  1  0  0  0
 78161  1  0  0  0
 79 80  1  0  0  0
 79162  1  0  0  0
 79163  1  0  0  0
 80164  1  0  0  0
 80165  1  0  0  0
 81 86  1  0  0  0
 81166  1  0  0  0
 81167  1  0  0  0
 82 83  1  0  0  0
 82168  1  0  0  0
 82169  1  0  0  0
 83 86  1  0  0  0
 83170  1  0  0  0
 86171  1  0  0  0
 86172  1  0  0  0
M  CHG  1  86   1
M  ISO  4   1 100  68 101  82 101  85 100
M  END
> <chiral flag>
0

> <version>
0

> <s_m_source_file>
/data/baiqing/PycharmProjects/Reinvent-master-3.2/result/LINK_invent/BTK/process_docking_weight1_custom_sum_contain_oxygen_bond_distance_aromatic_linkinvent_7_9_3/rearranged_h_0116.sdf

> <i_m_source_file_index>
11

> <r_mmod_Potential_Energy-OPLS-2005>
123.716262817383

> <r_mmod_Stretch_Energy-OPLS-2005>
43.2921905517578

> <r_mmod_Bend_Energy-OPLS-2005>
111.394836425781

> <r_mmod_Torsional_Energy-OPLS-2005>
424.059417724609

> <r_mmod_Improper_Torsional_Energy-OPLS-2005>
4.25096940994263

> <r_mmod_Van_der_Waal_Energy-OPLS-2005>
156.192306518555

> <r_mmod_Electrostatic_Energy-OPLS-2005>
-172.041854858398

> <r_mmod_Solvation_Energy-OPLS-2005>
-457.262237548828

> <b_mmod_Minimization_Converged-OPLS-2005>
0

> <r_mmod_RMS_Derivative-OPLS-2005>
5.16060304641724

$$$$
11
                    3D
 Structure written by MMmdl.
149157  0  0  1  0            999 V2000
  -30.4274  -15.2041   20.3767 C   0  0  0  0  0  0
  -30.4488  -12.7610   19.5204 C   0  0  0  0  0  0
  -29.5377  -12.5703   18.2812 C   0  0  0  0  0  0
  -28.0811  -12.3052   18.7045 C   0  0  0  0  0  0
  -27.6186  -13.2655   19.8286 C   0  0  2  0  0  0
  -28.6555  -13.3927   20.9650 C   0  0  0  0  0  0
  -25.2413  -13.8229   20.5721 C   0  0  0  0  0  0
  -24.1758  -13.0430   20.9250 C   0  0  0  0  0  0
  -24.6402  -11.6925   20.8759 C   0  0  0  0  0  0
  -23.9090  -10.4289   21.0405 C   0  0  0  0  0  0
  -24.3634   -9.4205   21.9184 C   0  0  0  0  0  0
  -23.6303   -8.2244   22.0756 C   0  0  0  0  0  0
  -22.4283   -8.0285   21.3547 C   0  0  0  0  0  0
  -21.9924   -9.0258   20.4648 C   0  0  0  0  0  0
  -22.7259  -10.2133   20.3055 C   0  0  0  0  0  0
  -21.6856   -6.0738   22.5279 C   0  0  0  0  0  0
  -21.4017   -6.5640   23.8213 C   0  0  0  0  0  0
  -21.3662   -5.6791   24.9174 C   0  0  0  0  0  0
  -21.6045   -4.3054   24.7224 C   0  0  0  0  0  0
  -21.8818   -3.8146   23.4345 C   0  0  0  0  0  0
  -21.9194   -4.6964   22.3402 C   0  0  0  0  0  0
  -22.7776  -13.5192   21.1900 C   0  0  0  0  0  0
  -22.1662   -4.2152   21.0977 F   0  0  0  0  0  0
  -21.5629   -3.4537   25.7735 F   0  0  0  0  0  0
  -29.8979  -13.8880   20.3506 N   0  0  0  0  0  0
  -26.2843  -12.9488   20.3215 N   0  0  0  0  0  0
  -25.9338  -11.6602   20.5719 N   0  0  0  0  0  0
  -22.0427  -12.8181   22.0452 N   0  0  0  0  0  0
  -25.4025  -15.1968   20.4133 N   0  0  0  0  0  0
  -31.6451  -15.2536   20.1423 O   0  0  0  0  0  0
  -21.6645   -6.8884   21.4243 O   0  0  0  0  0  0
  -22.3457  -14.5494   20.6738 O   0  0  0  0  0  0
  -24.6591  -31.8277   23.1733 C   0  0  0  0  0  0
  -25.9291  -32.4608   23.8185 C   0  0  1  0  0  0
  -27.2196  -26.9685   20.1811 C   0  0  0  0  0  0
  -25.5974  -33.8421   24.2094 N   0  0  0  0  0  0
  -23.4713  -30.4403   21.5223 C   0  0  2  0  0  0
  -24.9236  -28.8324   20.1143 C   0  0  0  0  0  0
  -22.7645  -29.4462   22.4801 C   0  0  0  0  0  0
  -18.0320  -28.1406   22.8468 C   0  0  0  0  0  0
  -24.1496  -36.7216   23.2645 C   0  0  0  0  0  0
  -26.0377  -30.6481   21.3965 C   0  0  0  0  0  0
  -26.1068  -29.2415   20.7417 C   0  0  0  0  0  0
  -27.2513  -28.3309   20.7480 C   0  0  0  0  0  0
  -26.0059  -26.6987   19.5109 C   0  0  0  0  0  0
  -24.8960  -27.5805   19.4791 C   0  0  0  0  0  0
  -23.7084  -29.7564   20.1481 C   0  0  0  0  0  0
  -25.4135  -36.2978   24.0301 C   0  0  1  0  0  0
  -20.5941  -28.3746   23.1199 C   0  0  2  0  0  0
  -20.6799  -26.9434   22.5401 C   0  0  0  0  0  0
  -19.5773  -26.6378   21.5213 C   0  0  0  0  0  0
  -18.1955  -26.7938   22.1623 C   0  0  0  0  0  0
  -19.1580  -28.8896   23.2820 C   0  0  0  0  0  0
  -18.9489  -30.1487   23.8853 C   0  0  0  0  0  0
  -17.6482  -30.6595   24.0554 C   0  0  0  0  0  0
  -25.9096  -34.9361   23.5017 C   0  0  0  0  0  0
  -16.5374  -29.9083   23.6341 C   0  0  0  0  0  0
  -16.7301  -28.6504   23.0359 C   0  0  0  0  0  0
  -26.4556  -31.6536   25.0697 C   0  0  0  0  0  0
  -25.3692  -31.3775   26.1360 C   0  0  0  0  0  0
  -27.0448  -30.2908   24.6400 C   0  0  0  0  0  0
  -27.6054  -32.4338   25.7499 C   0  0  0  0  0  0
  -27.5574  -37.1763   24.8463 C   0  0  0  0  0  0
  -21.4319  -29.3045   22.3552 N   0  0  0  0  0  0
  -26.4283  -37.3711   23.9409 N   0  0  0  0  0  0
  -24.7438  -30.9979   22.0847 N   0  0  0  0  0  0
  -23.4212  -28.8033   23.3029 O   0  0  0  0  0  0
  -28.2465  -25.9005   20.2387 O   0  0  0  0  0  0
  -26.5701  -34.8889   22.4611 O   0  0  0  0  0  0
  -23.5672  -32.1227   23.6855 O   0  0  0  0  0  0
  -30.4469  -20.4176   20.2492 C   0  0  0  0  0  0
  -30.6003  -18.9471   20.2966 C   0  0  0  0  0  0
  -28.1855  -20.1790   20.3762 C   0  0  0  0  0  0
  -29.2134  -21.2011   20.2752 C   0  0  0  0  0  0
  -29.5197  -17.9976   20.3956 C   0  0  0  0  0  0
  -30.0840  -23.3168   18.9849 C   0  0  0  0  0  0
  -28.0193  -24.2788   20.2159 C   0  0  0  0  0  0
  -29.1990  -22.9504   20.1884 C   0  0  1  0  0  0
  -28.3366  -18.7574   20.4320 N   0  0  0  0  0  0
  -29.5675  -16.3942   20.4792 N   0  0  0  0  0  0
  -31.4687  -12.9681   19.1937 H   0  0  0  0  0  0
  -30.5077  -11.8411   20.1042 H   0  0  0  0  0  0
  -29.9044  -11.7514   17.6611 H   0  0  0  0  0  0
  -29.5796  -13.4667   17.6603 H   0  0  0  0  0  0
  -28.0235  -11.2751   19.0573 H   0  0  0  0  0  0
  -27.4149  -12.3709   17.8435 H   0  0  0  0  0  0
  -27.5473  -14.2435   19.3522 H   0  0  0  0  0  0
  -28.8068  -12.4402   21.4756 H   0  0  0  0  0  0
  -28.3068  -14.0970   21.7221 H   0  0  0  0  0  0
  -25.2775   -9.5681   22.4763 H   0  0  0  0  0  0
  -24.0009   -7.4634   22.7476 H   0  0  0  0  0  0
  -21.0856   -8.8781   19.8951 H   0  0  0  0  0  0
  -22.3718  -10.9675   19.6168 H   0  0  0  0  0  0
  -21.2010   -7.6147   23.9718 H   0  0  0  0  0  0
  -21.1485   -6.0520   25.9079 H   0  0  0  0  0  0
  -22.0595   -2.7609   23.2842 H   0  0  0  0  0  0
  -22.4051  -11.9855   22.4855 H   0  0  0  0  0  0
  -21.1042  -13.1203   22.2649 H   0  0  0  0  0  0
  -24.6237  -15.8380   20.5212 H   0  0  0  0  0  0
  -26.2269  -15.6438   20.0351 H   0  0  0  0  0  0
  -26.7359  -32.5159   23.0901 H   0  0  0  0  0  0
  -25.0077  -33.9507   25.0215 H   0  0  0  0  0  0
  -22.7822  -31.2708   21.3543 H   0  0  0  0  0  0
  -23.3771  -35.9532   23.3268 H   0  0  0  0  0  0
  -24.3577  -36.8900   22.2067 H   0  0  0  0  0  0
  -23.7236  -37.6388   23.6723 H   0  0  0  0  0  0
  -26.2122  -31.3917   20.6177 H   0  0  0  0  0  0
  -26.9000  -30.7046   22.0488 H   0  0  0  0  0  0
  -28.1506  -28.6441   21.2596 H   0  0  0  0  0  0
  -25.8844  -25.7436   19.0218 H   0  0  0  0  0  0
  -23.9960  -27.2619   18.9710 H   0  0  0  0  0  0
  -23.8610  -30.5254   19.3897 H   0  0  0  0  0  0
  -22.8186  -29.2093   19.8318 H   0  0  0  0  0  0
  -25.1331  -36.1779   25.0791 H   0  0  0  0  0  0
  -21.0029  -28.3350   24.1322 H   0  0  0  0  0  0
  -20.5688  -26.2364   23.3637 H   0  0  0  0  0  0
  -21.6662  -26.7420   22.1204 H   0  0  0  0  0  0
  -19.6934  -25.6277   21.1273 H   0  0  0  0  0  0
  -19.6710  -27.3162   20.6723 H   0  0  0  0  0  0
  -17.4224  -26.6678   21.4027 H   0  0  0  0  0  0
  -18.0352  -26.0092   22.9031 H   0  0  0  0  0  0
  -19.7964  -30.7316   24.2204 H   0  0  0  0  0  0
  -17.5034  -31.6271   24.5164 H   0  0  0  0  0  0
  -15.5373  -30.2969   23.7689 H   0  0  0  0  0  0
  -15.8703  -28.0808   22.7098 H   0  0  0  0  0  0
  -24.5884  -30.7117   25.7664 H   0  0  0  0  0  0
  -24.8872  -32.2974   26.4677 H   0  0  0  0  0  0
  -25.7931  -30.9008   27.0206 H   0  0  0  0  0  0
  -26.3104  -29.6588   24.1396 H   0  0  0  0  0  0
  -27.3985  -29.7266   25.5039 H   0  0  0  0  0  0
  -27.9042  -30.4098   23.9800 H   0  0  0  0  0  0
  -27.2625  -33.3675   26.1967 H   0  0  0  0  0  0
  -28.3923  -32.6839   25.0372 H   0  0  0  0  0  0
  -28.0657  -31.8537   26.5506 H   0  0  0  0  0  0
  -28.2565  -38.0085   24.7525 H   0  0  0  0  0  0
  -28.1099  -36.2612   24.6274 H   0  0  0  0  0  0
  -27.2293  -37.1383   25.8866 H   0  0  0  0  0  0
  -20.9567  -29.8731   21.6681 H   0  0  0  0  0  0
  -26.0133  -38.2770   24.1421 H   0  0  0  0  0  0
  -31.3701  -20.9739   20.1869 H   0  0  0  0  0  0
  -31.6061  -18.5510   20.2613 H   0  0  0  0  0  0
  -27.1570  -20.5067   20.4170 H   0  0  0  0  0  0
  -31.0809  -22.8843   19.0537 H   0  0  0  0  0  0
  -30.2204  -24.3963   18.9075 H   0  0  0  0  0  0
  -29.6332  -22.9771   18.0522 H   0  0  0  0  0  0
  -27.3849  -24.0895   21.0822 H   0  0  0  0  0  0
  -27.3701  -24.0963   19.3605 H   0  0  0  0  0  0
  -29.7940  -23.1859   21.0715 H   0  0  0  0  0  0
  -28.6333  -16.0514   20.6280 H   0  0  0  0  0  0
  1 25  1  0  0  0
  1 30  2  0  0  0
  1 80  1  0  0  0
  2  3  1  0  0  0
  2 25  1  0  0  0
  2 81  1  0  0  0
  2 82  1  0  0  0
  3  4  1  0  0  0
  3 83  1  0  0  0
  3 84  1  0  0  0
  4  5  1  0  0  0
  4 85  1  0  0  0
  4 86  1  0  0  0
  5  6  1  0  0  0
  5 26  1  0  0  0
  5 87  1  0  0  0
  6 25  1  0  0  0
  6 88  1  0  0  0
  6 89  1  0  0  0
  7  8  2  0  0  0
  7 26  1  0  0  0
  7 29  1  0  0  0
  8  9  1  0  0  0
  8 22  1  0  0  0
  9 10  1  0  0  0
  9 27  2  0  0  0
 10 11  2  0  0  0
 10 15  1  0  0  0
 11 12  1  0  0  0
 11 90  1  0  0  0
 12 13  2  0  0  0
 12 91  1  0  0  0
 13 14  1  0  0  0
 13 31  1  0  0  0
 14 15  2  0  0  0
 14 92  1  0  0  0
 15 93  1  0  0  0
 16 17  2  0  0  0
 16 21  1  0  0  0
 16 31  1  0  0  0
 17 18  1  0  0  0
 17 94  1  0  0  0
 18 19  2  0  0  0
 18 95  1  0  0  0
 19 20  1  0  0  0
 19 24  1  0  0  0
 20 21  2  0  0  0
 20 96  1  0  0  0
 21 23  1  0  0  0
 22 28  1  0  0  0
 22 32  2  0  0  0
 26 27  1  0  0  0
 28 97  1  0  0  0
 28 98  1  0  0  0
 29 99  1  0  0  0
 29100  1  0  0  0
 33 34  1  0  0  0
 33 66  1  0  0  0
 33 70  2  0  0  0
 34 36  1  0  0  0
 34 59  1  0  0  0
 34101  1  0  0  0
 35 44  2  0  0  0
 35 45  1  0  0  0
 35 68  1  0  0  0
 36 56  1  0  0  0
 36102  1  0  0  0
 37 39  1  0  0  0
 37 47  1  0  0  0
 37 66  1  0  0  0
 37103  1  0  0  0
 38 43  2  0  0  0
 38 46  1  0  0  0
 38 47  1  0  0  0
 39 64  1  0  0  0
 39 67  2  0  0  0
 40 52  1  0  0  0
 40 53  2  0  0  0
 40 58  1  0  0  0
 41104  1  0  0  0
 41105  1  0  0  0
 41106  1  0  0  0
 41 48  1  0  0  0
 42 43  1  0  0  0
 42 66  1  0  0  0
 42107  1  0  0  0
 42108  1  0  0  0
 43 44  1  0  0  0
 44109  1  0  0  0
 45 46  2  0  0  0
 45110  1  0  0  0
 46111  1  0  0  0
 47112  1  0  0  0
 47113  1  0  0  0
 48 56  1  0  0  0
 48 65  1  0  0  0
 48114  1  0  0  0
 49 50  1  0  0  0
 49 53  1  0  0  0
 49 64  1  0  0  0
 49115  1  0  0  0
 50 51  1  0  0  0
 50116  1  0  0  0
 50117  1  0  0  0
 51 52  1  0  0  0
 51118  1  0  0  0
 51119  1  0  0  0
 52120  1  0  0  0
 52121  1  0  0  0
 53 54  1  0  0  0
 54 55  2  0  0  0
 54122  1  0  0  0
 55 57  1  0  0  0
 55123  1  0  0  0
 56 69  2  0  0  0
 57 58  2  0  0  0
 57124  1  0  0  0
 58125  1  0  0  0
 59 60  1  0  0  0
 59 61  1  0  0  0
 59 62  1  0  0  0
 60126  1  0  0  0
 60127  1  0  0  0
 60128  1  0  0  0
 61129  1  0  0  0
 61130  1  0  0  0
 61131  1  0  0  0
 62132  1  0  0  0
 62133  1  0  0  0
 62134  1  0  0  0
 63 65  1  0  0  0
 63135  1  0  0  0
 63136  1  0  0  0
 63137  1  0  0  0
 64138  1  0  0  0
 65139  1  0  0  0
 68 77  1  0  0  0
 71 72  2  0  0  0
 71 74  1  0  0  0
 71140  1  0  0  0
 72 75  1  0  0  0
 72141  1  0  0  0
 73 74  2  0  0  0
 73 79  1  0  0  0
 73142  1  0  0  0
 74 78  1  0  0  0
 75 79  2  0  0  0
 75 80  1  0  0  0
 76143  1  0  0  0
 76144  1  0  0  0
 76145  1  0  0  0
 76 78  1  0  0  0
 77 78  1  0  0  0
 77146  1  0  0  0
 77147  1  0  0  0
 78148  1  0  0  0
 80149  1  0  0  0
M  ISO  4   1 100  68 101  77 101  80 100
M  END
> <chiral flag>
0

> <version>
0

> <s_m_source_file>
/data/baiqing/PycharmProjects/Reinvent-master-3.2/result/LINK_invent/BTK/process_docking_weight1_custom_sum_contain_oxygen_bond_distance_aromatic_linkinvent_7_9_3/rearranged_h_0116.sdf

> <i_m_source_file_index>
12

> <r_mmod_Potential_Energy-OPLS-2005>
927.762634277344

> <r_mmod_Stretch_Energy-OPLS-2005>
470.1826171875

> <r_mmod_Bend_Energy-OPLS-2005>
437.291015625

> <r_mmod_Torsional_Energy-OPLS-2005>
217.057830810547

> <r_mmod_Improper_Torsional_Energy-OPLS-2005>
3.92719721794128

> <r_mmod_Van_der_Waal_Energy-OPLS-2005>
130.260177612305

> <r_mmod_Electrostatic_Energy-OPLS-2005>
-512.083374023438

> <r_mmod_Solvation_Energy-OPLS-2005>
-213.918640136719

> <b_mmod_Minimization_Converged-OPLS-2005>
0

> <r_mmod_RMS_Derivative-OPLS-2005>
0.524908244609833

$$$$
12
                    3D
 Structure written by MMmdl.
160168  0  0  1  0            999 V2000
  -30.5226  -14.9830   20.4085 C   0  0  0  0  0  0
  -30.4411  -12.6084   19.5049 C   0  0  0  0  0  0
  -29.5244  -12.5348   18.2612 C   0  0  0  0  0  0
  -28.0580  -12.3152   18.6780 C   0  0  0  0  0  0
  -27.6286  -13.2510   19.8380 C   0  0  2  0  0  0
  -28.6696  -13.2912   20.9770 C   0  0  0  0  0  0
  -25.2455  -13.8219   20.5712 C   0  0  0  0  0  0
  -24.1776  -13.0440   20.9234 C   0  0  0  0  0  0
  -24.6397  -11.6927   20.8753 C   0  0  0  0  0  0
  -23.9082  -10.4295   21.0405 C   0  0  0  0  0  0
  -24.3629   -9.4209   21.9184 C   0  0  0  0  0  0
  -23.6301   -8.2244   22.0752 C   0  0  0  0  0  0
  -22.4283   -8.0282   21.3542 C   0  0  0  0  0  0
  -21.9922   -9.0257   20.4644 C   0  0  0  0  0  0
  -22.7252  -10.2136   20.3055 C   0  0  0  0  0  0
  -21.6856   -6.0738   22.5278 C   0  0  0  0  0  0
  -21.4017   -6.5641   23.8212 C   0  0  0  0  0  0
  -21.3659   -5.6792   24.9173 C   0  0  0  0  0  0
  -21.6044   -4.3055   24.7223 C   0  0  0  0  0  0
  -21.8819   -3.8148   23.4343 C   0  0  0  0  0  0
  -21.9194   -4.6965   22.3401 C   0  0  0  0  0  0
  -22.7795  -13.5208   21.1886 C   0  0  0  0  0  0
  -22.1662   -4.2151   21.0979 F   0  0  0  0  0  0
  -21.5629   -3.4537   25.7735 F   0  0  0  0  0  0
  -29.9426  -13.7120   20.3783 N   0  0  0  0  0  0
  -26.2880  -12.9456   20.3241 N   0  0  0  0  0  0
  -25.9330  -11.6582   20.5736 N   0  0  0  0  0  0
  -22.0448  -12.8192   22.0441 N   0  0  0  0  0  0
  -25.4107  -15.1949   20.4135 N   0  0  0  0  0  0
  -31.7245  -15.0506   20.1286 O   0  0  0  0  0  0
  -21.6642   -6.8882   21.4241 O   0  0  0  0  0  0
  -22.3474  -14.5508   20.6726 O   0  0  0  0  0  0
  -24.6459  -31.8408   23.1848 C   0  0  0  0  0  0
  -25.9219  -32.4677   23.8252 C   0  0  1  0  0  0
  -27.2201  -27.1071   20.1576 C   0  0  0  0  0  0
  -25.5954  -33.8484   24.2167 N   0  0  0  0  0  0
  -23.4515  -30.4577   21.5306 C   0  0  2  0  0  0
  -24.9028  -28.8776   20.1089 C   0  0  0  0  0  0
  -22.7582  -29.4527   22.4848 C   0  0  0  0  0  0
  -18.0306  -28.1399   22.8474 C   0  0  0  0  0  0
  -24.1492  -36.7248   23.2643 C   0  0  0  0  0  0
  -26.0088  -30.7048   21.3884 C   0  0  0  0  0  0
  -26.0798  -29.3128   20.7308 C   0  0  0  0  0  0
  -27.2377  -28.4436   20.7370 C   0  0  0  0  0  0
  -26.0190  -26.7804   19.4912 C   0  0  0  0  0  0
  -24.8870  -27.6264   19.4729 C   0  0  0  0  0  0
  -23.6802  -29.7832   20.1512 C   0  0  0  0  0  0
  -25.4126  -36.3022   24.0312 C   0  0  1  0  0  0
  -20.5920  -28.3727   23.1231 C   0  0  2  0  0  0
  -20.6790  -26.9428   22.5406 C   0  0  0  0  0  0
  -19.5764  -26.6381   21.5214 C   0  0  0  0  0  0
  -18.1945  -26.7937   22.1623 C   0  0  0  0  0  0
  -19.1564  -28.8882   23.2843 C   0  0  0  0  0  0
  -18.9479  -30.1477   23.8870 C   0  0  0  0  0  0
  -17.6475  -30.6594   24.0558 C   0  0  0  0  0  0
  -25.9078  -34.9398   23.5053 C   0  0  0  0  0  0
  -16.5365  -29.9086   23.6338 C   0  0  0  0  0  0
  -16.7290  -28.6506   23.0356 C   0  0  0  0  0  0
  -26.4529  -31.6560   25.0710 C   0  0  0  0  0  0
  -25.3701  -31.3760   26.1397 C   0  0  0  0  0  0
  -27.0405  -30.2952   24.6320 C   0  0  0  0  0  0
  -27.6050  -32.4335   25.7501 C   0  0  0  0  0  0
  -27.5575  -37.1780   24.8464 C   0  0  0  0  0  0
  -21.4270  -29.3045   22.3598 N   0  0  0  0  0  0
  -26.4286  -37.3739   23.9408 N   0  0  0  0  0  0
  -24.7220  -31.0234   22.0896 N   0  0  0  0  0  0
  -23.4210  -28.8086   23.3019 O   0  0  0  0  0  0
  -28.2681  -26.1105   20.2472 O   0  0  0  0  0  0
  -26.5670  -34.8902   22.4635 O   0  0  0  0  0  0
  -23.5571  -32.1300   23.7050 O   0  0  0  0  0  0
  -27.0417  -19.3760   22.0989 C   0  0  0  0  0  0
  -27.9633  -18.3682   21.7443 C   0  0  0  0  0  0
  -27.4071  -20.5135   21.4557 C   0  0  0  0  0  0
  -28.8996  -18.8505   20.8653 C   0  0  0  0  0  0
  -30.8353  -23.9720   18.7644 C   0  0  0  0  0  0
  -28.8967  -23.2738   22.0758 C   0  0  0  0  0  0
  -29.9550  -17.7266   20.3078 C   0  0  0  0  0  0
  -30.4788  -23.7917   20.2519 C   0  0  0  0  0  0
  -29.0410  -21.6405   19.9649 C   0  0  0  0  0  0
  -28.0519  -24.5707   20.0028 C   0  0  0  0  0  0
  -29.0387  -23.2824   20.5388 C   0  0  1  0  0  0
  -28.5814  -20.3341   20.7352 N   0  0  0  0  0  0
  -29.7262  -16.1619   20.5416 N   0  0  0  0  0  0
  -31.4739  -12.7710   19.1930 H   0  0  0  0  0  0
  -30.4405  -11.6602   20.0447 H   0  0  0  0  0  0
  -29.8505  -11.7341   17.5959 H   0  0  0  0  0  0
  -29.6079  -13.4609   17.6905 H   0  0  0  0  0  0
  -27.9585  -11.2749   18.9898 H   0  0  0  0  0  0
  -27.3952  -12.4403   17.8209 H   0  0  0  0  0  0
  -27.5878  -14.2507   19.4044 H   0  0  0  0  0  0
  -28.7633  -12.3182   21.4615 H   0  0  0  0  0  0
  -28.3629  -13.9951   21.7524 H   0  0  0  0  0  0
  -25.2772   -9.5686   22.4762 H   0  0  0  0  0  0
  -24.0008   -7.4637   22.7474 H   0  0  0  0  0  0
  -21.0852   -8.8779   19.8952 H   0  0  0  0  0  0
  -22.3709  -10.9676   19.6165 H   0  0  0  0  0  0
  -21.2008   -7.6149   23.9717 H   0  0  0  0  0  0
  -21.1482   -6.0521   25.9076 H   0  0  0  0  0  0
  -22.0598   -2.7611   23.2842 H   0  0  0  0  0  0
  -22.4073  -11.9860   22.4832 H   0  0  0  0  0  0
  -21.1061  -13.1206   22.2644 H   0  0  0  0  0  0
  -24.6395  -15.8432   20.5295 H   0  0  0  0  0  0
  -26.2468  -15.6396   20.0586 H   0  0  0  0  0  0
  -26.7285  -32.5273   23.0979 H   0  0  0  0  0  0
  -25.0069  -33.9593   25.0293 H   0  0  0  0  0  0
  -22.7554  -31.2841   21.3729 H   0  0  0  0  0  0
  -23.3761  -35.9572   23.3287 H   0  0  0  0  0  0
  -24.3576  -36.8901   22.2061 H   0  0  0  0  0  0
  -23.7240  -37.6434   23.6696 H   0  0  0  0  0  0
  -26.1683  -31.4574   20.6151 H   0  0  0  0  0  0
  -26.8775  -30.7560   22.0333 H   0  0  0  0  0  0
  -28.1325  -28.7701   21.2484 H   0  0  0  0  0  0
  -25.9238  -25.8233   19.0002 H   0  0  0  0  0  0
  -23.9894  -27.2886   18.9733 H   0  0  0  0  0  0
  -23.8187  -30.5560   19.3943 H   0  0  0  0  0  0
  -22.7946  -29.2260   19.8405 H   0  0  0  0  0  0
  -25.1317  -36.1843   25.0804 H   0  0  0  0  0  0
  -21.0009  -28.3320   24.1354 H   0  0  0  0  0  0
  -20.5684  -26.2341   23.3628 H   0  0  0  0  0  0
  -21.6655  -26.7431   22.1203 H   0  0  0  0  0  0
  -19.6925  -25.6285   21.1262 H   0  0  0  0  0  0
  -19.6703  -27.3175   20.6732 H   0  0  0  0  0  0
  -17.4215  -26.6679   21.4026 H   0  0  0  0  0  0
  -18.0342  -26.0086   22.9027 H   0  0  0  0  0  0
  -19.7954  -30.7300   24.2227 H   0  0  0  0  0  0
  -17.5027  -31.6270   24.5167 H   0  0  0  0  0  0
  -15.5364  -30.2978   23.7680 H   0  0  0  0  0  0
  -15.8690  -28.0816   22.7085 H   0  0  0  0  0  0
  -24.5888  -30.7102   25.7713 H   0  0  0  0  0  0
  -24.8880  -32.2946   26.4753 H   0  0  0  0  0  0
  -25.7970  -30.8976   27.0220 H   0  0  0  0  0  0
  -26.3033  -29.6660   24.1318 H   0  0  0  0  0  0
  -27.3995  -29.7268   25.4911 H   0  0  0  0  0  0
  -27.8949  -30.4180   23.9661 H   0  0  0  0  0  0
  -27.2637  -33.3658   26.2012 H   0  0  0  0  0  0
  -28.3896  -32.6860   25.0356 H   0  0  0  0  0  0
  -28.0681  -31.8505   26.5472 H   0  0  0  0  0  0
  -28.2581  -38.0089   24.7515 H   0  0  0  0  0  0
  -28.1084  -36.2617   24.6287 H   0  0  0  0  0  0
  -27.2293  -37.1419   25.8866 H   0  0  0  0  0  0
  -20.9493  -29.8745   21.6759 H   0  0  0  0  0  0
  -26.0149  -38.2805   24.1411 H   0  0  0  0  0  0
  -26.1782  -19.2725   22.7425 H   0  0  0  0  0  0
  -27.9143  -17.3449   22.0904 H   0  0  0  0  0  0
  -26.9047  -21.4701   21.4519 H   0  0  0  0  0  0
  -31.8781  -24.2721   18.6584 H   0  0  0  0  0  0
  -30.2324  -24.7487   18.2939 H   0  0  0  0  0  0
  -30.7044  -23.0555   18.1901 H   0  0  0  0  0  0
  -29.5083  -22.4943   22.5315 H   0  0  0  0  0  0
  -27.8672  -23.1225   22.3942 H   0  0  0  0  0  0
  -29.2047  -24.2255   22.5102 H   0  0  0  0  0  0
  -30.9402  -17.9591   20.7136 H   0  0  0  0  0  0
  -30.0592  -17.8654   19.2313 H   0  0  0  0  0  0
  -30.6357  -24.7510   20.7482 H   0  0  0  0  0  0
  -31.2041  -23.1150   20.7070 H   0  0  0  0  0  0
  -30.0560  -21.3998   19.6503 H   0  0  0  0  0  0
  -28.4846  -21.6449   19.0271 H   0  0  0  0  0  0
  -27.0507  -24.3435   20.3697 H   0  0  0  0  0  0
  -27.9682  -24.4672   18.9208 H   0  0  0  0  0  0
  -28.7640  -15.9418   20.7437 H   0  0  0  0  0  0
  1 25  1  0  0  0
  1 30  2  0  0  0
  1 83  1  0  0  0
  2  3  1  0  0  0
  2 25  1  0  0  0
  2 84  1  0  0  0
  2 85  1  0  0  0
  3  4  1  0  0  0
  3 86  1  0  0  0
  3 87  1  0  0  0
  4  5  1  0  0  0
  4 88  1  0  0  0
  4 89  1  0  0  0
  5  6  1  0  0  0
  5 26  1  0  0  0
  5 90  1  0  0  0
  6 25  1  0  0  0
  6 91  1  0  0  0
  6 92  1  0  0  0
  7  8  2  0  0  0
  7 26  1  0  0  0
  7 29  1  0  0  0
  8  9  1  0  0  0
  8 22  1  0  0  0
  9 10  1  0  0  0
  9 27  2  0  0  0
 10 11  2  0  0  0
 10 15  1  0  0  0
 11 12  1  0  0  0
 11 93  1  0  0  0
 12 13  2  0  0  0
 12 94  1  0  0  0
 13 14  1  0  0  0
 13 31  1  0  0  0
 14 15  2  0  0  0
 14 95  1  0  0  0
 15 96  1  0  0  0
 16 17  2  0  0  0
 16 21  1  0  0  0
 16 31  1  0  0  0
 17 18  1  0  0  0
 17 97  1  0  0  0
 18 19  2  0  0  0
 18 98  1  0  0  0
 19 20  1  0  0  0
 19 24  1  0  0  0
 20 21  2  0  0  0
 20 99  1  0  0  0
 21 23  1  0  0  0
 22 28  1  0  0  0
 22 32  2  0  0  0
 26 27  1  0  0  0
 28100  1  0  0  0
 28101  1  0  0  0
 29102  1  0  0  0
 29103  1  0  0  0
 33 34  1  0  0  0
 33 66  1  0  0  0
 33 70  2  0  0  0
 34 36  1  0  0  0
 34 59  1  0  0  0
 34104  1  0  0  0
 35 44  2  0  0  0
 35 45  1  0  0  0
 35 68  1  0  0  0
 36 56  1  0  0  0
 36105  1  0  0  0
 37 39  1  0  0  0
 37 47  1  0  0  0
 37 66  1  0  0  0
 37106  1  0  0  0
 38 43  2  0  0  0
 38 46  1  0  0  0
 38 47  1  0  0  0
 39 64  1  0  0  0
 39 67  2  0  0  0
 40 52  1  0  0  0
 40 53  2  0  0  0
 40 58  1  0  0  0
 41107  1  0  0  0
 41108  1  0  0  0
 41109  1  0  0  0
 41 48  1  0  0  0
 42 43  1  0  0  0
 42 66  1  0  0  0
 42110  1  0  0  0
 42111  1  0  0  0
 43 44  1  0  0  0
 44112  1  0  0  0
 45 46  2  0  0  0
 45113  1  0  0  0
 46114  1  0  0  0
 47115  1  0  0  0
 47116  1  0  0  0
 48 56  1  0  0  0
 48 65  1  0  0  0
 48117  1  0  0  0
 49 50  1  0  0  0
 49 53  1  0  0  0
 49 64  1  0  0  0
 49118  1  0  0  0
 50 51  1  0  0  0
 50119  1  0  0  0
 50120  1  0  0  0
 51 52  1  0  0  0
 51121  1  0  0  0
 51122  1  0  0  0
 52123  1  0  0  0
 52124  1  0  0  0
 53 54  1  0  0  0
 54 55  2  0  0  0
 54125  1  0  0  0
 55 57  1  0  0  0
 55126  1  0  0  0
 56 69  2  0  0  0
 57 58  2  0  0  0
 57127  1  0  0  0
 58128  1  0  0  0
 59 60  1  0  0  0
 59 61  1  0  0  0
 59 62  1  0  0  0
 60129  1  0  0  0
 60130  1  0  0  0
 60131  1  0  0  0
 61132  1  0  0  0
 61133  1  0  0  0
 61134  1  0  0  0
 62135  1  0  0  0
 62136  1  0  0  0
 62137  1  0  0  0
 63 65  1  0  0  0
 63138  1  0  0  0
 63139  1  0  0  0
 63140  1  0  0  0
 64141  1  0  0  0
 65142  1  0  0  0
 68 80  1  0  0  0
 71 72  1  0  0  0
 71 73  2  0  0  0
 71143  1  0  0  0
 72 74  2  0  0  0
 72144  1  0  0  0
 73 82  1  0  0  0
 73145  1  0  0  0
 74 77  1  0  0  0
 74 82  1  0  0  0
 75 78  1  0  0  0
 75146  1  0  0  0
 75147  1  0  0  0
 75148  1  0  0  0
 76149  1  0  0  0
 76150  1  0  0  0
 76151  1  0  0  0
 76 81  1  0  0  0
 77 83  1  0  0  0
 77152  1  0  0  0
 77153  1  0  0  0
 78 81  1  0  0  0
 78154  1  0  0  0
 78155  1  0  0  0
 79 81  1  0  0  0
 79 82  1  0  0  0
 79156  1  0  0  0
 79157  1  0  0  0
 80 81  1  0  0  0
 80158  1  0  0  0
 80159  1  0  0  0
 83160  1  0  0  0
M  ISO  4   1 100  68 101  80 101  83 100
M  END
> <chiral flag>
0

> <version>
0

> <s_m_source_file>
/data/baiqing/PycharmProjects/Reinvent-master-3.2/result/LINK_invent/BTK/process_docking_weight1_custom_sum_contain_oxygen_bond_distance_aromatic_linkinvent_7_9_3/rearranged_h_0116.sdf

> <i_m_source_file_index>
13

> <r_mmod_Potential_Energy-OPLS-2005>
641.404907226562

> <r_mmod_Stretch_Energy-OPLS-2005>
330.527893066406

> <r_mmod_Bend_Energy-OPLS-2005>
337.057098388672

> <r_mmod_Torsional_Energy-OPLS-2005>
230.834701538086

> <r_mmod_Improper_Torsional_Energy-OPLS-2005>
5.47528600692749

> <r_mmod_Van_der_Waal_Energy-OPLS-2005>
112.715255737305

> <r_mmod_Electrostatic_Energy-OPLS-2005>
-388.432403564453

> <r_mmod_Solvation_Energy-OPLS-2005>
-205.821075439453

> <b_mmod_Minimization_Converged-OPLS-2005>
0

> <r_mmod_RMS_Derivative-OPLS-2005>
0.321823298931122

$$$$
13
                    3D
 Structure written by MMmdl.
169177  0  0  1  0            999 V2000
  -30.6646  -14.5395   20.5858 C   0  0  0  0  0  0
  -30.4332  -12.3617   19.4270 C   0  0  0  0  0  0
  -29.4997  -12.5349   18.2086 C   0  0  0  0  0  0
  -28.0175  -12.3895   18.6142 C   0  0  0  0  0  0
  -27.6621  -13.2070   19.8862 C   0  0  2  0  0  0
  -28.7069  -12.9431   20.9905 C   0  0  0  0  0  0
  -25.2593  -13.8154   20.5693 C   0  0  0  0  0  0
  -24.1843  -13.0430   20.9183 C   0  0  0  0  0  0
  -24.6396  -11.6896   20.8742 C   0  0  0  0  0  0
  -23.9061  -10.4284   21.0414 C   0  0  0  0  0  0
  -24.3614   -9.4199   21.9186 C   0  0  0  0  0  0
  -23.6289   -8.2237   22.0757 C   0  0  0  0  0  0
  -22.4268   -8.0279   21.3546 C   0  0  0  0  0  0
  -21.9904   -9.0257   20.4650 C   0  0  0  0  0  0
  -22.7238  -10.2135   20.3057 C   0  0  0  0  0  0
  -21.6851   -6.0734   22.5276 C   0  0  0  0  0  0
  -21.4019   -6.5642   23.8211 C   0  0  0  0  0  0
  -21.3654   -5.6795   24.9174 C   0  0  0  0  0  0
  -21.6047   -4.3055   24.7226 C   0  0  0  0  0  0
  -21.8817   -3.8144   23.4344 C   0  0  0  0  0  0
  -21.9196   -4.6963   22.3399 C   0  0  0  0  0  0
  -22.7868  -13.5235   21.1840 C   0  0  0  0  0  0
  -22.1663   -4.2151   21.0975 F   0  0  0  0  0  0
  -21.5629   -3.4534   25.7736 F   0  0  0  0  0  0
  -30.0157  -13.3396   20.4533 N   0  0  0  0  0  0
  -26.3031  -12.9315   20.3413 N   0  0  0  0  0  0
  -25.9323  -11.6473   20.5776 N   0  0  0  0  0  0
  -22.0498  -12.8235   22.0396 N   0  0  0  0  0  0
  -25.4331  -15.1867   20.4069 N   0  0  0  0  0  0
  -31.7843  -14.7038   20.0919 O   0  0  0  0  0  0
  -21.6637   -6.8875   21.4234 O   0  0  0  0  0  0
  -22.3561  -14.5543   20.6687 O   0  0  0  0  0  0
  -24.6169  -31.8655   23.2061 C   0  0  0  0  0  0
  -25.9050  -32.4808   23.8369 C   0  0  1  0  0  0
  -27.2272  -27.3921   20.1176 C   0  0  0  0  0  0
  -25.5890  -33.8605   24.2301 N   0  0  0  0  0  0
  -23.4085  -30.4874   21.5465 C   0  0  2  0  0  0
  -24.8549  -28.9438   20.1201 C   0  0  0  0  0  0
  -22.7427  -29.4644   22.4961 C   0  0  0  0  0  0
  -18.0288  -28.1391   22.8488 C   0  0  0  0  0  0
  -24.1491  -36.7305   23.2643 C   0  0  0  0  0  0
  -25.9393  -30.8173   21.3655 C   0  0  0  0  0  0
  -26.0160  -29.4459   20.7226 C   0  0  0  0  0  0
  -27.2070  -28.6779   20.7184 C   0  0  0  0  0  0
  -26.0561  -26.9224   19.4918 C   0  0  0  0  0  0
  -24.8703  -27.6812   19.5021 C   0  0  0  0  0  0
  -23.6204  -29.8172   20.1630 C   0  0  0  0  0  0
  -25.4113  -36.3098   24.0341 C   0  0  1  0  0  0
  -20.5886  -28.3666   23.1310 C   0  0  2  0  0  0
  -20.6780  -26.9397   22.5418 C   0  0  0  0  0  0
  -19.5763  -26.6395   21.5210 C   0  0  0  0  0  0
  -18.1942  -26.7938   22.1621 C   0  0  0  0  0  0
  -19.1545  -28.8843   23.2902 C   0  0  0  0  0  0
  -18.9474  -30.1456   23.8897 C   0  0  0  0  0  0
  -17.6480  -30.6589   24.0566 C   0  0  0  0  0  0
  -25.9035  -34.9468   23.5116 C   0  0  0  0  0  0
  -16.5364  -29.9098   23.6332 C   0  0  0  0  0  0
  -16.7282  -28.6527   23.0328 C   0  0  0  0  0  0
  -26.4463  -31.6589   25.0705 C   0  0  0  0  0  0
  -25.3723  -31.3726   26.1453 C   0  0  0  0  0  0
  -27.0300  -30.3031   24.6082 C   0  0  0  0  0  0
  -27.6041  -32.4303   25.7468 C   0  0  0  0  0  0
  -27.5580  -37.1810   24.8474 C   0  0  0  0  0  0
  -21.4148  -29.3028   22.3697 N   0  0  0  0  0  0
  -26.4297  -37.3782   23.9412 N   0  0  0  0  0  0
  -24.6733  -31.0726   22.0972 N   0  0  0  0  0  0
  -23.4180  -28.8180   23.3009 O   0  0  0  0  0  0
  -28.3819  -26.6336   20.0379 O   0  0  0  0  0  0
  -26.5601  -34.8936   22.4680 O   0  0  0  0  0  0
  -23.5355  -32.1423   23.7438 O   0  0  0  0  0  0
  -29.8239  -17.0406   18.9366 C   0  0  0  0  0  0
  -29.1603  -17.2858   22.5801 C   0  0  0  0  0  0
  -29.2563  -15.7846   22.2761 C   0  0  0  0  0  0
  -30.1923  -17.0158   20.4357 C   0  0  1  0  0  0
  -29.2291  -17.9705   21.2216 C   0  0  2  0  0  0
  -28.6626  -26.1891   22.4234 C   0  0  0  0  0  0
  -30.3328  -17.9275   16.6909 C   0  0  0  0  0  0
  -28.3176  -23.0219   20.1878 C   0  0  0  0  0  0
  -28.9175  -21.8777   21.0771 C   0  0  0  0  0  0
  -27.7577  -24.2824   20.9382 C   0  0  0  0  0  0
  -28.9451  -20.4350   20.4509 C   0  0  0  0  0  0
  -28.6339  -25.5837   21.0099 C   0  0  1  0  0  0
  -29.9613  -15.6478   20.9929 N   0  0  0  0  0  0
  -30.5842  -17.7759   18.1189 N   0  0  0  0  0  0
  -29.6086  -19.4244   21.3365 N   0  3  0  0  0  0
  -28.8453  -16.4111   18.5296 O   0  0  0  0  0  0
  -31.4734  -12.4863   19.1213 H   0  0  0  0  0  0
  -30.3697  -11.3448   19.8167 H   0  0  0  0  0  0
  -29.7500  -11.8114   17.4312 H   0  0  0  0  0  0
  -29.6590  -13.5209   17.7684 H   0  0  0  0  0  0
  -27.8236  -11.3308   18.7896 H   0  0  0  0  0  0
  -27.3703  -12.6833   17.7869 H   0  0  0  0  0  0
  -27.7109  -14.2624   19.6204 H   0  0  0  0  0  0
  -28.7163  -11.8788   21.2296 H   0  0  0  0  0  0
  -28.4556  -13.4024   21.9386 H   0  0  0  0  0  0
  -25.2759   -9.5679   22.4763 H   0  0  0  0  0  0
  -24.0001   -7.4626   22.7473 H   0  0  0  0  0  0
  -21.0836   -8.8770   19.8957 H   0  0  0  0  0  0
  -22.3689  -10.9675   19.6170 H   0  0  0  0  0  0
  -21.2005   -7.6150   23.9716 H   0  0  0  0  0  0
  -21.1484   -6.0523   25.9080 H   0  0  0  0  0  0
  -22.0601   -2.7607   23.2841 H   0  0  0  0  0  0
  -22.4107  -11.9892   22.4778 H   0  0  0  0  0  0
  -21.1122  -13.1278   22.2596 H   0  0  0  0  0  0
  -24.6586  -15.8367   20.4842 H   0  0  0  0  0  0
  -26.2721  -15.6072   20.0260 H   0  0  0  0  0  0
  -26.7103  -32.5499   23.1120 H   0  0  0  0  0  0
  -25.0059  -33.9758   25.0457 H   0  0  0  0  0  0
  -22.6991  -31.3046   21.4006 H   0  0  0  0  0  0
  -23.3752  -35.9638   23.3319 H   0  0  0  0  0  0
  -24.3594  -36.8899   22.2059 H   0  0  0  0  0  0
  -23.7254  -37.6517   23.6643 H   0  0  0  0  0  0
  -26.0545  -31.5752   20.5898 H   0  0  0  0  0  0
  -26.8271  -30.8744   21.9842 H   0  0  0  0  0  0
  -28.1095  -29.0633   21.1721 H   0  0  0  0  0  0
  -26.0626  -25.9682   18.9851 H   0  0  0  0  0  0
  -23.9805  -27.2942   19.0235 H   0  0  0  0  0  0
  -23.7359  -30.5884   19.4007 H   0  0  0  0  0  0
  -22.7422  -29.2414   19.8649 H   0  0  0  0  0  0
  -25.1290  -36.1947   25.0828 H   0  0  0  0  0  0
  -20.9985  -28.3227   24.1432 H   0  0  0  0  0  0
  -20.5697  -26.2260   23.3601 H   0  0  0  0  0  0
  -21.6651  -26.7451   22.1201 H   0  0  0  0  0  0
  -19.6931  -25.6314   21.1231 H   0  0  0  0  0  0
  -19.6716  -27.3216   20.6752 H   0  0  0  0  0  0
  -17.4216  -26.6687   21.4020 H   0  0  0  0  0  0
  -18.0332  -26.0088   22.9026 H   0  0  0  0  0  0
  -19.7952  -30.7282   24.2242 H   0  0  0  0  0  0
  -17.5042  -31.6265   24.5183 H   0  0  0  0  0  0
  -15.5370  -30.3004   23.7672 H   0  0  0  0  0  0
  -15.8681  -28.0870   22.7006 H   0  0  0  0  0  0
  -24.5884  -30.7077   25.7795 H   0  0  0  0  0  0
  -24.8939  -32.2903   26.4881 H   0  0  0  0  0  0
  -25.8074  -30.8908   27.0218 H   0  0  0  0  0  0
  -26.2856  -29.6797   24.1116 H   0  0  0  0  0  0
  -27.4068  -29.7247   25.4521 H   0  0  0  0  0  0
  -27.8668  -30.4351   23.9229 H   0  0  0  0  0  0
  -27.2646  -33.3595   26.2060 H   0  0  0  0  0  0
  -28.3844  -32.6870   25.0287 H   0  0  0  0  0  0
  -28.0698  -31.8411   26.5381 H   0  0  0  0  0  0
  -28.2599  -38.0099   24.7491 H   0  0  0  0  0  0
  -28.1071  -36.2632   24.6323 H   0  0  0  0  0  0
  -27.2303  -37.1475   25.8877 H   0  0  0  0  0  0
  -20.9318  -29.8765   21.6922 H   0  0  0  0  0  0
  -26.0191  -38.2857   24.1408 H   0  0  0  0  0  0
  -30.0147  -17.5760   23.1927 H   0  0  0  0  0  0
  -28.2570  -17.5390   23.1376 H   0  0  0  0  0  0
  -28.2313  -15.4325   22.1677 H   0  0  0  0  0  0
  -29.7341  -15.2286   23.0853 H   0  0  0  0  0  0
  -31.2364  -17.2926   20.5876 H   0  0  0  0  0  0
  -28.2246  -17.9087   20.7974 H   0  0  0  0  0  0
  -29.0396  -25.4697   23.1514 H   0  0  0  0  0  0
  -27.6698  -26.5021   22.7482 H   0  0  0  0  0  0
  -29.3182  -27.0595   22.4613 H   0  0  0  0  0  0
  -30.9675  -18.7111   16.2748 H   0  0  0  0  0  0
  -29.2946  -18.2020   16.4957 H   0  0  0  0  0  0
  -30.5459  -16.9995   16.1589 H   0  0  0  0  0  0
  -27.4839  -22.5879   19.6340 H   0  0  0  0  0  0
  -29.0354  -23.3254   19.4232 H   0  0  0  0  0  0
  -28.3404  -21.8174   22.0008 H   0  0  0  0  0  0
  -29.9244  -22.1715   21.3771 H   0  0  0  0  0  0
  -27.5098  -23.9737   21.9548 H   0  0  0  0  0  0
  -26.7882  -24.5338   20.5154 H   0  0  0  0  0  0
  -29.4529  -20.4435   19.4861 H   0  0  0  0  0  0
  -27.9175  -20.1254   20.2544 H   0  0  0  0  0  0
  -29.6585  -25.2686   20.8088 H   0  0  0  0  0  0
  -31.4015  -18.2388   18.4963 H   0  0  0  0  0  0
  -30.6094  -19.5356   21.2955 H   0  0  0  0  0  0
  -29.3385  -19.6900   22.2697 H   0  0  0  0  0  0
  1 25  1  0  0  0
  1 30  2  0  0  0
  1 83  1  0  0  0
  2  3  1  0  0  0
  2 25  1  0  0  0
  2 87  1  0  0  0
  2 88  1  0  0  0
  3  4  1  0  0  0
  3 89  1  0  0  0
  3 90  1  0  0  0
  4  5  1  0  0  0
  4 91  1  0  0  0
  4 92  1  0  0  0
  5  6  1  0  0  0
  5 26  1  0  0  0
  5 93  1  0  0  0
  6 25  1  0  0  0
  6 94  1  0  0  0
  6 95  1  0  0  0
  7  8  2  0  0  0
  7 26  1  0  0  0
  7 29  1  0  0  0
  8  9  1  0  0  0
  8 22  1  0  0  0
  9 10  1  0  0  0
  9 27  2  0  0  0
 10 11  2  0  0  0
 10 15  1  0  0  0
 11 12  1  0  0  0
 11 96  1  0  0  0
 12 13  2  0  0  0
 12 97  1  0  0  0
 13 14  1  0  0  0
 13 31  1  0  0  0
 14 15  2  0  0  0
 14 98  1  0  0  0
 15 99  1  0  0  0
 16 17  2  0  0  0
 16 21  1  0  0  0
 16 31  1  0  0  0
 17 18  1  0  0  0
 17100  1  0  0  0
 18 19  2  0  0  0
 18101  1  0  0  0
 19 20  1  0  0  0
 19 24  1  0  0  0
 20 21  2  0  0  0
 20102  1  0  0  0
 21 23  1  0  0  0
 22 28  1  0  0  0
 22 32  2  0  0  0
 26 27  1  0  0  0
 28103  1  0  0  0
 28104  1  0  0  0
 29105  1  0  0  0
 29106  1  0  0  0
 33 34  1  0  0  0
 33 66  1  0  0  0
 33 70  2  0  0  0
 34 36  1  0  0  0
 34 59  1  0  0  0
 34107  1  0  0  0
 35 44  2  0  0  0
 35 45  1  0  0  0
 35 68  1  0  0  0
 36 56  1  0  0  0
 36108  1  0  0  0
 37 39  1  0  0  0
 37 47  1  0  0  0
 37 66  1  0  0  0
 37109  1  0  0  0
 38 43  2  0  0  0
 38 46  1  0  0  0
 38 47  1  0  0  0
 39 64  1  0  0  0
 39 67  2  0  0  0
 40 52  1  0  0  0
 40 53  2  0  0  0
 40 58  1  0  0  0
 41110  1  0  0  0
 41111  1  0  0  0
 41112  1  0  0  0
 41 48  1  0  0  0
 42 43  1  0  0  0
 42 66  1  0  0  0
 42113  1  0  0  0
 42114  1  0  0  0
 43 44  1  0  0  0
 44115  1  0  0  0
 45 46  2  0  0  0
 45116  1  0  0  0
 46117  1  0  0  0
 47118  1  0  0  0
 47119  1  0  0  0
 48 56  1  0  0  0
 48 65  1  0  0  0
 48120  1  0  0  0
 49 50  1  0  0  0
 49 53  1  0  0  0
 49 64  1  0  0  0
 49121  1  0  0  0
 50 51  1  0  0  0
 50122  1  0  0  0
 50123  1  0  0  0
 51 52  1  0  0  0
 51124  1  0  0  0
 51125  1  0  0  0
 52126  1  0  0  0
 52127  1  0  0  0
 53 54  1  0  0  0
 54 55  2  0  0  0
 54128  1  0  0  0
 55 57  1  0  0  0
 55129  1  0  0  0
 56 69  2  0  0  0
 57 58  2  0  0  0
 57130  1  0  0  0
 58131  1  0  0  0
 59 60  1  0  0  0
 59 61  1  0  0  0
 59 62  1  0  0  0
 60132  1  0  0  0
 60133  1  0  0  0
 60134  1  0  0  0
 61135  1  0  0  0
 61136  1  0  0  0
 61137  1  0  0  0
 62138  1  0  0  0
 62139  1  0  0  0
 62140  1  0  0  0
 63 65  1  0  0  0
 63141  1  0  0  0
 63142  1  0  0  0
 63143  1  0  0  0
 64144  1  0  0  0
 65145  1  0  0  0
 68 82  1  0  0  0
 71 84  1  0  0  0
 71 86  2  0  0  0
 71 74  1  0  0  0
 72 73  1  0  0  0
 72 75  1  0  0  0
 72146  1  0  0  0
 72147  1  0  0  0
 73 83  1  0  0  0
 73148  1  0  0  0
 73149  1  0  0  0
 74 75  1  0  0  0
 74 83  1  0  0  0
 74150  1  0  0  0
 75 85  1  0  0  0
 75151  1  0  0  0
 76152  1  0  0  0
 76153  1  0  0  0
 76154  1  0  0  0
 76 82  1  0  0  0
 77 84  1  0  0  0
 77155  1  0  0  0
 77156  1  0  0  0
 77157  1  0  0  0
 78 79  1  0  0  0
 78 80  1  0  0  0
 78158  1  0  0  0
 78159  1  0  0  0
 79 81  1  0  0  0
 79160  1  0  0  0
 79161  1  0  0  0
 80 82  1  0  0  0
 80162  1  0  0  0
 80163  1  0  0  0
 81 85  1  0  0  0
 81164  1  0  0  0
 81165  1  0  0  0
 82166  1  0  0  0
 84167  1  0  0  0
 85168  1  0  0  0
 85169  1  0  0  0
M  CHG  1  85   1
M  ISO  4   1 100  68 101  82 101  83 100
M  END
> <chiral flag>
0

> <version>
0

> <s_m_source_file>
/data/baiqing/PycharmProjects/Reinvent-master-3.2/result/LINK_invent/BTK/process_docking_weight1_custom_sum_contain_oxygen_bond_distance_aromatic_linkinvent_7_9_3/rearranged_h_0116.sdf

> <i_m_source_file_index>
14

> <r_mmod_Potential_Energy-OPLS-2005>
-163.345550537109

> <r_mmod_Stretch_Energy-OPLS-2005>
54.9543724060059

> <r_mmod_Bend_Energy-OPLS-2005>
156.508499145508

> <r_mmod_Torsional_Energy-OPLS-2005>
306.486907958984

> <r_mmod_Improper_Torsional_Energy-OPLS-2005>
9.149094581604

> <r_mmod_Van_der_Waal_Energy-OPLS-2005>
119.338768005371

> <r_mmod_Electrostatic_Energy-OPLS-2005>
-341.995819091797

> <r_mmod_Solvation_Energy-OPLS-2005>
-486.445556640625

> <b_mmod_Minimization_Converged-OPLS-2005>
0

> <r_mmod_RMS_Derivative-OPLS-2005>
2.03284978866577

$$$$
14
                    3D
 Structure written by MMmdl.
167176  0  0  1  0            999 V2000
  -30.6915  -14.5451   20.5422 C   0  0  0  0  0  0
  -30.4212  -12.3353   19.4551 C   0  0  0  0  0  0
  -29.4986  -12.4962   18.2269 C   0  0  0  0  0  0
  -28.0219  -12.3545   18.6387 C   0  0  0  0  0  0
  -27.6584  -13.2172   19.8771 C   0  0  2  0  0  0
  -28.7008  -13.0457   21.0072 C   0  0  0  0  0  0
  -25.2541  -13.8177   20.5688 C   0  0  0  0  0  0
  -24.1813  -13.0430   20.9183 C   0  0  0  0  0  0
  -24.6396  -11.6908   20.8753 C   0  0  0  0  0  0
  -23.9054  -10.4290   21.0409 C   0  0  0  0  0  0
  -24.3603   -9.4204   21.9172 C   0  0  0  0  0  0
  -23.6293   -8.2232   22.0742 C   0  0  0  0  0  0
  -22.4250   -8.0279   21.3543 C   0  0  0  0  0  0
  -21.9900   -9.0250   20.4629 C   0  0  0  0  0  0
  -22.7233  -10.2140   20.3046 C   0  0  0  0  0  0
  -21.6855   -6.0719   22.5275 C   0  0  0  0  0  0
  -21.4019   -6.5631   23.8199 C   0  0  0  0  0  0
  -21.3661   -5.6797   24.9158 C   0  0  0  0  0  0
  -21.6047   -4.3060   24.7229 C   0  0  0  0  0  0
  -21.8817   -3.8135   23.4352 C   0  0  0  0  0  0
  -21.9188   -4.6947   22.3396 C   0  0  0  0  0  0
  -22.7832  -13.5212   21.1859 C   0  0  0  0  0  0
  -22.1653   -4.2140   21.0983 F   0  0  0  0  0  0
  -21.5636   -3.4539   25.7740 F   0  0  0  0  0  0
  -30.0289  -13.3519   20.4512 N   0  0  0  0  0  0
  -26.3000  -12.9370   20.3381 N   0  0  0  0  0  0
  -25.9322  -11.6519   20.5799 N   0  0  0  0  0  0
  -22.0491  -12.8200   22.0425 N   0  0  0  0  0  0
  -25.4293  -15.1885   20.4089 N   0  0  0  0  0  0
  -31.8267  -14.6939   20.0807 O   0  0  0  0  0  0
  -21.6643   -6.8857   21.4232 O   0  0  0  0  0  0
  -22.3514  -14.5526   20.6728 O   0  0  0  0  0  0
  -24.6221  -31.8662   23.2099 C   0  0  0  0  0  0
  -25.9102  -32.4815   23.8387 C   0  0  1  0  0  0
  -27.2155  -27.3618   20.0974 C   0  0  0  0  0  0
  -25.5939  -33.8605   24.2341 N   0  0  0  0  0  0
  -23.4121  -30.4996   21.5519 C   0  0  2  0  0  0
  -24.8591  -28.9727   20.1144 C   0  0  0  0  0  0
  -22.7456  -29.4665   22.4950 C   0  0  0  0  0  0
  -18.0272  -28.1375   22.8486 C   0  0  0  0  0  0
  -24.1510  -36.7292   23.2624 C   0  0  0  0  0  0
  -25.9538  -30.8152   21.3777 C   0  0  0  0  0  0
  -26.0323  -29.4486   20.7139 C   0  0  0  0  0  0
  -27.2157  -28.6551   20.6998 C   0  0  0  0  0  0
  -26.0137  -26.9497   19.4671 C   0  0  0  0  0  0
  -24.8496  -27.7269   19.4856 C   0  0  0  0  0  0
  -23.6249  -29.8422   20.1664 C   0  0  0  0  0  0
  -25.4124  -36.3096   24.0344 C   0  0  1  0  0  0
  -20.5887  -28.3673   23.1299 C   0  0  2  0  0  0
  -20.6782  -26.9404   22.5413 C   0  0  0  0  0  0
  -19.5757  -26.6383   21.5219 C   0  0  0  0  0  0
  -18.1928  -26.7916   22.1628 C   0  0  0  0  0  0
  -19.1527  -28.8835   23.2897 C   0  0  0  0  0  0
  -18.9450  -30.1442   23.8898 C   0  0  0  0  0  0
  -17.6457  -30.6580   24.0549 C   0  0  0  0  0  0
  -25.9045  -34.9466   23.5132 C   0  0  0  0  0  0
  -16.5343  -29.9083   23.6333 C   0  0  0  0  0  0
  -16.7254  -28.6501   23.0343 C   0  0  0  0  0  0
  -26.4506  -31.6580   25.0719 C   0  0  0  0  0  0
  -25.3734  -31.3751   26.1448 C   0  0  0  0  0  0
  -27.0302  -30.2988   24.6142 C   0  0  0  0  0  0
  -27.6104  -32.4265   25.7452 C   0  0  0  0  0  0
  -27.5606  -37.1790   24.8442 C   0  0  0  0  0  0
  -21.4172  -29.3053   22.3704 N   0  0  0  0  0  0
  -26.4297  -37.3807   23.9410 N   0  0  0  0  0  0
  -24.6815  -31.0743   22.1026 N   0  0  0  0  0  0
  -23.4233  -28.8130   23.2929 O   0  0  0  0  0  0
  -28.3190  -26.4970   20.1584 O   0  0  0  0  0  0
  -26.5588  -34.8912   22.4683 O   0  0  0  0  0  0
  -23.5404  -32.1408   23.7484 O   0  0  0  0  0  0
  -30.9022  -22.8985   20.0880 C   0  0  0  0  0  0
  -30.3015  -24.0927   19.7652 C   0  0  0  0  0  0
  -28.8946  -22.9151   21.0312 C   0  0  0  0  0  0
  -30.0109  -22.1186   20.8916 C   0  0  0  0  0  0
  -31.6563  -20.1715   21.5087 C   0  0  0  0  0  0
  -31.4932  -18.7337   22.0560 C   0  0  0  0  0  0
  -29.4660  -19.5016   20.9894 C   0  0  0  0  0  0
  -30.2381  -20.7312   21.5381 C   0  0  2  0  0  0
  -30.0779  -18.2019   21.6593 C   0  0  1  0  0  0
  -29.9929  -16.7831   23.8793 C   0  0  0  0  0  0
  -28.6661  -18.8812   23.7953 C   0  0  0  0  0  0
  -30.1883  -17.0385   20.5743 C   0  0  0  0  0  0
  -27.9653  -25.1044   20.1317 C   0  0  0  0  0  0
  -29.2428  -17.7423   22.9212 C   0  0  0  0  0  0
  -29.0457  -24.1189   20.3376 N   0  0  0  0  0  0
  -29.9763  -15.6142   20.9720 N   0  0  0  0  0  0
  -31.4654  -12.4242   19.1566 H   0  0  0  0  0  0
  -30.3185  -11.3344   19.8791 H   0  0  0  0  0  0
  -29.7414  -11.7465   17.4738 H   0  0  0  0  0  0
  -29.6621  -13.4683   17.7596 H   0  0  0  0  0  0
  -27.8412  -11.3001   18.8603 H   0  0  0  0  0  0
  -27.3655  -12.6003   17.8027 H   0  0  0  0  0  0
  -27.6892  -14.2581   19.5545 H   0  0  0  0  0  0
  -28.6835  -12.0231   21.3880 H   0  0  0  0  0  0
  -28.4592  -13.6811   21.8594 H   0  0  0  0  0  0
  -25.2731   -9.5693   22.4747 H   0  0  0  0  0  0
  -23.9998   -7.4628   22.7467 H   0  0  0  0  0  0
  -21.0818   -8.8756   19.8945 H   0  0  0  0  0  0
  -22.3660  -10.9666   19.6166 H   0  0  0  0  0  0
  -21.2014   -7.6142   23.9706 H   0  0  0  0  0  0
  -21.1489   -6.0520   25.9071 H   0  0  0  0  0  0
  -22.0599   -2.7605   23.2852 H   0  0  0  0  0  0
  -22.4127  -11.9838   22.4751 H   0  0  0  0  0  0
  -21.1122  -13.1227   22.2675 H   0  0  0  0  0  0
  -24.6663  -15.8484   20.5120 H   0  0  0  0  0  0
  -26.2833  -15.6232   20.0843 H   0  0  0  0  0  0
  -26.7122  -32.5554   23.1104 H   0  0  0  0  0  0
  -25.0129  -33.9744   25.0505 H   0  0  0  0  0  0
  -22.7046  -31.3214   21.4169 H   0  0  0  0  0  0
  -23.3807  -35.9593   23.3250 H   0  0  0  0  0  0
  -24.3607  -36.8935   22.2041 H   0  0  0  0  0  0
  -23.7231  -37.6474   23.6646 H   0  0  0  0  0  0
  -26.0819  -31.5876   20.6185 H   0  0  0  0  0  0
  -26.8339  -30.8650   22.0062 H   0  0  0  0  0  0
  -28.1132  -29.0087   21.1849 H   0  0  0  0  0  0
  -25.9176  -26.0098   18.9488 H   0  0  0  0  0  0
  -23.9474  -27.3665   19.0117 H   0  0  0  0  0  0
  -23.7371  -30.6202   19.4118 H   0  0  0  0  0  0
  -22.7489  -29.2658   19.8640 H   0  0  0  0  0  0
  -25.1311  -36.1957   25.0843 H   0  0  0  0  0  0
  -20.9961  -28.3232   24.1434 H   0  0  0  0  0  0
  -20.5712  -26.2255   23.3600 H   0  0  0  0  0  0
  -21.6644  -26.7455   22.1190 H   0  0  0  0  0  0
  -19.6921  -25.6302   21.1225 H   0  0  0  0  0  0
  -19.6696  -27.3223   20.6780 H   0  0  0  0  0  0
  -17.4208  -26.6667   21.4023 H   0  0  0  0  0  0
  -18.0320  -26.0048   22.9010 H   0  0  0  0  0  0
  -19.7929  -30.7255   24.2285 H   0  0  0  0  0  0
  -17.5005  -31.6262   24.5151 H   0  0  0  0  0  0
  -15.5344  -30.2978   23.7652 H   0  0  0  0  0  0
  -15.8658  -28.0810   22.7068 H   0  0  0  0  0  0
  -24.5876  -30.7148   25.7763 H   0  0  0  0  0  0
  -24.8965  -32.2947   26.4858 H   0  0  0  0  0  0
  -25.8031  -30.8896   27.0220 H   0  0  0  0  0  0
  -26.2854  -29.6751   24.1184 H   0  0  0  0  0  0
  -27.4010  -29.7242   25.4642 H   0  0  0  0  0  0
  -27.8731  -30.4247   23.9340 H   0  0  0  0  0  0
  -27.2776  -33.3588   26.2029 H   0  0  0  0  0  0
  -28.3910  -32.6776   25.0252 H   0  0  0  0  0  0
  -28.0767  -31.8361   26.5353 H   0  0  0  0  0  0
  -28.2589  -38.0123   24.7579 H   0  0  0  0  0  0
  -28.1140  -36.2671   24.6171 H   0  0  0  0  0  0
  -27.2308  -37.1306   25.8831 H   0  0  0  0  0  0
  -20.9333  -29.8772   21.6922 H   0  0  0  0  0  0
  -26.0192  -38.2872   24.1479 H   0  0  0  0  0  0
  -31.8956  -22.6078   19.7662 H   0  0  0  0  0  0
  -30.6351  -24.9184   19.1499 H   0  0  0  0  0  0
  -27.9695  -22.7090   21.5536 H   0  0  0  0  0  0
  -32.0256  -20.1363   20.4849 H   0  0  0  0  0  0
  -32.3577  -20.7674   22.0915 H   0  0  0  0  0  0
  -31.5978  -18.7916   23.1382 H   0  0  0  0  0  0
  -32.3032  -18.0863   21.7202 H   0  0  0  0  0  0
  -29.6300  -19.4712   19.9127 H   0  0  0  0  0  0
  -28.3877  -19.5836   21.1145 H   0  0  0  0  0  0
  -29.9744  -20.8769   22.5838 H   0  0  0  0  0  0
  -30.5792  -16.0235   23.3686 H   0  0  0  0  0  0
  -29.2858  -16.2627   24.5275 H   0  0  0  0  0  0
  -30.6815  -17.3185   24.5316 H   0  0  0  0  0  0
  -27.9704  -19.5228   23.2574 H   0  0  0  0  0  0
  -29.4518  -19.5085   24.2173 H   0  0  0  0  0  0
  -28.1073  -18.4769   24.6393 H   0  0  0  0  0  0
  -31.1245  -17.1436   20.0207 H   0  0  0  0  0  0
  -29.4190  -17.2059   19.8215 H   0  0  0  0  0  0
  -27.2131  -24.9190   20.9031 H   0  0  0  0  0  0
  -27.5536  -24.8350   19.1594 H   0  0  0  0  0  0
  -28.3748  -17.2003   22.5390 H   0  0  0  0  0  0
  -29.0768  -15.3989   21.3769 H   0  0  0  0  0  0
  1 25  1  0  0  0
  1 30  2  0  0  0
  1 86  1  0  0  0
  2  3  1  0  0  0
  2 25  1  0  0  0
  2 87  1  0  0  0
  2 88  1  0  0  0
  3  4  1  0  0  0
  3 89  1  0  0  0
  3 90  1  0  0  0
  4  5  1  0  0  0
  4 91  1  0  0  0
  4 92  1  0  0  0
  5  6  1  0  0  0
  5 26  1  0  0  0
  5 93  1  0  0  0
  6 25  1  0  0  0
  6 94  1  0  0  0
  6 95  1  0  0  0
  7  8  2  0  0  0
  7 26  1  0  0  0
  7 29  1  0  0  0
  8  9  1  0  0  0
  8 22  1  0  0  0
  9 10  1  0  0  0
  9 27  2  0  0  0
 10 11  2  0  0  0
 10 15  1  0  0  0
 11 12  1  0  0  0
 11 96  1  0  0  0
 12 13  2  0  0  0
 12 97  1  0  0  0
 13 14  1  0  0  0
 13 31  1  0  0  0
 14 15  2  0  0  0
 14 98  1  0  0  0
 15 99  1  0  0  0
 16 17  2  0  0  0
 16 21  1  0  0  0
 16 31  1  0  0  0
 17 18  1  0  0  0
 17100  1  0  0  0
 18 19  2  0  0  0
 18101  1  0  0  0
 19 20  1  0  0  0
 19 24  1  0  0  0
 20 21  2  0  0  0
 20102  1  0  0  0
 21 23  1  0  0  0
 22 28  1  0  0  0
 22 32  2  0  0  0
 26 27  1  0  0  0
 28103  1  0  0  0
 28104  1  0  0  0
 29105  1  0  0  0
 29106  1  0  0  0
 33 34  1  0  0  0
 33 66  1  0  0  0
 33 70  2  0  0  0
 34 36  1  0  0  0
 34 59  1  0  0  0
 34107  1  0  0  0
 35 44  2  0  0  0
 35 45  1  0  0  0
 35 68  1  0  0  0
 36 56  1  0  0  0
 36108  1  0  0  0
 37 39  1  0  0  0
 37 47  1  0  0  0
 37 66  1  0  0  0
 37109  1  0  0  0
 38 43  2  0  0  0
 38 46  1  0  0  0
 38 47  1  0  0  0
 39 64  1  0  0  0
 39 67  2  0  0  0
 40 52  1  0  0  0
 40 53  2  0  0  0
 40 58  1  0  0  0
 41110  1  0  0  0
 41111  1  0  0  0
 41112  1  0  0  0
 41 48  1  0  0  0
 42 43  1  0  0  0
 42 66  1  0  0  0
 42113  1  0  0  0
 42114  1  0  0  0
 43 44  1  0  0  0
 44115  1  0  0  0
 45 46  2  0  0  0
 45116  1  0  0  0
 46117  1  0  0  0
 47118  1  0  0  0
 47119  1  0  0  0
 48 56  1  0  0  0
 48 65  1  0  0  0
 48120  1  0  0  0
 49 50  1  0  0  0
 49 53  1  0  0  0
 49 64  1  0  0  0
 49121  1  0  0  0
 50 51  1  0  0  0
 50122  1  0  0  0
 50123  1  0  0  0
 51 52  1  0  0  0
 51124  1  0  0  0
 51125  1  0  0  0
 52126  1  0  0  0
 52127  1  0  0  0
 53 54  1  0  0  0
 54 55  2  0  0  0
 54128  1  0  0  0
 55 57  1  0  0  0
 55129  1  0  0  0
 56 69  2  0  0  0
 57 58  2  0  0  0
 57130  1  0  0  0
 58131  1  0  0  0
 59 60  1  0  0  0
 59 61  1  0  0  0
 59 62  1  0  0  0
 60132  1  0  0  0
 60133  1  0  0  0
 60134  1  0  0  0
 61135  1  0  0  0
 61136  1  0  0  0
 61137  1  0  0  0
 62138  1  0  0  0
 62139  1  0  0  0
 62140  1  0  0  0
 63 65  1  0  0  0
 63141  1  0  0  0
 63142  1  0  0  0
 63143  1  0  0  0
 64144  1  0  0  0
 65145  1  0  0  0
 68 83  1  0  0  0
 71 72  2  0  0  0
 71 74  1  0  0  0
 71146  1  0  0  0
 72 85  1  0  0  0
 72147  1  0  0  0
 73 74  2  0  0  0
 73 85  1  0  0  0
 73148  1  0  0  0
 74 78  1  0  0  0
 75 76  1  0  0  0
 75 78  1  0  0  0
 75149  1  0  0  0
 75150  1  0  0  0
 76 79  1  0  0  0
 76151  1  0  0  0
 76152  1  0  0  0
 77 78  1  0  0  0
 77 79  1  0  0  0
 77153  1  0  0  0
 77154  1  0  0  0
 78155  1  0  0  0
 79 82  1  0  0  0
 79 84  1  0  0  0
 80156  1  0  0  0
 80157  1  0  0  0
 80158  1  0  0  0
 80 84  1  0  0  0
 81 84  1  0  0  0
 81159  1  0  0  0
 81160  1  0  0  0
 81161  1  0  0  0
 82 86  1  0  0  0
 82162  1  0  0  0
 82163  1  0  0  0
 83 85  1  0  0  0
 83164  1  0  0  0
 83165  1  0  0  0
 84166  1  0  0  0
 86167  1  0  0  0
M  ISO  4   1 100  68 101  83 101  86 100
M  END
> <chiral flag>
0

> <version>
0

> <s_m_source_file>
/data/baiqing/PycharmProjects/Reinvent-master-3.2/result/LINK_invent/BTK/process_docking_weight1_custom_sum_contain_oxygen_bond_distance_aromatic_linkinvent_7_9_3/rearranged_h_0116.sdf

> <i_m_source_file_index>
15

> <r_mmod_Potential_Energy-OPLS-2005>
95.2516708374023

> <r_mmod_Stretch_Energy-OPLS-2005>
63.9069900512695

> <r_mmod_Bend_Energy-OPLS-2005>
169.562576293945

> <r_mmod_Torsional_Energy-OPLS-2005>
292.815032958984

> <r_mmod_Improper_Torsional_Energy-OPLS-2005>
6.54109239578247

> <r_mmod_Van_der_Waal_Energy-OPLS-2005>
145.01789855957

> <r_mmod_Electrostatic_Energy-OPLS-2005>
-411.863861083984

> <r_mmod_Solvation_Energy-OPLS-2005>
-201.741241455078

> <b_mmod_Minimization_Converged-OPLS-2005>
0

> <r_mmod_RMS_Derivative-OPLS-2005>
4.57655048370361

$$$$
15
                    3D
 Structure written by MMmdl.
164172  0  0  1  0            999 V2000
  -30.6821  -14.6190   20.5228 C   0  0  0  0  0  0
  -30.4248  -12.3939   19.4435 C   0  0  0  0  0  0
  -29.5026  -12.5109   18.2126 C   0  0  0  0  0  0
  -28.0232  -12.3645   18.6203 C   0  0  0  0  0  0
  -27.6480  -13.2316   19.8535 C   0  0  2  0  0  0
  -28.6954  -13.1088   20.9806 C   0  0  0  0  0  0
  -25.2543  -13.8214   20.5701 C   0  0  0  0  0  0
  -24.1828  -13.0449   20.9199 C   0  0  0  0  0  0
  -24.6418  -11.6932   20.8720 C   0  0  0  0  0  0
  -23.9086  -10.4312   21.0402 C   0  0  0  0  0  0
  -24.3634   -9.4231   21.9190 C   0  0  0  0  0  0
  -23.6307   -8.2267   22.0754 C   0  0  0  0  0  0
  -22.4291   -8.0309   21.3548 C   0  0  0  0  0  0
  -21.9934   -9.0274   20.4652 C   0  0  0  0  0  0
  -22.7252  -10.2151   20.3064 C   0  0  0  0  0  0
  -21.6865   -6.0754   22.5290 C   0  0  0  0  0  0
  -21.4016   -6.5645   23.8222 C   0  0  0  0  0  0
  -21.3662   -5.6793   24.9180 C   0  0  0  0  0  0
  -21.6058   -4.3059   24.7223 C   0  0  0  0  0  0
  -21.8815   -3.8154   23.4338 C   0  0  0  0  0  0
  -21.9194   -4.6983   22.3403 C   0  0  0  0  0  0
  -22.7848  -13.5238   21.1842 C   0  0  0  0  0  0
  -22.1664   -4.2168   21.0977 F   0  0  0  0  0  0
  -21.5632   -3.4541   25.7727 F   0  0  0  0  0  0
  -30.0056  -13.4340   20.4039 N   0  0  0  0  0  0
  -26.2978  -12.9425   20.3293 N   0  0  0  0  0  0
  -25.9351  -11.6553   20.5712 N   0  0  0  0  0  0
  -22.0475  -12.8250   22.0401 N   0  0  0  0  0  0
  -25.4224  -15.1944   20.4118 N   0  0  0  0  0  0
  -31.8604  -14.7143   20.1737 O   0  0  0  0  0  0
  -21.6653   -6.8900   21.4251 O   0  0  0  0  0  0
  -22.3540  -14.5534   20.6667 O   0  0  0  0  0  0
  -24.6285  -31.8596   23.2034 C   0  0  0  0  0  0
  -25.9135  -32.4765   23.8364 C   0  0  1  0  0  0
  -27.2149  -27.3019   20.1030 C   0  0  0  0  0  0
  -25.5958  -33.8573   24.2283 N   0  0  0  0  0  0
  -23.4225  -30.4890   21.5435 C   0  0  2  0  0  0
  -24.8680  -28.9488   20.1031 C   0  0  0  0  0  0
  -22.7477  -29.4640   22.4880 C   0  0  0  0  0  0
  -18.0288  -28.1394   22.8472 C   0  0  0  0  0  0
  -24.1497  -36.7308   23.2630 C   0  0  0  0  0  0
  -25.9670  -30.7805   21.3834 C   0  0  0  0  0  0
  -26.0363  -29.4075   20.7242 C   0  0  0  0  0  0
  -27.2082  -28.5906   20.7263 C   0  0  0  0  0  0
  -26.0292  -26.9201   19.4297 C   0  0  0  0  0  0
  -24.8677  -27.7114   19.4463 C   0  0  0  0  0  0
  -23.6420  -29.8368   20.1538 C   0  0  0  0  0  0
  -25.4113  -36.3079   24.0324 C   0  0  1  0  0  0
  -20.5889  -28.3715   23.1250 C   0  0  2  0  0  0
  -20.6795  -26.9438   22.5390 C   0  0  0  0  0  0
  -19.5773  -26.6396   21.5196 C   0  0  0  0  0  0
  -18.1946  -26.7935   22.1606 C   0  0  0  0  0  0
  -19.1539  -28.8860   23.2871 C   0  0  0  0  0  0
  -18.9475  -30.1457   23.8904 C   0  0  0  0  0  0
  -17.6477  -30.6597   24.0566 C   0  0  0  0  0  0
  -25.9055  -34.9446   23.5094 C   0  0  0  0  0  0
  -16.5366  -29.9105   23.6319 C   0  0  0  0  0  0
  -16.7277  -28.6522   23.0332 C   0  0  0  0  0  0
  -26.4515  -31.6562   25.0734 C   0  0  0  0  0  0
  -25.3750  -31.3710   26.1461 C   0  0  0  0  0  0
  -27.0339  -30.2970   24.6194 C   0  0  0  0  0  0
  -27.6054  -32.4287   25.7540 C   0  0  0  0  0  0
  -27.5575  -37.1816   24.8458 C   0  0  0  0  0  0
  -21.4182  -29.3082   22.3637 N   0  0  0  0  0  0
  -26.4285  -37.3777   23.9410 N   0  0  0  0  0  0
  -24.6913  -31.0594   22.1001 N   0  0  0  0  0  0
  -23.4192  -28.8159   23.2955 O   0  0  0  0  0  0
  -28.3183  -26.4261   20.1730 O   0  0  0  0  0  0
  -26.5609  -34.8913   22.4651 O   0  0  0  0  0  0
  -23.5440  -32.1421   23.7337 O   0  0  0  0  0  0
  -30.1199  -20.8841   21.1696 C   0  0  0  0  0  0
  -30.4740  -19.5860   21.6238 C   0  0  0  0  0  0
  -29.3787  -21.0498   19.9792 C   0  0  0  0  0  0
  -30.0867  -18.4296   20.9081 C   0  0  0  0  0  0
  -29.0218  -19.8190   19.3219 C   0  0  0  0  0  0
  -30.0364  -22.7428   18.2100 C   0  0  0  0  0  0
  -26.9017  -19.0818   18.1398 C   0  0  0  0  0  0
  -29.1226  -19.1246   16.8845 C   0  0  0  0  0  0
  -30.5951  -17.0191   21.3670 C   0  0  0  0  0  0
  -29.0395  -23.8046   20.2923 C   0  0  0  0  0  0
  -28.1429  -25.0106   19.7425 C   0  0  0  0  0  0
  -29.0658  -22.4854   19.3807 C   0  0  2  0  0  0
  -28.2679  -19.7706   17.9892 C   0  0  0  0  0  0
  -29.3552  -18.5684   19.7829 N   0  0  0  0  0  0
  -29.9866  -15.7292   20.9046 N   0  0  0  0  0  0
  -31.4679  -12.5016   19.1424 H   0  0  0  0  0  0
  -30.3431  -11.4039   19.8953 H   0  0  0  0  0  0
  -29.7590  -11.7522   17.4724 H   0  0  0  0  0  0
  -29.6633  -13.4772   17.7307 H   0  0  0  0  0  0
  -27.8402  -11.3097   18.8298 H   0  0  0  0  0  0
  -27.3794  -12.6215   17.7778 H   0  0  0  0  0  0
  -27.6559  -14.2672   19.5107 H   0  0  0  0  0  0
  -28.7054  -12.0964   21.3875 H   0  0  0  0  0  0
  -28.4452  -13.7679   21.8126 H   0  0  0  0  0  0
  -25.2785   -9.5711   22.4766 H   0  0  0  0  0  0
  -24.0035   -7.4651   22.7466 H   0  0  0  0  0  0
  -21.0875   -8.8783   19.8940 H   0  0  0  0  0  0
  -22.3714  -10.9697   19.6171 H   0  0  0  0  0  0
  -21.1994   -7.6145   23.9731 H   0  0  0  0  0  0
  -21.1494   -6.0515   25.9085 H   0  0  0  0  0  0
  -22.0583   -2.7615   23.2826 H   0  0  0  0  0  0
  -22.4066  -11.9923   22.4831 H   0  0  0  0  0  0
  -21.1072  -13.1273   22.2534 H   0  0  0  0  0  0
  -24.6500  -15.8428   20.5210 H   0  0  0  0  0  0
  -26.2694  -15.6435   20.0857 H   0  0  0  0  0  0
  -26.7206  -32.5424   23.1110 H   0  0  0  0  0  0
  -25.0130  -33.9720   25.0444 H   0  0  0  0  0  0
  -22.7197  -31.3129   21.4012 H   0  0  0  0  0  0
  -23.3742  -35.9653   23.3265 H   0  0  0  0  0  0
  -24.3609  -36.8958   22.2053 H   0  0  0  0  0  0
  -23.7259  -37.6510   23.6665 H   0  0  0  0  0  0
  -26.1028  -31.5427   20.6147 H   0  0  0  0  0  0
  -26.8468  -30.8260   22.0143 H   0  0  0  0  0  0
  -28.0976  -28.9309   21.2387 H   0  0  0  0  0  0
  -25.9591  -25.9970   18.8744 H   0  0  0  0  0  0
  -23.9803  -27.3650   18.9338 H   0  0  0  0  0  0
  -23.7797  -30.6231   19.4099 H   0  0  0  0  0  0
  -22.7585  -29.2825   19.8320 H   0  0  0  0  0  0
  -25.1285  -36.1925   25.0811 H   0  0  0  0  0  0
  -20.9987  -28.3312   24.1367 H   0  0  0  0  0  0
  -20.5691  -26.2345   23.3605 H   0  0  0  0  0  0
  -21.6668  -26.7474   22.1187 H   0  0  0  0  0  0
  -19.6951  -25.6298   21.1255 H   0  0  0  0  0  0
  -19.6711  -27.3187   20.6707 H   0  0  0  0  0  0
  -17.4215  -26.6662   21.4011 H   0  0  0  0  0  0
  -18.0359  -26.0073   22.9002 H   0  0  0  0  0  0
  -19.7957  -30.7257   24.2292 H   0  0  0  0  0  0
  -17.5043  -31.6273   24.5176 H   0  0  0  0  0  0
  -15.5371  -30.3025   23.7635 H   0  0  0  0  0  0
  -15.8676  -28.0861   22.7030 H   0  0  0  0  0  0
  -24.5945  -30.7024   25.7826 H   0  0  0  0  0  0
  -24.8925  -32.2871   26.4868 H   0  0  0  0  0  0
  -25.8095  -30.8935   27.0250 H   0  0  0  0  0  0
  -26.2909  -29.6736   24.1206 H   0  0  0  0  0  0
  -27.4007  -29.7215   25.4706 H   0  0  0  0  0  0
  -27.8804  -30.4241   23.9439 H   0  0  0  0  0  0
  -27.2639  -33.3573   26.2130 H   0  0  0  0  0  0
  -28.3891  -32.6860   25.0401 H   0  0  0  0  0  0
  -28.0687  -31.8397   26.5467 H   0  0  0  0  0  0
  -28.2568  -38.0138   24.7487 H   0  0  0  0  0  0
  -28.1094  -36.2654   24.6277 H   0  0  0  0  0  0
  -27.2303  -37.1461   25.8869 H   0  0  0  0  0  0
  -20.9344  -29.8867   21.6914 H   0  0  0  0  0  0
  -26.0152  -38.2850   24.1407 H   0  0  0  0  0  0
  -30.4556  -21.7512   21.7190 H   0  0  0  0  0  0
  -31.0741  -19.4885   22.5192 H   0  0  0  0  0  0
  -30.0443  -21.9316   17.4853 H   0  0  0  0  0  0
  -31.0595  -22.8548   18.5705 H   0  0  0  0  0  0
  -29.7819  -23.6499   17.6631 H   0  0  0  0  0  0
  -26.2969  -19.5857   18.8949 H   0  0  0  0  0  0
  -27.0083  -18.0395   18.4419 H   0  0  0  0  0  0
  -26.3475  -19.0981   17.2011 H   0  0  0  0  0  0
  -30.0897  -19.6218   16.8047 H   0  0  0  0  0  0
  -28.6321  -19.1906   15.9140 H   0  0  0  0  0  0
  -29.3130  -18.0703   17.0876 H   0  0  0  0  0  0
  -30.5062  -17.0026   22.4539 H   0  0  0  0  0  0
  -31.6701  -17.0081   21.1788 H   0  0  0  0  0  0
  -28.6536  -23.5409   21.2771 H   0  0  0  0  0  0
  -30.0606  -24.1507   20.4588 H   0  0  0  0  0  0
  -27.1324  -24.6843   19.9880 H   0  0  0  0  0  0
  -28.2011  -25.0170   18.6535 H   0  0  0  0  0  0
  -28.0526  -22.4174   18.9860 H   0  0  0  0  0  0
  -28.0566  -20.7786   17.6441 H   0  0  0  0  0  0
  -28.9946  -15.6309   21.0470 H   0  0  0  0  0  0
  1 25  1  0  0  0
  1 30  2  0  0  0
  1 85  1  0  0  0
  2  3  1  0  0  0
  2 25  1  0  0  0
  2 86  1  0  0  0
  2 87  1  0  0  0
  3  4  1  0  0  0
  3 88  1  0  0  0
  3 89  1  0  0  0
  4  5  1  0  0  0
  4 90  1  0  0  0
  4 91  1  0  0  0
  5  6  1  0  0  0
  5 26  1  0  0  0
  5 92  1  0  0  0
  6 25  1  0  0  0
  6 93  1  0  0  0
  6 94  1  0  0  0
  7  8  2  0  0  0
  7 26  1  0  0  0
  7 29  1  0  0  0
  8  9  1  0  0  0
  8 22  1  0  0  0
  9 10  1  0  0  0
  9 27  2  0  0  0
 10 11  2  0  0  0
 10 15  1  0  0  0
 11 12  1  0  0  0
 11 95  1  0  0  0
 12 13  2  0  0  0
 12 96  1  0  0  0
 13 14  1  0  0  0
 13 31  1  0  0  0
 14 15  2  0  0  0
 14 97  1  0  0  0
 15 98  1  0  0  0
 16 17  2  0  0  0
 16 21  1  0  0  0
 16 31  1  0  0  0
 17 18  1  0  0  0
 17 99  1  0  0  0
 18 19  2  0  0  0
 18100  1  0  0  0
 19 20  1  0  0  0
 19 24  1  0  0  0
 20 21  2  0  0  0
 20101  1  0  0  0
 21 23  1  0  0  0
 22 28  1  0  0  0
 22 32  2  0  0  0
 26 27  1  0  0  0
 28102  1  0  0  0
 28103  1  0  0  0
 29104  1  0  0  0
 29105  1  0  0  0
 33 34  1  0  0  0
 33 66  1  0  0  0
 33 70  2  0  0  0
 34 36  1  0  0  0
 34 59  1  0  0  0
 34106  1  0  0  0
 35 44  2  0  0  0
 35 45  1  0  0  0
 35 68  1  0  0  0
 36 56  1  0  0  0
 36107  1  0  0  0
 37 39  1  0  0  0
 37 47  1  0  0  0
 37 66  1  0  0  0
 37108  1  0  0  0
 38 43  2  0  0  0
 38 46  1  0  0  0
 38 47  1  0  0  0
 39 64  1  0  0  0
 39 67  2  0  0  0
 40 52  1  0  0  0
 40 53  2  0  0  0
 40 58  1  0  0  0
 41109  1  0  0  0
 41110  1  0  0  0
 41111  1  0  0  0
 41 48  1  0  0  0
 42 43  1  0  0  0
 42 66  1  0  0  0
 42112  1  0  0  0
 42113  1  0  0  0
 43 44  1  0  0  0
 44114  1  0  0  0
 45 46  2  0  0  0
 45115  1  0  0  0
 46116  1  0  0  0
 47117  1  0  0  0
 47118  1  0  0  0
 48 56  1  0  0  0
 48 65  1  0  0  0
 48119  1  0  0  0
 49 50  1  0  0  0
 49 53  1  0  0  0
 49 64  1  0  0  0
 49120  1  0  0  0
 50 51  1  0  0  0
 50121  1  0  0  0
 50122  1  0  0  0
 51 52  1  0  0  0
 51123  1  0  0  0
 51124  1  0  0  0
 52125  1  0  0  0
 52126  1  0  0  0
 53 54  1  0  0  0
 54 55  2  0  0  0
 54127  1  0  0  0
 55 57  1  0  0  0
 55128  1  0  0  0
 56 69  2  0  0  0
 57 58  2  0  0  0
 57129  1  0  0  0
 58130  1  0  0  0
 59 60  1  0  0  0
 59 61  1  0  0  0
 59 62  1  0  0  0
 60131  1  0  0  0
 60132  1  0  0  0
 60133  1  0  0  0
 61134  1  0  0  0
 61135  1  0  0  0
 61136  1  0  0  0
 62137  1  0  0  0
 62138  1  0  0  0
 62139  1  0  0  0
 63 65  1  0  0  0
 63140  1  0  0  0
 63141  1  0  0  0
 63142  1  0  0  0
 64143  1  0  0  0
 65144  1  0  0  0
 68 81  1  0  0  0
 71 72  2  0  0  0
 71 73  1  0  0  0
 71145  1  0  0  0
 72 74  1  0  0  0
 72146  1  0  0  0
 73 75  2  0  0  0
 73 82  1  0  0  0
 74 79  1  0  0  0
 74 84  2  0  0  0
 75 83  1  0  0  0
 75 84  1  0  0  0
 76147  1  0  0  0
 76148  1  0  0  0
 76149  1  0  0  0
 76 82  1  0  0  0
 77150  1  0  0  0
 77151  1  0  0  0
 77152  1  0  0  0
 77 83  1  0  0  0
 78 83  1  0  0  0
 78153  1  0  0  0
 78154  1  0  0  0
 78155  1  0  0  0
 79 85  1  0  0  0
 79156  1  0  0  0
 79157  1  0  0  0
 80 81  1  0  0  0
 80 82  1  0  0  0
 80158  1  0  0  0
 80159  1  0  0  0
 81160  1  0  0  0
 81161  1  0  0  0
 82162  1  0  0  0
 83163  1  0  0  0
 85164  1  0  0  0
M  ISO  4   1 100  68 101  81 101  85 100
M  END
> <chiral flag>
0

> <version>
0

> <s_m_source_file>
/data/baiqing/PycharmProjects/Reinvent-master-3.2/result/LINK_invent/BTK/process_docking_weight1_custom_sum_contain_oxygen_bond_distance_aromatic_linkinvent_7_9_3/rearranged_h_0116.sdf

> <i_m_source_file_index>
16

> <r_mmod_Potential_Energy-OPLS-2005>
-211.219955444336

> <r_mmod_Stretch_Energy-OPLS-2005>
85.0558319091797

> <r_mmod_Bend_Energy-OPLS-2005>
155.318450927734

> <r_mmod_Torsional_Energy-OPLS-2005>
195.792221069336

> <r_mmod_Improper_Torsional_Energy-OPLS-2005>
3.63613414764404

> <r_mmod_Van_der_Waal_Energy-OPLS-2005>
151.991317749023

> <r_mmod_Electrostatic_Energy-OPLS-2005>
-645.034545898438

> <r_mmod_Solvation_Energy-OPLS-2005>
-211.68212890625

> <b_mmod_Minimization_Converged-OPLS-2005>
0

> <r_mmod_RMS_Derivative-OPLS-2005>
2.3961398601532

$$$$
16
                    3D
 Structure written by MMmdl.
154162  0  0  1  0            999 V2000
  -30.5048  -14.8964   20.3644 C   0  0  0  0  0  0
  -30.4326  -12.5471   19.4539 C   0  0  0  0  0  0
  -29.5028  -12.4895   18.2208 C   0  0  0  0  0  0
  -28.0477  -12.2664   18.6686 C   0  0  0  0  0  0
  -27.6264  -13.2182   19.8168 C   0  0  2  0  0  0
  -28.6720  -13.2370   20.9472 C   0  0  0  0  0  0
  -25.2583  -13.8140   20.5652 C   0  0  0  0  0  0
  -24.1838  -13.0416   20.9187 C   0  0  0  0  0  0
  -24.6390  -11.6906   20.8769 C   0  0  0  0  0  0
  -23.9038  -10.4294   21.0463 C   0  0  0  0  0  0
  -24.3580   -9.4207   21.9251 C   0  0  0  0  0  0
  -23.6261   -8.2233   22.0805 C   0  0  0  0  0  0
  -22.4247   -8.0296   21.3572 C   0  0  0  0  0  0
  -21.9893   -9.0274   20.4688 C   0  0  0  0  0  0
  -22.7201  -10.2167   20.3111 C   0  0  0  0  0  0
  -21.6862   -6.0730   22.5279 C   0  0  0  0  0  0
  -21.4001   -6.5644   23.8207 C   0  0  0  0  0  0
  -21.3641   -5.6791   24.9164 C   0  0  0  0  0  0
  -21.6024   -4.3053   24.7235 C   0  0  0  0  0  0
  -21.8816   -3.8148   23.4349 C   0  0  0  0  0  0
  -21.9194   -4.6962   22.3405 C   0  0  0  0  0  0
  -22.7890  -13.5329   21.1791 C   0  0  0  0  0  0
  -22.1667   -4.2158   21.0991 F   0  0  0  0  0  0
  -21.5619   -3.4528   25.7729 F   0  0  0  0  0  0
  -29.9355  -13.6355   20.3330 N   0  0  0  0  0  0
  -26.2911  -12.9286   20.3141 N   0  0  0  0  0  0
  -25.9311  -11.6447   20.5703 N   0  0  0  0  0  0
  -22.0492  -12.8369   22.0363 N   0  0  0  0  0  0
  -25.4215  -15.1835   20.4032 N   0  0  0  0  0  0
  -31.7217  -14.9842   20.1729 O   0  0  0  0  0  0
  -21.6614   -6.8879   21.4262 O   0  0  0  0  0  0
  -22.3605  -14.5627   20.6645 O   0  0  0  0  0  0
  -24.6426  -31.8469   23.1839 C   0  0  0  0  0  0
  -25.9221  -32.4635   23.8287 C   0  0  1  0  0  0
  -27.1801  -27.1311   20.1702 C   0  0  0  0  0  0
  -25.6045  -33.8440   24.2284 N   0  0  0  0  0  0
  -23.4465  -30.4641   21.5285 C   0  0  2  0  0  0
  -24.8803  -28.8779   20.1087 C   0  0  0  0  0  0
  -22.7521  -29.4613   22.4824 C   0  0  0  0  0  0
  -18.0283  -28.1421   22.8482 C   0  0  0  0  0  0
  -24.1522  -36.7207   23.2655 C   0  0  0  0  0  0
  -25.9964  -30.7215   21.3747 C   0  0  0  0  0  0
  -26.0558  -29.3290   20.7220 C   0  0  0  0  0  0
  -27.2077  -28.4674   20.7340 C   0  0  0  0  0  0
  -25.9869  -26.7660   19.5253 C   0  0  0  0  0  0
  -24.8554  -27.6101   19.5013 C   0  0  0  0  0  0
  -23.6663  -29.7894   20.1465 C   0  0  0  0  0  0
  -25.4129  -36.2956   24.0366 C   0  0  1  0  0  0
  -20.5896  -28.3777   23.1179 C   0  0  2  0  0  0
  -20.6851  -26.9499   22.5329 C   0  0  0  0  0  0
  -19.5711  -26.6296   21.5292 C   0  0  0  0  0  0
  -18.1940  -26.7883   22.1787 C   0  0  0  0  0  0
  -19.1537  -28.8927   23.2799 C   0  0  0  0  0  0
  -18.9447  -30.1571   23.8717 C   0  0  0  0  0  0
  -17.6435  -30.6661   24.0492 C   0  0  0  0  0  0
  -25.9061  -34.9332   23.5108 C   0  0  0  0  0  0
  -16.5328  -29.9109   23.6393 C   0  0  0  0  0  0
  -16.7268  -28.6522   23.0413 C   0  0  0  0  0  0
  -26.4498  -31.6368   25.0665 C   0  0  0  0  0  0
  -25.3837  -31.3619   26.1511 C   0  0  0  0  0  0
  -27.0142  -30.2706   24.6118 C   0  0  0  0  0  0
  -27.6135  -32.3987   25.7399 C   0  0  0  0  0  0
  -27.5583  -37.1750   24.8488 C   0  0  0  0  0  0
  -21.4214  -29.3128   22.3557 N   0  0  0  0  0  0
  -26.4286  -37.3667   23.9434 N   0  0  0  0  0  0
  -24.7158  -31.0335   22.0837 N   0  0  0  0  0  0
  -23.4172  -28.8164   23.2971 O   0  0  0  0  0  0
  -28.2302  -26.1746   20.3214 O   0  0  0  0  0  0
  -26.5551  -34.8820   22.4624 O   0  0  0  0  0  0
  -23.5564  -32.1345   23.7085 O   0  0  0  0  0  0
  -28.1409  -19.4113   19.5237 C   0  0  0  0  0  0
  -29.3384  -21.2781   21.0462 C   0  0  0  0  0  0
  -29.2585  -18.9631   20.3169 C   0  0  0  0  0  0
  -28.2411  -21.7407   20.2521 C   0  0  0  0  0  0
  -25.6008  -24.2095   21.8466 C   0  0  0  0  0  0
  -30.1104  -17.5490   20.2220 C   0  0  0  0  0  0
  -26.8664  -23.3337   21.7792 C   0  0  0  0  0  0
  -28.3120  -24.6756   19.8955 C   0  0  0  0  0  0
  -27.5633  -23.2495   20.3914 C   0  0  1  0  0  0
  -29.8202  -19.9709   21.0709 N   0  0  0  0  0  0
  -27.6455  -20.7280   19.5148 N   0  0  0  0  0  0
  -29.6863  -16.0499   20.3758 N   0  0  0  0  0  0
  -31.4631  -12.7158   19.1366 H   0  0  0  0  0  0
  -30.4313  -11.5903   19.9787 H   0  0  0  0  0  0
  -29.8138  -11.6876   17.5506 H   0  0  0  0  0  0
  -29.5741  -13.4070   17.6359 H   0  0  0  0  0  0
  -27.9712  -11.2318   19.0053 H   0  0  0  0  0  0
  -27.3621  -12.3602   17.8281 H   0  0  0  0  0  0
  -27.5823  -14.2080   19.3645 H   0  0  0  0  0  0
  -28.7657  -12.2575   21.4144 H   0  0  0  0  0  0
  -28.3859  -13.9352   21.7346 H   0  0  0  0  0  0
  -25.2729   -9.5678   22.4834 H   0  0  0  0  0  0
  -23.9967   -7.4635   22.7546 H   0  0  0  0  0  0
  -21.0811   -8.8795   19.9023 H   0  0  0  0  0  0
  -22.3651  -10.9709   19.6233 H   0  0  0  0  0  0
  -21.1976   -7.6153   23.9699 H   0  0  0  0  0  0
  -21.1473   -6.0530   25.9054 H   0  0  0  0  0  0
  -22.0614   -2.7618   23.2839 H   0  0  0  0  0  0
  -22.4045  -12.0025   22.4749 H   0  0  0  0  0  0
  -21.1151  -13.1570   22.2532 H   0  0  0  0  0  0
  -24.6466  -15.8221   20.5369 H   0  0  0  0  0  0
  -26.2462  -15.6291   20.0287 H   0  0  0  0  0  0
  -26.7307  -32.5213   23.1037 H   0  0  0  0  0  0
  -25.0403  -33.9518   25.0574 H   0  0  0  0  0  0
  -22.7574  -31.2956   21.3738 H   0  0  0  0  0  0
  -23.3746  -35.9569   23.3258 H   0  0  0  0  0  0
  -24.3655  -36.8830   22.2079 H   0  0  0  0  0  0
  -23.7280  -37.6424   23.6668 H   0  0  0  0  0  0
  -26.1508  -31.4805   20.6078 H   0  0  0  0  0  0
  -26.8741  -30.7725   22.0089 H   0  0  0  0  0  0
  -28.1003  -28.8033   21.2376 H   0  0  0  0  0  0
  -25.8999  -25.7733   19.1073 H   0  0  0  0  0  0
  -23.9435  -27.2458   19.0491 H   0  0  0  0  0  0
  -23.8087  -30.5556   19.3831 H   0  0  0  0  0  0
  -22.7747  -29.2402   19.8383 H   0  0  0  0  0  0
  -25.1290  -36.1826   25.0861 H   0  0  0  0  0  0
  -20.9903  -28.3338   24.1312 H   0  0  0  0  0  0
  -20.5943  -26.2364   23.3544 H   0  0  0  0  0  0
  -21.6689  -26.7735   22.0957 H   0  0  0  0  0  0
  -19.6868  -25.6160   21.1492 H   0  0  0  0  0  0
  -19.6520  -27.2934   20.6695 H   0  0  0  0  0  0
  -17.4124  -26.6475   21.4339 H   0  0  0  0  0  0
  -18.0484  -26.0166   22.9374 H   0  0  0  0  0  0
  -19.7915  -30.7454   24.1988 H   0  0  0  0  0  0
  -17.5045  -31.6376   24.5023 H   0  0  0  0  0  0
  -15.5327  -30.2993   23.7824 H   0  0  0  0  0  0
  -15.8674  -28.0809   22.7176 H   0  0  0  0  0  0
  -24.5333  -30.7891   25.7788 H   0  0  0  0  0  0
  -25.0019  -32.2864   26.5855 H   0  0  0  0  0  0
  -25.8092  -30.7806   26.9700 H   0  0  0  0  0  0
  -26.2750  -29.6742   24.0764 H   0  0  0  0  0  0
  -27.3273  -29.6649   25.4631 H   0  0  0  0  0  0
  -27.8866  -30.3804   23.9691 H   0  0  0  0  0  0
  -27.2757  -33.3182   26.2181 H   0  0  0  0  0  0
  -28.3847  -32.6677   25.0169 H   0  0  0  0  0  0
  -28.0869  -31.7929   26.5128 H   0  0  0  0  0  0
  -28.2572  -38.0070   24.7489 H   0  0  0  0  0  0
  -28.1105  -36.2592   24.6360 H   0  0  0  0  0  0
  -27.2280  -37.1404   25.8881 H   0  0  0  0  0  0
  -20.9464  -29.8702   21.6579 H   0  0  0  0  0  0
  -26.0152  -38.2736   24.1416 H   0  0  0  0  0  0
  -27.6636  -18.7102   18.8478 H   0  0  0  0  0  0
  -29.8337  -21.9718   21.7074 H   0  0  0  0  0  0
  -25.0455  -24.0346   22.7696 H   0  0  0  0  0  0
  -24.9234  -23.9982   21.0164 H   0  0  0  0  0  0
  -25.8341  -25.2717   21.8251 H   0  0  0  0  0  0
  -30.8904  -17.6477   20.9774 H   0  0  0  0  0  0
  -30.6538  -17.6120   19.2782 H   0  0  0  0  0  0
  -26.5221  -22.3301   22.0433 H   0  0  0  0  0  0
  -27.5738  -23.5978   22.5650 H   0  0  0  0  0  0
  -28.3094  -24.6682   18.8008 H   0  0  0  0  0  0
  -29.3590  -24.4794   20.1529 H   0  0  0  0  0  0
  -26.7143  -23.1727   19.7075 H   0  0  0  0  0  0
  -28.6943  -15.8788   20.3890 H   0  0  0  0  0  0
  1 25  1  0  0  0
  1 30  2  0  0  0
  1 82  1  0  0  0
  2  3  1  0  0  0
  2 25  1  0  0  0
  2 83  1  0  0  0
  2 84  1  0  0  0
  3  4  1  0  0  0
  3 85  1  0  0  0
  3 86  1  0  0  0
  4  5  1  0  0  0
  4 87  1  0  0  0
  4 88  1  0  0  0
  5  6  1  0  0  0
  5 26  1  0  0  0
  5 89  1  0  0  0
  6 25  1  0  0  0
  6 90  1  0  0  0
  6 91  1  0  0  0
  7  8  2  0  0  0
  7 26  1  0  0  0
  7 29  1  0  0  0
  8  9  1  0  0  0
  8 22  1  0  0  0
  9 10  1  0  0  0
  9 27  2  0  0  0
 10 11  2  0  0  0
 10 15  1  0  0  0
 11 12  1  0  0  0
 11 92  1  0  0  0
 12 13  2  0  0  0
 12 93  1  0  0  0
 13 14  1  0  0  0
 13 31  1  0  0  0
 14 15  2  0  0  0
 14 94  1  0  0  0
 15 95  1  0  0  0
 16 17  2  0  0  0
 16 21  1  0  0  0
 16 31  1  0  0  0
 17 18  1  0  0  0
 17 96  1  0  0  0
 18 19  2  0  0  0
 18 97  1  0  0  0
 19 20  1  0  0  0
 19 24  1  0  0  0
 20 21  2  0  0  0
 20 98  1  0  0  0
 21 23  1  0  0  0
 22 28  1  0  0  0
 22 32  2  0  0  0
 26 27  1  0  0  0
 28 99  1  0  0  0
 28100  1  0  0  0
 29101  1  0  0  0
 29102  1  0  0  0
 33 34  1  0  0  0
 33 66  1  0  0  0
 33 70  2  0  0  0
 34 36  1  0  0  0
 34 59  1  0  0  0
 34103  1  0  0  0
 35 44  2  0  0  0
 35 45  1  0  0  0
 35 68  1  0  0  0
 36 56  1  0  0  0
 36104  1  0  0  0
 37 39  1  0  0  0
 37 47  1  0  0  0
 37 66  1  0  0  0
 37105  1  0  0  0
 38 43  2  0  0  0
 38 46  1  0  0  0
 38 47  1  0  0  0
 39 64  1  0  0  0
 39 67  2  0  0  0
 40 52  1  0  0  0
 40 53  2  0  0  0
 40 58  1  0  0  0
 41106  1  0  0  0
 41107  1  0  0  0
 41108  1  0  0  0
 41 48  1  0  0  0
 42 43  1  0  0  0
 42 66  1  0  0  0
 42109  1  0  0  0
 42110  1  0  0  0
 43 44  1  0  0  0
 44111  1  0  0  0
 45 46  2  0  0  0
 45112  1  0  0  0
 46113  1  0  0  0
 47114  1  0  0  0
 47115  1  0  0  0
 48 56  1  0  0  0
 48 65  1  0  0  0
 48116  1  0  0  0
 49 50  1  0  0  0
 49 53  1  0  0  0
 49 64  1  0  0  0
 49117  1  0  0  0
 50 51  1  0  0  0
 50118  1  0  0  0
 50119  1  0  0  0
 51 52  1  0  0  0
 51120  1  0  0  0
 51121  1  0  0  0
 52122  1  0  0  0
 52123  1  0  0  0
 53 54  1  0  0  0
 54 55  2  0  0  0
 54124  1  0  0  0
 55 57  1  0  0  0
 55125  1  0  0  0
 56 69  2  0  0  0
 57 58  2  0  0  0
 57126  1  0  0  0
 58127  1  0  0  0
 59 60  1  0  0  0
 59 61  1  0  0  0
 59 62  1  0  0  0
 60128  1  0  0  0
 60129  1  0  0  0
 60130  1  0  0  0
 61131  1  0  0  0
 61132  1  0  0  0
 61133  1  0  0  0
 62134  1  0  0  0
 62135  1  0  0  0
 62136  1  0  0  0
 63 65  1  0  0  0
 63137  1  0  0  0
 63138  1  0  0  0
 63139  1  0  0  0
 64140  1  0  0  0
 65141  1  0  0  0
 68 78  1  0  0  0
 71 73  2  0  0  0
 71 81  1  0  0  0
 71142  1  0  0  0
 72 74  1  0  0  0
 72 80  2  0  0  0
 72143  1  0  0  0
 73 76  1  0  0  0
 73 80  1  0  0  0
 74 79  1  0  0  0
 74 81  2  0  0  0
 75 77  1  0  0  0
 75144  1  0  0  0
 75145  1  0  0  0
 75146  1  0  0  0
 76 82  1  0  0  0
 76147  1  0  0  0
 76148  1  0  0  0
 77149  1  0  0  0
 77150  1  0  0  0
 77 79  1  0  0  0
 78 79  1  0  0  0
 78151  1  0  0  0
 78152  1  0  0  0
 79153  1  0  0  0
 82154  1  0  0  0
M  ISO  4   1 100  68 101  78 101  82 100
M  END
> <chiral flag>
0

> <version>
0

> <s_m_source_file>
/data/baiqing/PycharmProjects/Reinvent-master-3.2/result/LINK_invent/BTK/process_docking_weight1_custom_sum_contain_oxygen_bond_distance_aromatic_linkinvent_7_9_3/rearranged_h_0116.sdf

> <i_m_source_file_index>
17

> <r_mmod_Potential_Energy-OPLS-2005>
525.661193847656

> <r_mmod_Stretch_Energy-OPLS-2005>
228.232864379883

> <r_mmod_Bend_Energy-OPLS-2005>
302.824981689453

> <r_mmod_Torsional_Energy-OPLS-2005>
213.883148193359

> <r_mmod_Improper_Torsional_Energy-OPLS-2005>
8.03032493591309

> <r_mmod_Van_der_Waal_Energy-OPLS-2005>
125.055854797363

> <r_mmod_Electrostatic_Energy-OPLS-2005>
-315.291381835938

> <r_mmod_Solvation_Energy-OPLS-2005>
-225.701065063477

> <b_mmod_Minimization_Converged-OPLS-2005>
0

> <r_mmod_RMS_Derivative-OPLS-2005>
8.11450099945068

$$$$
17
                    3D
 Structure written by MMmdl.
164172  0  0  1  0            999 V2000
  -30.6585  -14.5019   20.5771 C   0  0  0  0  0  0
  -30.4339  -12.3321   19.4009 C   0  0  0  0  0  0
  -29.4953  -12.5283   18.1925 C   0  0  0  0  0  0
  -28.0193  -12.3738   18.6132 C   0  0  0  0  0  0
  -27.6660  -13.1981   19.8788 C   0  0  2  0  0  0
  -28.7124  -12.9599   20.9907 C   0  0  0  0  0  0
  -25.2646  -13.8133   20.5649 C   0  0  0  0  0  0
  -24.1878  -13.0412   20.9146 C   0  0  0  0  0  0
  -24.6416  -11.6882   20.8718 C   0  0  0  0  0  0
  -23.9041  -10.4278   21.0402 C   0  0  0  0  0  0
  -24.3592   -9.4213   21.9199 C   0  0  0  0  0  0
  -23.6288   -8.2240   22.0764 C   0  0  0  0  0  0
  -22.4275   -8.0268   21.3548 C   0  0  0  0  0  0
  -21.9885   -9.0229   20.4650 C   0  0  0  0  0  0
  -22.7195  -10.2127   20.3064 C   0  0  0  0  0  0
  -21.6864   -6.0721   22.5271 C   0  0  0  0  0  0
  -21.4024   -6.5635   23.8191 C   0  0  0  0  0  0
  -21.3664   -5.6796   24.9162 C   0  0  0  0  0  0
  -21.6031   -4.3047   24.7225 C   0  0  0  0  0  0
  -21.8824   -3.8142   23.4349 C   0  0  0  0  0  0
  -21.9197   -4.6953   22.3410 C   0  0  0  0  0  0
  -22.7914  -13.5253   21.1776 C   0  0  0  0  0  0
  -22.1671   -4.2129   21.0986 F   0  0  0  0  0  0
  -21.5624   -3.4542   25.7747 F   0  0  0  0  0  0
  -30.0346  -13.2984   20.4358 N   0  0  0  0  0  0
  -26.3062  -12.9265   20.3379 N   0  0  0  0  0  0
  -25.9342  -11.6429   20.5760 N   0  0  0  0  0  0
  -22.0529  -12.8271   22.0339 N   0  0  0  0  0  0
  -25.4399  -15.1837   20.4097 N   0  0  0  0  0  0
  -31.7816  -14.7251   20.1068 O   0  0  0  0  0  0
  -21.6645   -6.8865   21.4232 O   0  0  0  0  0  0
  -22.3614  -14.5540   20.6597 O   0  0  0  0  0  0
  -24.6203  -31.8641   23.2066 C   0  0  0  0  0  0
  -25.9095  -32.4759   23.8392 C   0  0  1  0  0  0
  -27.2323  -27.3806   20.0833 C   0  0  0  0  0  0
  -25.5956  -33.8560   24.2303 N   0  0  0  0  0  0
  -23.4089  -30.4897   21.5455 C   0  0  2  0  0  0
  -24.8552  -28.9476   20.1158 C   0  0  0  0  0  0
  -22.7462  -29.4655   22.4945 C   0  0  0  0  0  0
  -18.0283  -28.1391   22.8492 C   0  0  0  0  0  0
  -24.1478  -36.7258   23.2634 C   0  0  0  0  0  0
  -25.9475  -30.8111   21.3721 C   0  0  0  0  0  0
  -26.0195  -29.4446   20.7099 C   0  0  0  0  0  0
  -27.2064  -28.6701   20.6865 C   0  0  0  0  0  0
  -26.0348  -26.9019   19.5000 C   0  0  0  0  0  0
  -24.8599  -27.6795   19.5119 C   0  0  0  0  0  0
  -23.6231  -29.8237   20.1603 C   0  0  0  0  0  0
  -25.4107  -36.3036   24.0307 C   0  0  1  0  0  0
  -20.5887  -28.3679   23.1285 C   0  0  2  0  0  0
  -20.6775  -26.9402   22.5416 C   0  0  0  0  0  0
  -19.5756  -26.6376   21.5214 C   0  0  0  0  0  0
  -18.1929  -26.7934   22.1613 C   0  0  0  0  0  0
  -19.1546  -28.8852   23.2874 C   0  0  0  0  0  0
  -18.9478  -30.1460   23.8888 C   0  0  0  0  0  0
  -17.6488  -30.6595   24.0569 C   0  0  0  0  0  0
  -25.9046  -34.9411   23.5078 C   0  0  0  0  0  0
  -16.5369  -29.9113   23.6319 C   0  0  0  0  0  0
  -16.7269  -28.6518   23.0348 C   0  0  0  0  0  0
  -26.4542  -31.6568   25.0757 C   0  0  0  0  0  0
  -25.3783  -31.3737   26.1503 C   0  0  0  0  0  0
  -27.0413  -30.2990   24.6192 C   0  0  0  0  0  0
  -27.6068  -32.4366   25.7533 C   0  0  0  0  0  0
  -27.5557  -37.1776   24.8461 C   0  0  0  0  0  0
  -21.4185  -29.3036   22.3695 N   0  0  0  0  0  0
  -26.4263  -37.3741   23.9415 N   0  0  0  0  0  0
  -24.6766  -31.0727   22.0975 N   0  0  0  0  0  0
  -23.4236  -28.8207   23.2997 O   0  0  0  0  0  0
  -28.4163  -26.6507   20.1181 O   0  0  0  0  0  0
  -26.5596  -34.8867   22.4640 O   0  0  0  0  0  0
  -23.5387  -32.1467   23.7404 O   0  0  0  0  0  0
  -31.0147  -18.5080   22.9413 C   0  0  0  0  0  0
  -30.4387  -19.4991   22.1315 C   0  0  0  0  0  0
  -30.8737  -17.1563   22.5805 C   0  0  0  0  0  0
  -29.7378  -19.1185   20.9681 C   0  0  0  0  0  0
  -30.1640  -16.8267   21.3996 C   0  0  0  0  0  0
  -31.4784  -16.0927   23.4894 C   0  0  0  0  0  0
  -29.7207  -24.4479   21.5385 C   0  0  0  0  0  0
  -30.4685  -22.8102   18.9210 C   0  0  0  0  0  0
  -29.1463  -20.1779   20.0083 C   0  0  0  0  0  0
  -28.5956  -25.3688   19.4502 C   0  0  0  0  0  0
  -28.7459  -24.1162   20.3946 C   0  0  1  0  0  0
  -29.1132  -22.7474   19.6661 C   0  0  2  0  0  0
  -29.6001  -17.8041   20.6328 N   0  0  0  0  0  0
  -29.8914  -15.4553   21.1488 N   0  0  0  0  0  0
  -29.0848  -21.5581   20.5880 N   0  3  0  0  0  0
  -31.4725  -12.4589   19.0944 H   0  0  0  0  0  0
  -30.3538  -11.3126   19.7783 H   0  0  0  0  0  0
  -29.7362  -11.8186   17.3980 H   0  0  0  0  0  0
  -29.6515  -13.5198   17.7663 H   0  0  0  0  0  0
  -27.8363  -11.3147   18.7957 H   0  0  0  0  0  0
  -27.3622  -12.6569   17.7904 H   0  0  0  0  0  0
  -27.7130  -14.2494   19.5938 H   0  0  0  0  0  0
  -28.7080  -11.9150   21.3063 H   0  0  0  0  0  0
  -28.4706  -13.5332   21.8874 H   0  0  0  0  0  0
  -25.2737   -9.5704   22.4767 H   0  0  0  0  0  0
  -23.9995   -7.4653   22.7510 H   0  0  0  0  0  0
  -21.0807   -8.8739   19.8980 H   0  0  0  0  0  0
  -22.3643  -10.9658   19.6173 H   0  0  0  0  0  0
  -21.2022   -7.6147   23.9684 H   0  0  0  0  0  0
  -21.1482   -6.0536   25.9057 H   0  0  0  0  0  0
  -22.0606   -2.7602   23.2857 H   0  0  0  0  0  0
  -22.4126  -11.9965   22.4772 H   0  0  0  0  0  0
  -21.1146  -13.1344   22.2473 H   0  0  0  0  0  0
  -24.6709  -15.8382   20.4981 H   0  0  0  0  0  0
  -26.2939  -15.6212   20.0838 H   0  0  0  0  0  0
  -26.7148  -32.5464   23.1135 H   0  0  0  0  0  0
  -25.0218  -33.9734   25.0522 H   0  0  0  0  0  0
  -22.6973  -31.3066   21.4021 H   0  0  0  0  0  0
  -23.3696  -35.9625   23.3313 H   0  0  0  0  0  0
  -24.3557  -36.8884   22.2043 H   0  0  0  0  0  0
  -23.7277  -37.6473   23.6680 H   0  0  0  0  0  0
  -26.0870  -31.5817   20.6105 H   0  0  0  0  0  0
  -26.8227  -30.8502   22.0094 H   0  0  0  0  0  0
  -28.1043  -29.0573   21.1482 H   0  0  0  0  0  0
  -25.9648  -25.9247   19.0417 H   0  0  0  0  0  0
  -23.9575  -27.2925   19.0590 H   0  0  0  0  0  0
  -23.7519  -30.6050   19.4098 H   0  0  0  0  0  0
  -22.7447  -29.2578   19.8436 H   0  0  0  0  0  0
  -25.1275  -36.1879   25.0789 H   0  0  0  0  0  0
  -20.9947  -28.3240   24.1415 H   0  0  0  0  0  0
  -20.5695  -26.2284   23.3617 H   0  0  0  0  0  0
  -21.6636  -26.7463   22.1194 H   0  0  0  0  0  0
  -19.6933  -25.6290   21.1239 H   0  0  0  0  0  0
  -19.6682  -27.3173   20.6742 H   0  0  0  0  0  0
  -17.4207  -26.6683   21.4004 H   0  0  0  0  0  0
  -18.0318  -26.0072   22.9006 H   0  0  0  0  0  0
  -19.7958  -30.7267   24.2228 H   0  0  0  0  0  0
  -17.5051  -31.6246   24.5215 H   0  0  0  0  0  0
  -15.5380  -30.3037   23.7614 H   0  0  0  0  0  0
  -15.8662  -28.0831   22.7089 H   0  0  0  0  0  0
  -24.5944  -30.7092   25.7886 H   0  0  0  0  0  0
  -24.8994  -32.2909   26.4928 H   0  0  0  0  0  0
  -25.8118  -30.8967   27.0287 H   0  0  0  0  0  0
  -26.2979  -29.6711   24.1262 H   0  0  0  0  0  0
  -27.4203  -29.7297   25.4692 H   0  0  0  0  0  0
  -27.8807  -30.4295   23.9347 H   0  0  0  0  0  0
  -27.2608  -33.3667   26.2050 H   0  0  0  0  0  0
  -28.3875  -32.6937   25.0366 H   0  0  0  0  0  0
  -28.0713  -31.8566   26.5513 H   0  0  0  0  0  0
  -28.2543  -38.0099   24.7488 H   0  0  0  0  0  0
  -28.1068  -36.2617   24.6286 H   0  0  0  0  0  0
  -27.2265  -37.1402   25.8860 H   0  0  0  0  0  0
  -20.9398  -29.8769   21.6894 H   0  0  0  0  0  0
  -26.0113  -38.2777   24.1506 H   0  0  0  0  0  0
  -31.5595  -18.7871   23.8335 H   0  0  0  0  0  0
  -30.5581  -20.5275   22.4291 H   0  0  0  0  0  0
  -31.7813  -16.5081   24.4528 H   0  0  0  0  0  0
  -32.3642  -15.6525   23.0319 H   0  0  0  0  0  0
  -30.7719  -15.2850   23.6809 H   0  0  0  0  0  0
  -29.3651  -25.3031   22.1174 H   0  0  0  0  0  0
  -29.8311  -23.6226   22.2391 H   0  0  0  0  0  0
  -30.7089  -24.6990   21.1513 H   0  0  0  0  0  0
  -30.6478  -21.9274   18.3089 H   0  0  0  0  0  0
  -31.3002  -22.8922   19.6194 H   0  0  0  0  0  0
  -30.5321  -23.6503   18.2302 H   0  0  0  0  0  0
  -28.1394  -19.8887   19.7091 H   0  0  0  0  0  0
  -29.7491  -20.1286   19.1025 H   0  0  0  0  0  0
  -27.8645  -25.1661   18.6704 H   0  0  0  0  0  0
  -29.5297  -25.4974   18.9063 H   0  0  0  0  0  0
  -27.7684  -23.9720   20.8544 H   0  0  0  0  0  0
  -28.3385  -22.5747   18.9192 H   0  0  0  0  0  0
  -28.9764  -15.1449   21.4301 H   0  0  0  0  0  0
  -29.8553  -21.6178   21.2317 H   0  0  0  0  0  0
  -28.2378  -21.5789   21.1308 H   0  0  0  0  0  0
  1 25  1  0  0  0
  1 30  2  0  0  0
  1 84  1  0  0  0
  2  3  1  0  0  0
  2 25  1  0  0  0
  2 86  1  0  0  0
  2 87  1  0  0  0
  3  4  1  0  0  0
  3 88  1  0  0  0
  3 89  1  0  0  0
  4  5  1  0  0  0
  4 90  1  0  0  0
  4 91  1  0  0  0
  5  6  1  0  0  0
  5 26  1  0  0  0
  5 92  1  0  0  0
  6 25  1  0  0  0
  6 93  1  0  0  0
  6 94  1  0  0  0
  7  8  2  0  0  0
  7 26  1  0  0  0
  7 29  1  0  0  0
  8  9  1  0  0  0
  8 22  1  0  0  0
  9 10  1  0  0  0
  9 27  2  0  0  0
 10 11  2  0  0  0
 10 15  1  0  0  0
 11 12  1  0  0  0
 11 95  1  0  0  0
 12 13  2  0  0  0
 12 96  1  0  0  0
 13 14  1  0  0  0
 13 31  1  0  0  0
 14 15  2  0  0  0
 14 97  1  0  0  0
 15 98  1  0  0  0
 16 17  2  0  0  0
 16 21  1  0  0  0
 16 31  1  0  0  0
 17 18  1  0  0  0
 17 99  1  0  0  0
 18 19  2  0  0  0
 18100  1  0  0  0
 19 20  1  0  0  0
 19 24  1  0  0  0
 20 21  2  0  0  0
 20101  1  0  0  0
 21 23  1  0  0  0
 22 28  1  0  0  0
 22 32  2  0  0  0
 26 27  1  0  0  0
 28102  1  0  0  0
 28103  1  0  0  0
 29104  1  0  0  0
 29105  1  0  0  0
 33 34  1  0  0  0
 33 66  1  0  0  0
 33 70  2  0  0  0
 34 36  1  0  0  0
 34 59  1  0  0  0
 34106  1  0  0  0
 35 44  2  0  0  0
 35 45  1  0  0  0
 35 68  1  0  0  0
 36 56  1  0  0  0
 36107  1  0  0  0
 37 39  1  0  0  0
 37 47  1  0  0  0
 37 66  1  0  0  0
 37108  1  0  0  0
 38 43  2  0  0  0
 38 46  1  0  0  0
 38 47  1  0  0  0
 39 64  1  0  0  0
 39 67  2  0  0  0
 40 52  1  0  0  0
 40 53  2  0  0  0
 40 58  1  0  0  0
 41109  1  0  0  0
 41110  1  0  0  0
 41111  1  0  0  0
 41 48  1  0  0  0
 42 43  1  0  0  0
 42 66  1  0  0  0
 42112  1  0  0  0
 42113  1  0  0  0
 43 44  1  0  0  0
 44114  1  0  0  0
 45 46  2  0  0  0
 45115  1  0  0  0
 46116  1  0  0  0
 47117  1  0  0  0
 47118  1  0  0  0
 48 56  1  0  0  0
 48 65  1  0  0  0
 48119  1  0  0  0
 49 50  1  0  0  0
 49 53  1  0  0  0
 49 64  1  0  0  0
 49120  1  0  0  0
 50 51  1  0  0  0
 50121  1  0  0  0
 50122  1  0  0  0
 51 52  1  0  0  0
 51123  1  0  0  0
 51124  1  0  0  0
 52125  1  0  0  0
 52126  1  0  0  0
 53 54  1  0  0  0
 54 55  2  0  0  0
 54127  1  0  0  0
 55 57  1  0  0  0
 55128  1  0  0  0
 56 69  2  0  0  0
 57 58  2  0  0  0
 57129  1  0  0  0
 58130  1  0  0  0
 59 60  1  0  0  0
 59 61  1  0  0  0
 59 62  1  0  0  0
 60131  1  0  0  0
 60132  1  0  0  0
 60133  1  0  0  0
 61134  1  0  0  0
 61135  1  0  0  0
 61136  1  0  0  0
 62137  1  0  0  0
 62138  1  0  0  0
 62139  1  0  0  0
 63 65  1  0  0  0
 63140  1  0  0  0
 63141  1  0  0  0
 63142  1  0  0  0
 64143  1  0  0  0
 65144  1  0  0  0
 68 80  1  0  0  0
 71 72  2  0  0  0
 71 73  1  0  0  0
 71145  1  0  0  0
 72 74  1  0  0  0
 72146  1  0  0  0
 73 75  2  0  0  0
 73 76  1  0  0  0
 74 79  1  0  0  0
 74 83  2  0  0  0
 75 83  1  0  0  0
 75 84  1  0  0  0
 76147  1  0  0  0
 76148  1  0  0  0
 76149  1  0  0  0
 77150  1  0  0  0
 77151  1  0  0  0
 77152  1  0  0  0
 77 81  1  0  0  0
 78153  1  0  0  0
 78154  1  0  0  0
 78155  1  0  0  0
 78 82  1  0  0  0
 79 85  1  0  0  0
 79156  1  0  0  0
 79157  1  0  0  0
 80 81  1  0  0  0
 80158  1  0  0  0
 80159  1  0  0  0
 81 82  1  0  0  0
 81160  1  0  0  0
 82 85  1  0  0  0
 82161  1  0  0  0
 84162  1  0  0  0
 85163  1  0  0  0
 85164  1  0  0  0
M  CHG  1  85   1
M  ISO  4   1 100  68 101  80 101  84 100
M  END
> <chiral flag>
0

> <version>
0

> <s_m_source_file>
/data/baiqing/PycharmProjects/Reinvent-master-3.2/result/LINK_invent/BTK/process_docking_weight1_custom_sum_contain_oxygen_bond_distance_aromatic_linkinvent_7_9_3/rearranged_h_0116.sdf

> <i_m_source_file_index>
18

> <r_mmod_Potential_Energy-OPLS-2005>
-406.786651611328

> <r_mmod_Stretch_Energy-OPLS-2005>
52.9404258728027

> <r_mmod_Bend_Energy-OPLS-2005>
127.569915771484

> <r_mmod_Torsional_Energy-OPLS-2005>
246.664962768555

> <r_mmod_Improper_Torsional_Energy-OPLS-2005>
4.03423166275024

> <r_mmod_Van_der_Waal_Energy-OPLS-2005>
154.548629760742

> <r_mmod_Electrostatic_Energy-OPLS-2005>
-535.383666992188

> <r_mmod_Solvation_Energy-OPLS-2005>
-476.055145263672

> <b_mmod_Minimization_Converged-OPLS-2005>
0

> <r_mmod_RMS_Derivative-OPLS-2005>
4.62784624099731

$$$$
18
                    3D
 Structure written by MMmdl.
180188  0  0  1  0            999 V2000
  -30.6755  -14.4219   20.6130 C   0  0  0  0  0  0
  -30.4325  -12.2828   19.4211 C   0  0  0  0  0  0
  -29.5018  -12.5192   18.2102 C   0  0  0  0  0  0
  -28.0174  -12.3842   18.6126 C   0  0  0  0  0  0
  -27.6701  -13.1942   19.8889 C   0  0  2  0  0  0
  -28.7036  -12.9117   21.0044 C   0  0  0  0  0  0
  -25.2630  -13.8137   20.5701 C   0  0  0  0  0  0
  -24.1852  -13.0435   20.9185 C   0  0  0  0  0  0
  -24.6362  -11.6902   20.8724 C   0  0  0  0  0  0
  -23.9014  -10.4284   21.0397 C   0  0  0  0  0  0
  -24.3578   -9.4211   21.9173 C   0  0  0  0  0  0
  -23.6300   -8.2229   22.0724 C   0  0  0  0  0  0
  -22.4275   -8.0258   21.3536 C   0  0  0  0  0  0
  -21.9890   -9.0228   20.4643 C   0  0  0  0  0  0
  -22.7185  -10.2125   20.3060 C   0  0  0  0  0  0
  -21.6839   -6.0744   22.5293 C   0  0  0  0  0  0
  -21.3992   -6.5652   23.8227 C   0  0  0  0  0  0
  -21.3657   -5.6809   24.9187 C   0  0  0  0  0  0
  -21.6041   -4.3065   24.7230 C   0  0  0  0  0  0
  -21.8821   -3.8156   23.4353 C   0  0  0  0  0  0
  -21.9185   -4.6977   22.3411 C   0  0  0  0  0  0
  -22.7880  -13.5246   21.1881 C   0  0  0  0  0  0
  -22.1665   -4.2168   21.0989 F   0  0  0  0  0  0
  -21.5633   -3.4549   25.7738 F   0  0  0  0  0  0
  -30.0455  -13.2256   20.4795 N   0  0  0  0  0  0
  -26.3045  -12.9283   20.3410 N   0  0  0  0  0  0
  -25.9280  -11.6443   20.5745 N   0  0  0  0  0  0
  -22.0512  -12.8233   22.0428 N   0  0  0  0  0  0
  -25.4406  -15.1853   20.4097 N   0  0  0  0  0  0
  -31.7674  -14.6806   20.0934 O   0  0  0  0  0  0
  -21.6622   -6.8877   21.4254 O   0  0  0  0  0  0
  -22.3579  -14.5571   20.6744 O   0  0  0  0  0  0
  -24.6099  -31.8724   23.2132 C   0  0  0  0  0  0
  -25.9011  -32.4845   23.8411 C   0  0  1  0  0  0
  -27.2314  -27.4796   20.0735 C   0  0  0  0  0  0
  -25.5887  -33.8638   24.2336 N   0  0  0  0  0  0
  -23.3944  -30.4960   21.5540 C   0  0  2  0  0  0
  -24.8395  -28.9611   20.1194 C   0  0  0  0  0  0
  -22.7381  -29.4663   22.5027 C   0  0  0  0  0  0
  -18.0255  -28.1361   22.8489 C   0  0  0  0  0  0
  -24.1482  -36.7332   23.2629 C   0  0  0  0  0  0
  -25.9185  -30.8462   21.3605 C   0  0  0  0  0  0
  -25.9949  -29.4800   20.7170 C   0  0  0  0  0  0
  -27.1947  -28.7407   20.7032 C   0  0  0  0  0  0
  -26.0609  -26.9526   19.4954 C   0  0  0  0  0  0
  -24.8626  -27.6913   19.5129 C   0  0  0  0  0  0
  -23.6008  -29.8260   20.1685 C   0  0  0  0  0  0
  -25.4090  -36.3120   24.0343 C   0  0  1  0  0  0
  -20.5844  -28.3637   23.1343 C   0  0  2  0  0  0
  -20.6742  -26.9385   22.5429 C   0  0  0  0  0  0
  -19.5733  -26.6382   21.5202 C   0  0  0  0  0  0
  -18.1903  -26.7912   22.1608 C   0  0  0  0  0  0
  -19.1505  -28.8816   23.2913 C   0  0  0  0  0  0
  -18.9439  -30.1423   23.8930 C   0  0  0  0  0  0
  -17.6445  -30.6581   24.0562 C   0  0  0  0  0  0
  -25.9026  -34.9497   23.5137 C   0  0  0  0  0  0
  -16.5336  -29.9083   23.6314 C   0  0  0  0  0  0
  -16.7246  -28.6493   23.0342 C   0  0  0  0  0  0
  -26.4462  -31.6607   25.0715 C   0  0  0  0  0  0
  -25.3766  -31.3778   26.1528 C   0  0  0  0  0  0
  -27.0191  -30.3017   24.6052 C   0  0  0  0  0  0
  -27.6115  -32.4286   25.7399 C   0  0  0  0  0  0
  -27.5614  -37.1750   24.8425 C   0  0  0  0  0  0
  -21.4119  -29.3008   22.3749 N   0  0  0  0  0  0
  -26.4258  -37.3828   23.9478 N   0  0  0  0  0  0
  -24.6587  -31.0855   22.1013 N   0  0  0  0  0  0
  -23.4180  -28.8215   23.3050 O   0  0  0  0  0  0
  -28.3959  -26.7658   19.9868 O   0  0  0  0  0  0
  -26.5589  -34.8942   22.4699 O   0  0  0  0  0  0
  -23.5302  -32.1459   23.7552 O   0  0  0  0  0  0
  -29.9692  -18.9132   23.7427 C   0  0  0  0  0  0
  -29.8621  -17.7465   22.9613 C   0  0  0  0  0  0
  -30.1398  -20.1634   23.1048 C   0  0  0  0  0  0
  -29.9478  -17.8688   21.5637 C   0  0  0  0  0  0
  -30.1937  -20.1795   21.6940 C   0  0  0  0  0  0
  -31.7255  -21.7045   24.3221 C   0  0  0  0  0  0
  -29.3221  -21.5298   25.1211 C   0  0  0  0  0  0
  -31.7734  -27.8265   18.6446 C   0  0  0  0  0  0
  -30.8841  -27.8596   20.9721 C   0  0  0  0  0  0
  -29.8052  -16.7077   20.6000 C   0  0  0  0  0  0
  -29.9093  -22.8018   19.0877 C   0  0  0  0  0  0
  -31.2655  -23.4236   18.7010 C   0  0  0  0  0  0
  -31.1282  -25.6523   19.7894 C   0  0  0  0  0  0
  -30.0227  -21.3647   19.6096 C   0  0  0  0  0  0
  -29.3371  -27.3337   19.0794 C   0  0  0  0  0  0
  -30.2674  -21.4586   23.9077 C   0  0  0  0  0  0
  -30.7778  -27.1514   19.6062 C   0  0  0  0  0  0
  -30.1085  -19.0548   20.9558 N   0  0  0  0  0  0
  -29.9144  -15.3688   21.1678 N   0  0  0  0  0  0
  -31.1763  -24.8881   18.5190 N   0  3  0  0  0  0
  -30.3260  -21.3711   21.0074 O   0  0  0  0  0  0
  -31.4781  -12.3969   19.1307 H   0  0  0  0  0  0
  -30.3342  -11.2594   19.7854 H   0  0  0  0  0  0
  -29.7357  -11.8151   17.4108 H   0  0  0  0  0  0
  -29.6802  -13.5144   17.7976 H   0  0  0  0  0  0
  -27.8116  -11.3261   18.7831 H   0  0  0  0  0  0
  -27.3702  -12.6881   17.7893 H   0  0  0  0  0  0
  -27.7318  -14.2507   19.6239 H   0  0  0  0  0  0
  -28.6693  -11.8590   21.2906 H   0  0  0  0  0  0
  -28.4588  -13.4606   21.9140 H   0  0  0  0  0  0
  -25.2720   -9.5716   22.4741 H   0  0  0  0  0  0
  -24.0045   -7.4600   22.7405 H   0  0  0  0  0  0
  -21.0827   -8.8724   19.8953 H   0  0  0  0  0  0
  -22.3621  -10.9651   19.6171 H   0  0  0  0  0  0
  -21.1978   -7.6164   23.9735 H   0  0  0  0  0  0
  -21.1485   -6.0533   25.9097 H   0  0  0  0  0  0
  -22.0597   -2.7622   23.2830 H   0  0  0  0  0  0
  -22.4111  -11.9897   22.4838 H   0  0  0  0  0  0
  -21.1143  -13.1276   22.2658 H   0  0  0  0  0  0
  -24.6735  -15.8433   20.4991 H   0  0  0  0  0  0
  -26.2982  -15.6151   20.0846 H   0  0  0  0  0  0
  -26.7079  -32.5580   23.1175 H   0  0  0  0  0  0
  -24.9977  -33.9803   25.0440 H   0  0  0  0  0  0
  -22.6778  -31.3101   21.4184 H   0  0  0  0  0  0
  -23.3770  -35.9634   23.3194 H   0  0  0  0  0  0
  -24.3607  -36.9034   22.2068 H   0  0  0  0  0  0
  -23.7178  -37.6489   23.6686 H   0  0  0  0  0  0
  -26.0171  -31.6055   20.5836 H   0  0  0  0  0  0
  -26.8131  -30.9104   21.9684 H   0  0  0  0  0  0
  -28.0894  -29.1411   21.1573 H   0  0  0  0  0  0
  -26.0870  -25.9872   19.0110 H   0  0  0  0  0  0
  -23.9727  -27.2867   19.0493 H   0  0  0  0  0  0
  -23.7081  -30.6001   19.4079 H   0  0  0  0  0  0
  -22.7252  -29.2447   19.8751 H   0  0  0  0  0  0
  -25.1238  -36.1953   25.0821 H   0  0  0  0  0  0
  -20.9941  -28.3206   24.1468 H   0  0  0  0  0  0
  -20.5629  -26.2254   23.3614 H   0  0  0  0  0  0
  -21.6618  -26.7412   22.1256 H   0  0  0  0  0  0
  -19.6900  -25.6296   21.1221 H   0  0  0  0  0  0
  -19.6692  -27.3217   20.6753 H   0  0  0  0  0  0
  -17.4190  -26.6672   21.3995 H   0  0  0  0  0  0
  -18.0307  -26.0047   22.9001 H   0  0  0  0  0  0
  -19.7917  -30.7205   24.2344 H   0  0  0  0  0  0
  -17.5009  -31.6265   24.5171 H   0  0  0  0  0  0
  -15.5339  -30.2994   23.7617 H   0  0  0  0  0  0
  -15.8646  -28.0826   22.7034 H   0  0  0  0  0  0
  -24.5854  -30.7194   25.7921 H   0  0  0  0  0  0
  -24.9054  -32.2971   26.5022 H   0  0  0  0  0  0
  -25.8147  -30.8914   27.0251 H   0  0  0  0  0  0
  -26.2628  -29.6830   24.1203 H   0  0  0  0  0  0
  -27.4016  -29.7225   25.4461 H   0  0  0  0  0  0
  -27.8481  -30.4263   23.9080 H   0  0  0  0  0  0
  -27.2823  -33.3615   26.1979 H   0  0  0  0  0  0
  -28.3880  -32.6790   25.0160 H   0  0  0  0  0  0
  -28.0829  -31.8402   26.5275 H   0  0  0  0  0  0
  -28.2509  -38.0175   24.7674 H   0  0  0  0  0  0
  -28.1207  -36.2717   24.5921 H   0  0  0  0  0  0
  -27.2397  -37.1035   25.8833 H   0  0  0  0  0  0
  -20.9267  -29.8715   21.6972 H   0  0  0  0  0  0
  -26.0136  -38.2867   24.1639 H   0  0  0  0  0  0
  -29.9121  -18.8371   24.8186 H   0  0  0  0  0  0
  -29.7105  -16.7880   23.4356 H   0  0  0  0  0  0
  -32.3675  -21.8108   23.4456 H   0  0  0  0  0  0
  -32.1151  -20.8815   24.9224 H   0  0  0  0  0  0
  -31.8229  -22.6164   24.9108 H   0  0  0  0  0  0
  -28.2850  -21.3639   24.8246 H   0  0  0  0  0  0
  -29.3710  -22.5129   25.5903 H   0  0  0  0  0  0
  -29.5795  -20.7995   25.8878 H   0  0  0  0  0  0
  -32.8045  -27.6420   18.9505 H   0  0  0  0  0  0
  -31.6292  -28.9074   18.6230 H   0  0  0  0  0  0
  -31.6596  -27.4730   17.6185 H   0  0  0  0  0  0
  -31.8973  -27.8078   21.3708 H   0  0  0  0  0  0
  -30.2157  -27.4147   21.7102 H   0  0  0  0  0  0
  -30.6187  -28.9147   20.8916 H   0  0  0  0  0  0
  -30.5069  -16.8498   19.7754 H   0  0  0  0  0  0
  -28.8110  -16.7857   20.1565 H   0  0  0  0  0  0
  -29.2659  -22.8120   18.2067 H   0  0  0  0  0  0
  -29.3851  -23.3881   19.8411 H   0  0  0  0  0  0
  -31.5997  -22.9793   17.7607 H   0  0  0  0  0  0
  -32.0329  -23.1919   19.4416 H   0  0  0  0  0  0
  -30.3979  -25.2102   20.4657 H   0  0  0  0  0  0
  -32.0936  -25.5431   20.2859 H   0  0  0  0  0  0
  -30.7774  -20.8053   19.0542 H   0  0  0  0  0  0
  -29.0603  -20.8755   19.4500 H   0  0  0  0  0  0
  -29.2145  -26.8487   18.1096 H   0  0  0  0  0  0
  -29.1528  -28.3958   18.9027 H   0  0  0  0  0  0
  -29.9747  -22.2839   23.2579 H   0  0  0  0  0  0
  -29.0951  -15.0442   21.6580 H   0  0  0  0  0  0
  -30.3722  -25.1002   17.9520 H   0  0  0  0  0  0
  -31.9918  -25.1839   18.0045 H   0  0  0  0  0  0
  1 25  1  0  0  0
  1 30  2  0  0  0
  1 89  1  0  0  0
  2  3  1  0  0  0
  2 25  1  0  0  0
  2 92  1  0  0  0
  2 93  1  0  0  0
  3  4  1  0  0  0
  3 94  1  0  0  0
  3 95  1  0  0  0
  4  5  1  0  0  0
  4 96  1  0  0  0
  4 97  1  0  0  0
  5  6  1  0  0  0
  5 26  1  0  0  0
  5 98  1  0  0  0
  6 25  1  0  0  0
  6 99  1  0  0  0
  6100  1  0  0  0
  7  8  2  0  0  0
  7 26  1  0  0  0
  7 29  1  0  0  0
  8  9  1  0  0  0
  8 22  1  0  0  0
  9 10  1  0  0  0
  9 27  2  0  0  0
 10 11  2  0  0  0
 10 15  1  0  0  0
 11 12  1  0  0  0
 11101  1  0  0  0
 12 13  2  0  0  0
 12102  1  0  0  0
 13 14  1  0  0  0
 13 31  1  0  0  0
 14 15  2  0  0  0
 14103  1  0  0  0
 15104  1  0  0  0
 16 17  2  0  0  0
 16 21  1  0  0  0
 16 31  1  0  0  0
 17 18  1  0  0  0
 17105  1  0  0  0
 18 19  2  0  0  0
 18106  1  0  0  0
 19 20  1  0  0  0
 19 24  1  0  0  0
 20 21  2  0  0  0
 20107  1  0  0  0
 21 23  1  0  0  0
 22 28  1  0  0  0
 22 32  2  0  0  0
 26 27  1  0  0  0
 28108  1  0  0  0
 28109  1  0  0  0
 29110  1  0  0  0
 29111  1  0  0  0
 33 34  1  0  0  0
 33 66  1  0  0  0
 33 70  2  0  0  0
 34 36  1  0  0  0
 34 59  1  0  0  0
 34112  1  0  0  0
 35 44  2  0  0  0
 35 45  1  0  0  0
 35 68  1  0  0  0
 36 56  1  0  0  0
 36113  1  0  0  0
 37 39  1  0  0  0
 37 47  1  0  0  0
 37 66  1  0  0  0
 37114  1  0  0  0
 38 43  2  0  0  0
 38 46  1  0  0  0
 38 47  1  0  0  0
 39 64  1  0  0  0
 39 67  2  0  0  0
 40 52  1  0  0  0
 40 53  2  0  0  0
 40 58  1  0  0  0
 41115  1  0  0  0
 41116  1  0  0  0
 41117  1  0  0  0
 41 48  1  0  0  0
 42 43  1  0  0  0
 42 66  1  0  0  0
 42118  1  0  0  0
 42119  1  0  0  0
 43 44  1  0  0  0
 44120  1  0  0  0
 45 46  2  0  0  0
 45121  1  0  0  0
 46122  1  0  0  0
 47123  1  0  0  0
 47124  1  0  0  0
 48 56  1  0  0  0
 48 65  1  0  0  0
 48125  1  0  0  0
 49 50  1  0  0  0
 49 53  1  0  0  0
 49 64  1  0  0  0
 49126  1  0  0  0
 50 51  1  0  0  0
 50127  1  0  0  0
 50128  1  0  0  0
 51 52  1  0  0  0
 51129  1  0  0  0
 51130  1  0  0  0
 52131  1  0  0  0
 52132  1  0  0  0
 53 54  1  0  0  0
 54 55  2  0  0  0
 54133  1  0  0  0
 55 57  1  0  0  0
 55134  1  0  0  0
 56 69  2  0  0  0
 57 58  2  0  0  0
 57135  1  0  0  0
 58136  1  0  0  0
 59 60  1  0  0  0
 59 61  1  0  0  0
 59 62  1  0  0  0
 60137  1  0  0  0
 60138  1  0  0  0
 60139  1  0  0  0
 61140  1  0  0  0
 61141  1  0  0  0
 61142  1  0  0  0
 62143  1  0  0  0
 62144  1  0  0  0
 62145  1  0  0  0
 63 65  1  0  0  0
 63146  1  0  0  0
 63147  1  0  0  0
 63148  1  0  0  0
 64149  1  0  0  0
 65150  1  0  0  0
 68 85  1  0  0  0
 71 72  2  0  0  0
 71 73  1  0  0  0
 71151  1  0  0  0
 72 74  1  0  0  0
 72152  1  0  0  0
 73 75  2  0  0  0
 73 86  1  0  0  0
 74 80  1  0  0  0
 74 88  2  0  0  0
 75 88  1  0  0  0
 75 91  1  0  0  0
 76153  1  0  0  0
 76154  1  0  0  0
 76155  1  0  0  0
 76 86  1  0  0  0
 77 86  1  0  0  0
 77156  1  0  0  0
 77157  1  0  0  0
 77158  1  0  0  0
 78159  1  0  0  0
 78160  1  0  0  0
 78161  1  0  0  0
 78 87  1  0  0  0
 79 87  1  0  0  0
 79162  1  0  0  0
 79163  1  0  0  0
 79164  1  0  0  0
 80 89  1  0  0  0
 80165  1  0  0  0
 80166  1  0  0  0
 81 82  1  0  0  0
 81 84  1  0  0  0
 81167  1  0  0  0
 81168  1  0  0  0
 82 90  1  0  0  0
 82169  1  0  0  0
 82170  1  0  0  0
 83 87  1  0  0  0
 83 90  1  0  0  0
 83171  1  0  0  0
 83172  1  0  0  0
 84 91  1  0  0  0
 84173  1  0  0  0
 84174  1  0  0  0
 85 87  1  0  0  0
 85175  1  0  0  0
 85176  1  0  0  0
 86177  1  0  0  0
 89178  1  0  0  0
 90179  1  0  0  0
 90180  1  0  0  0
M  CHG  1  90   1
M  ISO  4   1 100  68 101  85 101  89 100
M  END
> <chiral flag>
0

> <version>
0

> <s_m_source_file>
/data/baiqing/PycharmProjects/Reinvent-master-3.2/result/LINK_invent/BTK/process_docking_weight1_custom_sum_contain_oxygen_bond_distance_aromatic_linkinvent_7_9_3/rearranged_h_0116.sdf

> <i_m_source_file_index>
19

> <r_mmod_Potential_Energy-OPLS-2005>
-465.896148681641

> <r_mmod_Stretch_Energy-OPLS-2005>
33.3501396179199

> <r_mmod_Bend_Energy-OPLS-2005>
101.238838195801

> <r_mmod_Torsional_Energy-OPLS-2005>
256.045684814453

> <r_mmod_Improper_Torsional_Energy-OPLS-2005>
7.42958450317383

> <r_mmod_Van_der_Waal_Energy-OPLS-2005>
168.281326293945

> <r_mmod_Electrostatic_Energy-OPLS-2005>
-592.564392089844

> <r_mmod_Solvation_Energy-OPLS-2005>
-448.392883300781

> <b_mmod_Minimization_Converged-OPLS-2005>
0

> <r_mmod_RMS_Derivative-OPLS-2005>
3.23679304122925

$$$$
19
                    3D
 Structure written by MMmdl.
168176  0  0  1  0            999 V2000
  -30.7009  -14.7372   20.2802 C   0  0  0  0  0  0
  -30.4208  -12.4294   19.4370 C   0  0  0  0  0  0
  -29.4904  -12.4421   18.2118 C   0  0  0  0  0  0
  -28.0307  -12.2621   18.6702 C   0  0  0  0  0  0
  -27.6445  -13.2051   19.8434 C   0  0  2  0  0  0
  -28.7191  -13.2664   20.9474 C   0  0  0  0  0  0
  -25.2647  -13.8100   20.6015 C   0  0  0  0  0  0
  -24.1853  -13.0392   20.9254 C   0  0  0  0  0  0
  -24.6401  -11.6867   20.8747 C   0  0  0  0  0  0
  -23.9067  -10.4267   21.0409 C   0  0  0  0  0  0
  -24.3624   -9.4193   21.9206 C   0  0  0  0  0  0
  -23.6287   -8.2244   22.0770 C   0  0  0  0  0  0
  -22.4262   -8.0314   21.3544 C   0  0  0  0  0  0
  -21.9908   -9.0284   20.4634 C   0  0  0  0  0  0
  -22.7253  -10.2152   20.3046 C   0  0  0  0  0  0
  -21.6853   -6.0765   22.5286 C   0  0  0  0  0  0
  -21.4027   -6.5656   23.8230 C   0  0  0  0  0  0
  -21.3662   -5.6806   24.9182 C   0  0  0  0  0  0
  -21.6031   -4.3064   24.7241 C   0  0  0  0  0  0
  -21.8810   -3.8167   23.4359 C   0  0  0  0  0  0
  -21.9189   -4.6985   22.3417 C   0  0  0  0  0  0
  -22.7868  -13.5214   21.1917 C   0  0  0  0  0  0
  -22.1644   -4.2172   21.0994 F   0  0  0  0  0  0
  -21.5611   -3.4539   25.7744 F   0  0  0  0  0  0
  -29.9911  -13.5617   20.2736 N   0  0  0  0  0  0
  -26.3029  -12.9284   20.3458 N   0  0  0  0  0  0
  -25.9332  -11.6446   20.5818 N   0  0  0  0  0  0
  -22.0460  -12.8226   22.0422 N   0  0  0  0  0  0
  -25.4462  -15.1836   20.4949 N   0  0  0  0  0  0
  -31.9243  -14.6679   20.4097 O   0  0  0  0  0  0
  -21.6625   -6.8916   21.4248 O   0  0  0  0  0  0
  -22.3603  -14.5563   20.6799 O   0  0  0  0  0  0
  -24.6284  -31.8602   23.2035 C   0  0  0  0  0  0
  -25.9128  -32.4767   23.8374 C   0  0  1  0  0  0
  -27.2344  -27.3239   20.1017 C   0  0  0  0  0  0
  -25.5939  -33.8567   24.2287 N   0  0  0  0  0  0
  -23.4215  -30.4841   21.5461 C   0  0  2  0  0  0
  -24.8665  -28.9393   20.1093 C   0  0  0  0  0  0
  -22.7495  -29.4651   22.4950 C   0  0  0  0  0  0
  -18.0359  -28.1334   22.8494 C   0  0  0  0  0  0
  -24.1491  -36.7276   23.2638 C   0  0  0  0  0  0
  -25.9624  -30.7927   21.3721 C   0  0  0  0  0  0
  -26.0355  -29.4209   20.7120 C   0  0  0  0  0  0
  -27.2166  -28.6229   20.7029 C   0  0  0  0  0  0
  -26.0299  -26.8824   19.5050 C   0  0  0  0  0  0
  -24.8649  -27.6749   19.4994 C   0  0  0  0  0  0
  -23.6299  -29.8153   20.1626 C   0  0  0  0  0  0
  -25.4111  -36.3065   24.0332 C   0  0  1  0  0  0
  -20.5939  -28.3720   23.1340 C   0  0  2  0  0  0
  -20.6885  -26.9449   22.5450 C   0  0  0  0  0  0
  -19.5904  -26.6491   21.5184 C   0  0  0  0  0  0
  -18.2077  -26.7900   22.1590 C   0  0  0  0  0  0
  -19.1570  -28.8830   23.2923 C   0  0  0  0  0  0
  -18.9442  -30.1427   23.8928 C   0  0  0  0  0  0
  -17.6413  -30.6542   24.0499 C   0  0  0  0  0  0
  -25.9049  -34.9435   23.5100 C   0  0  0  0  0  0
  -16.5332  -29.8986   23.6273 C   0  0  0  0  0  0
  -16.7318  -28.6391   23.0335 C   0  0  0  0  0  0
  -26.4518  -31.6588   25.0754 C   0  0  0  0  0  0
  -25.3762  -31.3707   26.1482 C   0  0  0  0  0  0
  -27.0358  -30.3011   24.6217 C   0  0  0  0  0  0
  -27.6096  -32.4315   25.7511 C   0  0  0  0  0  0
  -27.5564  -37.1784   24.8462 C   0  0  0  0  0  0
  -21.4205  -29.3101   22.3723 N   0  0  0  0  0  0
  -26.4277  -37.3757   23.9406 N   0  0  0  0  0  0
  -24.6901  -31.0623   22.0974 N   0  0  0  0  0  0
  -23.4211  -28.8140   23.2991 O   0  0  0  0  0  0
  -28.3725  -26.5014   20.1719 O   0  0  0  0  0  0
  -26.5613  -34.8896   22.4663 O   0  0  0  0  0  0
  -23.5447  -32.1387   23.7371 O   0  0  0  0  0  0
  -30.1245  -22.0300   20.7783 C   0  0  0  0  0  0
  -28.0530  -21.4698   19.7100 C   0  0  0  0  0  0
  -29.9008  -23.4179   20.4853 C   0  0  0  0  0  0
  -27.8258  -22.8507   19.4261 C   0  0  0  0  0  0
  -29.2084  -21.0100   20.3963 C   0  0  0  0  0  0
  -28.7380  -23.8706   19.8033 C   0  0  0  0  0  0
  -27.6239  -16.3743   17.9498 C   0  0  0  0  0  0
  -29.0097  -18.3975   17.4877 C   0  0  0  0  0  0
  -31.3183  -17.9752   21.3056 C   0  0  0  0  0  0
  -31.0226  -15.9421   18.1953 C   0  0  0  0  0  0
  -29.3013  -19.5211   20.9191 C   0  0  0  0  0  0
  -28.5590  -25.3469   19.2718 C   0  0  0  0  0  0
  -28.4531  -17.4838   18.6129 C   0  0  0  0  0  0
  -30.2268  -18.3599   20.2862 C   0  0  2  0  0  0
  -29.4490  -17.0408   19.7659 C   0  0  1  0  0  0
  -30.2482  -15.7672   19.4460 N   0  0  0  0  0  0
  -30.3325  -11.4932   19.9905 H   0  0  0  0  0  0
  -31.4648  -12.5105   19.1263 H   0  0  0  0  0  0
  -29.7713  -11.6436   17.5231 H   0  0  0  0  0  0
  -29.5953  -13.3802   17.6637 H   0  0  0  0  0  0
  -27.9219  -11.2236   18.9901 H   0  0  0  0  0  0
  -27.3510  -12.3895   17.8276 H   0  0  0  0  0  0
  -27.6173  -14.1941   19.4168 H   0  0  0  0  0  0
  -28.4796  -14.0667   21.6548 H   0  0  0  0  0  0
  -28.7770  -12.3373   21.5173 H   0  0  0  0  0  0
  -25.2774   -9.5685   22.4781 H   0  0  0  0  0  0
  -23.9969   -7.4637   22.7518 H   0  0  0  0  0  0
  -21.0825   -8.8863   19.8954 H   0  0  0  0  0  0
  -22.3753  -10.9718   19.6160 H   0  0  0  0  0  0
  -21.2043   -7.6162   23.9748 H   0  0  0  0  0  0
  -21.1463   -6.0528   25.9085 H   0  0  0  0  0  0
  -22.0584   -2.7630   23.2864 H   0  0  0  0  0  0
  -22.3978  -11.9834   22.4794 H   0  0  0  0  0  0
  -21.1123  -13.1364   22.2655 H   0  0  0  0  0  0
  -24.7149  -15.8576   20.6861 H   0  0  0  0  0  0
  -26.3485  -15.6118   20.3362 H   0  0  0  0  0  0
  -26.7222  -32.5418   23.1141 H   0  0  0  0  0  0
  -25.0119  -33.9720   25.0452 H   0  0  0  0  0  0
  -22.7179  -31.3065   21.4029 H   0  0  0  0  0  0
  -23.3745  -35.9611   23.3310 H   0  0  0  0  0  0
  -24.3593  -36.8871   22.2047 H   0  0  0  0  0  0
  -23.7240  -37.6477   23.6664 H   0  0  0  0  0  0
  -26.0994  -31.5613   20.6097 H   0  0  0  0  0  0
  -26.8428  -30.8351   22.0015 H   0  0  0  0  0  0
  -28.1158  -28.9895   21.1784 H   0  0  0  0  0  0
  -25.9411  -25.9002   19.0664 H   0  0  0  0  0  0
  -23.9624  -27.2935   19.0406 H   0  0  0  0  0  0
  -23.7331  -30.5883   19.4014 H   0  0  0  0  0  0
  -22.7527  -29.2356   19.8712 H   0  0  0  0  0  0
  -25.1289  -36.1913   25.0823 H   0  0  0  0  0  0
  -21.0061  -28.3324   24.1454 H   0  0  0  0  0  0
  -20.5734  -26.2295   23.3608 H   0  0  0  0  0  0
  -21.6774  -26.7493   22.1273 H   0  0  0  0  0  0
  -19.6833  -27.3462   20.6841 H   0  0  0  0  0  0
  -19.7152  -25.6483   21.1041 H   0  0  0  0  0  0
  -18.0533  -26.0001   22.8958 H   0  0  0  0  0  0
  -17.4377  -26.6611   21.3967 H   0  0  0  0  0  0
  -19.7891  -30.7280   24.2299 H   0  0  0  0  0  0
  -17.4926  -31.6253   24.5051 H   0  0  0  0  0  0
  -15.5311  -30.2827   23.7595 H   0  0  0  0  0  0
  -15.8750  -28.0633   22.7085 H   0  0  0  0  0  0
  -24.5979  -30.7007   25.7815 H   0  0  0  0  0  0
  -24.8911  -32.2854   26.4905 H   0  0  0  0  0  0
  -25.8099  -30.8908   27.0266 H   0  0  0  0  0  0
  -26.2937  -29.6754   24.1257 H   0  0  0  0  0  0
  -27.4058  -29.7273   25.4727 H   0  0  0  0  0  0
  -27.8814  -30.4284   23.9452 H   0  0  0  0  0  0
  -27.2757  -33.3632   26.2088 H   0  0  0  0  0  0
  -28.3919  -32.6829   25.0340 H   0  0  0  0  0  0
  -28.0786  -31.8445   26.5413 H   0  0  0  0  0  0
  -28.2590  -38.0078   24.7503 H   0  0  0  0  0  0
  -28.1059  -36.2599   24.6313 H   0  0  0  0  0  0
  -27.2298  -37.1462   25.8875 H   0  0  0  0  0  0
  -20.9360  -29.8925   21.7032 H   0  0  0  0  0  0
  -26.0157  -38.2825   24.1413 H   0  0  0  0  0  0
  -31.0113  -21.7571   21.3377 H   0  0  0  0  0  0
  -27.2925  -20.7582   19.4203 H   0  0  0  0  0  0
  -30.6459  -24.1451   20.7763 H   0  0  0  0  0  0
  -26.9309  -23.1225   18.8841 H   0  0  0  0  0  0
  -27.0332  -16.7600   17.1180 H   0  0  0  0  0  0
  -26.9025  -15.9901   18.6514 H   0  0  0  0  0  0
  -28.2223  -15.5520   17.5596 H   0  0  0  0  0  0
  -28.1753  -18.7825   16.8944 H   0  0  0  0  0  0
  -29.6770  -17.8835   16.7928 H   0  0  0  0  0  0
  -29.5203  -19.2907   17.8468 H   0  0  0  0  0  0
  -32.0744  -17.3278   20.8617 H   0  0  0  0  0  0
  -30.9036  -17.4586   22.1724 H   0  0  0  0  0  0
  -31.8485  -18.8567   21.6710 H   0  0  0  0  0  0
  -31.4597  -16.9351   18.1133 H   0  0  0  0  0  0
  -30.3925  -15.7810   17.3228 H   0  0  0  0  0  0
  -31.8504  -15.2414   18.0697 H   0  0  0  0  0  0
  -28.2810  -19.1525   20.9929 H   0  0  0  0  0  0
  -29.5819  -19.6271   21.9672 H   0  0  0  0  0  0
  -27.8453  -25.3377   18.4524 H   0  0  0  0  0  0
  -29.4945  -25.5593   18.7588 H   0  0  0  0  0  0
  -27.7117  -18.1033   19.1132 H   0  0  0  0  0  0
  -30.7872  -18.7907   19.4598 H   0  0  0  0  0  0
  -28.8206  -16.7249   20.5987 H   0  0  0  0  0  0
  1 25  1  0  0  0
  1 30  2  0  0  0
  1 86  1  0  0  0
  2  3  1  0  0  0
  2 25  1  0  0  0
  2 87  1  0  0  0
  2 88  1  0  0  0
  3  4  1  0  0  0
  3 89  1  0  0  0
  3 90  1  0  0  0
  4  5  1  0  0  0
  4 91  1  0  0  0
  4 92  1  0  0  0
  5  6  1  0  0  0
  5 26  1  0  0  0
  5 93  1  0  0  0
  6 25  1  0  0  0
  6 94  1  0  0  0
  6 95  1  0  0  0
  7  8  2  0  0  0
  7 26  1  0  0  0
  7 29  1  0  0  0
  8  9  1  0  0  0
  8 22  1  0  0  0
  9 10  1  0  0  0
  9 27  2  0  0  0
 10 11  2  0  0  0
 10 15  1  0  0  0
 11 12  1  0  0  0
 11 96  1  0  0  0
 12 13  2  0  0  0
 12 97  1  0  0  0
 13 14  1  0  0  0
 13 31  1  0  0  0
 14 15  2  0  0  0
 14 98  1  0  0  0
 15 99  1  0  0  0
 16 17  2  0  0  0
 16 21  1  0  0  0
 16 31  1  0  0  0
 17 18  1  0  0  0
 17100  1  0  0  0
 18 19  2  0  0  0
 18101  1  0  0  0
 19 20  1  0  0  0
 19 24  1  0  0  0
 20 21  2  0  0  0
 20102  1  0  0  0
 21 23  1  0  0  0
 22 28  1  0  0  0
 22 32  2  0  0  0
 26 27  1  0  0  0
 28103  1  0  0  0
 28104  1  0  0  0
 29105  1  0  0  0
 29106  1  0  0  0
 33 34  1  0  0  0
 33 66  1  0  0  0
 33 70  2  0  0  0
 34 36  1  0  0  0
 34 59  1  0  0  0
 34107  1  0  0  0
 35 44  2  0  0  0
 35 45  1  0  0  0
 35 68  1  0  0  0
 36 56  1  0  0  0
 36108  1  0  0  0
 37 39  1  0  0  0
 37 47  1  0  0  0
 37 66  1  0  0  0
 37109  1  0  0  0
 38 43  2  0  0  0
 38 46  1  0  0  0
 38 47  1  0  0  0
 39 64  1  0  0  0
 39 67  2  0  0  0
 40 52  1  0  0  0
 40 53  2  0  0  0
 40 58  1  0  0  0
 41110  1  0  0  0
 41111  1  0  0  0
 41112  1  0  0  0
 41 48  1  0  0  0
 42 43  1  0  0  0
 42 66  1  0  0  0
 42113  1  0  0  0
 42114  1  0  0  0
 43 44  1  0  0  0
 44115  1  0  0  0
 45 46  2  0  0  0
 45116  1  0  0  0
 46117  1  0  0  0
 47118  1  0  0  0
 47119  1  0  0  0
 48 56  1  0  0  0
 48 65  1  0  0  0
 48120  1  0  0  0
 49 50  1  0  0  0
 49 53  1  0  0  0
 49 64  1  0  0  0
 49121  1  0  0  0
 50 51  1  0  0  0
 50122  1  0  0  0
 50123  1  0  0  0
 51 52  1  0  0  0
 51124  1  0  0  0
 51125  1  0  0  0
 52126  1  0  0  0
 52127  1  0  0  0
 53 54  1  0  0  0
 54 55  2  0  0  0
 54128  1  0  0  0
 55 57  1  0  0  0
 55129  1  0  0  0
 56 69  2  0  0  0
 57 58  2  0  0  0
 57130  1  0  0  0
 58131  1  0  0  0
 59 60  1  0  0  0
 59 61  1  0  0  0
 59 62  1  0  0  0
 60132  1  0  0  0
 60133  1  0  0  0
 60134  1  0  0  0
 61135  1  0  0  0
 61136  1  0  0  0
 61137  1  0  0  0
 62138  1  0  0  0
 62139  1  0  0  0
 62140  1  0  0  0
 63 65  1  0  0  0
 63141  1  0  0  0
 63142  1  0  0  0
 63143  1  0  0  0
 64144  1  0  0  0
 65145  1  0  0  0
 68 82  1  0  0  0
 71 73  2  0  0  0
 71 75  1  0  0  0
 71146  1  0  0  0
 72 74  1  0  0  0
 72 75  2  0  0  0
 72147  1  0  0  0
 73 76  1  0  0  0
 73148  1  0  0  0
 74 76  2  0  0  0
 74149  1  0  0  0
 75 81  1  0  0  0
 76 82  1  0  0  0
 77150  1  0  0  0
 77151  1  0  0  0
 77152  1  0  0  0
 77 83  1  0  0  0
 78 83  1  0  0  0
 78153  1  0  0  0
 78154  1  0  0  0
 78155  1  0  0  0
 79156  1  0  0  0
 79157  1  0  0  0
 79158  1  0  0  0
 79 84  1  0  0  0
 80 86  1  0  0  0
 80159  1  0  0  0
 80160  1  0  0  0
 80161  1  0  0  0
 81 84  1  0  0  0
 81162  1  0  0  0
 81163  1  0  0  0
 82164  1  0  0  0
 82165  1  0  0  0
 83 85  1  0  0  0
 83166  1  0  0  0
 84 85  1  0  0  0
 84167  1  0  0  0
 85 86  1  0  0  0
 85168  1  0  0  0
M  ISO  4   1 100  68 101  82 101  86 100
M  END
> <chiral flag>
0

> <version>
0

> <s_m_source_file>
/data/baiqing/PycharmProjects/Reinvent-master-3.2/result/LINK_invent/BTK/process_docking_weight1_custom_sum_contain_oxygen_bond_distance_aromatic_linkinvent_7_9_3/rearranged_h_0116.sdf

> <i_m_source_file_index>
20

> <r_mmod_Potential_Energy-OPLS-2005>
482.578704833984

> <r_mmod_Stretch_Energy-OPLS-2005>
107.249580383301

> <r_mmod_Bend_Energy-OPLS-2005>
199.686294555664

> <r_mmod_Torsional_Energy-OPLS-2005>
370.525482177734

> <r_mmod_Improper_Torsional_Energy-OPLS-2005>
33.9626731872559

> <r_mmod_Van_der_Waal_Energy-OPLS-2005>
144.92512512207

> <r_mmod_Electrostatic_Energy-OPLS-2005>
-294.559814453125

> <r_mmod_Solvation_Energy-OPLS-2005>
-180.937423706055

> <b_mmod_Minimization_Converged-OPLS-2005>
0

> <r_mmod_RMS_Derivative-OPLS-2005>
4.89051628112793

$$$$
20
                    3D
 Structure written by MMmdl.
173181  0  0  1  0            999 V2000
  -30.7424  -14.5411   20.5881 C   0  0  0  0  0  0
  -30.4130  -12.3576   19.4528 C   0  0  0  0  0  0
  -29.4968  -12.5210   18.2254 C   0  0  0  0  0  0
  -28.0197  -12.3724   18.6319 C   0  0  0  0  0  0
  -27.6555  -13.2303   19.8737 C   0  0  2  0  0  0
  -28.7000  -13.0808   21.0052 C   0  0  0  0  0  0
  -25.2503  -13.8159   20.5584 C   0  0  0  0  0  0
  -24.1817  -13.0426   20.9185 C   0  0  0  0  0  0
  -24.6408  -11.6901   20.8743 C   0  0  0  0  0  0
  -23.9086  -10.4277   21.0376 C   0  0  0  0  0  0
  -24.3633   -9.4191   21.9160 C   0  0  0  0  0  0
  -23.6289   -8.2245   22.0745 C   0  0  0  0  0  0
  -22.4272   -8.0280   21.3534 C   0  0  0  0  0  0
  -21.9911   -9.0254   20.4640 C   0  0  0  0  0  0
  -22.7253  -10.2121   20.3029 C   0  0  0  0  0  0
  -21.6849   -6.0738   22.5270 C   0  0  0  0  0  0
  -21.4013   -6.5631   23.8208 C   0  0  0  0  0  0
  -21.3662   -5.6775   24.9167 C   0  0  0  0  0  0
  -21.6046   -4.3040   24.7213 C   0  0  0  0  0  0
  -21.8815   -3.8140   23.4329 C   0  0  0  0  0  0
  -21.9188   -4.6965   22.3387 C   0  0  0  0  0  0
  -22.7827  -13.5205   21.1835 C   0  0  0  0  0  0
  -22.1660   -4.2155   21.0964 F   0  0  0  0  0  0
  -21.5637   -3.4520   25.7728 F   0  0  0  0  0  0
  -30.0275  -13.3827   20.4455 N   0  0  0  0  0  0
  -26.3010  -12.9404   20.3385 N   0  0  0  0  0  0
  -25.9365  -11.6542   20.5840 N   0  0  0  0  0  0
  -22.0475  -12.8202   22.0394 N   0  0  0  0  0  0
  -25.4066  -15.1844   20.3715 N   0  0  0  0  0  0
  -31.8492  -14.6574   20.0602 O   0  0  0  0  0  0
  -21.6629   -6.8881   21.4236 O   0  0  0  0  0  0
  -22.3489  -14.5488   20.6644 O   0  0  0  0  0  0
  -24.6228  -31.8615   23.2072 C   0  0  0  0  0  0
  -25.9102  -32.4786   23.8373 C   0  0  1  0  0  0
  -27.2235  -27.3667   20.1042 C   0  0  0  0  0  0
  -25.5935  -33.8584   24.2292 N   0  0  0  0  0  0
  -23.4120  -30.4860   21.5513 C   0  0  2  0  0  0
  -24.8533  -28.9484   20.1174 C   0  0  0  0  0  0
  -22.7468  -29.4599   22.4992 C   0  0  0  0  0  0
  -18.0294  -28.1371   22.8475 C   0  0  0  0  0  0
  -24.1493  -36.7304   23.2642 C   0  0  0  0  0  0
  -25.9483  -30.8077   21.3703 C   0  0  0  0  0  0
  -26.0195  -29.4371   20.7169 C   0  0  0  0  0  0
  -27.2061  -28.6579   20.7011 C   0  0  0  0  0  0
  -26.0308  -26.9143   19.4890 C   0  0  0  0  0  0
  -24.8575  -27.6876   19.5022 C   0  0  0  0  0  0
  -23.6205  -29.8228   20.1653 C   0  0  0  0  0  0
  -25.4117  -36.3095   24.0338 C   0  0  1  0  0  0
  -20.5887  -28.3637   23.1317 C   0  0  2  0  0  0
  -20.6774  -26.9383   22.5382 C   0  0  0  0  0  0
  -19.5761  -26.6408   21.5161 C   0  0  0  0  0  0
  -18.1947  -26.7920   22.1597 C   0  0  0  0  0  0
  -19.1546  -28.8825   23.2897 C   0  0  0  0  0  0
  -18.9461  -30.1441   23.8892 C   0  0  0  0  0  0
  -17.6455  -30.6560   24.0575 C   0  0  0  0  0  0
  -25.9048  -34.9459   23.5110 C   0  0  0  0  0  0
  -16.5357  -29.9062   23.6320 C   0  0  0  0  0  0
  -16.7284  -28.6488   23.0324 C   0  0  0  0  0  0
  -26.4503  -31.6599   25.0732 C   0  0  0  0  0  0
  -25.3752  -31.3710   26.1479 C   0  0  0  0  0  0
  -27.0347  -30.3020   24.6173 C   0  0  0  0  0  0
  -27.6058  -32.4348   25.7494 C   0  0  0  0  0  0
  -27.5579  -37.1809   24.8462 C   0  0  0  0  0  0
  -21.4181  -29.3033   22.3760 N   0  0  0  0  0  0
  -26.4287  -37.3786   23.9410 N   0  0  0  0  0  0
  -24.6794  -31.0686   22.0990 N   0  0  0  0  0  0
  -23.4221  -28.8119   23.3028 O   0  0  0  0  0  0
  -28.3944  -26.6086   20.1211 O   0  0  0  0  0  0
  -26.5587  -34.8931   22.4662 O   0  0  0  0  0  0
  -23.5402  -32.1392   23.7433 O   0  0  0  0  0  0
  -30.3033  -19.2717   20.8266 C   0  0  0  0  0  0
  -28.4676  -19.7862   21.9462 C   0  0  0  0  0  0
  -29.3903  -20.3477   21.1052 C   0  0  0  0  0  0
  -29.9921  -18.1471   21.5709 C   0  0  0  0  0  0
  -32.9435  -18.1037   22.4868 C   0  0  0  0  0  0
  -27.7173  -24.9159   22.3914 C   0  0  0  0  0  0
  -26.6319  -17.4623   22.7424 C   0  0  0  0  0  0
  -28.1696  -18.2171   24.6250 C   0  0  0  0  0  0
  -32.2989  -17.0099   21.6149 C   0  0  0  0  0  0
  -28.3494  -22.7726   21.1787 C   0  0  0  0  0  0
  -28.3720  -25.1537   19.9513 C   0  0  0  0  0  0
  -29.4562  -21.8156   20.6125 C   0  0  2  0  0  0
  -30.7676  -16.8362   21.8215 C   0  0  2  0  0  0
  -28.5992  -24.3323   21.2655 C   0  0  1  0  0  0
  -28.0827  -17.6420   23.2020 C   0  0  0  0  0  0
  -28.8216  -18.4760   22.2546 N   0  0  0  0  0  0
  -30.1704  -15.5709   21.2709 N   0  0  0  0  0  0
  -29.4341  -21.8807   19.2016 O   0  0  0  0  0  0
  -31.4582  -12.4319   19.1527 H   0  0  0  0  0  0
  -30.3053  -11.3616   19.8840 H   0  0  0  0  0  0
  -29.7504  -11.7843   17.4629 H   0  0  0  0  0  0
  -29.6582  -13.5007   17.7720 H   0  0  0  0  0  0
  -27.8373  -11.3178   18.8407 H   0  0  0  0  0  0
  -27.3729  -12.6305   17.7927 H   0  0  0  0  0  0
  -27.6791  -14.2726   19.5514 H   0  0  0  0  0  0
  -28.6901  -12.0648   21.4040 H   0  0  0  0  0  0
  -28.4516  -13.7347   21.8443 H   0  0  0  0  0  0
  -25.2782   -9.5666   22.4731 H   0  0  0  0  0  0
  -23.9986   -7.4639   22.7461 H   0  0  0  0  0  0
  -21.0848   -8.8767   19.8947 H   0  0  0  0  0  0
  -22.3706  -10.9653   19.6132 H   0  0  0  0  0  0
  -21.1998   -7.6137   23.9710 H   0  0  0  0  0  0
  -21.1503   -6.0509   25.9069 H   0  0  0  0  0  0
  -22.0595   -2.7602   23.2818 H   0  0  0  0  0  0
  -22.4089  -11.9894   22.4852 H   0  0  0  0  0  0
  -21.1087  -13.1222   22.2576 H   0  0  0  0  0  0
  -24.6216  -15.8208   20.4407 H   0  0  0  0  0  0
  -26.2435  -15.6213   20.0066 H   0  0  0  0  0  0
  -26.7161  -32.5456   23.1117 H   0  0  0  0  0  0
  -25.0156  -33.9744   25.0487 H   0  0  0  0  0  0
  -22.7025  -31.3037   21.4115 H   0  0  0  0  0  0
  -23.3751  -35.9634   23.3296 H   0  0  0  0  0  0
  -24.3585  -36.8925   22.2052 H   0  0  0  0  0  0
  -23.7245  -37.6517   23.6652 H   0  0  0  0  0  0
  -26.0788  -31.5711   20.6022 H   0  0  0  0  0  0
  -26.8305  -30.8508   21.9966 H   0  0  0  0  0  0
  -28.1069  -29.0345   21.1652 H   0  0  0  0  0  0
  -25.9635  -25.9721   18.9730 H   0  0  0  0  0  0
  -23.9621  -27.3063   19.0314 H   0  0  0  0  0  0
  -23.7344  -30.5978   19.4062 H   0  0  0  0  0  0
  -22.7420  -29.2463   19.8710 H   0  0  0  0  0  0
  -25.1293  -36.1948   25.0822 H   0  0  0  0  0  0
  -20.9978  -28.3151   24.1443 H   0  0  0  0  0  0
  -20.5636  -26.2233   23.3541 H   0  0  0  0  0  0
  -21.6651  -26.7403   22.1185 H   0  0  0  0  0  0
  -19.6897  -25.6331   21.1151 H   0  0  0  0  0  0
  -19.6684  -27.3239   20.6706 H   0  0  0  0  0  0
  -17.4203  -26.6687   21.4018 H   0  0  0  0  0  0
  -18.0397  -26.0064   22.8992 H   0  0  0  0  0  0
  -19.7946  -30.7254   24.2260 H   0  0  0  0  0  0
  -17.5003  -31.6227   24.5201 H   0  0  0  0  0  0
  -15.5353  -30.2941   23.7657 H   0  0  0  0  0  0
  -15.8693  -28.0815   22.7013 H   0  0  0  0  0  0
  -24.5916  -30.7065   25.7802 H   0  0  0  0  0  0
  -24.8972  -32.2872   26.4946 H   0  0  0  0  0  0
  -25.8121  -30.8854   27.0216 H   0  0  0  0  0  0
  -26.2900  -29.6751   24.1242 H   0  0  0  0  0  0
  -27.4086  -29.7298   25.4675 H   0  0  0  0  0  0
  -27.8758  -30.4307   23.9356 H   0  0  0  0  0  0
  -27.2652  -33.3631   26.2093 H   0  0  0  0  0  0
  -28.3862  -32.6939   25.0324 H   0  0  0  0  0  0
  -28.0742  -31.8469   26.5406 H   0  0  0  0  0  0
  -28.2598  -38.0101   24.7519 H   0  0  0  0  0  0
  -28.1081  -36.2644   24.6281 H   0  0  0  0  0  0
  -27.2301  -37.1444   25.8863 H   0  0  0  0  0  0
  -20.9330  -29.8851   21.7072 H   0  0  0  0  0  0
  -26.0180  -38.2859   24.1411 H   0  0  0  0  0  0
  -31.1793  -19.3559   20.1988 H   0  0  0  0  0  0
  -27.5959  -20.2250   22.4112 H   0  0  0  0  0  0
  -34.0296  -18.0780   22.3916 H   0  0  0  0  0  0
  -32.7063  -17.9576   23.5414 H   0  0  0  0  0  0
  -32.6229  -19.1063   22.2077 H   0  0  0  0  0  0
  -27.8642  -24.3881   23.3347 H   0  0  0  0  0  0
  -26.6574  -24.8580   22.1415 H   0  0  0  0  0  0
  -27.9548  -25.9641   22.5799 H   0  0  0  0  0  0
  -26.1112  -16.7248   23.3523 H   0  0  0  0  0  0
  -26.6084  -17.1138   21.7115 H   0  0  0  0  0  0
  -26.0689  -18.3951   22.7870 H   0  0  0  0  0  0
  -27.6798  -17.5615   25.3434 H   0  0  0  0  0  0
  -27.6930  -19.1952   24.6954 H   0  0  0  0  0  0
  -29.2063  -18.3301   24.9423 H   0  0  0  0  0  0
  -32.8122  -16.0813   21.8606 H   0  0  0  0  0  0
  -32.5157  -17.2174   20.5671 H   0  0  0  0  0  0
  -28.2212  -22.4551   22.2128 H   0  0  0  0  0  0
  -27.3873  -22.5688   20.7090 H   0  0  0  0  0  0
  -27.4834  -24.7694   19.4631 H   0  0  0  0  0  0
  -29.1790  -24.9135   19.2584 H   0  0  0  0  0  0
  -30.4258  -22.1913   20.9397 H   0  0  0  0  0  0
  -30.7049  -16.6569   22.8946 H   0  0  0  0  0  0
  -29.6357  -24.4852   21.5670 H   0  0  0  0  0  0
  -28.5253  -16.6487   23.2225 H   0  0  0  0  0  0
  -29.2233  -15.3933   21.5651 H   0  0  0  0  0  0
  -28.6289  -21.4625   18.9147 H   0  0  0  0  0  0
  1 25  1  0  0  0
  1 30  2  0  0  0
  1 87  1  0  0  0
  2  3  1  0  0  0
  2 25  1  0  0  0
  2 89  1  0  0  0
  2 90  1  0  0  0
  3  4  1  0  0  0
  3 91  1  0  0  0
  3 92  1  0  0  0
  4  5  1  0  0  0
  4 93  1  0  0  0
  4 94  1  0  0  0
  5  6  1  0  0  0
  5 26  1  0  0  0
  5 95  1  0  0  0
  6 25  1  0  0  0
  6 96  1  0  0  0
  6 97  1  0  0  0
  7  8  2  0  0  0
  7 26  1  0  0  0
  7 29  1  0  0  0
  8  9  1  0  0  0
  8 22  1  0  0  0
  9 10  1  0  0  0
  9 27  2  0  0  0
 10 11  2  0  0  0
 10 15  1  0  0  0
 11 12  1  0  0  0
 11 98  1  0  0  0
 12 13  2  0  0  0
 12 99  1  0  0  0
 13 14  1  0  0  0
 13 31  1  0  0  0
 14 15  2  0  0  0
 14100  1  0  0  0
 15101  1  0  0  0
 16 17  2  0  0  0
 16 21  1  0  0  0
 16 31  1  0  0  0
 17 18  1  0  0  0
 17102  1  0  0  0
 18 19  2  0  0  0
 18103  1  0  0  0
 19 20  1  0  0  0
 19 24  1  0  0  0
 20 21  2  0  0  0
 20104  1  0  0  0
 21 23  1  0  0  0
 22 28  1  0  0  0
 22 32  2  0  0  0
 26 27  1  0  0  0
 28105  1  0  0  0
 28106  1  0  0  0
 29107  1  0  0  0
 29108  1  0  0  0
 33 34  1  0  0  0
 33 66  1  0  0  0
 33 70  2  0  0  0
 34 36  1  0  0  0
 34 59  1  0  0  0
 34109  1  0  0  0
 35 44  2  0  0  0
 35 45  1  0  0  0
 35 68  1  0  0  0
 36 56  1  0  0  0
 36110  1  0  0  0
 37 39  1  0  0  0
 37 47  1  0  0  0
 37 66  1  0  0  0
 37111  1  0  0  0
 38 43  2  0  0  0
 38 46  1  0  0  0
 38 47  1  0  0  0
 39 64  1  0  0  0
 39 67  2  0  0  0
 40 52  1  0  0  0
 40 53  2  0  0  0
 40 58  1  0  0  0
 41112  1  0  0  0
 41113  1  0  0  0
 41114  1  0  0  0
 41 48  1  0  0  0
 42 43  1  0  0  0
 42 66  1  0  0  0
 42115  1  0  0  0
 42116  1  0  0  0
 43 44  1  0  0  0
 44117  1  0  0  0
 45 46  2  0  0  0
 45118  1  0  0  0
 46119  1  0  0  0
 47120  1  0  0  0
 47121  1  0  0  0
 48 56  1  0  0  0
 48 65  1  0  0  0
 48122  1  0  0  0
 49 50  1  0  0  0
 49 53  1  0  0  0
 49 64  1  0  0  0
 49123  1  0  0  0
 50 51  1  0  0  0
 50124  1  0  0  0
 50125  1  0  0  0
 51 52  1  0  0  0
 51126  1  0  0  0
 51127  1  0  0  0
 52128  1  0  0  0
 52129  1  0  0  0
 53 54  1  0  0  0
 54 55  2  0  0  0
 54130  1  0  0  0
 55 57  1  0  0  0
 55131  1  0  0  0
 56 69  2  0  0  0
 57 58  2  0  0  0
 57132  1  0  0  0
 58133  1  0  0  0
 59 60  1  0  0  0
 59 61  1  0  0  0
 59 62  1  0  0  0
 60134  1  0  0  0
 60135  1  0  0  0
 60136  1  0  0  0
 61137  1  0  0  0
 61138  1  0  0  0
 61139  1  0  0  0
 62140  1  0  0  0
 62141  1  0  0  0
 62142  1  0  0  0
 63 65  1  0  0  0
 63143  1  0  0  0
 63144  1  0  0  0
 63145  1  0  0  0
 64146  1  0  0  0
 65147  1  0  0  0
 68 81  1  0  0  0
 71 73  1  0  0  0
 71 74  2  0  0  0
 71148  1  0  0  0
 72 73  2  0  0  0
 72 86  1  0  0  0
 72149  1  0  0  0
 73 82  1  0  0  0
 74 83  1  0  0  0
 74 86  1  0  0  0
 75 79  1  0  0  0
 75150  1  0  0  0
 75151  1  0  0  0
 75152  1  0  0  0
 76153  1  0  0  0
 76154  1  0  0  0
 76155  1  0  0  0
 76 84  1  0  0  0
 77156  1  0  0  0
 77157  1  0  0  0
 77158  1  0  0  0
 77 85  1  0  0  0
 78 85  1  0  0  0
 78159  1  0  0  0
 78160  1  0  0  0
 78161  1  0  0  0
 79162  1  0  0  0
 79163  1  0  0  0
 79 83  1  0  0  0
 80 82  1  0  0  0
 80 84  1  0  0  0
 80164  1  0  0  0
 80165  1  0  0  0
 81 84  1  0  0  0
 81166  1  0  0  0
 81167  1  0  0  0
 82 88  1  0  0  0
 82168  1  0  0  0
 83 87  1  0  0  0
 83169  1  0  0  0
 84170  1  0  0  0
 85 86  1  0  0  0
 85171  1  0  0  0
 87172  1  0  0  0
 88173  1  0  0  0
M  ISO  4   1 100  68 101  81 101  87 100
M  END
> <chiral flag>
0

> <version>
0

> <s_m_source_file>
/data/baiqing/PycharmProjects/Reinvent-master-3.2/result/LINK_invent/BTK/process_docking_weight1_custom_sum_contain_oxygen_bond_distance_aromatic_linkinvent_7_9_3/rearranged_h_0116.sdf

> <i_m_source_file_index>
21

> <r_mmod_Potential_Energy-OPLS-2005>
-73.6754760742188

> <r_mmod_Stretch_Energy-OPLS-2005>
60.1943740844727

> <r_mmod_Bend_Energy-OPLS-2005>
145.641006469727

> <r_mmod_Torsional_Energy-OPLS-2005>
240.734436035156

> <r_mmod_Improper_Torsional_Energy-OPLS-2005>
3.09218859672546

> <r_mmod_Van_der_Waal_Energy-OPLS-2005>
128.139541625977

> <r_mmod_Electrostatic_Energy-OPLS-2005>
-467.431793212891

> <r_mmod_Solvation_Energy-OPLS-2005>
-209.250045776367

> <b_mmod_Minimization_Converged-OPLS-2005>
0

> <r_mmod_RMS_Derivative-OPLS-2005>
2.83669900894165

$$$$
22
                    3D
 Structure written by MMmdl.
163171  0  0  1  0            999 V2000
  -30.5767  -14.8920   20.4912 C   0  0  0  0  0  0
  -30.4212  -12.5468   19.5152 C   0  0  0  0  0  0
  -29.5175  -12.5045   18.2621 C   0  0  0  0  0  0
  -28.0452  -12.3085   18.6655 C   0  0  0  0  0  0
  -27.6272  -13.2346   19.8356 C   0  0  2  0  0  0
  -28.6536  -13.2326   20.9813 C   0  0  0  0  0  0
  -25.2473  -13.8198   20.5666 C   0  0  0  0  0  0
  -24.1756  -13.0426   20.9154 C   0  0  0  0  0  0
  -24.6349  -11.6913   20.8685 C   0  0  0  0  0  0
  -23.9023  -10.4290   21.0369 C   0  0  0  0  0  0
  -24.3587   -9.4238   21.9174 C   0  0  0  0  0  0
  -23.6278   -8.2271   22.0775 C   0  0  0  0  0  0
  -22.4270   -8.0278   21.3556 C   0  0  0  0  0  0
  -21.9875   -9.0234   20.4655 C   0  0  0  0  0  0
  -22.7187  -10.2119   20.3043 C   0  0  0  0  0  0
  -21.6871   -6.0706   22.5272 C   0  0  0  0  0  0
  -21.4018   -6.5622   23.8198 C   0  0  0  0  0  0
  -21.3650   -5.6788   24.9168 C   0  0  0  0  0  0
  -21.6048   -4.3053   24.7228 C   0  0  0  0  0  0
  -21.8819   -3.8127   23.4360 C   0  0  0  0  0  0
  -21.9198   -4.6931   22.3410 C   0  0  0  0  0  0
  -22.7805  -13.5252   21.1808 C   0  0  0  0  0  0
  -22.1673   -4.2113   21.0988 F   0  0  0  0  0  0
  -21.5624   -3.4546   25.7743 F   0  0  0  0  0  0
  -29.9447  -13.6471   20.4116 N   0  0  0  0  0  0
  -26.2845  -12.9389   20.3159 N   0  0  0  0  0  0
  -25.9275  -11.6535   20.5661 N   0  0  0  0  0  0
  -22.0464  -12.8254   22.0378 N   0  0  0  0  0  0
  -25.4207  -15.1906   20.4177 N   0  0  0  0  0  0
  -31.7471  -14.9250   20.0916 O   0  0  0  0  0  0
  -21.6663   -6.8856   21.4242 O   0  0  0  0  0  0
  -22.3506  -14.5574   20.6669 O   0  0  0  0  0  0
  -24.6417  -31.8450   23.1904 C   0  0  0  0  0  0
  -25.9194  -32.4691   23.8326 C   0  0  1  0  0  0
  -27.2238  -27.1624   20.1539 C   0  0  0  0  0  0
  -25.5903  -33.8492   24.2218 N   0  0  0  0  0  0
  -23.4469  -30.4612   21.5331 C   0  0  2  0  0  0
  -24.8979  -28.8867   20.1064 C   0  0  0  0  0  0
  -22.7581  -29.4527   22.4840 C   0  0  0  0  0  0
  -18.0292  -28.1390   22.8452 C   0  0  0  0  0  0
  -24.1454  -36.7271   23.2654 C   0  0  0  0  0  0
  -25.9984  -30.7207   21.3920 C   0  0  0  0  0  0
  -26.0668  -29.3346   20.7320 C   0  0  0  0  0  0
  -27.2271  -28.4837   20.7447 C   0  0  0  0  0  0
  -26.0342  -26.7974   19.4915 C   0  0  0  0  0  0
  -24.8927  -27.6325   19.4703 C   0  0  0  0  0  0
  -23.6741  -29.7872   20.1512 C   0  0  0  0  0  0
  -25.4095  -36.3039   24.0329 C   0  0  1  0  0  0
  -20.5909  -28.3716   23.1207 C   0  0  2  0  0  0
  -20.6770  -26.9415   22.5377 C   0  0  0  0  0  0
  -19.5742  -26.6359   21.5181 C   0  0  0  0  0  0
  -18.1931  -26.7924   22.1603 C   0  0  0  0  0  0
  -19.1558  -28.8866   23.2823 C   0  0  0  0  0  0
  -18.9473  -30.1457   23.8852 C   0  0  0  0  0  0
  -17.6475  -30.6586   24.0548 C   0  0  0  0  0  0
  -25.9034  -34.9406   23.5095 C   0  0  0  0  0  0
  -16.5359  -29.9083   23.6332 C   0  0  0  0  0  0
  -16.7284  -28.6506   23.0346 C   0  0  0  0  0  0
  -26.4517  -31.6576   25.0775 C   0  0  0  0  0  0
  -25.3674  -31.3722   26.1447 C   0  0  0  0  0  0
  -27.0460  -30.3000   24.6395 C   0  0  0  0  0  0
  -27.6024  -32.4380   25.7544 C   0  0  0  0  0  0
  -27.5589  -37.1789   24.8468 C   0  0  0  0  0  0
  -21.4269  -29.3049   22.3599 N   0  0  0  0  0  0
  -26.4272  -37.3752   23.9421 N   0  0  0  0  0  0
  -24.7146  -31.0317   22.0937 N   0  0  0  0  0  0
  -23.4237  -28.8092   23.3011 O   0  0  0  0  0  0
  -28.3028  -26.2320   20.2923 O   0  0  0  0  0  0
  -26.5644  -34.8911   22.4692 O   0  0  0  0  0  0
  -23.5529  -32.1321   23.7124 O   0  0  0  0  0  0
  -31.2044  -17.9037   19.5035 C   0  0  0  0  0  0
  -31.9155  -18.6245   20.6510 C   0  0  0  0  0  0
  -29.8429  -17.5498   20.1188 C   0  0  2  0  0  0
  -29.5536  -19.0434   20.8712 C   0  0  2  0  0  0
  -27.2319  -23.5292   21.6615 C   0  0  0  0  0  0
  -29.4074  -16.2006   22.2038 C   0  0  0  0  0  0
  -29.0649  -21.9956   20.5503 C   0  0  0  0  0  0
  -28.4155  -24.8050   19.7192 C   0  0  0  0  0  0
  -28.7876  -20.3757   20.1618 C   0  0  2  0  0  0
  -28.0239  -23.3057   20.3628 C   0  0  2  0  0  0
  -29.8774  -16.1070   20.8167 N   0  0  0  0  0  0
  -30.9043  -19.5140   21.2441 N   0  3  0  0  0  0
  -27.3917  -20.1845   20.3090 O   0  0  0  0  0  0
  -31.4613  -12.6703   19.2126 H   0  0  0  0  0  0
  -30.3825  -11.5878   20.0381 H   0  0  0  0  0  0
  -29.8251  -11.6932   17.6003 H   0  0  0  0  0  0
  -29.6286  -13.4270   17.6893 H   0  0  0  0  0  0
  -27.9267  -11.2661   18.9616 H   0  0  0  0  0  0
  -27.3885  -12.4525   17.8048 H   0  0  0  0  0  0
  -27.6061  -14.2428   19.4212 H   0  0  0  0  0  0
  -28.7249  -12.2465   21.4465 H   0  0  0  0  0  0
  -28.3080  -13.9022   21.7641 H   0  0  0  0  0  0
  -25.2723   -9.5737   22.4747 H   0  0  0  0  0  0
  -23.9962   -7.4698   22.7544 H   0  0  0  0  0  0
  -21.0789   -8.8733   19.8995 H   0  0  0  0  0  0
  -22.3614  -10.9637   19.6146 H   0  0  0  0  0  0
  -21.2020   -7.6133   23.9673 H   0  0  0  0  0  0
  -21.1474   -6.0535   25.9057 H   0  0  0  0  0  0
  -22.0604   -2.7589   23.2880 H   0  0  0  0  0  0
  -22.4097  -11.9901   22.4705 H   0  0  0  0  0  0
  -21.1098  -13.1300   22.2606 H   0  0  0  0  0  0
  -24.6597  -15.8480   20.5500 H   0  0  0  0  0  0
  -26.2816  -15.6334   20.1194 H   0  0  0  0  0  0
  -26.7299  -32.5297   23.1089 H   0  0  0  0  0  0
  -24.9912  -33.9552   25.0285 H   0  0  0  0  0  0
  -22.7464  -31.2849   21.3762 H   0  0  0  0  0  0
  -23.3709  -35.9611   23.3281 H   0  0  0  0  0  0
  -24.3510  -36.8964   22.2073 H   0  0  0  0  0  0
  -23.7224  -37.6468   23.6712 H   0  0  0  0  0  0
  -26.1548  -31.4750   20.6192 H   0  0  0  0  0  0
  -26.8689  -30.7706   22.0349 H   0  0  0  0  0  0
  -28.1172  -28.8070   21.2668 H   0  0  0  0  0  0
  -25.9516  -25.8252   19.0264 H   0  0  0  0  0  0
  -23.9967  -27.2803   18.9740 H   0  0  0  0  0  0
  -23.8182  -30.5588   19.3940 H   0  0  0  0  0  0
  -22.7888  -29.2317   19.8401 H   0  0  0  0  0  0
  -25.1289  -36.1880   25.0824 H   0  0  0  0  0  0
  -20.9976  -28.3301   24.1341 H   0  0  0  0  0  0
  -20.5613  -26.2337   23.3617 H   0  0  0  0  0  0
  -21.6643  -26.7389   22.1221 H   0  0  0  0  0  0
  -19.6887  -25.6249   21.1264 H   0  0  0  0  0  0
  -19.6679  -27.3118   20.6670 H   0  0  0  0  0  0
  -17.4200  -26.6627   21.4023 H   0  0  0  0  0  0
  -18.0344  -26.0085   22.9009 H   0  0  0  0  0  0
  -19.7943  -30.7258   24.2235 H   0  0  0  0  0  0
  -17.5033  -31.6257   24.5163 H   0  0  0  0  0  0
  -15.5362  -30.2978   23.7678 H   0  0  0  0  0  0
  -15.8677  -28.0818   22.7097 H   0  0  0  0  0  0
  -24.5823  -30.7142   25.7722 H   0  0  0  0  0  0
  -24.8854  -32.2879   26.4896 H   0  0  0  0  0  0
  -25.7920  -30.8854   27.0228 H   0  0  0  0  0  0
  -26.3170  -29.6620   24.1387 H   0  0  0  0  0  0
  -27.4096  -29.7390   25.5016 H   0  0  0  0  0  0
  -27.9036  -30.4274   23.9781 H   0  0  0  0  0  0
  -27.2638  -33.3713   26.2056 H   0  0  0  0  0  0
  -28.3862  -32.6911   25.0394 H   0  0  0  0  0  0
  -28.0686  -31.8574   26.5510 H   0  0  0  0  0  0
  -28.2581  -38.0112   24.7561 H   0  0  0  0  0  0
  -28.1128  -36.2646   24.6256 H   0  0  0  0  0  0
  -27.2284  -37.1405   25.8862 H   0  0  0  0  0  0
  -20.9492  -29.8813   21.6801 H   0  0  0  0  0  0
  -26.0148  -38.2830   24.1402 H   0  0  0  0  0  0
  -31.7778  -17.0786   19.0900 H   0  0  0  0  0  0
  -31.0635  -18.6062   18.6810 H   0  0  0  0  0  0
  -32.8014  -19.1758   20.3311 H   0  0  0  0  0  0
  -32.2306  -17.9041   21.4078 H   0  0  0  0  0  0
  -29.1042  -17.4344   19.3236 H   0  0  0  0  0  0
  -29.0255  -18.8655   21.8085 H   0  0  0  0  0  0
  -26.7708  -22.6086   22.0176 H   0  0  0  0  0  0
  -26.4306  -24.2520   21.5084 H   0  0  0  0  0  0
  -27.8700  -23.9098   22.4616 H   0  0  0  0  0  0
  -28.3330  -16.3897   22.2298 H   0  0  0  0  0  0
  -29.9211  -16.9998   22.7356 H   0  0  0  0  0  0
  -29.6103  -15.3034   22.7906 H   0  0  0  0  0  0
  -29.9869  -22.2687   20.0394 H   0  0  0  0  0  0
  -29.3393  -21.9991   21.6053 H   0  0  0  0  0  0
  -27.9620  -24.8495   18.7274 H   0  0  0  0  0  0
  -29.4767  -24.7281   19.4846 H   0  0  0  0  0  0
  -28.9862  -20.3009   19.0901 H   0  0  0  0  0  0
  -27.2922  -22.9267   19.6484 H   0  0  0  0  0  0
  -31.0282  -20.4435   20.8737 H   0  0  0  0  0  0
  -31.0164  -19.5644   22.2436 H   0  0  0  0  0  0
  -27.1369  -19.4497   19.7563 H   0  0  0  0  0  0
  1 25  1  0  0  0
  1 30  2  0  0  0
  1 81  1  0  0  0
  2  3  1  0  0  0
  2 25  1  0  0  0
  2 84  1  0  0  0
  2 85  1  0  0  0
  3  4  1  0  0  0
  3 86  1  0  0  0
  3 87  1  0  0  0
  4  5  1  0  0  0
  4 88  1  0  0  0
  4 89  1  0  0  0
  5  6  1  0  0  0
  5 26  1  0  0  0
  5 90  1  0  0  0
  6 25  1  0  0  0
  6 91  1  0  0  0
  6 92  1  0  0  0
  7  8  2  0  0  0
  7 26  1  0  0  0
  7 29  1  0  0  0
  8  9  1  0  0  0
  8 22  1  0  0  0
  9 10  1  0  0  0
  9 27  2  0  0  0
 10 11  2  0  0  0
 10 15  1  0  0  0
 11 12  1  0  0  0
 11 93  1  0  0  0
 12 13  2  0  0  0
 12 94  1  0  0  0
 13 14  1  0  0  0
 13 31  1  0  0  0
 14 15  2  0  0  0
 14 95  1  0  0  0
 15 96  1  0  0  0
 16 17  2  0  0  0
 16 21  1  0  0  0
 16 31  1  0  0  0
 17 18  1  0  0  0
 17 97  1  0  0  0
 18 19  2  0  0  0
 18 98  1  0  0  0
 19 20  1  0  0  0
 19 24  1  0  0  0
 20 21  2  0  0  0
 20 99  1  0  0  0
 21 23  1  0  0  0
 22 28  1  0  0  0
 22 32  2  0  0  0
 26 27  1  0  0  0
 28100  1  0  0  0
 28101  1  0  0  0
 29102  1  0  0  0
 29103  1  0  0  0
 33 34  1  0  0  0
 33 66  1  0  0  0
 33 70  2  0  0  0
 34 36  1  0  0  0
 34 59  1  0  0  0
 34104  1  0  0  0
 35 44  2  0  0  0
 35 45  1  0  0  0
 35 68  1  0  0  0
 36 56  1  0  0  0
 36105  1  0  0  0
 37 39  1  0  0  0
 37 47  1  0  0  0
 37 66  1  0  0  0
 37106  1  0  0  0
 38 43  2  0  0  0
 38 46  1  0  0  0
 38 47  1  0  0  0
 39 64  1  0  0  0
 39 67  2  0  0  0
 40 52  1  0  0  0
 40 53  2  0  0  0
 40 58  1  0  0  0
 41107  1  0  0  0
 41108  1  0  0  0
 41109  1  0  0  0
 41 48  1  0  0  0
 42 43  1  0  0  0
 42 66  1  0  0  0
 42110  1  0  0  0
 42111  1  0  0  0
 43 44  1  0  0  0
 44112  1  0  0  0
 45 46  2  0  0  0
 45113  1  0  0  0
 46114  1  0  0  0
 47115  1  0  0  0
 47116  1  0  0  0
 48 56  1  0  0  0
 48 65  1  0  0  0
 48117  1  0  0  0
 49 50  1  0  0  0
 49 53  1  0  0  0
 49 64  1  0  0  0
 49118  1  0  0  0
 50 51  1  0  0  0
 50119  1  0  0  0
 50120  1  0  0  0
 51 52  1  0  0  0
 51121  1  0  0  0
 51122  1  0  0  0
 52123  1  0  0  0
 52124  1  0  0  0
 53 54  1  0  0  0
 54 55  2  0  0  0
 54125  1  0  0  0
 55 57  1  0  0  0
 55126  1  0  0  0
 56 69  2  0  0  0
 57 58  2  0  0  0
 57127  1  0  0  0
 58128  1  0  0  0
 59 60  1  0  0  0
 59 61  1  0  0  0
 59 62  1  0  0  0
 60129  1  0  0  0
 60130  1  0  0  0
 60131  1  0  0  0
 61132  1  0  0  0
 61133  1  0  0  0
 61134  1  0  0  0
 62135  1  0  0  0
 62136  1  0  0  0
 62137  1  0  0  0
 63 65  1  0  0  0
 63138  1  0  0  0
 63139  1  0  0  0
 63140  1  0  0  0
 64141  1  0  0  0
 65142  1  0  0  0
 68 78  1  0  0  0
 71 72  1  0  0  0
 71 73  1  0  0  0
 71143  1  0  0  0
 71144  1  0  0  0
 72 82  1  0  0  0
 72145  1  0  0  0
 72146  1  0  0  0
 73 74  1  0  0  0
 73 81  1  0  0  0
 73147  1  0  0  0
 74 79  1  0  0  0
 74 82  1  0  0  0
 74148  1  0  0  0
 75149  1  0  0  0
 75150  1  0  0  0
 75151  1  0  0  0
 75 80  1  0  0  0
 76 81  1  0  0  0
 76152  1  0  0  0
 76153  1  0  0  0
 76154  1  0  0  0
 77 79  1  0  0  0
 77 80  1  0  0  0
 77155  1  0  0  0
 77156  1  0  0  0
 78 80  1  0  0  0
 78157  1  0  0  0
 78158  1  0  0  0
 79 83  1  0  0  0
 79159  1  0  0  0
 80160  1  0  0  0
 82161  1  0  0  0
 82162  1  0  0  0
 83163  1  0  0  0
M  CHG  1  82   1
M  ISO  4   1 100  68 101  78 101  81 100
M  END
> <chiral flag>
0

> <version>
0

> <s_m_source_file>
/data/baiqing/PycharmProjects/Reinvent-master-3.2/result/LINK_invent/BTK/process_docking_weight1_custom_sum_contain_oxygen_bond_distance_aromatic_linkinvent_7_9_3/rearranged_h_0116.sdf

> <i_m_source_file_index>
22

> <r_mmod_Potential_Energy-OPLS-2005>
630.582824707031

> <r_mmod_Stretch_Energy-OPLS-2005>
279.487609863281

> <r_mmod_Bend_Energy-OPLS-2005>
337.593933105469

> <r_mmod_Torsional_Energy-OPLS-2005>
425.706207275391

> <r_mmod_Improper_Torsional_Energy-OPLS-2005>
5.07138729095459

> <r_mmod_Van_der_Waal_Energy-OPLS-2005>
110.880187988281

> <r_mmod_Electrostatic_Energy-OPLS-2005>
-208.246185302734

> <r_mmod_Solvation_Energy-OPLS-2005>
-477.621459960938

> <b_mmod_Minimization_Converged-OPLS-2005>
0

> <r_mmod_RMS_Derivative-OPLS-2005>
3.94826292991638

$$$$
23
                    3D
 Structure written by MMmdl.
176184  0  0  1  0            999 V2000
  -30.5959  -14.7173   20.5311 C   0  0  0  0  0  0
  -30.4501  -12.4462   19.4828 C   0  0  0  0  0  0
  -29.5211  -12.5152   18.2474 C   0  0  0  0  0  0
  -28.0474  -12.3211   18.6576 C   0  0  0  0  0  0
  -27.6530  -13.2143   19.8631 C   0  0  2  0  0  0
  -28.6912  -13.0985   21.0042 C   0  0  0  0  0  0
  -25.2553  -13.8150   20.5670 C   0  0  0  0  0  0
  -24.1807  -13.0441   20.9171 C   0  0  0  0  0  0
  -24.6370  -11.6902   20.8709 C   0  0  0  0  0  0
  -23.9034  -10.4288   21.0376 C   0  0  0  0  0  0
  -24.3572   -9.4207   21.9168 C   0  0  0  0  0  0
  -23.6254   -8.2230   22.0743 C   0  0  0  0  0  0
  -22.4250   -8.0256   21.3529 C   0  0  0  0  0  0
  -21.9883   -9.0222   20.4648 C   0  0  0  0  0  0
  -22.7196  -10.2110   20.3045 C   0  0  0  0  0  0
  -21.6834   -6.0725   22.5272 C   0  0  0  0  0  0
  -21.4005   -6.5629   23.8213 C   0  0  0  0  0  0
  -21.3672   -5.6782   24.9176 C   0  0  0  0  0  0
  -21.6047   -4.3035   24.7221 C   0  0  0  0  0  0
  -21.8823   -3.8137   23.4331 C   0  0  0  0  0  0
  -21.9188   -4.6956   22.3395 C   0  0  0  0  0  0
  -22.7837  -13.5257   21.1824 C   0  0  0  0  0  0
  -22.1668   -4.2157   21.0964 F   0  0  0  0  0  0
  -21.5629   -3.4514   25.7728 F   0  0  0  0  0  0
  -30.0112  -13.4721   20.4607 N   0  0  0  0  0  0
  -26.2977  -12.9323   20.3283 N   0  0  0  0  0  0
  -25.9300  -11.6488   20.5729 N   0  0  0  0  0  0
  -22.0439  -12.8278   22.0386 N   0  0  0  0  0  0
  -25.4255  -15.1864   20.4105 N   0  0  0  0  0  0
  -31.6992  -14.9193   20.0178 O   0  0  0  0  0  0
  -21.6610   -6.8853   21.4231 O   0  0  0  0  0  0
  -22.3553  -14.5575   20.6681 O   0  0  0  0  0  0
  -24.6306  -31.8563   23.1979 C   0  0  0  0  0  0
  -25.9142  -32.4761   23.8314 C   0  0  1  0  0  0
  -27.2264  -27.2713   20.1336 C   0  0  0  0  0  0
  -25.5936  -33.8556   24.2240 N   0  0  0  0  0  0
  -23.4270  -30.4782   21.5414 C   0  0  2  0  0  0
  -24.8754  -28.9228   20.1144 C   0  0  0  0  0  0
  -22.7489  -29.4614   22.4915 C   0  0  0  0  0  0
  -18.0286  -28.1402   22.8477 C   0  0  0  0  0  0
  -24.1491  -36.7279   23.2639 C   0  0  0  0  0  0
  -25.9729  -30.7716   21.3788 C   0  0  0  0  0  0
  -26.0469  -29.3938   20.7218 C   0  0  0  0  0  0
  -27.2252  -28.5819   20.7183 C   0  0  0  0  0  0
  -26.0364  -26.8722   19.4851 C   0  0  0  0  0  0
  -24.8736  -27.6677   19.4875 C   0  0  0  0  0  0
  -23.6464  -29.8089   20.1591 C   0  0  0  0  0  0
  -25.4119  -36.3065   24.0320 C   0  0  1  0  0  0
  -20.5893  -28.3719   23.1261 C   0  0  2  0  0  0
  -20.6784  -26.9435   22.5408 C   0  0  0  0  0  0
  -19.5759  -26.6394   21.5210 C   0  0  0  0  0  0
  -18.1933  -26.7946   22.1614 C   0  0  0  0  0  0
  -19.1542  -28.8870   23.2868 C   0  0  0  0  0  0
  -18.9468  -30.1470   23.8887 C   0  0  0  0  0  0
  -17.6470  -30.6599   24.0568 C   0  0  0  0  0  0
  -25.9067  -34.9440   23.5085 C   0  0  0  0  0  0
  -16.5358  -29.9098   23.6342 C   0  0  0  0  0  0
  -16.7274  -28.6520   23.0351 C   0  0  0  0  0  0
  -26.4506  -31.6586   25.0702 C   0  0  0  0  0  0
  -25.3720  -31.3758   26.1423 C   0  0  0  0  0  0
  -27.0370  -30.2993   24.6221 C   0  0  0  0  0  0
  -27.6052  -32.4337   25.7479 C   0  0  0  0  0  0
  -27.5580  -37.1793   24.8460 C   0  0  0  0  0  0
  -21.4198  -29.3060   22.3647 N   0  0  0  0  0  0
  -26.4293  -37.3762   23.9406 N   0  0  0  0  0  0
  -24.6956  -31.0524   22.0956 N   0  0  0  0  0  0
  -23.4196  -28.8172   23.3027 O   0  0  0  0  0  0
  -28.3286  -26.3869   20.1621 O   0  0  0  0  0  0
  -26.5634  -34.8916   22.4652 O   0  0  0  0  0  0
  -23.5458  -32.1383   23.7278 O   0  0  0  0  0  0
  -31.8956  -18.1282   21.2980 C   0  0  0  0  0  0
  -30.8482  -20.5065   22.2055 C   0  0  0  0  0  0
  -31.9731  -17.7601   22.7947 C   0  0  0  0  0  0
  -30.9326  -19.8941   23.6097 C   0  0  0  0  0  0
  -30.4831  -18.4766   20.7547 C   0  0  1  0  0  0
  -30.5392  -24.1646   20.6652 C   0  0  0  0  0  0
  -29.4177  -17.9514   25.5793 C   0  0  0  0  0  0
  -31.8798  -18.4227   25.9953 C   0  0  0  0  0  0
  -29.4936  -17.2002   20.8169 C   0  0  0  0  0  0
  -28.7932  -22.2600   20.6971 C   0  0  0  0  0  0
  -29.6466  -20.9387   20.2471 C   0  0  0  0  0  0
  -28.0946  -24.9510   20.5481 C   0  0  0  0  0  0
  -29.1374  -23.7637   20.1825 C   0  0  1  0  0  0
  -30.8428  -17.8341   25.0120 C   0  0  0  0  0  0
  -29.9314  -19.8344   21.2548 N   0  0  0  0  0  0
  -29.8432  -15.7288   21.0937 N   0  0  0  0  0  0
  -30.9302  -18.4113   23.6357 N   0  3  2  0  0  0
  -31.4891  -12.5836   19.1786 H   0  0  0  0  0  0
  -30.4094  -11.4571   19.9388 H   0  0  0  0  0  0
  -29.8095  -11.7519   17.5234 H   0  0  0  0  0  0
  -29.6379  -13.4745   17.7409 H   0  0  0  0  0  0
  -27.9189  -11.2719   18.9242 H   0  0  0  0  0  0
  -27.3876  -12.4995   17.8083 H   0  0  0  0  0  0
  -27.6696  -14.2411   19.4994 H   0  0  0  0  0  0
  -28.7172  -12.0792   21.3926 H   0  0  0  0  0  0
  -28.4013  -13.7249   21.8475 H   0  0  0  0  0  0
  -25.2705   -9.5709   22.4756 H   0  0  0  0  0  0
  -23.9977   -7.4646   22.7470 H   0  0  0  0  0  0
  -21.0816   -8.8719   19.8958 H   0  0  0  0  0  0
  -22.3623  -10.9633   19.6142 H   0  0  0  0  0  0
  -21.1991   -7.6128   23.9722 H   0  0  0  0  0  0
  -21.1500   -6.0496   25.9083 H   0  0  0  0  0  0
  -22.0597   -2.7598   23.2825 H   0  0  0  0  0  0
  -22.4035  -11.9975   22.4852 H   0  0  0  0  0  0
  -21.1046  -13.1293   22.2498 H   0  0  0  0  0  0
  -24.6502  -15.8318   20.5228 H   0  0  0  0  0  0
  -26.2717  -15.6322   20.0820 H   0  0  0  0  0  0
  -26.7206  -32.5408   23.1057 H   0  0  0  0  0  0
  -25.0069  -33.9686   25.0375 H   0  0  0  0  0  0
  -22.7234  -31.3007   21.3933 H   0  0  0  0  0  0
  -23.3755  -35.9610   23.3301 H   0  0  0  0  0  0
  -24.3584  -36.8903   22.2053 H   0  0  0  0  0  0
  -23.7247  -37.6479   23.6669 H   0  0  0  0  0  0
  -26.1158  -31.5332   20.6113 H   0  0  0  0  0  0
  -26.8491  -30.8163   22.0152 H   0  0  0  0  0  0
  -28.1235  -28.9396   21.2011 H   0  0  0  0  0  0
  -25.9888  -25.9249   18.9672 H   0  0  0  0  0  0
  -23.9785  -27.3024   19.0024 H   0  0  0  0  0  0
  -23.7730  -30.5844   19.4021 H   0  0  0  0  0  0
  -22.7643  -29.2423   19.8545 H   0  0  0  0  0  0
  -25.1307  -36.1903   25.0811 H   0  0  0  0  0  0
  -20.9981  -28.3309   24.1385 H   0  0  0  0  0  0
  -20.5687  -26.2329   23.3620 H   0  0  0  0  0  0
  -21.6654  -26.7465   22.1207 H   0  0  0  0  0  0
  -19.6932  -25.6301   21.1250 H   0  0  0  0  0  0
  -19.6708  -27.3197   20.6732 H   0  0  0  0  0  0
  -17.4213  -26.6691   21.4008 H   0  0  0  0  0  0
  -18.0334  -26.0090   22.9009 H   0  0  0  0  0  0
  -19.7947  -30.7284   24.2256 H   0  0  0  0  0  0
  -17.5031  -31.6279   24.5177 H   0  0  0  0  0  0
  -15.5362  -30.3003   23.7676 H   0  0  0  0  0  0
  -15.8672  -28.0842   22.7073 H   0  0  0  0  0  0
  -24.5876  -30.7140   25.7743 H   0  0  0  0  0  0
  -24.8945  -32.2945   26.4828 H   0  0  0  0  0  0
  -25.8015  -30.8927   27.0209 H   0  0  0  0  0  0
  -26.2972  -29.6721   24.1238 H   0  0  0  0  0  0
  -27.4032  -29.7277   25.4762 H   0  0  0  0  0  0
  -27.8852  -30.4253   23.9492 H   0  0  0  0  0  0
  -27.2645  -33.3630   26.2053 H   0  0  0  0  0  0
  -28.3856  -32.6914   25.0309 H   0  0  0  0  0  0
  -28.0737  -31.8476   26.5398 H   0  0  0  0  0  0
  -28.2596  -38.0089   24.7504 H   0  0  0  0  0  0
  -28.1075  -36.2620   24.6288 H   0  0  0  0  0  0
  -27.2301  -37.1445   25.8864 H   0  0  0  0  0  0
  -20.9393  -29.8756   21.6824 H   0  0  0  0  0  0
  -26.0169  -38.2835   24.1403 H   0  0  0  0  0  0
  -32.2899  -17.2905   20.7261 H   0  0  0  0  0  0
  -32.6170  -18.9079   21.0595 H   0  0  0  0  0  0
  -31.8379  -20.6479   21.7709 H   0  0  0  0  0  0
  -30.5439  -21.5341   22.3971 H   0  0  0  0  0  0
  -32.9686  -17.9826   23.1799 H   0  0  0  0  0  0
  -31.8562  -16.6791   22.8727 H   0  0  0  0  0  0
  -30.0885  -20.2615   24.1923 H   0  0  0  0  0  0
  -31.8296  -20.2833   24.0932 H   0  0  0  0  0  0
  -30.6533  -18.6323   19.6865 H   0  0  0  0  0  0
  -31.2976  -23.4582   20.3278 H   0  0  0  0  0  0
  -30.5829  -24.2095   21.7542 H   0  0  0  0  0  0
  -30.8207  -25.1461   20.2822 H   0  0  0  0  0  0
  -29.3347  -17.4124   26.5218 H   0  0  0  0  0  0
  -28.6795  -17.5294   24.8971 H   0  0  0  0  0  0
  -29.1346  -18.9851   25.7820 H   0  0  0  0  0  0
  -31.9061  -17.8451   26.9188 H   0  0  0  0  0  0
  -31.6407  -19.4506   26.2705 H   0  0  0  0  0  0
  -32.8905  -18.4150   25.5820 H   0  0  0  0  0  0
  -28.8939  -17.2010   19.9070 H   0  0  0  0  0  0
  -28.7730  -17.4274   21.6029 H   0  0  0  0  0  0
  -28.7206  -22.3024   21.7819 H   0  0  0  0  0  0
  -27.7638  -22.0613   20.4005 H   0  0  0  0  0  0
  -30.6036  -21.2619   19.8327 H   0  0  0  0  0  0
  -29.1241  -20.4865   19.4028 H   0  0  0  0  0  0
  -27.9814  -24.9613   21.6330 H   0  0  0  0  0  0
  -27.1252  -24.6136   20.1872 H   0  0  0  0  0  0
  -29.1720  -23.7174   19.0941 H   0  0  0  0  0  0
  -31.0432  -16.7640   24.9359 H   0  0  0  0  0  0
  -29.0954  -15.2996   21.6208 H   0  0  0  0  0  0
  -30.0632  -18.1763   23.1751 H   0  0  0  0  0  0
  1 25  1  0  0  0
  1 30  2  0  0  0
  1 86  1  0  0  0
  2  3  1  0  0  0
  2 25  1  0  0  0
  2 88  1  0  0  0
  2 89  1  0  0  0
  3  4  1  0  0  0
  3 90  1  0  0  0
  3 91  1  0  0  0
  4  5  1  0  0  0
  4 92  1  0  0  0
  4 93  1  0  0  0
  5  6  1  0  0  0
  5 26  1  0  0  0
  5 94  1  0  0  0
  6 25  1  0  0  0
  6 95  1  0  0  0
  6 96  1  0  0  0
  7  8  2  0  0  0
  7 26  1  0  0  0
  7 29  1  0  0  0
  8  9  1  0  0  0
  8 22  1  0  0  0
  9 10  1  0  0  0
  9 27  2  0  0  0
 10 11  2  0  0  0
 10 15  1  0  0  0
 11 12  1  0  0  0
 11 97  1  0  0  0
 12 13  2  0  0  0
 12 98  1  0  0  0
 13 14  1  0  0  0
 13 31  1  0  0  0
 14 15  2  0  0  0
 14 99  1  0  0  0
 15100  1  0  0  0
 16 17  2  0  0  0
 16 21  1  0  0  0
 16 31  1  0  0  0
 17 18  1  0  0  0
 17101  1  0  0  0
 18 19  2  0  0  0
 18102  1  0  0  0
 19 20  1  0  0  0
 19 24  1  0  0  0
 20 21  2  0  0  0
 20103  1  0  0  0
 21 23  1  0  0  0
 22 28  1  0  0  0
 22 32  2  0  0  0
 26 27  1  0  0  0
 28104  1  0  0  0
 28105  1  0  0  0
 29106  1  0  0  0
 29107  1  0  0  0
 33 34  1  0  0  0
 33 66  1  0  0  0
 33 70  2  0  0  0
 34 36  1  0  0  0
 34 59  1  0  0  0
 34108  1  0  0  0
 35 44  2  0  0  0
 35 45  1  0  0  0
 35 68  1  0  0  0
 36 56  1  0  0  0
 36109  1  0  0  0
 37 39  1  0  0  0
 37 47  1  0  0  0
 37 66  1  0  0  0
 37110  1  0  0  0
 38 43  2  0  0  0
 38 46  1  0  0  0
 38 47  1  0  0  0
 39 64  1  0  0  0
 39 67  2  0  0  0
 40 52  1  0  0  0
 40 53  2  0  0  0
 40 58  1  0  0  0
 41111  1  0  0  0
 41112  1  0  0  0
 41113  1  0  0  0
 41 48  1  0  0  0
 42 43  1  0  0  0
 42 66  1  0  0  0
 42114  1  0  0  0
 42115  1  0  0  0
 43 44  1  0  0  0
 44116  1  0  0  0
 45 46  2  0  0  0
 45117  1  0  0  0
 46118  1  0  0  0
 47119  1  0  0  0
 47120  1  0  0  0
 48 56  1  0  0  0
 48 65  1  0  0  0
 48121  1  0  0  0
 49 50  1  0  0  0
 49 53  1  0  0  0
 49 64  1  0  0  0
 49122  1  0  0  0
 50 51  1  0  0  0
 50123  1  0  0  0
 50124  1  0  0  0
 51 52  1  0  0  0
 51125  1  0  0  0
 51126  1  0  0  0
 52127  1  0  0  0
 52128  1  0  0  0
 53 54  1  0  0  0
 54 55  2  0  0  0
 54129  1  0  0  0
 55 57  1  0  0  0
 55130  1  0  0  0
 56 69  2  0  0  0
 57 58  2  0  0  0
 57131  1  0  0  0
 58132  1  0  0  0
 59 60  1  0  0  0
 59 61  1  0  0  0
 59 62  1  0  0  0
 60133  1  0  0  0
 60134  1  0  0  0
 60135  1  0  0  0
 61136  1  0  0  0
 61137  1  0  0  0
 61138  1  0  0  0
 62139  1  0  0  0
 62140  1  0  0  0
 62141  1  0  0  0
 63 65  1  0  0  0
 63142  1  0  0  0
 63143  1  0  0  0
 63144  1  0  0  0
 64145  1  0  0  0
 65146  1  0  0  0
 68 82  1  0  0  0
 71 73  1  0  0  0
 71 75  1  0  0  0
 71147  1  0  0  0
 71148  1  0  0  0
 72 74  1  0  0  0
 72 85  1  0  0  0
 72149  1  0  0  0
 72150  1  0  0  0
 73151  1  0  0  0
 73152  1  0  0  0
 73 87  1  0  0  0
 74 87  1  0  0  0
 74153  1  0  0  0
 74154  1  0  0  0
 75 79  1  0  0  0
 75 85  1  0  0  0
 75155  1  0  0  0
 76156  1  0  0  0
 76157  1  0  0  0
 76158  1  0  0  0
 76 83  1  0  0  0
 77159  1  0  0  0
 77160  1  0  0  0
 77161  1  0  0  0
 77 84  1  0  0  0
 78 84  1  0  0  0
 78162  1  0  0  0
 78163  1  0  0  0
 78164  1  0  0  0
 79 86  1  0  0  0
 79165  1  0  0  0
 79166  1  0  0  0
 80 81  1  0  0  0
 80 83  1  0  0  0
 80167  1  0  0  0
 80168  1  0  0  0
 81 85  1  0  0  0
 81169  1  0  0  0
 81170  1  0  0  0
 82 83  1  0  0  0
 82171  1  0  0  0
 82172  1  0  0  0
 83173  1  0  0  0
 84 87  1  0  0  0
 84174  1  0  0  0
 86175  1  0  0  0
 87176  1  0  0  0
M  CHG  1  87   1
M  ISO  4   1 100  68 101  82 101  86 100
M  END
> <chiral flag>
0

> <version>
0

> <s_m_source_file>
/data/baiqing/PycharmProjects/Reinvent-master-3.2/result/LINK_invent/BTK/process_docking_weight1_custom_sum_contain_oxygen_bond_distance_aromatic_linkinvent_7_9_3/rearranged_h_0116.sdf

> <i_m_source_file_index>
23

> <r_mmod_Potential_Energy-OPLS-2005>
192.550399780273

> <r_mmod_Stretch_Energy-OPLS-2005>
141.760528564453

> <r_mmod_Bend_Energy-OPLS-2005>
240.557205200195

> <r_mmod_Torsional_Energy-OPLS-2005>
323.006103515625

> <r_mmod_Improper_Torsional_Energy-OPLS-2005>
4.55878257751465

> <r_mmod_Van_der_Waal_Energy-OPLS-2005>
139.394821166992

> <r_mmod_Electrostatic_Energy-OPLS-2005>
-322.420257568359

> <r_mmod_Solvation_Energy-OPLS-2005>
-410.055877685547

> <b_mmod_Minimization_Converged-OPLS-2005>
0

> <r_mmod_RMS_Derivative-OPLS-2005>
3.40394973754883

$$$$
24
                    3D
 Structure written by MMmdl.
172180  0  0  1  0            999 V2000
  -30.7731  -14.3595   20.6683 C   0  0  0  0  0  0
  -30.4141  -12.2834   19.3903 C   0  0  0  0  0  0
  -29.4809  -12.5213   18.1898 C   0  0  0  0  0  0
  -28.0045  -12.3865   18.6100 C   0  0  0  0  0  0
  -27.6670  -13.2060   19.8842 C   0  0  2  0  0  0
  -28.7088  -12.9442   20.9957 C   0  0  0  0  0  0
  -25.2603  -13.8153   20.5675 C   0  0  0  0  0  0
  -24.1860  -13.0430   20.9190 C   0  0  0  0  0  0
  -24.6412  -11.6902   20.8750 C   0  0  0  0  0  0
  -23.9069  -10.4288   21.0399 C   0  0  0  0  0  0
  -24.3612   -9.4205   21.9179 C   0  0  0  0  0  0
  -23.6292   -8.2242   22.0751 C   0  0  0  0  0  0
  -22.4270   -8.0280   21.3550 C   0  0  0  0  0  0
  -21.9904   -9.0253   20.4654 C   0  0  0  0  0  0
  -22.7232  -10.2135   20.3063 C   0  0  0  0  0  0
  -21.6854   -6.0740   22.5281 C   0  0  0  0  0  0
  -21.4010   -6.5640   23.8216 C   0  0  0  0  0  0
  -21.3671   -5.6795   24.9181 C   0  0  0  0  0  0
  -21.6050   -4.3058   24.7228 C   0  0  0  0  0  0
  -21.8819   -3.8151   23.4350 C   0  0  0  0  0  0
  -21.9190   -4.6968   22.3406 C   0  0  0  0  0  0
  -22.7880  -13.5233   21.1840 C   0  0  0  0  0  0
  -22.1656   -4.2156   21.0982 F   0  0  0  0  0  0
  -21.5643   -3.4538   25.7738 F   0  0  0  0  0  0
  -30.0492  -13.2302   20.4536 N   0  0  0  0  0  0
  -26.3062  -12.9336   20.3422 N   0  0  0  0  0  0
  -25.9348  -11.6499   20.5814 N   0  0  0  0  0  0
  -22.0511  -12.8240   22.0393 N   0  0  0  0  0  0
  -25.4269  -15.1867   20.4031 N   0  0  0  0  0  0
  -31.7935  -14.6445   20.0348 O   0  0  0  0  0  0
  -21.6641   -6.8878   21.4239 O   0  0  0  0  0  0
  -22.3580  -14.5549   20.6695 O   0  0  0  0  0  0
  -24.6130  -31.8698   23.2123 C   0  0  0  0  0  0
  -25.9035  -32.4831   23.8412 C   0  0  1  0  0  0
  -27.2340  -27.4669   20.0843 C   0  0  0  0  0  0
  -25.5887  -33.8628   24.2329 N   0  0  0  0  0  0
  -23.3990  -30.4961   21.5503 C   0  0  2  0  0  0
  -24.8439  -28.9631   20.1151 C   0  0  0  0  0  0
  -22.7393  -29.4691   22.4991 C   0  0  0  0  0  0
  -18.0268  -28.1380   22.8486 C   0  0  0  0  0  0
  -24.1480  -36.7332   23.2643 C   0  0  0  0  0  0
  -25.9247  -30.8444   21.3610 C   0  0  0  0  0  0
  -26.0014  -29.4788   20.7140 C   0  0  0  0  0  0
  -27.1995  -28.7355   20.7007 C   0  0  0  0  0  0
  -26.0697  -26.9652   19.4694 C   0  0  0  0  0  0
  -24.8710  -27.7021   19.4934 C   0  0  0  0  0  0
  -23.6052  -29.8275   20.1646 C   0  0  0  0  0  0
  -25.4097  -36.3126   24.0335 C   0  0  1  0  0  0
  -20.5856  -28.3672   23.1315 C   0  0  2  0  0  0
  -20.6755  -26.9409   22.5415 C   0  0  0  0  0  0
  -19.5733  -26.6389   21.5212 C   0  0  0  0  0  0
  -18.1908  -26.7930   22.1622 C   0  0  0  0  0  0
  -19.1515  -28.8838   23.2897 C   0  0  0  0  0  0
  -18.9446  -30.1441   23.8911 C   0  0  0  0  0  0
  -17.6451  -30.6579   24.0568 C   0  0  0  0  0  0
  -25.9020  -34.9481   23.5122 C   0  0  0  0  0  0
  -16.5337  -29.9092   23.6330 C   0  0  0  0  0  0
  -16.7256  -28.6508   23.0343 C   0  0  0  0  0  0
  -26.4465  -31.6618   25.0741 C   0  0  0  0  0  0
  -25.3742  -31.3727   26.1503 C   0  0  0  0  0  0
  -27.0297  -30.3052   24.6133 C   0  0  0  0  0  0
  -27.6028  -32.4358   25.7505 C   0  0  0  0  0  0
  -27.5571  -37.1821   24.8464 C   0  0  0  0  0  0
  -21.4122  -29.3052   22.3728 N   0  0  0  0  0  0
  -26.4281  -37.3808   23.9413 N   0  0  0  0  0  0
  -24.6636  -31.0848   22.0996 N   0  0  0  0  0  0
  -23.4171  -28.8209   23.3002 O   0  0  0  0  0  0
  -28.3987  -26.7436   20.0434 O   0  0  0  0  0  0
  -26.5590  -34.8932   22.4689 O   0  0  0  0  0  0
  -23.5326  -32.1429   23.7533 O   0  0  0  0  0  0
  -27.2319  -18.5727   21.6389 C   0  0  0  0  0  0
  -31.3222  -15.2915   22.8193 C   0  0  0  0  0  0
  -32.2609  -16.4989   22.6167 C   0  0  0  0  0  0
  -30.5283  -17.5748   21.2352 C   0  0  0  0  0  0
  -29.5898  -16.3478   21.4111 C   0  0  2  0  0  0
  -32.3778  -18.9126   22.1399 C   0  0  0  0  0  0
  -26.4512  -19.7978   22.1252 C   0  0  0  0  0  0
  -28.3988  -16.4838   22.4051 C   0  0  0  0  0  0
  -27.8582  -24.4044   20.6405 C   0  0  0  0  0  0
  -27.3204  -21.0431   22.4291 C   0  0  0  0  0  0
  -28.0553  -23.2959   21.6927 C   0  0  0  0  0  0
  -28.5112  -25.7406   21.0540 C   0  0  0  0  0  0
  -30.3765  -15.1304   21.7014 N   0  0  0  0  0  0
  -27.8321  -17.8231   22.5746 N   0  0  0  0  0  0
  -31.4978  -17.7391   22.3445 N   0  3  2  0  0  0
  -27.3884  -22.0245   21.3180 N   0  3  0  0  0  0
  -27.2678  -18.2922   20.4412 O   0  0  0  0  0  0
  -31.4563  -12.3799   19.0816 H   0  0  0  0  0  0
  -30.3123  -11.2606   19.7560 H   0  0  0  0  0  0
  -29.7076  -11.8148   17.3894 H   0  0  0  0  0  0
  -29.6561  -13.5156   17.7770 H   0  0  0  0  0  0
  -27.8044  -11.3291   18.7860 H   0  0  0  0  0  0
  -27.3504  -12.6874   17.7905 H   0  0  0  0  0  0
  -27.7236  -14.2610   19.6152 H   0  0  0  0  0  0
  -28.6665  -11.9002   21.3126 H   0  0  0  0  0  0
  -28.4711  -13.5195   21.8903 H   0  0  0  0  0  0
  -25.2750   -9.5691   22.4758 H   0  0  0  0  0  0
  -24.0012   -7.4627   22.7459 H   0  0  0  0  0  0
  -21.0839   -8.8772   19.8953 H   0  0  0  0  0  0
  -22.3671  -10.9677   19.6189 H   0  0  0  0  0  0
  -21.1990   -7.6144   23.9726 H   0  0  0  0  0  0
  -21.1501   -6.0520   25.9087 H   0  0  0  0  0  0
  -22.0587   -2.7613   23.2842 H   0  0  0  0  0  0
  -22.4095  -11.9896   22.4792 H   0  0  0  0  0  0
  -21.1152  -13.1330   22.2614 H   0  0  0  0  0  0
  -24.6433  -15.8249   20.4807 H   0  0  0  0  0  0
  -26.2702  -15.6401   20.0739 H   0  0  0  0  0  0
  -26.7117  -32.5529   23.1191 H   0  0  0  0  0  0
  -25.0089  -33.9807   25.0506 H   0  0  0  0  0  0
  -22.6882  -31.3126   21.4107 H   0  0  0  0  0  0
  -23.3730  -35.9677   23.3322 H   0  0  0  0  0  0
  -24.3584  -36.8932   22.2059 H   0  0  0  0  0  0
  -23.7234  -37.6541   23.6646 H   0  0  0  0  0  0
  -26.0388  -31.6101   20.5924 H   0  0  0  0  0  0
  -26.8133  -30.8962   21.9789 H   0  0  0  0  0  0
  -28.0962  -29.1325   21.1548 H   0  0  0  0  0  0
  -26.0910  -26.0141   18.9568 H   0  0  0  0  0  0
  -23.9839  -27.3061   19.0177 H   0  0  0  0  0  0
  -23.7089  -30.6002   19.4022 H   0  0  0  0  0  0
  -22.7313  -29.2436   19.8710 H   0  0  0  0  0  0
  -25.1273  -36.1995   25.0822 H   0  0  0  0  0  0
  -20.9953  -28.3239   24.1430 H   0  0  0  0  0  0
  -20.5659  -26.2281   23.3604 H   0  0  0  0  0  0
  -21.6628  -26.7449   22.1202 H   0  0  0  0  0  0
  -19.6897  -25.6305   21.1229 H   0  0  0  0  0  0
  -19.6666  -27.3213   20.6750 H   0  0  0  0  0  0
  -17.4185  -26.6677   21.4019 H   0  0  0  0  0  0
  -18.0299  -26.0059   22.9001 H   0  0  0  0  0  0
  -19.7919  -30.7247   24.2286 H   0  0  0  0  0  0
  -17.5010  -31.6263   24.5172 H   0  0  0  0  0  0
  -15.5344  -30.3004   23.7651 H   0  0  0  0  0  0
  -15.8648  -28.0843   22.7056 H   0  0  0  0  0  0
  -24.5883  -30.7106   25.7865 H   0  0  0  0  0  0
  -24.8978  -32.2886   26.5000 H   0  0  0  0  0  0
  -25.8109  -30.8865   27.0235 H   0  0  0  0  0  0
  -26.2839  -29.6819   24.1192 H   0  0  0  0  0  0
  -27.4057  -29.7295   25.4605 H   0  0  0  0  0  0
  -27.8680  -30.4374   23.9292 H   0  0  0  0  0  0
  -27.2618  -33.3635   26.2111 H   0  0  0  0  0  0
  -28.3817  -32.6963   25.0330 H   0  0  0  0  0  0
  -28.0716  -31.8474   26.5403 H   0  0  0  0  0  0
  -28.2607  -38.0110   24.7505 H   0  0  0  0  0  0
  -28.1041  -36.2633   24.6275 H   0  0  0  0  0  0
  -27.2291  -37.1465   25.8872 H   0  0  0  0  0  0
  -20.9270  -29.8788   21.6971 H   0  0  0  0  0  0
  -26.0171  -38.2887   24.1409 H   0  0  0  0  0  0
  -30.7713  -15.3989   23.7535 H   0  0  0  0  0  0
  -31.9216  -14.3869   22.9450 H   0  0  0  0  0  0
  -32.9473  -16.3074   21.7899 H   0  0  0  0  0  0
  -32.8817  -16.6352   23.5031 H   0  0  0  0  0  0
  -29.9622  -18.4937   21.0938 H   0  0  0  0  0  0
  -31.0964  -17.4472   20.3114 H   0  0  0  0  0  0
  -29.1129  -16.2255   20.4350 H   0  0  0  0  0  0
  -33.0496  -19.0552   22.9866 H   0  0  0  0  0  0
  -31.7900  -19.8243   22.0275 H   0  0  0  0  0  0
  -32.9867  -18.7953   21.2420 H   0  0  0  0  0  0
  -25.9332  -19.5050   23.0393 H   0  0  0  0  0  0
  -25.6627  -20.0351   21.4104 H   0  0  0  0  0  0
  -28.6958  -16.1596   23.4016 H   0  0  0  0  0  0
  -27.5993  -15.8000   22.1156 H   0  0  0  0  0  0
  -26.7896  -24.5488   20.4935 H   0  0  0  0  0  0
  -28.2665  -24.0858   19.6802 H   0  0  0  0  0  0
  -28.3299  -20.7526   22.7249 H   0  0  0  0  0  0
  -26.8869  -21.5450   23.2960 H   0  0  0  0  0  0
  -27.6501  -23.6439   22.6446 H   0  0  0  0  0  0
  -29.1187  -23.1140   21.8545 H   0  0  0  0  0  0
  -29.5740  -25.5787   21.2354 H   0  0  0  0  0  0
  -28.0937  -26.0989   21.9975 H   0  0  0  0  0  0
  -27.7348  -18.1362   23.5326 H   0  0  0  0  0  0
  -30.9625  -17.9358   23.1768 H   0  0  0  0  0  0
  -26.4452  -22.2355   21.0326 H   0  0  0  0  0  0
  -27.8657  -21.6224   20.5253 H   0  0  0  0  0  0
  1 25  1  0  0  0
  1 30  2  0  0  0
  1 83  1  0  0  0
  2  3  1  0  0  0
  2 25  1  0  0  0
  2 88  1  0  0  0
  2 89  1  0  0  0
  3  4  1  0  0  0
  3 90  1  0  0  0
  3 91  1  0  0  0
  4  5  1  0  0  0
  4 92  1  0  0  0
  4 93  1  0  0  0
  5  6  1  0  0  0
  5 26  1  0  0  0
  5 94  1  0  0  0
  6 25  1  0  0  0
  6 95  1  0  0  0
  6 96  1  0  0  0
  7  8  2  0  0  0
  7 26  1  0  0  0
  7 29  1  0  0  0
  8  9  1  0  0  0
  8 22  1  0  0  0
  9 10  1  0  0  0
  9 27  2  0  0  0
 10 11  2  0  0  0
 10 15  1  0  0  0
 11 12  1  0  0  0
 11 97  1  0  0  0
 12 13  2  0  0  0
 12 98  1  0  0  0
 13 14  1  0  0  0
 13 31  1  0  0  0
 14 15  2  0  0  0
 14 99  1  0  0  0
 15100  1  0  0  0
 16 17  2  0  0  0
 16 21  1  0  0  0
 16 31  1  0  0  0
 17 18  1  0  0  0
 17101  1  0  0  0
 18 19  2  0  0  0
 18102  1  0  0  0
 19 20  1  0  0  0
 19 24  1  0  0  0
 20 21  2  0  0  0
 20103  1  0  0  0
 21 23  1  0  0  0
 22 28  1  0  0  0
 22 32  2  0  0  0
 26 27  1  0  0  0
 28104  1  0  0  0
 28105  1  0  0  0
 29106  1  0  0  0
 29107  1  0  0  0
 33 34  1  0  0  0
 33 66  1  0  0  0
 33 70  2  0  0  0
 34 36  1  0  0  0
 34 59  1  0  0  0
 34108  1  0  0  0
 35 44  2  0  0  0
 35 45  1  0  0  0
 35 68  1  0  0  0
 36 56  1  0  0  0
 36109  1  0  0  0
 37 39  1  0  0  0
 37 47  1  0  0  0
 37 66  1  0  0  0
 37110  1  0  0  0
 38 43  2  0  0  0
 38 46  1  0  0  0
 38 47  1  0  0  0
 39 64  1  0  0  0
 39 67  2  0  0  0
 40 52  1  0  0  0
 40 53  2  0  0  0
 40 58  1  0  0  0
 41111  1  0  0  0
 41112  1  0  0  0
 41113  1  0  0  0
 41 48  1  0  0  0
 42 43  1  0  0  0
 42 66  1  0  0  0
 42114  1  0  0  0
 42115  1  0  0  0
 43 44  1  0  0  0
 44116  1  0  0  0
 45 46  2  0  0  0
 45117  1  0  0  0
 46118  1  0  0  0
 47119  1  0  0  0
 47120  1  0  0  0
 48 56  1  0  0  0
 48 65  1  0  0  0
 48121  1  0  0  0
 49 50  1  0  0  0
 49 53  1  0  0  0
 49 64  1  0  0  0
 49122  1  0  0  0
 50 51  1  0  0  0
 50123  1  0  0  0
 50124  1  0  0  0
 51 52  1  0  0  0
 51125  1  0  0  0
 51126  1  0  0  0
 52127  1  0  0  0
 52128  1  0  0  0
 53 54  1  0  0  0
 54 55  2  0  0  0
 54129  1  0  0  0
 55 57  1  0  0  0
 55130  1  0  0  0
 56 69  2  0  0  0
 57 58  2  0  0  0
 57131  1  0  0  0
 58132  1  0  0  0
 59 60  1  0  0  0
 59 61  1  0  0  0
 59 62  1  0  0  0
 60133  1  0  0  0
 60134  1  0  0  0
 60135  1  0  0  0
 61136  1  0  0  0
 61137  1  0  0  0
 61138  1  0  0  0
 62139  1  0  0  0
 62140  1  0  0  0
 62141  1  0  0  0
 63 65  1  0  0  0
 63142  1  0  0  0
 63143  1  0  0  0
 63144  1  0  0  0
 64145  1  0  0  0
 65146  1  0  0  0
 68 82  1  0  0  0
 71 77  1  0  0  0
 71 84  1  0  0  0
 71 87  2  0  0  0
 72 73  1  0  0  0
 72 83  1  0  0  0
 72147  1  0  0  0
 72148  1  0  0  0
 73 85  1  0  0  0
 73149  1  0  0  0
 73150  1  0  0  0
 74 75  1  0  0  0
 74 85  1  0  0  0
 74151  1  0  0  0
 74152  1  0  0  0
 75 78  1  0  0  0
 75 83  1  0  0  0
 75153  1  0  0  0
 76154  1  0  0  0
 76155  1  0  0  0
 76156  1  0  0  0
 76 85  1  0  0  0
 77 80  1  0  0  0
 77157  1  0  0  0
 77158  1  0  0  0
 78 84  1  0  0  0
 78159  1  0  0  0
 78160  1  0  0  0
 79 81  1  0  0  0
 79 82  1  0  0  0
 79161  1  0  0  0
 79162  1  0  0  0
 80 86  1  0  0  0
 80163  1  0  0  0
 80164  1  0  0  0
 81 86  1  0  0  0
 81165  1  0  0  0
 81166  1  0  0  0
 82167  1  0  0  0
 82168  1  0  0  0
 84169  1  0  0  0
 85170  1  0  0  0
 86171  1  0  0  0
 86172  1  0  0  0
M  CHG  2  85   1  86   1
M  ISO  4   1 100  68 101  82 101  83 100
M  END
> <chiral flag>
0

> <version>
0

> <s_m_source_file>
/data/baiqing/PycharmProjects/Reinvent-master-3.2/result/LINK_invent/BTK/process_docking_weight1_custom_sum_contain_oxygen_bond_distance_aromatic_linkinvent_7_9_3/rearranged_h_0116.sdf

> <i_m_source_file_index>
24

> <r_mmod_Potential_Energy-OPLS-2005>
-220.27311706543

> <r_mmod_Stretch_Energy-OPLS-2005>
35.2319068908691

> <r_mmod_Bend_Energy-OPLS-2005>
103.801734924316

> <r_mmod_Torsional_Energy-OPLS-2005>
416.280670166016

> <r_mmod_Improper_Torsional_Energy-OPLS-2005>
6.11052656173706

> <r_mmod_Van_der_Waal_Energy-OPLS-2005>
127.95027923584

> <r_mmod_Electrostatic_Energy-OPLS-2005>
6.68196201324463

> <r_mmod_Solvation_Energy-OPLS-2005>
-922.907409667969

> <b_mmod_Minimization_Converged-OPLS-2005>
0

> <r_mmod_RMS_Derivative-OPLS-2005>
2.04306292533875

$$$$
25
                    3D
 Structure written by MMmdl.
166174  0  0  1  0            999 V2000
  -30.6169  -14.7430   20.5020 C   0  0  0  0  0  0
  -30.4367  -12.4663   19.4793 C   0  0  0  0  0  0
  -29.5155  -12.5518   18.2406 C   0  0  0  0  0  0
  -28.0388  -12.3780   18.6481 C   0  0  0  0  0  0
  -27.6516  -13.2436   19.8774 C   0  0  2  0  0  0
  -28.6970  -13.1479   21.0134 C   0  0  0  0  0  0
  -25.2506  -13.8208   20.5727 C   0  0  0  0  0  0
  -24.1787  -13.0422   20.9210 C   0  0  0  0  0  0
  -24.6414  -11.6925   20.8773 C   0  0  0  0  0  0
  -23.9095  -10.4287   21.0427 C   0  0  0  0  0  0
  -24.3638   -9.4193   21.9206 C   0  0  0  0  0  0
  -23.6290   -8.2234   22.0784 C   0  0  0  0  0  0
  -22.4284   -8.0285   21.3564 C   0  0  0  0  0  0
  -21.9929   -9.0238   20.4646 C   0  0  0  0  0  0
  -22.7280  -10.2111   20.3062 C   0  0  0  0  0  0
  -21.6850   -6.0747   22.5280 C   0  0  0  0  0  0
  -21.4000   -6.5648   23.8213 C   0  0  0  0  0  0
  -21.3641   -5.6800   24.9170 C   0  0  0  0  0  0
  -21.6046   -4.3074   24.7231 C   0  0  0  0  0  0
  -21.8821   -3.8155   23.4355 C   0  0  0  0  0  0
  -21.9159   -4.6962   22.3406 C   0  0  0  0  0  0
  -22.7787  -13.5192   21.1834 C   0  0  0  0  0  0
  -22.1672   -4.2140   21.0995 F   0  0  0  0  0  0
  -21.5630   -3.4568   25.7754 F   0  0  0  0  0  0
  -30.0026  -13.5084   20.4438 N   0  0  0  0  0  0
  -26.2982  -12.9442   20.3404 N   0  0  0  0  0  0
  -25.9366  -11.6562   20.5832 N   0  0  0  0  0  0
  -22.0467  -12.8120   22.0392 N   0  0  0  0  0  0
  -25.4150  -15.1910   20.4161 N   0  0  0  0  0  0
  -31.7752  -14.8674   20.1006 O   0  0  0  0  0  0
  -21.6636   -6.8884   21.4256 O   0  0  0  0  0  0
  -22.3476  -14.5533   20.6755 O   0  0  0  0  0  0
  -24.6279  -31.8585   23.2055 C   0  0  0  0  0  0
  -25.9111  -32.4752   23.8386 C   0  0  1  0  0  0
  -27.1853  -27.2731   20.1080 C   0  0  0  0  0  0
  -25.5922  -33.8571   24.2287 N   0  0  0  0  0  0
  -23.4243  -30.4824   21.5480 C   0  0  2  0  0  0
  -24.8789  -28.9737   20.0704 C   0  0  0  0  0  0
  -22.7515  -29.4580   22.4925 C   0  0  0  0  0  0
  -18.0301  -28.1372   22.8509 C   0  0  0  0  0  0
  -24.1495  -36.7281   23.2634 C   0  0  0  0  0  0
  -25.9704  -30.7682   21.3990 C   0  0  0  0  0  0
  -26.0395  -29.4011   20.7272 C   0  0  0  0  0  0
  -27.1945  -28.5545   20.7542 C   0  0  0  0  0  0
  -26.0545  -26.9898   19.3101 C   0  0  0  0  0  0
  -24.9016  -27.7888   19.3278 C   0  0  0  0  0  0
  -23.6379  -29.8407   20.1502 C   0  0  0  0  0  0
  -25.4115  -36.3057   24.0326 C   0  0  1  0  0  0
  -20.5902  -28.3663   23.1298 C   0  0  2  0  0  0
  -20.6774  -26.9379   22.5426 C   0  0  0  0  0  0
  -19.5735  -26.6372   21.5234 C   0  0  0  0  0  0
  -18.1923  -26.7926   22.1652 C   0  0  0  0  0  0
  -19.1550  -28.8843   23.2894 C   0  0  0  0  0  0
  -18.9462  -30.1452   23.8892 C   0  0  0  0  0  0
  -17.6449  -30.6569   24.0555 C   0  0  0  0  0  0
  -25.9059  -34.9436   23.5109 C   0  0  0  0  0  0
  -16.5346  -29.9062   23.6311 C   0  0  0  0  0  0
  -16.7286  -28.6481   23.0348 C   0  0  0  0  0  0
  -26.4476  -31.6567   25.0773 C   0  0  0  0  0  0
  -25.3680  -31.3735   26.1475 C   0  0  0  0  0  0
  -27.0293  -30.2963   24.6250 C   0  0  0  0  0  0
  -27.6021  -32.4306   25.7557 C   0  0  0  0  0  0
  -27.5580  -37.1802   24.8456 C   0  0  0  0  0  0
  -21.4217  -29.3014   22.3697 N   0  0  0  0  0  0
  -26.4267  -37.3767   23.9412 N   0  0  0  0  0  0
  -24.6919  -31.0542   22.1048 N   0  0  0  0  0  0
  -23.4231  -28.8116   23.3015 O   0  0  0  0  0  0
  -28.1830  -26.2856   20.2740 O   0  0  0  0  0  0
  -26.5625  -34.8892   22.4681 O   0  0  0  0  0  0
  -23.5425  -32.1437   23.7319 O   0  0  0  0  0  0
  -29.7605  -23.9565   21.5186 C   0  0  0  0  0  0
  -28.6781  -22.3048   20.1432 C   0  0  0  0  0  0
  -28.8086  -23.6924   20.5270 C   0  0  0  0  0  0
  -30.4756  -22.8915   22.1181 C   0  0  0  0  0  0
  -29.4079  -21.2560   20.8004 C   0  0  0  0  0  0
  -26.4927  -24.4264   20.8256 C   0  0  0  0  0  0
  -30.9408  -22.7109   24.5913 C   0  0  0  0  0  0
  -31.8441  -24.6831   23.3719 C   0  0  0  0  0  0
  -32.8159  -22.4322   22.9048 C   0  0  0  0  0  0
  -29.7444  -18.6251   21.1695 C   0  0  0  0  0  0
  -30.0042  -17.2972   20.2695 C   0  0  0  0  0  0
  -27.8049  -24.8284   20.0872 C   0  0  1  0  0  0
  -31.5041  -23.1750   23.2326 C   0  0  0  0  0  0
  -30.2726  -21.5795   21.7855 N   0  0  0  0  0  0
  -29.2512  -19.8647   20.4462 N   0  0  0  0  0  0
  -29.8492  -15.8646   20.7964 N   0  0  0  0  0  0
  -31.4808  -12.5899   19.1807 H   0  0  0  0  0  0
  -30.3778  -11.4805   19.9362 H   0  0  0  0  0  0
  -29.7888  -11.7962   17.5031 H   0  0  0  0  0  0
  -29.6527  -13.5168   17.7507 H   0  0  0  0  0  0
  -27.8761  -11.3227   18.8675 H   0  0  0  0  0  0
  -27.3880  -12.6240   17.8073 H   0  0  0  0  0  0
  -27.6544  -14.2791   19.5350 H   0  0  0  0  0  0
  -28.7335  -12.1404   21.4272 H   0  0  0  0  0  0
  -28.4354  -13.8045   21.8450 H   0  0  0  0  0  0
  -25.2806   -9.5627   22.4754 H   0  0  0  0  0  0
  -23.9975   -7.4611   22.7501 H   0  0  0  0  0  0
  -21.0895   -8.8776   19.8913 H   0  0  0  0  0  0
  -22.3796  -10.9652   19.6147 H   0  0  0  0  0  0
  -21.2036   -7.6157   23.9720 H   0  0  0  0  0  0
  -21.1466   -6.0549   25.9075 H   0  0  0  0  0  0
  -22.0607   -2.7608   23.2869 H   0  0  0  0  0  0
  -22.4158  -11.9780   22.4680 H   0  0  0  0  0  0
  -21.1085  -13.1076   22.2688 H   0  0  0  0  0  0
  -24.6490  -15.8481   20.5243 H   0  0  0  0  0  0
  -26.2692  -15.6321   20.1004 H   0  0  0  0  0  0
  -26.7206  -32.5405   23.1158 H   0  0  0  0  0  0
  -25.0035  -33.9746   25.0403 H   0  0  0  0  0  0
  -22.7157  -31.3023   21.4192 H   0  0  0  0  0  0
  -23.3753  -35.9612   23.3253 H   0  0  0  0  0  0
  -24.3594  -36.8949   22.2057 H   0  0  0  0  0  0
  -23.7248  -37.6471   23.6688 H   0  0  0  0  0  0
  -26.1122  -31.5366   20.6377 H   0  0  0  0  0  0
  -26.8461  -30.8074   22.0347 H   0  0  0  0  0  0
  -28.0642  -28.8511   21.3244 H   0  0  0  0  0  0
  -26.0118  -26.1046   18.6938 H   0  0  0  0  0  0
  -24.0544  -27.5133   18.7176 H   0  0  0  0  0  0
  -23.7220  -30.6315   19.4030 H   0  0  0  0  0  0
  -22.7642  -29.2552   19.8560 H   0  0  0  0  0  0
  -25.1290  -36.1907   25.0811 H   0  0  0  0  0  0
  -20.9988  -28.3223   24.1421 H   0  0  0  0  0  0
  -20.5695  -26.2254   23.3614 H   0  0  0  0  0  0
  -21.6635  -26.7418   22.1197 H   0  0  0  0  0  0
  -19.6878  -25.6292   21.1235 H   0  0  0  0  0  0
  -19.6664  -27.3201   20.6774 H   0  0  0  0  0  0
  -17.4198  -26.6703   21.4044 H   0  0  0  0  0  0
  -18.0298  -26.0065   22.9037 H   0  0  0  0  0  0
  -19.7917  -30.7286   24.2256 H   0  0  0  0  0  0
  -17.4978  -31.6250   24.5146 H   0  0  0  0  0  0
  -15.5331  -30.2945   23.7607 H   0  0  0  0  0  0
  -15.8713  -28.0777   22.7051 H   0  0  0  0  0  0
  -24.5911  -30.7002   25.7828 H   0  0  0  0  0  0
  -24.8799  -32.2913   26.4766 H   0  0  0  0  0  0
  -25.7983  -30.9046   27.0336 H   0  0  0  0  0  0
  -26.2881  -29.6754   24.1205 H   0  0  0  0  0  0
  -27.3882  -29.7149   25.4750 H   0  0  0  0  0  0
  -27.8803  -30.4182   23.9547 H   0  0  0  0  0  0
  -27.2607  -33.3637   26.2050 H   0  0  0  0  0  0
  -28.3877  -32.6811   25.0417 H   0  0  0  0  0  0
  -28.0621  -31.8484   26.5556 H   0  0  0  0  0  0
  -28.2536  -38.0150   24.7527 H   0  0  0  0  0  0
  -28.1123  -36.2678   24.6229 H   0  0  0  0  0  0
  -27.2303  -37.1393   25.8853 H   0  0  0  0  0  0
  -20.9382  -29.8775   21.6952 H   0  0  0  0  0  0
  -26.0137  -38.2825   24.1425 H   0  0  0  0  0  0
  -29.8824  -24.9815   21.8356 H   0  0  0  0  0  0
  -27.9675  -22.0481   19.3711 H   0  0  0  0  0  0
  -26.2175  -23.4022   20.5720 H   0  0  0  0  0  0
  -25.6008  -25.0095   20.6119 H   0  0  0  0  0  0
  -26.6305  -24.4619   21.9041 H   0  0  0  0  0  0
  -29.9481  -23.1286   24.7640 H   0  0  0  0  0  0
  -31.5719  -23.0230   25.4260 H   0  0  0  0  0  0
  -30.8448  -21.6257   24.6294 H   0  0  0  0  0  0
  -30.9902  -25.2596   23.7326 H   0  0  0  0  0  0
  -32.1687  -25.1138   22.4221 H   0  0  0  0  0  0
  -32.6468  -24.8531   24.0903 H   0  0  0  0  0  0
  -32.6679  -21.3513   22.9140 H   0  0  0  0  0  0
  -33.6110  -22.6565   23.6145 H   0  0  0  0  0  0
  -33.1794  -22.7006   21.9125 H   0  0  0  0  0  0
  -30.6622  -18.8851   21.6989 H   0  0  0  0  0  0
  -29.0162  -18.4013   21.9523 H   0  0  0  0  0  0
  -30.9775  -17.4010   19.7822 H   0  0  0  0  0  0
  -29.2817  -17.3452   19.4527 H   0  0  0  0  0  0
  -27.6779  -24.6859   19.0149 H   0  0  0  0  0  0
  -28.5178  -19.6992   19.7658 H   0  0  0  0  0  0
  -28.9313  -15.6510   21.1593 H   0  0  0  0  0  0
  1 25  1  0  0  0
  1 30  2  0  0  0
  1 86  1  0  0  0
  2  3  1  0  0  0
  2 25  1  0  0  0
  2 87  1  0  0  0
  2 88  1  0  0  0
  3  4  1  0  0  0
  3 89  1  0  0  0
  3 90  1  0  0  0
  4  5  1  0  0  0
  4 91  1  0  0  0
  4 92  1  0  0  0
  5  6  1  0  0  0
  5 26  1  0  0  0
  5 93  1  0  0  0
  6 25  1  0  0  0
  6 94  1  0  0  0
  6 95  1  0  0  0
  7  8  2  0  0  0
  7 26  1  0  0  0
  7 29  1  0  0  0
  8  9  1  0  0  0
  8 22  1  0  0  0
  9 10  1  0  0  0
  9 27  2  0  0  0
 10 11  2  0  0  0
 10 15  1  0  0  0
 11 12  1  0  0  0
 11 96  1  0  0  0
 12 13  2  0  0  0
 12 97  1  0  0  0
 13 14  1  0  0  0
 13 31  1  0  0  0
 14 15  2  0  0  0
 14 98  1  0  0  0
 15 99  1  0  0  0
 16 17  2  0  0  0
 16 21  1  0  0  0
 16 31  1  0  0  0
 17 18  1  0  0  0
 17100  1  0  0  0
 18 19  2  0  0  0
 18101  1  0  0  0
 19 20  1  0  0  0
 19 24  1  0  0  0
 20 21  2  0  0  0
 20102  1  0  0  0
 21 23  1  0  0  0
 22 28  1  0  0  0
 22 32  2  0  0  0
 26 27  1  0  0  0
 28103  1  0  0  0
 28104  1  0  0  0
 29105  1  0  0  0
 29106  1  0  0  0
 33 34  1  0  0  0
 33 66  1  0  0  0
 33 70  2  0  0  0
 34 36  1  0  0  0
 34 59  1  0  0  0
 34107  1  0  0  0
 35 44  2  0  0  0
 35 45  1  0  0  0
 35 68  1  0  0  0
 36 56  1  0  0  0
 36108  1  0  0  0
 37 39  1  0  0  0
 37 47  1  0  0  0
 37 66  1  0  0  0
 37109  1  0  0  0
 38 43  2  0  0  0
 38 46  1  0  0  0
 38 47  1  0  0  0
 39 64  1  0  0  0
 39 67  2  0  0  0
 40 52  1  0  0  0
 40 53  2  0  0  0
 40 58  1  0  0  0
 41110  1  0  0  0
 41111  1  0  0  0
 41112  1  0  0  0
 41 48  1  0  0  0
 42 43  1  0  0  0
 42 66  1  0  0  0
 42113  1  0  0  0
 42114  1  0  0  0
 43 44  1  0  0  0
 44115  1  0  0  0
 45 46  2  0  0  0
 45116  1  0  0  0
 46117  1  0  0  0
 47118  1  0  0  0
 47119  1  0  0  0
 48 56  1  0  0  0
 48 65  1  0  0  0
 48120  1  0  0  0
 49 50  1  0  0  0
 49 53  1  0  0  0
 49 64  1  0  0  0
 49121  1  0  0  0
 50 51  1  0  0  0
 50122  1  0  0  0
 50123  1  0  0  0
 51 52  1  0  0  0
 51124  1  0  0  0
 51125  1  0  0  0
 52126  1  0  0  0
 52127  1  0  0  0
 53 54  1  0  0  0
 54 55  2  0  0  0
 54128  1  0  0  0
 55 57  1  0  0  0
 55129  1  0  0  0
 56 69  2  0  0  0
 57 58  2  0  0  0
 57130  1  0  0  0
 58131  1  0  0  0
 59 60  1  0  0  0
 59 61  1  0  0  0
 59 62  1  0  0  0
 60132  1  0  0  0
 60133  1  0  0  0
 60134  1  0  0  0
 61135  1  0  0  0
 61136  1  0  0  0
 61137  1  0  0  0
 62138  1  0  0  0
 62139  1  0  0  0
 62140  1  0  0  0
 63 65  1  0  0  0
 63141  1  0  0  0
 63142  1  0  0  0
 63143  1  0  0  0
 64144  1  0  0  0
 65145  1  0  0  0
 68 82  1  0  0  0
 71 73  2  0  0  0
 71 74  1  0  0  0
 71146  1  0  0  0
 72 73  1  0  0  0
 72 75  2  0  0  0
 72147  1  0  0  0
 73 82  1  0  0  0
 74 83  1  0  0  0
 74 84  2  0  0  0
 75 84  1  0  0  0
 75 85  1  0  0  0
 76148  1  0  0  0
 76149  1  0  0  0
 76150  1  0  0  0
 76 82  1  0  0  0
 77151  1  0  0  0
 77152  1  0  0  0
 77153  1  0  0  0
 77 83  1  0  0  0
 78 83  1  0  0  0
 78154  1  0  0  0
 78155  1  0  0  0
 78156  1  0  0  0
 79 83  1  0  0  0
 79157  1  0  0  0
 79158  1  0  0  0
 79159  1  0  0  0
 80 81  1  0  0  0
 80 85  1  0  0  0
 80160  1  0  0  0
 80161  1  0  0  0
 81 86  1  0  0  0
 81162  1  0  0  0
 81163  1  0  0  0
 82164  1  0  0  0
 85165  1  0  0  0
 86166  1  0  0  0
M  ISO  4   1 100  68 101  82 101  86 100
M  END
> <chiral flag>
0

> <version>
0

> <s_m_source_file>
/data/baiqing/PycharmProjects/Reinvent-master-3.2/result/LINK_invent/BTK/process_docking_weight1_custom_sum_contain_oxygen_bond_distance_aromatic_linkinvent_7_9_3/rearranged_h_0116.sdf

> <i_m_source_file_index>
25

> <r_mmod_Potential_Energy-OPLS-2005>
-163.176391601562

> <r_mmod_Stretch_Energy-OPLS-2005>
116.627090454102

> <r_mmod_Bend_Energy-OPLS-2005>
181.392562866211

> <r_mmod_Torsional_Energy-OPLS-2005>
212.0859375

> <r_mmod_Improper_Torsional_Energy-OPLS-2005>
8.51379108428955

> <r_mmod_Van_der_Waal_Energy-OPLS-2005>
164.30436706543

> <r_mmod_Electrostatic_Energy-OPLS-2005>
-715.924499511719

> <r_mmod_Solvation_Energy-OPLS-2005>
-234.294952392578

> <b_mmod_Minimization_Converged-OPLS-2005>
0

> <r_mmod_RMS_Derivative-OPLS-2005>
5.49847173690796

$$$$
26
                    3D
 Structure written by MMmdl.
170178  0  0  1  0            999 V2000
  -30.6305  -14.7457   20.4304 C   0  0  0  0  0  0
  -30.4251  -12.4480   19.4756 C   0  0  0  0  0  0
  -29.5230  -12.5273   18.2295 C   0  0  0  0  0  0
  -28.0379  -12.3744   18.6235 C   0  0  0  0  0  0
  -27.6420  -13.2500   19.8442 C   0  0  2  0  0  0
  -28.6884  -13.1764   20.9800 C   0  0  0  0  0  0
  -25.2484  -13.8221   20.5636 C   0  0  0  0  0  0
  -24.1778  -13.0454   20.9214 C   0  0  0  0  0  0
  -24.6410  -11.6938   20.8746 C   0  0  0  0  0  0
  -23.9105  -10.4307   21.0359 C   0  0  0  0  0  0
  -24.3636   -9.4223   21.9149 C   0  0  0  0  0  0
  -23.6310   -8.2254   22.0719 C   0  0  0  0  0  0
  -22.4316   -8.0280   21.3511 C   0  0  0  0  0  0
  -21.9949   -9.0268   20.4630 C   0  0  0  0  0  0
  -22.7287  -10.2133   20.3029 C   0  0  0  0  0  0
  -21.6863   -6.0720   22.5285 C   0  0  0  0  0  0
  -21.4011   -6.5628   23.8204 C   0  0  0  0  0  0
  -21.3675   -5.6767   24.9170 C   0  0  0  0  0  0
  -21.6051   -4.3027   24.7219 C   0  0  0  0  0  0
  -21.8826   -3.8139   23.4357 C   0  0  0  0  0  0
  -21.9181   -4.6933   22.3389 C   0  0  0  0  0  0
  -22.7828  -13.5220   21.1894 C   0  0  0  0  0  0
  -22.1651   -4.2137   21.0959 F   0  0  0  0  0  0
  -21.5657   -3.4501   25.7727 F   0  0  0  0  0  0
  -29.9900  -13.5238   20.3945 N   0  0  0  0  0  0
  -26.2934  -12.9481   20.3197 N   0  0  0  0  0  0
  -25.9342  -11.6611   20.5687 N   0  0  0  0  0  0
  -22.0401  -12.8239   22.0426 N   0  0  0  0  0  0
  -25.4165  -15.1952   20.4058 N   0  0  0  0  0  0
  -31.8251  -14.7858   20.1223 O   0  0  0  0  0  0
  -21.6668   -6.8884   21.4245 O   0  0  0  0  0  0
  -22.3511  -14.5516   20.6683 O   0  0  0  0  0  0
  -24.6333  -31.8575   23.1939 C   0  0  0  0  0  0
  -25.9171  -32.4725   23.8326 C   0  0  1  0  0  0
  -27.2256  -27.2617   20.0950 C   0  0  0  0  0  0
  -25.6001  -33.8526   24.2272 N   0  0  0  0  0  0
  -23.4301  -30.4810   21.5385 C   0  0  2  0  0  0
  -24.8732  -28.9192   20.1112 C   0  0  0  0  0  0
  -22.7546  -29.4614   22.4857 C   0  0  0  0  0  0
  -18.0333  -28.1435   22.8508 C   0  0  0  0  0  0
  -24.1520  -36.7279   23.2646 C   0  0  0  0  0  0
  -25.9739  -30.7656   21.3697 C   0  0  0  0  0  0
  -26.0462  -29.3810   20.7213 C   0  0  0  0  0  0
  -27.2250  -28.5626   20.7100 C   0  0  0  0  0  0
  -26.0293  -26.8694   19.4551 C   0  0  0  0  0  0
  -24.8650  -27.6673   19.4753 C   0  0  0  0  0  0
  -23.6494  -29.8181   20.1554 C   0  0  0  0  0  0
  -25.4117  -36.3017   24.0336 C   0  0  1  0  0  0
  -20.5937  -28.3746   23.1285 C   0  0  2  0  0  0
  -20.6839  -26.9456   22.5442 C   0  0  0  0  0  0
  -19.5793  -26.6404   21.5292 C   0  0  0  0  0  0
  -18.1964  -26.7981   22.1670 C   0  0  0  0  0  0
  -19.1574  -28.8912   23.2898 C   0  0  0  0  0  0
  -18.9486  -30.1508   23.8903 C   0  0  0  0  0  0
  -17.6462  -30.6608   24.0568 C   0  0  0  0  0  0
  -25.9070  -34.9399   23.5078 C   0  0  0  0  0  0
  -16.5364  -29.9094   23.6299 C   0  0  0  0  0  0
  -16.7311  -28.6536   23.0303 C   0  0  0  0  0  0
  -26.4534  -31.6530   25.0702 C   0  0  0  0  0  0
  -25.3762  -31.3685   26.1436 C   0  0  0  0  0  0
  -27.0346  -30.2951   24.6095 C   0  0  0  0  0  0
  -27.6128  -32.4196   25.7507 C   0  0  0  0  0  0
  -27.5556  -37.1770   24.8435 C   0  0  0  0  0  0
  -21.4249  -29.3065   22.3627 N   0  0  0  0  0  0
  -26.4249  -37.3732   23.9412 N   0  0  0  0  0  0
  -24.6991  -31.0543   22.0920 N   0  0  0  0  0  0
  -23.4279  -28.8166   23.2954 O   0  0  0  0  0  0
  -28.3340  -26.3820   20.0645 O   0  0  0  0  0  0
  -26.5576  -34.8885   22.4607 O   0  0  0  0  0  0
  -23.5461  -32.1433   23.7214 O   0  0  0  0  0  0
  -31.2465  -20.0183   20.7328 C   0  0  0  0  0  0
  -31.5518  -17.6416   21.1066 C   0  0  0  0  0  0
  -32.0440  -18.9554   21.1991 C   0  0  0  0  0  0
  -29.9673  -19.7594   20.1961 C   0  0  0  0  0  0
  -30.2840  -17.3474   20.5766 C   0  0  0  0  0  0
  -33.4741  -20.3270   22.7988 C   0  0  0  0  0  0
  -34.5086  -19.3155   20.7123 C   0  0  0  0  0  0
  -28.5927  -19.8470   17.2580 C   0  0  0  0  0  0
  -26.8412  -19.9009   19.0950 C   0  0  0  0  0  0
  -28.7398  -23.6721   19.6184 C   0  0  0  0  0  0
  -28.1809  -24.9382   20.4769 C   0  0  0  0  0  0
  -33.4338  -19.1687   21.7957 C   0  0  0  0  0  0
  -29.2052  -21.0061   19.5044 C   0  0  1  0  0  0
  -28.0710  -20.6173   18.4922 C   0  0  0  0  0  0
  -29.5069  -18.4329   20.1628 N   0  0  0  0  0  0
  -29.8777  -15.9120   20.5653 N   0  0  0  0  0  0
  -28.8863  -22.2869   20.3138 N   0  3  0  0  0  0
  -31.4718  -12.5432   19.1815 H   0  0  0  0  0  0
  -30.3444  -11.4669   19.9398 H   0  0  0  0  0  0
  -29.8095  -11.7686   17.5034 H   0  0  0  0  0  0
  -29.6819  -13.4859   17.7346 H   0  0  0  0  0  0
  -27.8665  -11.3254   18.8507 H   0  0  0  0  0  0
  -27.3967  -12.6031   17.7707 H   0  0  0  0  0  0
  -27.6373  -14.2800   19.4879 H   0  0  0  0  0  0
  -28.7060  -12.1827   21.4253 H   0  0  0  0  0  0
  -28.4374  -13.8685   21.7833 H   0  0  0  0  0  0
  -25.2748   -9.5735   22.4750 H   0  0  0  0  0  0
  -24.0027   -7.4659   22.7450 H   0  0  0  0  0  0
  -21.0867   -8.8818   19.8984 H   0  0  0  0  0  0
  -22.3711  -10.9674   19.6180 H   0  0  0  0  0  0
  -21.1995   -7.6133   23.9732 H   0  0  0  0  0  0
  -21.1499   -6.0462   25.9061 H   0  0  0  0  0  0
  -22.0598   -2.7600   23.2825 H   0  0  0  0  0  0
  -22.3914  -11.9920   22.4933 H   0  0  0  0  0  0
  -21.1015  -13.1324   22.2530 H   0  0  0  0  0  0
  -24.6501  -15.8521   20.5150 H   0  0  0  0  0  0
  -26.2606  -15.6293   20.0529 H   0  0  0  0  0  0
  -26.7238  -32.5391   23.1083 H   0  0  0  0  0  0
  -25.0138  -33.9651   25.0402 H   0  0  0  0  0  0
  -22.7264  -31.3026   21.3909 H   0  0  0  0  0  0
  -23.3757  -35.9632   23.3235 H   0  0  0  0  0  0
  -24.3651  -36.8973   22.2079 H   0  0  0  0  0  0
  -23.7304  -37.6478   23.6710 H   0  0  0  0  0  0
  -26.0872  -31.5159   20.5865 H   0  0  0  0  0  0
  -26.8668  -30.8351   21.9807 H   0  0  0  0  0  0
  -28.1213  -28.9164   21.2047 H   0  0  0  0  0  0
  -25.9803  -25.9270   18.9264 H   0  0  0  0  0  0
  -23.9634  -27.3100   18.9953 H   0  0  0  0  0  0
  -23.7823  -30.6008   19.4069 H   0  0  0  0  0  0
  -22.7674  -29.2618   19.8373 H   0  0  0  0  0  0
  -25.1280  -36.1837   25.0813 H   0  0  0  0  0  0
  -21.0030  -28.3378   24.1413 H   0  0  0  0  0  0
  -20.5892  -26.2343   23.3649 H   0  0  0  0  0  0
  -21.6680  -26.7563   22.1136 H   0  0  0  0  0  0
  -19.6940  -25.6327   21.1286 H   0  0  0  0  0  0
  -19.6741  -27.3249   20.6861 H   0  0  0  0  0  0
  -17.4261  -26.6809   21.4019 H   0  0  0  0  0  0
  -18.0281  -26.0139   22.9073 H   0  0  0  0  0  0
  -19.7950  -30.7346   24.2287 H   0  0  0  0  0  0
  -17.4998  -31.6281   24.5182 H   0  0  0  0  0  0
  -15.5343  -30.2970   23.7621 H   0  0  0  0  0  0
  -15.8753  -28.0859   22.6917 H   0  0  0  0  0  0
  -24.5964  -30.6979   25.7807 H   0  0  0  0  0  0
  -24.8918  -32.2841   26.4823 H   0  0  0  0  0  0
  -25.8106  -30.8935   27.0240 H   0  0  0  0  0  0
  -26.2873  -29.6708   24.1155 H   0  0  0  0  0  0
  -27.4132  -29.7183   25.4552 H   0  0  0  0  0  0
  -27.8735  -30.4302   23.9256 H   0  0  0  0  0  0
  -27.2828  -33.3549   26.2054 H   0  0  0  0  0  0
  -28.4023  -32.6610   25.0373 H   0  0  0  0  0  0
  -28.0690  -31.8271   26.5461 H   0  0  0  0  0  0
  -28.2475  -38.0140   24.7436 H   0  0  0  0  0  0
  -28.1116  -36.2626   24.6256 H   0  0  0  0  0  0
  -27.2249  -37.1420   25.8828 H   0  0  0  0  0  0
  -20.9435  -29.8834   21.6852 H   0  0  0  0  0  0
  -26.0098  -38.2783   24.1431 H   0  0  0  0  0  0
  -31.6428  -21.0265   20.7524 H   0  0  0  0  0  0
  -32.1894  -16.8400   21.4498 H   0  0  0  0  0  0
  -32.7493  -20.1673   23.5983 H   0  0  0  0  0  0
  -33.2436  -21.2787   22.3213 H   0  0  0  0  0  0
  -34.4642  -20.4144   23.2519 H   0  0  0  0  0  0
  -34.4719  -18.4829   20.0089 H   0  0  0  0  0  0
  -35.5067  -19.3258   21.1589 H   0  0  0  0  0  0
  -34.3721  -20.2388   20.1474 H   0  0  0  0  0  0
  -27.8075  -19.7066   16.5123 H   0  0  0  0  0  0
  -28.9809  -18.8598   17.5103 H   0  0  0  0  0  0
  -29.3992  -20.3890   16.7632 H   0  0  0  0  0  0
  -26.0051  -19.9174   18.3950 H   0  0  0  0  0  0
  -26.4923  -20.3626   20.0192 H   0  0  0  0  0  0
  -27.0370  -18.8507   19.3142 H   0  0  0  0  0  0
  -29.7095  -23.9381   19.1951 H   0  0  0  0  0  0
  -28.0802  -23.5570   18.7601 H   0  0  0  0  0  0
  -28.6781  -24.8963   21.4489 H   0  0  0  0  0  0
  -27.1355  -24.7370   20.7082 H   0  0  0  0  0  0
  -33.6778  -18.2707   22.3631 H   0  0  0  0  0  0
  -29.9993  -21.3831   18.8558 H   0  0  0  0  0  0
  -27.6836  -21.5455   18.0809 H   0  0  0  0  0  0
  -28.8854  -15.7630   20.6639 H   0  0  0  0  0  0
  -28.0651  -22.1042   20.8677 H   0  0  0  0  0  0
  -29.6424  -22.3811   20.9714 H   0  0  0  0  0  0
  1 25  1  0  0  0
  1 30  2  0  0  0
  1 86  1  0  0  0
  2  3  1  0  0  0
  2 25  1  0  0  0
  2 88  1  0  0  0
  2 89  1  0  0  0
  3  4  1  0  0  0
  3 90  1  0  0  0
  3 91  1  0  0  0
  4  5  1  0  0  0
  4 92  1  0  0  0
  4 93  1  0  0  0
  5  6  1  0  0  0
  5 26  1  0  0  0
  5 94  1  0  0  0
  6 25  1  0  0  0
  6 95  1  0  0  0
  6 96  1  0  0  0
  7  8  2  0  0  0
  7 26  1  0  0  0
  7 29  1  0  0  0
  8  9  1  0  0  0
  8 22  1  0  0  0
  9 10  1  0  0  0
  9 27  2  0  0  0
 10 11  2  0  0  0
 10 15  1  0  0  0
 11 12  1  0  0  0
 11 97  1  0  0  0
 12 13  2  0  0  0
 12 98  1  0  0  0
 13 14  1  0  0  0
 13 31  1  0  0  0
 14 15  2  0  0  0
 14 99  1  0  0  0
 15100  1  0  0  0
 16 17  2  0  0  0
 16 21  1  0  0  0
 16 31  1  0  0  0
 17 18  1  0  0  0
 17101  1  0  0  0
 18 19  2  0  0  0
 18102  1  0  0  0
 19 20  1  0  0  0
 19 24  1  0  0  0
 20 21  2  0  0  0
 20103  1  0  0  0
 21 23  1  0  0  0
 22 28  1  0  0  0
 22 32  2  0  0  0
 26 27  1  0  0  0
 28104  1  0  0  0
 28105  1  0  0  0
 29106  1  0  0  0
 29107  1  0  0  0
 33 34  1  0  0  0
 33 66  1  0  0  0
 33 70  2  0  0  0
 34 36  1  0  0  0
 34 59  1  0  0  0
 34108  1  0  0  0
 35 44  2  0  0  0
 35 45  1  0  0  0
 35 68  1  0  0  0
 36 56  1  0  0  0
 36109  1  0  0  0
 37 39  1  0  0  0
 37 47  1  0  0  0
 37 66  1  0  0  0
 37110  1  0  0  0
 38 43  2  0  0  0
 38 46  1  0  0  0
 38 47  1  0  0  0
 39 64  1  0  0  0
 39 67  2  0  0  0
 40 52  1  0  0  0
 40 53  2  0  0  0
 40 58  1  0  0  0
 41111  1  0  0  0
 41112  1  0  0  0
 41113  1  0  0  0
 41 48  1  0  0  0
 42 43  1  0  0  0
 42 66  1  0  0  0
 42114  1  0  0  0
 42115  1  0  0  0
 43 44  1  0  0  0
 44116  1  0  0  0
 45 46  2  0  0  0
 45117  1  0  0  0
 46118  1  0  0  0
 47119  1  0  0  0
 47120  1  0  0  0
 48 56  1  0  0  0
 48 65  1  0  0  0
 48121  1  0  0  0
 49 50  1  0  0  0
 49 53  1  0  0  0
 49 64  1  0  0  0
 49122  1  0  0  0
 50 51  1  0  0  0
 50123  1  0  0  0
 50124  1  0  0  0
 51 52  1  0  0  0
 51125  1  0  0  0
 51126  1  0  0  0
 52127  1  0  0  0
 52128  1  0  0  0
 53 54  1  0  0  0
 54 55  2  0  0  0
 54129  1  0  0  0
 55 57  1  0  0  0
 55130  1  0  0  0
 56 69  2  0  0  0
 57 58  2  0  0  0
 57131  1  0  0  0
 58132  1  0  0  0
 59 60  1  0  0  0
 59 61  1  0  0  0
 59 62  1  0  0  0
 60133  1  0  0  0
 60134  1  0  0  0
 60135  1  0  0  0
 61136  1  0  0  0
 61137  1  0  0  0
 61138  1  0  0  0
 62139  1  0  0  0
 62140  1  0  0  0
 62141  1  0  0  0
 63 65  1  0  0  0
 63142  1  0  0  0
 63143  1  0  0  0
 63144  1  0  0  0
 64145  1  0  0  0
 65146  1  0  0  0
 68 81  1  0  0  0
 71 73  2  0  0  0
 71 74  1  0  0  0
 71147  1  0  0  0
 72 73  1  0  0  0
 72 75  2  0  0  0
 72148  1  0  0  0
 73 82  1  0  0  0
 74 83  1  0  0  0
 74 85  2  0  0  0
 75 85  1  0  0  0
 75 86  1  0  0  0
 76149  1  0  0  0
 76150  1  0  0  0
 76151  1  0  0  0
 76 82  1  0  0  0
 77 82  1  0  0  0
 77152  1  0  0  0
 77153  1  0  0  0
 77154  1  0  0  0
 78155  1  0  0  0
 78156  1  0  0  0
 78157  1  0  0  0
 78 84  1  0  0  0
 79 84  1  0  0  0
 79158  1  0  0  0
 79159  1  0  0  0
 79160  1  0  0  0
 80 81  1  0  0  0
 80 87  1  0  0  0
 80161  1  0  0  0
 80162  1  0  0  0
 81163  1  0  0  0
 81164  1  0  0  0
 82165  1  0  0  0
 83 84  1  0  0  0
 83 87  1  0  0  0
 83166  1  0  0  0
 84167  1  0  0  0
 86168  1  0  0  0
 87169  1  0  0  0
 87170  1  0  0  0
M  CHG  1  87   1
M  ISO  4   1 100  68 101  81 101  86 100
M  END
> <chiral flag>
0

> <version>
0

> <s_m_source_file>
/data/baiqing/PycharmProjects/Reinvent-master-3.2/result/LINK_invent/BTK/process_docking_weight1_custom_sum_contain_oxygen_bond_distance_aromatic_linkinvent_7_9_3/rearranged_h_0116.sdf

> <i_m_source_file_index>
26

> <r_mmod_Potential_Energy-OPLS-2005>
-95.2622299194336

> <r_mmod_Stretch_Energy-OPLS-2005>
142.409713745117

> <r_mmod_Bend_Energy-OPLS-2005>
197.387420654297

> <r_mmod_Torsional_Energy-OPLS-2005>
258.379089355469

> <r_mmod_Improper_Torsional_Energy-OPLS-2005>
6.29130554199219

> <r_mmod_Van_der_Waal_Energy-OPLS-2005>
137.634216308594

> <r_mmod_Electrostatic_Energy-OPLS-2005>
-468.091857910156

> <r_mmod_Solvation_Energy-OPLS-2005>
-451.538146972656

> <b_mmod_Minimization_Converged-OPLS-2005>
0

> <r_mmod_RMS_Derivative-OPLS-2005>
7.43513202667236

$$$$
27
                    3D
 Structure written by MMmdl.
162171  0  0  1  0            999 V2000
  -30.7138  -14.5979   20.5263 C   0  0  0  0  0  0
  -30.4067  -12.3668   19.4742 C   0  0  0  0  0  0
  -29.4986  -12.4853   18.2345 C   0  0  0  0  0  0
  -28.0223  -12.3408   18.6432 C   0  0  0  0  0  0
  -27.6480  -13.2268   19.8608 C   0  0  2  0  0  0
  -28.6857  -13.1232   20.9994 C   0  0  0  0  0  0
  -25.2527  -13.8213   20.5677 C   0  0  0  0  0  0
  -24.1799  -13.0459   20.9170 C   0  0  0  0  0  0
  -24.6387  -11.6943   20.8755 C   0  0  0  0  0  0
  -23.9071  -10.4304   21.0425 C   0  0  0  0  0  0
  -24.3618   -9.4220   21.9200 C   0  0  0  0  0  0
  -23.6285   -8.2265   22.0773 C   0  0  0  0  0  0
  -22.4282   -8.0289   21.3543 C   0  0  0  0  0  0
  -21.9919   -9.0275   20.4655 C   0  0  0  0  0  0
  -22.7256  -10.2147   20.3065 C   0  0  0  0  0  0
  -21.6844   -6.0738   22.5266 C   0  0  0  0  0  0
  -21.4012   -6.5646   23.8198 C   0  0  0  0  0  0
  -21.3649   -5.6803   24.9161 C   0  0  0  0  0  0
  -21.6044   -4.3063   24.7216 C   0  0  0  0  0  0
  -21.8814   -3.8151   23.4340 C   0  0  0  0  0  0
  -21.9192   -4.6970   22.3391 C   0  0  0  0  0  0
  -22.7825  -13.5247   21.1817 C   0  0  0  0  0  0
  -22.1658   -4.2156   21.0965 F   0  0  0  0  0  0
  -21.5629   -3.4544   25.7728 F   0  0  0  0  0  0
  -30.0068  -13.4239   20.4318 N   0  0  0  0  0  0
  -26.2962  -12.9417   20.3337 N   0  0  0  0  0  0
  -25.9326  -11.6564   20.5801 N   0  0  0  0  0  0
  -22.0458  -12.8243   22.0369 N   0  0  0  0  0  0
  -25.4250  -15.1933   20.4104 N   0  0  0  0  0  0
  -31.8369  -14.6682   20.0164 O   0  0  0  0  0  0
  -21.6642   -6.8892   21.4231 O   0  0  0  0  0  0
  -22.3512  -14.5557   20.6663 O   0  0  0  0  0  0
  -24.6271  -31.8556   23.2024 C   0  0  0  0  0  0
  -25.9114  -32.4741   23.8361 C   0  0  1  0  0  0
  -27.2403  -27.3360   20.1328 C   0  0  0  0  0  0
  -25.5949  -33.8547   24.2294 N   0  0  0  0  0  0
  -23.4229  -30.4761   21.5394 C   0  0  2  0  0  0
  -24.8755  -28.9241   20.1170 C   0  0  0  0  0  0
  -22.7486  -29.4580   22.4905 C   0  0  0  0  0  0
  -18.0274  -28.1375   22.8484 C   0  0  0  0  0  0
  -24.1483  -36.7246   23.2638 C   0  0  0  0  0  0
  -25.9611  -30.7898   21.3750 C   0  0  0  0  0  0
  -26.0390  -29.4174   20.7223 C   0  0  0  0  0  0
  -27.2256  -28.6346   20.7185 C   0  0  0  0  0  0
  -26.0596  -26.8772   19.5116 C   0  0  0  0  0  0
  -24.8850  -27.6586   19.5027 C   0  0  0  0  0  0
  -23.6440  -29.8047   20.1567 C   0  0  0  0  0  0
  -25.4100  -36.3048   24.0348 C   0  0  1  0  0  0
  -20.5883  -28.3669   23.1266 C   0  0  2  0  0  0
  -20.6744  -26.9392   22.5393 C   0  0  0  0  0  0
  -19.5729  -26.6385   21.5184 C   0  0  0  0  0  0
  -18.1904  -26.7924   22.1595 C   0  0  0  0  0  0
  -19.1534  -28.8842   23.2869 C   0  0  0  0  0  0
  -18.9473  -30.1446   23.8895 C   0  0  0  0  0  0
  -17.6471  -30.6586   24.0566 C   0  0  0  0  0  0
  -25.9055  -34.9425   23.5110 C   0  0  0  0  0  0
  -16.5354  -29.9083   23.6354 C   0  0  0  0  0  0
  -16.7262  -28.6498   23.0366 C   0  0  0  0  0  0
  -26.4536  -31.6573   25.0734 C   0  0  0  0  0  0
  -25.3789  -31.3652   26.1466 C   0  0  0  0  0  0
  -27.0435  -30.3012   24.6216 C   0  0  0  0  0  0
  -27.6122  -32.4333   25.7464 C   0  0  0  0  0  0
  -27.5564  -37.1767   24.8481 C   0  0  0  0  0  0
  -21.4196  -29.3026   22.3672 N   0  0  0  0  0  0
  -26.4253  -37.3766   23.9464 N   0  0  0  0  0  0
  -24.6873  -31.0575   22.0965 N   0  0  0  0  0  0
  -23.4196  -28.8099   23.2965 O   0  0  0  0  0  0
  -28.3857  -26.5390   20.1026 O   0  0  0  0  0  0
  -26.5599  -34.8895   22.4661 O   0  0  0  0  0  0
  -23.5432  -32.1377   23.7352 O   0  0  0  0  0  0
  -29.6800  -20.6859   19.5354 C   0  0  0  0  0  0
  -30.0120  -19.3080   19.4147 C   0  0  0  0  0  0
  -28.7864  -20.1685   21.6887 C   0  0  0  0  0  0
  -29.1047  -21.1719   20.7319 C   0  0  0  0  0  0
  -29.7778  -18.4038   20.4821 C   0  0  0  0  0  0
  -31.2438  -16.7903   22.9111 C   0  0  0  0  0  0
  -31.7652  -17.3774   21.5988 C   0  0  0  0  0  0
  -30.1194  -15.8158   22.5070 C   0  0  0  0  0  0
  -30.6444  -17.0915   20.5876 C   0  0  1  0  0  0
  -27.7851  -25.4983   22.2853 C   0  0  0  0  0  0
  -29.0747  -22.6991   21.1268 C   0  0  0  0  0  0
  -28.3582  -23.8603   20.2981 C   0  0  0  0  0  0
  -28.5145  -25.3243   20.9333 C   0  0  1  0  0  0
  -29.1019  -18.8445   21.5732 N   0  0  0  0  0  0
  -30.1232  -15.7401   21.0374 N   0  0  0  0  0  0
  -31.4538  -12.4296   19.1754 H   0  0  0  0  0  0
  -30.3010  -11.3827   19.9353 H   0  0  0  0  0  0
  -29.7596  -11.7175   17.5045 H   0  0  0  0  0  0
  -29.6601  -13.4448   17.7426 H   0  0  0  0  0  0
  -27.8535  -11.2913   18.8858 H   0  0  0  0  0  0
  -27.3709  -12.5670   17.7985 H   0  0  0  0  0  0
  -27.6625  -14.2577   19.5047 H   0  0  0  0  0  0
  -28.6813  -12.1295   21.4486 H   0  0  0  0  0  0
  -28.4231  -13.8137   21.8000 H   0  0  0  0  0  0
  -25.2752   -9.5703   22.4795 H   0  0  0  0  0  0
  -23.9981   -7.4665   22.7508 H   0  0  0  0  0  0
  -21.0852   -8.8799   19.8963 H   0  0  0  0  0  0
  -22.3708  -10.9697   19.6182 H   0  0  0  0  0  0
  -21.2002   -7.6155   23.9700 H   0  0  0  0  0  0
  -21.1467   -6.0531   25.9060 H   0  0  0  0  0  0
  -22.0598   -2.7617   23.2829 H   0  0  0  0  0  0
  -22.4075  -11.9892   22.4740 H   0  0  0  0  0  0
  -21.1089  -13.1288   22.2584 H   0  0  0  0  0  0
  -24.6658  -15.8538   20.5330 H   0  0  0  0  0  0
  -26.2924  -15.6351   20.1319 H   0  0  0  0  0  0
  -26.7159  -32.5437   23.1099 H   0  0  0  0  0  0
  -25.0219  -33.9714   25.0510 H   0  0  0  0  0  0
  -22.7171  -31.2953   21.3852 H   0  0  0  0  0  0
  -23.3776  -35.9537   23.3271 H   0  0  0  0  0  0
  -24.3560  -36.8908   22.2055 H   0  0  0  0  0  0
  -23.7209  -37.6430   23.6681 H   0  0  0  0  0  0
  -26.0972  -31.5533   20.6074 H   0  0  0  0  0  0
  -26.8397  -30.8353   22.0086 H   0  0  0  0  0  0
  -28.1247  -29.0091   21.1872 H   0  0  0  0  0  0
  -26.0561  -25.9077   19.0335 H   0  0  0  0  0  0
  -23.9944  -27.2806   19.0209 H   0  0  0  0  0  0
  -23.7726  -30.5790   19.4002 H   0  0  0  0  0  0
  -22.7688  -29.2296   19.8500 H   0  0  0  0  0  0
  -25.1261  -36.1864   25.0834 H   0  0  0  0  0  0
  -20.9975  -28.3228   24.1380 H   0  0  0  0  0  0
  -20.5611  -26.2276   23.3589 H   0  0  0  0  0  0
  -21.6607  -26.7369   22.1196 H   0  0  0  0  0  0
  -19.6894  -25.6297   21.1208 H   0  0  0  0  0  0
  -19.6693  -27.3190   20.6708 H   0  0  0  0  0  0
  -17.4178  -26.6717   21.3982 H   0  0  0  0  0  0
  -18.0281  -26.0044   22.8967 H   0  0  0  0  0  0
  -19.7950  -30.7257   24.2281 H   0  0  0  0  0  0
  -17.5026  -31.6264   24.5145 H   0  0  0  0  0  0
  -15.5363  -30.2977   23.7695 H   0  0  0  0  0  0
  -15.8654  -28.0824   22.7086 H   0  0  0  0  0  0
  -24.6070  -30.6859   25.7820 H   0  0  0  0  0  0
  -24.8820  -32.2753   26.4842 H   0  0  0  0  0  0
  -25.8152  -30.8942   27.0280 H   0  0  0  0  0  0
  -26.3037  -29.6674   24.1306 H   0  0  0  0  0  0
  -27.4240  -29.7345   25.4730 H   0  0  0  0  0  0
  -27.8832  -30.4338   23.9379 H   0  0  0  0  0  0
  -27.2811  -33.3721   26.1916 H   0  0  0  0  0  0
  -28.3956  -32.6751   25.0264 H   0  0  0  0  0  0
  -28.0751  -31.8524   26.5469 H   0  0  0  0  0  0
  -28.2549  -38.0098   24.7578 H   0  0  0  0  0  0
  -28.1104  -36.2638   24.6232 H   0  0  0  0  0  0
  -27.2297  -37.1311   25.8885 H   0  0  0  0  0  0
  -20.9384  -29.8816   21.6944 H   0  0  0  0  0  0
  -26.0130  -38.2816   24.1543 H   0  0  0  0  0  0
  -29.9739  -21.3710   18.7533 H   0  0  0  0  0  0
  -30.5680  -18.9802   18.5454 H   0  0  0  0  0  0
  -28.3676  -20.4474   22.6443 H   0  0  0  0  0  0
  -30.8470  -17.5757   23.5567 H   0  0  0  0  0  0
  -32.0476  -16.2946   23.4581 H   0  0  0  0  0  0
  -32.6744  -16.8529   21.3008 H   0  0  0  0  0  0
  -32.0192  -18.4361   21.6705 H   0  0  0  0  0  0
  -29.1492  -16.1878   22.8392 H   0  0  0  0  0  0
  -30.2677  -14.8496   22.9958 H   0  0  0  0  0  0
  -31.0868  -16.9789   19.5956 H   0  0  0  0  0  0
  -27.9515  -24.6638   22.9645 H   0  0  0  0  0  0
  -26.7077  -25.6012   22.1609 H   0  0  0  0  0  0
  -28.1482  -26.3864   22.8063 H   0  0  0  0  0  0
  -30.1272  -22.9755   21.2063 H   0  0  0  0  0  0
  -28.7066  -22.7413   22.1521 H   0  0  0  0  0  0
  -27.2994  -23.6313   20.1765 H   0  0  0  0  0  0
  -28.7780  -23.8761   19.2915 H   0  0  0  0  0  0
  -29.5747  -25.3737   21.1869 H   0  0  0  0  0  0
  1 25  1  0  0  0
  1 30  2  0  0  0
  1 85  1  0  0  0
  2  3  1  0  0  0
  2 25  1  0  0  0
  2 86  1  0  0  0
  2 87  1  0  0  0
  3  4  1  0  0  0
  3 88  1  0  0  0
  3 89  1  0  0  0
  4  5  1  0  0  0
  4 90  1  0  0  0
  4 91  1  0  0  0
  5  6  1  0  0  0
  5 26  1  0  0  0
  5 92  1  0  0  0
  6 25  1  0  0  0
  6 93  1  0  0  0
  6 94  1  0  0  0
  7  8  2  0  0  0
  7 26  1  0  0  0
  7 29  1  0  0  0
  8  9  1  0  0  0
  8 22  1  0  0  0
  9 10  1  0  0  0
  9 27  2  0  0  0
 10 11  2  0  0  0
 10 15  1  0  0  0
 11 12  1  0  0  0
 11 95  1  0  0  0
 12 13  2  0  0  0
 12 96  1  0  0  0
 13 14  1  0  0  0
 13 31  1  0  0  0
 14 15  2  0  0  0
 14 97  1  0  0  0
 15 98  1  0  0  0
 16 17  2  0  0  0
 16 21  1  0  0  0
 16 31  1  0  0  0
 17 18  1  0  0  0
 17 99  1  0  0  0
 18 19  2  0  0  0
 18100  1  0  0  0
 19 20  1  0  0  0
 19 24  1  0  0  0
 20 21  2  0  0  0
 20101  1  0  0  0
 21 23  1  0  0  0
 22 28  1  0  0  0
 22 32  2  0  0  0
 26 27  1  0  0  0
 28102  1  0  0  0
 28103  1  0  0  0
 29104  1  0  0  0
 29105  1  0  0  0
 33 34  1  0  0  0
 33 66  1  0  0  0
 33 70  2  0  0  0
 34 36  1  0  0  0
 34 59  1  0  0  0
 34106  1  0  0  0
 35 44  2  0  0  0
 35 45  1  0  0  0
 35 68  1  0  0  0
 36 56  1  0  0  0
 36107  1  0  0  0
 37 39  1  0  0  0
 37 47  1  0  0  0
 37 66  1  0  0  0
 37108  1  0  0  0
 38 43  2  0  0  0
 38 46  1  0  0  0
 38 47  1  0  0  0
 39 64  1  0  0  0
 39 67  2  0  0  0
 40 52  1  0  0  0
 40 53  2  0  0  0
 40 58  1  0  0  0
 41109  1  0  0  0
 41110  1  0  0  0
 41111  1  0  0  0
 41 48  1  0  0  0
 42 43  1  0  0  0
 42 66  1  0  0  0
 42112  1  0  0  0
 42113  1  0  0  0
 43 44  1  0  0  0
 44114  1  0  0  0
 45 46  2  0  0  0
 45115  1  0  0  0
 46116  1  0  0  0
 47117  1  0  0  0
 47118  1  0  0  0
 48 56  1  0  0  0
 48 65  1  0  0  0
 48119  1  0  0  0
 49 50  1  0  0  0
 49 53  1  0  0  0
 49 64  1  0  0  0
 49120  1  0  0  0
 50 51  1  0  0  0
 50121  1  0  0  0
 50122  1  0  0  0
 51 52  1  0  0  0
 51123  1  0  0  0
 51124  1  0  0  0
 52125  1  0  0  0
 52126  1  0  0  0
 53 54  1  0  0  0
 54 55  2  0  0  0
 54127  1  0  0  0
 55 57  1  0  0  0
 55128  1  0  0  0
 56 69  2  0  0  0
 57 58  2  0  0  0
 57129  1  0  0  0
 58130  1  0  0  0
 59 60  1  0  0  0
 59 61  1  0  0  0
 59 62  1  0  0  0
 60131  1  0  0  0
 60132  1  0  0  0
 60133  1  0  0  0
 61134  1  0  0  0
 61135  1  0  0  0
 61136  1  0  0  0
 62137  1  0  0  0
 62138  1  0  0  0
 62139  1  0  0  0
 63 65  1  0  0  0
 63140  1  0  0  0
 63141  1  0  0  0
 63142  1  0  0  0
 64143  1  0  0  0
 65144  1  0  0  0
 68 83  1  0  0  0
 71 72  2  0  0  0
 71 74  1  0  0  0
 71145  1  0  0  0
 72 75  1  0  0  0
 72146  1  0  0  0
 73 74  2  0  0  0
 73 84  1  0  0  0
 73147  1  0  0  0
 74 81  1  0  0  0
 75 84  2  0  0  0
 75 79  1  0  0  0
 76 77  1  0  0  0
 76 78  1  0  0  0
 76148  1  0  0  0
 76149  1  0  0  0
 77 79  1  0  0  0
 77150  1  0  0  0
 77151  1  0  0  0
 78 85  1  0  0  0
 78152  1  0  0  0
 78153  1  0  0  0
 79 85  1  0  0  0
 79154  1  0  0  0
 80155  1  0  0  0
 80156  1  0  0  0
 80157  1  0  0  0
 80 83  1  0  0  0
 81 82  1  0  0  0
 81158  1  0  0  0
 81159  1  0  0  0
 82 83  1  0  0  0
 82160  1  0  0  0
 82161  1  0  0  0
 83162  1  0  0  0
M  ISO  4   1 100  68 101  83 101  85 100
M  END
> <chiral flag>
0

> <version>
0

> <s_m_source_file>
/data/baiqing/PycharmProjects/Reinvent-master-3.2/result/LINK_invent/BTK/process_docking_weight1_custom_sum_contain_oxygen_bond_distance_aromatic_linkinvent_7_9_3/rearranged_h_0116.sdf

> <i_m_source_file_index>
27

> <r_mmod_Potential_Energy-OPLS-2005>
178.891754150391

> <r_mmod_Stretch_Energy-OPLS-2005>
83.0001373291016

> <r_mmod_Bend_Energy-OPLS-2005>
201.858993530273

> <r_mmod_Torsional_Energy-OPLS-2005>
363.040222167969

> <r_mmod_Improper_Torsional_Energy-OPLS-2005>
14.3152151107788

> <r_mmod_Van_der_Waal_Energy-OPLS-2005>
146.641784667969

> <r_mmod_Electrostatic_Energy-OPLS-2005>
-475.641235351562

> <r_mmod_Solvation_Energy-OPLS-2005>
-192.643463134766

> <b_mmod_Minimization_Converged-OPLS-2005>
0

> <r_mmod_RMS_Derivative-OPLS-2005>
3.31518268585205

$$$$
28
                    3D
 Structure written by MMmdl.
163171  0  0  1  0            999 V2000
  -30.3664  -15.3865   20.3450 C   0  0  0  0  0  0
  -30.4327  -12.8889   19.5516 C   0  0  0  0  0  0
  -29.5443  -12.6206   18.3090 C   0  0  0  0  0  0
  -28.0974  -12.3133   18.7273 C   0  0  0  0  0  0
  -27.6068  -13.2840   19.8268 C   0  0  2  0  0  0
  -28.6292  -13.4972   20.9652 C   0  0  0  0  0  0
  -25.2360  -13.8237   20.5771 C   0  0  0  0  0  0
  -24.1732  -13.0415   20.9257 C   0  0  0  0  0  0
  -24.6393  -11.6923   20.8744 C   0  0  0  0  0  0
  -23.9075  -10.4295   21.0395 C   0  0  0  0  0  0
  -24.3631   -9.4209   21.9169 C   0  0  0  0  0  0
  -23.6308   -8.2247   22.0739 C   0  0  0  0  0  0
  -22.4289   -8.0285   21.3526 C   0  0  0  0  0  0
  -21.9920   -9.0259   20.4624 C   0  0  0  0  0  0
  -22.7238  -10.2144   20.3037 C   0  0  0  0  0  0
  -21.6871   -6.0723   22.5272 C   0  0  0  0  0  0
  -21.4008   -6.5610   23.8206 C   0  0  0  0  0  0
  -21.3675   -5.6760   24.9171 C   0  0  0  0  0  0
  -21.6072   -4.3027   24.7229 C   0  0  0  0  0  0
  -21.8833   -3.8122   23.4347 C   0  0  0  0  0  0
  -21.9201   -4.6946   22.3399 C   0  0  0  0  0  0
  -22.7749  -13.5162   21.1915 C   0  0  0  0  0  0
  -22.1673   -4.2124   21.0982 F   0  0  0  0  0  0
  -21.5642   -3.4516   25.7748 F   0  0  0  0  0  0
  -29.8499  -14.0448   20.3451 N   0  0  0  0  0  0
  -26.2788  -12.9516   20.3223 N   0  0  0  0  0  0
  -25.9326  -11.6605   20.5685 N   0  0  0  0  0  0
  -22.0420  -12.8153   22.0487 N   0  0  0  0  0  0
  -25.3978  -15.1982   20.4244 N   0  0  0  0  0  0
  -31.5817  -15.3911   20.0847 O   0  0  0  0  0  0
  -21.6655   -6.8878   21.4231 O   0  0  0  0  0  0
  -22.3426  -14.5458   20.6745 O   0  0  0  0  0  0
  -24.6694  -31.8149   23.1634 C   0  0  0  0  0  0
  -25.9345  -32.4541   23.8141 C   0  0  1  0  0  0
  -27.2235  -26.8480   20.1950 C   0  0  0  0  0  0
  -25.5978  -33.8360   24.2044 N   0  0  0  0  0  0
  -23.4890  -30.4195   21.5150 C   0  0  2  0  0  0
  -24.9449  -28.7873   20.1163 C   0  0  0  0  0  0
  -22.7713  -29.4380   22.4787 C   0  0  0  0  0  0
  -18.0324  -28.1434   22.8468 C   0  0  0  0  0  0
  -24.1498  -36.7162   23.2647 C   0  0  0  0  0  0
  -26.0639  -30.5924   21.4096 C   0  0  0  0  0  0
  -26.1290  -29.1736   20.7568 C   0  0  0  0  0  0
  -27.2580  -28.2245   20.7700 C   0  0  0  0  0  0
  -26.0130  -26.6343   19.4974 C   0  0  0  0  0  0
  -24.9182  -27.5430   19.4647 C   0  0  0  0  0  0
  -23.7336  -29.7233   20.1459 C   0  0  0  0  0  0
  -25.4147  -36.2940   24.0297 C   0  0  1  0  0  0
  -20.5954  -28.3775   23.1201 C   0  0  2  0  0  0
  -20.6804  -26.9444   22.5449 C   0  0  0  0  0  0
  -19.5785  -26.6384   21.5250 C   0  0  0  0  0  0
  -18.1946  -26.7971   22.1617 C   0  0  0  0  0  0
  -19.1585  -28.8929   23.2811 C   0  0  0  0  0  0
  -18.9492  -30.1517   23.8853 C   0  0  0  0  0  0
  -17.6477  -30.6610   24.0554 C   0  0  0  0  0  0
  -25.9116  -34.9318   23.5002 C   0  0  0  0  0  0
  -16.5372  -29.9094   23.6352 C   0  0  0  0  0  0
  -16.7299  -28.6517   23.0370 C   0  0  0  0  0  0
  -26.4585  -31.6513   25.0697 C   0  0  0  0  0  0
  -25.3700  -31.3782   26.1342 C   0  0  0  0  0  0
  -27.0470  -30.2859   24.6496 C   0  0  0  0  0  0
  -27.6069  -32.4336   25.7493 C   0  0  0  0  0  0
  -27.5585  -37.1729   24.8453 C   0  0  0  0  0  0
  -21.4374  -29.3021   22.3529 N   0  0  0  0  0  0
  -26.4287  -37.3685   23.9407 N   0  0  0  0  0  0
  -24.7624  -30.9732   22.0815 N   0  0  0  0  0  0
  -23.4224  -28.7965   23.3067 O   0  0  0  0  0  0
  -28.2150  -25.7092   20.2996 O   0  0  0  0  0  0
  -26.5739  -34.8860   22.4611 O   0  0  0  0  0  0
  -23.5738  -32.1155   23.6692 O   0  0  0  0  0  0
  -29.3470  -19.5345   20.8866 C   0  0  0  0  0  0
  -29.0709  -18.8013   18.8505 C   0  0  0  0  0  0
  -29.4523  -18.2646   20.1500 C   0  0  0  0  0  0
  -28.8948  -20.2128   18.8749 C   0  0  0  0  0  0
  -28.5783  -21.1016   17.7111 C   0  0  0  0  0  0
  -32.4735  -17.1942   16.3669 C   0  0  0  0  0  0
  -27.5886  -17.0550   17.7780 C   0  0  0  0  0  0
  -31.2310  -18.0396   16.6738 C   0  0  0  0  0  0
  -30.0467  -17.1672   17.1160 C   0  0  0  0  0  0
  -28.9310  -22.4978   20.5686 C   0  0  0  0  0  0
  -28.0673  -24.0450   20.0171 C   0  0  0  0  0  0
  -28.8164  -17.9604   17.5992 C   0  0  2  0  0  0
  -29.0036  -20.8185   20.1481 N   0  0  0  0  0  0
  -29.5688  -16.6545   20.5436 N   0  0  0  0  0  0
  -31.4490  -13.1078   19.2218 H   0  0  0  0  0  0
  -30.5173  -11.9933   20.1677 H   0  0  0  0  0  0
  -29.9477  -11.7993   17.7172 H   0  0  0  0  0  0
  -29.5586  -13.5011   17.6646 H   0  0  0  0  0  0
  -28.0660  -11.2861   19.0928 H   0  0  0  0  0  0
  -27.4372  -12.3541   17.8595 H   0  0  0  0  0  0
  -27.5054  -14.2394   19.3149 H   0  0  0  0  0  0
  -28.8207  -12.5704   21.5089 H   0  0  0  0  0  0
  -28.2381  -14.2103   21.6928 H   0  0  0  0  0  0
  -25.2775   -9.5704   22.4734 H   0  0  0  0  0  0
  -24.0038   -7.4625   22.7426 H   0  0  0  0  0  0
  -21.0877   -8.8771   19.8895 H   0  0  0  0  0  0
  -22.3695  -10.9696   19.6162 H   0  0  0  0  0  0
  -21.1979   -7.6110   23.9708 H   0  0  0  0  0  0
  -21.1486   -6.0481   25.9073 H   0  0  0  0  0  0
  -22.0604   -2.7579   23.2857 H   0  0  0  0  0  0
  -22.4054  -11.9845   22.4922 H   0  0  0  0  0  0
  -21.1006  -13.1144   22.2627 H   0  0  0  0  0  0
  -24.6192  -15.8401   20.5248 H   0  0  0  0  0  0
  -26.2305  -15.6417   20.0619 H   0  0  0  0  0  0
  -26.7405  -32.5062   23.0833 H   0  0  0  0  0  0
  -25.0078  -33.9443   25.0169 H   0  0  0  0  0  0
  -22.8036  -31.2510   21.3352 H   0  0  0  0  0  0
  -23.3804  -35.9445   23.3252 H   0  0  0  0  0  0
  -24.3559  -36.8868   22.2064 H   0  0  0  0  0  0
  -23.7192  -37.6304   23.6750 H   0  0  0  0  0  0
  -26.2605  -31.3261   20.6266 H   0  0  0  0  0  0
  -26.9193  -30.6511   22.0716 H   0  0  0  0  0  0
  -28.1530  -28.5172   21.3031 H   0  0  0  0  0  0
  -25.8767  -25.6845   19.0011 H   0  0  0  0  0  0
  -24.0220  -27.2470   18.9368 H   0  0  0  0  0  0
  -23.8880  -30.4858   19.3809 H   0  0  0  0  0  0
  -22.8444  -29.1737   19.8330 H   0  0  0  0  0  0
  -25.1350  -36.1731   25.0792 H   0  0  0  0  0  0
  -21.0028  -28.3396   24.1327 H   0  0  0  0  0  0
  -20.5680  -26.2393   23.3698 H   0  0  0  0  0  0
  -21.6665  -26.7403   22.1250 H   0  0  0  0  0  0
  -19.6944  -25.6281   21.1305 H   0  0  0  0  0  0
  -19.6750  -27.3175   20.6766 H   0  0  0  0  0  0
  -17.4238  -26.6751   21.3982 H   0  0  0  0  0  0
  -18.0286  -26.0130   22.9019 H   0  0  0  0  0  0
  -19.7959  -30.7357   24.2204 H   0  0  0  0  0  0
  -17.5019  -31.6282   24.5168 H   0  0  0  0  0  0
  -15.5374  -30.2973   23.7720 H   0  0  0  0  0  0
  -15.8695  -28.0814   22.7136 H   0  0  0  0  0  0
  -24.5974  -30.7008   25.7676 H   0  0  0  0  0  0
  -24.8794  -32.2978   26.4542 H   0  0  0  0  0  0
  -25.7953  -30.9140   27.0251 H   0  0  0  0  0  0
  -26.3147  -29.6541   24.1459 H   0  0  0  0  0  0
  -27.3889  -29.7215   25.5179 H   0  0  0  0  0  0
  -27.9147  -30.3978   23.9993 H   0  0  0  0  0  0
  -27.2649  -33.3713   26.1881 H   0  0  0  0  0  0
  -28.3988  -32.6763   25.0394 H   0  0  0  0  0  0
  -28.0629  -31.8587   26.5560 H   0  0  0  0  0  0
  -28.2553  -38.0077   24.7553 H   0  0  0  0  0  0
  -28.1143  -36.2599   24.6236 H   0  0  0  0  0  0
  -27.2300  -37.1298   25.8855 H   0  0  0  0  0  0
  -20.9687  -29.8641   21.6564 H   0  0  0  0  0  0
  -26.0134  -38.2733   24.1471 H   0  0  0  0  0  0
  -29.4905  -19.6568   21.9519 H   0  0  0  0  0  0
  -29.0889  -20.7714   16.8057 H   0  0  0  0  0  0
  -28.8980  -22.1276   17.8770 H   0  0  0  0  0  0
  -27.5071  -21.1096   17.5125 H   0  0  0  0  0  0
  -33.3095  -17.8208   16.0569 H   0  0  0  0  0  0
  -32.2784  -16.4856   15.5597 H   0  0  0  0  0  0
  -32.7902  -16.6260   17.2445 H   0  0  0  0  0  0
  -26.7006  -17.6366   18.0272 H   0  0  0  0  0  0
  -27.7353  -16.3268   18.5698 H   0  0  0  0  0  0
  -27.3686  -16.5019   16.8649 H   0  0  0  0  0  0
  -30.9507  -18.6153   15.7894 H   0  0  0  0  0  0
  -31.4725  -18.7652   17.4518 H   0  0  0  0  0  0
  -30.3762  -16.4838   17.8910 H   0  0  0  0  0  0
  -29.7594  -16.5301   16.2783 H   0  0  0  0  0  0
  -28.7452  -22.4785   21.6428 H   0  0  0  0  0  0
  -29.9783  -22.7909   20.5123 H   0  0  0  0  0  0
  -27.0174  -23.8400   20.2215 H   0  0  0  0  0  0
  -28.1246  -24.0078   18.9313 H   0  0  0  0  0  0
  -28.5518  -18.6291   16.7819 H   0  0  0  0  0  0
  -28.6987  -16.3615   20.9636 H   0  0  0  0  0  0
  1 25  1  0  0  0
  1 30  2  0  0  0
  1 84  1  0  0  0
  2  3  1  0  0  0
  2 25  1  0  0  0
  2 85  1  0  0  0
  2 86  1  0  0  0
  3  4  1  0  0  0
  3 87  1  0  0  0
  3 88  1  0  0  0
  4  5  1  0  0  0
  4 89  1  0  0  0
  4 90  1  0  0  0
  5  6  1  0  0  0
  5 26  1  0  0  0
  5 91  1  0  0  0
  6 25  1  0  0  0
  6 92  1  0  0  0
  6 93  1  0  0  0
  7  8  2  0  0  0
  7 26  1  0  0  0
  7 29  1  0  0  0
  8  9  1  0  0  0
  8 22  1  0  0  0
  9 10  1  0  0  0
  9 27  2  0  0  0
 10 11  2  0  0  0
 10 15  1  0  0  0
 11 12  1  0  0  0
 11 94  1  0  0  0
 12 13  2  0  0  0
 12 95  1  0  0  0
 13 14  1  0  0  0
 13 31  1  0  0  0
 14 15  2  0  0  0
 14 96  1  0  0  0
 15 97  1  0  0  0
 16 17  2  0  0  0
 16 21  1  0  0  0
 16 31  1  0  0  0
 17 18  1  0  0  0
 17 98  1  0  0  0
 18 19  2  0  0  0
 18 99  1  0  0  0
 19 20  1  0  0  0
 19 24  1  0  0  0
 20 21  2  0  0  0
 20100  1  0  0  0
 21 23  1  0  0  0
 22 28  1  0  0  0
 22 32  2  0  0  0
 26 27  1  0  0  0
 28101  1  0  0  0
 28102  1  0  0  0
 29103  1  0  0  0
 29104  1  0  0  0
 33 34  1  0  0  0
 33 66  1  0  0  0
 33 70  2  0  0  0
 34 36  1  0  0  0
 34 59  1  0  0  0
 34105  1  0  0  0
 35 44  2  0  0  0
 35 45  1  0  0  0
 35 68  1  0  0  0
 36 56  1  0  0  0
 36106  1  0  0  0
 37 39  1  0  0  0
 37 47  1  0  0  0
 37 66  1  0  0  0
 37107  1  0  0  0
 38 43  2  0  0  0
 38 46  1  0  0  0
 38 47  1  0  0  0
 39 64  1  0  0  0
 39 67  2  0  0  0
 40 52  1  0  0  0
 40 53  2  0  0  0
 40 58  1  0  0  0
 41108  1  0  0  0
 41109  1  0  0  0
 41110  1  0  0  0
 41 48  1  0  0  0
 42 43  1  0  0  0
 42 66  1  0  0  0
 42111  1  0  0  0
 42112  1  0  0  0
 43 44  1  0  0  0
 44113  1  0  0  0
 45 46  2  0  0  0
 45114  1  0  0  0
 46115  1  0  0  0
 47116  1  0  0  0
 47117  1  0  0  0
 48 56  1  0  0  0
 48 65  1  0  0  0
 48118  1  0  0  0
 49 50  1  0  0  0
 49 53  1  0  0  0
 49 64  1  0  0  0
 49119  1  0  0  0
 50 51  1  0  0  0
 50120  1  0  0  0
 50121  1  0  0  0
 51 52  1  0  0  0
 51122  1  0  0  0
 51123  1  0  0  0
 52124  1  0  0  0
 52125  1  0  0  0
 53 54  1  0  0  0
 54 55  2  0  0  0
 54126  1  0  0  0
 55 57  1  0  0  0
 55127  1  0  0  0
 56 69  2  0  0  0
 57 58  2  0  0  0
 57128  1  0  0  0
 58129  1  0  0  0
 59 60  1  0  0  0
 59 61  1  0  0  0
 59 62  1  0  0  0
 60130  1  0  0  0
 60131  1  0  0  0
 60132  1  0  0  0
 61133  1  0  0  0
 61134  1  0  0  0
 61135  1  0  0  0
 62136  1  0  0  0
 62137  1  0  0  0
 62138  1  0  0  0
 63 65  1  0  0  0
 63139  1  0  0  0
 63140  1  0  0  0
 63141  1  0  0  0
 64142  1  0  0  0
 65143  1  0  0  0
 68 81  1  0  0  0
 71 73  2  0  0  0
 71 83  1  0  0  0
 71144  1  0  0  0
 72 73  1  0  0  0
 72 74  2  0  0  0
 72 82  1  0  0  0
 73 84  1  0  0  0
 74 75  1  0  0  0
 74 83  1  0  0  0
 75145  1  0  0  0
 75146  1  0  0  0
 75147  1  0  0  0
 76 78  1  0  0  0
 76148  1  0  0  0
 76149  1  0  0  0
 76150  1  0  0  0
 77151  1  0  0  0
 77152  1  0  0  0
 77153  1  0  0  0
 77 82  1  0  0  0
 78 79  1  0  0  0
 78154  1  0  0  0
 78155  1  0  0  0
 79 82  1  0  0  0
 79156  1  0  0  0
 79157  1  0  0  0
 80 81  1  0  0  0
 80 83  1  0  0  0
 80158  1  0  0  0
 80159  1  0  0  0
 81160  1  0  0  0
 81161  1  0  0  0
 82162  1  0  0  0
 84163  1  0  0  0
M  ISO  4   1 100  68 101  81 101  84 100
M  END
> <chiral flag>
0

> <version>
0

> <s_m_source_file>
/data/baiqing/PycharmProjects/Reinvent-master-3.2/result/LINK_invent/BTK/process_docking_weight1_custom_sum_contain_oxygen_bond_distance_aromatic_linkinvent_7_9_3/rearranged_h_0116.sdf

> <i_m_source_file_index>
28

> <r_mmod_Potential_Energy-OPLS-2005>
1611.20007324219

> <r_mmod_Stretch_Energy-OPLS-2005>
714.399047851562

> <r_mmod_Bend_Energy-OPLS-2005>
511.198516845703

> <r_mmod_Torsional_Energy-OPLS-2005>
263.169738769531

> <r_mmod_Improper_Torsional_Energy-OPLS-2005>
6.47038459777832

> <r_mmod_Van_der_Waal_Energy-OPLS-2005>
94.43017578125

> <r_mmod_Electrostatic_Energy-OPLS-2005>
-358.488677978516

> <r_mmod_Solvation_Energy-OPLS-2005>
-213.281600952148

> <b_mmod_Minimization_Converged-OPLS-2005>
0

> <r_mmod_RMS_Derivative-OPLS-2005>
3.16524863243103

$$$$
29
                    3D
 Structure written by MMmdl.
162171  0  0  1  0            999 V2000
  -30.6319  -14.6849   20.4957 C   0  0  0  0  0  0
  -30.4262  -12.4209   19.4780 C   0  0  0  0  0  0
  -29.5055  -12.5045   18.2410 C   0  0  0  0  0  0
  -28.0337  -12.3248   18.6571 C   0  0  0  0  0  0
  -27.6444  -13.2225   19.8619 C   0  0  2  0  0  0
  -28.6832  -13.1336   21.0013 C   0  0  0  0  0  0
  -25.2499  -13.8168   20.5654 C   0  0  0  0  0  0
  -24.1782  -13.0432   20.9168 C   0  0  0  0  0  0
  -24.6370  -11.6904   20.8722 C   0  0  0  0  0  0
  -23.9048  -10.4287   21.0393 C   0  0  0  0  0  0
  -24.3619   -9.4212   21.9170 C   0  0  0  0  0  0
  -23.6299   -8.2242   22.0742 C   0  0  0  0  0  0
  -22.4274   -8.0279   21.3547 C   0  0  0  0  0  0
  -21.9914   -9.0233   20.4632 C   0  0  0  0  0  0
  -22.7227  -10.2120   20.3040 C   0  0  0  0  0  0
  -21.6856   -6.0726   22.5263 C   0  0  0  0  0  0
  -21.4014   -6.5635   23.8195 C   0  0  0  0  0  0
  -21.3663   -5.6785   24.9161 C   0  0  0  0  0  0
  -21.6049   -4.3046   24.7209 C   0  0  0  0  0  0
  -21.8823   -3.8140   23.4331 C   0  0  0  0  0  0
  -21.9194   -4.6954   22.3390 C   0  0  0  0  0  0
  -22.7807  -13.5209   21.1860 C   0  0  0  0  0  0
  -22.1660   -4.2149   21.0960 F   0  0  0  0  0  0
  -21.5643   -3.4525   25.7722 F   0  0  0  0  0  0
  -29.9936  -13.4711   20.4301 N   0  0  0  0  0  0
  -26.2925  -12.9354   20.3315 N   0  0  0  0  0  0
  -25.9312  -11.6511   20.5776 N   0  0  0  0  0  0
  -22.0489  -12.8172   22.0427 N   0  0  0  0  0  0
  -25.4231  -15.1882   20.4039 N   0  0  0  0  0  0
  -31.8085  -14.7880   20.1392 O   0  0  0  0  0  0
  -21.6645   -6.8878   21.4228 O   0  0  0  0  0  0
  -22.3486  -14.5519   20.6727 O   0  0  0  0  0  0
  -24.6274  -31.8568   23.1998 C   0  0  0  0  0  0
  -25.9096  -32.4787   23.8349 C   0  0  1  0  0  0
  -27.2204  -27.2831   20.1189 C   0  0  0  0  0  0
  -25.5922  -33.8597   24.2264 N   0  0  0  0  0  0
  -23.4251  -30.4786   21.5403 C   0  0  2  0  0  0
  -24.8669  -28.9219   20.1071 C   0  0  0  0  0  0
  -22.7495  -29.4620   22.4922 C   0  0  0  0  0  0
  -18.0295  -28.1410   22.8531 C   0  0  0  0  0  0
  -24.1455  -36.7251   23.2656 C   0  0  0  0  0  0
  -25.9675  -30.7743   21.3752 C   0  0  0  0  0  0
  -26.0350  -29.3981   20.7155 C   0  0  0  0  0  0
  -27.2116  -28.5891   20.7126 C   0  0  0  0  0  0
  -26.0267  -26.8627   19.4918 C   0  0  0  0  0  0
  -24.8646  -27.6618   19.4882 C   0  0  0  0  0  0
  -23.6384  -29.8085   20.1555 C   0  0  0  0  0  0
  -25.4091  -36.3075   24.0332 C   0  0  1  0  0  0
  -20.5909  -28.3695   23.1273 C   0  0  2  0  0  0
  -20.6758  -26.9411   22.5399 C   0  0  0  0  0  0
  -19.5714  -26.6368   21.5222 C   0  0  0  0  0  0
  -18.1895  -26.7984   22.1620 C   0  0  0  0  0  0
  -19.1563  -28.8874   23.2903 C   0  0  0  0  0  0
  -18.9490  -30.1488   23.8886 C   0  0  0  0  0  0
  -17.6492  -30.6628   24.0580 C   0  0  0  0  0  0
  -25.9032  -34.9457   23.5086 C   0  0  0  0  0  0
  -16.5369  -29.9128   23.6370 C   0  0  0  0  0  0
  -16.7288  -28.6542   23.0404 C   0  0  0  0  0  0
  -26.4484  -31.6671   25.0772 C   0  0  0  0  0  0
  -25.3732  -31.3865   26.1532 C   0  0  0  0  0  0
  -27.0410  -30.3132   24.6271 C   0  0  0  0  0  0
  -27.5986  -32.4488   25.7559 C   0  0  0  0  0  0
  -27.5553  -37.1783   24.8471 C   0  0  0  0  0  0
  -21.4203  -29.3077   22.3709 N   0  0  0  0  0  0
  -26.4259  -37.3769   23.9450 N   0  0  0  0  0  0
  -24.6918  -31.0569   22.0933 N   0  0  0  0  0  0
  -23.4232  -28.8120   23.2973 O   0  0  0  0  0  0
  -28.3533  -26.4490   20.1969 O   0  0  0  0  0  0
  -26.5588  -34.8923   22.4647 O   0  0  0  0  0  0
  -23.5412  -32.1354   23.7301 O   0  0  0  0  0  0
  -28.1198  -21.2968   21.6138 C   0  0  0  0  0  0
  -29.1656  -22.5788   19.8851 C   0  0  0  0  0  0
  -29.0456  -21.2962   20.5509 C   0  0  0  0  0  0
  -27.4114  -22.4745   21.9514 C   0  0  0  0  0  0
  -28.4170  -23.7481   20.2794 C   0  0  0  0  0  0
  -32.0281  -19.8473   19.5167 C   0  0  0  0  0  0
  -30.6532  -20.0025   18.8635 C   0  0  0  0  0  0
  -31.3810  -20.3136   20.8183 C   0  0  0  0  0  0
  -29.9678  -20.0160   20.2593 C   0  0  0  0  0  0
  -26.4398  -22.4697   23.1114 C   0  0  0  0  0  0
  -28.4847  -25.1311   19.5041 C   0  0  0  0  0  0
  -29.3924  -18.5475   20.6822 C   0  0  0  0  0  0
  -30.3549  -17.2530   20.4973 C   0  0  0  0  0  0
  -27.5463  -23.6597   21.3078 N   0  0  0  0  0  0
  -29.8896  -15.8235   20.7520 N   0  0  0  0  0  0
  -31.4683  -12.5329   19.1767 H   0  0  0  0  0  0
  -30.3587  -11.4350   19.9408 H   0  0  0  0  0  0
  -29.7835  -11.7448   17.5074 H   0  0  0  0  0  0
  -29.6330  -13.4705   17.7479 H   0  0  0  0  0  0
  -27.8984  -11.2739   18.9196 H   0  0  0  0  0  0
  -27.3704  -12.5104   17.8123 H   0  0  0  0  0  0
  -27.6512  -14.2484   19.4943 H   0  0  0  0  0  0
  -28.7031  -12.1302   21.4297 H   0  0  0  0  0  0
  -28.4189  -13.8041   21.8206 H   0  0  0  0  0  0
  -25.2781   -9.5673   22.4730 H   0  0  0  0  0  0
  -24.0013   -7.4626   22.7453 H   0  0  0  0  0  0
  -21.0866   -8.8735   19.8927 H   0  0  0  0  0  0
  -22.3696  -10.9646   19.6139 H   0  0  0  0  0  0
  -21.2000   -7.6146   23.9697 H   0  0  0  0  0  0
  -21.1482   -6.0516   25.9066 H   0  0  0  0  0  0
  -22.0602   -2.7604   23.2807 H   0  0  0  0  0  0
  -22.4157  -11.9837   22.4779 H   0  0  0  0  0  0
  -21.1106  -13.1156   22.2692 H   0  0  0  0  0  0
  -24.6544  -15.8433   20.4948 H   0  0  0  0  0  0
  -26.2795  -15.6250   20.0852 H   0  0  0  0  0  0
  -26.7185  -32.5414   23.1100 H   0  0  0  0  0  0
  -25.0253  -33.9776   25.0541 H   0  0  0  0  0  0
  -22.7218  -31.3017   21.3937 H   0  0  0  0  0  0
  -23.3733  -35.9568   23.3301 H   0  0  0  0  0  0
  -24.3547  -36.8863   22.2074 H   0  0  0  0  0  0
  -23.7166  -37.6424   23.6694 H   0  0  0  0  0  0
  -26.1165  -31.5370   20.6100 H   0  0  0  0  0  0
  -26.8428  -30.8169   22.0112 H   0  0  0  0  0  0
  -28.1082  -28.9510   21.1984 H   0  0  0  0  0  0
  -25.9457  -25.8887   19.0326 H   0  0  0  0  0  0
  -23.9657  -27.2889   19.0166 H   0  0  0  0  0  0
  -23.7564  -30.5811   19.3943 H   0  0  0  0  0  0
  -22.7583  -29.2350   19.8570 H   0  0  0  0  0  0
  -25.1273  -36.1889   25.0817 H   0  0  0  0  0  0
  -21.0024  -28.3214   24.1381 H   0  0  0  0  0  0
  -20.5604  -26.2325   23.3620 H   0  0  0  0  0  0
  -21.6623  -26.7399   22.1199 H   0  0  0  0  0  0
  -19.6824  -25.6252   21.1312 H   0  0  0  0  0  0
  -19.6634  -27.3144   20.6734 H   0  0  0  0  0  0
  -17.4182  -26.6826   21.3986 H   0  0  0  0  0  0
  -18.0185  -26.0128   22.8984 H   0  0  0  0  0  0
  -19.7969  -30.7339   24.2184 H   0  0  0  0  0  0
  -17.5062  -31.6309   24.5176 H   0  0  0  0  0  0
  -15.5379  -30.3036   23.7713 H   0  0  0  0  0  0
  -15.8681  -28.0855   22.7127 H   0  0  0  0  0  0
  -24.5839  -30.7265   25.7904 H   0  0  0  0  0  0
  -24.9022  -32.3088   26.4968 H   0  0  0  0  0  0
  -25.8068  -30.9051   27.0313 H   0  0  0  0  0  0
  -26.3057  -29.6866   24.1232 H   0  0  0  0  0  0
  -27.4084  -29.7399   25.4787 H   0  0  0  0  0  0
  -27.8898  -30.4485   23.9571 H   0  0  0  0  0  0
  -27.2524  -33.3786   26.2099 H   0  0  0  0  0  0
  -28.3835  -32.7088   25.0445 H   0  0  0  0  0  0
  -28.0661  -31.8703   26.5537 H   0  0  0  0  0  0
  -28.2560  -38.0095   24.7555 H   0  0  0  0  0  0
  -28.1049  -36.2627   24.6231 H   0  0  0  0  0  0
  -27.2312  -37.1338   25.8884 H   0  0  0  0  0  0
  -20.9342  -29.8958   21.7066 H   0  0  0  0  0  0
  -26.0094  -38.2814   24.1497 H   0  0  0  0  0  0
  -27.9690  -20.4036   22.2018 H   0  0  0  0  0  0
  -29.8570  -22.7095   19.0679 H   0  0  0  0  0  0
  -32.7934  -20.5199   19.1294 H   0  0  0  0  0  0
  -32.3892  -18.8196   19.5544 H   0  0  0  0  0  0
  -30.3647  -19.1623   18.2302 H   0  0  0  0  0  0
  -30.5951  -20.9254   18.2889 H   0  0  0  0  0  0
  -31.5557  -21.3784   20.9850 H   0  0  0  0  0  0
  -31.6500  -19.7426   21.7084 H   0  0  0  0  0  0
  -26.7695  -21.7810   23.8892 H   0  0  0  0  0  0
  -25.4505  -22.1586   22.7730 H   0  0  0  0  0  0
  -26.3528  -23.4575   23.5648 H   0  0  0  0  0  0
  -27.8295  -25.0631   18.6378 H   0  0  0  0  0  0
  -29.4804  -25.1575   19.0631 H   0  0  0  0  0  0
  -28.4688  -18.3640   20.1316 H   0  0  0  0  0  0
  -29.0984  -18.5651   21.7305 H   0  0  0  0  0  0
  -31.2392  -17.4049   21.1180 H   0  0  0  0  0  0
  -30.7157  -17.2565   19.4701 H   0  0  0  0  0  0
  -28.9348  -15.6864   21.0478 H   0  0  0  0  0  0
  1 25  1  0  0  0
  1 30  2  0  0  0
  1 85  1  0  0  0
  2  3  1  0  0  0
  2 25  1  0  0  0
  2 86  1  0  0  0
  2 87  1  0  0  0
  3  4  1  0  0  0
  3 88  1  0  0  0
  3 89  1  0  0  0
  4  5  1  0  0  0
  4 90  1  0  0  0
  4 91  1  0  0  0
  5  6  1  0  0  0
  5 26  1  0  0  0
  5 92  1  0  0  0
  6 25  1  0  0  0
  6 93  1  0  0  0
  6 94  1  0  0  0
  7  8  2  0  0  0
  7 26  1  0  0  0
  7 29  1  0  0  0
  8  9  1  0  0  0
  8 22  1  0  0  0
  9 10  1  0  0  0
  9 27  2  0  0  0
 10 11  2  0  0  0
 10 15  1  0  0  0
 11 12  1  0  0  0
 11 95  1  0  0  0
 12 13  2  0  0  0
 12 96  1  0  0  0
 13 14  1  0  0  0
 13 31  1  0  0  0
 14 15  2  0  0  0
 14 97  1  0  0  0
 15 98  1  0  0  0
 16 17  2  0  0  0
 16 21  1  0  0  0
 16 31  1  0  0  0
 17 18  1  0  0  0
 17 99  1  0  0  0
 18 19  2  0  0  0
 18100  1  0  0  0
 19 20  1  0  0  0
 19 24  1  0  0  0
 20 21  2  0  0  0
 20101  1  0  0  0
 21 23  1  0  0  0
 22 28  1  0  0  0
 22 32  2  0  0  0
 26 27  1  0  0  0
 28102  1  0  0  0
 28103  1  0  0  0
 29104  1  0  0  0
 29105  1  0  0  0
 33 34  1  0  0  0
 33 66  1  0  0  0
 33 70  2  0  0  0
 34 36  1  0  0  0
 34 59  1  0  0  0
 34106  1  0  0  0
 35 44  2  0  0  0
 35 45  1  0  0  0
 35 68  1  0  0  0
 36 56  1  0  0  0
 36107  1  0  0  0
 37 39  1  0  0  0
 37 47  1  0  0  0
 37 66  1  0  0  0
 37108  1  0  0  0
 38 43  2  0  0  0
 38 46  1  0  0  0
 38 47  1  0  0  0
 39 64  1  0  0  0
 39 67  2  0  0  0
 40 52  1  0  0  0
 40 53  2  0  0  0
 40 58  1  0  0  0
 41109  1  0  0  0
 41110  1  0  0  0
 41111  1  0  0  0
 41 48  1  0  0  0
 42 43  1  0  0  0
 42 66  1  0  0  0
 42112  1  0  0  0
 42113  1  0  0  0
 43 44  1  0  0  0
 44114  1  0  0  0
 45 46  2  0  0  0
 45115  1  0  0  0
 46116  1  0  0  0
 47117  1  0  0  0
 47118  1  0  0  0
 48 56  1  0  0  0
 48 65  1  0  0  0
 48119  1  0  0  0
 49 50  1  0  0  0
 49 53  1  0  0  0
 49 64  1  0  0  0
 49120  1  0  0  0
 50 51  1  0  0  0
 50121  1  0  0  0
 50122  1  0  0  0
 51 52  1  0  0  0
 51123  1  0  0  0
 51124  1  0  0  0
 52125  1  0  0  0
 52126  1  0  0  0
 53 54  1  0  0  0
 54 55  2  0  0  0
 54127  1  0  0  0
 55 57  1  0  0  0
 55128  1  0  0  0
 56 69  2  0  0  0
 57 58  2  0  0  0
 57129  1  0  0  0
 58130  1  0  0  0
 59 60  1  0  0  0
 59 61  1  0  0  0
 59 62  1  0  0  0
 60131  1  0  0  0
 60132  1  0  0  0
 60133  1  0  0  0
 61134  1  0  0  0
 61135  1  0  0  0
 61136  1  0  0  0
 62137  1  0  0  0
 62138  1  0  0  0
 62139  1  0  0  0
 63 65  1  0  0  0
 63140  1  0  0  0
 63141  1  0  0  0
 63142  1  0  0  0
 64143  1  0  0  0
 65144  1  0  0  0
 68 81  1  0  0  0
 71 73  2  0  0  0
 71 74  1  0  0  0
 71145  1  0  0  0
 72 73  1  0  0  0
 72 75  2  0  0  0
 72146  1  0  0  0
 73 79  1  0  0  0
 74 80  1  0  0  0
 74 84  2  0  0  0
 75 81  1  0  0  0
 75 84  1  0  0  0
 76 77  1  0  0  0
 76 78  1  0  0  0
 76147  1  0  0  0
 76148  1  0  0  0
 77 79  1  0  0  0
 77149  1  0  0  0
 77150  1  0  0  0
 78 79  1  0  0  0
 78151  1  0  0  0
 78152  1  0  0  0
 79 82  1  0  0  0
 80153  1  0  0  0
 80154  1  0  0  0
 80155  1  0  0  0
 81156  1  0  0  0
 81157  1  0  0  0
 82 83  1  0  0  0
 82158  1  0  0  0
 82159  1  0  0  0
 83 85  1  0  0  0
 83160  1  0  0  0
 83161  1  0  0  0
 85162  1  0  0  0
M  ISO  4   1 100  68 101  81 101  85 100
M  END
> <chiral flag>
0

> <version>
0

> <s_m_source_file>
/data/baiqing/PycharmProjects/Reinvent-master-3.2/result/LINK_invent/BTK/process_docking_weight1_custom_sum_contain_oxygen_bond_distance_aromatic_linkinvent_7_9_3/rearranged_h_0116.sdf

> <i_m_source_file_index>
29

> <r_mmod_Potential_Energy-OPLS-2005>
21.2324771881104

> <r_mmod_Stretch_Energy-OPLS-2005>
117.714492797852

> <r_mmod_Bend_Energy-OPLS-2005>
184.900115966797

> <r_mmod_Torsional_Energy-OPLS-2005>
239.410888671875

> <r_mmod_Improper_Torsional_Energy-OPLS-2005>
5.53325271606445

> <r_mmod_Van_der_Waal_Energy-OPLS-2005>
145.514938354492

> <r_mmod_Electrostatic_Energy-OPLS-2005>
-510.7802734375

> <r_mmod_Solvation_Energy-OPLS-2005>
-225.809967041016

> <b_mmod_Minimization_Converged-OPLS-2005>
0

> <r_mmod_RMS_Derivative-OPLS-2005>
4.15636825561523

$$$$
30
                    3D
 Structure written by MMmdl.
168177  0  0  1  0            999 V2000
  -30.5326  -14.9393   20.4420 C   0  0  0  0  0  0
  -30.4438  -12.5889   19.4866 C   0  0  0  0  0  0
  -29.5228  -12.5346   18.2473 C   0  0  0  0  0  0
  -28.0504  -12.3315   18.6604 C   0  0  0  0  0  0
  -27.6271  -13.2502   19.8374 C   0  0  2  0  0  0
  -28.6723  -13.2679   20.9701 C   0  0  0  0  0  0
  -25.2450  -13.8212   20.5702 C   0  0  0  0  0  0
  -24.1774  -13.0434   20.9227 C   0  0  0  0  0  0
  -24.6397  -11.6918   20.8763 C   0  0  0  0  0  0
  -23.9084  -10.4295   21.0426 C   0  0  0  0  0  0
  -24.3626   -9.4202   21.9199 C   0  0  0  0  0  0
  -23.6298   -8.2238   22.0758 C   0  0  0  0  0  0
  -22.4284   -8.0284   21.3537 C   0  0  0  0  0  0
  -21.9922   -9.0267   20.4651 C   0  0  0  0  0  0
  -22.7257  -10.2142   20.3068 C   0  0  0  0  0  0
  -21.6853   -6.0740   22.5272 C   0  0  0  0  0  0
  -21.4028   -6.5645   23.8208 C   0  0  0  0  0  0
  -21.3658   -5.6799   24.9173 C   0  0  0  0  0  0
  -21.6034   -4.3056   24.7225 C   0  0  0  0  0  0
  -21.8820   -3.8143   23.4347 C   0  0  0  0  0  0
  -21.9198   -4.6966   22.3402 C   0  0  0  0  0  0
  -22.7797  -13.5218   21.1888 C   0  0  0  0  0  0
  -22.1660   -4.2155   21.0978 F   0  0  0  0  0  0
  -21.5627   -3.4539   25.7733 F   0  0  0  0  0  0
  -29.9424  -13.6823   20.3621 N   0  0  0  0  0  0
  -26.2878  -12.9450   20.3253 N   0  0  0  0  0  0
  -25.9328  -11.6574   20.5735 N   0  0  0  0  0  0
  -22.0454  -12.8203   22.0445 N   0  0  0  0  0  0
  -25.4105  -15.1931   20.4087 N   0  0  0  0  0  0
  -31.7504  -15.0069   20.2387 O   0  0  0  0  0  0
  -21.6637   -6.8886   21.4232 O   0  0  0  0  0  0
  -22.3470  -14.5514   20.6726 O   0  0  0  0  0  0
  -24.6602  -31.8491   23.1939 C   0  0  0  0  0  0
  -25.9326  -32.4735   23.8335 C   0  0  1  0  0  0
  -27.2041  -27.1143   20.1577 C   0  0  0  0  0  0
  -25.6028  -33.8536   24.2244 N   0  0  0  0  0  0
  -23.4788  -30.4707   21.5520 C   0  0  2  0  0  0
  -24.9036  -28.8961   20.1151 C   0  0  0  0  0  0
  -22.7873  -29.4714   22.5065 C   0  0  0  0  0  0
  -17.9949  -28.1209   22.8641 C   0  0  0  0  0  0
  -24.1486  -36.7262   23.2636 C   0  0  0  0  0  0
  -26.0250  -30.7135   21.3951 C   0  0  0  0  0  0
  -26.0848  -29.3228   20.7357 C   0  0  0  0  0  0
  -27.2377  -28.4491   20.7364 C   0  0  0  0  0  0
  -25.9988  -26.7993   19.4905 C   0  0  0  0  0  0
  -24.8747  -27.6514   19.4736 C   0  0  0  0  0  0
  -23.6879  -29.8047   20.1666 C   0  0  0  0  0  0
  -25.4118  -36.3056   24.0319 C   0  0  1  0  0  0
  -20.4830  -28.4562   22.7761 C   0  0  2  0  0  0
  -20.6855  -26.9534   22.5428 C   0  0  0  0  0  0
  -19.5551  -26.4519   21.6161 C   0  0  0  0  0  0
  -18.1535  -26.7578   22.1893 C   0  0  0  0  0  0
  -19.1173  -28.8993   23.2428 C   0  0  0  0  0  0
  -18.9372  -30.1477   23.8712 C   0  0  0  0  0  0
  -17.6372  -30.6483   24.0764 C   0  0  0  0  0  0
  -25.9086  -34.9429   23.5067 C   0  0  0  0  0  0
  -16.5214  -29.8946   23.6691 C   0  0  0  0  0  0
  -16.6985  -28.6296   23.0819 C   0  0  0  0  0  0
  -26.4575  -31.6577   25.0782 C   0  0  0  0  0  0
  -25.3719  -31.3765   26.1438 C   0  0  0  0  0  0
  -27.0432  -30.2966   24.6369 C   0  0  0  0  0  0
  -27.6088  -32.4336   25.7588 C   0  0  0  0  0  0
  -27.5577  -37.1804   24.8470 C   0  0  0  0  0  0
  -21.4649  -29.4340   22.3724 N   0  0  0  0  0  0
  -26.4282  -37.3767   23.9420 N   0  0  0  0  0  0
  -24.7434  -31.0316   22.1027 N   0  0  0  0  0  0
  -23.4226  -28.7602   23.2863 O   0  0  0  0  0  0
  -28.2432  -26.1101   20.2191 O   0  0  0  0  0  0
  -26.5637  -34.8923   22.4632 O   0  0  0  0  0  0
  -23.5691  -32.1375   23.7123 O   0  0  0  0  0  0
  -28.7906  -17.5302   23.0428 C   0  0  0  0  0  0
  -30.0039  -17.4166   22.3289 C   0  0  0  0  0  0
  -27.7447  -18.6455   21.1263 C   0  0  0  0  0  0
  -29.0563  -18.7313   20.5944 C   0  0  0  0  0  0
  -27.6223  -18.0009   22.3943 C   0  0  0  0  0  0
  -29.9146  -17.5475   20.9307 C   0  0  0  0  0  0
  -26.5326  -19.2526   20.4471 C   0  0  0  0  0  0
  -29.5587  -20.2872   20.4341 C   0  0  0  0  0  0
  -28.5475  -21.6211   20.5546 C   0  0  1  0  0  0
  -26.2893  -17.8649   23.1196 C   0  0  0  0  0  0
  -24.1363  -21.1267   21.0784 C   0  0  0  0  0  0
  -24.7127  -21.1953   18.5859 C   0  0  0  0  0  0
  -28.9633  -23.2445   20.2873 C   0  0  0  0  0  0
  -27.9188  -24.5764   20.2839 C   0  0  0  0  0  0
  -25.2312  -21.3847   20.0227 C   0  0  0  0  0  0
  -26.4521  -20.5985   20.2673 N   0  0  0  0  0  0
  -29.7201  -16.1095   20.4413 N   0  0  0  0  0  0
  -25.5869  -18.5035   20.1911 O   0  0  0  0  0  0
  -27.5340  -21.2504   19.6342 O   0  0  0  0  0  0
  -31.4772  -12.7600   19.1799 H   0  0  0  0  0  0
  -30.4457  -11.6378   20.0207 H   0  0  0  0  0  0
  -29.8382  -11.7385   17.5714 H   0  0  0  0  0  0
  -29.6176  -13.4667   17.6891 H   0  0  0  0  0  0
  -27.9289  -11.2869   18.9463 H   0  0  0  0  0  0
  -27.3949  -12.4904   17.8033 H   0  0  0  0  0  0
  -27.5913  -14.2550   19.4161 H   0  0  0  0  0  0
  -28.7601  -12.2916   21.4500 H   0  0  0  0  0  0
  -28.3788  -13.9730   21.7497 H   0  0  0  0  0  0
  -25.2769   -9.5685   22.4772 H   0  0  0  0  0  0
  -24.0007   -7.4637   22.7476 H   0  0  0  0  0  0
  -21.0856   -8.8797   19.8957 H   0  0  0  0  0  0
  -22.3726  -10.9686   19.6176 H   0  0  0  0  0  0
  -21.2024   -7.6153   23.9720 H   0  0  0  0  0  0
  -21.1477   -6.0525   25.9082 H   0  0  0  0  0  0
  -22.0599   -2.7604   23.2843 H   0  0  0  0  0  0
  -22.4073  -11.9862   22.4826 H   0  0  0  0  0  0
  -21.1076  -13.1219   22.2643 H   0  0  0  0  0  0
  -24.6474  -15.8528   20.5220 H   0  0  0  0  0  0
  -26.2515  -15.6385   20.0669 H   0  0  0  0  0  0
  -26.7423  -32.5344   23.1089 H   0  0  0  0  0  0
  -25.0198  -33.9639   25.0411 H   0  0  0  0  0  0
  -22.7907  -31.3049   21.3948 H   0  0  0  0  0  0
  -23.3768  -35.9572   23.3283 H   0  0  0  0  0  0
  -24.3568  -36.8908   22.2052 H   0  0  0  0  0  0
  -23.7217  -37.6447   23.6675 H   0  0  0  0  0  0
  -26.1792  -31.4644   20.6193 H   0  0  0  0  0  0
  -26.8972  -30.7632   22.0342 H   0  0  0  0  0  0
  -28.1383  -28.7700   21.2402 H   0  0  0  0  0  0
  -25.8852  -25.8579   18.9800 H   0  0  0  0  0  0
  -23.9751  -27.3284   18.9665 H   0  0  0  0  0  0
  -23.8225  -30.5820   19.4120 H   0  0  0  0  0  0
  -22.7949  -29.2541   19.8637 H   0  0  0  0  0  0
  -25.1299  -36.1886   25.0809 H   0  0  0  0  0  0
  -20.1668  -28.6654   21.7525 H   0  0  0  0  0  0
  -20.6503  -26.4224   23.4953 H   0  0  0  0  0  0
  -21.6606  -26.7447   22.1041 H   0  0  0  0  0  0
  -19.6555  -25.3798   21.4487 H   0  0  0  0  0  0
  -19.6525  -26.9056   20.6284 H   0  0  0  0  0  0
  -17.4054  -26.6534   21.3993 H   0  0  0  0  0  0
  -17.9042  -26.0030   22.9370 H   0  0  0  0  0  0
  -19.7929  -30.7497   24.1455 H   0  0  0  0  0  0
  -17.4911  -31.6142   24.5371 H   0  0  0  0  0  0
  -15.5209  -30.2808   23.8183 H   0  0  0  0  0  0
  -15.8302  -28.0601   22.7839 H   0  0  0  0  0  0
  -24.5909  -30.7101   25.7751 H   0  0  0  0  0  0
  -24.8883  -32.2944   26.4796 H   0  0  0  0  0  0
  -25.7966  -30.8982   27.0271 H   0  0  0  0  0  0
  -26.3067  -29.6697   24.1321 H   0  0  0  0  0  0
  -27.3983  -29.7248   25.4958 H   0  0  0  0  0  0
  -27.9002  -30.4200   23.9740 H   0  0  0  0  0  0
  -27.2666  -33.3662   26.2082 H   0  0  0  0  0  0
  -28.3941  -32.6851   25.0449 H   0  0  0  0  0  0
  -28.0692  -31.8507   26.5574 H   0  0  0  0  0  0
  -28.2584  -38.0113   24.7528 H   0  0  0  0  0  0
  -28.1082  -36.2644   24.6276 H   0  0  0  0  0  0
  -27.2293  -37.1427   25.8871 H   0  0  0  0  0  0
  -21.0928  -30.1276   21.7360 H   0  0  0  0  0  0
  -26.0153  -38.2832   24.1441 H   0  0  0  0  0  0
  -28.7385  -17.1449   24.0527 H   0  0  0  0  0  0
  -30.7721  -16.8104   22.7888 H   0  0  0  0  0  0
  -30.0570  -20.3415   19.4670 H   0  0  0  0  0  0
  -30.3546  -20.4207   21.1697 H   0  0  0  0  0  0
  -28.1490  -21.6115   21.5724 H   0  0  0  0  0  0
  -25.7997  -18.8304   23.2340 H   0  0  0  0  0  0
  -26.4144  -17.4307   24.1119 H   0  0  0  0  0  0
  -25.6225  -17.2064   22.5634 H   0  0  0  0  0  0
  -23.7136  -20.1245   20.9958 H   0  0  0  0  0  0
  -23.3115  -21.8269   20.9557 H   0  0  0  0  0  0
  -24.5189  -21.2495   22.0929 H   0  0  0  0  0  0
  -23.8878  -21.8758   18.3747 H   0  0  0  0  0  0
  -24.3507  -20.1800   18.4187 H   0  0  0  0  0  0
  -25.4967  -21.3908   17.8515 H   0  0  0  0  0  0
  -29.7333  -23.4647   21.0274 H   0  0  0  0  0  0
  -29.4913  -23.2765   19.3348 H   0  0  0  0  0  0
  -27.2942  -24.4664   21.1709 H   0  0  0  0  0  0
  -27.2547  -24.3613   19.4495 H   0  0  0  0  0  0
  -25.5173  -22.4339   20.1257 H   0  0  0  0  0  0
  -28.7512  -15.8821   20.2880 H   0  0  0  0  0  0
  1 25  1  0  0  0
  1 30  2  0  0  0
  1 87  1  0  0  0
  2  3  1  0  0  0
  2 25  1  0  0  0
  2 90  1  0  0  0
  2 91  1  0  0  0
  3  4  1  0  0  0
  3 92  1  0  0  0
  3 93  1  0  0  0
  4  5  1  0  0  0
  4 94  1  0  0  0
  4 95  1  0  0  0
  5  6  1  0  0  0
  5 26  1  0  0  0
  5 96  1  0  0  0
  6 25  1  0  0  0
  6 97  1  0  0  0
  6 98  1  0  0  0
  7  8  2  0  0  0
  7 26  1  0  0  0
  7 29  1  0  0  0
  8  9  1  0  0  0
  8 22  1  0  0  0
  9 10  1  0  0  0
  9 27  2  0  0  0
 10 11  2  0  0  0
 10 15  1  0  0  0
 11 12  1  0  0  0
 11 99  1  0  0  0
 12 13  2  0  0  0
 12100  1  0  0  0
 13 14  1  0  0  0
 13 31  1  0  0  0
 14 15  2  0  0  0
 14101  1  0  0  0
 15102  1  0  0  0
 16 17  2  0  0  0
 16 21  1  0  0  0
 16 31  1  0  0  0
 17 18  1  0  0  0
 17103  1  0  0  0
 18 19  2  0  0  0
 18104  1  0  0  0
 19 20  1  0  0  0
 19 24  1  0  0  0
 20 21  2  0  0  0
 20105  1  0  0  0
 21 23  1  0  0  0
 22 28  1  0  0  0
 22 32  2  0  0  0
 26 27  1  0  0  0
 28106  1  0  0  0
 28107  1  0  0  0
 29108  1  0  0  0
 29109  1  0  0  0
 33 34  1  0  0  0
 33 66  1  0  0  0
 33 70  2  0  0  0
 34 36  1  0  0  0
 34 59  1  0  0  0
 34110  1  0  0  0
 35 44  2  0  0  0
 35 45  1  0  0  0
 35 68  1  0  0  0
 36 56  1  0  0  0
 36111  1  0  0  0
 37 39  1  0  0  0
 37 47  1  0  0  0
 37 66  1  0  0  0
 37112  1  0  0  0
 38 43  2  0  0  0
 38 46  1  0  0  0
 38 47  1  0  0  0
 39 64  1  0  0  0
 39 67  2  0  0  0
 40 52  1  0  0  0
 40 53  2  0  0  0
 40 58  1  0  0  0
 41113  1  0  0  0
 41114  1  0  0  0
 41115  1  0  0  0
 41 48  1  0  0  0
 42 43  1  0  0  0
 42 66  1  0  0  0
 42116  1  0  0  0
 42117  1  0  0  0
 43 44  1  0  0  0
 44118  1  0  0  0
 45 46  2  0  0  0
 45119  1  0  0  0
 46120  1  0  0  0
 47121  1  0  0  0
 47122  1  0  0  0
 48 56  1  0  0  0
 48 65  1  0  0  0
 48123  1  0  0  0
 49 50  1  0  0  0
 49 53  1  0  0  0
 49 64  1  0  0  0
 49124  1  0  0  0
 50 51  1  0  0  0
 50125  1  0  0  0
 50126  1  0  0  0
 51 52  1  0  0  0
 51127  1  0  0  0
 51128  1  0  0  0
 52129  1  0  0  0
 52130  1  0  0  0
 53 54  1  0  0  0
 54 55  2  0  0  0
 54131  1  0  0  0
 55 57  1  0  0  0
 55132  1  0  0  0
 56 69  2  0  0  0
 57 58  2  0  0  0
 57133  1  0  0  0
 58134  1  0  0  0
 59 60  1  0  0  0
 59 61  1  0  0  0
 59 62  1  0  0  0
 60135  1  0  0  0
 60136  1  0  0  0
 60137  1  0  0  0
 61138  1  0  0  0
 61139  1  0  0  0
 61140  1  0  0  0
 62141  1  0  0  0
 62142  1  0  0  0
 62143  1  0  0  0
 63 65  1  0  0  0
 63144  1  0  0  0
 63145  1  0  0  0
 63146  1  0  0  0
 64147  1  0  0  0
 65148  1  0  0  0
 68 84  1  0  0  0
 71 72  2  0  0  0
 71 75  1  0  0  0
 71149  1  0  0  0
 72 76  1  0  0  0
 72150  1  0  0  0
 73 74  1  0  0  0
 73 75  2  0  0  0
 73 77  1  0  0  0
 74 76  2  0  0  0
 74 78  1  0  0  0
 75 80  1  0  0  0
 76 87  1  0  0  0
 77 86  1  0  0  0
 77 88  2  0  0  0
 78 79  1  0  0  0
 78151  1  0  0  0
 78152  1  0  0  0
 79 83  1  0  0  0
 79 89  1  0  0  0
 79153  1  0  0  0
 80154  1  0  0  0
 80155  1  0  0  0
 80156  1  0  0  0
 81157  1  0  0  0
 81158  1  0  0  0
 81159  1  0  0  0
 81 85  1  0  0  0
 82 85  1  0  0  0
 82160  1  0  0  0
 82161  1  0  0  0
 82162  1  0  0  0
 83 84  1  0  0  0
 83163  1  0  0  0
 83164  1  0  0  0
 84165  1  0  0  0
 84166  1  0  0  0
 85 86  1  0  0  0
 85167  1  0  0  0
 86 89  1  0  0  0
 87168  1  0  0  0
M  ISO  4   1 100  68 101  84 101  87 100
M  END
> <chiral flag>
0

> <version>
0

> <s_m_source_file>
/data/baiqing/PycharmProjects/Reinvent-master-3.2/result/LINK_invent/BTK/process_docking_weight1_custom_sum_contain_oxygen_bond_distance_aromatic_linkinvent_7_9_3/rearranged_h_0116.sdf

> <i_m_source_file_index>
30

> <r_mmod_Potential_Energy-OPLS-2005>
1058.048828125

> <r_mmod_Stretch_Energy-OPLS-2005>
271.239074707031

> <r_mmod_Bend_Energy-OPLS-2005>
392.894775390625

> <r_mmod_Torsional_Energy-OPLS-2005>
520.586242675781

> <r_mmod_Improper_Torsional_Energy-OPLS-2005>
46.928337097168

> <r_mmod_Van_der_Waal_Energy-OPLS-2005>
138.319717407227

> <r_mmod_Electrostatic_Energy-OPLS-2005>
-321.384307861328

> <r_mmod_Solvation_Energy-OPLS-2005>
-212.453353881836

> <b_mmod_Minimization_Converged-OPLS-2005>
0

> <r_mmod_RMS_Derivative-OPLS-2005>
3.61114859580994

$$$$
31
                    3D
 Structure written by MMmdl.
170179  0  0  1  0            999 V2000
  -30.7323  -14.6299   20.5056 C   0  0  0  0  0  0
  -30.4063  -12.4027   19.4553 C   0  0  0  0  0  0
  -29.4884  -12.4966   18.2217 C   0  0  0  0  0  0
  -28.0190  -12.3151   18.6407 C   0  0  0  0  0  0
  -27.6356  -13.2079   19.8483 C   0  0  2  0  0  0
  -28.6897  -13.1425   20.9822 C   0  0  0  0  0  0
  -25.2486  -13.8128   20.5685 C   0  0  0  0  0  0
  -24.1773  -13.0399   20.9217 C   0  0  0  0  0  0
  -24.6351  -11.6876   20.8776 C   0  0  0  0  0  0
  -23.9031  -10.4273   21.0437 C   0  0  0  0  0  0
  -24.3600   -9.4186   21.9199 C   0  0  0  0  0  0
  -23.6281   -8.2219   22.0757 C   0  0  0  0  0  0
  -22.4264   -8.0264   21.3545 C   0  0  0  0  0  0
  -21.9899   -9.0237   20.4645 C   0  0  0  0  0  0
  -22.7219  -10.2121   20.3065 C   0  0  0  0  0  0
  -21.6844   -6.0727   22.5281 C   0  0  0  0  0  0
  -21.4009   -6.5636   23.8213 C   0  0  0  0  0  0
  -21.3657   -5.6794   24.9178 C   0  0  0  0  0  0
  -21.6045   -4.3055   24.7228 C   0  0  0  0  0  0
  -21.8821   -3.8141   23.4352 C   0  0  0  0  0  0
  -21.9188   -4.6957   22.3405 C   0  0  0  0  0  0
  -22.7797  -13.5200   21.1872 C   0  0  0  0  0  0
  -22.1661   -4.2143   21.0979 F   0  0  0  0  0  0
  -21.5630   -3.4545   25.7745 F   0  0  0  0  0  0
  -29.9954  -13.4721   20.3947 N   0  0  0  0  0  0
  -26.2897  -12.9293   20.3305 N   0  0  0  0  0  0
  -25.9270  -11.6462   20.5795 N   0  0  0  0  0  0
  -22.0442  -12.8200   22.0433 N   0  0  0  0  0  0
  -25.4129  -15.1850   20.4054 N   0  0  0  0  0  0
  -31.9201  -14.6044   20.1709 O   0  0  0  0  0  0
  -21.6624   -6.8868   21.4242 O   0  0  0  0  0  0
  -22.3494  -14.5509   20.6722 O   0  0  0  0  0  0
  -24.6218  -31.8636   23.2070 C   0  0  0  0  0  0
  -25.9085  -32.4801   23.8383 C   0  0  1  0  0  0
  -27.2227  -27.3551   20.1132 C   0  0  0  0  0  0
  -25.5919  -33.8602   24.2308 N   0  0  0  0  0  0
  -23.4135  -30.4888   21.5484 C   0  0  2  0  0  0
  -24.8591  -28.9517   20.1095 C   0  0  0  0  0  0
  -22.7453  -29.4642   22.4953 C   0  0  0  0  0  0
  -18.0280  -28.1382   22.8488 C   0  0  0  0  0  0
  -24.1489  -36.7304   23.2636 C   0  0  0  0  0  0
  -25.9512  -30.8044   21.3743 C   0  0  0  0  0  0
  -26.0246  -29.4357   20.7159 C   0  0  0  0  0  0
  -27.2081  -28.6468   20.7126 C   0  0  0  0  0  0
  -26.0374  -26.9227   19.4697 C   0  0  0  0  0  0
  -24.8655  -27.6989   19.4789 C   0  0  0  0  0  0
  -23.6254  -29.8270   20.1619 C   0  0  0  0  0  0
  -25.4113  -36.3099   24.0332 C   0  0  1  0  0  0
  -20.5880  -28.3684   23.1293 C   0  0  2  0  0  0
  -20.6773  -26.9412   22.5410 C   0  0  0  0  0  0
  -19.5749  -26.6385   21.5212 C   0  0  0  0  0  0
  -18.1930  -26.7927   22.1624 C   0  0  0  0  0  0
  -19.1531  -28.8849   23.2887 C   0  0  0  0  0  0
  -18.9456  -30.1452   23.8901 C   0  0  0  0  0  0
  -17.6458  -30.6585   24.0567 C   0  0  0  0  0  0
  -25.9047  -34.9466   23.5119 C   0  0  0  0  0  0
  -16.5351  -29.9085   23.6323 C   0  0  0  0  0  0
  -16.7270  -28.6502   23.0348 C   0  0  0  0  0  0
  -26.4480  -31.6595   25.0735 C   0  0  0  0  0  0
  -25.3726  -31.3724   26.1470 C   0  0  0  0  0  0
  -27.0313  -30.3023   24.6164 C   0  0  0  0  0  0
  -27.6046  -32.4321   25.7500 C   0  0  0  0  0  0
  -27.5582  -37.1810   24.8463 C   0  0  0  0  0  0
  -21.4172  -29.3044   22.3691 N   0  0  0  0  0  0
  -26.4296  -37.3789   23.9405 N   0  0  0  0  0  0
  -24.6807  -31.0682   22.1004 N   0  0  0  0  0  0
  -23.4195  -28.8174   23.3015 O   0  0  0  0  0  0
  -28.3520  -26.5338   20.1847 O   0  0  0  0  0  0
  -26.5612  -34.8923   22.4681 O   0  0  0  0  0  0
  -23.5390  -32.1422   23.7413 O   0  0  0  0  0  0
  -29.5579  -21.4309   20.8388 C   0  0  0  0  0  0
  -28.6362  -22.1371   18.9506 C   0  0  0  0  0  0
  -29.1354  -22.6185   20.1285 C   0  0  0  0  0  0
  -29.3558  -20.2923   20.0737 C   0  0  0  0  0  0
  -30.6493  -18.4139   21.3994 C   0  0  0  0  0  0
  -28.5068  -17.8435   20.5076 C   0  0  0  0  0  0
  -31.1329  -16.9268   21.3252 C   0  0  0  0  0  0
  -28.8624  -16.3252   20.3895 C   0  0  0  0  0  0
  -29.6946  -18.7907   20.2610 C   0  0  0  0  0  0
  -29.2518  -20.2947   16.5182 C   0  0  0  0  0  0
  -26.8726  -20.1561   17.4172 C   0  0  0  0  0  0
  -28.1752  -25.0965   19.9329 C   0  0  0  0  0  0
  -29.2615  -24.1198   20.5281 C   0  0  2  0  0  0
  -28.3646  -19.9654   17.7276 C   0  0  0  0  0  0
  -28.7632  -20.7546   18.8953 N   0  0  0  0  0  0
  -30.1790  -15.8473   20.8942 N   0  0  0  0  0  0
  -30.6072  -24.5864   20.1573 N   0  3  0  0  0  0
  -31.4489  -12.4785   19.1426 H   0  0  0  0  0  0
  -30.3148  -11.4245   19.9307 H   0  0  0  0  0  0
  -29.7643  -11.7405   17.4858 H   0  0  0  0  0  0
  -29.6186  -13.4631   17.7320 H   0  0  0  0  0  0
  -27.8736  -11.2645   18.8944 H   0  0  0  0  0  0
  -27.3582  -12.5195   17.7967 H   0  0  0  0  0  0
  -27.6127  -14.2112   19.4381 H   0  0  0  0  0  0
  -28.7154  -12.1437   21.4208 H   0  0  0  0  0  0
  -28.4416  -13.8169   21.8021 H   0  0  0  0  0  0
  -25.2754   -9.5660   22.4767 H   0  0  0  0  0  0
  -23.9993   -7.4608   22.7473 H   0  0  0  0  0  0
  -21.0832   -8.8760   19.8949 H   0  0  0  0  0  0
  -22.3690  -10.9662   19.6176 H   0  0  0  0  0  0
  -21.2002   -7.6147   23.9717 H   0  0  0  0  0  0
  -21.1479   -6.0523   25.9081 H   0  0  0  0  0  0
  -22.0600   -2.7602   23.2854 H   0  0  0  0  0  0
  -22.4078  -11.9867   22.4819 H   0  0  0  0  0  0
  -21.1058  -13.1217   22.2646 H   0  0  0  0  0  0
  -24.6407  -15.8323   20.5181 H   0  0  0  0  0  0
  -26.2586  -15.6314   20.0776 H   0  0  0  0  0  0
  -26.7153  -32.5482   23.1135 H   0  0  0  0  0  0
  -25.0078  -33.9762   25.0459 H   0  0  0  0  0  0
  -22.7053  -31.3082   21.4095 H   0  0  0  0  0  0
  -23.3753  -35.9635   23.3304 H   0  0  0  0  0  0
  -24.3581  -36.8917   22.2050 H   0  0  0  0  0  0
  -23.7238  -37.6507   23.6652 H   0  0  0  0  0  0
  -26.0812  -31.5694   20.6076 H   0  0  0  0  0  0
  -26.8329  -30.8507   22.0024 H   0  0  0  0  0  0
  -28.1007  -29.0118   21.2011 H   0  0  0  0  0  0
  -25.9806  -25.9746   18.9567 H   0  0  0  0  0  0
  -23.9733  -27.3261   18.9942 H   0  0  0  0  0  0
  -23.7422  -30.6057   19.4070 H   0  0  0  0  0  0
  -22.7461  -29.2551   19.8599 H   0  0  0  0  0  0
  -25.1289  -36.1965   25.0826 H   0  0  0  0  0  0
  -20.9973  -28.3259   24.1414 H   0  0  0  0  0  0
  -20.5681  -26.2296   23.3606 H   0  0  0  0  0  0
  -21.6644  -26.7451   22.1203 H   0  0  0  0  0  0
  -19.6916  -25.6295   21.1241 H   0  0  0  0  0  0
  -19.6687  -27.3196   20.6742 H   0  0  0  0  0  0
  -17.4199  -26.6670   21.4026 H   0  0  0  0  0  0
  -18.0334  -26.0066   22.9019 H   0  0  0  0  0  0
  -19.7933  -30.7266   24.2278 H   0  0  0  0  0  0
  -17.5012  -31.6265   24.5168 H   0  0  0  0  0  0
  -15.5351  -30.2992   23.7642 H   0  0  0  0  0  0
  -15.8670  -28.0824   22.7060 H   0  0  0  0  0  0
  -24.5896  -30.7075   25.7802 H   0  0  0  0  0  0
  -24.8920  -32.2887   26.4908 H   0  0  0  0  0  0
  -25.8059  -30.8894   27.0237 H   0  0  0  0  0  0
  -26.2877  -29.6792   24.1177 H   0  0  0  0  0  0
  -27.4006  -29.7256   25.4654 H   0  0  0  0  0  0
  -27.8752  -30.4315   23.9384 H   0  0  0  0  0  0
  -27.2659  -33.3611   26.2099 H   0  0  0  0  0  0
  -28.3843  -32.6901   25.0321 H   0  0  0  0  0  0
  -28.0732  -31.8438   26.5399 H   0  0  0  0  0  0
  -28.2603  -38.0106   24.7513 H   0  0  0  0  0  0
  -28.1078  -36.2637   24.6288 H   0  0  0  0  0  0
  -27.2302  -37.1459   25.8868 H   0  0  0  0  0  0
  -20.9339  -29.8780   21.6919 H   0  0  0  0  0  0
  -26.0184  -38.2869   24.1401 H   0  0  0  0  0  0
  -30.0181  -21.4169   21.8180 H   0  0  0  0  0  0
  -28.2168  -22.6651   18.1037 H   0  0  0  0  0  0
  -31.5238  -19.0655   21.3671 H   0  0  0  0  0  0
  -30.1773  -18.6083   22.3633 H   0  0  0  0  0  0
  -28.0919  -18.0437   21.4963 H   0  0  0  0  0  0
  -27.6892  -18.0619   19.8213 H   0  0  0  0  0  0
  -31.5564  -16.6458   22.2910 H   0  0  0  0  0  0
  -31.9778  -16.9482   20.6345 H   0  0  0  0  0  0
  -28.8047  -16.0622   19.3323 H   0  0  0  0  0  0
  -28.0738  -15.7897   20.9099 H   0  0  0  0  0  0
  -30.1895  -18.4725   19.3422 H   0  0  0  0  0  0
  -28.9968  -19.6658   15.6654 H   0  0  0  0  0  0
  -30.3033  -20.1215   16.7488 H   0  0  0  0  0  0
  -29.1454  -21.3340   16.2071 H   0  0  0  0  0  0
  -26.5540  -19.4929   16.6132 H   0  0  0  0  0  0
  -26.6474  -21.1772   17.1096 H   0  0  0  0  0  0
  -26.2610  -19.9289   18.2908 H   0  0  0  0  0  0
  -27.2196  -24.7606   20.3377 H   0  0  0  0  0  0
  -28.1241  -24.9643   18.8515 H   0  0  0  0  0  0
  -29.1913  -24.1713   21.6156 H   0  0  0  0  0  0
  -28.5095  -18.9087   17.9378 H   0  0  0  0  0  0
  -30.7429  -24.5356   19.1635 H   0  0  0  0  0  0
  -31.3058  -24.0203   20.6046 H   0  0  0  0  0  0
  -30.7313  -25.5408   20.4487 H   0  0  0  0  0  0
  1 25  1  0  0  0
  1 30  2  0  0  0
  1 86  1  0  0  0
  2  3  1  0  0  0
  2 25  1  0  0  0
  2 88  1  0  0  0
  2 89  1  0  0  0
  3  4  1  0  0  0
  3 90  1  0  0  0
  3 91  1  0  0  0
  4  5  1  0  0  0
  4 92  1  0  0  0
  4 93  1  0  0  0
  5  6  1  0  0  0
  5 26  1  0  0  0
  5 94  1  0  0  0
  6 25  1  0  0  0
  6 95  1  0  0  0
  6 96  1  0  0  0
  7  8  2  0  0  0
  7 26  1  0  0  0
  7 29  1  0  0  0
  8  9  1  0  0  0
  8 22  1  0  0  0
  9 10  1  0  0  0
  9 27  2  0  0  0
 10 11  2  0  0  0
 10 15  1  0  0  0
 11 12  1  0  0  0
 11 97  1  0  0  0
 12 13  2  0  0  0
 12 98  1  0  0  0
 13 14  1  0  0  0
 13 31  1  0  0  0
 14 15  2  0  0  0
 14 99  1  0  0  0
 15100  1  0  0  0
 16 17  2  0  0  0
 16 21  1  0  0  0
 16 31  1  0  0  0
 17 18  1  0  0  0
 17101  1  0  0  0
 18 19  2  0  0  0
 18102  1  0  0  0
 19 20  1  0  0  0
 19 24  1  0  0  0
 20 21  2  0  0  0
 20103  1  0  0  0
 21 23  1  0  0  0
 22 28  1  0  0  0
 22 32  2  0  0  0
 26 27  1  0  0  0
 28104  1  0  0  0
 28105  1  0  0  0
 29106  1  0  0  0
 29107  1  0  0  0
 33 34  1  0  0  0
 33 66  1  0  0  0
 33 70  2  0  0  0
 34 36  1  0  0  0
 34 59  1  0  0  0
 34108  1  0  0  0
 35 44  2  0  0  0
 35 45  1  0  0  0
 35 68  1  0  0  0
 36 56  1  0  0  0
 36109  1  0  0  0
 37 39  1  0  0  0
 37 47  1  0  0  0
 37 66  1  0  0  0
 37110  1  0  0  0
 38 43  2  0  0  0
 38 46  1  0  0  0
 38 47  1  0  0  0
 39 64  1  0  0  0
 39 67  2  0  0  0
 40 52  1  0  0  0
 40 53  2  0  0  0
 40 58  1  0  0  0
 41111  1  0  0  0
 41112  1  0  0  0
 41113  1  0  0  0
 41 48  1  0  0  0
 42 43  1  0  0  0
 42 66  1  0  0  0
 42114  1  0  0  0
 42115  1  0  0  0
 43 44  1  0  0  0
 44116  1  0  0  0
 45 46  2  0  0  0
 45117  1  0  0  0
 46118  1  0  0  0
 47119  1  0  0  0
 47120  1  0  0  0
 48 56  1  0  0  0
 48 65  1  0  0  0
 48121  1  0  0  0
 49 50  1  0  0  0
 49 53  1  0  0  0
 49 64  1  0  0  0
 49122  1  0  0  0
 50 51  1  0  0  0
 50123  1  0  0  0
 50124  1  0  0  0
 51 52  1  0  0  0
 51125  1  0  0  0
 51126  1  0  0  0
 52127  1  0  0  0
 52128  1  0  0  0
 53 54  1  0  0  0
 54 55  2  0  0  0
 54129  1  0  0  0
 55 57  1  0  0  0
 55130  1  0  0  0
 56 69  2  0  0  0
 57 58  2  0  0  0
 57131  1  0  0  0
 58132  1  0  0  0
 59 60  1  0  0  0
 59 61  1  0  0  0
 59 62  1  0  0  0
 60133  1  0  0  0
 60134  1  0  0  0
 60135  1  0  0  0
 61136  1  0  0  0
 61137  1  0  0  0
 61138  1  0  0  0
 62139  1  0  0  0
 62140  1  0  0  0
 62141  1  0  0  0
 63 65  1  0  0  0
 63142  1  0  0  0
 63143  1  0  0  0
 63144  1  0  0  0
 64145  1  0  0  0
 65146  1  0  0  0
 68 82  1  0  0  0
 71 73  1  0  0  0
 71 74  2  0  0  0
 71147  1  0  0  0
 72 73  2  0  0  0
 72 85  1  0  0  0
 72148  1  0  0  0
 73 83  1  0  0  0
 74 85  1  0  0  0
 74 79  1  0  0  0
 75 77  1  0  0  0
 75 79  1  0  0  0
 75149  1  0  0  0
 75150  1  0  0  0
 76 78  1  0  0  0
 76 79  1  0  0  0
 76151  1  0  0  0
 76152  1  0  0  0
 77 86  1  0  0  0
 77153  1  0  0  0
 77154  1  0  0  0
 78 86  1  0  0  0
 78155  1  0  0  0
 78156  1  0  0  0
 79157  1  0  0  0
 80158  1  0  0  0
 80159  1  0  0  0
 80160  1  0  0  0
 80 84  1  0  0  0
 81 84  1  0  0  0
 81161  1  0  0  0
 81162  1  0  0  0
 81163  1  0  0  0
 82 83  1  0  0  0
 82164  1  0  0  0
 82165  1  0  0  0
 83 87  1  0  0  0
 83166  1  0  0  0
 84 85  1  0  0  0
 84167  1  0  0  0
 87168  1  0  0  0
 87169  1  0  0  0
 87170  1  0  0  0
M  CHG  1  87   1
M  ISO  4   1 100  68 101  82 101  86 100
M  END
> <chiral flag>
0

> <version>
0

> <s_m_source_file>
/data/baiqing/PycharmProjects/Reinvent-master-3.2/result/LINK_invent/BTK/process_docking_weight1_custom_sum_contain_oxygen_bond_distance_aromatic_linkinvent_7_9_3/rearranged_h_0116.sdf

> <i_m_source_file_index>
31

> <r_mmod_Potential_Energy-OPLS-2005>
2.47890830039978

> <r_mmod_Stretch_Energy-OPLS-2005>
71.526725769043

> <r_mmod_Bend_Energy-OPLS-2005>
157.588745117188

> <r_mmod_Torsional_Energy-OPLS-2005>
334.915008544922

> <r_mmod_Improper_Torsional_Energy-OPLS-2005>
3.92942595481873

> <r_mmod_Van_der_Waal_Energy-OPLS-2005>
140.606781005859

> <r_mmod_Electrostatic_Energy-OPLS-2005>
-313.626983642578

> <r_mmod_Solvation_Energy-OPLS-2005>
-440.794586181641

> <b_mmod_Minimization_Converged-OPLS-2005>
0

> <r_mmod_RMS_Derivative-OPLS-2005>
0.974401116371155

$$$$
32
                    3D
 Structure written by MMmdl.
172180  0  0  1  0            999 V2000
  -30.7190  -14.4308   20.6340 C   0  0  0  0  0  0
  -30.4246  -12.3043   19.4102 C   0  0  0  0  0  0
  -29.4916  -12.5193   18.2015 C   0  0  0  0  0  0
  -28.0138  -12.3764   18.6151 C   0  0  0  0  0  0
  -27.6659  -13.2031   19.8817 C   0  0  2  0  0  0
  -28.7048  -12.9531   20.9977 C   0  0  0  0  0  0
  -25.2603  -13.8155   20.5681 C   0  0  0  0  0  0
  -24.1843  -13.0439   20.9166 C   0  0  0  0  0  0
  -24.6391  -11.6903   20.8724 C   0  0  0  0  0  0
  -23.9053  -10.4292   21.0398 C   0  0  0  0  0  0
  -24.3607   -9.4211   21.9180 C   0  0  0  0  0  0
  -23.6286   -8.2245   22.0752 C   0  0  0  0  0  0
  -22.4269   -8.0279   21.3544 C   0  0  0  0  0  0
  -21.9901   -9.0251   20.4645 C   0  0  0  0  0  0
  -22.7225  -10.2132   20.3052 C   0  0  0  0  0  0
  -21.6853   -6.0734   22.5278 C   0  0  0  0  0  0
  -21.4013   -6.5639   23.8211 C   0  0  0  0  0  0
  -21.3660   -5.6791   24.9173 C   0  0  0  0  0  0
  -21.6044   -4.3054   24.7223 C   0  0  0  0  0  0
  -21.8820   -3.8146   23.4345 C   0  0  0  0  0  0
  -21.9193   -4.6962   22.3402 C   0  0  0  0  0  0
  -22.7868  -13.5243   21.1835 C   0  0  0  0  0  0
  -22.1661   -4.2149   21.0979 F   0  0  0  0  0  0
  -21.5630   -3.4538   25.7738 F   0  0  0  0  0  0
  -30.0416  -13.2642   20.4574 N   0  0  0  0  0  0
  -26.3042  -12.9319   20.3388 N   0  0  0  0  0  0
  -25.9318  -11.6480   20.5763 N   0  0  0  0  0  0
  -22.0505  -12.8237   22.0391 N   0  0  0  0  0  0
  -25.4344  -15.1872   20.4103 N   0  0  0  0  0  0
  -31.7858  -14.6815   20.0655 O   0  0  0  0  0  0
  -21.6637   -6.8874   21.4239 O   0  0  0  0  0  0
  -22.3556  -14.5554   20.6691 O   0  0  0  0  0  0
  -24.6129  -31.8688   23.2113 C   0  0  0  0  0  0
  -25.9029  -32.4827   23.8405 C   0  0  1  0  0  0
  -27.2373  -27.4476   20.0996 C   0  0  0  0  0  0
  -25.5892  -33.8626   24.2339 N   0  0  0  0  0  0
  -23.4014  -30.4910   21.5506 C   0  0  2  0  0  0
  -24.8514  -28.9575   20.1158 C   0  0  0  0  0  0
  -22.7404  -29.4657   22.4996 C   0  0  0  0  0  0
  -18.0270  -28.1378   22.8492 C   0  0  0  0  0  0
  -24.1485  -36.7319   23.2636 C   0  0  0  0  0  0
  -25.9283  -30.8365   21.3653 C   0  0  0  0  0  0
  -26.0080  -29.4696   20.7191 C   0  0  0  0  0  0
  -27.2050  -28.7186   20.7175 C   0  0  0  0  0  0
  -26.0729  -26.9525   19.4808 C   0  0  0  0  0  0
  -24.8769  -27.6952   19.4963 C   0  0  0  0  0  0
  -23.6111  -29.8216   20.1655 C   0  0  0  0  0  0
  -25.4104  -36.3118   24.0340 C   0  0  1  0  0  0
  -20.5858  -28.3661   23.1323 C   0  0  2  0  0  0
  -20.6762  -26.9399   22.5420 C   0  0  0  0  0  0
  -19.5742  -26.6385   21.5215 C   0  0  0  0  0  0
  -18.1917  -26.7927   22.1620 C   0  0  0  0  0  0
  -19.1518  -28.8836   23.2906 C   0  0  0  0  0  0
  -18.9448  -30.1444   23.8913 C   0  0  0  0  0  0
  -17.6451  -30.6586   24.0567 C   0  0  0  0  0  0
  -25.9028  -34.9481   23.5136 C   0  0  0  0  0  0
  -16.5342  -29.9088   23.6328 C   0  0  0  0  0  0
  -16.7259  -28.6505   23.0348 C   0  0  0  0  0  0
  -26.4468  -31.6596   25.0722 C   0  0  0  0  0  0
  -25.3746  -31.3699   26.1479 C   0  0  0  0  0  0
  -27.0288  -30.3037   24.6081 C   0  0  0  0  0  0
  -27.6052  -32.4307   25.7477 C   0  0  0  0  0  0
  -27.5584  -37.1808   24.8460 C   0  0  0  0  0  0
  -21.4133  -29.3031   22.3733 N   0  0  0  0  0  0
  -26.4292  -37.3800   23.9412 N   0  0  0  0  0  0
  -24.6653  -31.0797   22.1011 N   0  0  0  0  0  0
  -23.4179  -28.8203   23.3037 O   0  0  0  0  0  0
  -28.3722  -26.6703   20.0642 O   0  0  0  0  0  0
  -26.5589  -34.8928   22.4696 O   0  0  0  0  0  0
  -23.5324  -32.1436   23.7512 O   0  0  0  0  0  0
  -29.3830  -17.4131   22.4849 C   0  0  0  0  0  0
  -29.0036  -18.7134   22.4865 C   0  0  0  0  0  0
  -30.1817  -24.1741   20.3721 C   0  0  0  0  0  0
  -27.8006  -23.7505   21.0348 C   0  0  0  0  0  0
  -30.1837  -25.4957   21.1724 C   0  0  0  0  0  0
  -27.7912  -25.0589   21.8552 C   0  0  0  0  0  0
  -29.2154  -23.1212   20.9657 C   0  0  1  0  0  0
  -28.7822  -26.1215   21.3217 C   0  0  2  0  0  0
  -27.8696  -19.1566   23.3978 C   0  0  0  0  0  0
  -31.8091  -16.8038   22.4862 C   0  0  0  0  0  0
  -28.0487  -19.7480   19.6741 C   0  0  0  0  0  0
  -29.6396  -19.8422   21.6614 C   0  0  0  0  0  0
  -30.4919  -16.7257   21.6931 C   0  0  1  0  0  0
  -28.6389  -20.6440   20.7777 C   0  0  1  0  0  0
  -30.1094  -15.3295   21.4282 N   0  0  0  0  0  0
  -29.2526  -21.8595   20.1700 N   0  3  0  0  0  0
  -31.4679  -12.4115   19.1074 H   0  0  0  0  0  0
  -30.3311  -11.2851   19.7884 H   0  0  0  0  0  0
  -29.7283  -11.8051   17.4117 H   0  0  0  0  0  0
  -29.6597  -13.5108   17.7781 H   0  0  0  0  0  0
  -27.8214  -11.3187   18.7995 H   0  0  0  0  0  0
  -27.3625  -12.6627   17.7884 H   0  0  0  0  0  0
  -27.7205  -14.2560   19.6039 H   0  0  0  0  0  0
  -28.6773  -11.9079   21.3095 H   0  0  0  0  0  0
  -28.4540  -13.5218   21.8936 H   0  0  0  0  0  0
  -25.2755   -9.5690   22.4751 H   0  0  0  0  0  0
  -23.9999   -7.4637   22.7473 H   0  0  0  0  0  0
  -21.0833   -8.8765   19.8951 H   0  0  0  0  0  0
  -22.3683  -10.9668   19.6159 H   0  0  0  0  0  0
  -21.2004   -7.6146   23.9715 H   0  0  0  0  0  0
  -21.1482   -6.0521   25.9077 H   0  0  0  0  0  0
  -22.0599   -2.7608   23.2846 H   0  0  0  0  0  0
  -22.4107  -11.9890   22.4774 H   0  0  0  0  0  0
  -21.1125  -13.1268   22.2595 H   0  0  0  0  0  0
  -24.6718  -15.8462   20.5220 H   0  0  0  0  0  0
  -26.2952  -15.6250   20.1065 H   0  0  0  0  0  0
  -26.7102  -32.5551   23.1176 H   0  0  0  0  0  0
  -25.0062  -33.9796   25.0497 H   0  0  0  0  0  0
  -22.6895  -31.3071   21.4105 H   0  0  0  0  0  0
  -23.3749  -35.9649   23.3298 H   0  0  0  0  0  0
  -24.3586  -36.8932   22.2051 H   0  0  0  0  0  0
  -23.7232  -37.6521   23.6648 H   0  0  0  0  0  0
  -26.0373  -31.5999   20.5937 H   0  0  0  0  0  0
  -26.8174  -30.8945   21.9811 H   0  0  0  0  0  0
  -28.0984  -29.1120   21.1820 H   0  0  0  0  0  0
  -26.0917  -25.9847   19.0000 H   0  0  0  0  0  0
  -23.9893  -27.2951   19.0257 H   0  0  0  0  0  0
  -23.7166  -30.5956   19.4043 H   0  0  0  0  0  0
  -22.7369  -29.2381   19.8711 H   0  0  0  0  0  0
  -25.1280  -36.1987   25.0833 H   0  0  0  0  0  0
  -20.9948  -28.3225   24.1444 H   0  0  0  0  0  0
  -20.5665  -26.2269   23.3606 H   0  0  0  0  0  0
  -21.6634  -26.7444   22.1213 H   0  0  0  0  0  0
  -19.6903  -25.6300   21.1235 H   0  0  0  0  0  0
  -19.6688  -27.3208   20.6756 H   0  0  0  0  0  0
  -17.4192  -26.6686   21.4014 H   0  0  0  0  0  0
  -18.0308  -26.0064   22.9007 H   0  0  0  0  0  0
  -19.7925  -30.7258   24.2288 H   0  0  0  0  0  0
  -17.5007  -31.6269   24.5161 H   0  0  0  0  0  0
  -15.5344  -30.2995   23.7646 H   0  0  0  0  0  0
  -15.8658  -28.0834   22.7050 H   0  0  0  0  0  0
  -24.5917  -30.7043   25.7825 H   0  0  0  0  0  0
  -24.8941  -32.2853   26.4943 H   0  0  0  0  0  0
  -25.8112  -30.8862   27.0227 H   0  0  0  0  0  0
  -26.2821  -29.6807   24.1142 H   0  0  0  0  0  0
  -27.4068  -29.7263   25.4528 H   0  0  0  0  0  0
  -27.8656  -30.4356   23.9217 H   0  0  0  0  0  0
  -27.2680  -33.3597   26.2088 H   0  0  0  0  0  0
  -28.3844  -32.6881   25.0290 H   0  0  0  0  0  0
  -28.0739  -31.8409   26.5365 H   0  0  0  0  0  0
  -28.2597  -38.0112   24.7526 H   0  0  0  0  0  0
  -28.1087  -36.2647   24.6258 H   0  0  0  0  0  0
  -27.2310  -37.1424   25.8865 H   0  0  0  0  0  0
  -20.9290  -29.8755   21.6960 H   0  0  0  0  0  0
  -26.0185  -38.2877   24.1426 H   0  0  0  0  0  0
  -28.8442  -16.7489   23.1469 H   0  0  0  0  0  0
  -31.1968  -23.7763   20.3431 H   0  0  0  0  0  0
  -29.9076  -24.3896   19.3382 H   0  0  0  0  0  0
  -27.4339  -23.9567   20.0286 H   0  0  0  0  0  0
  -27.0865  -23.0604   21.4825 H   0  0  0  0  0  0
  -30.8604  -26.2134   20.7077 H   0  0  0  0  0  0
  -30.5896  -25.3028   22.1665 H   0  0  0  0  0  0
  -28.0567  -24.8251   22.8873 H   0  0  0  0  0  0
  -26.7799  -25.4637   21.9027 H   0  0  0  0  0  0
  -29.5500  -22.8858   21.9778 H   0  0  0  0  0  0
  -28.8533  -26.9343   22.0467 H   0  0  0  0  0  0
  -27.5872  -18.3729   24.1020 H   0  0  0  0  0  0
  -26.9788  -19.4094   22.8229 H   0  0  0  0  0  0
  -28.1657  -20.0289   23.9814 H   0  0  0  0  0  0
  -32.0715  -17.8405   22.7018 H   0  0  0  0  0  0
  -32.6444  -16.3742   21.9330 H   0  0  0  0  0  0
  -31.7359  -16.2793   23.4398 H   0  0  0  0  0  0
  -27.5427  -18.8807   20.0990 H   0  0  0  0  0  0
  -28.8216  -19.3771   19.0003 H   0  0  0  0  0  0
  -27.3105  -20.2838   19.0766 H   0  0  0  0  0  0
  -30.4492  -19.4520   21.0457 H   0  0  0  0  0  0
  -30.1133  -20.5179   22.3746 H   0  0  0  0  0  0
  -30.6157  -17.2329   20.7351 H   0  0  0  0  0  0
  -27.8061  -20.9735   21.3960 H   0  0  0  0  0  0
  -29.2402  -15.0151   21.8328 H   0  0  0  0  0  0
  -30.2121  -21.6459   19.9476 H   0  0  0  0  0  0
  -28.7863  -22.0403   19.2954 H   0  0  0  0  0  0
  1 25  1  0  0  0
  1 30  2  0  0  0
  1 85  1  0  0  0
  2  3  1  0  0  0
  2 25  1  0  0  0
  2 87  1  0  0  0
  2 88  1  0  0  0
  3  4  1  0  0  0
  3 89  1  0  0  0
  3 90  1  0  0  0
  4  5  1  0  0  0
  4 91  1  0  0  0
  4 92  1  0  0  0
  5  6  1  0  0  0
  5 26  1  0  0  0
  5 93  1  0  0  0
  6 25  1  0  0  0
  6 94  1  0  0  0
  6 95  1  0  0  0
  7  8  2  0  0  0
  7 26  1  0  0  0
  7 29  1  0  0  0
  8  9  1  0  0  0
  8 22  1  0  0  0
  9 10  1  0  0  0
  9 27  2  0  0  0
 10 11  2  0  0  0
 10 15  1  0  0  0
 11 12  1  0  0  0
 11 96  1  0  0  0
 12 13  2  0  0  0
 12 97  1  0  0  0
 13 14  1  0  0  0
 13 31  1  0  0  0
 14 15  2  0  0  0
 14 98  1  0  0  0
 15 99  1  0  0  0
 16 17  2  0  0  0
 16 21  1  0  0  0
 16 31  1  0  0  0
 17 18  1  0  0  0
 17100  1  0  0  0
 18 19  2  0  0  0
 18101  1  0  0  0
 19 20  1  0  0  0
 19 24  1  0  0  0
 20 21  2  0  0  0
 20102  1  0  0  0
 21 23  1  0  0  0
 22 28  1  0  0  0
 22 32  2  0  0  0
 26 27  1  0  0  0
 28103  1  0  0  0
 28104  1  0  0  0
 29105  1  0  0  0
 29106  1  0  0  0
 33 34  1  0  0  0
 33 66  1  0  0  0
 33 70  2  0  0  0
 34 36  1  0  0  0
 34 59  1  0  0  0
 34107  1  0  0  0
 35 44  2  0  0  0
 35 45  1  0  0  0
 35 68  1  0  0  0
 36 56  1  0  0  0
 36108  1  0  0  0
 37 39  1  0  0  0
 37 47  1  0  0  0
 37 66  1  0  0  0
 37109  1  0  0  0
 38 43  2  0  0  0
 38 46  1  0  0  0
 38 47  1  0  0  0
 39 64  1  0  0  0
 39 67  2  0  0  0
 40 52  1  0  0  0
 40 53  2  0  0  0
 40 58  1  0  0  0
 41110  1  0  0  0
 41111  1  0  0  0
 41112  1  0  0  0
 41 48  1  0  0  0
 42 43  1  0  0  0
 42 66  1  0  0  0
 42113  1  0  0  0
 42114  1  0  0  0
 43 44  1  0  0  0
 44115  1  0  0  0
 45 46  2  0  0  0
 45116  1  0  0  0
 46117  1  0  0  0
 47118  1  0  0  0
 47119  1  0  0  0
 48 56  1  0  0  0
 48 65  1  0  0  0
 48120  1  0  0  0
 49 50  1  0  0  0
 49 53  1  0  0  0
 49 64  1  0  0  0
 49121  1  0  0  0
 50 51  1  0  0  0
 50122  1  0  0  0
 50123  1  0  0  0
 51 52  1  0  0  0
 51124  1  0  0  0
 51125  1  0  0  0
 52126  1  0  0  0
 52127  1  0  0  0
 53 54  1  0  0  0
 54 55  2  0  0  0
 54128  1  0  0  0
 55 57  1  0  0  0
 55129  1  0  0  0
 56 69  2  0  0  0
 57 58  2  0  0  0
 57130  1  0  0  0
 58131  1  0  0  0
 59 60  1  0  0  0
 59 61  1  0  0  0
 59 62  1  0  0  0
 60132  1  0  0  0
 60133  1  0  0  0
 60134  1  0  0  0
 61135  1  0  0  0
 61136  1  0  0  0
 61137  1  0  0  0
 62138  1  0  0  0
 62139  1  0  0  0
 62140  1  0  0  0
 63 65  1  0  0  0
 63141  1  0  0  0
 63142  1  0  0  0
 63143  1  0  0  0
 64144  1  0  0  0
 65145  1  0  0  0
 68 78  1  0  0  0
 71 72  2  0  0  0
 71 83  1  0  0  0
 71146  1  0  0  0
 72 79  1  0  0  0
 72 82  1  0  0  0
 73 75  1  0  0  0
 73 77  1  0  0  0
 73147  1  0  0  0
 73148  1  0  0  0
 74 76  1  0  0  0
 74 77  1  0  0  0
 74149  1  0  0  0
 74150  1  0  0  0
 75 78  1  0  0  0
 75151  1  0  0  0
 75152  1  0  0  0
 76 78  1  0  0  0
 76153  1  0  0  0
 76154  1  0  0  0
 77 86  1  0  0  0
 77155  1  0  0  0
 78156  1  0  0  0
 79157  1  0  0  0
 79158  1  0  0  0
 79159  1  0  0  0
 80160  1  0  0  0
 80161  1  0  0  0
 80162  1  0  0  0
 80 83  1  0  0  0
 81163  1  0  0  0
 81164  1  0  0  0
 81165  1  0  0  0
 81 84  1  0  0  0
 82 84  1  0  0  0
 82166  1  0  0  0
 82167  1  0  0  0
 83 85  1  0  0  0
 83168  1  0  0  0
 84 86  1  0  0  0
 84169  1  0  0  0
 85170  1  0  0  0
 86171  1  0  0  0
 86172  1  0  0  0
M  CHG  1  86   1
M  ISO  4   1 100  68 101  78 101  85 100
M  END
> <chiral flag>
0

> <version>
0

> <s_m_source_file>
/data/baiqing/PycharmProjects/Reinvent-master-3.2/result/LINK_invent/BTK/process_docking_weight1_custom_sum_contain_oxygen_bond_distance_aromatic_linkinvent_7_9_3/rearranged_h_0116.sdf

> <i_m_source_file_index>
32

> <r_mmod_Potential_Energy-OPLS-2005>
-163.93635559082

> <r_mmod_Stretch_Energy-OPLS-2005>
37.1484222412109

> <r_mmod_Bend_Energy-OPLS-2005>
103.447448730469

> <r_mmod_Torsional_Energy-OPLS-2005>
242.184967041016

> <r_mmod_Improper_Torsional_Energy-OPLS-2005>
2.22388744354248

> <r_mmod_Van_der_Waal_Energy-OPLS-2005>
127.076416015625

> <r_mmod_Electrostatic_Energy-OPLS-2005>
-251.058563232422

> <r_mmod_Solvation_Energy-OPLS-2005>
-433.669525146484

> <b_mmod_Minimization_Converged-OPLS-2005>
0

> <r_mmod_RMS_Derivative-OPLS-2005>
0.358096390962601

$$$$
33
                    3D
 Structure written by MMmdl.
157165  0  0  1  0            999 V2000
  -30.5200  -15.0084   20.4182 C   0  0  0  0  0  0
  -30.4469  -12.6300   19.5232 C   0  0  0  0  0  0
  -29.5344  -12.5567   18.2753 C   0  0  0  0  0  0
  -28.0655  -12.3354   18.6783 C   0  0  0  0  0  0
  -27.6334  -13.2586   19.8476 C   0  0  2  0  0  0
  -28.6713  -13.2968   20.9931 C   0  0  0  0  0  0
  -25.2458  -13.8237   20.5725 C   0  0  0  0  0  0
  -24.1770  -13.0432   20.9221 C   0  0  0  0  0  0
  -24.6411  -11.6936   20.8731 C   0  0  0  0  0  0
  -23.9098  -10.4297   21.0396 C   0  0  0  0  0  0
  -24.3642   -9.4216   21.9185 C   0  0  0  0  0  0
  -23.6315   -8.2250   22.0751 C   0  0  0  0  0  0
  -22.4295   -8.0294   21.3547 C   0  0  0  0  0  0
  -21.9945   -9.0263   20.4641 C   0  0  0  0  0  0
  -22.7270  -10.2143   20.3043 C   0  0  0  0  0  0
  -21.6863   -6.0747   22.5282 C   0  0  0  0  0  0
  -21.4023   -6.5649   23.8217 C   0  0  0  0  0  0
  -21.3657   -5.6800   24.9178 C   0  0  0  0  0  0
  -21.6036   -4.3060   24.7229 C   0  0  0  0  0  0
  -21.8817   -3.8156   23.4349 C   0  0  0  0  0  0
  -21.9194   -4.6973   22.3405 C   0  0  0  0  0  0
  -22.7789  -13.5211   21.1890 C   0  0  0  0  0  0
  -22.1661   -4.2162   21.0979 F   0  0  0  0  0  0
  -21.5630   -3.4539   25.7737 F   0  0  0  0  0  0
  -29.9529  -13.7267   20.4119 N   0  0  0  0  0  0
  -26.2901  -12.9487   20.3273 N   0  0  0  0  0  0
  -25.9351  -11.6609   20.5737 N   0  0  0  0  0  0
  -22.0440  -12.8178   22.0440 N   0  0  0  0  0  0
  -25.4109  -15.1969   20.4167 N   0  0  0  0  0  0
  -31.6912  -15.0955   20.0361 O   0  0  0  0  0  0
  -21.6644   -6.8900   21.4251 O   0  0  0  0  0  0
  -22.3467  -14.5510   20.6744 O   0  0  0  0  0  0
  -24.6442  -31.8426   23.1836 C   0  0  0  0  0  0
  -25.9215  -32.4665   23.8245 C   0  0  1  0  0  0
  -27.2147  -27.1117   20.1647 C   0  0  0  0  0  0
  -25.5978  -33.8473   24.2170 N   0  0  0  0  0  0
  -23.4490  -30.4615   21.5269 C   0  0  2  0  0  0
  -24.9035  -28.8849   20.1033 C   0  0  0  0  0  0
  -22.7580  -29.4536   22.4799 C   0  0  0  0  0  0
  -18.0317  -28.1416   22.8457 C   0  0  0  0  0  0
  -24.1490  -36.7229   23.2641 C   0  0  0  0  0  0
  -26.0062  -30.7073   21.3889 C   0  0  0  0  0  0
  -26.0772  -29.3158   20.7334 C   0  0  0  0  0  0
  -27.2314  -28.4427   20.7522 C   0  0  0  0  0  0
  -26.0261  -26.8004   19.4694 C   0  0  0  0  0  0
  -24.8927  -27.6417   19.4536 C   0  0  0  0  0  0
  -23.6802  -29.7905   20.1462 C   0  0  0  0  0  0
  -25.4125  -36.3001   24.0317 C   0  0  1  0  0  0
  -20.5934  -28.3726   23.1227 C   0  0  2  0  0  0
  -20.6786  -26.9421   22.5410 C   0  0  0  0  0  0
  -19.5760  -26.6384   21.5215 C   0  0  0  0  0  0
  -18.1948  -26.7948   22.1625 C   0  0  0  0  0  0
  -19.1577  -28.8885   23.2834 C   0  0  0  0  0  0
  -18.9508  -30.1485   23.8859 C   0  0  0  0  0  0
  -17.6506  -30.6605   24.0560 C   0  0  0  0  0  0
  -25.9077  -34.9386   23.5046 C   0  0  0  0  0  0
  -16.5391  -29.9101   23.6343 C   0  0  0  0  0  0
  -16.7301  -28.6540   23.0323 C   0  0  0  0  0  0
  -26.4512  -31.6526   25.0698 C   0  0  0  0  0  0
  -25.3665  -31.3743   26.1366 C   0  0  0  0  0  0
  -27.0366  -30.2915   24.6293 C   0  0  0  0  0  0
  -27.6045  -32.4251   25.7519 C   0  0  0  0  0  0
  -27.5558  -37.1759   24.8470 C   0  0  0  0  0  0
  -21.4262  -29.3056   22.3565 N   0  0  0  0  0  0
  -26.4280  -37.3729   23.9407 N   0  0  0  0  0  0
  -24.7190  -31.0261   22.0883 N   0  0  0  0  0  0
  -23.4220  -28.8079   23.2950 O   0  0  0  0  0  0
  -28.2524  -26.1029   20.2715 O   0  0  0  0  0  0
  -26.5666  -34.8881   22.4629 O   0  0  0  0  0  0
  -23.5560  -32.1332   23.7037 O   0  0  0  0  0  0
  -32.0775  -19.9286   21.7969 C   0  0  0  0  0  0
  -31.4299  -18.7350   21.4490 C   0  0  0  0  0  0
  -31.3261  -20.9776   21.3680 C   0  0  0  0  0  0
  -30.2784  -19.0111   20.7704 C   0  0  0  0  0  0
  -31.7934  -22.3886   21.5489 C   0  0  0  0  0  0
  -26.9321  -24.2876   21.3679 C   0  0  0  0  0  0
  -29.5550  -17.6805   20.1739 C   0  0  0  0  0  0
  -29.1469  -23.3318   20.4498 C   0  0  0  0  0  0
  -29.0367  -21.6164   20.2691 C   0  0  0  0  0  0
  -27.9803  -24.5500   20.2637 C   0  0  1  0  0  0
  -30.1199  -20.5311   20.7639 N   0  0  0  0  0  0
  -29.7262  -16.1680   20.6828 N   0  0  0  0  0  0
  -31.4775  -12.7994   19.2102 H   0  0  0  0  0  0
  -30.4569  -11.6791   20.0564 H   0  0  0  0  0  0
  -29.8656  -11.7603   17.6095 H   0  0  0  0  0  0
  -29.6214  -13.4834   17.7054 H   0  0  0  0  0  0
  -27.9556  -11.2908   18.9709 H   0  0  0  0  0  0
  -27.4110  -12.4834   17.8172 H   0  0  0  0  0  0
  -27.5944  -14.2623   19.4228 H   0  0  0  0  0  0
  -28.7609  -12.3207   21.4736 H   0  0  0  0  0  0
  -28.3499  -13.9936   21.7695 H   0  0  0  0  0  0
  -25.2791   -9.5685   22.4760 H   0  0  0  0  0  0
  -24.0018   -7.4644   22.7469 H   0  0  0  0  0  0
  -21.0888   -8.8789   19.8938 H   0  0  0  0  0  0
  -22.3750  -10.9680   19.6143 H   0  0  0  0  0  0
  -21.2012   -7.6157   23.9734 H   0  0  0  0  0  0
  -21.1484   -6.0520   25.9085 H   0  0  0  0  0  0
  -22.0592   -2.7619   23.2840 H   0  0  0  0  0  0
  -22.4079  -11.9850   22.4826 H   0  0  0  0  0  0
  -21.1045  -13.1175   22.2617 H   0  0  0  0  0  0
  -24.6393  -15.8473   20.5204 H   0  0  0  0  0  0
  -26.2561  -15.6405   20.0802 H   0  0  0  0  0  0
  -26.7277  -32.5268   23.0969 H   0  0  0  0  0  0
  -25.0140  -33.9599   25.0325 H   0  0  0  0  0  0
  -22.7525  -31.2871   21.3667 H   0  0  0  0  0  0
  -23.3762  -35.9550   23.3293 H   0  0  0  0  0  0
  -24.3569  -36.8867   22.2054 H   0  0  0  0  0  0
  -23.7237  -37.6408   23.6691 H   0  0  0  0  0  0
  -26.1631  -31.4568   20.6124 H   0  0  0  0  0  0
  -26.8771  -30.7592   22.0300 H   0  0  0  0  0  0
  -28.1182  -28.7548   21.2840 H   0  0  0  0  0  0
  -25.9346  -25.8509   18.9650 H   0  0  0  0  0  0
  -24.0027  -27.3099   18.9384 H   0  0  0  0  0  0
  -23.8187  -30.5652   19.3905 H   0  0  0  0  0  0
  -22.7935  -29.2357   19.8330 H   0  0  0  0  0  0
  -25.1304  -36.1817   25.0810 H   0  0  0  0  0  0
  -21.0054  -28.3339   24.1339 H   0  0  0  0  0  0
  -20.5699  -26.2339   23.3631 H   0  0  0  0  0  0
  -21.6658  -26.7427   22.1211 H   0  0  0  0  0  0
  -19.6940  -25.6291   21.1254 H   0  0  0  0  0  0
  -19.6722  -27.3184   20.6732 H   0  0  0  0  0  0
  -17.4226  -26.6695   21.4022 H   0  0  0  0  0  0
  -18.0345  -26.0109   22.9043 H   0  0  0  0  0  0
  -19.7991  -30.7316   24.2193 H   0  0  0  0  0  0
  -17.5067  -31.6271   24.5190 H   0  0  0  0  0  0
  -15.5396  -30.3003   23.7681 H   0  0  0  0  0  0
  -15.8697  -28.0869   22.7010 H   0  0  0  0  0  0
  -24.5893  -30.7035   25.7673 H   0  0  0  0  0  0
  -24.8826  -32.2955   26.4634 H   0  0  0  0  0  0
  -25.7931  -30.9039   27.0239 H   0  0  0  0  0  0
  -26.2971  -29.6598   24.1368 H   0  0  0  0  0  0
  -27.4017  -29.7237   25.4852 H   0  0  0  0  0  0
  -27.8862  -30.4093   23.9562 H   0  0  0  0  0  0
  -27.2658  -33.3588   26.2003 H   0  0  0  0  0  0
  -28.3956  -32.6716   25.0425 H   0  0  0  0  0  0
  -28.0576  -31.8424   26.5545 H   0  0  0  0  0  0
  -28.2551  -38.0065   24.7511 H   0  0  0  0  0  0
  -28.1066  -36.2596   24.6306 H   0  0  0  0  0  0
  -27.2269  -37.1406   25.8866 H   0  0  0  0  0  0
  -20.9456  -29.8787   21.6763 H   0  0  0  0  0  0
  -26.0131  -38.2777   24.1456 H   0  0  0  0  0  0
  -33.0334  -20.0189   22.2973 H   0  0  0  0  0  0
  -31.8107  -17.7383   21.6323 H   0  0  0  0  0  0
  -31.7973  -22.9519   20.6177 H   0  0  0  0  0  0
  -32.8250  -22.4042   21.9048 H   0  0  0  0  0  0
  -31.2289  -22.9054   22.3204 H   0  0  0  0  0  0
  -26.0278  -24.8812   21.2539 H   0  0  0  0  0  0
  -27.3372  -24.5077   22.3555 H   0  0  0  0  0  0
  -26.6153  -23.2445   21.3719 H   0  0  0  0  0  0
  -29.7610  -17.6498   19.1041 H   0  0  0  0  0  0
  -28.4821  -17.8678   20.2257 H   0  0  0  0  0  0
  -29.9653  -23.6604   19.8086 H   0  0  0  0  0  0
  -29.4640  -23.5047   21.4712 H   0  0  0  0  0  0
  -28.9064  -21.4360   19.2024 H   0  0  0  0  0  0
  -28.0905  -21.3123   20.7153 H   0  0  0  0  0  0
  -27.5122  -24.3418   19.3024 H   0  0  0  0  0  0
  -28.8747  -15.8807   21.1404 H   0  0  0  0  0  0
  1 25  1  0  0  0
  1 30  2  0  0  0
  1 82  1  0  0  0
  2  3  1  0  0  0
  2 25  1  0  0  0
  2 83  1  0  0  0
  2 84  1  0  0  0
  3  4  1  0  0  0
  3 85  1  0  0  0
  3 86  1  0  0  0
  4  5  1  0  0  0
  4 87  1  0  0  0
  4 88  1  0  0  0
  5  6  1  0  0  0
  5 26  1  0  0  0
  5 89  1  0  0  0
  6 25  1  0  0  0
  6 90  1  0  0  0
  6 91  1  0  0  0
  7  8  2  0  0  0
  7 26  1  0  0  0
  7 29  1  0  0  0
  8  9  1  0  0  0
  8 22  1  0  0  0
  9 10  1  0  0  0
  9 27  2  0  0  0
 10 11  2  0  0  0
 10 15  1  0  0  0
 11 12  1  0  0  0
 11 92  1  0  0  0
 12 13  2  0  0  0
 12 93  1  0  0  0
 13 14  1  0  0  0
 13 31  1  0  0  0
 14 15  2  0  0  0
 14 94  1  0  0  0
 15 95  1  0  0  0
 16 17  2  0  0  0
 16 21  1  0  0  0
 16 31  1  0  0  0
 17 18  1  0  0  0
 17 96  1  0  0  0
 18 19  2  0  0  0
 18 97  1  0  0  0
 19 20  1  0  0  0
 19 24  1  0  0  0
 20 21  2  0  0  0
 20 98  1  0  0  0
 21 23  1  0  0  0
 22 28  1  0  0  0
 22 32  2  0  0  0
 26 27  1  0  0  0
 28 99  1  0  0  0
 28100  1  0  0  0
 29101  1  0  0  0
 29102  1  0  0  0
 33 34  1  0  0  0
 33 66  1  0  0  0
 33 70  2  0  0  0
 34 36  1  0  0  0
 34 59  1  0  0  0
 34103  1  0  0  0
 35 44  2  0  0  0
 35 45  1  0  0  0
 35 68  1  0  0  0
 36 56  1  0  0  0
 36104  1  0  0  0
 37 39  1  0  0  0
 37 47  1  0  0  0
 37 66  1  0  0  0
 37105  1  0  0  0
 38 43  2  0  0  0
 38 46  1  0  0  0
 38 47  1  0  0  0
 39 64  1  0  0  0
 39 67  2  0  0  0
 40 52  1  0  0  0
 40 53  2  0  0  0
 40 58  1  0  0  0
 41106  1  0  0  0
 41107  1  0  0  0
 41108  1  0  0  0
 41 48  1  0  0  0
 42 43  1  0  0  0
 42 66  1  0  0  0
 42109  1  0  0  0
 42110  1  0  0  0
 43 44  1  0  0  0
 44111  1  0  0  0
 45 46  2  0  0  0
 45112  1  0  0  0
 46113  1  0  0  0
 47114  1  0  0  0
 47115  1  0  0  0
 48 56  1  0  0  0
 48 65  1  0  0  0
 48116  1  0  0  0
 49 50  1  0  0  0
 49 53  1  0  0  0
 49 64  1  0  0  0
 49117  1  0  0  0
 50 51  1  0  0  0
 50118  1  0  0  0
 50119  1  0  0  0
 51 52  1  0  0  0
 51120  1  0  0  0
 51121  1  0  0  0
 52122  1  0  0  0
 52123  1  0  0  0
 53 54  1  0  0  0
 54 55  2  0  0  0
 54124  1  0  0  0
 55 57  1  0  0  0
 55125  1  0  0  0
 56 69  2  0  0  0
 57 58  2  0  0  0
 57126  1  0  0  0
 58127  1  0  0  0
 59 60  1  0  0  0
 59 61  1  0  0  0
 59 62  1  0  0  0
 60128  1  0  0  0
 60129  1  0  0  0
 60130  1  0  0  0
 61131  1  0  0  0
 61132  1  0  0  0
 61133  1  0  0  0
 62134  1  0  0  0
 62135  1  0  0  0
 62136  1  0  0  0
 63 65  1  0  0  0
 63137  1  0  0  0
 63138  1  0  0  0
 63139  1  0  0  0
 64140  1  0  0  0
 65141  1  0  0  0
 68 80  1  0  0  0
 71 72  1  0  0  0
 71 73  2  0  0  0
 71142  1  0  0  0
 72 74  2  0  0  0
 72143  1  0  0  0
 73 75  1  0  0  0
 73 81  1  0  0  0
 74 77  1  0  0  0
 74 81  1  0  0  0
 75144  1  0  0  0
 75145  1  0  0  0
 75146  1  0  0  0
 76147  1  0  0  0
 76148  1  0  0  0
 76149  1  0  0  0
 76 80  1  0  0  0
 77 82  1  0  0  0
 77150  1  0  0  0
 77151  1  0  0  0
 78 79  1  0  0  0
 78 80  1  0  0  0
 78152  1  0  0  0
 78153  1  0  0  0
 79 81  1  0  0  0
 79154  1  0  0  0
 79155  1  0  0  0
 80156  1  0  0  0
 82157  1  0  0  0
M  ISO  4   1 100  68 101  80 101  82 100
M  END
> <chiral flag>
0

> <version>
0

> <s_m_source_file>
/data/baiqing/PycharmProjects/Reinvent-master-3.2/result/LINK_invent/BTK/process_docking_weight1_custom_sum_contain_oxygen_bond_distance_aromatic_linkinvent_7_9_3/rearranged_h_0116.sdf

> <i_m_source_file_index>
33

> <r_mmod_Potential_Energy-OPLS-2005>
629.681823730469

> <r_mmod_Stretch_Energy-OPLS-2005>
339.050079345703

> <r_mmod_Bend_Energy-OPLS-2005>
350.854309082031

> <r_mmod_Torsional_Energy-OPLS-2005>
226.880493164062

> <r_mmod_Improper_Torsional_Energy-OPLS-2005>
5.10422134399414

> <r_mmod_Van_der_Waal_Energy-OPLS-2005>
121.88703918457

> <r_mmod_Electrostatic_Energy-OPLS-2005>
-419.967864990234

> <r_mmod_Solvation_Energy-OPLS-2005>
-224.453186035156

> <b_mmod_Minimization_Converged-OPLS-2005>
0

> <r_mmod_RMS_Derivative-OPLS-2005>
3.56856632232666

$$$$
34
                    3D
 Structure written by MMmdl.
170178  0  0  1  0            999 V2000
  -29.8253  -16.8691   20.2265 C   0  0  0  0  0  0
  -30.3182  -13.9792   19.4699 C   0  0  0  0  0  0
  -29.6023  -13.0198   18.4194 C   0  0  0  0  0  0
  -28.2865  -12.4156   18.9319 C   0  0  0  0  0  0
  -27.5896  -13.4680   19.7983 C   0  0  2  0  0  0
  -28.5393  -14.2853   20.7715 C   0  0  0  0  0  0
  -25.2260  -13.8561   20.5958 C   0  0  0  0  0  0
  -24.1779  -13.0469   20.9331 C   0  0  0  0  0  0
  -24.6705  -11.7074   20.8727 C   0  0  0  0  0  0
  -23.9396  -10.4336   21.0348 C   0  0  0  0  0  0
  -24.3845   -9.4219   21.9160 C   0  0  0  0  0  0
  -23.6438   -8.2279   22.0771 C   0  0  0  0  0  0
  -22.4390   -8.0349   21.3579 C   0  0  0  0  0  0
  -22.0100   -9.0331   20.4649 C   0  0  0  0  0  0
  -22.7511  -10.2174   20.3040 C   0  0  0  0  0  0
  -21.6867   -6.0802   22.5298 C   0  0  0  0  0  0
  -21.3997   -6.5678   23.8241 C   0  0  0  0  0  0
  -21.3680   -5.6815   24.9186 C   0  0  0  0  0  0
  -21.6073   -4.3089   24.7222 C   0  0  0  0  0  0
  -21.8802   -3.8195   23.4331 C   0  0  0  0  0  0
  -21.9198   -4.7025   22.3400 C   0  0  0  0  0  0
  -22.7734  -13.5061   21.1914 C   0  0  0  0  0  0
  -22.1655   -4.2221   21.0978 F   0  0  0  0  0  0
  -21.5676   -3.4557   25.7731 F   0  0  0  0  0  0
  -29.4879  -15.2640   19.9978 N   0  0  0  0  0  0
  -26.3034  -13.0282   20.3539 N   0  0  0  0  0  0
  -25.9743  -11.7146   20.5654 N   0  0  0  0  0  0
  -22.0465  -12.7986   22.0475 N   0  0  0  0  0  0
  -25.3470  -15.2320   20.4386 N   0  0  0  0  0  0
  -30.7609  -16.3038   20.9199 O   0  0  0  0  0  0
  -21.6692   -6.8971   21.4271 O   0  0  0  0  0  0
  -22.3331  -14.5335   20.6783 O   0  0  0  0  0  0
  -24.7619  -31.6971   23.0840 C   0  0  0  0  0  0
  -25.9755  -32.4006   23.7724 C   0  0  1  0  0  0
  -27.3087  -25.8776   20.2809 C   0  0  0  0  0  0
  -25.5960  -33.7875   24.1508 N   0  0  0  0  0  0
  -23.6285  -30.2494   21.4637 C   0  0  2  0  0  0
  -25.1026  -28.4135   20.1577 C   0  0  0  0  0  0
  -22.8111  -29.3737   22.4591 C   0  0  0  0  0  0
  -18.0397  -28.1471   22.8448 C   0  0  0  0  0  0
  -24.1500  -36.6937   23.2678 C   0  0  0  0  0  0
  -26.2328  -30.1543   21.4774 C   0  0  0  0  0  0
  -26.3030  -28.6249   20.8429 C   0  0  0  0  0  0
  -27.3422  -27.4203   20.8498 C   0  0  0  0  0  0
  -26.0643  -26.0868   19.5317 C   0  0  0  0  0  0
  -25.0689  -27.1687   19.4798 C   0  0  0  0  0  0
  -23.9290  -29.4577   20.1445 C   0  0  0  0  0  0
  -25.4176  -36.2647   24.0261 C   0  0  1  0  0  0
  -20.6062  -28.3838   23.1054 C   0  0  2  0  0  0
  -20.6827  -26.9435   22.5453 C   0  0  0  0  0  0
  -19.5815  -26.6338   21.5270 C   0  0  0  0  0  0
  -18.1993  -26.7990   22.1629 C   0  0  0  0  0  0
  -19.1680  -28.9010   23.2700 C   0  0  0  0  0  0
  -18.9569  -30.1591   23.8745 C   0  0  0  0  0  0
  -17.6546  -30.6639   24.0533 C   0  0  0  0  0  0
  -25.9195  -34.9041   23.4801 C   0  0  0  0  0  0
  -16.5434  -29.9093   23.6383 C   0  0  0  0  0  0
  -16.7370  -28.6526   23.0392 C   0  0  0  0  0  0
  -26.4673  -31.6413   25.0673 C   0  0  0  0  0  0
  -25.3501  -31.3915   26.1106 C   0  0  0  0  0  0
  -27.0744  -30.2686   24.7190 C   0  0  0  0  0  0
  -27.6030  -32.4469   25.7476 C   0  0  0  0  0  0
  -27.5575  -37.1584   24.8450 C   0  0  0  0  0  0
  -21.4698  -29.2882   22.3276 N   0  0  0  0  0  0
  -26.4238  -37.3496   23.9453 N   0  0  0  0  0  0
  -24.9096  -30.7516   22.0612 N   0  0  0  0  0  0
  -23.4150  -28.7565   23.3377 O   0  0  0  0  0  0
  -28.2051  -24.3067   20.3119 O   0  0  0  0  0  0
  -26.5988  -34.8773   22.4522 O   0  0  0  0  0  0
  -23.6455  -32.0479   23.5188 O   0  0  0  0  0  0
  -30.8714  -19.2723   20.5482 C   0  0  0  0  0  0
  -28.6468  -17.1025   18.1588 C   0  0  0  0  0  0
  -31.8822  -17.8661   19.4660 C   0  0  0  0  0  0
  -30.7355  -16.7928   18.0740 C   0  0  0  0  0  0
  -29.0263  -19.9247   20.2145 C   0  0  0  0  0  0
  -34.4655  -19.6584   18.1334 C   0  0  0  0  0  0
  -35.7162  -18.9102   20.2212 C   0  0  0  0  0  0
  -36.4966  -18.2404   17.9745 C   0  0  0  0  0  0
  -35.0238  -15.9946   18.9070 C   0  0  0  0  0  0
  -31.1613  -17.3742   16.7981 C   0  0  0  0  0  0
  -33.2466  -17.3588   19.9302 C   0  0  0  0  0  0
  -28.2094  -22.1010   20.2482 C   0  0  0  0  0  0
  -30.6683  -18.7673   17.2137 C   0  0  0  0  0  0
  -35.2177  -18.5008   18.8150 C   0  0  0  0  0  0
  -28.0113  -18.5370   19.3464 N   0  0  0  0  0  0
  -30.0664  -18.6741   18.6037 N   0  0  0  0  0  0
  -34.3096  -17.3000   18.8826 N   0  3  1  0  0  0
  -31.2221  -14.3544   18.9942 H   0  0  0  0  0  0
  -30.7309  -13.3908   20.2970 H   0  0  0  0  0  0
  -30.2818  -12.2248   18.1127 H   0  0  0  0  0  0
  -29.3901  -13.6166   17.5310 H   0  0  0  0  0  0
  -28.5058  -11.5365   19.5426 H   0  0  0  0  0  0
  -27.6519  -12.0815   18.1116 H   0  0  0  0  0  0
  -27.2988  -14.2136   19.0564 H   0  0  0  0  0  0
  -29.0325  -13.6257   21.4927 H   0  0  0  0  0  0
  -27.9213  -14.9255   21.3994 H   0  0  0  0  0  0
  -25.3006   -9.5635   22.4698 H   0  0  0  0  0  0
  -24.0147   -7.4673   22.7483 H   0  0  0  0  0  0
  -21.1048   -8.8873   19.8930 H   0  0  0  0  0  0
  -22.4018  -10.9700   19.6123 H   0  0  0  0  0  0
  -21.1909   -7.6169   23.9756 H   0  0  0  0  0  0
  -21.1547   -6.0541   25.9109 H   0  0  0  0  0  0
  -22.0551   -2.7655   23.2811 H   0  0  0  0  0  0
  -22.4209  -11.9671   22.4806 H   0  0  0  0  0  0
  -21.1073  -13.0931   22.2721 H   0  0  0  0  0  0
  -24.5596  -15.8583   20.5694 H   0  0  0  0  0  0
  -26.1972  -15.7080   20.1662 H   0  0  0  0  0  0
  -26.7964  -32.4371   23.0557 H   0  0  0  0  0  0
  -24.9839  -33.8808   24.9481 H   0  0  0  0  0  0
  -23.0041  -31.1044   21.1937 H   0  0  0  0  0  0
  -23.3869  -35.9141   23.3128 H   0  0  0  0  0  0
  -24.3582  -36.8853   22.2133 H   0  0  0  0  0  0
  -23.7125  -37.5962   23.6955 H   0  0  0  0  0  0
  -26.5169  -30.8246   20.6640 H   0  0  0  0  0  0
  -27.0509  -30.2473   22.1782 H   0  0  0  0  0  0
  -28.2276  -27.6372   21.4343 H   0  0  0  0  0  0
  -25.7764  -25.2189   18.9554 H   0  0  0  0  0  0
  -24.1862  -26.9694   18.8862 H   0  0  0  0  0  0
  -24.1620  -30.1715   19.3549 H   0  0  0  0  0  0
  -23.0204  -28.9533   19.8130 H   0  0  0  0  0  0
  -25.1411  -36.1312   25.0749 H   0  0  0  0  0  0
  -21.0113  -28.3503   24.1200 H   0  0  0  0  0  0
  -20.5669  -26.2471   23.3776 H   0  0  0  0  0  0
  -21.6682  -26.7297   22.1290 H   0  0  0  0  0  0
  -19.6954  -25.6208   21.1405 H   0  0  0  0  0  0
  -19.6787  -27.3069   20.6748 H   0  0  0  0  0  0
  -17.4282  -26.6790   21.4001 H   0  0  0  0  0  0
  -18.0306  -26.0164   22.9039 H   0  0  0  0  0  0
  -19.8031  -30.7469   24.2021 H   0  0  0  0  0  0
  -17.5072  -31.6304   24.5161 H   0  0  0  0  0  0
  -15.5421  -30.2924   23.7805 H   0  0  0  0  0  0
  -15.8784  -28.0781   22.7187 H   0  0  0  0  0  0
  -24.5781  -30.7241   25.7257 H   0  0  0  0  0  0
  -24.8581  -32.3160   26.4106 H   0  0  0  0  0  0
  -25.7389  -30.9263   27.0163 H   0  0  0  0  0  0
  -26.3589  -29.6020   24.2372 H   0  0  0  0  0  0
  -27.3986  -29.7541   25.6237 H   0  0  0  0  0  0
  -27.9625  -30.3637   24.0971 H   0  0  0  0  0  0
  -27.2553  -33.3963   26.1557 H   0  0  0  0  0  0
  -28.3993  -32.6719   25.0374 H   0  0  0  0  0  0
  -28.0544  -31.8963   26.5733 H   0  0  0  0  0  0
  -28.2431  -38.0032   24.7663 H   0  0  0  0  0  0
  -28.1243  -36.2559   24.6079 H   0  0  0  0  0  0
  -27.2324  -37.0947   25.8849 H   0  0  0  0  0  0
  -21.0254  -29.8273   21.5983 H   0  0  0  0  0  0
  -26.0014  -38.2505   24.1538 H   0  0  0  0  0  0
  -31.4907  -19.8899   21.1909 H   0  0  0  0  0  0
  -27.9552  -16.6894   17.4396 H   0  0  0  0  0  0
  -35.1130  -20.5265   18.0069 H   0  0  0  0  0  0
  -33.5978  -19.9864   18.7051 H   0  0  0  0  0  0
  -34.1165  -19.3783   17.1375 H   0  0  0  0  0  0
  -36.5188  -19.6414   20.1638 H   0  0  0  0  0  0
  -36.1136  -18.0449   20.7548 H   0  0  0  0  0  0
  -34.9513  -19.3776   20.8437 H   0  0  0  0  0  0
  -37.0886  -19.1507   17.8720 H   0  0  0  0  0  0
  -36.2821  -17.8905   16.9649 H   0  0  0  0  0  0
  -37.1604  -17.5142   18.4440 H   0  0  0  0  0  0
  -34.3278  -15.1537   18.9555 H   0  0  0  0  0  0
  -35.7041  -15.9293   19.7551 H   0  0  0  0  0  0
  -35.5976  -15.8323   17.9943 H   0  0  0  0  0  0
  -30.6545  -16.9389   15.9408 H   0  0  0  0  0  0
  -32.2435  -17.3174   16.6851 H   0  0  0  0  0  0
  -33.1093  -16.3499   20.3186 H   0  0  0  0  0  0
  -33.4921  -17.9151   20.8294 H   0  0  0  0  0  0
  -27.4604  -21.9488   21.0231 H   0  0  0  0  0  0
  -27.6535  -22.0323   19.3154 H   0  0  0  0  0  0
  -29.9405  -19.1691   16.5128 H   0  0  0  0  0  0
  -31.4984  -19.4801   17.2449 H   0  0  0  0  0  0
  -30.3748  -19.4456   19.1839 H   0  0  0  0  0  0
  -33.8024  -17.2586   18.0126 H   0  0  0  0  0  0
  1 25  1  0  0  0
  1 30  2  0  0  0
  1 86  1  0  0  0
  2  3  1  0  0  0
  2 25  1  0  0  0
  2 88  1  0  0  0
  2 89  1  0  0  0
  3  4  1  0  0  0
  3 90  1  0  0  0
  3 91  1  0  0  0
  4  5  1  0  0  0
  4 92  1  0  0  0
  4 93  1  0  0  0
  5  6  1  0  0  0
  5 26  1  0  0  0
  5 94  1  0  0  0
  6 25  1  0  0  0
  6 95  1  0  0  0
  6 96  1  0  0  0
  7  8  2  0  0  0
  7 26  1  0  0  0
  7 29  1  0  0  0
  8  9  1  0  0  0
  8 22  1  0  0  0
  9 10  1  0  0  0
  9 27  2  0  0  0
 10 11  2  0  0  0
 10 15  1  0  0  0
 11 12  1  0  0  0
 11 97  1  0  0  0
 12 13  2  0  0  0
 12 98  1  0  0  0
 13 14  1  0  0  0
 13 31  1  0  0  0
 14 15  2  0  0  0
 14 99  1  0  0  0
 15100  1  0  0  0
 16 17  2  0  0  0
 16 21  1  0  0  0
 16 31  1  0  0  0
 17 18  1  0  0  0
 17101  1  0  0  0
 18 19  2  0  0  0
 18102  1  0  0  0
 19 20  1  0  0  0
 19 24  1  0  0  0
 20 21  2  0  0  0
 20103  1  0  0  0
 21 23  1  0  0  0
 22 28  1  0  0  0
 22 32  2  0  0  0
 26 27  1  0  0  0
 28104  1  0  0  0
 28105  1  0  0  0
 29106  1  0  0  0
 29107  1  0  0  0
 33 34  1  0  0  0
 33 66  1  0  0  0
 33 70  2  0  0  0
 34 36  1  0  0  0
 34 59  1  0  0  0
 34108  1  0  0  0
 35 44  2  0  0  0
 35 45  1  0  0  0
 35 68  1  0  0  0
 36 56  1  0  0  0
 36109  1  0  0  0
 37 39  1  0  0  0
 37 47  1  0  0  0
 37 66  1  0  0  0
 37110  1  0  0  0
 38 43  2  0  0  0
 38 46  1  0  0  0
 38 47  1  0  0  0
 39 64  1  0  0  0
 39 67  2  0  0  0
 40 52  1  0  0  0
 40 53  2  0  0  0
 40 58  1  0  0  0
 41111  1  0  0  0
 41112  1  0  0  0
 41113  1  0  0  0
 41 48  1  0  0  0
 42 43  1  0  0  0
 42 66  1  0  0  0
 42114  1  0  0  0
 42115  1  0  0  0
 43 44  1  0  0  0
 44116  1  0  0  0
 45 46  2  0  0  0
 45117  1  0  0  0
 46118  1  0  0  0
 47119  1  0  0  0
 47120  1  0  0  0
 48 56  1  0  0  0
 48 65  1  0  0  0
 48121  1  0  0  0
 49 50  1  0  0  0
 49 53  1  0  0  0
 49 64  1  0  0  0
 49122  1  0  0  0
 50 51  1  0  0  0
 50123  1  0  0  0
 50124  1  0  0  0
 51 52  1  0  0  0
 51125  1  0  0  0
 51126  1  0  0  0
 52127  1  0  0  0
 52128  1  0  0  0
 53 54  1  0  0  0
 54 55  2  0  0  0
 54129  1  0  0  0
 55 57  1  0  0  0
 55130  1  0  0  0
 56 69  2  0  0  0
 57 58  2  0  0  0
 57131  1  0  0  0
 58132  1  0  0  0
 59 60  1  0  0  0
 59 61  1  0  0  0
 59 62  1  0  0  0
 60133  1  0  0  0
 60134  1  0  0  0
 60135  1  0  0  0
 61136  1  0  0  0
 61137  1  0  0  0
 61138  1  0  0  0
 62139  1  0  0  0
 62140  1  0  0  0
 62141  1  0  0  0
 63 65  1  0  0  0
 63142  1  0  0  0
 63143  1  0  0  0
 63144  1  0  0  0
 64145  1  0  0  0
 65146  1  0  0  0
 68 82  1  0  0  0
 71 73  2  0  0  0
 71 75  1  0  0  0
 71147  1  0  0  0
 72 74  2  0  0  0
 72 85  1  0  0  0
 72148  1  0  0  0
 73 74  1  0  0  0
 73 81  1  0  0  0
 74 80  1  0  0  0
 75 82  1  0  0  0
 75 85  2  0  0  0
 76149  1  0  0  0
 76150  1  0  0  0
 76151  1  0  0  0
 76 84  1  0  0  0
 77 84  1  0  0  0
 77152  1  0  0  0
 77153  1  0  0  0
 77154  1  0  0  0
 78 84  1  0  0  0
 78155  1  0  0  0
 78156  1  0  0  0
 78157  1  0  0  0
 79158  1  0  0  0
 79159  1  0  0  0
 79160  1  0  0  0
 79 87  1  0  0  0
 80 83  1  0  0  0
 80161  1  0  0  0
 80162  1  0  0  0
 81 87  1  0  0  0
 81163  1  0  0  0
 81164  1  0  0  0
 82165  1  0  0  0
 82166  1  0  0  0
 83 86  1  0  0  0
 83167  1  0  0  0
 83168  1  0  0  0
 84 87  1  0  0  0
 86169  1  0  0  0
 87170  1  0  0  0
M  CHG  1  87   1
M  ISO  4   1 100  68 101  82 101  86 100
M  END
> <chiral flag>
0

> <version>
0

> <s_m_source_file>
/data/baiqing/PycharmProjects/Reinvent-master-3.2/result/LINK_invent/BTK/process_docking_weight1_custom_sum_contain_oxygen_bond_distance_aromatic_linkinvent_7_9_3/rearranged_h_0116.sdf

> <i_m_source_file_index>
34

> <r_mmod_Potential_Energy-OPLS-2005>
17709.03515625

> <r_mmod_Stretch_Energy-OPLS-2005>
10139.115234375

> <r_mmod_Bend_Energy-OPLS-2005>
1240.20837402344

> <r_mmod_Torsional_Energy-OPLS-2005>
533.328002929688

> <r_mmod_Improper_Torsional_Energy-OPLS-2005>
118.228385925293

> <r_mmod_Van_der_Waal_Energy-OPLS-2005>
2950.10717773438

> <r_mmod_Electrostatic_Energy-OPLS-2005>
-480.522583007812

> <r_mmod_Solvation_Energy-OPLS-2005>
-436.013305664062

> <b_mmod_Minimization_Converged-OPLS-2005>
0

> <r_mmod_RMS_Derivative-OPLS-2005>
9.59003067016602

$$$$
35
                    3D
 Structure written by MMmdl.
162171  0  0  1  0            999 V2000
  -30.4084  -15.3588   20.3570 C   0  0  0  0  0  0
  -30.4391  -12.8687   19.5540 C   0  0  0  0  0  0
  -29.5478  -12.6094   18.3106 C   0  0  0  0  0  0
  -28.0979  -12.3177   18.7294 C   0  0  0  0  0  0
  -27.6147  -13.2907   19.8327 C   0  0  2  0  0  0
  -28.6417  -13.4939   20.9712 C   0  0  0  0  0  0
  -25.2389  -13.8283   20.5763 C   0  0  0  0  0  0
  -24.1752  -13.0453   20.9260 C   0  0  0  0  0  0
  -24.6427  -11.6954   20.8756 C   0  0  0  0  0  0
  -23.9127  -10.4303   21.0400 C   0  0  0  0  0  0
  -24.3667   -9.4215   21.9178 C   0  0  0  0  0  0
  -23.6323   -8.2257   22.0751 C   0  0  0  0  0  0
  -22.4299   -8.0298   21.3547 C   0  0  0  0  0  0
  -21.9949   -9.0278   20.4649 C   0  0  0  0  0  0
  -22.7295  -10.2148   20.3054 C   0  0  0  0  0  0
  -21.6866   -6.0747   22.5275 C   0  0  0  0  0  0
  -21.4021   -6.5643   23.8210 C   0  0  0  0  0  0
  -21.3662   -5.6793   24.9169 C   0  0  0  0  0  0
  -21.6048   -4.3058   24.7216 C   0  0  0  0  0  0
  -21.8820   -3.8153   23.4336 C   0  0  0  0  0  0
  -21.9198   -4.6973   22.3395 C   0  0  0  0  0  0
  -22.7764  -13.5192   21.1897 C   0  0  0  0  0  0
  -22.1664   -4.2160   21.0971 F   0  0  0  0  0  0
  -21.5629   -3.4538   25.7727 F   0  0  0  0  0  0
  -29.8714  -14.0264   20.3564 N   0  0  0  0  0  0
  -26.2841  -12.9586   20.3258 N   0  0  0  0  0  0
  -25.9377  -11.6674   20.5735 N   0  0  0  0  0  0
  -22.0429  -12.8169   22.0451 N   0  0  0  0  0  0
  -25.4009  -15.2023   20.4199 N   0  0  0  0  0  0
  -31.6099  -15.3575   20.0486 O   0  0  0  0  0  0
  -21.6656   -6.8899   21.4241 O   0  0  0  0  0  0
  -22.3435  -14.5486   20.6730 O   0  0  0  0  0  0
  -24.6696  -31.8165   23.1681 C   0  0  0  0  0  0
  -25.9353  -32.4546   23.8156 C   0  0  1  0  0  0
  -27.2113  -26.8441   20.1887 C   0  0  0  0  0  0
  -25.5997  -33.8368   24.2050 N   0  0  0  0  0  0
  -23.4881  -30.4285   21.5179 C   0  0  2  0  0  0
  -24.9454  -28.8132   20.1066 C   0  0  0  0  0  0
  -22.7701  -29.4398   22.4750 C   0  0  0  0  0  0
  -18.0330  -28.1410   22.8465 C   0  0  0  0  0  0
  -24.1495  -36.7189   23.2645 C   0  0  0  0  0  0
  -26.0629  -30.5919   21.4192 C   0  0  0  0  0  0
  -26.1265  -29.1755   20.7639 C   0  0  0  0  0  0
  -27.2445  -28.2112   20.7907 C   0  0  0  0  0  0
  -26.0254  -26.6984   19.4247 C   0  0  0  0  0  0
  -24.9273  -27.5965   19.4130 C   0  0  0  0  0  0
  -23.7343  -29.7475   20.1434 C   0  0  0  0  0  0
  -25.4138  -36.2941   24.0292 C   0  0  1  0  0  0
  -20.5959  -28.3762   23.1166 C   0  0  2  0  0  0
  -20.6803  -26.9436   22.5400 C   0  0  0  0  0  0
  -19.5775  -26.6374   21.5215 C   0  0  0  0  0  0
  -18.1959  -26.7941   22.1624 C   0  0  0  0  0  0
  -19.1595  -28.8911   23.2802 C   0  0  0  0  0  0
  -18.9503  -30.1496   23.8842 C   0  0  0  0  0  0
  -17.6495  -30.6601   24.0554 C   0  0  0  0  0  0
  -25.9111  -34.9325   23.4992 C   0  0  0  0  0  0
  -16.5386  -29.9085   23.6344 C   0  0  0  0  0  0
  -16.7312  -28.6504   23.0367 C   0  0  0  0  0  0
  -26.4582  -31.6518   25.0713 C   0  0  0  0  0  0
  -25.3692  -31.3791   26.1356 C   0  0  0  0  0  0
  -27.0496  -30.2869   24.6518 C   0  0  0  0  0  0
  -27.6049  -32.4354   25.7519 C   0  0  0  0  0  0
  -27.5568  -37.1749   24.8466 C   0  0  0  0  0  0
  -21.4363  -29.3036   22.3502 N   0  0  0  0  0  0
  -26.4274  -37.3689   23.9410 N   0  0  0  0  0  0
  -24.7619  -30.9749   22.0873 N   0  0  0  0  0  0
  -23.4212  -28.7966   23.3019 O   0  0  0  0  0  0
  -28.1655  -25.6649   20.3306 O   0  0  0  0  0  0
  -26.5722  -34.8867   22.4589 O   0  0  0  0  0  0
  -23.5749  -32.1185   23.6715 O   0  0  0  0  0  0
  -30.0449  -21.4999   22.4285 C   0  0  0  0  0  0
  -29.4988  -22.6375   21.7842 C   0  0  0  0  0  0
  -30.0246  -20.1642   21.9179 C   0  0  0  0  0  0
  -28.8414  -22.5470   20.5527 C   0  0  0  0  0  0
  -29.4139  -19.8891   20.6600 C   0  0  0  0  0  0
  -30.4750  -18.9741   24.2315 C   0  0  0  0  0  0
  -31.8402  -19.3289   23.6870 C   0  0  0  0  0  0
  -30.6883  -19.0733   22.7372 C   0  0  0  0  0  0
  -28.6564  -18.2089   18.7646 C   0  0  0  0  0  0
  -28.0789  -23.9679   18.4836 C   0  0  0  0  0  0
  -26.5493  -23.6562   20.5232 C   0  0  0  0  0  0
  -29.6157  -18.2560   19.9628 C   0  0  2  0  0  0
  -27.9655  -24.0038   20.0155 C   0  0  0  0  0  0
  -28.8379  -21.1332   20.0511 N   0  0  0  0  0  0
  -29.6423  -16.6418   20.5181 N   0  0  0  0  0  0
  -31.4580  -13.0718   19.2229 H   0  0  0  0  0  0
  -30.5138  -11.9689   20.1670 H   0  0  0  0  0  0
  -29.9442  -11.7814   17.7213 H   0  0  0  0  0  0
  -29.5704  -13.4868   17.6624 H   0  0  0  0  0  0
  -28.0606  -11.2932   19.1014 H   0  0  0  0  0  0
  -27.4350  -12.3578   17.8643 H   0  0  0  0  0  0
  -27.5223  -14.2540   19.3295 H   0  0  0  0  0  0
  -28.8246  -12.5676   21.5180 H   0  0  0  0  0  0
  -28.2623  -14.2123   21.6993 H   0  0  0  0  0  0
  -25.2814   -9.5679   22.4753 H   0  0  0  0  0  0
  -24.0030   -7.4647   22.7469 H   0  0  0  0  0  0
  -21.0881   -8.8815   19.8952 H   0  0  0  0  0  0
  -22.3765  -10.9694   19.6163 H   0  0  0  0  0  0
  -21.2015   -7.6152   23.9716 H   0  0  0  0  0  0
  -21.1482   -6.0520   25.9074 H   0  0  0  0  0  0
  -22.0598   -2.7615   23.2831 H   0  0  0  0  0  0
  -22.4080  -11.9850   22.4851 H   0  0  0  0  0  0
  -21.1033  -13.1158   22.2641 H   0  0  0  0  0  0
  -24.6289  -15.8503   20.5323 H   0  0  0  0  0  0
  -26.2375  -15.6433   20.0618 H   0  0  0  0  0  0
  -26.7416  -32.5054   23.0859 H   0  0  0  0  0  0
  -25.0095  -33.9439   25.0167 H   0  0  0  0  0  0
  -22.8053  -31.2628   21.3445 H   0  0  0  0  0  0
  -23.3770  -35.9507   23.3271 H   0  0  0  0  0  0
  -24.3573  -36.8879   22.2069 H   0  0  0  0  0  0
  -23.7241  -37.6357   23.6733 H   0  0  0  0  0  0
  -26.2568  -31.3279   20.6379 H   0  0  0  0  0  0
  -26.9185  -30.6493   22.0792 H   0  0  0  0  0  0
  -28.1220  -28.4814   21.3612 H   0  0  0  0  0  0
  -25.8830  -25.8123   18.8310 H   0  0  0  0  0  0
  -24.0467  -27.3255   18.8466 H   0  0  0  0  0  0
  -23.8947  -30.5183   19.3887 H   0  0  0  0  0  0
  -22.8436  -29.2058   19.8211 H   0  0  0  0  0  0
  -25.1339  -36.1725   25.0784 H   0  0  0  0  0  0
  -21.0049  -28.3378   24.1290 H   0  0  0  0  0  0
  -20.5682  -26.2384   23.3648 H   0  0  0  0  0  0
  -21.6664  -26.7400   22.1206 H   0  0  0  0  0  0
  -19.6931  -25.6270   21.1280 H   0  0  0  0  0  0
  -19.6713  -27.3157   20.6720 H   0  0  0  0  0  0
  -17.4227  -26.6688   21.4028 H   0  0  0  0  0  0
  -18.0351  -26.0096   22.9032 H   0  0  0  0  0  0
  -19.7981  -30.7326   24.2188 H   0  0  0  0  0  0
  -17.5049  -31.6274   24.5165 H   0  0  0  0  0  0
  -15.5385  -30.2971   23.7696 H   0  0  0  0  0  0
  -15.8712  -28.0800   22.7115 H   0  0  0  0  0  0
  -24.5890  -30.7121   25.7668 H   0  0  0  0  0  0
  -24.8866  -32.3002   26.4633 H   0  0  0  0  0  0
  -25.7913  -30.9056   27.0230 H   0  0  0  0  0  0
  -26.3191  -29.6516   24.1498 H   0  0  0  0  0  0
  -27.3961  -29.7263   25.5211 H   0  0  0  0  0  0
  -27.9163  -30.4023   24.0008 H   0  0  0  0  0  0
  -27.2596  -33.3708   26.1932 H   0  0  0  0  0  0
  -28.3945  -32.6828   25.0413 H   0  0  0  0  0  0
  -28.0624  -31.8594   26.5574 H   0  0  0  0  0  0
  -28.2553  -38.0071   24.7520 H   0  0  0  0  0  0
  -28.1093  -36.2597   24.6287 H   0  0  0  0  0  0
  -27.2285  -37.1384   25.8866 H   0  0  0  0  0  0
  -20.9630  -29.8725   21.6623 H   0  0  0  0  0  0
  -26.0112  -38.2740   24.1431 H   0  0  0  0  0  0
  -30.5040  -21.6849   23.3878 H   0  0  0  0  0  0
  -29.5429  -23.5983   22.2791 H   0  0  0  0  0  0
  -29.9203  -19.7635   24.7351 H   0  0  0  0  0  0
  -30.3588  -17.9806   24.6610 H   0  0  0  0  0  0
  -32.6069  -18.5600   23.7671 H   0  0  0  0  0  0
  -32.1979  -20.3446   23.8387 H   0  0  0  0  0  0
  -30.7715  -18.1380   22.2007 H   0  0  0  0  0  0
  -28.8213  -19.0591   18.1018 H   0  0  0  0  0  0
  -27.6185  -18.2476   19.0950 H   0  0  0  0  0  0
  -28.7904  -17.3054   18.1691 H   0  0  0  0  0  0
  -27.7367  -23.0113   18.0891 H   0  0  0  0  0  0
  -29.1212  -24.0857   18.1874 H   0  0  0  0  0  0
  -27.5140  -24.7505   17.9855 H   0  0  0  0  0  0
  -26.5342  -23.6613   21.6131 H   0  0  0  0  0  0
  -26.2687  -22.6507   20.2084 H   0  0  0  0  0  0
  -25.7470  -24.3008   20.1950 H   0  0  0  0  0  0
  -30.6159  -18.3394   19.5353 H   0  0  0  0  0  0
  -28.7458  -16.4262   20.9277 H   0  0  0  0  0  0
  1 25  1  0  0  0
  1 30  2  0  0  0
  1 85  1  0  0  0
  2  3  1  0  0  0
  2 25  1  0  0  0
  2 86  1  0  0  0
  2 87  1  0  0  0
  3  4  1  0  0  0
  3 88  1  0  0  0
  3 89  1  0  0  0
  4  5  1  0  0  0
  4 90  1  0  0  0
  4 91  1  0  0  0
  5  6  1  0  0  0
  5 26  1  0  0  0
  5 92  1  0  0  0
  6 25  1  0  0  0
  6 93  1  0  0  0
  6 94  1  0  0  0
  7  8  2  0  0  0
  7 26  1  0  0  0
  7 29  1  0  0  0
  8  9  1  0  0  0
  8 22  1  0  0  0
  9 10  1  0  0  0
  9 27  2  0  0  0
 10 11  2  0  0  0
 10 15  1  0  0  0
 11 12  1  0  0  0
 11 95  1  0  0  0
 12 13  2  0  0  0
 12 96  1  0  0  0
 13 14  1  0  0  0
 13 31  1  0  0  0
 14 15  2  0  0  0
 14 97  1  0  0  0
 15 98  1  0  0  0
 16 17  2  0  0  0
 16 21  1  0  0  0
 16 31  1  0  0  0
 17 18  1  0  0  0
 17 99  1  0  0  0
 18 19  2  0  0  0
 18100  1  0  0  0
 19 20  1  0  0  0
 19 24  1  0  0  0
 20 21  2  0  0  0
 20101  1  0  0  0
 21 23  1  0  0  0
 22 28  1  0  0  0
 22 32  2  0  0  0
 26 27  1  0  0  0
 28102  1  0  0  0
 28103  1  0  0  0
 29104  1  0  0  0
 29105  1  0  0  0
 33 34  1  0  0  0
 33 66  1  0  0  0
 33 70  2  0  0  0
 34 36  1  0  0  0
 34 59  1  0  0  0
 34106  1  0  0  0
 35 44  2  0  0  0
 35 45  1  0  0  0
 35 68  1  0  0  0
 36 56  1  0  0  0
 36107  1  0  0  0
 37 39  1  0  0  0
 37 47  1  0  0  0
 37 66  1  0  0  0
 37108  1  0  0  0
 38 43  2  0  0  0
 38 46  1  0  0  0
 38 47  1  0  0  0
 39 64  1  0  0  0
 39 67  2  0  0  0
 40 52  1  0  0  0
 40 53  2  0  0  0
 40 58  1  0  0  0
 41109  1  0  0  0
 41110  1  0  0  0
 41111  1  0  0  0
 41 48  1  0  0  0
 42 43  1  0  0  0
 42 66  1  0  0  0
 42112  1  0  0  0
 42113  1  0  0  0
 43 44  1  0  0  0
 44114  1  0  0  0
 45 46  2  0  0  0
 45115  1  0  0  0
 46116  1  0  0  0
 47117  1  0  0  0
 47118  1  0  0  0
 48 56  1  0  0  0
 48 65  1  0  0  0
 48119  1  0  0  0
 49 50  1  0  0  0
 49 53  1  0  0  0
 49 64  1  0  0  0
 49120  1  0  0  0
 50 51  1  0  0  0
 50121  1  0  0  0
 50122  1  0  0  0
 51 52  1  0  0  0
 51123  1  0  0  0
 51124  1  0  0  0
 52125  1  0  0  0
 52126  1  0  0  0
 53 54  1  0  0  0
 54 55  2  0  0  0
 54127  1  0  0  0
 55 57  1  0  0  0
 55128  1  0  0  0
 56 69  2  0  0  0
 57 58  2  0  0  0
 57129  1  0  0  0
 58130  1  0  0  0
 59 60  1  0  0  0
 59 61  1  0  0  0
 59 62  1  0  0  0
 60131  1  0  0  0
 60132  1  0  0  0
 60133  1  0  0  0
 61134  1  0  0  0
 61135  1  0  0  0
 61136  1  0  0  0
 62137  1  0  0  0
 62138  1  0  0  0
 62139  1  0  0  0
 63 65  1  0  0  0
 63140  1  0  0  0
 63141  1  0  0  0
 63142  1  0  0  0
 64143  1  0  0  0
 65144  1  0  0  0
 68 83  1  0  0  0
 71 72  2  0  0  0
 71 73  1  0  0  0
 71145  1  0  0  0
 72 74  1  0  0  0
 72146  1  0  0  0
 73 75  2  0  0  0
 73 78  1  0  0  0
 74 83  1  0  0  0
 74 84  2  0  0  0
 75 82  1  0  0  0
 75 84  1  0  0  0
 76 77  1  0  0  0
 76 78  1  0  0  0
 76147  1  0  0  0
 76148  1  0  0  0
 77 78  1  0  0  0
 77149  1  0  0  0
 77150  1  0  0  0
 78151  1  0  0  0
 79152  1  0  0  0
 79153  1  0  0  0
 79154  1  0  0  0
 79 82  1  0  0  0
 80155  1  0  0  0
 80156  1  0  0  0
 80157  1  0  0  0
 80 83  1  0  0  0
 81 83  1  0  0  0
 81158  1  0  0  0
 81159  1  0  0  0
 81160  1  0  0  0
 82 85  1  0  0  0
 82161  1  0  0  0
 85162  1  0  0  0
M  ISO  4   1 100  68 101  83 101  85 100
M  END
> <chiral flag>
0

> <version>
0

> <s_m_source_file>
/data/baiqing/PycharmProjects/Reinvent-master-3.2/result/LINK_invent/BTK/process_docking_weight1_custom_sum_contain_oxygen_bond_distance_aromatic_linkinvent_7_9_3/rearranged_h_0116.sdf

> <i_m_source_file_index>
35

> <r_mmod_Potential_Energy-OPLS-2005>
1358.44201660156

> <r_mmod_Stretch_Energy-OPLS-2005>
720.400939941406

> <r_mmod_Bend_Energy-OPLS-2005>
495.437042236328

> <r_mmod_Torsional_Energy-OPLS-2005>
245.712387084961

> <r_mmod_Improper_Torsional_Energy-OPLS-2005>
6.47112226486206

> <r_mmod_Van_der_Waal_Energy-OPLS-2005>
133.180725097656

> <r_mmod_Electrostatic_Energy-OPLS-2005>
-606.215454101562

> <r_mmod_Solvation_Energy-OPLS-2005>
-217.032028198242

> <b_mmod_Minimization_Converged-OPLS-2005>
0

> <r_mmod_RMS_Derivative-OPLS-2005>
0.825838148593903

$$$$
36
                    3D
 Structure written by MMmdl.
170179  0  0  1  0            999 V2000
  -30.7603  -14.4615   20.5012 C   0  0  0  0  0  0
  -30.4026  -12.2809   19.4190 C   0  0  0  0  0  0
  -29.4882  -12.4761   18.1946 C   0  0  0  0  0  0
  -28.0015  -12.3662   18.5952 C   0  0  0  0  0  0
  -27.6463  -13.1985   19.8587 C   0  0  2  0  0  0
  -28.7088  -13.0447   20.9764 C   0  0  0  0  0  0
  -25.2564  -13.8090   20.5704 C   0  0  0  0  0  0
  -24.1817  -13.0386   20.9194 C   0  0  0  0  0  0
  -24.6371  -11.6852   20.8732 C   0  0  0  0  0  0
  -23.9030  -10.4258   21.0373 C   0  0  0  0  0  0
  -24.3602   -9.4182   21.9162 C   0  0  0  0  0  0
  -23.6285   -8.2218   22.0734 C   0  0  0  0  0  0
  -22.4262   -8.0239   21.3518 C   0  0  0  0  0  0
  -21.9870   -9.0203   20.4617 C   0  0  0  0  0  0
  -22.7202  -10.2092   20.3020 C   0  0  0  0  0  0
  -21.6845   -6.0704   22.5282 C   0  0  0  0  0  0
  -21.4031   -6.5618   23.8219 C   0  0  0  0  0  0
  -21.3666   -5.6766   24.9174 C   0  0  0  0  0  0
  -21.6036   -4.3025   24.7215 C   0  0  0  0  0  0
  -21.8821   -3.8114   23.4340 C   0  0  0  0  0  0
  -21.9206   -4.6936   22.3405 C   0  0  0  0  0  0
  -22.7840  -13.5211   21.1816 C   0  0  0  0  0  0
  -22.1653   -4.2130   21.0974 F   0  0  0  0  0  0
  -21.5638   -3.4498   25.7729 F   0  0  0  0  0  0
  -30.0334  -13.3128   20.3979 N   0  0  0  0  0  0
  -26.2972  -12.9225   20.3354 N   0  0  0  0  0  0
  -25.9297  -11.6395   20.5776 N   0  0  0  0  0  0
  -22.0458  -12.8247   22.0383 N   0  0  0  0  0  0
  -25.4281  -15.1820   20.4139 N   0  0  0  0  0  0
  -31.9458  -14.5286   20.1651 O   0  0  0  0  0  0
  -21.6622   -6.8829   21.4230 O   0  0  0  0  0  0
  -22.3534  -14.5497   20.6636 O   0  0  0  0  0  0
  -24.6090  -31.8698   23.2117 C   0  0  0  0  0  0
  -25.8973  -32.4843   23.8409 C   0  0  1  0  0  0
  -27.2316  -27.4478   20.0858 C   0  0  0  0  0  0
  -25.5849  -33.8651   24.2351 N   0  0  0  0  0  0
  -23.3942  -30.4907   21.5575 C   0  0  2  0  0  0
  -24.8346  -28.9534   20.1178 C   0  0  0  0  0  0
  -22.7341  -29.4672   22.5071 C   0  0  0  0  0  0
  -18.0252  -28.1399   22.8490 C   0  0  0  0  0  0
  -24.1474  -36.7317   23.2646 C   0  0  0  0  0  0
  -25.9183  -30.8303   21.3626 C   0  0  0  0  0  0
  -25.9923  -29.4626   20.7195 C   0  0  0  0  0  0
  -27.1843  -28.7084   20.7150 C   0  0  0  0  0  0
  -26.0512  -26.9463   19.4813 C   0  0  0  0  0  0
  -24.8580  -27.6888   19.5030 C   0  0  0  0  0  0
  -23.5946  -29.8168   20.1735 C   0  0  0  0  0  0
  -25.4090  -36.3135   24.0364 C   0  0  1  0  0  0
  -20.5832  -28.3652   23.1369 C   0  0  2  0  0  0
  -20.6749  -26.9409   22.5430 C   0  0  0  0  0  0
  -19.5743  -26.6411   21.5213 C   0  0  0  0  0  0
  -18.1920  -26.7949   22.1620 C   0  0  0  0  0  0
  -19.1499  -28.8844   23.2929 C   0  0  0  0  0  0
  -18.9435  -30.1451   23.8930 C   0  0  0  0  0  0
  -17.6441  -30.6602   24.0585 C   0  0  0  0  0  0
  -25.9008  -34.9501   23.5164 C   0  0  0  0  0  0
  -16.5334  -29.9110   23.6336 C   0  0  0  0  0  0
  -16.7245  -28.6536   23.0329 C   0  0  0  0  0  0
  -26.4423  -31.6611   25.0720 C   0  0  0  0  0  0
  -25.3744  -31.3662   26.1503 C   0  0  0  0  0  0
  -27.0226  -30.3083   24.6015 C   0  0  0  0  0  0
  -27.6036  -32.4321   25.7420 C   0  0  0  0  0  0
  -27.5585  -37.1790   24.8468 C   0  0  0  0  0  0
  -21.4070  -29.3016   22.3768 N   0  0  0  0  0  0
  -26.4287  -37.3803   23.9432 N   0  0  0  0  0  0
  -24.6610  -31.0766   22.1040 N   0  0  0  0  0  0
  -23.4112  -28.8221   23.3120 O   0  0  0  0  0  0
  -28.4291  -26.7641   20.0920 O   0  0  0  0  0  0
  -26.5576  -34.8942   22.4727 O   0  0  0  0  0  0
  -23.5287  -32.1484   23.7493 O   0  0  0  0  0  0
  -29.0004  -22.6750   18.5580 C   0  0  0  0  0  0
  -29.7542  -23.2622   19.6083 C   0  0  0  0  0  0
  -29.2562  -21.3388   18.5206 C   0  0  0  0  0  0
  -30.4740  -22.2486   20.1903 C   0  0  0  0  0  0
  -30.1092  -18.0343   21.5802 C   0  0  0  0  0  0
  -29.9306  -17.4611   19.1242 C   0  0  0  0  0  0
  -30.7688  -16.6303   21.6178 C   0  0  0  0  0  0
  -29.2987  -16.1791   19.6793 C   0  0  0  0  0  0
  -29.8807  -18.6018   20.1545 C   0  0  0  0  0  0
  -28.6801  -20.3279   17.5833 C   0  0  0  0  0  0
  -31.4485  -22.3254   21.3311 C   0  0  0  0  0  0
  -31.0034  -25.4062   19.3418 C   0  0  0  0  0  0
  -30.8395  -19.7556   19.7426 C   0  0  0  0  0  0
  -28.4568  -25.4349   19.5763 C   0  0  0  0  0  0
  -29.7712  -24.7340   19.9689 C   0  0  1  0  0  0
  -30.1929  -21.0567   19.5148 N   0  0  0  0  0  0
  -30.0890  -15.6042   20.7866 N   0  0  0  0  0  0
  -31.4525  -12.3306   19.1218 H   0  0  0  0  0  0
  -30.2612  -11.2861   19.8456 H   0  0  0  0  0  0
  -29.7201  -11.7367   17.4286 H   0  0  0  0  0  0
  -29.6824  -13.4470   17.7385 H   0  0  0  0  0  0
  -27.7731  -11.3121   18.7588 H   0  0  0  0  0  0
  -27.3739  -12.6818   17.7604 H   0  0  0  0  0  0
  -27.6334  -14.2309   19.5370 H   0  0  0  0  0  0
  -28.6938  -12.0324   21.3788 H   0  0  0  0  0  0
  -28.4966  -13.7109   21.8161 H   0  0  0  0  0  0
  -25.2736   -9.5674   22.4728 H   0  0  0  0  0  0
  -23.9991   -7.4617   22.7463 H   0  0  0  0  0  0
  -21.0790   -8.8693   19.8960 H   0  0  0  0  0  0
  -22.3618  -10.9611   19.6120 H   0  0  0  0  0  0
  -21.2024   -7.6131   23.9727 H   0  0  0  0  0  0
  -21.1494   -6.0480   25.9084 H   0  0  0  0  0  0
  -22.0613   -2.7573   23.2835 H   0  0  0  0  0  0
  -22.4027  -11.9911   22.4827 H   0  0  0  0  0  0
  -21.1074  -13.1282   22.2524 H   0  0  0  0  0  0
  -24.6658  -15.8384   20.5334 H   0  0  0  0  0  0
  -26.2922  -15.6287   20.1351 H   0  0  0  0  0  0
  -26.7021  -32.5531   23.1151 H   0  0  0  0  0  0
  -24.9998  -33.9842   25.0494 H   0  0  0  0  0  0
  -22.6863  -31.3111   21.4213 H   0  0  0  0  0  0
  -23.3755  -35.9624   23.3305 H   0  0  0  0  0  0
  -24.3580  -36.8915   22.2057 H   0  0  0  0  0  0
  -23.7184  -37.6516   23.6641 H   0  0  0  0  0  0
  -26.0180  -31.5847   20.5816 H   0  0  0  0  0  0
  -26.8125  -30.8940   21.9722 H   0  0  0  0  0  0
  -28.0706  -29.0896   21.2041 H   0  0  0  0  0  0
  -26.0286  -25.9874   18.9885 H   0  0  0  0  0  0
  -23.9680  -27.2829   19.0402 H   0  0  0  0  0  0
  -23.6852  -30.5914   19.4111 H   0  0  0  0  0  0
  -22.7164  -29.2320   19.8876 H   0  0  0  0  0  0
  -25.1261  -36.2020   25.0855 H   0  0  0  0  0  0
  -20.9936  -28.3201   24.1482 H   0  0  0  0  0  0
  -20.5660  -26.2258   23.3586 H   0  0  0  0  0  0
  -21.6631  -26.7468   22.1231 H   0  0  0  0  0  0
  -19.6923  -25.6328   21.1222 H   0  0  0  0  0  0
  -19.6723  -27.3237   20.6759 H   0  0  0  0  0  0
  -17.4194  -26.6688   21.4013 H   0  0  0  0  0  0
  -18.0329  -26.0086   22.9015 H   0  0  0  0  0  0
  -19.7913  -30.7264   24.2308 H   0  0  0  0  0  0
  -17.5004  -31.6287   24.5173 H   0  0  0  0  0  0
  -15.5339  -30.3036   23.7653 H   0  0  0  0  0  0
  -15.8637  -28.0892   22.7013 H   0  0  0  0  0  0
  -24.5948  -30.6950   25.7876 H   0  0  0  0  0  0
  -24.8890  -32.2774   26.5012 H   0  0  0  0  0  0
  -25.8177  -30.8839   27.0229 H   0  0  0  0  0  0
  -26.2716  -29.6839   24.1164 H   0  0  0  0  0  0
  -27.4132  -29.7307   25.4401 H   0  0  0  0  0  0
  -27.8491  -30.4438   23.9041 H   0  0  0  0  0  0
  -27.2701  -33.3625   26.2018 H   0  0  0  0  0  0
  -28.3783  -32.6860   25.0179 H   0  0  0  0  0  0
  -28.0754  -31.8431   26.5291 H   0  0  0  0  0  0
  -28.2613  -38.0086   24.7548 H   0  0  0  0  0  0
  -28.1083  -36.2629   24.6253 H   0  0  0  0  0  0
  -27.2333  -37.1386   25.8881 H   0  0  0  0  0  0
  -20.9221  -29.8718   21.6987 H   0  0  0  0  0  0
  -26.0205  -38.2889   24.1451 H   0  0  0  0  0  0
  -28.3317  -23.1838   17.8763 H   0  0  0  0  0  0
  -30.6859  -18.7283   22.1908 H   0  0  0  0  0  0
  -29.1414  -17.9678   22.0800 H   0  0  0  0  0  0
  -29.4282  -17.7515   18.2034 H   0  0  0  0  0  0
  -30.9627  -17.2492   18.8396 H   0  0  0  0  0  0
  -30.8201  -16.2741   22.6479 H   0  0  0  0  0  0
  -31.8045  -16.7471   21.2894 H   0  0  0  0  0  0
  -29.2133  -15.4865   18.8421 H   0  0  0  0  0  0
  -28.2845  -16.3766   20.0266 H   0  0  0  0  0  0
  -28.8630  -18.9937   20.1572 H   0  0  0  0  0  0
  -28.0521  -20.8155   16.8354 H   0  0  0  0  0  0
  -28.0384  -19.6212   18.1097 H   0  0  0  0  0  0
  -29.4579  -19.7820   17.0513 H   0  0  0  0  0  0
  -31.5835  -23.3519   21.6732 H   0  0  0  0  0  0
  -32.4339  -21.9643   21.0400 H   0  0  0  0  0  0
  -31.1015  -21.7459   22.1869 H   0  0  0  0  0  0
  -31.9257  -24.9686   19.7252 H   0  0  0  0  0  0
  -31.0261  -26.4740   19.5589 H   0  0  0  0  0  0
  -31.0072  -25.2805   18.2581 H   0  0  0  0  0  0
  -31.3571  -19.5036   18.8149 H   0  0  0  0  0  0
  -31.6387  -19.8610   20.4728 H   0  0  0  0  0  0
  -27.6317  -24.8579   19.9994 H   0  0  0  0  0  0
  -28.3378  -25.4619   18.4908 H   0  0  0  0  0  0
  -29.8466  -24.8029   21.0533 H   0  0  0  0  0  0
  1 25  1  0  0  0
  1 30  2  0  0  0
  1 87  1  0  0  0
  2  3  1  0  0  0
  2 25  1  0  0  0
  2 88  1  0  0  0
  2 89  1  0  0  0
  3  4  1  0  0  0
  3 90  1  0  0  0
  3 91  1  0  0  0
  4  5  1  0  0  0
  4 92  1  0  0  0
  4 93  1  0  0  0
  5  6  1  0  0  0
  5 26  1  0  0  0
  5 94  1  0  0  0
  6 25  1  0  0  0
  6 95  1  0  0  0
  6 96  1  0  0  0
  7  8  2  0  0  0
  7 26  1  0  0  0
  7 29  1  0  0  0
  8  9  1  0  0  0
  8 22  1  0  0  0
  9 10  1  0  0  0
  9 27  2  0  0  0
 10 11  2  0  0  0
 10 15  1  0  0  0
 11 12  1  0  0  0
 11 97  1  0  0  0
 12 13  2  0  0  0
 12 98  1  0  0  0
 13 14  1  0  0  0
 13 31  1  0  0  0
 14 15  2  0  0  0
 14 99  1  0  0  0
 15100  1  0  0  0
 16 17  2  0  0  0
 16 21  1  0  0  0
 16 31  1  0  0  0
 17 18  1  0  0  0
 17101  1  0  0  0
 18 19  2  0  0  0
 18102  1  0  0  0
 19 20  1  0  0  0
 19 24  1  0  0  0
 20 21  2  0  0  0
 20103  1  0  0  0
 21 23  1  0  0  0
 22 28  1  0  0  0
 22 32  2  0  0  0
 26 27  1  0  0  0
 28104  1  0  0  0
 28105  1  0  0  0
 29106  1  0  0  0
 29107  1  0  0  0
 33 34  1  0  0  0
 33 66  1  0  0  0
 33 70  2  0  0  0
 34 36  1  0  0  0
 34 59  1  0  0  0
 34108  1  0  0  0
 35 44  2  0  0  0
 35 45  1  0  0  0
 35 68  1  0  0  0
 36 56  1  0  0  0
 36109  1  0  0  0
 37 39  1  0  0  0
 37 47  1  0  0  0
 37 66  1  0  0  0
 37110  1  0  0  0
 38 43  2  0  0  0
 38 46  1  0  0  0
 38 47  1  0  0  0
 39 64  1  0  0  0
 39 67  2  0  0  0
 40 52  1  0  0  0
 40 53  2  0  0  0
 40 58  1  0  0  0
 41111  1  0  0  0
 41112  1  0  0  0
 41113  1  0  0  0
 41 48  1  0  0  0
 42 43  1  0  0  0
 42 66  1  0  0  0
 42114  1  0  0  0
 42115  1  0  0  0
 43 44  1  0  0  0
 44116  1  0  0  0
 45 46  2  0  0  0
 45117  1  0  0  0
 46118  1  0  0  0
 47119  1  0  0  0
 47120  1  0  0  0
 48 56  1  0  0  0
 48 65  1  0  0  0
 48121  1  0  0  0
 49 50  1  0  0  0
 49 53  1  0  0  0
 49 64  1  0  0  0
 49122  1  0  0  0
 50 51  1  0  0  0
 50123  1  0  0  0
 50124  1  0  0  0
 51 52  1  0  0  0
 51125  1  0  0  0
 51126  1  0  0  0
 52127  1  0  0  0
 52128  1  0  0  0
 53 54  1  0  0  0
 54 55  2  0  0  0
 54129  1  0  0  0
 55 57  1  0  0  0
 55130  1  0  0  0
 56 69  2  0  0  0
 57 58  2  0  0  0
 57131  1  0  0  0
 58132  1  0  0  0
 59 60  1  0  0  0
 59 61  1  0  0  0
 59 62  1  0  0  0
 60133  1  0  0  0
 60134  1  0  0  0
 60135  1  0  0  0
 61136  1  0  0  0
 61137  1  0  0  0
 61138  1  0  0  0
 62139  1  0  0  0
 62140  1  0  0  0
 62141  1  0  0  0
 63 65  1  0  0  0
 63142  1  0  0  0
 63143  1  0  0  0
 63144  1  0  0  0
 64145  1  0  0  0
 65146  1  0  0  0
 68 84  1  0  0  0
 71 72  1  0  0  0
 71 73  2  0  0  0
 71147  1  0  0  0
 72 74  2  0  0  0
 72 85  1  0  0  0
 73 80  1  0  0  0
 73 86  1  0  0  0
 74 81  1  0  0  0
 74 86  1  0  0  0
 75 77  1  0  0  0
 75 79  1  0  0  0
 75148  1  0  0  0
 75149  1  0  0  0
 76 78  1  0  0  0
 76 79  1  0  0  0
 76150  1  0  0  0
 76151  1  0  0  0
 77 87  1  0  0  0
 77152  1  0  0  0
 77153  1  0  0  0
 78 87  1  0  0  0
 78154  1  0  0  0
 78155  1  0  0  0
 79 83  1  0  0  0
 79156  1  0  0  0
 80157  1  0  0  0
 80158  1  0  0  0
 80159  1  0  0  0
 81160  1  0  0  0
 81161  1  0  0  0
 81162  1  0  0  0
 82163  1  0  0  0
 82164  1  0  0  0
 82165  1  0  0  0
 82 85  1  0  0  0
 83 86  1  0  0  0
 83166  1  0  0  0
 83167  1  0  0  0
 84 85  1  0  0  0
 84168  1  0  0  0
 84169  1  0  0  0
 85170  1  0  0  0
M  ISO  4   1 100  68 101  84 101  87 100
M  END
> <chiral flag>
0

> <version>
0

> <s_m_source_file>
/data/baiqing/PycharmProjects/Reinvent-master-3.2/result/LINK_invent/BTK/process_docking_weight1_custom_sum_contain_oxygen_bond_distance_aromatic_linkinvent_7_9_3/rearranged_h_0116.sdf

> <i_m_source_file_index>
36

> <r_mmod_Potential_Energy-OPLS-2005>
201.017074584961

> <r_mmod_Stretch_Energy-OPLS-2005>
38.155834197998

> <r_mmod_Bend_Energy-OPLS-2005>
114.468879699707

> <r_mmod_Torsional_Energy-OPLS-2005>
358.215087890625

> <r_mmod_Improper_Torsional_Energy-OPLS-2005>
8.13759708404541

> <r_mmod_Van_der_Waal_Energy-OPLS-2005>
150.605545043945

> <r_mmod_Electrostatic_Energy-OPLS-2005>
-294.528076171875

> <r_mmod_Solvation_Energy-OPLS-2005>
-194.780166625977

> <b_mmod_Minimization_Converged-OPLS-2005>
0

> <r_mmod_RMS_Derivative-OPLS-2005>
4.3075122833252

$$$$
37
                    3D
 Structure written by MMmdl.
175183  0  0  1  0            999 V2000
  -30.5915  -14.9109   20.4157 C   0  0  0  0  0  0
  -30.4493  -12.5563   19.5104 C   0  0  0  0  0  0
  -29.5392  -12.5446   18.2601 C   0  0  0  0  0  0
  -28.0639  -12.3456   18.6515 C   0  0  0  0  0  0
  -27.6451  -13.2453   19.8405 C   0  0  2  0  0  0
  -28.6948  -13.2555   20.9831 C   0  0  0  0  0  0
  -25.2542  -13.8157   20.5648 C   0  0  0  0  0  0
  -24.1869  -13.0386   20.9191 C   0  0  0  0  0  0
  -24.6480  -11.6902   20.8722 C   0  0  0  0  0  0
  -23.9113  -10.4301   21.0376 C   0  0  0  0  0  0
  -24.3667   -9.4233   21.9165 C   0  0  0  0  0  0
  -23.6328   -8.2272   22.0770 C   0  0  0  0  0  0
  -22.4313   -8.0273   21.3505 C   0  0  0  0  0  0
  -21.9970   -9.0274   20.4651 C   0  0  0  0  0  0
  -22.7278  -10.2147   20.3004 C   0  0  0  0  0  0
  -21.6883   -6.0746   22.5246 C   0  0  0  0  0  0
  -21.4029   -6.5638   23.8186 C   0  0  0  0  0  0
  -21.3700   -5.6775   24.9155 C   0  0  0  0  0  0
  -21.6061   -4.3041   24.7207 C   0  0  0  0  0  0
  -21.8829   -3.8156   23.4338 C   0  0  0  0  0  0
  -21.9223   -4.6970   22.3382 C   0  0  0  0  0  0
  -22.7873  -13.5200   21.1825 C   0  0  0  0  0  0
  -22.1654   -4.2140   21.0978 F   0  0  0  0  0  0
  -21.5669   -3.4516   25.7718 F   0  0  0  0  0  0
  -29.9909  -13.6495   20.4125 N   0  0  0  0  0  0
  -26.2976  -12.9399   20.3173 N   0  0  0  0  0  0
  -25.9421  -11.6534   20.5705 N   0  0  0  0  0  0
  -22.0482  -12.8229   22.0340 N   0  0  0  0  0  0
  -25.4221  -15.1905   20.4082 N   0  0  0  0  0  0
  -31.7391  -15.0065   19.9797 O   0  0  0  0  0  0
  -21.6629   -6.8894   21.4198 O   0  0  0  0  0  0
  -22.3575  -14.5449   20.6584 O   0  0  0  0  0  0
  -24.6418  -31.8435   23.1890 C   0  0  0  0  0  0
  -25.9202  -32.4657   23.8275 C   0  0  1  0  0  0
  -27.2233  -27.1481   20.1807 C   0  0  0  0  0  0
  -25.5967  -33.8490   24.2184 N   0  0  0  0  0  0
  -23.4444  -30.4639   21.5310 C   0  0  2  0  0  0
  -24.8945  -28.8735   20.1234 C   0  0  0  0  0  0
  -22.7536  -29.4596   22.4837 C   0  0  0  0  0  0
  -18.0300  -28.1384   22.8462 C   0  0  0  0  0  0
  -24.1488  -36.7246   23.2651 C   0  0  0  0  0  0
  -25.9968  -30.7177   21.3873 C   0  0  0  0  0  0
  -26.0681  -29.3263   20.7413 C   0  0  0  0  0  0
  -27.2347  -28.4810   20.7521 C   0  0  0  0  0  0
  -26.0226  -26.7781   19.5361 C   0  0  0  0  0  0
  -24.8792  -27.6087   19.5098 C   0  0  0  0  0  0
  -23.6719  -29.7788   20.1549 C   0  0  0  0  0  0
  -25.4119  -36.3011   24.0317 C   0  0  1  0  0  0
  -20.5921  -28.3731   23.1205 C   0  0  2  0  0  0
  -20.6786  -26.9441   22.5379 C   0  0  0  0  0  0
  -19.5762  -26.6374   21.5186 C   0  0  0  0  0  0
  -18.1943  -26.7936   22.1595 C   0  0  0  0  0  0
  -19.1554  -28.8860   23.2828 C   0  0  0  0  0  0
  -18.9484  -30.1436   23.8845 C   0  0  0  0  0  0
  -17.6489  -30.6593   24.0552 C   0  0  0  0  0  0
  -25.9078  -34.9380   23.5049 C   0  0  0  0  0  0
  -16.5379  -29.9089   23.6347 C   0  0  0  0  0  0
  -16.7282  -28.6512   23.0381 C   0  0  0  0  0  0
  -26.4530  -31.6551   25.0733 C   0  0  0  0  0  0
  -25.3730  -31.3758   26.1436 C   0  0  0  0  0  0
  -27.0430  -30.2958   24.6336 C   0  0  0  0  0  0
  -27.6058  -32.4337   25.7522 C   0  0  0  0  0  0
  -27.5563  -37.1784   24.8463 C   0  0  0  0  0  0
  -21.4237  -29.3070   22.3566 N   0  0  0  0  0  0
  -26.4258  -37.3734   23.9416 N   0  0  0  0  0  0
  -24.7137  -31.0345   22.0902 N   0  0  0  0  0  0
  -23.4186  -28.8168   23.3018 O   0  0  0  0  0  0
  -28.3149  -26.2190   20.1402 O   0  0  0  0  0  0
  -26.5668  -34.8904   22.4635 O   0  0  0  0  0  0
  -23.5546  -32.1293   23.7162 O   0  0  0  0  0  0
  -34.2505  -18.4398   21.7137 C   0  0  0  0  0  0
  -33.1628  -18.6910   22.7704 C   0  0  0  0  0  0
  -34.0041  -19.3557   20.5096 C   0  0  0  0  0  0
  -31.7572  -18.4156   22.1926 C   0  0  0  0  0  0
  -32.6222  -19.0637   19.8957 C   0  0  0  0  0  0
  -31.4672  -19.2496   20.9237 C   0  0  0  0  0  0
  -30.4098  -22.1487   19.1711 C   0  0  0  0  0  0
  -29.4220  -24.8892   21.8279 C   0  0  0  0  0  0
  -29.0115  -20.3740   20.4505 C   0  0  0  0  0  0
  -28.3030  -23.2745   20.1059 C   0  0  0  0  0  0
  -28.1117  -17.3907   19.6040 C   0  0  0  0  0  0
  -30.0542  -19.0404   20.2868 C   0  0  2  0  0  0
  -29.4074  -22.0086   20.3231 C   0  0  2  0  0  0
  -29.6109  -17.4252   19.9589 C   0  0  1  0  0  0
  -28.2973  -24.8183   20.7958 C   0  0  2  0  0  0
  -29.8599  -16.0762   20.7358 N   0  0  0  0  0  0
  -27.8210  -18.0684   18.4019 O   0  0  0  0  0  0
  -31.4900  -12.6806   19.2038 H   0  0  0  0  0  0
  -30.4092  -11.5946   20.0250 H   0  0  0  0  0  0
  -29.8553  -11.7631   17.5652 H   0  0  0  0  0  0
  -29.6442  -13.4911   17.7308 H   0  0  0  0  0  0
  -27.9306  -11.2968   18.9091 H   0  0  0  0  0  0
  -27.4193  -12.5286   17.7913 H   0  0  0  0  0  0
  -27.6094  -14.2483   19.4198 H   0  0  0  0  0  0
  -28.7811  -12.2724   21.4550 H   0  0  0  0  0  0
  -28.4026  -13.9528   21.7704 H   0  0  0  0  0  0
  -25.2832   -9.5721   22.4747 H   0  0  0  0  0  0
  -24.0046   -7.4698   22.7512 H   0  0  0  0  0  0
  -21.0905   -8.8802   19.8994 H   0  0  0  0  0  0
  -22.3737  -10.9683   19.6128 H   0  0  0  0  0  0
  -21.1940   -7.6126   23.9687 H   0  0  0  0  0  0
  -21.1508   -6.0492   25.9060 H   0  0  0  0  0  0
  -22.0571   -2.7606   23.2808 H   0  0  0  0  0  0
  -22.4099  -11.9956   22.4833 H   0  0  0  0  0  0
  -21.1089  -13.1310   22.2433 H   0  0  0  0  0  0
  -24.6410  -15.8304   20.4895 H   0  0  0  0  0  0
  -26.2460  -15.6097   19.9996 H   0  0  0  0  0  0
  -26.7264  -32.5289   23.1006 H   0  0  0  0  0  0
  -25.0079  -33.9582   25.0298 H   0  0  0  0  0  0
  -22.7471  -31.2898   21.3676 H   0  0  0  0  0  0
  -23.3751  -35.9574   23.3280 H   0  0  0  0  0  0
  -24.3561  -36.8907   22.2065 H   0  0  0  0  0  0
  -23.7226  -37.6431   23.6712 H   0  0  0  0  0  0
  -26.1553  -31.4640   20.6084 H   0  0  0  0  0  0
  -26.8652  -30.7698   22.0324 H   0  0  0  0  0  0
  -28.1352  -28.8233   21.2450 H   0  0  0  0  0  0
  -25.9659  -25.8104   19.0594 H   0  0  0  0  0  0
  -23.9809  -27.2567   19.0237 H   0  0  0  0  0  0
  -23.8139  -30.5419   19.3878 H   0  0  0  0  0  0
  -22.7852  -29.2206   19.8471 H   0  0  0  0  0  0
  -25.1317  -36.1821   25.0806 H   0  0  0  0  0  0
  -20.9991  -28.3315   24.1338 H   0  0  0  0  0  0
  -20.5629  -26.2375   23.3606 H   0  0  0  0  0  0
  -21.6659  -26.7434   22.1205 H   0  0  0  0  0  0
  -19.6959  -25.6270   21.1244 H   0  0  0  0  0  0
  -19.6711  -27.3141   20.6683 H   0  0  0  0  0  0
  -17.4231  -26.6628   21.4004 H   0  0  0  0  0  0
  -18.0382  -26.0058   22.8962 H   0  0  0  0  0  0
  -19.7969  -30.7239   24.2223 H   0  0  0  0  0  0
  -17.5082  -31.6279   24.5143 H   0  0  0  0  0  0
  -15.5386  -30.3015   23.7694 H   0  0  0  0  0  0
  -15.8676  -28.0829   22.7150 H   0  0  0  0  0  0
  -24.5842  -30.7180   25.7750 H   0  0  0  0  0  0
  -24.9010  -32.2966   26.4896 H   0  0  0  0  0  0
  -25.8007  -30.8877   27.0194 H   0  0  0  0  0  0
  -26.3074  -29.6644   24.1334 H   0  0  0  0  0  0
  -27.4019  -29.7293   25.4935 H   0  0  0  0  0  0
  -27.8977  -30.4194   23.9677 H   0  0  0  0  0  0
  -27.2617  -33.3618   26.2093 H   0  0  0  0  0  0
  -28.3878  -32.6918   25.0375 H   0  0  0  0  0  0
  -28.0704  -31.8472   26.5443 H   0  0  0  0  0  0
  -28.2577  -38.0087   24.7515 H   0  0  0  0  0  0
  -28.1050  -36.2621   24.6278 H   0  0  0  0  0  0
  -27.2285  -37.1401   25.8862 H   0  0  0  0  0  0
  -20.9443  -29.8759   21.6714 H   0  0  0  0  0  0
  -26.0124  -38.2794   24.1436 H   0  0  0  0  0  0
  -34.2274  -17.3994   21.3890 H   0  0  0  0  0  0
  -35.2491  -18.6023   22.1248 H   0  0  0  0  0  0
  -33.2200  -19.7262   23.1073 H   0  0  0  0  0  0
  -33.3424  -18.0694   23.6520 H   0  0  0  0  0  0
  -34.7946  -19.2230   19.7674 H   0  0  0  0  0  0
  -34.0530  -20.4031   20.8191 H   0  0  0  0  0  0
  -31.0068  -18.5976   22.9633 H   0  0  0  0  0  0
  -31.7085  -17.3575   21.9564 H   0  0  0  0  0  0
  -32.6148  -18.0468   19.5082 H   0  0  0  0  0  0
  -32.4883  -19.7013   19.0214 H   0  0  0  0  0  0
  -31.5098  -20.2941   21.2291 H   0  0  0  0  0  0
  -31.2536  -21.4743   19.2807 H   0  0  0  0  0  0
  -30.8257  -23.1526   19.1072 H   0  0  0  0  0  0
  -29.9223  -21.9238   18.2231 H   0  0  0  0  0  0
  -29.4509  -23.9951   22.4461 H   0  0  0  0  0  0
  -29.3024  -25.7373   22.5019 H   0  0  0  0  0  0
  -30.3853  -24.9788   21.3292 H   0  0  0  0  0  0
  -28.4955  -20.2568   21.4005 H   0  0  0  0  0  0
  -28.2266  -20.2444   19.7086 H   0  0  0  0  0  0
  -27.3431  -22.8476   20.4062 H   0  0  0  0  0  0
  -28.1662  -23.4202   19.0332 H   0  0  0  0  0  0
  -27.5034  -17.7765   20.4280 H   0  0  0  0  0  0
  -27.7779  -16.3699   19.4457 H   0  0  0  0  0  0
  -30.2800  -19.2983   19.2529 H   0  0  0  0  0  0
  -29.9600  -22.2212   21.2374 H   0  0  0  0  0  0
  -30.1479  -17.1986   19.0328 H   0  0  0  0  0  0
  -27.3760  -24.8310   21.3829 H   0  0  0  0  0  0
  -29.0792  -15.8425   21.3341 H   0  0  0  0  0  0
  -26.8906  -18.2725   18.4105 H   0  0  0  0  0  0
  1 25  1  0  0  0
  1 30  2  0  0  0
  1 86  1  0  0  0
  2  3  1  0  0  0
  2 25  1  0  0  0
  2 88  1  0  0  0
  2 89  1  0  0  0
  3  4  1  0  0  0
  3 90  1  0  0  0
  3 91  1  0  0  0
  4  5  1  0  0  0
  4 92  1  0  0  0
  4 93  1  0  0  0
  5  6  1  0  0  0
  5 26  1  0  0  0
  5 94  1  0  0  0
  6 25  1  0  0  0
  6 95  1  0  0  0
  6 96  1  0  0  0
  7  8  2  0  0  0
  7 26  1  0  0  0
  7 29  1  0  0  0
  8  9  1  0  0  0
  8 22  1  0  0  0
  9 10  1  0  0  0
  9 27  2  0  0  0
 10 11  2  0  0  0
 10 15  1  0  0  0
 11 12  1  0  0  0
 11 97  1  0  0  0
 12 13  2  0  0  0
 12 98  1  0  0  0
 13 14  1  0  0  0
 13 31  1  0  0  0
 14 15  2  0  0  0
 14 99  1  0  0  0
 15100  1  0  0  0
 16 17  2  0  0  0
 16 21  1  0  0  0
 16 31  1  0  0  0
 17 18  1  0  0  0
 17101  1  0  0  0
 18 19  2  0  0  0
 18102  1  0  0  0
 19 20  1  0  0  0
 19 24  1  0  0  0
 20 21  2  0  0  0
 20103  1  0  0  0
 21 23  1  0  0  0
 22 28  1  0  0  0
 22 32  2  0  0  0
 26 27  1  0  0  0
 28104  1  0  0  0
 28105  1  0  0  0
 29106  1  0  0  0
 29107  1  0  0  0
 33 34  1  0  0  0
 33 66  1  0  0  0
 33 70  2  0  0  0
 34 36  1  0  0  0
 34 59  1  0  0  0
 34108  1  0  0  0
 35 44  2  0  0  0
 35 45  1  0  0  0
 35 68  1  0  0  0
 36 56  1  0  0  0
 36109  1  0  0  0
 37 39  1  0  0  0
 37 47  1  0  0  0
 37 66  1  0  0  0
 37110  1  0  0  0
 38 43  2  0  0  0
 38 46  1  0  0  0
 38 47  1  0  0  0
 39 64  1  0  0  0
 39 67  2  0  0  0
 40 52  1  0  0  0
 40 53  2  0  0  0
 40 58  1  0  0  0
 41111  1  0  0  0
 41112  1  0  0  0
 41113  1  0  0  0
 41 48  1  0  0  0
 42 43  1  0  0  0
 42 66  1  0  0  0
 42114  1  0  0  0
 42115  1  0  0  0
 43 44  1  0  0  0
 44116  1  0  0  0
 45 46  2  0  0  0
 45117  1  0  0  0
 46118  1  0  0  0
 47119  1  0  0  0
 47120  1  0  0  0
 48 56  1  0  0  0
 48 65  1  0  0  0
 48121  1  0  0  0
 49 50  1  0  0  0
 49 53  1  0  0  0
 49 64  1  0  0  0
 49122  1  0  0  0
 50 51  1  0  0  0
 50123  1  0  0  0
 50124  1  0  0  0
 51 52  1  0  0  0
 51125  1  0  0  0
 51126  1  0  0  0
 52127  1  0  0  0
 52128  1  0  0  0
 53 54  1  0  0  0
 54 55  2  0  0  0
 54129  1  0  0  0
 55 57  1  0  0  0
 55130  1  0  0  0
 56 69  2  0  0  0
 57 58  2  0  0  0
 57131  1  0  0  0
 58132  1  0  0  0
 59 60  1  0  0  0
 59 61  1  0  0  0
 59 62  1  0  0  0
 60133  1  0  0  0
 60134  1  0  0  0
 60135  1  0  0  0
 61136  1  0  0  0
 61137  1  0  0  0
 61138  1  0  0  0
 62139  1  0  0  0
 62140  1  0  0  0
 62141  1  0  0  0
 63 65  1  0  0  0
 63142  1  0  0  0
 63143  1  0  0  0
 63144  1  0  0  0
 64145  1  0  0  0
 65146  1  0  0  0
 68 85  1  0  0  0
 71 72  1  0  0  0
 71 73  1  0  0  0
 71147  1  0  0  0
 71148  1  0  0  0
 72 74  1  0  0  0
 72149  1  0  0  0
 72150  1  0  0  0
 73 75  1  0  0  0
 73151  1  0  0  0
 73152  1  0  0  0
 74153  1  0  0  0
 74154  1  0  0  0
 74 76  1  0  0  0
 75 76  1  0  0  0
 75155  1  0  0  0
 75156  1  0  0  0
 76 82  1  0  0  0
 76157  1  0  0  0
 77158  1  0  0  0
 77159  1  0  0  0
 77160  1  0  0  0
 77 83  1  0  0  0
 78161  1  0  0  0
 78162  1  0  0  0
 78163  1  0  0  0
 78 85  1  0  0  0
 79 83  1  0  0  0
 79164  1  0  0  0
 79165  1  0  0  0
 79 82  1  0  0  0
 80 83  1  0  0  0
 80 85  1  0  0  0
 80166  1  0  0  0
 80167  1  0  0  0
 81 87  1  0  0  0
 81168  1  0  0  0
 81169  1  0  0  0
 81 84  1  0  0  0
 82 84  1  0  0  0
 82170  1  0  0  0
 83171  1  0  0  0
 84 86  1  0  0  0
 84172  1  0  0  0
 85173  1  0  0  0
 86174  1  0  0  0
 87175  1  0  0  0
M  ISO  4   1 100  68 101  85 101  86 100
M  END
> <chiral flag>
0

> <version>
0

> <s_m_source_file>
/data/baiqing/PycharmProjects/Reinvent-master-3.2/result/LINK_invent/BTK/process_docking_weight1_custom_sum_contain_oxygen_bond_distance_aromatic_linkinvent_7_9_3/rearranged_h_0116.sdf

> <i_m_source_file_index>
37

> <r_mmod_Potential_Energy-OPLS-2005>
651.461975097656

> <r_mmod_Stretch_Energy-OPLS-2005>
278.895812988281

> <r_mmod_Bend_Energy-OPLS-2005>
358.416442871094

> <r_mmod_Torsional_Energy-OPLS-2005>
342.465881347656

> <r_mmod_Improper_Torsional_Energy-OPLS-2005>
6.43570899963379

> <r_mmod_Van_der_Waal_Energy-OPLS-2005>
108.441444396973

> <r_mmod_Electrostatic_Energy-OPLS-2005>
-399.263305664062

> <r_mmod_Solvation_Energy-OPLS-2005>
-210.092727661133

> <b_mmod_Minimization_Converged-OPLS-2005>
0

> <r_mmod_RMS_Derivative-OPLS-2005>
7.69229221343994

$$$$
38
                    3D
 Structure written by MMmdl.
148156  0  0  1  0            999 V2000
  -30.3960  -15.3971   20.3508 C   0  0  0  0  0  0
  -30.4327  -12.8985   19.5452 C   0  0  0  0  0  0
  -29.5433  -12.6085   18.3067 C   0  0  0  0  0  0
  -28.0980  -12.3061   18.7326 C   0  0  0  0  0  0
  -27.6071  -13.2889   19.8227 C   0  0  2  0  0  0
  -28.6322  -13.5195   20.9560 C   0  0  0  0  0  0
  -25.2375  -13.8267   20.5770 C   0  0  0  0  0  0
  -24.1736  -13.0444   20.9264 C   0  0  0  0  0  0
  -24.6404  -11.6942   20.8757 C   0  0  0  0  0  0
  -23.9102  -10.4299   21.0400 C   0  0  0  0  0  0
  -24.3641   -9.4215   21.9183 C   0  0  0  0  0  0
  -23.6310   -8.2250   22.0755 C   0  0  0  0  0  0
  -22.4290   -8.0285   21.3545 C   0  0  0  0  0  0
  -21.9936   -9.0259   20.4643 C   0  0  0  0  0  0
  -22.7270  -10.2138   20.3053 C   0  0  0  0  0  0
  -21.6859   -6.0739   22.5284 C   0  0  0  0  0  0
  -21.4012   -6.5643   23.8216 C   0  0  0  0  0  0
  -21.3662   -5.6795   24.9180 C   0  0  0  0  0  0
  -21.6046   -4.3058   24.7230 C   0  0  0  0  0  0
  -21.8819   -3.8150   23.4353 C   0  0  0  0  0  0
  -21.9197   -4.6967   22.3409 C   0  0  0  0  0  0
  -22.7752  -13.5189   21.1913 C   0  0  0  0  0  0
  -22.1666   -4.2153   21.0984 F   0  0  0  0  0  0
  -21.5632   -3.4542   25.7742 F   0  0  0  0  0  0
  -29.8504  -14.0646   20.3280 N   0  0  0  0  0  0
  -26.2806  -12.9563   20.3227 N   0  0  0  0  0  0
  -25.9347  -11.6653   20.5707 N   0  0  0  0  0  0
  -22.0416  -12.8156   22.0455 N   0  0  0  0  0  0
  -25.4020  -15.2006   20.4222 N   0  0  0  0  0  0
  -31.6130  -15.3732   20.1059 O   0  0  0  0  0  0
  -21.6648   -6.8885   21.4247 O   0  0  0  0  0  0
  -22.3436  -14.5497   20.6767 O   0  0  0  0  0  0
  -24.6713  -31.8147   23.1629 C   0  0  0  0  0  0
  -25.9358  -32.4542   23.8123 C   0  0  1  0  0  0
  -27.2205  -26.8362   20.1915 C   0  0  0  0  0  0
  -25.5994  -33.8360   24.2029 N   0  0  0  0  0  0
  -23.4900  -30.4225   21.5139 C   0  0  2  0  0  0
  -24.9468  -28.7945   20.1087 C   0  0  0  0  0  0
  -22.7707  -29.4396   22.4751 C   0  0  0  0  0  0
  -18.0333  -28.1423   22.8468 C   0  0  0  0  0  0
  -24.1494  -36.7179   23.2648 C   0  0  0  0  0  0
  -26.0643  -30.5881   21.4108 C   0  0  0  0  0  0
  -26.1304  -29.1689   20.7562 C   0  0  0  0  0  0
  -27.2544  -28.2112   20.7764 C   0  0  0  0  0  0
  -26.0143  -26.6483   19.4735 C   0  0  0  0  0  0
  -24.9211  -27.5574   19.4451 C   0  0  0  0  0  0
  -23.7354  -29.7314   20.1427 C   0  0  0  0  0  0
  -25.4141  -36.2942   24.0293 C   0  0  1  0  0  0
  -20.5961  -28.3775   23.1172 C   0  0  2  0  0  0
  -20.6805  -26.9449   22.5407 C   0  0  0  0  0  0
  -19.5775  -26.6385   21.5223 C   0  0  0  0  0  0
  -18.1957  -26.7956   22.1627 C   0  0  0  0  0  0
  -19.1597  -28.8921   23.2804 C   0  0  0  0  0  0
  -18.9507  -30.1510   23.8842 C   0  0  0  0  0  0
  -17.6499  -30.6611   24.0557 C   0  0  0  0  0  0
  -25.9116  -34.9326   23.4991 C   0  0  0  0  0  0
  -16.5388  -29.9094   23.6352 C   0  0  0  0  0  0
  -16.7314  -28.6516   23.0371 C   0  0  0  0  0  0
  -26.4578  -31.6519   25.0688 C   0  0  0  0  0  0
  -25.3677  -31.3797   26.1326 C   0  0  0  0  0  0
  -27.0494  -30.2872   24.6499 C   0  0  0  0  0  0
  -27.6057  -32.4346   25.7493 C   0  0  0  0  0  0
  -27.5571  -37.1746   24.8469 C   0  0  0  0  0  0
  -21.4369  -29.3039   22.3499 N   0  0  0  0  0  0
  -26.4279  -37.3689   23.9411 N   0  0  0  0  0  0
  -24.7637  -30.9715   22.0818 N   0  0  0  0  0  0
  -23.4216  -28.7984   23.3039 O   0  0  0  0  0  0
  -28.1873  -25.6705   20.3170 O   0  0  0  0  0  0
  -26.5737  -34.8876   22.4593 O   0  0  0  0  0  0
  -23.5763  -32.1168   23.6661 O   0  0  0  0  0  0
  -28.9399  -20.6666   21.6933 C   0  0  0  0  0  0
  -28.9516  -21.2776   19.6707 C   0  0  0  0  0  0
  -29.2226  -20.0307   20.4201 C   0  0  0  0  0  0
  -28.5778  -22.0367   21.6575 C   0  0  0  0  0  0
  -29.8681  -18.3581   20.0543 C   0  0  0  0  0  0
  -27.9297  -24.1086   19.8375 C   0  0  0  0  0  0
  -28.2089  -22.9213   22.8145 C   0  0  0  0  0  0
  -28.5407  -22.5765   20.3576 N   0  0  0  0  0  0
  -29.6448  -16.7083   20.4496 N   0  0  0  0  0  0
  -28.2867  -22.2682   23.9741 F   0  0  0  0  0  0
  -29.0193  -23.9761   22.9013 F   0  0  0  0  0  0
  -26.9605  -23.3766   22.7022 F   0  0  0  0  0  0
  -31.4487  -13.1096   19.2104 H   0  0  0  0  0  0
  -30.5182  -12.0106   20.1736 H   0  0  0  0  0  0
  -29.9472  -11.7754   17.7305 H   0  0  0  0  0  0
  -29.5542  -13.4757   17.6446 H   0  0  0  0  0  0
  -28.0738  -11.2872   19.1202 H   0  0  0  0  0  0
  -27.4322  -12.3234   17.8687 H   0  0  0  0  0  0
  -27.5040  -14.2413   19.3011 H   0  0  0  0  0  0
  -28.8277  -12.6029   21.5141 H   0  0  0  0  0  0
  -28.2431  -14.2422   21.6745 H   0  0  0  0  0  0
  -25.2781   -9.5692   22.4766 H   0  0  0  0  0  0
  -24.0020   -7.4641   22.7476 H   0  0  0  0  0  0
  -21.0874   -8.8781   19.8939 H   0  0  0  0  0  0
  -22.3729  -10.9679   19.6165 H   0  0  0  0  0  0
  -21.1991   -7.6149   23.9721 H   0  0  0  0  0  0
  -21.1485   -6.0526   25.9085 H   0  0  0  0  0  0
  -22.0592   -2.7611   23.2854 H   0  0  0  0  0  0
  -22.4052  -11.9817   22.4824 H   0  0  0  0  0  0
  -21.1031  -13.1161   22.2667 H   0  0  0  0  0  0
  -24.6331  -15.8526   20.5344 H   0  0  0  0  0  0
  -26.2418  -15.6390   20.0676 H   0  0  0  0  0  0
  -26.7425  -32.5048   23.0830 H   0  0  0  0  0  0
  -25.0075  -33.9426   25.0137 H   0  0  0  0  0  0
  -22.8079  -31.2568   21.3362 H   0  0  0  0  0  0
  -23.3778  -35.9486   23.3279 H   0  0  0  0  0  0
  -24.3561  -36.8863   22.2067 H   0  0  0  0  0  0
  -23.7227  -37.6344   23.6730 H   0  0  0  0  0  0
  -26.2585  -31.3229   20.6283 H   0  0  0  0  0  0
  -26.9191  -30.6464   22.0721 H   0  0  0  0  0  0
  -28.1404  -28.4938   21.3273 H   0  0  0  0  0  0
  -25.8650  -25.7142   18.9538 H   0  0  0  0  0  0
  -24.0284  -27.2679   18.9081 H   0  0  0  0  0  0
  -23.8942  -30.4974   19.3830 H   0  0  0  0  0  0
  -22.8434  -29.1889   19.8240 H   0  0  0  0  0  0
  -25.1342  -36.1727   25.0783 H   0  0  0  0  0  0
  -21.0051  -28.3398   24.1295 H   0  0  0  0  0  0
  -20.5697  -26.2396   23.3658 H   0  0  0  0  0  0
  -21.6665  -26.7420   22.1207 H   0  0  0  0  0  0
  -19.6936  -25.6283   21.1285 H   0  0  0  0  0  0
  -19.6716  -27.3170   20.6729 H   0  0  0  0  0  0
  -17.4231  -26.6713   21.4026 H   0  0  0  0  0  0
  -18.0343  -26.0112   22.9032 H   0  0  0  0  0  0
  -19.7980  -30.7344   24.2186 H   0  0  0  0  0  0
  -17.5048  -31.6286   24.5169 H   0  0  0  0  0  0
  -15.5386  -30.2979   23.7710 H   0  0  0  0  0  0
  -15.8714  -28.0815   22.7121 H   0  0  0  0  0  0
  -24.5882  -30.7128   25.7624 H   0  0  0  0  0  0
  -24.8844  -32.3006   26.4593 H   0  0  0  0  0  0
  -25.7882  -30.9062   27.0207 H   0  0  0  0  0  0
  -26.3191  -29.6519   24.1477 H   0  0  0  0  0  0
  -27.3956  -29.7272   25.5196 H   0  0  0  0  0  0
  -27.9157  -30.4030   23.9986 H   0  0  0  0  0  0
  -27.2626  -33.3706   26.1910 H   0  0  0  0  0  0
  -28.3946  -32.6809   25.0376 H   0  0  0  0  0  0
  -28.0637  -31.8579   26.5540 H   0  0  0  0  0  0
  -28.2567  -38.0062   24.7525 H   0  0  0  0  0  0
  -28.1091  -36.2590   24.6293 H   0  0  0  0  0  0
  -27.2286  -37.1378   25.8870 H   0  0  0  0  0  0
  -20.9653  -29.8702   21.6584 H   0  0  0  0  0  0
  -26.0124  -38.2745   24.1421 H   0  0  0  0  0  0
  -29.0159  -20.1418   22.6359 H   0  0  0  0  0  0
  -29.0116  -21.3596   18.5932 H   0  0  0  0  0  0
  -30.9310  -18.4877   20.2618 H   0  0  0  0  0  0
  -29.8293  -18.3336   18.9649 H   0  0  0  0  0  0
  -26.8518  -23.9816   19.9283 H   0  0  0  0  0  0
  -28.1223  -24.1306   18.7642 H   0  0  0  0  0  0
  -28.6831  -16.5314   20.6999 H   0  0  0  0  0  0
  1 25  1  0  0  0
  1 30  2  0  0  0
  1 79  1  0  0  0
  2  3  1  0  0  0
  2 25  1  0  0  0
  2 83  1  0  0  0
  2 84  1  0  0  0
  3  4  1  0  0  0
  3 85  1  0  0  0
  3 86  1  0  0  0
  4  5  1  0  0  0
  4 87  1  0  0  0
  4 88  1  0  0  0
  5  6  1  0  0  0
  5 26  1  0  0  0
  5 89  1  0  0  0
  6 25  1  0  0  0
  6 90  1  0  0  0
  6 91  1  0  0  0
  7  8  2  0  0  0
  7 26  1  0  0  0
  7 29  1  0  0  0
  8  9  1  0  0  0
  8 22  1  0  0  0
  9 10  1  0  0  0
  9 27  2  0  0  0
 10 11  2  0  0  0
 10 15  1  0  0  0
 11 12  1  0  0  0
 11 92  1  0  0  0
 12 13  2  0  0  0
 12 93  1  0  0  0
 13 14  1  0  0  0
 13 31  1  0  0  0
 14 15  2  0  0  0
 14 94  1  0  0  0
 15 95  1  0  0  0
 16 17  2  0  0  0
 16 21  1  0  0  0
 16 31  1  0  0  0
 17 18  1  0  0  0
 17 96  1  0  0  0
 18 19  2  0  0  0
 18 97  1  0  0  0
 19 20  1  0  0  0
 19 24  1  0  0  0
 20 21  2  0  0  0
 20 98  1  0  0  0
 21 23  1  0  0  0
 22 28  1  0  0  0
 22 32  2  0  0  0
 26 27  1  0  0  0
 28 99  1  0  0  0
 28100  1  0  0  0
 29101  1  0  0  0
 29102  1  0  0  0
 33 34  1  0  0  0
 33 66  1  0  0  0
 33 70  2  0  0  0
 34 36  1  0  0  0
 34 59  1  0  0  0
 34103  1  0  0  0
 35 44  2  0  0  0
 35 45  1  0  0  0
 35 68  1  0  0  0
 36 56  1  0  0  0
 36104  1  0  0  0
 37 39  1  0  0  0
 37 47  1  0  0  0
 37 66  1  0  0  0
 37105  1  0  0  0
 38 43  2  0  0  0
 38 46  1  0  0  0
 38 47  1  0  0  0
 39 64  1  0  0  0
 39 67  2  0  0  0
 40 52  1  0  0  0
 40 53  2  0  0  0
 40 58  1  0  0  0
 41106  1  0  0  0
 41107  1  0  0  0
 41108  1  0  0  0
 41 48  1  0  0  0
 42 43  1  0  0  0
 42 66  1  0  0  0
 42109  1  0  0  0
 42110  1  0  0  0
 43 44  1  0  0  0
 44111  1  0  0  0
 45 46  2  0  0  0
 45112  1  0  0  0
 46113  1  0  0  0
 47114  1  0  0  0
 47115  1  0  0  0
 48 56  1  0  0  0
 48 65  1  0  0  0
 48116  1  0  0  0
 49 50  1  0  0  0
 49 53  1  0  0  0
 49 64  1  0  0  0
 49117  1  0  0  0
 50 51  1  0  0  0
 50118  1  0  0  0
 50119  1  0  0  0
 51 52  1  0  0  0
 51120  1  0  0  0
 51121  1  0  0  0
 52122  1  0  0  0
 52123  1  0  0  0
 53 54  1  0  0  0
 54 55  2  0  0  0
 54124  1  0  0  0
 55 57  1  0  0  0
 55125  1  0  0  0
 56 69  2  0  0  0
 57 58  2  0  0  0
 57126  1  0  0  0
 58127  1  0  0  0
 59 60  1  0  0  0
 59 61  1  0  0  0
 59 62  1  0  0  0
 60128  1  0  0  0
 60129  1  0  0  0
 60130  1  0  0  0
 61131  1  0  0  0
 61132  1  0  0  0
 61133  1  0  0  0
 62134  1  0  0  0
 62135  1  0  0  0
 62136  1  0  0  0
 63 65  1  0  0  0
 63137  1  0  0  0
 63138  1  0  0  0
 63139  1  0  0  0
 64140  1  0  0  0
 65141  1  0  0  0
 68 76  1  0  0  0
 71 73  1  0  0  0
 71 74  2  0  0  0
 71142  1  0  0  0
 72 73  2  0  0  0
 72 78  1  0  0  0
 72143  1  0  0  0
 73 75  1  0  0  0
 74 77  1  0  0  0
 74 78  1  0  0  0
 75 79  1  0  0  0
 75144  1  0  0  0
 75145  1  0  0  0
 76 78  1  0  0  0
 76146  1  0  0  0
 76147  1  0  0  0
 77 80  1  0  0  0
 77 81  1  0  0  0
 77 82  1  0  0  0
 79148  1  0  0  0
M  ISO  4   1 100  68 101  76 101  79 100
M  END
> <chiral flag>
0

> <version>
0

> <s_m_source_file>
/data/baiqing/PycharmProjects/Reinvent-master-3.2/result/LINK_invent/BTK/process_docking_weight1_custom_sum_contain_oxygen_bond_distance_aromatic_linkinvent_7_9_3/rearranged_h_0116.sdf

> <i_m_source_file_index>
38

> <r_mmod_Potential_Energy-OPLS-2005>
1602.07385253906

> <r_mmod_Stretch_Energy-OPLS-2005>
721.021362304688

> <r_mmod_Bend_Energy-OPLS-2005>
514.332824707031

> <r_mmod_Torsional_Energy-OPLS-2005>
210.221923828125

> <r_mmod_Improper_Torsional_Energy-OPLS-2005>
7.13379192352295

> <r_mmod_Van_der_Waal_Energy-OPLS-2005>
107.246719360352

> <r_mmod_Electrostatic_Energy-OPLS-2005>
-350.762145996094

> <r_mmod_Solvation_Energy-OPLS-2005>
-216.605850219727

> <b_mmod_Minimization_Converged-OPLS-2005>
0

> <r_mmod_RMS_Derivative-OPLS-2005>
0.965591192245483

$$$$
39
                    3D
 Structure written by MMmdl.
149157  0  0  1  0            999 V2000
  -30.5364  -14.9723   20.4088 C   0  0  0  0  0  0
  -30.4373  -12.6046   19.4981 C   0  0  0  0  0  0
  -29.5208  -12.5270   18.2562 C   0  0  0  0  0  0
  -28.0522  -12.3204   18.6723 C   0  0  0  0  0  0
  -27.6259  -13.2541   19.8366 C   0  0  2  0  0  0
  -28.6688  -13.2949   20.9714 C   0  0  0  0  0  0
  -25.2421  -13.8230   20.5721 C   0  0  0  0  0  0
  -24.1751  -13.0444   20.9237 C   0  0  0  0  0  0
  -24.6392  -11.6936   20.8763 C   0  0  0  0  0  0
  -23.9086  -10.4302   21.0411 C   0  0  0  0  0  0
  -24.3635   -9.4215   21.9189 C   0  0  0  0  0  0
  -23.6301   -8.2254   22.0762 C   0  0  0  0  0  0
  -22.4282   -8.0286   21.3555 C   0  0  0  0  0  0
  -21.9930   -9.0263   20.4656 C   0  0  0  0  0  0
  -22.7259  -10.2139   20.3064 C   0  0  0  0  0  0
  -21.6854   -6.0744   22.5286 C   0  0  0  0  0  0
  -21.4012   -6.5645   23.8220 C   0  0  0  0  0  0
  -21.3656   -5.6792   24.9177 C   0  0  0  0  0  0
  -21.6046   -4.3057   24.7220 C   0  0  0  0  0  0
  -21.8816   -3.8156   23.4338 C   0  0  0  0  0  0
  -21.9191   -4.6975   22.3397 C   0  0  0  0  0  0
  -22.7762  -13.5196   21.1886 C   0  0  0  0  0  0
  -22.1657   -4.2162   21.0974 F   0  0  0  0  0  0
  -21.5634   -3.4541   25.7731 F   0  0  0  0  0  0
  -29.9382  -13.7121   20.3647 N   0  0  0  0  0  0
  -26.2862  -12.9484   20.3251 N   0  0  0  0  0  0
  -25.9329  -11.6609   20.5753 N   0  0  0  0  0  0
  -22.0408  -12.8203   22.0447 N   0  0  0  0  0  0
  -25.4055  -15.1962   20.4169 N   0  0  0  0  0  0
  -31.7466  -15.0197   20.1645 O   0  0  0  0  0  0
  -21.6645   -6.8883   21.4245 O   0  0  0  0  0  0
  -22.3438  -14.5495   20.6712 O   0  0  0  0  0  0
  -24.6473  -31.8406   23.1849 C   0  0  0  0  0  0
  -25.9241  -32.4668   23.8246 C   0  0  1  0  0  0
  -27.2123  -27.1095   20.1492 C   0  0  0  0  0  0
  -25.5981  -33.8476   24.2164 N   0  0  0  0  0  0
  -23.4505  -30.4610   21.5310 C   0  0  2  0  0  0
  -24.8981  -28.8828   20.1093 C   0  0  0  0  0  0
  -22.7577  -29.4548   22.4844 C   0  0  0  0  0  0
  -18.0309  -28.1408   22.8488 C   0  0  0  0  0  0
  -24.1486  -36.7249   23.2646 C   0  0  0  0  0  0
  -26.0087  -30.7075   21.3845 C   0  0  0  0  0  0
  -26.0786  -29.3160   20.7258 C   0  0  0  0  0  0
  -27.2367  -28.4466   20.7269 C   0  0  0  0  0  0
  -26.0039  -26.7829   19.4962 C   0  0  0  0  0  0
  -24.8750  -27.6301   19.4804 C   0  0  0  0  0  0
  -23.6775  -29.7895   20.1513 C   0  0  0  0  0  0
  -25.4120  -36.3020   24.0315 C   0  0  1  0  0  0
  -20.5925  -28.3734   23.1229 C   0  0  2  0  0  0
  -20.6792  -26.9430   22.5412 C   0  0  0  0  0  0
  -19.5761  -26.6391   21.5222 C   0  0  0  0  0  0
  -18.1943  -26.7947   22.1630 C   0  0  0  0  0  0
  -19.1571  -28.8888   23.2848 C   0  0  0  0  0  0
  -18.9485  -30.1480   23.8870 C   0  0  0  0  0  0
  -17.6487  -30.6605   24.0562 C   0  0  0  0  0  0
  -25.9080  -34.9396   23.5048 C   0  0  0  0  0  0
  -16.5375  -29.9099   23.6343 C   0  0  0  0  0  0
  -16.7292  -28.6519   23.0358 C   0  0  0  0  0  0
  -26.4541  -31.6548   25.0704 C   0  0  0  0  0  0
  -25.3729  -31.3760   26.1405 C   0  0  0  0  0  0
  -27.0410  -30.2937   24.6319 C   0  0  0  0  0  0
  -27.6045  -32.4337   25.7505 C   0  0  0  0  0  0
  -27.5564  -37.1778   24.8468 C   0  0  0  0  0  0
  -21.4268  -29.3051   22.3587 N   0  0  0  0  0  0
  -26.4274  -37.3743   23.9413 N   0  0  0  0  0  0
  -24.7223  -31.0244   22.0885 N   0  0  0  0  0  0
  -23.4204  -28.8093   23.3008 O   0  0  0  0  0  0
  -28.2576  -26.1086   20.2123 O   0  0  0  0  0  0
  -26.5663  -34.8906   22.4625 O   0  0  0  0  0  0
  -23.5587  -32.1298   23.7052 O   0  0  0  0  0  0
  -27.3556  -21.1859   20.1311 C   0  0  0  0  0  0
  -29.6178  -20.4690   20.3674 C   0  0  0  0  0  0
  -27.0277  -19.8048   20.1151 C   0  0  0  0  0  0
  -28.6883  -21.6261   20.2641 C   0  0  0  0  0  0
  -29.2264  -19.0336   20.3432 C   0  0  0  0  0  0
  -29.0324  -23.2553   20.3134 C   0  0  0  0  0  0
  -30.2021  -17.6973   20.4277 C   0  0  0  0  0  0
  -27.9710  -24.5659   20.0939 C   0  0  0  0  0  0
  -27.9083  -18.7705   20.2157 N   0  0  0  0  0  0
  -29.7757  -16.1734   20.5129 N   0  0  0  0  0  0
  -31.4699  -12.7655   19.1845 H   0  0  0  0  0  0
  -30.4361  -11.6586   20.0408 H   0  0  0  0  0  0
  -29.8403  -11.7183   17.5970 H   0  0  0  0  0  0
  -29.6113  -13.4467   17.6762 H   0  0  0  0  0  0
  -27.9413  -11.2793   18.9752 H   0  0  0  0  0  0
  -27.3937  -12.4588   17.8142 H   0  0  0  0  0  0
  -27.5823  -14.2555   19.4069 H   0  0  0  0  0  0
  -28.7598  -12.3218   21.4573 H   0  0  0  0  0  0
  -28.3666  -14.0043   21.7444 H   0  0  0  0  0  0
  -25.2777   -9.5687   22.4770 H   0  0  0  0  0  0
  -24.0005   -7.4642   22.7485 H   0  0  0  0  0  0
  -21.0869   -8.8779   19.8959 H   0  0  0  0  0  0
  -22.3717  -10.9677   19.6175 H   0  0  0  0  0  0
  -21.2010   -7.6154   23.9719 H   0  0  0  0  0  0
  -21.1478   -6.0532   25.9076 H   0  0  0  0  0  0
  -22.0601   -2.7621   23.2837 H   0  0  0  0  0  0
  -22.4005  -11.9872   22.4874 H   0  0  0  0  0  0
  -21.1009  -13.1227   22.2589 H   0  0  0  0  0  0
  -24.6358  -15.8416   20.5535 H   0  0  0  0  0  0
  -26.2463  -15.6507   20.0856 H   0  0  0  0  0  0
  -26.7302  -32.5252   23.0964 H   0  0  0  0  0  0
  -25.0100  -33.9576   25.0296 H   0  0  0  0  0  0
  -22.7564  -31.2886   21.3739 H   0  0  0  0  0  0
  -23.3747  -35.9579   23.3302 H   0  0  0  0  0  0
  -24.3577  -36.8894   22.2066 H   0  0  0  0  0  0
  -23.7242  -37.6442   23.6687 H   0  0  0  0  0  0
  -26.1709  -31.4609   20.6129 H   0  0  0  0  0  0
  -26.8764  -30.7560   22.0307 H   0  0  0  0  0  0
  -28.1351  -28.7747   21.2302 H   0  0  0  0  0  0
  -25.8955  -25.8269   19.0072 H   0  0  0  0  0  0
  -23.9731  -27.2911   18.9889 H   0  0  0  0  0  0
  -23.8173  -30.5619   19.3951 H   0  0  0  0  0  0
  -22.7893  -29.2377   19.8389 H   0  0  0  0  0  0
  -25.1303  -36.1835   25.0804 H   0  0  0  0  0  0
  -21.0017  -28.3331   24.1347 H   0  0  0  0  0  0
  -20.5700  -26.2340   23.3636 H   0  0  0  0  0  0
  -21.6649  -26.7447   22.1183 H   0  0  0  0  0  0
  -19.6919  -25.6297   21.1261 H   0  0  0  0  0  0
  -19.6687  -27.3186   20.6739 H   0  0  0  0  0  0
  -17.4205  -26.6698   21.4035 H   0  0  0  0  0  0
  -18.0324  -26.0101   22.9032 H   0  0  0  0  0  0
  -19.7958  -30.7309   24.2212 H   0  0  0  0  0  0
  -17.5037  -31.6274   24.5176 H   0  0  0  0  0  0
  -15.5368  -30.2988   23.7689 H   0  0  0  0  0  0
  -15.8692  -28.0831   22.7082 H   0  0  0  0  0  0
  -24.5913  -30.7092   25.7749 H   0  0  0  0  0  0
  -24.8921  -32.2955   26.4755 H   0  0  0  0  0  0
  -25.8033  -30.9003   27.0228 H   0  0  0  0  0  0
  -26.3040  -29.6645   24.1316 H   0  0  0  0  0  0
  -27.3992  -29.7253   25.4910 H   0  0  0  0  0  0
  -27.8957  -30.4150   23.9660 H   0  0  0  0  0  0
  -27.2601  -33.3656   26.1999 H   0  0  0  0  0  0
  -28.3902  -32.6874   25.0379 H   0  0  0  0  0  0
  -28.0655  -31.8531   26.5505 H   0  0  0  0  0  0
  -28.2567  -38.0080   24.7506 H   0  0  0  0  0  0
  -28.1069  -36.2617   24.6293 H   0  0  0  0  0  0
  -27.2293  -37.1420   25.8871 H   0  0  0  0  0  0
  -20.9482  -29.8770   21.6767 H   0  0  0  0  0  0
  -26.0137  -38.2804   24.1425 H   0  0  0  0  0  0
  -26.5575  -21.9105   20.0434 H   0  0  0  0  0  0
  -30.6722  -20.6875   20.4715 H   0  0  0  0  0  0
  -25.9926  -19.5146   20.0136 H   0  0  0  0  0  0
  -29.8363  -23.3930   19.5901 H   0  0  0  0  0  0
  -29.5061  -23.4092   21.2821 H   0  0  0  0  0  0
  -30.8565  -17.8648   21.2833 H   0  0  0  0  0  0
  -30.8601  -17.7719   19.5614 H   0  0  0  0  0  0
  -27.1380  -24.3800   20.7726 H   0  0  0  0  0  0
  -27.5636  -24.4222   19.0942 H   0  0  0  0  0  0
  -28.7833  -16.0470   20.6383 H   0  0  0  0  0  0
  1 25  1  0  0  0
  1 30  2  0  0  0
  1 80  1  0  0  0
  2  3  1  0  0  0
  2 25  1  0  0  0
  2 81  1  0  0  0
  2 82  1  0  0  0
  3  4  1  0  0  0
  3 83  1  0  0  0
  3 84  1  0  0  0
  4  5  1  0  0  0
  4 85  1  0  0  0
  4 86  1  0  0  0
  5  6  1  0  0  0
  5 26  1  0  0  0
  5 87  1  0  0  0
  6 25  1  0  0  0
  6 88  1  0  0  0
  6 89  1  0  0  0
  7  8  2  0  0  0
  7 26  1  0  0  0
  7 29  1  0  0  0
  8  9  1  0  0  0
  8 22  1  0  0  0
  9 10  1  0  0  0
  9 27  2  0  0  0
 10 11  2  0  0  0
 10 15  1  0  0  0
 11 12  1  0  0  0
 11 90  1  0  0  0
 12 13  2  0  0  0
 12 91  1  0  0  0
 13 14  1  0  0  0
 13 31  1  0  0  0
 14 15  2  0  0  0
 14 92  1  0  0  0
 15 93  1  0  0  0
 16 17  2  0  0  0
 16 21  1  0  0  0
 16 31  1  0  0  0
 17 18  1  0  0  0
 17 94  1  0  0  0
 18 19  2  0  0  0
 18 95  1  0  0  0
 19 20  1  0  0  0
 19 24  1  0  0  0
 20 21  2  0  0  0
 20 96  1  0  0  0
 21 23  1  0  0  0
 22 28  1  0  0  0
 22 32  2  0  0  0
 26 27  1  0  0  0
 28 97  1  0  0  0
 28 98  1  0  0  0
 29 99  1  0  0  0
 29100  1  0  0  0
 33 34  1  0  0  0
 33 66  1  0  0  0
 33 70  2  0  0  0
 34 36  1  0  0  0
 34 59  1  0  0  0
 34101  1  0  0  0
 35 44  2  0  0  0
 35 45  1  0  0  0
 35 68  1  0  0  0
 36 56  1  0  0  0
 36102  1  0  0  0
 37 39  1  0  0  0
 37 47  1  0  0  0
 37 66  1  0  0  0
 37103  1  0  0  0
 38 43  2  0  0  0
 38 46  1  0  0  0
 38 47  1  0  0  0
 39 64  1  0  0  0
 39 67  2  0  0  0
 40 52  1  0  0  0
 40 53  2  0  0  0
 40 58  1  0  0  0
 41104  1  0  0  0
 41105  1  0  0  0
 41106  1  0  0  0
 41 48  1  0  0  0
 42 43  1  0  0  0
 42 66  1  0  0  0
 42107  1  0  0  0
 42108  1  0  0  0
 43 44  1  0  0  0
 44109  1  0  0  0
 45 46  2  0  0  0
 45110  1  0  0  0
 46111  1  0  0  0
 47112  1  0  0  0
 47113  1  0  0  0
 48 56  1  0  0  0
 48 65  1  0  0  0
 48114  1  0  0  0
 49 50  1  0  0  0
 49 53  1  0  0  0
 49 64  1  0  0  0
 49115  1  0  0  0
 50 51  1  0  0  0
 50116  1  0  0  0
 50117  1  0  0  0
 51 52  1  0  0  0
 51118  1  0  0  0
 51119  1  0  0  0
 52120  1  0  0  0
 52121  1  0  0  0
 53 54  1  0  0  0
 54 55  2  0  0  0
 54122  1  0  0  0
 55 57  1  0  0  0
 55123  1  0  0  0
 56 69  2  0  0  0
 57 58  2  0  0  0
 57124  1  0  0  0
 58125  1  0  0  0
 59 60  1  0  0  0
 59 61  1  0  0  0
 59 62  1  0  0  0
 60126  1  0  0  0
 60127  1  0  0  0
 60128  1  0  0  0
 61129  1  0  0  0
 61130  1  0  0  0
 61131  1  0  0  0
 62132  1  0  0  0
 62133  1  0  0  0
 62134  1  0  0  0
 63 65  1  0  0  0
 63135  1  0  0  0
 63136  1  0  0  0
 63137  1  0  0  0
 64138  1  0  0  0
 65139  1  0  0  0
 68 78  1  0  0  0
 71 73  2  0  0  0
 71 74  1  0  0  0
 71140  1  0  0  0
 72 74  2  0  0  0
 72 75  1  0  0  0
 72141  1  0  0  0
 73 79  1  0  0  0
 73142  1  0  0  0
 74 76  1  0  0  0
 75 77  1  0  0  0
 75 79  2  0  0  0
 76 78  1  0  0  0
 76143  1  0  0  0
 76144  1  0  0  0
 77 80  1  0  0  0
 77145  1  0  0  0
 77146  1  0  0  0
 78147  1  0  0  0
 78148  1  0  0  0
 80149  1  0  0  0
M  ISO  4   1 100  68 101  78 101  80 100
M  END
> <chiral flag>
0

> <version>
0

> <s_m_source_file>
/data/baiqing/PycharmProjects/Reinvent-master-3.2/result/LINK_invent/BTK/process_docking_weight1_custom_sum_contain_oxygen_bond_distance_aromatic_linkinvent_7_9_3/rearranged_h_0116.sdf

> <i_m_source_file_index>
39

> <r_mmod_Potential_Energy-OPLS-2005>
246.986236572266

> <r_mmod_Stretch_Energy-OPLS-2005>
270.390960693359

> <r_mmod_Bend_Energy-OPLS-2005>
247.276931762695

> <r_mmod_Torsional_Energy-OPLS-2005>
200.61848449707

> <r_mmod_Improper_Torsional_Energy-OPLS-2005>
4.32073163986206

> <r_mmod_Van_der_Waal_Energy-OPLS-2005>
130.826309204102

> <r_mmod_Electrostatic_Energy-OPLS-2005>
-599.4658203125

> <r_mmod_Solvation_Energy-OPLS-2005>
-220.447845458984

> <b_mmod_Minimization_Converged-OPLS-2005>
0

> <r_mmod_RMS_Derivative-OPLS-2005>
1.88248288631439

$$$$
40
                    3D
 Structure written by MMmdl.
181189  0  0  1  0            999 V2000
  -30.5255  -14.6283   20.5652 C   0  0  0  0  0  0
  -30.4564  -12.4270   19.4329 C   0  0  0  0  0  0
  -29.5229  -12.5567   18.2149 C   0  0  0  0  0  0
  -28.0354  -12.3395   18.6054 C   0  0  0  0  0  0
  -27.6504  -13.1457   19.8821 C   0  0  2  0  0  0
  -28.6923  -12.9056   21.0103 C   0  0  0  0  0  0
  -25.2353  -13.7773   20.5205 C   0  0  0  0  0  0
  -24.1726  -13.0149   20.9184 C   0  0  0  0  0  0
  -24.6354  -11.6651   20.8860 C   0  0  0  0  0  0
  -23.9017  -10.4085   21.0494 C   0  0  0  0  0  0
  -24.3531   -9.4011   21.9290 C   0  0  0  0  0  0
  -23.6211   -8.2028   22.0768 C   0  0  0  0  0  0
  -22.4214   -8.0138   21.3520 C   0  0  0  0  0  0
  -21.9874   -9.0103   20.4638 C   0  0  0  0  0  0
  -22.7177  -10.1987   20.3124 C   0  0  0  0  0  0
  -21.6770   -6.0676   22.5281 C   0  0  0  0  0  0
  -21.3995   -6.5623   23.8223 C   0  0  0  0  0  0
  -21.3633   -5.6777   24.9182 C   0  0  0  0  0  0
  -21.6052   -4.3053   24.7235 C   0  0  0  0  0  0
  -21.8801   -3.8122   23.4363 C   0  0  0  0  0  0
  -21.9189   -4.6922   22.3415 C   0  0  0  0  0  0
  -22.7844  -13.5028   21.1819 C   0  0  0  0  0  0
  -22.1671   -4.2145   21.0989 F   0  0  0  0  0  0
  -21.5631   -3.4533   25.7753 F   0  0  0  0  0  0
  -29.9680  -13.3799   20.4672 N   0  0  0  0  0  0
  -26.2878  -12.8870   20.3261 N   0  0  0  0  0  0
  -25.9302  -11.6128   20.5967 N   0  0  0  0  0  0
  -22.0517  -12.8118   22.0469 N   0  0  0  0  0  0
  -25.3907  -15.1234   20.2791 N   0  0  0  0  0  0
  -31.6434  -14.7520   20.0424 O   0  0  0  0  0  0
  -21.6503   -6.8788   21.4242 O   0  0  0  0  0  0
  -22.3453  -14.5199   20.6533 O   0  0  0  0  0  0
  -24.6105  -31.8803   23.2123 C   0  0  0  0  0  0
  -25.9047  -32.4858   23.8391 C   0  0  1  0  0  0
  -27.0996  -27.3052   20.1080 C   0  0  0  0  0  0
  -25.5913  -33.8716   24.2369 N   0  0  0  0  0  0
  -23.4020  -30.5236   21.5566 C   0  0  2  0  0  0
  -24.8213  -28.9881   20.1003 C   0  0  0  0  0  0
  -22.7425  -29.4771   22.4824 C   0  0  0  0  0  0
  -18.0381  -28.1250   22.8632 C   0  0  0  0  0  0
  -24.1464  -36.7299   23.2669 C   0  0  0  0  0  0
  -25.9525  -30.7945   21.3865 C   0  0  0  0  0  0
  -25.9961  -29.4335   20.7127 C   0  0  0  0  0  0
  -27.1538  -28.6005   20.6889 C   0  0  0  0  0  0
  -25.8924  -26.9127   19.4932 C   0  0  0  0  0  0
  -24.7712  -27.7440   19.4732 C   0  0  0  0  0  0
  -23.6130  -29.8918   20.1606 C   0  0  0  0  0  0
  -25.4085  -36.3150   24.0348 C   0  0  1  0  0  0
  -20.5896  -28.3765   23.1461 C   0  0  2  0  0  0
  -20.6832  -26.9659   22.5429 C   0  0  0  0  0  0
  -19.5814  -26.6829   21.5215 C   0  0  0  0  0  0
  -18.2024  -26.7916   22.1683 C   0  0  0  0  0  0
  -19.1586  -28.8629   23.3192 C   0  0  0  0  0  0
  -18.9418  -30.1433   23.8901 C   0  0  0  0  0  0
  -17.6566  -30.6395   24.0554 C   0  0  0  0  0  0
  -25.9053  -34.9557   23.5161 C   0  0  0  0  0  0
  -16.5320  -29.8947   23.6441 C   0  0  0  0  0  0
  -16.7317  -28.6436   23.0354 C   0  0  0  0  0  0
  -26.4451  -31.6595   25.0674 C   0  0  0  0  0  0
  -25.3680  -31.3619   26.1343 C   0  0  0  0  0  0
  -27.0348  -30.3071   24.6162 C   0  0  0  0  0  0
  -27.6048  -32.4243   25.7431 C   0  0  0  0  0  0
  -27.5584  -37.1826   24.8510 C   0  0  0  0  0  0
  -21.4107  -29.3441   22.4001 N   0  0  0  0  0  0
  -26.4271  -37.3835   23.9416 N   0  0  0  0  0  0
  -24.6766  -31.0861   22.1017 N   0  0  0  0  0  0
  -23.4313  -28.7918   23.2438 O   0  0  0  0  0  0
  -28.1572  -26.3922   20.1808 O   0  0  0  0  0  0
  -26.5615  -34.9107   22.4732 O   0  0  0  0  0  0
  -23.5306  -32.1494   23.7625 O   0  0  0  0  0  0
  -30.1338  -18.1801   21.7304 C   0  0  0  0  0  0
  -28.4301  -16.0924   21.1543 C   0  0  0  0  0  0
  -30.7055  -16.7697   21.9210 C   0  0  2  0  0  0
  -27.8439  -17.4217   21.8610 C   0  0  1  0  0  0
  -32.2232  -16.8837   21.6264 C   0  0  0  0  0  0
  -28.6246  -20.6929   22.9268 C   0  0  0  0  0  0
  -29.6553  -19.1088   24.6033 C   0  0  0  0  0  0
  -24.2359  -18.4439   21.0850 C   0  0  0  0  0  0
  -25.4317  -19.4110   22.9253 C   0  0  0  0  0  0
  -26.7788  -18.1906   20.9415 C   0  0  0  0  0  0
  -27.9282  -23.6594   20.3400 C   0  0  0  0  0  0
  -26.5474  -22.8820   20.4450 C   0  0  0  0  0  0
  -25.4158  -20.5522   20.6136 C   0  0  0  0  0  0
  -28.0760  -25.0459   19.5500 C   0  0  0  0  0  0
  -28.6981  -19.2507   23.4111 C   0  0  0  0  0  0
  -25.5734  -19.1630   21.4055 C   0  0  0  0  0  0
  -28.9183  -18.3277   22.2948 N   0  0  0  0  0  0
  -29.9086  -15.6918   21.2425 N   0  0  0  0  0  0
  -26.6313  -21.3736   20.3124 N   0  3  0  0  0  0
  -30.7613  -19.1121   21.2174 O   0  0  0  0  0  0
  -31.4810  -12.6356   19.1205 H   0  0  0  0  0  0
  -30.4577  -11.4006   19.8185 H   0  0  0  0  0  0
  -29.8080  -11.8699   17.4301 H   0  0  0  0  0  0
  -29.6310  -13.5544   17.7908 H   0  0  0  0  0  0
  -27.8743  -11.2707   18.7460 H   0  0  0  0  0  0
  -27.3786  -12.6460   17.7837 H   0  0  0  0  0  0
  -27.6740  -14.1877   19.5699 H   0  0  0  0  0  0
  -28.7690  -11.8337   21.2389 H   0  0  0  0  0  0
  -28.4526  -13.3733   21.9708 H   0  0  0  0  0  0
  -25.2667   -9.5358   22.4929 H   0  0  0  0  0  0
  -23.9829   -7.4374   22.7556 H   0  0  0  0  0  0
  -21.0764   -8.8588   19.9021 H   0  0  0  0  0  0
  -22.3640  -10.9496   19.6210 H   0  0  0  0  0  0
  -21.1995   -7.6145   23.9698 H   0  0  0  0  0  0
  -21.1484   -6.0546   25.9074 H   0  0  0  0  0  0
  -22.0627   -2.7608   23.2817 H   0  0  0  0  0  0
  -22.3913  -11.9708   22.4837 H   0  0  0  0  0  0
  -21.1221  -13.1425   22.2521 H   0  0  0  0  0  0
  -24.5809  -15.7226   20.2237 H   0  0  0  0  0  0
  -26.1056  -15.4465   19.6422 H   0  0  0  0  0  0
  -26.6905  -32.5426   23.1004 H   0  0  0  0  0  0
  -24.9685  -33.9669   25.0302 H   0  0  0  0  0  0
  -22.7026  -31.3593   21.4492 H   0  0  0  0  0  0
  -23.3784  -35.9566   23.3276 H   0  0  0  0  0  0
  -24.3497  -36.8904   22.2054 H   0  0  0  0  0  0
  -23.7190  -37.6560   23.6650 H   0  0  0  0  0  0
  -26.0867  -31.5590   20.6166 H   0  0  0  0  0  0
  -26.8256  -30.8219   22.0195 H   0  0  0  0  0  0
  -28.0492  -28.9385   21.1859 H   0  0  0  0  0  0
  -25.7291  -25.9633   19.0322 H   0  0  0  0  0  0
  -23.8496  -27.4366   18.9975 H   0  0  0  0  0  0
  -23.7356  -30.7070   19.4382 H   0  0  0  0  0  0
  -22.7035  -29.3771   19.8583 H   0  0  0  0  0  0
  -25.1325  -36.1890   25.0823 H   0  0  0  0  0  0
  -21.0070  -28.3079   24.1488 H   0  0  0  0  0  0
  -21.6759  -26.7701   22.1205 H   0  0  0  0  0  0
  -20.5705  -26.1959   23.3187 H   0  0  0  0  0  0
  -19.6924  -25.6757   21.1296 H   0  0  0  0  0  0
  -19.6802  -27.3510   20.6748 H   0  0  0  0  0  0
  -17.4390  -26.6817   21.4010 H   0  0  0  0  0  0
  -18.0360  -25.9758   22.8940 H   0  0  0  0  0  0
  -19.7810  -30.7123   24.2708 H   0  0  0  0  0  0
  -17.4891  -31.5909   24.5428 H   0  0  0  0  0  0
  -15.5275  -30.2622   23.8055 H   0  0  0  0  0  0
  -15.8581  -28.0711   22.7499 H   0  0  0  0  0  0
  -24.5917  -30.6969   25.7571 H   0  0  0  0  0  0
  -24.8851  -32.2784   26.4823 H   0  0  0  0  0  0
  -25.7878  -30.8703   27.0155 H   0  0  0  0  0  0
  -26.2925  -29.6652   24.1400 H   0  0  0  0  0  0
  -27.4359  -29.7449   25.4661 H   0  0  0  0  0  0
  -27.8707  -30.4467   23.9226 H   0  0  0  0  0  0
  -27.2764  -33.3552   26.2175 H   0  0  0  0  0  0
  -28.3837  -32.6753   25.0168 H   0  0  0  0  0  0
  -28.0808  -31.8218   26.5215 H   0  0  0  0  0  0
  -28.2697  -38.0074   24.7618 H   0  0  0  0  0  0
  -28.0977  -36.2650   24.6217 H   0  0  0  0  0  0
  -27.2369  -37.1429   25.8958 H   0  0  0  0  0  0
  -20.9233  -30.0243   21.8356 H   0  0  0  0  0  0
  -26.0129  -38.2939   24.1429 H   0  0  0  0  0  0
  -27.7620  -15.2869   21.4531 H   0  0  0  0  0  0
  -28.2707  -16.2281   20.0915 H   0  0  0  0  0  0
  -30.6051  -16.5385   22.9892 H   0  0  0  0  0  0
  -27.3269  -17.0533   22.7557 H   0  0  0  0  0  0
  -32.4325  -17.1395   20.5899 H   0  0  0  0  0  0
  -32.6508  -17.6947   22.2116 H   0  0  0  0  0  0
  -32.7658  -15.9927   21.9338 H   0  0  0  0  0  0
  -28.1613  -21.3686   23.6430 H   0  0  0  0  0  0
  -28.0189  -20.6636   22.0542 H   0  0  0  0  0  0
  -29.5782  -21.1049   22.5987 H   0  0  0  0  0  0
  -29.3072  -19.7658   25.4036 H   0  0  0  0  0  0
  -30.6791  -19.4052   24.3734 H   0  0  0  0  0  0
  -29.6595  -18.0856   24.9575 H   0  0  0  0  0  0
  -24.1468  -17.4815   21.5740 H   0  0  0  0  0  0
  -24.0895  -18.2786   20.0171 H   0  0  0  0  0  0
  -23.3747  -19.0325   21.4011 H   0  0  0  0  0  0
  -25.5377  -18.4771   23.4880 H   0  0  0  0  0  0
  -24.4324  -19.7697   23.1627 H   0  0  0  0  0  0
  -26.1165  -20.1630   23.2995 H   0  0  0  0  0  0
  -26.2358  -17.3092   20.6289 H   0  0  0  0  0  0
  -27.2288  -18.5490   20.0123 H   0  0  0  0  0  0
  -28.5809  -22.9873   19.7865 H   0  0  0  0  0  0
  -28.3675  -23.7092   21.3425 H   0  0  0  0  0  0
  -25.8111  -23.2437   19.7178 H   0  0  0  0  0  0
  -26.1457  -23.1345   21.4247 H   0  0  0  0  0  0
  -24.6918  -21.1823   21.1280 H   0  0  0  0  0  0
  -24.9494  -20.3993   19.6449 H   0  0  0  0  0  0
  -27.4554  -25.0016   18.6482 H   0  0  0  0  0  0
  -29.0790  -24.9627   19.1527 H   0  0  0  0  0  0
  -27.7563  -18.9909   23.8735 H   0  0  0  0  0  0
  -27.3713  -21.0541   20.9076 H   0  0  0  0  0  0
  -26.8980  -21.1351   19.3679 H   0  0  0  0  0  0
  1 25  1  0  0  0
  1 30  2  0  0  0
  1 88  1  0  0  0
  2  3  1  0  0  0
  2 25  1  0  0  0
  2 91  1  0  0  0
  2 92  1  0  0  0
  3  4  1  0  0  0
  3 93  1  0  0  0
  3 94  1  0  0  0
  4  5  1  0  0  0
  4 95  1  0  0  0
  4 96  1  0  0  0
  5  6  1  0  0  0
  5 26  1  0  0  0
  5 97  1  0  0  0
  6 25  1  0  0  0
  6 98  1  0  0  0
  6 99  1  0  0  0
  7  8  2  0  0  0
  7 26  1  0  0  0
  7 29  1  0  0  0
  8  9  1  0  0  0
  8 22  1  0  0  0
  9 10  1  0  0  0
  9 27  2  0  0  0
 10 11  2  0  0  0
 10 15  1  0  0  0
 11 12  1  0  0  0
 11100  1  0  0  0
 12 13  2  0  0  0
 12101  1  0  0  0
 13 14  1  0  0  0
 13 31  1  0  0  0
 14 15  2  0  0  0
 14102  1  0  0  0
 15103  1  0  0  0
 16 17  2  0  0  0
 16 21  1  0  0  0
 16 31  1  0  0  0
 17 18  1  0  0  0
 17104  1  0  0  0
 18 19  2  0  0  0
 18105  1  0  0  0
 19 20  1  0  0  0
 19 24  1  0  0  0
 20 21  2  0  0  0
 20106  1  0  0  0
 21 23  1  0  0  0
 22 28  1  0  0  0
 22 32  2  0  0  0
 26 27  1  0  0  0
 28107  1  0  0  0
 28108  1  0  0  0
 29109  1  0  0  0
 29110  1  0  0  0
 33 34  1  0  0  0
 33 66  1  0  0  0
 33 70  2  0  0  0
 34 36  1  0  0  0
 34 59  1  0  0  0
 34111  1  0  0  0
 35 44  2  0  0  0
 35 45  1  0  0  0
 35 68  1  0  0  0
 36 56  1  0  0  0
 36112  1  0  0  0
 37 39  1  0  0  0
 37 47  1  0  0  0
 37 66  1  0  0  0
 37113  1  0  0  0
 38 43  2  0  0  0
 38 46  1  0  0  0
 38 47  1  0  0  0
 39 64  1  0  0  0
 39 67  2  0  0  0
 40 52  1  0  0  0
 40 53  2  0  0  0
 40 58  1  0  0  0
 41114  1  0  0  0
 41115  1  0  0  0
 41116  1  0  0  0
 41 48  1  0  0  0
 42 43  1  0  0  0
 42 66  1  0  0  0
 42117  1  0  0  0
 42118  1  0  0  0
 43 44  1  0  0  0
 44119  1  0  0  0
 45 46  2  0  0  0
 45120  1  0  0  0
 46121  1  0  0  0
 47122  1  0  0  0
 47123  1  0  0  0
 48 56  1  0  0  0
 48 65  1  0  0  0
 48124  1  0  0  0
 49 50  1  0  0  0
 49 53  1  0  0  0
 49 64  1  0  0  0
 49125  1  0  0  0
 50 51  1  0  0  0
 50126  1  0  0  0
 50127  1  0  0  0
 51 52  1  0  0  0
 51128  1  0  0  0
 51129  1  0  0  0
 52130  1  0  0  0
 52131  1  0  0  0
 53 54  1  0  0  0
 54 55  2  0  0  0
 54132  1  0  0  0
 55 57  1  0  0  0
 55133  1  0  0  0
 56 69  2  0  0  0
 57 58  2  0  0  0
 57134  1  0  0  0
 58135  1  0  0  0
 59 60  1  0  0  0
 59 61  1  0  0  0
 59 62  1  0  0  0
 60136  1  0  0  0
 60137  1  0  0  0
 60138  1  0  0  0
 61139  1  0  0  0
 61140  1  0  0  0
 61141  1  0  0  0
 62142  1  0  0  0
 62143  1  0  0  0
 62144  1  0  0  0
 63 65  1  0  0  0
 63145  1  0  0  0
 63146  1  0  0  0
 63147  1  0  0  0
 64148  1  0  0  0
 65149  1  0  0  0
 68 84  1  0  0  0
 71 73  1  0  0  0
 71 87  1  0  0  0
 71 90  2  0  0  0
 72 74  1  0  0  0
 72 88  1  0  0  0
 72150  1  0  0  0
 72151  1  0  0  0
 73 75  1  0  0  0
 73 88  1  0  0  0
 73152  1  0  0  0
 74 80  1  0  0  0
 74 87  1  0  0  0
 74153  1  0  0  0
 75154  1  0  0  0
 75155  1  0  0  0
 75156  1  0  0  0
 76157  1  0  0  0
 76158  1  0  0  0
 76159  1  0  0  0
 76 85  1  0  0  0
 77 85  1  0  0  0
 77160  1  0  0  0
 77161  1  0  0  0
 77162  1  0  0  0
 78163  1  0  0  0
 78164  1  0  0  0
 78165  1  0  0  0
 78 86  1  0  0  0
 79 86  1  0  0  0
 79166  1  0  0  0
 79167  1  0  0  0
 79168  1  0  0  0
 80 86  1  0  0  0
 80169  1  0  0  0
 80170  1  0  0  0
 81 82  1  0  0  0
 81 84  1  0  0  0
 81171  1  0  0  0
 81172  1  0  0  0
 82 89  1  0  0  0
 82173  1  0  0  0
 82174  1  0  0  0
 83 86  1  0  0  0
 83 89  1  0  0  0
 83175  1  0  0  0
 83176  1  0  0  0
 84177  1  0  0  0
 84178  1  0  0  0
 85 87  1  0  0  0
 85179  1  0  0  0
 89180  1  0  0  0
 89181  1  0  0  0
M  CHG  1  89   1
M  ISO  4   1 100  68 101  84 101  88 100
M  END
> <chiral flag>
0

> <version>
0

> <s_m_source_file>
/data/baiqing/PycharmProjects/Reinvent-master-3.2/result/LINK_invent/BTK/process_docking_weight1_custom_sum_contain_oxygen_bond_distance_aromatic_linkinvent_7_9_3/rearranged_h_0116.sdf

> <i_m_source_file_index>
40

> <r_mmod_Potential_Energy-OPLS-2005>
491.501831054688

> <r_mmod_Stretch_Energy-OPLS-2005>
120.936729431152

> <r_mmod_Bend_Energy-OPLS-2005>
290.152862548828

> <r_mmod_Torsional_Energy-OPLS-2005>
474.635131835938

> <r_mmod_Improper_Torsional_Energy-OPLS-2005>
7.27555656433105

> <r_mmod_Van_der_Waal_Energy-OPLS-2005>
200.922088623047

> <r_mmod_Electrostatic_Energy-OPLS-2005>
-226.750991821289

> <r_mmod_Solvation_Energy-OPLS-2005>
-449.997131347656

> <b_mmod_Minimization_Converged-OPLS-2005>
0

> <r_mmod_RMS_Derivative-OPLS-2005>
28.4958915710449

$$$$
41
                    3D
 Structure written by MMmdl.
174182  0  0  1  0            999 V2000
  -30.7453  -14.3501   20.7199 C   0  0  0  0  0  0
  -30.4270  -12.2909   19.3898 C   0  0  0  0  0  0
  -29.4900  -12.5369   18.1910 C   0  0  0  0  0  0
  -28.0111  -12.3910   18.6021 C   0  0  0  0  0  0
  -27.6697  -13.1957   19.8823 C   0  0  2  0  0  0
  -28.7029  -12.9001   20.9919 C   0  0  0  0  0  0
  -25.2622  -13.8138   20.5637 C   0  0  0  0  0  0
  -24.1852  -13.0438   20.9159 C   0  0  0  0  0  0
  -24.6391  -11.6904   20.8717 C   0  0  0  0  0  0
  -23.9052  -10.4297   21.0393 C   0  0  0  0  0  0
  -24.3613   -9.4214   21.9170 C   0  0  0  0  0  0
  -23.6291   -8.2250   22.0751 C   0  0  0  0  0  0
  -22.4271   -8.0287   21.3545 C   0  0  0  0  0  0
  -21.9902   -9.0257   20.4650 C   0  0  0  0  0  0
  -22.7225  -10.2138   20.3048 C   0  0  0  0  0  0
  -21.6852   -6.0743   22.5284 C   0  0  0  0  0  0
  -21.4016   -6.5648   23.8218 C   0  0  0  0  0  0
  -21.3659   -5.6796   24.9179 C   0  0  0  0  0  0
  -21.6032   -4.3058   24.7227 C   0  0  0  0  0  0
  -21.8817   -3.8154   23.4351 C   0  0  0  0  0  0
  -21.9197   -4.6971   22.3408 C   0  0  0  0  0  0
  -22.7888  -13.5261   21.1831 C   0  0  0  0  0  0
  -22.1661   -4.2158   21.0982 F   0  0  0  0  0  0
  -21.5622   -3.4543   25.7742 F   0  0  0  0  0  0
  -30.0526  -13.2099   20.4715 N   0  0  0  0  0  0
  -26.3054  -12.9288   20.3358 N   0  0  0  0  0  0
  -25.9305  -11.6466   20.5724 N   0  0  0  0  0  0
  -22.0521  -12.8254   22.0397 N   0  0  0  0  0  0
  -25.4358  -15.1851   20.3999 N   0  0  0  0  0  0
  -31.7424  -14.7071   20.0835 O   0  0  0  0  0  0
  -21.6639   -6.8883   21.4243 O   0  0  0  0  0  0
  -22.3587  -14.5580   20.6699 O   0  0  0  0  0  0
  -24.6116  -31.8716   23.2133 C   0  0  0  0  0  0
  -25.9026  -32.4841   23.8420 C   0  0  1  0  0  0
  -27.2340  -27.4692   20.0802 C   0  0  0  0  0  0
  -25.5892  -33.8637   24.2348 N   0  0  0  0  0  0
  -23.3955  -30.4962   21.5546 C   0  0  2  0  0  0
  -24.8382  -28.9618   20.1195 C   0  0  0  0  0  0
  -22.7389  -29.4658   22.5015 C   0  0  0  0  0  0
  -18.0276  -28.1356   22.8512 C   0  0  0  0  0  0
  -24.1474  -36.7329   23.2643 C   0  0  0  0  0  0
  -25.9219  -30.8446   21.3598 C   0  0  0  0  0  0
  -25.9966  -29.4802   20.7104 C   0  0  0  0  0  0
  -27.1970  -28.7404   20.6882 C   0  0  0  0  0  0
  -26.0576  -26.9538   19.4885 C   0  0  0  0  0  0
  -24.8616  -27.6948   19.5100 C   0  0  0  0  0  0
  -23.6017  -29.8287   20.1685 C   0  0  0  0  0  0
  -25.4093  -36.3128   24.0343 C   0  0  1  0  0  0
  -20.5850  -28.3643   23.1351 C   0  0  2  0  0  0
  -20.6757  -26.9357   22.5514 C   0  0  0  0  0  0
  -19.5743  -26.6283   21.5305 C   0  0  0  0  0  0
  -18.1919  -26.7882   22.1681 C   0  0  0  0  0  0
  -19.1516  -28.8825   23.2906 C   0  0  0  0  0  0
  -18.9435  -30.1441   23.8896 C   0  0  0  0  0  0
  -17.6435  -30.6583   24.0537 C   0  0  0  0  0  0
  -25.9020  -34.9486   23.5141 C   0  0  0  0  0  0
  -16.5342  -29.9072   23.6283 C   0  0  0  0  0  0
  -16.7272  -28.6473   23.0350 C   0  0  0  0  0  0
  -26.4449  -31.6617   25.0744 C   0  0  0  0  0  0
  -25.3709  -31.3744   26.1500 C   0  0  0  0  0  0
  -27.0275  -30.3053   24.6116 C   0  0  0  0  0  0
  -27.6031  -32.4329   25.7505 C   0  0  0  0  0  0
  -27.5566  -37.1823   24.8465 C   0  0  0  0  0  0
  -21.4120  -29.2993   22.3742 N   0  0  0  0  0  0
  -26.4285  -37.3805   23.9404 N   0  0  0  0  0  0
  -24.6615  -31.0842   22.1014 N   0  0  0  0  0  0
  -23.4197  -28.8224   23.3055 O   0  0  0  0  0  0
  -28.4376  -26.8083   20.0223 O   0  0  0  0  0  0
  -26.5595  -34.8929   22.4707 O   0  0  0  0  0  0
  -23.5318  -32.1469   23.7540 O   0  0  0  0  0  0
  -29.6395  -22.0279   23.1147 C   0  0  0  0  0  0
  -29.8527  -23.3171   22.7298 C   0  0  0  0  0  0
  -28.2724  -21.7062   22.8736 C   0  0  0  0  0  0
  -27.7013  -22.8150   22.2818 C   0  0  0  0  0  0
  -26.3184  -23.0441   21.8162 C   0  0  0  0  0  0
  -24.7622  -22.4547   19.8551 C   0  0  0  0  0  0
  -31.0947  -16.4667   23.5507 C   0  0  0  0  0  0
  -29.6958  -24.8644   19.5549 C   0  0  0  0  0  0
  -27.5944  -20.4157   23.2889 C   0  0  0  0  0  0
  -25.6391  -21.9342   21.0086 C   0  0  0  0  0  0
  -28.5184  -25.2205   21.8163 C   0  0  0  0  0  0
  -27.8050  -19.2132   22.3515 C   0  0  0  0  0  0
  -29.1406  -17.1765   22.0243 C   0  0  0  0  0  0
  -30.4994  -16.4422   22.1293 C   0  0  2  0  0  0
  -28.4622  -25.4091   20.2871 C   0  0  1  0  0  0
  -28.6646  -23.8304   22.2456 N   0  0  0  0  0  0
  -30.2448  -15.0575   21.7395 N   0  0  0  0  0  0
  -29.1449  -18.5888   22.4661 N   0  3  0  0  0  0
  -25.7222  -24.1070   21.9998 O   0  0  0  0  0  0
  -31.4701  -12.4083   19.0907 H   0  0  0  0  0  0
  -30.3344  -11.2603   19.7376 H   0  0  0  0  0  0
  -29.7245  -11.8424   17.3832 H   0  0  0  0  0  0
  -29.6623  -13.5375   17.7921 H   0  0  0  0  0  0
  -27.8102  -11.3320   18.7664 H   0  0  0  0  0  0
  -27.3635  -12.6995   17.7804 H   0  0  0  0  0  0
  -27.7372  -14.2544   19.6305 H   0  0  0  0  0  0
  -28.6636  -11.8435   21.2644 H   0  0  0  0  0  0
  -28.4304  -13.4285   21.9050 H   0  0  0  0  0  0
  -25.2757   -9.5705   22.4743 H   0  0  0  0  0  0
  -24.0007   -7.4651   22.7476 H   0  0  0  0  0  0
  -21.0830   -8.8779   19.8965 H   0  0  0  0  0  0
  -22.3673  -10.9680   19.6167 H   0  0  0  0  0  0
  -21.2005   -7.6158   23.9730 H   0  0  0  0  0  0
  -21.1476   -6.0524   25.9082 H   0  0  0  0  0  0
  -22.0594   -2.7621   23.2849 H   0  0  0  0  0  0
  -22.4127  -11.9900   22.4755 H   0  0  0  0  0  0
  -21.1148  -13.1300   22.2615 H   0  0  0  0  0  0
  -24.6532  -15.8271   20.4536 H   0  0  0  0  0  0
  -26.2673  -15.6078   20.0083 H   0  0  0  0  0  0
  -26.7103  -32.5561   23.1196 H   0  0  0  0  0  0
  -25.0012  -33.9819   25.0470 H   0  0  0  0  0  0
  -22.6809  -31.3109   21.4196 H   0  0  0  0  0  0
  -23.3717  -35.9682   23.3339 H   0  0  0  0  0  0
  -24.3567  -36.8915   22.2052 H   0  0  0  0  0  0
  -23.7244  -37.6551   23.6632 H   0  0  0  0  0  0
  -26.0286  -31.6077   20.5878 H   0  0  0  0  0  0
  -26.8110  -30.9000   21.9750 H   0  0  0  0  0  0
  -28.0968  -29.1472   21.1291 H   0  0  0  0  0  0
  -26.0563  -26.0029   18.9757 H   0  0  0  0  0  0
  -23.9720  -27.2954   19.0425 H   0  0  0  0  0  0
  -23.7110  -30.6050   19.4118 H   0  0  0  0  0  0
  -22.7250  -29.2490   19.8754 H   0  0  0  0  0  0
  -25.1259  -36.2002   25.0836 H   0  0  0  0  0  0
  -20.9924  -28.3263   24.1487 H   0  0  0  0  0  0
  -20.5620  -26.2272   23.3739 H   0  0  0  0  0  0
  -21.6646  -26.7363   22.1360 H   0  0  0  0  0  0
  -19.6869  -25.6143   21.1452 H   0  0  0  0  0  0
  -19.6691  -27.3017   20.6776 H   0  0  0  0  0  0
  -17.4207  -26.6605   21.4065 H   0  0  0  0  0  0
  -18.0292  -26.0056   22.9110 H   0  0  0  0  0  0
  -19.7913  -30.7248   24.2278 H   0  0  0  0  0  0
  -17.4980  -31.6286   24.5084 H   0  0  0  0  0  0
  -15.5328  -30.2977   23.7542 H   0  0  0  0  0  0
  -15.8679  -28.0767   22.7083 H   0  0  0  0  0  0
  -24.5845  -30.7142   25.7828 H   0  0  0  0  0  0
  -24.8948  -32.2919   26.4964 H   0  0  0  0  0  0
  -25.8041  -30.8884   27.0251 H   0  0  0  0  0  0
  -26.2838  -29.6845   24.1112 H   0  0  0  0  0  0
  -27.3980  -29.7264   25.4586 H   0  0  0  0  0  0
  -27.8693  -30.4372   23.9316 H   0  0  0  0  0  0
  -27.2651  -33.3600   26.2141 H   0  0  0  0  0  0
  -28.3811  -32.6935   25.0318 H   0  0  0  0  0  0
  -28.0738  -31.8426   26.5387 H   0  0  0  0  0  0
  -28.2607  -38.0093   24.7474 H   0  0  0  0  0  0
  -28.1037  -36.2628   24.6317 H   0  0  0  0  0  0
  -27.2310  -37.1517   25.8879 H   0  0  0  0  0  0
  -20.9257  -29.8723   21.6988 H   0  0  0  0  0  0
  -26.0181  -38.2894   24.1369 H   0  0  0  0  0  0
  -30.3894  -21.3950   23.5705 H   0  0  0  0  0  0
  -30.7436  -23.9304   22.7822 H   0  0  0  0  0  0
  -24.2516  -21.6290   19.3596 H   0  0  0  0  0  0
  -25.3589  -22.9696   19.1015 H   0  0  0  0  0  0
  -23.9965  -23.1451   20.2090 H   0  0  0  0  0  0
  -31.3437  -17.4799   23.8665 H   0  0  0  0  0  0
  -32.0180  -15.8882   23.5990 H   0  0  0  0  0  0
  -30.4053  -16.0493   24.2859 H   0  0  0  0  0  0
  -29.6654  -25.1257   18.4967 H   0  0  0  0  0  0
  -29.7504  -23.7792   19.6263 H   0  0  0  0  0  0
  -30.6151  -25.2787   19.9694 H   0  0  0  0  0  0
  -26.5266  -20.6007   23.3972 H   0  0  0  0  0  0
  -27.9329  -20.1670   24.2959 H   0  0  0  0  0  0
  -25.0303  -21.3438   21.6929 H   0  0  0  0  0  0
  -26.4053  -21.2733   20.6061 H   0  0  0  0  0  0
  -27.6430  -25.6604   22.2950 H   0  0  0  0  0  0
  -29.3639  -25.7873   22.2086 H   0  0  0  0  0  0
  -27.6084  -19.4827   21.3134 H   0  0  0  0  0  0
  -27.0524  -18.4691   22.6171 H   0  0  0  0  0  0
  -28.3965  -16.6368   22.6134 H   0  0  0  0  0  0
  -28.7955  -17.1417   20.9891 H   0  0  0  0  0  0
  -31.2124  -16.8977   21.4385 H   0  0  0  0  0  0
  -27.5918  -24.8881   19.8938 H   0  0  0  0  0  0
  -29.4725  -14.6013   22.2053 H   0  0  0  0  0  0
  -29.4229  -18.6132   23.4338 H   0  0  0  0  0  0
  -29.8137  -19.1204   21.9326 H   0  0  0  0  0  0
  1 25  1  0  0  0
  1 30  2  0  0  0
  1 87  1  0  0  0
  2  3  1  0  0  0
  2 25  1  0  0  0
  2 90  1  0  0  0
  2 91  1  0  0  0
  3  4  1  0  0  0
  3 92  1  0  0  0
  3 93  1  0  0  0
  4  5  1  0  0  0
  4 94  1  0  0  0
  4 95  1  0  0  0
  5  6  1  0  0  0
  5 26  1  0  0  0
  5 96  1  0  0  0
  6 25  1  0  0  0
  6 97  1  0  0  0
  6 98  1  0  0  0
  7  8  2  0  0  0
  7 26  1  0  0  0
  7 29  1  0  0  0
  8  9  1  0  0  0
  8 22  1  0  0  0
  9 10  1  0  0  0
  9 27  2  0  0  0
 10 11  2  0  0  0
 10 15  1  0  0  0
 11 12  1  0  0  0
 11 99  1  0  0  0
 12 13  2  0  0  0
 12100  1  0  0  0
 13 14  1  0  0  0
 13 31  1  0  0  0
 14 15  2  0  0  0
 14101  1  0  0  0
 15102  1  0  0  0
 16 17  2  0  0  0
 16 21  1  0  0  0
 16 31  1  0  0  0
 17 18  1  0  0  0
 17103  1  0  0  0
 18 19  2  0  0  0
 18104  1  0  0  0
 19 20  1  0  0  0
 19 24  1  0  0  0
 20 21  2  0  0  0
 20105  1  0  0  0
 21 23  1  0  0  0
 22 28  1  0  0  0
 22 32  2  0  0  0
 26 27  1  0  0  0
 28106  1  0  0  0
 28107  1  0  0  0
 29108  1  0  0  0
 29109  1  0  0  0
 33 34  1  0  0  0
 33 66  1  0  0  0
 33 70  2  0  0  0
 34 36  1  0  0  0
 34 59  1  0  0  0
 34110  1  0  0  0
 35 44  2  0  0  0
 35 45  1  0  0  0
 35 68  1  0  0  0
 36 56  1  0  0  0
 36111  1  0  0  0
 37 39  1  0  0  0
 37 47  1  0  0  0
 37 66  1  0  0  0
 37112  1  0  0  0
 38 43  2  0  0  0
 38 46  1  0  0  0
 38 47  1  0  0  0
 39 64  1  0  0  0
 39 67  2  0  0  0
 40 52  1  0  0  0
 40 53  2  0  0  0
 40 58  1  0  0  0
 41113  1  0  0  0
 41114  1  0  0  0
 41115  1  0  0  0
 41 48  1  0  0  0
 42 43  1  0  0  0
 42 66  1  0  0  0
 42116  1  0  0  0
 42117  1  0  0  0
 43 44  1  0  0  0
 44118  1  0  0  0
 45 46  2  0  0  0
 45119  1  0  0  0
 46120  1  0  0  0
 47121  1  0  0  0
 47122  1  0  0  0
 48 56  1  0  0  0
 48 65  1  0  0  0
 48123  1  0  0  0
 49 50  1  0  0  0
 49 53  1  0  0  0
 49 64  1  0  0  0
 49124  1  0  0  0
 50 51  1  0  0  0
 50125  1  0  0  0
 50126  1  0  0  0
 51 52  1  0  0  0
 51127  1  0  0  0
 51128  1  0  0  0
 52129  1  0  0  0
 52130  1  0  0  0
 53 54  1  0  0  0
 54 55  2  0  0  0
 54131  1  0  0  0
 55 57  1  0  0  0
 55132  1  0  0  0
 56 69  2  0  0  0
 57 58  2  0  0  0
 57133  1  0  0  0
 58134  1  0  0  0
 59 60  1  0  0  0
 59 61  1  0  0  0
 59 62  1  0  0  0
 60135  1  0  0  0
 60136  1  0  0  0
 60137  1  0  0  0
 61138  1  0  0  0
 61139  1  0  0  0
 61140  1  0  0  0
 62141  1  0  0  0
 62142  1  0  0  0
 62143  1  0  0  0
 63 65  1  0  0  0
 63144  1  0  0  0
 63145  1  0  0  0
 63146  1  0  0  0
 64147  1  0  0  0
 65148  1  0  0  0
 68 85  1  0  0  0
 71 72  2  0  0  0
 71 73  1  0  0  0
 71149  1  0  0  0
 72 86  1  0  0  0
 72150  1  0  0  0
 73 74  2  0  0  0
 73 79  1  0  0  0
 74 75  1  0  0  0
 74 86  1  0  0  0
 75 80  1  0  0  0
 75 89  2  0  0  0
 76 80  1  0  0  0
 76151  1  0  0  0
 76152  1  0  0  0
 76153  1  0  0  0
 77154  1  0  0  0
 77155  1  0  0  0
 77156  1  0  0  0
 77 84  1  0  0  0
 78157  1  0  0  0
 78158  1  0  0  0
 78159  1  0  0  0
 78 85  1  0  0  0
 79 82  1  0  0  0
 79160  1  0  0  0
 79161  1  0  0  0
 80162  1  0  0  0
 80163  1  0  0  0
 81 85  1  0  0  0
 81 86  1  0  0  0
 81164  1  0  0  0
 81165  1  0  0  0
 82 88  1  0  0  0
 82166  1  0  0  0
 82167  1  0  0  0
 83 84  1  0  0  0
 83 88  1  0  0  0
 83168  1  0  0  0
 83169  1  0  0  0
 84 87  1  0  0  0
 84170  1  0  0  0
 85171  1  0  0  0
 87172  1  0  0  0
 88173  1  0  0  0
 88174  1  0  0  0
M  CHG  1  88   1
M  ISO  4   1 100  68 101  85 101  87 100
M  END
> <chiral flag>
0

> <version>
0

> <s_m_source_file>
/data/baiqing/PycharmProjects/Reinvent-master-3.2/result/LINK_invent/BTK/process_docking_weight1_custom_sum_contain_oxygen_bond_distance_aromatic_linkinvent_7_9_3/rearranged_h_0116.sdf

> <i_m_source_file_index>
41

> <r_mmod_Potential_Energy-OPLS-2005>
-205.281677246094

> <r_mmod_Stretch_Energy-OPLS-2005>
33.5391616821289

> <r_mmod_Bend_Energy-OPLS-2005>
105.391181945801

> <r_mmod_Torsional_Energy-OPLS-2005>
268.761199951172

> <r_mmod_Improper_Torsional_Energy-OPLS-2005>
3.40081977844238

> <r_mmod_Van_der_Waal_Energy-OPLS-2005>
120.916107177734

> <r_mmod_Electrostatic_Energy-OPLS-2005>
-255.163146972656

> <r_mmod_Solvation_Energy-OPLS-2005>
-490.457214355469

> <b_mmod_Minimization_Converged-OPLS-2005>
0

> <r_mmod_RMS_Derivative-OPLS-2005>
2.47782397270203

$$$$
42
                    3D
 Structure written by MMmdl.
165173  0  0  1  0            999 V2000
  -30.6659  -14.5258   20.5252 C   0  0  0  0  0  0
  -30.4297  -12.3217   19.4422 C   0  0  0  0  0  0
  -29.5056  -12.5042   18.2178 C   0  0  0  0  0  0
  -28.0232  -12.3671   18.6225 C   0  0  0  0  0  0
  -27.6637  -13.2098   19.8754 C   0  0  2  0  0  0
  -28.7059  -13.0088   21.0017 C   0  0  0  0  0  0
  -25.2608  -13.8156   20.5680 C   0  0  0  0  0  0
  -24.1854  -13.0433   20.9175 C   0  0  0  0  0  0
  -24.6396  -11.6897   20.8706 C   0  0  0  0  0  0
  -23.9056  -10.4289   21.0372 C   0  0  0  0  0  0
  -24.3618   -9.4207   21.9160 C   0  0  0  0  0  0
  -23.6303   -8.2228   22.0730 C   0  0  0  0  0  0
  -22.4284   -8.0270   21.3528 C   0  0  0  0  0  0
  -21.9912   -9.0233   20.4626 C   0  0  0  0  0  0
  -22.7224  -10.2116   20.3028 C   0  0  0  0  0  0
  -21.6847   -6.0736   22.5279 C   0  0  0  0  0  0
  -21.4003   -6.5638   23.8214 C   0  0  0  0  0  0
  -21.3663   -5.6791   24.9174 C   0  0  0  0  0  0
  -21.6050   -4.3053   24.7218 C   0  0  0  0  0  0
  -21.8824   -3.8147   23.4339 C   0  0  0  0  0  0
  -21.9191   -4.6966   22.3397 C   0  0  0  0  0  0
  -22.7884  -13.5221   21.1851 C   0  0  0  0  0  0
  -22.1664   -4.2149   21.0976 F   0  0  0  0  0  0
  -21.5635   -3.4540   25.7732 F   0  0  0  0  0  0
  -30.0376  -13.3180   20.4541 N   0  0  0  0  0  0
  -26.3045  -12.9328   20.3371 N   0  0  0  0  0  0
  -25.9337  -11.6487   20.5755 N   0  0  0  0  0  0
  -22.0524  -12.8199   22.0400 N   0  0  0  0  0  0
  -25.4347  -15.1872   20.4079 N   0  0  0  0  0  0
  -31.7899  -14.7315   20.0617 O   0  0  0  0  0  0
  -21.6640   -6.8876   21.4239 O   0  0  0  0  0  0
  -22.3568  -14.5530   20.6707 O   0  0  0  0  0  0
  -24.6218  -31.8642   23.2075 C   0  0  0  0  0  0
  -25.9090  -32.4800   23.8379 C   0  0  1  0  0  0
  -27.2279  -27.3728   20.1057 C   0  0  0  0  0  0
  -25.5927  -33.8598   24.2309 N   0  0  0  0  0  0
  -23.4125  -30.4908   21.5478 C   0  0  2  0  0  0
  -24.8579  -28.9551   20.1120 C   0  0  0  0  0  0
  -22.7451  -29.4651   22.4941 C   0  0  0  0  0  0
  -18.0287  -28.1386   22.8488 C   0  0  0  0  0  0
  -24.1488  -36.7301   23.2639 C   0  0  0  0  0  0
  -25.9498  -30.8129   21.3707 C   0  0  0  0  0  0
  -26.0253  -29.4456   20.7106 C   0  0  0  0  0  0
  -27.2127  -28.6654   20.6994 C   0  0  0  0  0  0
  -26.0356  -26.9223   19.4890 C   0  0  0  0  0  0
  -24.8617  -27.6952   19.4963 C   0  0  0  0  0  0
  -23.6252  -29.8300   20.1611 C   0  0  0  0  0  0
  -25.4111  -36.3096   24.0336 C   0  0  1  0  0  0
  -20.5886  -28.3680   23.1294 C   0  0  2  0  0  0
  -20.6774  -26.9406   22.5415 C   0  0  0  0  0  0
  -19.5753  -26.6385   21.5212 C   0  0  0  0  0  0
  -18.1932  -26.7933   22.1621 C   0  0  0  0  0  0
  -19.1540  -28.8847   23.2891 C   0  0  0  0  0  0
  -18.9465  -30.1451   23.8906 C   0  0  0  0  0  0
  -17.6465  -30.6589   24.0565 C   0  0  0  0  0  0
  -25.9045  -34.9465   23.5118 C   0  0  0  0  0  0
  -16.5356  -29.9090   23.6327 C   0  0  0  0  0  0
  -16.7277  -28.6509   23.0346 C   0  0  0  0  0  0
  -26.4498  -31.6591   25.0726 C   0  0  0  0  0  0
  -25.3758  -31.3711   26.1470 C   0  0  0  0  0  0
  -27.0334  -30.3025   24.6142 C   0  0  0  0  0  0
  -27.6069  -32.4315   25.7490 C   0  0  0  0  0  0
  -27.5585  -37.1804   24.8461 C   0  0  0  0  0  0
  -21.4173  -29.3040   22.3686 N   0  0  0  0  0  0
  -26.4289  -37.3790   23.9415 N   0  0  0  0  0  0
  -24.6797  -31.0708   22.0993 N   0  0  0  0  0  0
  -23.4196  -28.8189   23.3003 O   0  0  0  0  0  0
  -28.3681  -26.5691   20.1567 O   0  0  0  0  0  0
  -26.5599  -34.8923   22.4674 O   0  0  0  0  0  0
  -23.5398  -32.1409   23.7442 O   0  0  0  0  0  0
  -27.7264  -22.2411   21.1820 C   0  0  0  0  0  0
  -28.0098  -20.8143   21.6787 C   0  0  0  0  0  0
  -29.9514  -21.5321   20.7098 C   0  0  0  0  0  0
  -28.9177  -22.6250   20.3028 C   0  0  2  0  0  0
  -31.1867  -25.4448   19.5434 C   0  0  0  0  0  0
  -29.7322  -19.1272   21.5515 C   0  0  0  0  0  0
  -29.7699  -16.8530   20.1685 C   0  0  0  0  0  0
  -28.1901  -25.1347   19.9344 C   0  0  0  0  0  0
  -29.3399  -24.1458   20.3671 C   0  0  2  0  0  0
  -30.5530  -18.1191   20.6636 C   0  0  2  0  0  0
  -29.1318  -20.3131   20.8813 N   0  0  0  0  0  0
  -29.8912  -15.5656   20.9113 N   0  0  0  0  0  0
  -31.8154  -17.7298   21.3150 N   0  3  0  0  0  0
  -30.4399  -24.2392   19.4629 O   0  0  0  0  0  0
  -31.4756  -12.4197   19.1462 H   0  0  0  0  0  0
  -30.3292  -11.3141   19.8487 H   0  0  0  0  0  0
  -29.7510  -11.7723   17.4475 H   0  0  0  0  0  0
  -29.6777  -13.4841   17.7709 H   0  0  0  0  0  0
  -27.8278  -11.3129   18.8197 H   0  0  0  0  0  0
  -27.3772  -12.6425   17.7882 H   0  0  0  0  0  0
  -27.7006  -14.2545   19.5676 H   0  0  0  0  0  0
  -28.6865  -11.9766   21.3547 H   0  0  0  0  0  0
  -28.4655  -13.6223   21.8711 H   0  0  0  0  0  0
  -25.2758   -9.5680   22.4733 H   0  0  0  0  0  0
  -24.0018   -7.4619   22.7444 H   0  0  0  0  0  0
  -21.0837   -8.8736   19.8938 H   0  0  0  0  0  0
  -22.3675  -10.9648   19.6128 H   0  0  0  0  0  0
  -21.1987   -7.6146   23.9710 H   0  0  0  0  0  0
  -21.1489   -6.0520   25.9080 H   0  0  0  0  0  0
  -22.0602   -2.7609   23.2829 H   0  0  0  0  0  0
  -22.4163  -11.9864   22.4785 H   0  0  0  0  0  0
  -21.1125  -13.1187   22.2580 H   0  0  0  0  0  0
  -24.6669  -15.8426   20.5029 H   0  0  0  0  0  0
  -26.2860  -15.6189   20.0701 H   0  0  0  0  0  0
  -26.7159  -32.5486   23.1134 H   0  0  0  0  0  0
  -25.0095  -33.9745   25.0468 H   0  0  0  0  0  0
  -22.7047  -31.3105   21.4082 H   0  0  0  0  0  0
  -23.3751  -35.9633   23.3304 H   0  0  0  0  0  0
  -24.3587  -36.8913   22.2053 H   0  0  0  0  0  0
  -23.7240  -37.6507   23.6651 H   0  0  0  0  0  0
  -26.0778  -31.5815   20.6072 H   0  0  0  0  0  0
  -26.8322  -30.8571   21.9978 H   0  0  0  0  0  0
  -28.1100  -29.0394   21.1731 H   0  0  0  0  0  0
  -25.9758  -25.9608   19.0019 H   0  0  0  0  0  0
  -23.9657  -27.3102   19.0292 H   0  0  0  0  0  0
  -23.7461  -30.6089   19.4071 H   0  0  0  0  0  0
  -22.7463  -29.2600   19.8551 H   0  0  0  0  0  0
  -25.1292  -36.1951   25.0830 H   0  0  0  0  0  0
  -20.9992  -28.3249   24.1410 H   0  0  0  0  0  0
  -20.5670  -26.2288   23.3611 H   0  0  0  0  0  0
  -21.6643  -26.7435   22.1211 H   0  0  0  0  0  0
  -19.6912  -25.6296   21.1239 H   0  0  0  0  0  0
  -19.6701  -27.3195   20.6743 H   0  0  0  0  0  0
  -17.4208  -26.6691   21.4017 H   0  0  0  0  0  0
  -18.0325  -26.0072   22.9013 H   0  0  0  0  0  0
  -19.7941  -30.7263   24.2281 H   0  0  0  0  0  0
  -17.5023  -31.6271   24.5165 H   0  0  0  0  0  0
  -15.5357  -30.2996   23.7651 H   0  0  0  0  0  0
  -15.8676  -28.0835   22.7051 H   0  0  0  0  0  0
  -24.5937  -30.7050   25.7812 H   0  0  0  0  0  0
  -24.8945  -32.2869   26.4910 H   0  0  0  0  0  0
  -25.8114  -30.8891   27.0231 H   0  0  0  0  0  0
  -26.2887  -29.6772   24.1205 H   0  0  0  0  0  0
  -27.4094  -29.7283   25.4620 H   0  0  0  0  0  0
  -27.8732  -30.4326   23.9314 H   0  0  0  0  0  0
  -27.2692  -33.3615   26.2076 H   0  0  0  0  0  0
  -28.3878  -32.6873   25.0315 H   0  0  0  0  0  0
  -28.0739  -31.8430   26.5399 H   0  0  0  0  0  0
  -28.2592  -38.0111   24.7525 H   0  0  0  0  0  0
  -28.1093  -36.2646   24.6262 H   0  0  0  0  0  0
  -27.2311  -37.1421   25.8865 H   0  0  0  0  0  0
  -20.9337  -29.8770   21.6916 H   0  0  0  0  0  0
  -26.0175  -38.2865   24.1427 H   0  0  0  0  0  0
  -27.6214  -22.9128   22.0352 H   0  0  0  0  0  0
  -26.7965  -22.2880   20.6137 H   0  0  0  0  0  0
  -27.1347  -20.1669   21.5983 H   0  0  0  0  0  0
  -28.2885  -20.8552   22.7349 H   0  0  0  0  0  0
  -30.4343  -21.8065   21.6501 H   0  0  0  0  0  0
  -30.7319  -21.4052   19.9584 H   0  0  0  0  0  0
  -28.6344  -22.4143   19.2701 H   0  0  0  0  0  0
  -32.0896  -25.3445   18.9411 H   0  0  0  0  0  0
  -31.4903  -25.6641   20.5676 H   0  0  0  0  0  0
  -30.6327  -26.2959   19.1484 H   0  0  0  0  0  0
  -30.3466  -19.4894   22.3768 H   0  0  0  0  0  0
  -28.9373  -18.5520   22.0313 H   0  0  0  0  0  0
  -30.0746  -16.6624   19.1373 H   0  0  0  0  0  0
  -28.7102  -17.1022   20.0905 H   0  0  0  0  0  0
  -27.3041  -24.8332   20.4949 H   0  0  0  0  0  0
  -27.9683  -24.9609   18.8807 H   0  0  0  0  0  0
  -29.6645  -24.3740   21.3836 H   0  0  0  0  0  0
  -30.8541  -18.6710   19.7714 H   0  0  0  0  0  0
  -29.0498  -15.2820   21.3927 H   0  0  0  0  0  0
  -32.3515  -17.1501   20.6925 H   0  0  0  0  0  0
  -31.6298  -17.2057   22.1513 H   0  0  0  0  0  0
  -32.3618  -18.5387   21.5479 H   0  0  0  0  0  0
  1 25  1  0  0  0
  1 30  2  0  0  0
  1 82  1  0  0  0
  2  3  1  0  0  0
  2 25  1  0  0  0
  2 85  1  0  0  0
  2 86  1  0  0  0
  3  4  1  0  0  0
  3 87  1  0  0  0
  3 88  1  0  0  0
  4  5  1  0  0  0
  4 89  1  0  0  0
  4 90  1  0  0  0
  5  6  1  0  0  0
  5 26  1  0  0  0
  5 91  1  0  0  0
  6 25  1  0  0  0
  6 92  1  0  0  0
  6 93  1  0  0  0
  7  8  2  0  0  0
  7 26  1  0  0  0
  7 29  1  0  0  0
  8  9  1  0  0  0
  8 22  1  0  0  0
  9 10  1  0  0  0
  9 27  2  0  0  0
 10 11  2  0  0  0
 10 15  1  0  0  0
 11 12  1  0  0  0
 11 94  1  0  0  0
 12 13  2  0  0  0
 12 95  1  0  0  0
 13 14  1  0  0  0
 13 31  1  0  0  0
 14 15  2  0  0  0
 14 96  1  0  0  0
 15 97  1  0  0  0
 16 17  2  0  0  0
 16 21  1  0  0  0
 16 31  1  0  0  0
 17 18  1  0  0  0
 17 98  1  0  0  0
 18 19  2  0  0  0
 18 99  1  0  0  0
 19 20  1  0  0  0
 19 24  1  0  0  0
 20 21  2  0  0  0
 20100  1  0  0  0
 21 23  1  0  0  0
 22 28  1  0  0  0
 22 32  2  0  0  0
 26 27  1  0  0  0
 28101  1  0  0  0
 28102  1  0  0  0
 29103  1  0  0  0
 29104  1  0  0  0
 33 34  1  0  0  0
 33 66  1  0  0  0
 33 70  2  0  0  0
 34 36  1  0  0  0
 34 59  1  0  0  0
 34105  1  0  0  0
 35 44  2  0  0  0
 35 45  1  0  0  0
 35 68  1  0  0  0
 36 56  1  0  0  0
 36106  1  0  0  0
 37 39  1  0  0  0
 37 47  1  0  0  0
 37 66  1  0  0  0
 37107  1  0  0  0
 38 43  2  0  0  0
 38 46  1  0  0  0
 38 47  1  0  0  0
 39 64  1  0  0  0
 39 67  2  0  0  0
 40 52  1  0  0  0
 40 53  2  0  0  0
 40 58  1  0  0  0
 41108  1  0  0  0
 41109  1  0  0  0
 41110  1  0  0  0
 41 48  1  0  0  0
 42 43  1  0  0  0
 42 66  1  0  0  0
 42111  1  0  0  0
 42112  1  0  0  0
 43 44  1  0  0  0
 44113  1  0  0  0
 45 46  2  0  0  0
 45114  1  0  0  0
 46115  1  0  0  0
 47116  1  0  0  0
 47117  1  0  0  0
 48 56  1  0  0  0
 48 65  1  0  0  0
 48118  1  0  0  0
 49 50  1  0  0  0
 49 53  1  0  0  0
 49 64  1  0  0  0
 49119  1  0  0  0
 50 51  1  0  0  0
 50120  1  0  0  0
 50121  1  0  0  0
 51 52  1  0  0  0
 51122  1  0  0  0
 51123  1  0  0  0
 52124  1  0  0  0
 52125  1  0  0  0
 53 54  1  0  0  0
 54 55  2  0  0  0
 54126  1  0  0  0
 55 57  1  0  0  0
 55127  1  0  0  0
 56 69  2  0  0  0
 57 58  2  0  0  0
 57128  1  0  0  0
 58129  1  0  0  0
 59 60  1  0  0  0
 59 61  1  0  0  0
 59 62  1  0  0  0
 60130  1  0  0  0
 60131  1  0  0  0
 60132  1  0  0  0
 61133  1  0  0  0
 61134  1  0  0  0
 61135  1  0  0  0
 62136  1  0  0  0
 62137  1  0  0  0
 62138  1  0  0  0
 63 65  1  0  0  0
 63139  1  0  0  0
 63140  1  0  0  0
 63141  1  0  0  0
 64142  1  0  0  0
 65143  1  0  0  0
 68 78  1  0  0  0
 71 72  1  0  0  0
 71144  1  0  0  0
 71145  1  0  0  0
 71 74  1  0  0  0
 72 81  1  0  0  0
 72146  1  0  0  0
 72147  1  0  0  0
 73 74  1  0  0  0
 73 81  1  0  0  0
 73148  1  0  0  0
 73149  1  0  0  0
 74 79  1  0  0  0
 74150  1  0  0  0
 75 84  1  0  0  0
 75151  1  0  0  0
 75152  1  0  0  0
 75153  1  0  0  0
 76 80  1  0  0  0
 76 81  1  0  0  0
 76154  1  0  0  0
 76155  1  0  0  0
 77 80  1  0  0  0
 77 82  1  0  0  0
 77156  1  0  0  0
 77157  1  0  0  0
 78158  1  0  0  0
 78159  1  0  0  0
 78 79  1  0  0  0
 79 84  1  0  0  0
 79160  1  0  0  0
 80 83  1  0  0  0
 80161  1  0  0  0
 82162  1  0  0  0
 83163  1  0  0  0
 83164  1  0  0  0
 83165  1  0  0  0
M  CHG  1  83   1
M  ISO  4   1 100  68 101  78 101  82 100
M  END
> <chiral flag>
0

> <version>
0

> <s_m_source_file>
/data/baiqing/PycharmProjects/Reinvent-master-3.2/result/LINK_invent/BTK/process_docking_weight1_custom_sum_contain_oxygen_bond_distance_aromatic_linkinvent_7_9_3/rearranged_h_0116.sdf

> <i_m_source_file_index>
42

> <r_mmod_Potential_Energy-OPLS-2005>
-160.071990966797

> <r_mmod_Stretch_Energy-OPLS-2005>
56.2411727905273

> <r_mmod_Bend_Energy-OPLS-2005>
151.316482543945

> <r_mmod_Torsional_Energy-OPLS-2005>
327.880767822266

> <r_mmod_Improper_Torsional_Energy-OPLS-2005>
8.23854637145996

> <r_mmod_Van_der_Waal_Energy-OPLS-2005>
133.714767456055

> <r_mmod_Electrostatic_Energy-OPLS-2005>
-389.329864501953

> <r_mmod_Solvation_Energy-OPLS-2005>
-472.412322998047

> <b_mmod_Minimization_Converged-OPLS-2005>
0

> <r_mmod_RMS_Derivative-OPLS-2005>
1.55075061321259

$$$$
43
                    3D
 Structure written by MMmdl.
169178  0  0  1  0            999 V2000
  -30.6210  -14.6479   20.4181 C   0  0  0  0  0  0
  -30.4349  -12.3817   19.4421 C   0  0  0  0  0  0
  -29.4942  -12.4619   18.2187 C   0  0  0  0  0  0
  -28.0184  -12.3149   18.6424 C   0  0  0  0  0  0
  -27.6435  -13.2152   19.8487 C   0  0  2  0  0  0
  -28.6960  -13.1115   20.9737 C   0  0  0  0  0  0
  -25.2527  -13.8182   20.5692 C   0  0  0  0  0  0
  -24.1809  -13.0442   20.9248 C   0  0  0  0  0  0
  -24.6393  -11.6922   20.8795 C   0  0  0  0  0  0
  -23.9096  -10.4297   21.0462 C   0  0  0  0  0  0
  -24.3643   -9.4195   21.9218 C   0  0  0  0  0  0
  -23.6313   -8.2229   22.0754 C   0  0  0  0  0  0
  -22.4300   -8.0291   21.3531 C   0  0  0  0  0  0
  -21.9952   -9.0279   20.4636 C   0  0  0  0  0  0
  -22.7294  -10.2154   20.3076 C   0  0  0  0  0  0
  -21.6840   -6.0767   22.5297 C   0  0  0  0  0  0
  -21.4001   -6.5664   23.8233 C   0  0  0  0  0  0
  -21.3648   -5.6808   24.9184 C   0  0  0  0  0  0
  -21.6038   -4.3071   24.7223 C   0  0  0  0  0  0
  -21.8825   -3.8174   23.4337 C   0  0  0  0  0  0
  -21.9187   -4.6998   22.3402 C   0  0  0  0  0  0
  -22.7830  -13.5213   21.1912 C   0  0  0  0  0  0
  -22.1663   -4.2193   21.0969 F   0  0  0  0  0  0
  -21.5628   -3.4547   25.7727 F   0  0  0  0  0  0
  -30.0071  -13.4271   20.3904 N   0  0  0  0  0  0
  -26.2941  -12.9364   20.3292 N   0  0  0  0  0  0
  -25.9308  -11.6527   20.5796 N   0  0  0  0  0  0
  -22.0486  -12.8154   22.0441 N   0  0  0  0  0  0
  -25.4212  -15.1901   20.4097 N   0  0  0  0  0  0
  -31.8133  -14.7812   20.1333 O   0  0  0  0  0  0
  -21.6636   -6.8908   21.4256 O   0  0  0  0  0  0
  -22.3522  -14.5528   20.6792 O   0  0  0  0  0  0
  -24.6246  -31.8611   23.2038 C   0  0  0  0  0  0
  -25.9093  -32.4800   23.8336 C   0  0  1  0  0  0
  -27.2191  -27.3434   20.0883 C   0  0  0  0  0  0
  -25.5910  -33.8570   24.2271 N   0  0  0  0  0  0
  -23.4186  -30.4806   21.5526 C   0  0  2  0  0  0
  -24.8563  -28.9337   20.1168 C   0  0  0  0  0  0
  -22.7476  -29.4593   22.5029 C   0  0  0  0  0  0
  -18.0272  -28.1356   22.8491 C   0  0  0  0  0  0
  -24.1501  -36.7292   23.2638 C   0  0  0  0  0  0
  -25.9546  -30.7983   21.3684 C   0  0  0  0  0  0
  -26.0296  -29.4271   20.7063 C   0  0  0  0  0  0
  -27.2173  -28.6413   20.6785 C   0  0  0  0  0  0
  -26.0234  -26.8925   19.4882 C   0  0  0  0  0  0
  -24.8511  -27.6650   19.5128 C   0  0  0  0  0  0
  -23.6239  -29.8125   20.1710 C   0  0  0  0  0  0
  -25.4133  -36.3071   24.0322 C   0  0  1  0  0  0
  -20.5884  -28.3646   23.1322 C   0  0  2  0  0  0
  -20.6793  -26.9377   22.5448 C   0  0  0  0  0  0
  -19.5762  -26.6378   21.5229 C   0  0  0  0  0  0
  -18.1909  -26.7906   22.1614 C   0  0  0  0  0  0
  -19.1532  -28.8820   23.2891 C   0  0  0  0  0  0
  -18.9470  -30.1429   23.8905 C   0  0  0  0  0  0
  -17.6478  -30.6588   24.0538 C   0  0  0  0  0  0
  -25.9073  -34.9438   23.5097 C   0  0  0  0  0  0
  -16.5357  -29.9086   23.6337 C   0  0  0  0  0  0
  -16.7262  -28.6495   23.0359 C   0  0  0  0  0  0
  -26.4468  -31.6602   25.0714 C   0  0  0  0  0  0
  -25.3684  -31.3674   26.1426 C   0  0  0  0  0  0
  -27.0336  -30.3038   24.6126 C   0  0  0  0  0  0
  -27.6042  -32.4300   25.7458 C   0  0  0  0  0  0
  -27.5592  -37.1777   24.8454 C   0  0  0  0  0  0
  -21.4201  -29.2997   22.3742 N   0  0  0  0  0  0
  -26.4316  -37.3779   23.9386 N   0  0  0  0  0  0
  -24.6851  -31.0610   22.1000 N   0  0  0  0  0  0
  -23.4189  -28.8178   23.3129 O   0  0  0  0  0  0
  -28.3473  -26.5209   20.0783 O   0  0  0  0  0  0
  -26.5675  -34.8924   22.4689 O   0  0  0  0  0  0
  -23.5421  -32.1406   23.7384 O   0  0  0  0  0  0
  -28.7773  -21.8620   20.5892 C   0  0  0  0  0  0
  -28.8998  -20.4394   20.6561 C   0  0  0  0  0  0
  -28.6860  -21.7106   18.2042 C   0  0  0  0  0  0
  -28.6702  -22.5392   19.3488 C   0  0  0  0  0  0
  -28.9352  -19.6029   19.5018 C   0  0  0  0  0  0
  -28.8348  -20.2917   18.2470 C   0  0  0  0  0  0
  -31.8848  -20.6787   14.9828 C   0  0  0  0  0  0
  -31.1637  -19.6551   14.1125 C   0  0  0  0  0  0
  -30.9066  -20.8613   16.1355 C   0  0  0  0  0  0
  -30.4658  -18.7368   15.1260 C   0  0  0  0  0  0
  -28.6012  -24.0980   19.1496 C   0  0  0  0  0  0
  -28.8903  -18.0288   19.6565 C   0  0  0  0  0  0
  -28.8910  -19.5919   16.8814 C   0  0  0  0  0  0
  -30.0734  -17.2039   20.3294 C   0  0  0  0  0  0
  -28.1783  -25.0713   20.3205 C   0  0  0  0  0  0
  -29.7924  -15.7327   20.5206 N   0  0  0  0  0  0
  -30.2826  -19.5335   16.3661 N   0  3  0  0  0  0
  -31.4696  -12.5106   19.1208 H   0  0  0  0  0  0
  -30.3861  -11.3991   19.9149 H   0  0  0  0  0  0
  -29.7470  -11.6817   17.5001 H   0  0  0  0  0  0
  -29.6297  -13.4131   17.7044 H   0  0  0  0  0  0
  -27.8565  -11.2670   18.8970 H   0  0  0  0  0  0
  -27.3619  -12.5249   17.7964 H   0  0  0  0  0  0
  -27.6465  -14.2368   19.4683 H   0  0  0  0  0  0
  -28.7030  -12.1085   21.4021 H   0  0  0  0  0  0
  -28.4545  -13.7946   21.7889 H   0  0  0  0  0  0
  -25.2794   -9.5661   22.4795 H   0  0  0  0  0  0
  -24.0034   -7.4598   22.7445 H   0  0  0  0  0  0
  -21.0899   -8.8807   19.8907 H   0  0  0  0  0  0
  -22.3788  -10.9708   19.6174 H   0  0  0  0  0  0
  -21.1989   -7.6174   23.9752 H   0  0  0  0  0  0
  -21.1461   -6.0527   25.9087 H   0  0  0  0  0  0
  -22.0607   -2.7644   23.2823 H   0  0  0  0  0  0
  -22.4143  -11.9800   22.4789 H   0  0  0  0  0  0
  -21.1092  -13.1123   22.2665 H   0  0  0  0  0  0
  -24.6515  -15.8402   20.5271 H   0  0  0  0  0  0
  -26.2540  -15.6316   20.0448 H   0  0  0  0  0  0
  -26.7155  -32.5493   23.1083 H   0  0  0  0  0  0
  -24.9928  -33.9691   25.0317 H   0  0  0  0  0  0
  -22.7158  -31.3031   21.4162 H   0  0  0  0  0  0
  -23.3771  -35.9613   23.3297 H   0  0  0  0  0  0
  -24.3591  -36.8942   22.2060 H   0  0  0  0  0  0
  -23.7256  -37.6479   23.6700 H   0  0  0  0  0  0
  -26.0806  -31.5735   20.6099 H   0  0  0  0  0  0
  -26.8360  -30.8461   21.9954 H   0  0  0  0  0  0
  -28.1252  -29.0184   21.1301 H   0  0  0  0  0  0
  -25.9971  -25.9309   18.9959 H   0  0  0  0  0  0
  -23.9457  -27.2742   19.0676 H   0  0  0  0  0  0
  -23.7368  -30.5923   19.4147 H   0  0  0  0  0  0
  -22.7444  -29.2392   19.8766 H   0  0  0  0  0  0
  -25.1290  -36.1919   25.0821 H   0  0  0  0  0  0
  -20.9956  -28.3277   24.1456 H   0  0  0  0  0  0
  -20.5764  -26.2247   23.3632 H   0  0  0  0  0  0
  -21.6648  -26.7488   22.1189 H   0  0  0  0  0  0
  -19.6955  -25.6303   21.1240 H   0  0  0  0  0  0
  -19.6707  -27.3250   20.6792 H   0  0  0  0  0  0
  -17.4207  -26.6641   21.4004 H   0  0  0  0  0  0
  -18.0263  -26.0063   22.9030 H   0  0  0  0  0  0
  -19.7981  -30.7182   24.2314 H   0  0  0  0  0  0
  -17.5058  -31.6280   24.5102 H   0  0  0  0  0  0
  -15.5356  -30.2944   23.7716 H   0  0  0  0  0  0
  -15.8660  -28.0810   22.7065 H   0  0  0  0  0  0
  -24.5948  -30.6933   25.7719 H   0  0  0  0  0  0
  -24.8737  -32.2752   26.4857 H   0  0  0  0  0  0
  -25.8016  -30.8873   27.0219 H   0  0  0  0  0  0
  -26.2905  -29.6737   24.1232 H   0  0  0  0  0  0
  -27.4138  -29.7321   25.4612 H   0  0  0  0  0  0
  -27.8731  -30.4338   23.9287 H   0  0  0  0  0  0
  -27.2759  -33.3667   26.1991 H   0  0  0  0  0  0
  -28.3896  -32.6773   25.0278 H   0  0  0  0  0  0
  -28.0663  -31.8421   26.5391 H   0  0  0  0  0  0
  -28.2578  -38.0115   24.7567 H   0  0  0  0  0  0
  -28.1129  -36.2642   24.6228 H   0  0  0  0  0  0
  -27.2296  -37.1373   25.8854 H   0  0  0  0  0  0
  -20.9419  -29.8691   21.6913 H   0  0  0  0  0  0
  -26.0203  -38.2855   24.1410 H   0  0  0  0  0  0
  -28.7507  -22.4338   21.5055 H   0  0  0  0  0  0
  -28.9349  -19.9758   21.6324 H   0  0  0  0  0  0
  -28.5898  -22.1985   17.2439 H   0  0  0  0  0  0
  -32.0907  -21.6150   14.4615 H   0  0  0  0  0  0
  -32.8315  -20.2819   15.3512 H   0  0  0  0  0  0
  -31.8362  -19.1238   13.4391 H   0  0  0  0  0  0
  -30.4168  -20.1630   13.4995 H   0  0  0  0  0  0
  -30.1486  -21.5762   15.8081 H   0  0  0  0  0  0
  -31.3750  -21.2586   17.0379 H   0  0  0  0  0  0
  -31.1088  -17.8866   15.3615 H   0  0  0  0  0  0
  -29.5304  -18.3370   14.7288 H   0  0  0  0  0  0
  -27.9166  -24.2728   18.3151 H   0  0  0  0  0  0
  -29.5817  -24.4096   18.7817 H   0  0  0  0  0  0
  -28.6873  -17.5605   18.6955 H   0  0  0  0  0  0
  -27.9885  -17.8420   20.2386 H   0  0  0  0  0  0
  -28.2842  -20.1524   16.1667 H   0  0  0  0  0  0
  -28.4396  -18.6010   16.9074 H   0  0  0  0  0  0
  -30.2831  -17.6261   21.3134 H   0  0  0  0  0  0
  -30.9850  -17.3265   19.7440 H   0  0  0  0  0  0
  -28.7944  -24.8473   21.1923 H   0  0  0  0  0  0
  -27.1614  -24.8271   20.6324 H   0  0  0  0  0  0
  -28.8298  -15.4976   20.7086 H   0  0  0  0  0  0
  -30.8227  -19.0704   17.0820 H   0  0  0  0  0  0
  1 25  1  0  0  0
  1 30  2  0  0  0
  1 86  1  0  0  0
  2  3  1  0  0  0
  2 25  1  0  0  0
  2 88  1  0  0  0
  2 89  1  0  0  0
  3  4  1  0  0  0
  3 90  1  0  0  0
  3 91  1  0  0  0
  4  5  1  0  0  0
  4 92  1  0  0  0
  4 93  1  0  0  0
  5  6  1  0  0  0
  5 26  1  0  0  0
  5 94  1  0  0  0
  6 25  1  0  0  0
  6 95  1  0  0  0
  6 96  1  0  0  0
  7  8  2  0  0  0
  7 26  1  0  0  0
  7 29  1  0  0  0
  8  9  1  0  0  0
  8 22  1  0  0  0
  9 10  1  0  0  0
  9 27  2  0  0  0
 10 11  2  0  0  0
 10 15  1  0  0  0
 11 12  1  0  0  0
 11 97  1  0  0  0
 12 13  2  0  0  0
 12 98  1  0  0  0
 13 14  1  0  0  0
 13 31  1  0  0  0
 14 15  2  0  0  0
 14 99  1  0  0  0
 15100  1  0  0  0
 16 17  2  0  0  0
 16 21  1  0  0  0
 16 31  1  0  0  0
 17 18  1  0  0  0
 17101  1  0  0  0
 18 19  2  0  0  0
 18102  1  0  0  0
 19 20  1  0  0  0
 19 24  1  0  0  0
 20 21  2  0  0  0
 20103  1  0  0  0
 21 23  1  0  0  0
 22 28  1  0  0  0
 22 32  2  0  0  0
 26 27  1  0  0  0
 28104  1  0  0  0
 28105  1  0  0  0
 29106  1  0  0  0
 29107  1  0  0  0
 33 34  1  0  0  0
 33 66  1  0  0  0
 33 70  2  0  0  0
 34 36  1  0  0  0
 34 59  1  0  0  0
 34108  1  0  0  0
 35 44  2  0  0  0
 35 45  1  0  0  0
 35 68  1  0  0  0
 36 56  1  0  0  0
 36109  1  0  0  0
 37 39  1  0  0  0
 37 47  1  0  0  0
 37 66  1  0  0  0
 37110  1  0  0  0
 38 43  2  0  0  0
 38 46  1  0  0  0
 38 47  1  0  0  0
 39 64  1  0  0  0
 39 67  2  0  0  0
 40 52  1  0  0  0
 40 53  2  0  0  0
 40 58  1  0  0  0
 41111  1  0  0  0
 41112  1  0  0  0
 41113  1  0  0  0
 41 48  1  0  0  0
 42 43  1  0  0  0
 42 66  1  0  0  0
 42114  1  0  0  0
 42115  1  0  0  0
 43 44  1  0  0  0
 44116  1  0  0  0
 45 46  2  0  0  0
 45117  1  0  0  0
 46118  1  0  0  0
 47119  1  0  0  0
 47120  1  0  0  0
 48 56  1  0  0  0
 48 65  1  0  0  0
 48121  1  0  0  0
 49 50  1  0  0  0
 49 53  1  0  0  0
 49 64  1  0  0  0
 49122  1  0  0  0
 50 51  1  0  0  0
 50123  1  0  0  0
 50124  1  0  0  0
 51 52  1  0  0  0
 51125  1  0  0  0
 51126  1  0  0  0
 52127  1  0  0  0
 52128  1  0  0  0
 53 54  1  0  0  0
 54 55  2  0  0  0
 54129  1  0  0  0
 55 57  1  0  0  0
 55130  1  0  0  0
 56 69  2  0  0  0
 57 58  2  0  0  0
 57131  1  0  0  0
 58132  1  0  0  0
 59 60  1  0  0  0
 59 61  1  0  0  0
 59 62  1  0  0  0
 60133  1  0  0  0
 60134  1  0  0  0
 60135  1  0  0  0
 61136  1  0  0  0
 61137  1  0  0  0
 61138  1  0  0  0
 62139  1  0  0  0
 62140  1  0  0  0
 62141  1  0  0  0
 63 65  1  0  0  0
 63142  1  0  0  0
 63143  1  0  0  0
 63144  1  0  0  0
 64145  1  0  0  0
 65146  1  0  0  0
 68 85  1  0  0  0
 71 72  2  0  0  0
 71 74  1  0  0  0
 71147  1  0  0  0
 72 75  1  0  0  0
 72148  1  0  0  0
 73 74  2  0  0  0
 73 76  1  0  0  0
 73149  1  0  0  0
 74 81  1  0  0  0
 75 76  2  0  0  0
 75 82  1  0  0  0
 76 83  1  0  0  0
 77 78  1  0  0  0
 77 79  1  0  0  0
 77150  1  0  0  0
 77151  1  0  0  0
 78 80  1  0  0  0
 78152  1  0  0  0
 78153  1  0  0  0
 79 87  1  0  0  0
 79154  1  0  0  0
 79155  1  0  0  0
 80 87  1  0  0  0
 80156  1  0  0  0
 80157  1  0  0  0
 81 85  1  0  0  0
 81158  1  0  0  0
 81159  1  0  0  0
 82 84  1  0  0  0
 82160  1  0  0  0
 82161  1  0  0  0
 83162  1  0  0  0
 83163  1  0  0  0
 83 87  1  0  0  0
 84 86  1  0  0  0
 84164  1  0  0  0
 84165  1  0  0  0
 85166  1  0  0  0
 85167  1  0  0  0
 86168  1  0  0  0
 87169  1  0  0  0
M  CHG  1  87   1
M  ISO  4   1 100  68 101  85 101  86 100
M  END
> <chiral flag>
0

> <version>
0

> <s_m_source_file>
/data/baiqing/PycharmProjects/Reinvent-master-3.2/result/LINK_invent/BTK/process_docking_weight1_custom_sum_contain_oxygen_bond_distance_aromatic_linkinvent_7_9_3/rearranged_h_0116.sdf

> <i_m_source_file_index>
43

> <r_mmod_Potential_Energy-OPLS-2005>
-3.56984996795654

> <r_mmod_Stretch_Energy-OPLS-2005>
77.4274597167969

> <r_mmod_Bend_Energy-OPLS-2005>
163.398498535156

> <r_mmod_Torsional_Energy-OPLS-2005>
268.737091064453

> <r_mmod_Improper_Torsional_Energy-OPLS-2005>
6.89793491363525

> <r_mmod_Van_der_Waal_Energy-OPLS-2005>
140.018814086914

> <r_mmod_Electrostatic_Energy-OPLS-2005>
-265.625823974609

> <r_mmod_Solvation_Energy-OPLS-2005>
-443.369293212891

> <b_mmod_Minimization_Converged-OPLS-2005>
0

> <r_mmod_RMS_Derivative-OPLS-2005>
4.93988847732544

$$$$
44
                    3D
 Structure written by MMmdl.
166174  0  0  1  0            999 V2000
  -30.5695  -15.0255   20.3944 C   0  0  0  0  0  0
  -30.4506  -12.6569   19.4860 C   0  0  0  0  0  0
  -29.5343  -12.5326   18.2479 C   0  0  0  0  0  0
  -28.0557  -12.3317   18.6555 C   0  0  0  0  0  0
  -27.6213  -13.2689   19.8178 C   0  0  2  0  0  0
  -28.6744  -13.3359   20.9450 C   0  0  0  0  0  0
  -25.2377  -13.8246   20.5724 C   0  0  0  0  0  0
  -24.1692  -13.0450   20.9238 C   0  0  0  0  0  0
  -24.6328  -11.6934   20.8715 C   0  0  0  0  0  0
  -23.9004  -10.4297   21.0361 C   0  0  0  0  0  0
  -24.3567   -9.4235   21.9149 C   0  0  0  0  0  0
  -23.6281   -8.2231   22.0704 C   0  0  0  0  0  0
  -22.4250   -8.0251   21.3478 C   0  0  0  0  0  0
  -21.9881   -9.0221   20.4580 C   0  0  0  0  0  0
  -22.7169  -10.2131   20.2990 C   0  0  0  0  0  0
  -21.6864   -6.0706   22.5240 C   0  0  0  0  0  0
  -21.4016   -6.5593   23.8179 C   0  0  0  0  0  0
  -21.3692   -5.6731   24.9133 C   0  0  0  0  0  0
  -21.6049   -4.2989   24.7193 C   0  0  0  0  0  0
  -21.8819   -3.8087   23.4318 C   0  0  0  0  0  0
  -21.9204   -4.6921   22.3378 C   0  0  0  0  0  0
  -22.7690  -13.5233   21.1920 C   0  0  0  0  0  0
  -22.1652   -4.2099   21.0956 F   0  0  0  0  0  0
  -21.5673   -3.4493   25.7728 F   0  0  0  0  0  0
  -29.9341  -13.7789   20.3193 N   0  0  0  0  0  0
  -26.2835  -12.9539   20.3173 N   0  0  0  0  0  0
  -25.9267  -11.6641   20.5645 N   0  0  0  0  0  0
  -22.0309  -12.8235   22.0454 N   0  0  0  0  0  0
  -25.4025  -15.1978   20.4180 N   0  0  0  0  0  0
  -31.7938  -15.0191   20.2227 O   0  0  0  0  0  0
  -21.6596   -6.8857   21.4198 O   0  0  0  0  0  0
  -22.3405  -14.5556   20.6767 O   0  0  0  0  0  0
  -24.6403  -31.8394   23.1921 C   0  0  0  0  0  0
  -25.9156  -32.4697   23.8274 C   0  0  1  0  0  0
  -27.2291  -27.1083   20.1586 C   0  0  0  0  0  0
  -25.5941  -33.8512   24.2189 N   0  0  0  0  0  0
  -23.4441  -30.4503   21.5448 C   0  0  2  0  0  0
  -24.8985  -28.8798   20.1101 C   0  0  0  0  0  0
  -22.7553  -29.4419   22.4974 C   0  0  0  0  0  0
  -18.0315  -28.1354   22.8518 C   0  0  0  0  0  0
  -24.1485  -36.7261   23.2626 C   0  0  0  0  0  0
  -25.9982  -30.7050   21.3911 C   0  0  0  0  0  0
  -26.0715  -29.3129   20.7385 C   0  0  0  0  0  0
  -27.2288  -28.4442   20.7468 C   0  0  0  0  0  0
  -26.0272  -26.7852   19.4830 C   0  0  0  0  0  0
  -24.8933  -27.6336   19.4646 C   0  0  0  0  0  0
  -23.6701  -29.7795   20.1627 C   0  0  0  0  0  0
  -25.4124  -36.3044   24.0287 C   0  0  1  0  0  0
  -20.5917  -28.3609   23.1366 C   0  0  2  0  0  0
  -20.6822  -26.9330   22.5462 C   0  0  0  0  0  0
  -19.5795  -26.6348   21.5266 C   0  0  0  0  0  0
  -18.1968  -26.7913   22.1640 C   0  0  0  0  0  0
  -19.1569  -28.8817   23.2921 C   0  0  0  0  0  0
  -18.9448  -30.1464   23.8863 C   0  0  0  0  0  0
  -17.6431  -30.6570   24.0525 C   0  0  0  0  0  0
  -25.9070  -34.9413   23.5040 C   0  0  0  0  0  0
  -16.5332  -29.9011   23.6366 C   0  0  0  0  0  0
  -16.7303  -28.6445   23.0376 C   0  0  0  0  0  0
  -26.4491  -31.6592   25.0729 C   0  0  0  0  0  0
  -25.3666  -31.3813   26.1425 C   0  0  0  0  0  0
  -27.0325  -30.3005   24.6250 C   0  0  0  0  0  0
  -27.6050  -32.4313   25.7543 C   0  0  0  0  0  0
  -27.5575  -37.1788   24.8435 C   0  0  0  0  0  0
  -21.4257  -29.2911   22.3735 N   0  0  0  0  0  0
  -26.4282  -37.3758   23.9392 N   0  0  0  0  0  0
  -24.7157  -31.0190   22.1018 N   0  0  0  0  0  0
  -23.4227  -28.7945   23.3091 O   0  0  0  0  0  0
  -28.3028  -26.1327   20.2851 O   0  0  0  0  0  0
  -26.5614  -34.8892   22.4620 O   0  0  0  0  0  0
  -23.5501  -32.1290   23.7149 O   0  0  0  0  0  0
  -29.0965  -20.3299   20.7538 C   0  0  0  0  0  0
  -29.3508  -21.6979   20.1983 C   0  0  0  0  0  0
  -29.9610  -19.2791   20.3299 C   0  0  0  0  0  0
  -30.3386  -21.3786   19.2708 C   0  0  0  0  0  0
  -31.7879  -18.5816   17.6432 C   0  0  0  0  0  0
  -31.8895  -23.4060   18.9150 C   0  0  0  0  0  0
  -30.1274  -22.8068   17.1490 C   0  0  0  0  0  0
  -30.3659  -17.7341   20.8600 C   0  0  0  0  0  0
  -32.0184  -19.4713   18.8726 C   0  0  0  0  0  0
  -28.3468  -24.6252   19.8138 C   0  0  0  0  0  0
  -28.8118  -23.2245   20.6980 C   0  0  2  0  0  0
  -31.0392  -22.2942   18.2737 C   0  0  0  0  0  0
  -30.7793  -20.0208   19.4468 N   0  0  0  0  0  0
  -29.8732  -16.2735   20.4553 N   0  0  0  0  0  0
  -29.8067  -23.6457   21.6979 N   0  3  0  0  0  0
  -31.4754  -12.8361   19.1567 H   0  0  0  0  0  0
  -30.4847  -11.7340   20.0646 H   0  0  0  0  0  0
  -29.8751  -11.7097   17.6166 H   0  0  0  0  0  0
  -29.6162  -13.4379   17.6461 H   0  0  0  0  0  0
  -27.9334  -11.2942   18.9583 H   0  0  0  0  0  0
  -27.4042  -12.4691   17.7900 H   0  0  0  0  0  0
  -27.5671  -14.2690   19.3771 H   0  0  0  0  0  0
  -28.7856  -12.3565   21.4203 H   0  0  0  0  0  0
  -28.3657  -14.0334   21.7235 H   0  0  0  0  0  0
  -25.2733   -9.5748   22.4708 H   0  0  0  0  0  0
  -23.9987   -7.4647   22.7439 H   0  0  0  0  0  0
  -21.0802   -8.8733   19.8920 H   0  0  0  0  0  0
  -22.3609  -10.9645   19.6063 H   0  0  0  0  0  0
  -21.1951   -7.6085   23.9690 H   0  0  0  0  0  0
  -21.1554   -6.0429   25.9052 H   0  0  0  0  0  0
  -22.0589   -2.7562   23.2798 H   0  0  0  0  0  0
  -22.3854  -11.9966   22.5008 H   0  0  0  0  0  0
  -21.0886  -13.1243   22.2535 H   0  0  0  0  0  0
  -24.6356  -15.8482   20.5451 H   0  0  0  0  0  0
  -26.2399  -15.6479   20.0752 H   0  0  0  0  0  0
  -26.7170  -32.5271   23.0943 H   0  0  0  0  0  0
  -25.0143  -33.9650   25.0350 H   0  0  0  0  0  0
  -22.7410  -31.2761   21.3986 H   0  0  0  0  0  0
  -23.3781  -35.9558   23.3259 H   0  0  0  0  0  0
  -24.3564  -36.8947   22.2052 H   0  0  0  0  0  0
  -23.7199  -37.6424   23.6693 H   0  0  0  0  0  0
  -26.1291  -31.4539   20.6085 H   0  0  0  0  0  0
  -26.8772  -30.7723   22.0198 H   0  0  0  0  0  0
  -28.1094  -28.7844   21.2724 H   0  0  0  0  0  0
  -25.9165  -25.8345   18.9875 H   0  0  0  0  0  0
  -23.9982  -27.3042   18.9549 H   0  0  0  0  0  0
  -23.7917  -30.5599   19.4107 H   0  0  0  0  0  0
  -22.7880  -29.2136   19.8568 H   0  0  0  0  0  0
  -25.1317  -36.1889   25.0772 H   0  0  0  0  0  0
  -20.9976  -28.3136   24.1503 H   0  0  0  0  0  0
  -20.5849  -26.2116   23.3604 H   0  0  0  0  0  0
  -21.6666  -26.7449   22.1162 H   0  0  0  0  0  0
  -19.6950  -25.6268   21.1285 H   0  0  0  0  0  0
  -19.6805  -27.3175   20.6820 H   0  0  0  0  0  0
  -17.4274  -26.6744   21.4001 H   0  0  0  0  0  0
  -18.0302  -26.0041   22.9008 H   0  0  0  0  0  0
  -19.7896  -30.7356   24.2172 H   0  0  0  0  0  0
  -17.4940  -31.6265   24.5071 H   0  0  0  0  0  0
  -15.5316  -30.2847   23.7737 H   0  0  0  0  0  0
  -15.8719  -28.0744   22.7073 H   0  0  0  0  0  0
  -24.5869  -30.7111   25.7773 H   0  0  0  0  0  0
  -24.8799  -32.3004   26.4708 H   0  0  0  0  0  0
  -25.7939  -30.9116   27.0287 H   0  0  0  0  0  0
  -26.2903  -29.6804   24.1205 H   0  0  0  0  0  0
  -27.3912  -29.7240   25.4776 H   0  0  0  0  0  0
  -27.8822  -30.4298   23.9551 H   0  0  0  0  0  0
  -27.2686  -33.3654   26.2044 H   0  0  0  0  0  0
  -28.3944  -32.6777   25.0436 H   0  0  0  0  0  0
  -28.0576  -31.8445   26.5539 H   0  0  0  0  0  0
  -28.2541  -38.0131   24.7537 H   0  0  0  0  0  0
  -28.1125  -36.2664   24.6220 H   0  0  0  0  0  0
  -27.2265  -37.1364   25.8820 H   0  0  0  0  0  0
  -20.9458  -29.8505   21.6825 H   0  0  0  0  0  0
  -26.0165  -38.2805   24.1496 H   0  0  0  0  0  0
  -28.3713  -20.1435   21.5387 H   0  0  0  0  0  0
  -32.7088  -18.0617   17.3778 H   0  0  0  0  0  0
  -31.4822  -19.1681   16.7769 H   0  0  0  0  0  0
  -31.0330  -17.8164   17.8256 H   0  0  0  0  0  0
  -32.4967  -23.0185   19.7333 H   0  0  0  0  0  0
  -31.3074  -24.2436   19.2900 H   0  0  0  0  0  0
  -32.5849  -23.8171   18.1817 H   0  0  0  0  0  0
  -29.9407  -22.0104   16.4269 H   0  0  0  0  0  0
  -30.6035  -23.6153   16.5939 H   0  0  0  0  0  0
  -29.1628  -23.1606   17.5025 H   0  0  0  0  0  0
  -30.1472  -17.7519   21.9323 H   0  0  0  0  0  0
  -31.4548  -17.6403   20.8841 H   0  0  0  0  0  0
  -32.7423  -20.2540   18.6508 H   0  0  0  0  0  0
  -32.5520  -18.9252   19.6453 H   0  0  0  0  0  0
  -27.4199  -24.3766   19.3015 H   0  0  0  0  0  0
  -29.0580  -24.7058   18.9971 H   0  0  0  0  0  0
  -27.9270  -22.9825   21.2925 H   0  0  0  0  0  0
  -31.7661  -21.7414   17.6909 H   0  0  0  0  0  0
  -28.8675  -16.1905   20.4096 H   0  0  0  0  0  0
  -30.6852  -23.8560   21.2573 H   0  0  0  0  0  0
  -29.9624  -22.9026   22.3589 H   0  0  0  0  0  0
  -29.4902  -24.4624   22.1897 H   0  0  0  0  0  0
  1 25  1  0  0  0
  1 30  2  0  0  0
  1 84  1  0  0  0
  2  3  1  0  0  0
  2 25  1  0  0  0
  2 86  1  0  0  0
  2 87  1  0  0  0
  3  4  1  0  0  0
  3 88  1  0  0  0
  3 89  1  0  0  0
  4  5  1  0  0  0
  4 90  1  0  0  0
  4 91  1  0  0  0
  5  6  1  0  0  0
  5 26  1  0  0  0
  5 92  1  0  0  0
  6 25  1  0  0  0
  6 93  1  0  0  0
  6 94  1  0  0  0
  7  8  2  0  0  0
  7 26  1  0  0  0
  7 29  1  0  0  0
  8  9  1  0  0  0
  8 22  1  0  0  0
  9 10  1  0  0  0
  9 27  2  0  0  0
 10 11  2  0  0  0
 10 15  1  0  0  0
 11 12  1  0  0  0
 11 95  1  0  0  0
 12 13  2  0  0  0
 12 96  1  0  0  0
 13 14  1  0  0  0
 13 31  1  0  0  0
 14 15  2  0  0  0
 14 97  1  0  0  0
 15 98  1  0  0  0
 16 17  2  0  0  0
 16 21  1  0  0  0
 16 31  1  0  0  0
 17 18  1  0  0  0
 17 99  1  0  0  0
 18 19  2  0  0  0
 18100  1  0  0  0
 19 20  1  0  0  0
 19 24  1  0  0  0
 20 21  2  0  0  0
 20101  1  0  0  0
 21 23  1  0  0  0
 22 28  1  0  0  0
 22 32  2  0  0  0
 26 27  1  0  0  0
 28102  1  0  0  0
 28103  1  0  0  0
 29104  1  0  0  0
 29105  1  0  0  0
 33 34  1  0  0  0
 33 66  1  0  0  0
 33 70  2  0  0  0
 34 36  1  0  0  0
 34 59  1  0  0  0
 34106  1  0  0  0
 35 44  2  0  0  0
 35 45  1  0  0  0
 35 68  1  0  0  0
 36 56  1  0  0  0
 36107  1  0  0  0
 37 39  1  0  0  0
 37 47  1  0  0  0
 37 66  1  0  0  0
 37108  1  0  0  0
 38 43  2  0  0  0
 38 46  1  0  0  0
 38 47  1  0  0  0
 39 64  1  0  0  0
 39 67  2  0  0  0
 40 52  1  0  0  0
 40 53  2  0  0  0
 40 58  1  0  0  0
 41109  1  0  0  0
 41110  1  0  0  0
 41111  1  0  0  0
 41 48  1  0  0  0
 42 43  1  0  0  0
 42 66  1  0  0  0
 42112  1  0  0  0
 42113  1  0  0  0
 43 44  1  0  0  0
 44114  1  0  0  0
 45 46  2  0  0  0
 45115  1  0  0  0
 46116  1  0  0  0
 47117  1  0  0  0
 47118  1  0  0  0
 48 56  1  0  0  0
 48 65  1  0  0  0
 48119  1  0  0  0
 49 50  1  0  0  0
 49 53  1  0  0  0
 49 64  1  0  0  0
 49120  1  0  0  0
 50 51  1  0  0  0
 50121  1  0  0  0
 50122  1  0  0  0
 51 52  1  0  0  0
 51123  1  0  0  0
 51124  1  0  0  0
 52125  1  0  0  0
 52126  1  0  0  0
 53 54  1  0  0  0
 54 55  2  0  0  0
 54127  1  0  0  0
 55 57  1  0  0  0
 55128  1  0  0  0
 56 69  2  0  0  0
 57 58  2  0  0  0
 57129  1  0  0  0
 58130  1  0  0  0
 59 60  1  0  0  0
 59 61  1  0  0  0
 59 62  1  0  0  0
 60131  1  0  0  0
 60132  1  0  0  0
 60133  1  0  0  0
 61134  1  0  0  0
 61135  1  0  0  0
 61136  1  0  0  0
 62137  1  0  0  0
 62138  1  0  0  0
 62139  1  0  0  0
 63 65  1  0  0  0
 63140  1  0  0  0
 63141  1  0  0  0
 63142  1  0  0  0
 64143  1  0  0  0
 65144  1  0  0  0
 68 80  1  0  0  0
 71 72  1  0  0  0
 71 73  2  0  0  0
 71145  1  0  0  0
 72 74  2  0  0  0
 72 81  1  0  0  0
 73 78  1  0  0  0
 73 83  1  0  0  0
 74 82  1  0  0  0
 74 83  1  0  0  0
 75 79  1  0  0  0
 75146  1  0  0  0
 75147  1  0  0  0
 75148  1  0  0  0
 76149  1  0  0  0
 76150  1  0  0  0
 76151  1  0  0  0
 76 82  1  0  0  0
 77 82  1  0  0  0
 77152  1  0  0  0
 77153  1  0  0  0
 77154  1  0  0  0
 78 84  1  0  0  0
 78155  1  0  0  0
 78156  1  0  0  0
 79 83  1  0  0  0
 79157  1  0  0  0
 79158  1  0  0  0
 80 81  1  0  0  0
 80159  1  0  0  0
 80160  1  0  0  0
 81 85  1  0  0  0
 81161  1  0  0  0
 82162  1  0  0  0
 84163  1  0  0  0
 85164  1  0  0  0
 85165  1  0  0  0
 85166  1  0  0  0
M  CHG  1  85   1
M  ISO  4   1 100  68 101  80 101  84 100
M  END
> <chiral flag>
0

> <version>
0

> <s_m_source_file>
/data/baiqing/PycharmProjects/Reinvent-master-3.2/result/LINK_invent/BTK/process_docking_weight1_custom_sum_contain_oxygen_bond_distance_aromatic_linkinvent_7_9_3/rearranged_h_0116.sdf

> <i_m_source_file_index>
44

> <r_mmod_Potential_Energy-OPLS-2005>
376.289672851562

> <r_mmod_Stretch_Energy-OPLS-2005>
321.258697509766

> <r_mmod_Bend_Energy-OPLS-2005>
336.512176513672

> <r_mmod_Torsional_Energy-OPLS-2005>
264.765899658203

> <r_mmod_Improper_Torsional_Energy-OPLS-2005>
8.51894283294678

> <r_mmod_Van_der_Waal_Energy-OPLS-2005>
109.506958007812

> <r_mmod_Electrostatic_Energy-OPLS-2005>
-448.193115234375

> <r_mmod_Solvation_Energy-OPLS-2005>
-452.005310058594

> <b_mmod_Minimization_Converged-OPLS-2005>
0

> <r_mmod_RMS_Derivative-OPLS-2005>
7.44068622589111

$$$$
45
                    3D
 Structure written by MMmdl.
174182  0  0  1  0            999 V2000
  -30.6782  -14.5305   20.4704 C   0  0  0  0  0  0
  -30.4310  -12.2960   19.4648 C   0  0  0  0  0  0
  -29.5176  -12.4208   18.2275 C   0  0  0  0  0  0
  -28.0277  -12.3302   18.6276 C   0  0  0  0  0  0
  -27.6575  -13.2016   19.8625 C   0  0  2  0  0  0
  -28.7005  -13.0488   20.9934 C   0  0  0  0  0  0
  -25.2589  -13.8132   20.5687 C   0  0  0  0  0  0
  -24.1841  -13.0423   20.9204 C   0  0  0  0  0  0
  -24.6385  -11.6891   20.8747 C   0  0  0  0  0  0
  -23.9051  -10.4282   21.0412 C   0  0  0  0  0  0
  -24.3608   -9.4203   21.9192 C   0  0  0  0  0  0
  -23.6293   -8.2233   22.0757 C   0  0  0  0  0  0
  -22.4272   -8.0268   21.3553 C   0  0  0  0  0  0
  -21.9907   -9.0238   20.4655 C   0  0  0  0  0  0
  -22.7222  -10.2125   20.3065 C   0  0  0  0  0  0
  -21.6839   -6.0733   22.5284 C   0  0  0  0  0  0
  -21.4001   -6.5635   23.8216 C   0  0  0  0  0  0
  -21.3670   -5.6792   24.9186 C   0  0  0  0  0  0
  -21.6053   -4.3061   24.7234 C   0  0  0  0  0  0
  -21.8813   -3.8146   23.4356 C   0  0  0  0  0  0
  -21.9194   -4.6962   22.3417 C   0  0  0  0  0  0
  -22.7868  -13.5245   21.1849 C   0  0  0  0  0  0
  -22.1658   -4.2147   21.0994 F   0  0  0  0  0  0
  -21.5649   -3.4548   25.7750 F   0  0  0  0  0  0
  -30.0273  -13.3348   20.4267 N   0  0  0  0  0  0
  -26.3012  -12.9285   20.3325 N   0  0  0  0  0  0
  -25.9306  -11.6462   20.5773 N   0  0  0  0  0  0
  -22.0486  -12.8264   22.0402 N   0  0  0  0  0  0
  -25.4307  -15.1849   20.4088 N   0  0  0  0  0  0
  -31.8509  -14.6590   20.1110 O   0  0  0  0  0  0
  -21.6642   -6.8864   21.4239 O   0  0  0  0  0  0
  -22.3577  -14.5558   20.6682 O   0  0  0  0  0  0
  -24.6154  -31.8687   23.2099 C   0  0  0  0  0  0
  -25.9039  -32.4831   23.8386 C   0  0  1  0  0  0
  -27.2331  -27.4223   20.1094 C   0  0  0  0  0  0
  -25.5879  -33.8624   24.2325 N   0  0  0  0  0  0
  -23.4039  -30.4928   21.5511 C   0  0  2  0  0  0
  -24.8500  -28.9596   20.1147 C   0  0  0  0  0  0
  -22.7423  -29.4666   22.4996 C   0  0  0  0  0  0
  -18.0280  -28.1391   22.8508 C   0  0  0  0  0  0
  -24.1489  -36.7303   23.2649 C   0  0  0  0  0  0
  -25.9351  -30.8307   21.3671 C   0  0  0  0  0  0
  -26.0110  -29.4657   20.7121 C   0  0  0  0  0  0
  -27.2049  -28.7082   20.6993 C   0  0  0  0  0  0
  -26.0517  -26.9326   19.5063 C   0  0  0  0  0  0
  -24.8663  -27.6924   19.5082 C   0  0  0  0  0  0
  -23.6129  -29.8276   20.1650 C   0  0  0  0  0  0
  -25.4104  -36.3120   24.0364 C   0  0  1  0  0  0
  -20.5877  -28.3663   23.1337 C   0  0  2  0  0  0
  -20.6772  -26.9393   22.5434 C   0  0  0  0  0  0
  -19.5747  -26.6384   21.5238 C   0  0  0  0  0  0
  -18.1920  -26.7950   22.1630 C   0  0  0  0  0  0
  -19.1529  -28.8839   23.2931 C   0  0  0  0  0  0
  -18.9459  -30.1448   23.8932 C   0  0  0  0  0  0
  -17.6466  -30.6589   24.0576 C   0  0  0  0  0  0
  -25.9028  -34.9480   23.5142 C   0  0  0  0  0  0
  -16.5350  -29.9104   23.6331 C   0  0  0  0  0  0
  -16.7267  -28.6517   23.0349 C   0  0  0  0  0  0
  -26.4440  -31.6613   25.0723 C   0  0  0  0  0  0
  -25.3688  -31.3743   26.1463 C   0  0  0  0  0  0
  -27.0266  -30.3055   24.6104 C   0  0  0  0  0  0
  -27.6022  -32.4321   25.7471 C   0  0  0  0  0  0
  -27.5594  -37.1796   24.8463 C   0  0  0  0  0  0
  -21.4147  -29.3043   22.3747 N   0  0  0  0  0  0
  -26.4294  -37.3801   23.9427 N   0  0  0  0  0  0
  -24.6694  -31.0782   22.1009 N   0  0  0  0  0  0
  -23.4211  -28.8218   23.3034 O   0  0  0  0  0  0
  -28.4028  -26.6820   20.1360 O   0  0  0  0  0  0
  -26.5596  -34.8935   22.4711 O   0  0  0  0  0  0
  -23.5333  -32.1436   23.7487 O   0  0  0  0  0  0
  -29.2932  -19.7713   19.4016 C   0  0  0  0  0  0
  -29.4656  -18.6848   18.3423 C   0  0  0  0  0  0
  -29.9956  -18.1014   21.1808 C   0  0  0  0  0  0
  -30.2233  -19.5482   20.6116 C   0  0  2  0  0  0
  -29.1925  -17.2840   18.9159 C   0  0  2  0  0  0
  -30.1400  -16.9788   20.1104 C   0  0  2  0  0  0
  -29.2822  -16.2614   17.7770 C   0  0  0  0  0  0
  -30.7896  -20.4233   22.9553 C   0  0  0  0  0  0
  -30.2986  -25.2325   21.8508 C   0  0  0  0  0  0
  -30.5331  -24.6474   19.4107 C   0  0  0  0  0  0
  -30.4637  -22.1296   21.0901 C   0  0  0  0  0  0
  -28.2628  -25.2599   20.3367 C   0  0  0  0  0  0
  -30.0420  -20.7167   21.6407 C   0  0  1  0  0  0
  -29.6142  -24.5346   20.6502 C   0  0  0  0  0  0
  -29.8906  -15.6159   20.6538 N   0  0  0  0  0  0
  -29.3256  -23.0923   20.9889 N   0  3  0  0  0  0
  -31.4800  -12.3801   19.1736 H   0  0  0  0  0  0
  -30.3274  -11.3083   19.9173 H   0  0  0  0  0  0
  -29.7539  -11.6259   17.5186 H   0  0  0  0  0  0
  -29.7278  -13.3471   17.6974 H   0  0  0  0  0  0
  -27.8281  -11.2819   18.8515 H   0  0  0  0  0  0
  -27.3913  -12.5797   17.7777 H   0  0  0  0  0  0
  -27.6726  -14.2377   19.5333 H   0  0  0  0  0  0
  -28.6791  -12.0358   21.3975 H   0  0  0  0  0  0
  -28.4708  -13.7111   21.8302 H   0  0  0  0  0  0
  -25.2744   -9.5700   22.4769 H   0  0  0  0  0  0
  -24.0012   -7.4628   22.7464 H   0  0  0  0  0  0
  -21.0838   -8.8732   19.8960 H   0  0  0  0  0  0
  -22.3651  -10.9663   19.6178 H   0  0  0  0  0  0
  -21.1958   -7.6132   23.9717 H   0  0  0  0  0  0
  -21.1516   -6.0529   25.9093 H   0  0  0  0  0  0
  -22.0586   -2.7602   23.2859 H   0  0  0  0  0  0
  -22.4077  -11.9935   22.4837 H   0  0  0  0  0  0
  -21.1094  -13.1285   22.2542 H   0  0  0  0  0  0
  -24.6585  -15.8339   20.5145 H   0  0  0  0  0  0
  -26.2699  -15.6237   20.0522 H   0  0  0  0  0  0
  -26.7121  -32.5529   23.1155 H   0  0  0  0  0  0
  -25.0012  -33.9777   25.0459 H   0  0  0  0  0  0
  -22.6933  -31.3106   21.4133 H   0  0  0  0  0  0
  -23.3769  -35.9620   23.3304 H   0  0  0  0  0  0
  -24.3588  -36.8911   22.2066 H   0  0  0  0  0  0
  -23.7224  -37.6506   23.6638 H   0  0  0  0  0  0
  -26.0496  -31.5991   20.6012 H   0  0  0  0  0  0
  -26.8231  -30.8784   21.9851 H   0  0  0  0  0  0
  -28.0999  -29.0940   21.1675 H   0  0  0  0  0  0
  -26.0219  -25.9667   19.0254 H   0  0  0  0  0  0
  -23.9746  -27.2948   19.0446 H   0  0  0  0  0  0
  -23.7224  -30.6054   19.4084 H   0  0  0  0  0  0
  -22.7360  -29.2509   19.8651 H   0  0  0  0  0  0
  -25.1282  -36.1987   25.0860 H   0  0  0  0  0  0
  -20.9947  -28.3212   24.1466 H   0  0  0  0  0  0
  -20.5677  -26.2256   23.3616 H   0  0  0  0  0  0
  -21.6646  -26.7444   22.1208 H   0  0  0  0  0  0
  -19.6901  -25.6302   21.1244 H   0  0  0  0  0  0
  -19.6710  -27.3221   20.6795 H   0  0  0  0  0  0
  -17.4203  -26.6741   21.4011 H   0  0  0  0  0  0
  -18.0279  -26.0073   22.8994 H   0  0  0  0  0  0
  -19.7942  -30.7265   24.2297 H   0  0  0  0  0  0
  -17.5026  -31.6273   24.5175 H   0  0  0  0  0  0
  -15.5359  -30.3018   23.7642 H   0  0  0  0  0  0
  -15.8668  -28.0853   22.7045 H   0  0  0  0  0  0
  -24.5858  -30.7102   25.7785 H   0  0  0  0  0  0
  -24.8875  -32.2916   26.4866 H   0  0  0  0  0  0
  -25.8008  -30.8923   27.0246 H   0  0  0  0  0  0
  -26.2822  -29.6845   24.1109 H   0  0  0  0  0  0
  -27.3999  -29.7262   25.4560 H   0  0  0  0  0  0
  -27.8672  -30.4391   23.9294 H   0  0  0  0  0  0
  -27.2649  -33.3608   26.2075 H   0  0  0  0  0  0
  -28.3793  -32.6899   25.0268 H   0  0  0  0  0  0
  -28.0726  -31.8434   26.5353 H   0  0  0  0  0  0
  -28.2585  -38.0118   24.7527 H   0  0  0  0  0  0
  -28.1118  -36.2646   24.6241 H   0  0  0  0  0  0
  -27.2318  -37.1390   25.8869 H   0  0  0  0  0  0
  -20.9285  -29.8760   21.6972 H   0  0  0  0  0  0
  -26.0196  -38.2886   24.1434 H   0  0  0  0  0  0
  -28.2524  -19.7959   19.7292 H   0  0  0  0  0  0
  -29.4864  -20.7351   18.9298 H   0  0  0  0  0  0
  -30.4731  -18.7360   17.9256 H   0  0  0  0  0  0
  -28.7840  -18.8921   17.5161 H   0  0  0  0  0  0
  -29.0081  -18.0440   21.6386 H   0  0  0  0  0  0
  -30.7120  -17.8970   21.9766 H   0  0  0  0  0  0
  -31.2535  -19.5845   20.2537 H   0  0  0  0  0  0
  -28.1643  -17.2734   19.2834 H   0  0  0  0  0  0
  -31.1639  -17.0296   19.7336 H   0  0  0  0  0  0
  -30.3037  -16.1600   17.4071 H   0  0  0  0  0  0
  -28.6499  -16.5502   16.9369 H   0  0  0  0  0  0
  -28.9369  -15.2877   18.1019 H   0  0  0  0  0  0
  -30.3553  -19.5708   23.4773 H   0  0  0  0  0  0
  -30.7357  -21.2655   23.6451 H   0  0  0  0  0  0
  -31.8436  -20.2067   22.7748 H   0  0  0  0  0  0
  -30.4621  -26.2923   21.6504 H   0  0  0  0  0  0
  -31.2800  -24.8119   22.0727 H   0  0  0  0  0  0
  -29.6980  -25.1699   22.7594 H   0  0  0  0  0  0
  -30.6552  -25.6897   19.1097 H   0  0  0  0  0  0
  -30.1264  -24.1100   18.5533 H   0  0  0  0  0  0
  -31.5358  -24.2636   19.6017 H   0  0  0  0  0  0
  -30.9522  -22.0297   20.1198 H   0  0  0  0  0  0
  -31.2228  -22.5659   21.7403 H   0  0  0  0  0  0
  -27.5634  -25.0919   21.1583 H   0  0  0  0  0  0
  -27.8243  -24.8064   19.4466 H   0  0  0  0  0  0
  -28.9829  -20.7511   21.9025 H   0  0  0  0  0  0
  -28.9532  -15.4232   20.9717 H   0  0  0  0  0  0
  -28.8356  -23.0697   21.8716 H   0  0  0  0  0  0
  -28.6864  -22.7211   20.3018 H   0  0  0  0  0  0
  1 25  1  0  0  0
  1 30  2  0  0  0
  1 85  1  0  0  0
  2  3  1  0  0  0
  2 25  1  0  0  0
  2 87  1  0  0  0
  2 88  1  0  0  0
  3  4  1  0  0  0
  3 89  1  0  0  0
  3 90  1  0  0  0
  4  5  1  0  0  0
  4 91  1  0  0  0
  4 92  1  0  0  0
  5  6  1  0  0  0
  5 26  1  0  0  0
  5 93  1  0  0  0
  6 25  1  0  0  0
  6 94  1  0  0  0
  6 95  1  0  0  0
  7  8  2  0  0  0
  7 26  1  0  0  0
  7 29  1  0  0  0
  8  9  1  0  0  0
  8 22  1  0  0  0
  9 10  1  0  0  0
  9 27  2  0  0  0
 10 11  2  0  0  0
 10 15  1  0  0  0
 11 12  1  0  0  0
 11 96  1  0  0  0
 12 13  2  0  0  0
 12 97  1  0  0  0
 13 14  1  0  0  0
 13 31  1  0  0  0
 14 15  2  0  0  0
 14 98  1  0  0  0
 15 99  1  0  0  0
 16 17  2  0  0  0
 16 21  1  0  0  0
 16 31  1  0  0  0
 17 18  1  0  0  0
 17100  1  0  0  0
 18 19  2  0  0  0
 18101  1  0  0  0
 19 20  1  0  0  0
 19 24  1  0  0  0
 20 21  2  0  0  0
 20102  1  0  0  0
 21 23  1  0  0  0
 22 28  1  0  0  0
 22 32  2  0  0  0
 26 27  1  0  0  0
 28103  1  0  0  0
 28104  1  0  0  0
 29105  1  0  0  0
 29106  1  0  0  0
 33 34  1  0  0  0
 33 66  1  0  0  0
 33 70  2  0  0  0
 34 36  1  0  0  0
 34 59  1  0  0  0
 34107  1  0  0  0
 35 44  2  0  0  0
 35 45  1  0  0  0
 35 68  1  0  0  0
 36 56  1  0  0  0
 36108  1  0  0  0
 37 39  1  0  0  0
 37 47  1  0  0  0
 37 66  1  0  0  0
 37109  1  0  0  0
 38 43  2  0  0  0
 38 46  1  0  0  0
 38 47  1  0  0  0
 39 64  1  0  0  0
 39 67  2  0  0  0
 40 52  1  0  0  0
 40 53  2  0  0  0
 40 58  1  0  0  0
 41110  1  0  0  0
 41111  1  0  0  0
 41112  1  0  0  0
 41 48  1  0  0  0
 42 43  1  0  0  0
 42 66  1  0  0  0
 42113  1  0  0  0
 42114  1  0  0  0
 43 44  1  0  0  0
 44115  1  0  0  0
 45 46  2  0  0  0
 45116  1  0  0  0
 46117  1  0  0  0
 47118  1  0  0  0
 47119  1  0  0  0
 48 56  1  0  0  0
 48 65  1  0  0  0
 48120  1  0  0  0
 49 50  1  0  0  0
 49 53  1  0  0  0
 49 64  1  0  0  0
 49121  1  0  0  0
 50 51  1  0  0  0
 50122  1  0  0  0
 50123  1  0  0  0
 51 52  1  0  0  0
 51124  1  0  0  0
 51125  1  0  0  0
 52126  1  0  0  0
 52127  1  0  0  0
 53 54  1  0  0  0
 54 55  2  0  0  0
 54128  1  0  0  0
 55 57  1  0  0  0
 55129  1  0  0  0
 56 69  2  0  0  0
 57 58  2  0  0  0
 57130  1  0  0  0
 58131  1  0  0  0
 59 60  1  0  0  0
 59 61  1  0  0  0
 59 62  1  0  0  0
 60132  1  0  0  0
 60133  1  0  0  0
 60134  1  0  0  0
 61135  1  0  0  0
 61136  1  0  0  0
 61137  1  0  0  0
 62138  1  0  0  0
 62139  1  0  0  0
 62140  1  0  0  0
 63 65  1  0  0  0
 63141  1  0  0  0
 63142  1  0  0  0
 63143  1  0  0  0
 64144  1  0  0  0
 65145  1  0  0  0
 68 82  1  0  0  0
 71 72  1  0  0  0
 71146  1  0  0  0
 71147  1  0  0  0
 71 74  1  0  0  0
 72 75  1  0  0  0
 72148  1  0  0  0
 72149  1  0  0  0
 73 74  1  0  0  0
 73 76  1  0  0  0
 73150  1  0  0  0
 73151  1  0  0  0
 74 83  1  0  0  0
 74152  1  0  0  0
 75 76  1  0  0  0
 75 77  1  0  0  0
 75153  1  0  0  0
 76 85  1  0  0  0
 76154  1  0  0  0
 77155  1  0  0  0
 77156  1  0  0  0
 77157  1  0  0  0
 78158  1  0  0  0
 78159  1  0  0  0
 78160  1  0  0  0
 78 83  1  0  0  0
 79161  1  0  0  0
 79162  1  0  0  0
 79163  1  0  0  0
 79 84  1  0  0  0
 80 84  1  0  0  0
 80164  1  0  0  0
 80165  1  0  0  0
 80166  1  0  0  0
 81 83  1  0  0  0
 81 86  1  0  0  0
 81167  1  0  0  0
 81168  1  0  0  0
 82 84  1  0  0  0
 82169  1  0  0  0
 82170  1  0  0  0
 83171  1  0  0  0
 84 86  1  0  0  0
 85172  1  0  0  0
 86173  1  0  0  0
 86174  1  0  0  0
M  CHG  1  86   1
M  ISO  4   1 100  68 101  82 101  85 100
M  END
> <chiral flag>
0

> <version>
0

> <s_m_source_file>
/data/baiqing/PycharmProjects/Reinvent-master-3.2/result/LINK_invent/BTK/process_docking_weight1_custom_sum_contain_oxygen_bond_distance_aromatic_linkinvent_7_9_3/rearranged_h_0116.sdf

> <i_m_source_file_index>
45

> <r_mmod_Potential_Energy-OPLS-2005>
-79.0550384521484

> <r_mmod_Stretch_Energy-OPLS-2005>
48.2550621032715

> <r_mmod_Bend_Energy-OPLS-2005>
108.602615356445

> <r_mmod_Torsional_Energy-OPLS-2005>
272.166961669922

> <r_mmod_Improper_Torsional_Energy-OPLS-2005>
7.5673942565918

> <r_mmod_Van_der_Waal_Energy-OPLS-2005>
135.802505493164

> <r_mmod_Electrostatic_Energy-OPLS-2005>
-247.169082641602

> <r_mmod_Solvation_Energy-OPLS-2005>
-427.499389648438

> <b_mmod_Minimization_Converged-OPLS-2005>
0

> <r_mmod_RMS_Derivative-OPLS-2005>
2.6217634677887

$$$$
46
                    3D
 Structure written by MMmdl.
177185  0  0  1  0            999 V2000
  -30.7412  -14.5429   20.4978 C   0  0  0  0  0  0
  -30.4216  -12.3358   19.4368 C   0  0  0  0  0  0
  -29.4892  -12.4535   18.2162 C   0  0  0  0  0  0
  -28.0252  -12.2476   18.6434 C   0  0  0  0  0  0
  -27.6304  -13.1508   19.8360 C   0  0  2  0  0  0
  -28.6916  -13.1078   20.9704 C   0  0  0  0  0  0
  -25.2583  -13.7965   20.5631 C   0  0  0  0  0  0
  -24.1834  -13.0343   20.9240 C   0  0  0  0  0  0
  -24.6355  -11.6803   20.8804 C   0  0  0  0  0  0
  -23.8998  -10.4247   21.0420 C   0  0  0  0  0  0
  -24.3562   -9.4170   21.9176 C   0  0  0  0  0  0
  -23.6268   -8.2200   22.0723 C   0  0  0  0  0  0
  -22.4261   -8.0236   21.3504 C   0  0  0  0  0  0
  -21.9872   -9.0219   20.4635 C   0  0  0  0  0  0
  -22.7173  -10.2112   20.3060 C   0  0  0  0  0  0
  -21.6854   -6.0720   22.5285 C   0  0  0  0  0  0
  -21.4037   -6.5625   23.8222 C   0  0  0  0  0  0
  -21.3663   -5.6759   24.9163 C   0  0  0  0  0  0
  -21.6061   -4.3024   24.7223 C   0  0  0  0  0  0
  -21.8809   -3.8137   23.4327 C   0  0  0  0  0  0
  -21.9184   -4.6952   22.3397 C   0  0  0  0  0  0
  -22.7871  -13.5217   21.1843 C   0  0  0  0  0  0
  -22.1635   -4.2145   21.0964 F   0  0  0  0  0  0
  -21.5610   -3.4513   25.7732 F   0  0  0  0  0  0
  -30.0196  -13.3823   20.3911 N   0  0  0  0  0  0
  -26.2905  -12.8986   20.3237 N   0  0  0  0  0  0
  -25.9236  -11.6250   20.5838 N   0  0  0  0  0  0
  -22.0420  -12.8315   22.0408 N   0  0  0  0  0  0
  -25.4272  -15.1664   20.3901 N   0  0  0  0  0  0
  -31.9169  -14.6015   20.1310 O   0  0  0  0  0  0
  -21.6606   -6.8856   21.4233 O   0  0  0  0  0  0
  -22.3604  -14.5489   20.6569 O   0  0  0  0  0  0
  -24.6148  -31.8654   23.2128 C   0  0  0  0  0  0
  -25.9043  -32.4799   23.8404 C   0  0  1  0  0  0
  -27.2524  -27.4591   20.0287 C   0  0  0  0  0  0
  -25.5897  -33.8604   24.2322 N   0  0  0  0  0  0
  -23.4056  -30.4895   21.5521 C   0  0  2  0  0  0
  -24.8531  -28.9535   20.1185 C   0  0  0  0  0  0
  -22.7408  -29.4641   22.4990 C   0  0  0  0  0  0
  -18.0266  -28.1375   22.8498 C   0  0  0  0  0  0
  -24.1476  -36.7296   23.2640 C   0  0  0  0  0  0
  -25.9393  -30.8213   21.3786 C   0  0  0  0  0  0
  -26.0156  -29.4609   20.7140 C   0  0  0  0  0  0
  -27.2161  -28.7144   20.6803 C   0  0  0  0  0  0
  -26.0643  -26.9513   19.4613 C   0  0  0  0  0  0
  -24.8703  -27.6924   19.4992 C   0  0  0  0  0  0
  -23.6171  -29.8227   20.1679 C   0  0  0  0  0  0
  -25.4101  -36.3101   24.0343 C   0  0  1  0  0  0
  -20.5857  -28.3657   23.1320 C   0  0  2  0  0  0
  -20.6753  -26.9393   22.5432 C   0  0  0  0  0  0
  -19.5738  -26.6383   21.5222 C   0  0  0  0  0  0
  -18.1919  -26.7930   22.1620 C   0  0  0  0  0  0
  -19.1516  -28.8832   23.2901 C   0  0  0  0  0  0
  -18.9443  -30.1443   23.8900 C   0  0  0  0  0  0
  -17.6445  -30.6578   24.0570 C   0  0  0  0  0  0
  -25.9028  -34.9463   23.5124 C   0  0  0  0  0  0
  -16.5336  -29.9078   23.6335 C   0  0  0  0  0  0
  -16.7257  -28.6497   23.0354 C   0  0  0  0  0  0
  -26.4481  -31.6607   25.0753 C   0  0  0  0  0  0
  -25.3761  -31.3757   26.1526 C   0  0  0  0  0  0
  -27.0280  -30.3010   24.6211 C   0  0  0  0  0  0
  -27.6072  -32.4342   25.7478 C   0  0  0  0  0  0
  -27.5578  -37.1798   24.8460 C   0  0  0  0  0  0
  -21.4137  -29.3005   22.3716 N   0  0  0  0  0  0
  -26.4286  -37.3790   23.9415 N   0  0  0  0  0  0
  -24.6701  -31.0736   22.1033 N   0  0  0  0  0  0
  -23.4179  -28.8173   23.3026 O   0  0  0  0  0  0
  -28.4208  -26.7331   19.9459 O   0  0  0  0  0  0
  -26.5595  -34.8921   22.4691 O   0  0  0  0  0  0
  -23.5333  -32.1414   23.7507 O   0  0  0  0  0  0
  -29.5483  -18.6281   17.3261 C   0  0  0  0  0  0
  -29.6045  -17.5037   18.1627 C   0  0  0  0  0  0
  -28.9466  -19.8071   17.7861 C   0  0  0  0  0  0
  -29.0366  -17.5346   19.4530 C   0  0  0  0  0  0
  -28.4082  -19.8966   19.0906 C   0  0  0  0  0  0
  -28.4480  -18.7403   19.9357 C   0  0  0  0  0  0
  -27.8067  -18.7961   21.3176 C   0  0  0  0  0  0
  -30.6155  -23.1989   17.2594 C   0  0  0  0  0  0
  -31.2085  -15.9478   23.1885 C   0  0  0  0  0  0
  -31.8145  -17.5182   21.2721 C   0  0  0  0  0  0
  -28.9519  -16.1891   20.1819 C   0  0  0  0  0  0
  -27.7136  -21.2058   19.5116 C   0  0  0  0  0  0
  -29.8754  -25.3022   18.5219 C   0  0  0  0  0  0
  -28.2355  -23.2657   18.1880 C   0  0  0  0  0  0
  -28.8914  -26.4984   18.6079 C   0  0  0  0  0  0
  -29.4234  -24.1004   17.6447 C   0  0  2  0  0  0
  -30.7130  -16.6300   21.8986 C   0  0  0  0  0  0
  -30.1058  -15.6643   20.9474 N   0  0  0  0  0  0
  -28.5599  -22.4183   19.3664 N   0  3  0  0  0  0
  -31.4584  -12.4287   19.1155 H   0  0  0  0  0  0
  -30.3460  -11.3476   19.8926 H   0  0  0  0  0  0
  -29.7686  -11.7172   17.4616 H   0  0  0  0  0  0
  -29.5965  -13.4317   17.7509 H   0  0  0  0  0  0
  -27.9087  -11.1996   18.9187 H   0  0  0  0  0  0
  -27.3627  -12.4176   17.7966 H   0  0  0  0  0  0
  -27.5477  -14.1218   19.3910 H   0  0  0  0  0  0
  -28.7022  -12.1296   21.4570 H   0  0  0  0  0  0
  -28.4418  -13.8246   21.7528 H   0  0  0  0  0  0
  -25.2673   -9.5671   22.4789 H   0  0  0  0  0  0
  -23.9974   -7.4613   22.7454 H   0  0  0  0  0  0
  -21.0782   -8.8726   19.9017 H   0  0  0  0  0  0
  -22.3562  -10.9649   19.6232 H   0  0  0  0  0  0
  -21.2047   -7.6139   23.9728 H   0  0  0  0  0  0
  -21.1495   -6.0482   25.9061 H   0  0  0  0  0  0
  -22.0606   -2.7620   23.2799 H   0  0  0  0  0  0
  -22.3894  -12.0028   22.4986 H   0  0  0  0  0  0
  -21.1066  -13.1486   22.2486 H   0  0  0  0  0  0
  -24.6485  -15.8098   20.4810 H   0  0  0  0  0  0
  -26.2440  -15.5969   19.9775 H   0  0  0  0  0  0
  -26.7093  -32.5501   23.1142 H   0  0  0  0  0  0
  -25.0069  -33.9760   25.0482 H   0  0  0  0  0  0
  -22.6966  -31.3079   21.4122 H   0  0  0  0  0  0
  -23.3745  -35.9618   23.3311 H   0  0  0  0  0  0
  -24.3561  -36.8904   22.2046 H   0  0  0  0  0  0
  -23.7211  -37.6501   23.6648 H   0  0  0  0  0  0
  -26.0746  -31.5970   20.6239 H   0  0  0  0  0  0
  -26.8163  -30.8509   22.0141 H   0  0  0  0  0  0
  -28.1176  -29.1094   21.1267 H   0  0  0  0  0  0
  -26.0636  -25.9876   18.9730 H   0  0  0  0  0  0
  -23.9751  -27.2957   19.0386 H   0  0  0  0  0  0
  -23.7290  -30.5978   19.4078 H   0  0  0  0  0  0
  -22.7420  -29.2439   19.8697 H   0  0  0  0  0  0
  -25.1278  -36.1965   25.0835 H   0  0  0  0  0  0
  -20.9953  -28.3235   24.1436 H   0  0  0  0  0  0
  -20.5648  -26.2270   23.3616 H   0  0  0  0  0  0
  -21.6630  -26.7438   22.1226 H   0  0  0  0  0  0
  -19.6902  -25.6299   21.1234 H   0  0  0  0  0  0
  -19.6698  -27.3206   20.6762 H   0  0  0  0  0  0
  -17.4206  -26.6699   21.4004 H   0  0  0  0  0  0
  -18.0307  -26.0061   22.8993 H   0  0  0  0  0  0
  -19.7918  -30.7261   24.2283 H   0  0  0  0  0  0
  -17.4995  -31.6263   24.5167 H   0  0  0  0  0  0
  -15.5331  -30.2971   23.7662 H   0  0  0  0  0  0
  -15.8662  -28.0813   22.7063 H   0  0  0  0  0  0
  -24.5941  -30.7068   25.7925 H   0  0  0  0  0  0
  -24.8938  -32.2915   26.4948 H   0  0  0  0  0  0
  -25.8135  -30.8987   27.0305 H   0  0  0  0  0  0
  -26.2816  -29.6789   24.1258 H   0  0  0  0  0  0
  -27.3952  -29.7262   25.4725 H   0  0  0  0  0  0
  -27.8721  -30.4250   23.9427 H   0  0  0  0  0  0
  -27.2694  -33.3639   26.2078 H   0  0  0  0  0  0
  -28.3843  -32.6918   25.0267 H   0  0  0  0  0  0
  -28.0792  -31.8467   26.5368 H   0  0  0  0  0  0
  -28.2627  -38.0072   24.7493 H   0  0  0  0  0  0
  -28.1049  -36.2603   24.6299 H   0  0  0  0  0  0
  -27.2305  -37.1475   25.8872 H   0  0  0  0  0  0
  -20.9317  -29.8715   21.6916 H   0  0  0  0  0  0
  -26.0180  -38.2868   24.1449 H   0  0  0  0  0  0
  -29.9385  -18.5635   16.3192 H   0  0  0  0  0  0
  -30.0280  -16.5875   17.7711 H   0  0  0  0  0  0
  -28.8778  -20.6371   17.0998 H   0  0  0  0  0  0
  -27.8255  -17.8503   21.8518 H   0  0  0  0  0  0
  -26.7563  -19.0858   21.2551 H   0  0  0  0  0  0
  -28.3385  -19.5121   21.9475 H   0  0  0  0  0  0
  -31.3733  -23.7499   16.6985 H   0  0  0  0  0  0
  -30.3110  -22.3641   16.6275 H   0  0  0  0  0  0
  -31.1131  -22.7816   18.1341 H   0  0  0  0  0  0
  -31.6820  -16.6664   23.8548 H   0  0  0  0  0  0
  -31.9377  -15.1559   22.9995 H   0  0  0  0  0  0
  -30.3727  -15.5176   23.7378 H   0  0  0  0  0  0
  -32.2490  -18.1899   22.0126 H   0  0  0  0  0  0
  -31.4103  -18.1504   20.4818 H   0  0  0  0  0  0
  -32.6381  -16.9427   20.8483 H   0  0  0  0  0  0
  -28.8420  -15.5580   19.3092 H   0  0  0  0  0  0
  -28.0334  -16.0695   20.7511 H   0  0  0  0  0  0
  -27.4175  -21.1798   20.5560 H   0  0  0  0  0  0
  -26.7820  -21.3102   18.9526 H   0  0  0  0  0  0
  -30.1782  -24.9683   19.5142 H   0  0  0  0  0  0
  -30.7913  -25.6920   18.0702 H   0  0  0  0  0  0
  -27.8895  -22.6287   17.3739 H   0  0  0  0  0  0
  -27.3874  -23.9054   18.4295 H   0  0  0  0  0  0
  -28.0896  -26.3772   17.8777 H   0  0  0  0  0  0
  -29.4203  -27.4021   18.2978 H   0  0  0  0  0  0
  -29.0708  -24.5300   16.7050 H   0  0  0  0  0  0
  -29.9270  -17.3031   22.2278 H   0  0  0  0  0  0
  -29.5281  -22.1327   19.3612 H   0  0  0  0  0  0
  -28.4130  -22.9756   20.1940 H   0  0  0  0  0  0
  1 25  1  0  0  0
  1 30  2  0  0  0
  1 88  1  0  0  0
  2  3  1  0  0  0
  2 25  1  0  0  0
  2 90  1  0  0  0
  2 91  1  0  0  0
  3  4  1  0  0  0
  3 92  1  0  0  0
  3 93  1  0  0  0
  4  5  1  0  0  0
  4 94  1  0  0  0
  4 95  1  0  0  0
  5  6  1  0  0  0
  5 26  1  0  0  0
  5 96  1  0  0  0
  6 25  1  0  0  0
  6 97  1  0  0  0
  6 98  1  0  0  0
  7  8  2  0  0  0
  7 26  1  0  0  0
  7 29  1  0  0  0
  8  9  1  0  0  0
  8 22  1  0  0  0
  9 10  1  0  0  0
  9 27  2  0  0  0
 10 11  2  0  0  0
 10 15  1  0  0  0
 11 12  1  0  0  0
 11 99  1  0  0  0
 12 13  2  0  0  0
 12100  1  0  0  0
 13 14  1  0  0  0
 13 31  1  0  0  0
 14 15  2  0  0  0
 14101  1  0  0  0
 15102  1  0  0  0
 16 17  2  0  0  0
 16 21  1  0  0  0
 16 31  1  0  0  0
 17 18  1  0  0  0
 17103  1  0  0  0
 18 19  2  0  0  0
 18104  1  0  0  0
 19 20  1  0  0  0
 19 24  1  0  0  0
 20 21  2  0  0  0
 20105  1  0  0  0
 21 23  1  0  0  0
 22 28  1  0  0  0
 22 32  2  0  0  0
 26 27  1  0  0  0
 28106  1  0  0  0
 28107  1  0  0  0
 29108  1  0  0  0
 29109  1  0  0  0
 33 34  1  0  0  0
 33 66  1  0  0  0
 33 70  2  0  0  0
 34 36  1  0  0  0
 34 59  1  0  0  0
 34110  1  0  0  0
 35 44  2  0  0  0
 35 45  1  0  0  0
 35 68  1  0  0  0
 36 56  1  0  0  0
 36111  1  0  0  0
 37 39  1  0  0  0
 37 47  1  0  0  0
 37 66  1  0  0  0
 37112  1  0  0  0
 38 43  2  0  0  0
 38 46  1  0  0  0
 38 47  1  0  0  0
 39 64  1  0  0  0
 39 67  2  0  0  0
 40 52  1  0  0  0
 40 53  2  0  0  0
 40 58  1  0  0  0
 41113  1  0  0  0
 41114  1  0  0  0
 41115  1  0  0  0
 41 48  1  0  0  0
 42 43  1  0  0  0
 42 66  1  0  0  0
 42116  1  0  0  0
 42117  1  0  0  0
 43 44  1  0  0  0
 44118  1  0  0  0
 45 46  2  0  0  0
 45119  1  0  0  0
 46120  1  0  0  0
 47121  1  0  0  0
 47122  1  0  0  0
 48 56  1  0  0  0
 48 65  1  0  0  0
 48123  1  0  0  0
 49 50  1  0  0  0
 49 53  1  0  0  0
 49 64  1  0  0  0
 49124  1  0  0  0
 50 51  1  0  0  0
 50125  1  0  0  0
 50126  1  0  0  0
 51 52  1  0  0  0
 51127  1  0  0  0
 51128  1  0  0  0
 52129  1  0  0  0
 52130  1  0  0  0
 53 54  1  0  0  0
 54 55  2  0  0  0
 54131  1  0  0  0
 55 57  1  0  0  0
 55132  1  0  0  0
 56 69  2  0  0  0
 57 58  2  0  0  0
 57133  1  0  0  0
 58134  1  0  0  0
 59 60  1  0  0  0
 59 61  1  0  0  0
 59 62  1  0  0  0
 60135  1  0  0  0
 60136  1  0  0  0
 60137  1  0  0  0
 61138  1  0  0  0
 61139  1  0  0  0
 61140  1  0  0  0
 62141  1  0  0  0
 62142  1  0  0  0
 62143  1  0  0  0
 63 65  1  0  0  0
 63144  1  0  0  0
 63145  1  0  0  0
 63146  1  0  0  0
 64147  1  0  0  0
 65148  1  0  0  0
 68 85  1  0  0  0
 71 72  2  0  0  0
 71 73  1  0  0  0
 71149  1  0  0  0
 72 74  1  0  0  0
 72150  1  0  0  0
 73 75  2  0  0  0
 73151  1  0  0  0
 74 76  2  0  0  0
 74 81  1  0  0  0
 75 76  1  0  0  0
 75 82  1  0  0  0
 76 77  1  0  0  0
 77152  1  0  0  0
 77153  1  0  0  0
 77154  1  0  0  0
 78155  1  0  0  0
 78156  1  0  0  0
 78157  1  0  0  0
 78 86  1  0  0  0
 79158  1  0  0  0
 79159  1  0  0  0
 79160  1  0  0  0
 79 87  1  0  0  0
 80 87  1  0  0  0
 80161  1  0  0  0
 80162  1  0  0  0
 80163  1  0  0  0
 81 88  1  0  0  0
 81164  1  0  0  0
 81165  1  0  0  0
 82 89  1  0  0  0
 82166  1  0  0  0
 82167  1  0  0  0
 83 85  1  0  0  0
 83 86  1  0  0  0
 83168  1  0  0  0
 83169  1  0  0  0
 84 86  1  0  0  0
 84 89  1  0  0  0
 84170  1  0  0  0
 84171  1  0  0  0
 85172  1  0  0  0
 85173  1  0  0  0
 86174  1  0  0  0
 87 88  1  0  0  0
 87175  1  0  0  0
 89176  1  0  0  0
 89177  1  0  0  0
M  CHG  1  89   1
M  ISO  4   1 100  68 101  85 101  88 100
M  END
> <chiral flag>
0

> <version>
0

> <s_m_source_file>
/data/baiqing/PycharmProjects/Reinvent-master-3.2/result/LINK_invent/BTK/process_docking_weight1_custom_sum_contain_oxygen_bond_distance_aromatic_linkinvent_7_9_3/rearranged_h_0116.sdf

> <i_m_source_file_index>
46

> <r_mmod_Potential_Energy-OPLS-2005>
60.535945892334

> <r_mmod_Stretch_Energy-OPLS-2005>
46.3695068359375

> <r_mmod_Bend_Energy-OPLS-2005>
128.974060058594

> <r_mmod_Torsional_Energy-OPLS-2005>
340.797485351562

> <r_mmod_Improper_Torsional_Energy-OPLS-2005>
4.22421932220459

> <r_mmod_Van_der_Waal_Energy-OPLS-2005>
162.514358520508

> <r_mmod_Electrostatic_Energy-OPLS-2005>
-227.622924804688

> <r_mmod_Solvation_Energy-OPLS-2005>
-423.90380859375

> <b_mmod_Minimization_Converged-OPLS-2005>
0

> <r_mmod_RMS_Derivative-OPLS-2005>
5.60656595230103

$$$$
47
                    3D
 Structure written by MMmdl.
160168  0  0  1  0            999 V2000
  -30.4052  -15.3338   20.3979 C   0  0  0  0  0  0
  -30.4486  -12.8761   19.5009 C   0  0  0  0  0  0
  -29.5311  -12.5762   18.2853 C   0  0  0  0  0  0
  -28.0942  -12.2522   18.7331 C   0  0  0  0  0  0
  -27.6089  -13.2361   19.8197 C   0  0  2  0  0  0
  -28.6590  -13.4052   20.9479 C   0  0  0  0  0  0
  -25.2274  -13.8071   20.5604 C   0  0  0  0  0  0
  -24.1676  -13.0309   20.9296 C   0  0  0  0  0  0
  -24.6344  -11.6829   20.8844 C   0  0  0  0  0  0
  -23.9042  -10.4222   21.0469 C   0  0  0  0  0  0
  -24.3594   -9.4139   21.9237 C   0  0  0  0  0  0
  -23.6264   -8.2181   22.0767 C   0  0  0  0  0  0
  -22.4255   -8.0242   21.3540 C   0  0  0  0  0  0
  -21.9894   -9.0222   20.4650 C   0  0  0  0  0  0
  -22.7227  -10.2097   20.3090 C   0  0  0  0  0  0
  -21.6839   -6.0716   22.5270 C   0  0  0  0  0  0
  -21.4010   -6.5630   23.8206 C   0  0  0  0  0  0
  -21.3648   -5.6783   24.9171 C   0  0  0  0  0  0
  -21.6038   -4.3047   24.7216 C   0  0  0  0  0  0
  -21.8822   -3.8137   23.4343 C   0  0  0  0  0  0
  -21.9187   -4.6947   22.3399 C   0  0  0  0  0  0
  -22.7708  -13.5117   21.1920 C   0  0  0  0  0  0
  -22.1658   -4.2134   21.0971 F   0  0  0  0  0  0
  -21.5624   -3.4534   25.7734 F   0  0  0  0  0  0
  -29.8534  -14.0072   20.3124 N   0  0  0  0  0  0
  -26.2758  -12.9324   20.3203 N   0  0  0  0  0  0
  -25.9278  -11.6471   20.5817 N   0  0  0  0  0  0
  -22.0328  -12.8153   22.0496 N   0  0  0  0  0  0
  -25.3580  -15.1768   20.3702 N   0  0  0  0  0  0
  -31.6345  -15.3160   20.2203 O   0  0  0  0  0  0
  -21.6615   -6.8851   21.4232 O   0  0  0  0  0  0
  -22.3413  -14.5423   20.6739 O   0  0  0  0  0  0
  -24.6610  -31.8272   23.1701 C   0  0  0  0  0  0
  -25.9300  -32.4604   23.8183 C   0  0  1  0  0  0
  -27.2331  -26.9611   20.1884 C   0  0  0  0  0  0
  -25.5990  -33.8423   24.2099 N   0  0  0  0  0  0
  -23.4746  -30.4364   21.5188 C   0  0  2  0  0  0
  -24.9278  -28.8187   20.1228 C   0  0  0  0  0  0
  -22.7653  -29.4460   22.4791 C   0  0  0  0  0  0
  -18.0319  -28.1407   22.8447 C   0  0  0  0  0  0
  -24.1485  -36.7199   23.2642 C   0  0  0  0  0  0
  -26.0412  -30.6444   21.3922 C   0  0  0  0  0  0
  -26.1119  -29.2337   20.7447 C   0  0  0  0  0  0
  -27.2622  -28.3280   20.7455 C   0  0  0  0  0  0
  -26.0137  -26.6816   19.5331 C   0  0  0  0  0  0
  -24.9001  -27.5604   19.4994 C   0  0  0  0  0  0
  -23.7134  -29.7443   20.1485 C   0  0  0  0  0  0
  -25.4113  -36.2963   24.0311 C   0  0  1  0  0  0
  -20.5938  -28.3750   23.1187 C   0  0  2  0  0  0
  -20.6794  -26.9436   22.5395 C   0  0  0  0  0  0
  -19.5778  -26.6371   21.5206 C   0  0  0  0  0  0
  -18.1953  -26.7939   22.1601 C   0  0  0  0  0  0
  -19.1581  -28.8896   23.2806 C   0  0  0  0  0  0
  -18.9503  -30.1476   23.8850 C   0  0  0  0  0  0
  -17.6502  -30.6600   24.0548 C   0  0  0  0  0  0
  -25.9098  -34.9359   23.5017 C   0  0  0  0  0  0
  -16.5387  -29.9082   23.6348 C   0  0  0  0  0  0
  -16.7309  -28.6506   23.0362 C   0  0  0  0  0  0
  -26.4557  -31.6549   25.0710 C   0  0  0  0  0  0
  -25.3689  -31.3784   26.1368 C   0  0  0  0  0  0
  -27.0458  -30.2935   24.6400 C   0  0  0  0  0  0
  -27.6072  -32.4339   25.7486 C   0  0  0  0  0  0
  -27.5574  -37.1712   24.8440 C   0  0  0  0  0  0
  -21.4324  -29.3053   22.3544 N   0  0  0  0  0  0
  -26.4230  -37.3717   23.9457 N   0  0  0  0  0  0
  -24.7466  -30.9951   22.0814 N   0  0  0  0  0  0
  -23.4208  -28.8026   23.3027 O   0  0  0  0  0  0
  -28.2882  -25.9178   20.1604 O   0  0  0  0  0  0
  -26.5692  -34.8899   22.4600 O   0  0  0  0  0  0
  -23.5682  -32.1232   23.6800 O   0  0  0  0  0  0
  -28.2382  -16.6522   20.8242 C   0  0  0  0  0  0
  -28.0738  -16.9822   22.3243 C   0  0  0  0  0  0
  -29.9857  -18.4065   22.1838 C   0  0  0  0  0  0
  -29.9644  -18.2783   20.6535 C   0  0  2  0  0  0
  -29.1354  -19.7047   18.5261 C   0  0  0  0  0  0
  -29.7534  -23.1484   18.7662 C   0  0  0  0  0  0
  -28.2259  -24.3311   20.5821 C   0  0  0  0  0  0
  -29.0800  -19.7476   20.0568 C   0  0  2  0  0  0
  -28.7050  -22.7747   19.8315 C   0  0  2  0  0  0
  -29.6512  -16.6425   20.4588 N   0  0  0  0  0  0
  -29.1758  -21.3420   20.5603 N   0  3  0  0  0  0
  -28.6430  -18.2543   22.6406 O   0  0  0  0  0  0
  -31.4422  -13.1342   19.1334 H   0  0  0  0  0  0
  -30.5967  -11.9835   20.1108 H   0  0  0  0  0  0
  -29.9377  -11.7496   17.7015 H   0  0  0  0  0  0
  -29.5151  -13.4422   17.6227 H   0  0  0  0  0  0
  -28.0938  -11.2387   19.1374 H   0  0  0  0  0  0
  -27.4131  -12.2428   17.8812 H   0  0  0  0  0  0
  -27.5137  -14.1705   19.2694 H   0  0  0  0  0  0
  -28.8783  -12.4422   21.4121 H   0  0  0  0  0  0
  -28.2925  -14.0209   21.7676 H   0  0  0  0  0  0
  -25.2722   -9.5611   22.4839 H   0  0  0  0  0  0
  -23.9959   -7.4561   22.7475 H   0  0  0  0  0  0
  -21.0836   -8.8750   19.8953 H   0  0  0  0  0  0
  -22.3695  -10.9652   19.6219 H   0  0  0  0  0  0
  -21.2018   -7.6140   23.9705 H   0  0  0  0  0  0
  -21.1463   -6.0516   25.9068 H   0  0  0  0  0  0
  -22.0617   -2.7599   23.2842 H   0  0  0  0  0  0
  -22.3918  -11.9834   22.4946 H   0  0  0  0  0  0
  -21.0950  -13.1205   22.2669 H   0  0  0  0  0  0
  -24.5356  -15.7700   20.4041 H   0  0  0  0  0  0
  -26.1237  -15.5935   19.8607 H   0  0  0  0  0  0
  -26.7381  -32.5163   23.0920 H   0  0  0  0  0  0
  -25.0160  -33.9529   25.0259 H   0  0  0  0  0  0
  -22.7876  -31.2661   21.3411 H   0  0  0  0  0  0
  -23.3791  -35.9487   23.3217 H   0  0  0  0  0  0
  -24.3596  -36.8913   22.2080 H   0  0  0  0  0  0
  -23.7203  -37.6340   23.6748 H   0  0  0  0  0  0
  -26.2114  -31.3822   20.6066 H   0  0  0  0  0  0
  -26.9070  -30.7078   22.0404 H   0  0  0  0  0  0
  -28.1687  -28.6531   21.2354 H   0  0  0  0  0  0
  -25.9063  -25.7224   19.0470 H   0  0  0  0  0  0
  -23.9991  -27.2329   18.9987 H   0  0  0  0  0  0
  -23.8682  -30.5082   19.3857 H   0  0  0  0  0  0
  -22.8256  -29.1931   19.8322 H   0  0  0  0  0  0
  -25.1289  -36.1731   25.0798 H   0  0  0  0  0  0
  -21.0028  -28.3349   24.1312 H   0  0  0  0  0  0
  -20.5663  -26.2377   23.3629 H   0  0  0  0  0  0
  -21.6660  -26.7403   22.1204 H   0  0  0  0  0  0
  -19.6948  -25.6273   21.1261 H   0  0  0  0  0  0
  -19.6722  -27.3152   20.6712 H   0  0  0  0  0  0
  -17.4217  -26.6689   21.4002 H   0  0  0  0  0  0
  -18.0340  -26.0086   22.9008 H   0  0  0  0  0  0
  -19.7989  -30.7288   24.2202 H   0  0  0  0  0  0
  -17.5068  -31.6274   24.5150 H   0  0  0  0  0  0
  -15.5391  -30.2976   23.7705 H   0  0  0  0  0  0
  -15.8702  -28.0807   22.7125 H   0  0  0  0  0  0
  -24.5910  -30.7092   25.7680 H   0  0  0  0  0  0
  -24.8845  -32.2979   26.4674 H   0  0  0  0  0  0
  -25.7929  -30.9045   27.0238 H   0  0  0  0  0  0
  -26.3141  -29.6612   24.1368 H   0  0  0  0  0  0
  -27.3995  -29.7282   25.5034 H   0  0  0  0  0  0
  -27.9054  -30.4162   23.9808 H   0  0  0  0  0  0
  -27.2691  -33.3698   26.1951 H   0  0  0  0  0  0
  -28.3929  -32.6802   25.0332 H   0  0  0  0  0  0
  -28.0698  -31.8545   26.5487 H   0  0  0  0  0  0
  -28.2434  -38.0149   24.7654 H   0  0  0  0  0  0
  -28.1201  -36.2691   24.6006 H   0  0  0  0  0  0
  -27.2334  -37.1031   25.8835 H   0  0  0  0  0  0
  -20.9575  -29.8777   21.6693 H   0  0  0  0  0  0
  -26.0059  -38.2733   24.1609 H   0  0  0  0  0  0
  -27.6851  -17.3546   20.2024 H   0  0  0  0  0  0
  -27.7697  -15.7173   20.6169 H   0  0  0  0  0  0
  -28.5298  -16.2103   22.9451 H   0  0  0  0  0  0
  -27.0144  -17.0082   22.5814 H   0  0  0  0  0  0
  -30.3714  -19.3787   22.4919 H   0  0  0  0  0  0
  -30.6287  -17.6525   22.6411 H   0  0  0  0  0  0
  -30.9927  -18.3957   20.3113 H   0  0  0  0  0  0
  -28.8865  -18.7092   18.1585 H   0  0  0  0  0  0
  -30.1329  -19.9535   18.1650 H   0  0  0  0  0  0
  -28.4256  -20.4014   18.0792 H   0  0  0  0  0  0
  -29.4720  -24.0680   18.2475 H   0  0  0  0  0  0
  -29.8593  -22.3786   18.0031 H   0  0  0  0  0  0
  -30.7331  -23.3195   19.2119 H   0  0  0  0  0  0
  -28.8235  -24.3502   21.4937 H   0  0  0  0  0  0
  -27.2115  -24.1846   20.9522 H   0  0  0  0  0  0
  -28.0374  -19.5468   20.3005 H   0  0  0  0  0  0
  -27.8095  -22.4934   19.2767 H   0  0  0  0  0  0
  -30.1324  -21.4898   20.8421 H   0  0  0  0  0  0
  -28.6586  -21.3331   21.4274 H   0  0  0  0  0  0
  1 25  1  0  0  0
  1 30  2  0  0  0
  1 80  1  0  0  0
  2  3  1  0  0  0
  2 25  1  0  0  0
  2 83  1  0  0  0
  2 84  1  0  0  0
  3  4  1  0  0  0
  3 85  1  0  0  0
  3 86  1  0  0  0
  4  5  1  0  0  0
  4 87  1  0  0  0
  4 88  1  0  0  0
  5  6  1  0  0  0
  5 26  1  0  0  0
  5 89  1  0  0  0
  6 25  1  0  0  0
  6 90  1  0  0  0
  6 91  1  0  0  0
  7  8  2  0  0  0
  7 26  1  0  0  0
  7 29  1  0  0  0
  8  9  1  0  0  0
  8 22  1  0  0  0
  9 10  1  0  0  0
  9 27  2  0  0  0
 10 11  2  0  0  0
 10 15  1  0  0  0
 11 12  1  0  0  0
 11 92  1  0  0  0
 12 13  2  0  0  0
 12 93  1  0  0  0
 13 14  1  0  0  0
 13 31  1  0  0  0
 14 15  2  0  0  0
 14 94  1  0  0  0
 15 95  1  0  0  0
 16 17  2  0  0  0
 16 21  1  0  0  0
 16 31  1  0  0  0
 17 18  1  0  0  0
 17 96  1  0  0  0
 18 19  2  0  0  0
 18 97  1  0  0  0
 19 20  1  0  0  0
 19 24  1  0  0  0
 20 21  2  0  0  0
 20 98  1  0  0  0
 21 23  1  0  0  0
 22 28  1  0  0  0
 22 32  2  0  0  0
 26 27  1  0  0  0
 28 99  1  0  0  0
 28100  1  0  0  0
 29101  1  0  0  0
 29102  1  0  0  0
 33 34  1  0  0  0
 33 66  1  0  0  0
 33 70  2  0  0  0
 34 36  1  0  0  0
 34 59  1  0  0  0
 34103  1  0  0  0
 35 44  2  0  0  0
 35 45  1  0  0  0
 35 68  1  0  0  0
 36 56  1  0  0  0
 36104  1  0  0  0
 37 39  1  0  0  0
 37 47  1  0  0  0
 37 66  1  0  0  0
 37105  1  0  0  0
 38 43  2  0  0  0
 38 46  1  0  0  0
 38 47  1  0  0  0
 39 64  1  0  0  0
 39 67  2  0  0  0
 40 52  1  0  0  0
 40 53  2  0  0  0
 40 58  1  0  0  0
 41106  1  0  0  0
 41107  1  0  0  0
 41108  1  0  0  0
 41 48  1  0  0  0
 42 43  1  0  0  0
 42 66  1  0  0  0
 42109  1  0  0  0
 42110  1  0  0  0
 43 44  1  0  0  0
 44111  1  0  0  0
 45 46  2  0  0  0
 45112  1  0  0  0
 46113  1  0  0  0
 47114  1  0  0  0
 47115  1  0  0  0
 48 56  1  0  0  0
 48 65  1  0  0  0
 48116  1  0  0  0
 49 50  1  0  0  0
 49 53  1  0  0  0
 49 64  1  0  0  0
 49117  1  0  0  0
 50 51  1  0  0  0
 50118  1  0  0  0
 50119  1  0  0  0
 51 52  1  0  0  0
 51120  1  0  0  0
 51121  1  0  0  0
 52122  1  0  0  0
 52123  1  0  0  0
 53 54  1  0  0  0
 54 55  2  0  0  0
 54124  1  0  0  0
 55 57  1  0  0  0
 55125  1  0  0  0
 56 69  2  0  0  0
 57 58  2  0  0  0
 57126  1  0  0  0
 58127  1  0  0  0
 59 60  1  0  0  0
 59 61  1  0  0  0
 59 62  1  0  0  0
 60128  1  0  0  0
 60129  1  0  0  0
 60130  1  0  0  0
 61131  1  0  0  0
 61132  1  0  0  0
 61133  1  0  0  0
 62134  1  0  0  0
 62135  1  0  0  0
 62136  1  0  0  0
 63 65  1  0  0  0
 63137  1  0  0  0
 63138  1  0  0  0
 63139  1  0  0  0
 64140  1  0  0  0
 65141  1  0  0  0
 68 77  1  0  0  0
 71 72  1  0  0  0
 71 80  1  0  0  0
 71142  1  0  0  0
 71143  1  0  0  0
 72 82  1  0  0  0
 72144  1  0  0  0
 72145  1  0  0  0
 73 82  1  0  0  0
 73146  1  0  0  0
 73147  1  0  0  0
 73 74  1  0  0  0
 74 78  1  0  0  0
 74 80  1  0  0  0
 74148  1  0  0  0
 75149  1  0  0  0
 75150  1  0  0  0
 75151  1  0  0  0
 75 78  1  0  0  0
 76152  1  0  0  0
 76153  1  0  0  0
 76154  1  0  0  0
 76 79  1  0  0  0
 77 79  1  0  0  0
 77155  1  0  0  0
 77156  1  0  0  0
 78 81  1  0  0  0
 78157  1  0  0  0
 79 81  1  0  0  0
 79158  1  0  0  0
 81159  1  0  0  0
 81160  1  0  0  0
M  CHG  1  81   1
M  ISO  4   1 100  68 101  77 101  80 100
M  END
> <chiral flag>
0

> <version>
0

> <s_m_source_file>
/data/baiqing/PycharmProjects/Reinvent-master-3.2/result/LINK_invent/BTK/process_docking_weight1_custom_sum_contain_oxygen_bond_distance_aromatic_linkinvent_7_9_3/rearranged_h_0116.sdf

> <i_m_source_file_index>
47

> <r_mmod_Potential_Energy-OPLS-2005>
1388.04565429688

> <r_mmod_Stretch_Energy-OPLS-2005>
621.508483886719

> <r_mmod_Bend_Energy-OPLS-2005>
481.918365478516

> <r_mmod_Torsional_Energy-OPLS-2005>
355.711730957031

> <r_mmod_Improper_Torsional_Energy-OPLS-2005>
7.2143030166626

> <r_mmod_Van_der_Waal_Energy-OPLS-2005>
123.659362792969

> <r_mmod_Electrostatic_Energy-OPLS-2005>
-233.115737915039

> <r_mmod_Solvation_Energy-OPLS-2005>
-432.446746826172

> <b_mmod_Minimization_Converged-OPLS-2005>
0

> <r_mmod_RMS_Derivative-OPLS-2005>
2.49621629714966

$$$$
48
                    3D
 Structure written by MMmdl.
158166  0  0  1  0            999 V2000
  -30.4879  -15.0175   20.4052 C   0  0  0  0  0  0
  -30.4527  -12.6401   19.4766 C   0  0  0  0  0  0
  -29.5215  -12.5247   18.2464 C   0  0  0  0  0  0
  -28.0576  -12.2992   18.6763 C   0  0  0  0  0  0
  -27.6250  -13.2442   19.8269 C   0  0  2  0  0  0
  -28.6736  -13.2948   20.9547 C   0  0  0  0  0  0
  -25.2463  -13.8196   20.5711 C   0  0  0  0  0  0
  -24.1781  -13.0431   20.9253 C   0  0  0  0  0  0
  -24.6392  -11.6919   20.8781 C   0  0  0  0  0  0
  -23.9085  -10.4290   21.0435 C   0  0  0  0  0  0
  -24.3633   -9.4200   21.9204 C   0  0  0  0  0  0
  -23.6303   -8.2238   22.0759 C   0  0  0  0  0  0
  -22.4284   -8.0281   21.3544 C   0  0  0  0  0  0
  -21.9928   -9.0263   20.4651 C   0  0  0  0  0  0
  -22.7266  -10.2140   20.3075 C   0  0  0  0  0  0
  -21.6850   -6.0745   22.5279 C   0  0  0  0  0  0
  -21.4007   -6.5644   23.8216 C   0  0  0  0  0  0
  -21.3654   -5.6795   24.9174 C   0  0  0  0  0  0
  -21.6045   -4.3062   24.7224 C   0  0  0  0  0  0
  -21.8819   -3.8154   23.4345 C   0  0  0  0  0  0
  -21.9193   -4.6972   22.3401 C   0  0  0  0  0  0
  -22.7802  -13.5209   21.1909 C   0  0  0  0  0  0
  -22.1664   -4.2158   21.0981 F   0  0  0  0  0  0
  -21.5632   -3.4545   25.7739 F   0  0  0  0  0  0
  -29.9296  -13.7391   20.3352 N   0  0  0  0  0  0
  -26.2873  -12.9419   20.3222 N   0  0  0  0  0  0
  -25.9323  -11.6556   20.5748 N   0  0  0  0  0  0
  -22.0441  -12.8192   22.0452 N   0  0  0  0  0  0
  -25.4113  -15.1926   20.4105 N   0  0  0  0  0  0
  -31.7130  -15.1025   20.2662 O   0  0  0  0  0  0
  -21.6637   -6.8888   21.4242 O   0  0  0  0  0  0
  -22.3490  -14.5518   20.6755 O   0  0  0  0  0  0
  -24.6477  -31.8398   23.1825 C   0  0  0  0  0  0
  -25.9221  -32.4672   23.8246 C   0  0  1  0  0  0
  -27.2244  -27.0934   20.1686 C   0  0  0  0  0  0
  -25.5955  -33.8486   24.2167 N   0  0  0  0  0  0
  -23.4538  -30.4541   21.5299 C   0  0  2  0  0  0
  -24.9036  -28.8608   20.1214 C   0  0  0  0  0  0
  -22.7578  -29.4520   22.4859 C   0  0  0  0  0  0
  -18.0306  -28.1391   22.8469 C   0  0  0  0  0  0
  -24.1480  -36.7238   23.2648 C   0  0  0  0  0  0
  -26.0109  -30.6997   21.3852 C   0  0  0  0  0  0
  -26.0831  -29.3018   20.7355 C   0  0  0  0  0  0
  -27.2466  -28.4382   20.7322 C   0  0  0  0  0  0
  -26.0155  -26.7516   19.5298 C   0  0  0  0  0  0
  -24.8844  -27.5998   19.5023 C   0  0  0  0  0  0
  -23.6827  -29.7709   20.1547 C   0  0  0  0  0  0
  -25.4111  -36.3020   24.0321 C   0  0  1  0  0  0
  -20.5911  -28.3725   23.1227 C   0  0  2  0  0  0
  -20.6780  -26.9426   22.5402 C   0  0  0  0  0  0
  -19.5762  -26.6368   21.5207 C   0  0  0  0  0  0
  -18.1940  -26.7925   22.1614 C   0  0  0  0  0  0
  -19.1559  -28.8873   23.2836 C   0  0  0  0  0  0
  -18.9482  -30.1463   23.8870 C   0  0  0  0  0  0
  -17.6481  -30.6590   24.0553 C   0  0  0  0  0  0
  -25.9075  -34.9398   23.5055 C   0  0  0  0  0  0
  -16.5366  -29.9081   23.6348 C   0  0  0  0  0  0
  -16.7289  -28.6496   23.0370 C   0  0  0  0  0  0
  -26.4525  -31.6561   25.0717 C   0  0  0  0  0  0
  -25.3695  -31.3768   26.1409 C   0  0  0  0  0  0
  -27.0414  -30.2960   24.6318 C   0  0  0  0  0  0
  -27.6044  -32.4349   25.7495 C   0  0  0  0  0  0
  -27.5565  -37.1768   24.8466 C   0  0  0  0  0  0
  -21.4263  -29.3049   22.3603 N   0  0  0  0  0  0
  -26.4262  -37.3745   23.9428 N   0  0  0  0  0  0
  -24.7247  -31.0210   22.0876 N   0  0  0  0  0  0
  -23.4201  -28.8075   23.3032 O   0  0  0  0  0  0
  -28.2993  -26.1264   20.1059 O   0  0  0  0  0  0
  -26.5659  -34.8907   22.4638 O   0  0  0  0  0  0
  -23.5586  -32.1293   23.7019 O   0  0  0  0  0  0
  -29.1109  -21.9502   20.4570 C   0  0  0  0  0  0
  -28.8881  -20.5725   19.9162 C   0  0  0  0  0  0
  -27.7984  -20.5627   18.9945 C   0  0  0  0  0  0
  -28.3393  -23.1783   20.0823 C   0  0  0  0  0  0
  -27.0919  -21.7657   18.6764 C   0  0  0  0  0  0
  -25.9286  -21.7781   17.6967 C   0  0  0  0  0  0
  -28.0341  -19.0832   16.9160 C   0  0  0  0  0  0
  -29.8238  -19.1770   20.0380 C   0  0  0  0  0  0
  -27.3945  -19.2556   18.3025 C   0  0  0  0  0  0
  -28.3056  -24.7014   20.7722 C   0  0  0  0  0  0
  -29.5685  -17.7056   20.8662 C   0  0  0  0  0  0
  -27.3567  -22.9939   19.1827 N   0  0  0  0  0  0
  -29.6319  -16.1676   20.4005 N   0  0  0  0  0  0
  -31.4734  -12.8445   19.1498 H   0  0  0  0  0  0
  -30.4938  -11.7008   20.0302 H   0  0  0  0  0  0
  -29.8507  -11.7107   17.5995 H   0  0  0  0  0  0
  -29.5892  -13.4359   17.6506 H   0  0  0  0  0  0
  -27.9698  -11.2623   19.0027 H   0  0  0  0  0  0
  -27.3886  -12.4073   17.8220 H   0  0  0  0  0  0
  -27.5765  -14.2382   19.3808 H   0  0  0  0  0  0
  -28.7876  -12.3218   21.4347 H   0  0  0  0  0  0
  -28.3662  -13.9937   21.7346 H   0  0  0  0  0  0
  -25.2774   -9.5672   22.4792 H   0  0  0  0  0  0
  -24.0011   -7.4621   22.7475 H   0  0  0  0  0  0
  -21.0868   -8.8798   19.8953 H   0  0  0  0  0  0
  -22.3735  -10.9694   19.6193 H   0  0  0  0  0  0
  -21.1988   -7.6153   23.9723 H   0  0  0  0  0  0
  -21.1477   -6.0523   25.9078 H   0  0  0  0  0  0
  -22.0601   -2.7618   23.2842 H   0  0  0  0  0  0
  -22.4049  -11.9850   22.4837 H   0  0  0  0  0  0
  -21.1062  -13.1219   22.2662 H   0  0  0  0  0  0
  -24.6379  -15.8395   20.5221 H   0  0  0  0  0  0
  -26.2407  -15.6334   20.0382 H   0  0  0  0  0  0
  -26.7292  -32.5259   23.0979 H   0  0  0  0  0  0
  -25.0102  -33.9601   25.0315 H   0  0  0  0  0  0
  -22.7598  -31.2811   21.3658 H   0  0  0  0  0  0
  -23.3755  -35.9558   23.3280 H   0  0  0  0  0  0
  -24.3567  -36.8904   22.2069 H   0  0  0  0  0  0
  -23.7222  -37.6416   23.6710 H   0  0  0  0  0  0
  -26.1679  -31.4466   20.6061 H   0  0  0  0  0  0
  -26.8814  -30.7551   22.0269 H   0  0  0  0  0  0
  -28.1563  -28.7839   21.2022 H   0  0  0  0  0  0
  -25.9415  -25.7856   19.0491 H   0  0  0  0  0  0
  -23.9851  -27.2572   19.0096 H   0  0  0  0  0  0
  -23.8235  -30.5395   19.3940 H   0  0  0  0  0  0
  -22.7973  -29.2144   19.8435 H   0  0  0  0  0  0
  -25.1292  -36.1841   25.0811 H   0  0  0  0  0  0
  -21.0000  -28.3314   24.1349 H   0  0  0  0  0  0
  -20.5671  -26.2337   23.3628 H   0  0  0  0  0  0
  -21.6648  -26.7427   22.1202 H   0  0  0  0  0  0
  -19.6936  -25.6275   21.1259 H   0  0  0  0  0  0
  -19.6701  -27.3160   20.6720 H   0  0  0  0  0  0
  -17.4211  -26.6673   21.4015 H   0  0  0  0  0  0
  -18.0336  -26.0068   22.9014 H   0  0  0  0  0  0
  -19.7965  -30.7276   24.2229 H   0  0  0  0  0  0
  -17.5044  -31.6273   24.5145 H   0  0  0  0  0  0
  -15.5372  -30.2977   23.7683 H   0  0  0  0  0  0
  -15.8681  -28.0798   22.7123 H   0  0  0  0  0  0
  -24.5878  -30.7116   25.7720 H   0  0  0  0  0  0
  -24.8876  -32.2953   26.4782 H   0  0  0  0  0  0
  -25.7957  -30.8979   27.0234 H   0  0  0  0  0  0
  -26.3051  -29.6658   24.1324 H   0  0  0  0  0  0
  -27.4018  -29.7298   25.4913 H   0  0  0  0  0  0
  -27.8945  -30.4196   23.9644 H   0  0  0  0  0  0
  -27.2641  -33.3695   26.1970 H   0  0  0  0  0  0
  -28.3889  -32.6851   25.0338 H   0  0  0  0  0  0
  -28.0663  -31.8549   26.5497 H   0  0  0  0  0  0
  -28.2557  -38.0086   24.7533 H   0  0  0  0  0  0
  -28.1080  -36.2621   24.6250 H   0  0  0  0  0  0
  -27.2291  -37.1350   25.8867 H   0  0  0  0  0  0
  -20.9497  -29.8776   21.6775 H   0  0  0  0  0  0
  -26.0122  -38.2808   24.1457 H   0  0  0  0  0  0
  -29.9053  -22.0768   21.1799 H   0  0  0  0  0  0
  -26.2520  -21.4947   16.6960 H   0  0  0  0  0  0
  -25.4804  -22.7693   17.6197 H   0  0  0  0  0  0
  -25.1407  -21.0987   18.0175 H   0  0  0  0  0  0
  -27.7137  -18.1462   16.4596 H   0  0  0  0  0  0
  -29.1216  -19.0675   16.9660 H   0  0  0  0  0  0
  -27.7559  -19.8858   16.2353 H   0  0  0  0  0  0
  -30.7774  -19.5476   20.4140 H   0  0  0  0  0  0
  -30.0732  -18.9027   19.0146 H   0  0  0  0  0  0
  -26.3109  -19.2012   18.2066 H   0  0  0  0  0  0
  -27.6378  -18.3951   18.9254 H   0  0  0  0  0  0
  -29.1649  -24.7189   21.4429 H   0  0  0  0  0  0
  -27.4475  -24.6889   21.4454 H   0  0  0  0  0  0
  -28.5564  -17.7956   21.2615 H   0  0  0  0  0  0
  -30.1875  -17.7541   21.7626 H   0  0  0  0  0  0
  -28.6911  -15.8328   20.2606 H   0  0  0  0  0  0
  1 25  1  0  0  0
  1 30  2  0  0  0
  1 83  1  0  0  0
  2  3  1  0  0  0
  2 25  1  0  0  0
  2 84  1  0  0  0
  2 85  1  0  0  0
  3  4  1  0  0  0
  3 86  1  0  0  0
  3 87  1  0  0  0
  4  5  1  0  0  0
  4 88  1  0  0  0
  4 89  1  0  0  0
  5  6  1  0  0  0
  5 26  1  0  0  0
  5 90  1  0  0  0
  6 25  1  0  0  0
  6 91  1  0  0  0
  6 92  1  0  0  0
  7  8  2  0  0  0
  7 26  1  0  0  0
  7 29  1  0  0  0
  8  9  1  0  0  0
  8 22  1  0  0  0
  9 10  1  0  0  0
  9 27  2  0  0  0
 10 11  2  0  0  0
 10 15  1  0  0  0
 11 12  1  0  0  0
 11 93  1  0  0  0
 12 13  2  0  0  0
 12 94  1  0  0  0
 13 14  1  0  0  0
 13 31  1  0  0  0
 14 15  2  0  0  0
 14 95  1  0  0  0
 15 96  1  0  0  0
 16 17  2  0  0  0
 16 21  1  0  0  0
 16 31  1  0  0  0
 17 18  1  0  0  0
 17 97  1  0  0  0
 18 19  2  0  0  0
 18 98  1  0  0  0
 19 20  1  0  0  0
 19 24  1  0  0  0
 20 21  2  0  0  0
 20 99  1  0  0  0
 21 23  1  0  0  0
 22 28  1  0  0  0
 22 32  2  0  0  0
 26 27  1  0  0  0
 28100  1  0  0  0
 28101  1  0  0  0
 29102  1  0  0  0
 29103  1  0  0  0
 33 34  1  0  0  0
 33 66  1  0  0  0
 33 70  2  0  0  0
 34 36  1  0  0  0
 34 59  1  0  0  0
 34104  1  0  0  0
 35 44  2  0  0  0
 35 45  1  0  0  0
 35 68  1  0  0  0
 36 56  1  0  0  0
 36105  1  0  0  0
 37 39  1  0  0  0
 37 47  1  0  0  0
 37 66  1  0  0  0
 37106  1  0  0  0
 38 43  2  0  0  0
 38 46  1  0  0  0
 38 47  1  0  0  0
 39 64  1  0  0  0
 39 67  2  0  0  0
 40 52  1  0  0  0
 40 53  2  0  0  0
 40 58  1  0  0  0
 41107  1  0  0  0
 41108  1  0  0  0
 41109  1  0  0  0
 41 48  1  0  0  0
 42 43  1  0  0  0
 42 66  1  0  0  0
 42110  1  0  0  0
 42111  1  0  0  0
 43 44  1  0  0  0
 44112  1  0  0  0
 45 46  2  0  0  0
 45113  1  0  0  0
 46114  1  0  0  0
 47115  1  0  0  0
 47116  1  0  0  0
 48 56  1  0  0  0
 48 65  1  0  0  0
 48117  1  0  0  0
 49 50  1  0  0  0
 49 53  1  0  0  0
 49 64  1  0  0  0
 49118  1  0  0  0
 50 51  1  0  0  0
 50119  1  0  0  0
 50120  1  0  0  0
 51 52  1  0  0  0
 51121  1  0  0  0
 51122  1  0  0  0
 52123  1  0  0  0
 52124  1  0  0  0
 53 54  1  0  0  0
 54 55  2  0  0  0
 54125  1  0  0  0
 55 57  1  0  0  0
 55126  1  0  0  0
 56 69  2  0  0  0
 57 58  2  0  0  0
 57127  1  0  0  0
 58128  1  0  0  0
 59 60  1  0  0  0
 59 61  1  0  0  0
 59 62  1  0  0  0
 60129  1  0  0  0
 60130  1  0  0  0
 60131  1  0  0  0
 61132  1  0  0  0
 61133  1  0  0  0
 61134  1  0  0  0
 62135  1  0  0  0
 62136  1  0  0  0
 62137  1  0  0  0
 63 65  1  0  0  0
 63138  1  0  0  0
 63139  1  0  0  0
 63140  1  0  0  0
 64141  1  0  0  0
 65142  1  0  0  0
 68 80  1  0  0  0
 71 72  2  0  0  0
 71 74  1  0  0  0
 71143  1  0  0  0
 72 73  1  0  0  0
 72 78  1  0  0  0
 73 75  2  0  0  0
 73 79  1  0  0  0
 74 80  1  0  0  0
 74 82  2  0  0  0
 75 76  1  0  0  0
 75 82  1  0  0  0
 76144  1  0  0  0
 76145  1  0  0  0
 76146  1  0  0  0
 77 79  1  0  0  0
 77147  1  0  0  0
 77148  1  0  0  0
 77149  1  0  0  0
 78 81  1  0  0  0
 78150  1  0  0  0
 78151  1  0  0  0
 79152  1  0  0  0
 79153  1  0  0  0
 80154  1  0  0  0
 80155  1  0  0  0
 81 83  1  0  0  0
 81156  1  0  0  0
 81157  1  0  0  0
 83158  1  0  0  0
M  ISO  4   1 100  68 101  80 101  83 100
M  END
> <chiral flag>
0

> <version>
0

> <s_m_source_file>
/data/baiqing/PycharmProjects/Reinvent-master-3.2/result/LINK_invent/BTK/process_docking_weight1_custom_sum_contain_oxygen_bond_distance_aromatic_linkinvent_7_9_3/rearranged_h_0116.sdf

> <i_m_source_file_index>
48

> <r_mmod_Potential_Energy-OPLS-2005>
584.171875

> <r_mmod_Stretch_Energy-OPLS-2005>
310.672668457031

> <r_mmod_Bend_Energy-OPLS-2005>
341.360778808594

> <r_mmod_Torsional_Energy-OPLS-2005>
268.236572265625

> <r_mmod_Improper_Torsional_Energy-OPLS-2005>
8.2725658416748

> <r_mmod_Van_der_Waal_Energy-OPLS-2005>
127.320533752441

> <r_mmod_Electrostatic_Energy-OPLS-2005>
-478.052093505859

> <r_mmod_Solvation_Energy-OPLS-2005>
-230.723754882812

> <b_mmod_Minimization_Converged-OPLS-2005>
0

> <r_mmod_RMS_Derivative-OPLS-2005>
1.49695956707001

$$$$
49
                    3D
 Structure written by MMmdl.
172180  0  0  1  0            999 V2000
  -30.6728  -14.4993   20.5535 C   0  0  0  0  0  0
  -30.4235  -12.3164   19.4319 C   0  0  0  0  0  0
  -29.4992  -12.5037   18.2106 C   0  0  0  0  0  0
  -28.0183  -12.3571   18.6197 C   0  0  0  0  0  0
  -27.6569  -13.2080   19.8690 C   0  0  2  0  0  0
  -28.6959  -13.0007   20.9931 C   0  0  0  0  0  0
  -25.2566  -13.8155   20.5637 C   0  0  0  0  0  0
  -24.1827  -13.0440   20.9145 C   0  0  0  0  0  0
  -24.6382  -11.6902   20.8704 C   0  0  0  0  0  0
  -23.9049  -10.4293   21.0389 C   0  0  0  0  0  0
  -24.3607   -9.4222   21.9174 C   0  0  0  0  0  0
  -23.6289   -8.2258   22.0759 C   0  0  0  0  0  0
  -22.4275   -8.0272   21.3546 C   0  0  0  0  0  0
  -21.9896   -9.0245   20.4656 C   0  0  0  0  0  0
  -22.7218  -10.2127   20.3057 C   0  0  0  0  0  0
  -21.6853   -6.0730   22.5278 C   0  0  0  0  0  0
  -21.4023   -6.5646   23.8210 C   0  0  0  0  0  0
  -21.3658   -5.6793   24.9169 C   0  0  0  0  0  0
  -21.6047   -4.3049   24.7212 C   0  0  0  0  0  0
  -21.8825   -3.8146   23.4338 C   0  0  0  0  0  0
  -21.9200   -4.6965   22.3397 C   0  0  0  0  0  0
  -22.7859  -13.5231   21.1815 C   0  0  0  0  0  0
  -22.1662   -4.2159   21.0965 F   0  0  0  0  0  0
  -21.5625   -3.4531   25.7724 F   0  0  0  0  0  0
  -30.0228  -13.3104   20.4391 N   0  0  0  0  0  0
  -26.2994  -12.9336   20.3320 N   0  0  0  0  0  0
  -25.9307  -11.6492   20.5762 N   0  0  0  0  0  0
  -22.0503  -12.8236   22.0383 N   0  0  0  0  0  0
  -25.4265  -15.1876   20.4024 N   0  0  0  0  0  0
  -31.8406  -14.6404   20.1803 O   0  0  0  0  0  0
  -21.6643   -6.8869   21.4240 O   0  0  0  0  0  0
  -22.3550  -14.5547   20.6676 O   0  0  0  0  0  0
  -24.6150  -31.8693   23.2096 C   0  0  0  0  0  0
  -25.9053  -32.4833   23.8396 C   0  0  1  0  0  0
  -27.2291  -27.4204   20.1043 C   0  0  0  0  0  0
  -25.5917  -33.8629   24.2324 N   0  0  0  0  0  0
  -23.4001  -30.4942   21.5514 C   0  0  2  0  0  0
  -24.8412  -28.9557   20.1177 C   0  0  0  0  0  0
  -22.7402  -29.4674   22.4996 C   0  0  0  0  0  0
  -18.0271  -28.1394   22.8509 C   0  0  0  0  0  0
  -24.1463  -36.7291   23.2635 C   0  0  0  0  0  0
  -25.9265  -30.8342   21.3577 C   0  0  0  0  0  0
  -26.0009  -29.4637   20.7131 C   0  0  0  0  0  0
  -27.1919  -28.7037   20.7026 C   0  0  0  0  0  0
  -26.0474  -26.9324   19.4962 C   0  0  0  0  0  0
  -24.8601  -27.6898   19.5083 C   0  0  0  0  0  0
  -23.6054  -29.8267   20.1645 C   0  0  0  0  0  0
  -25.4094  -36.3117   24.0340 C   0  0  1  0  0  0
  -20.5860  -28.3670   23.1336 C   0  0  2  0  0  0
  -20.6749  -26.9403   22.5439 C   0  0  0  0  0  0
  -19.5722  -26.6394   21.5236 C   0  0  0  0  0  0
  -18.1906  -26.7945   22.1644 C   0  0  0  0  0  0
  -19.1525  -28.8849   23.2919 C   0  0  0  0  0  0
  -18.9460  -30.1458   23.8926 C   0  0  0  0  0  0
  -17.6462  -30.6604   24.0586 C   0  0  0  0  0  0
  -25.9036  -34.9489   23.5128 C   0  0  0  0  0  0
  -16.5349  -29.9118   23.6337 C   0  0  0  0  0  0
  -16.7262  -28.6532   23.0354 C   0  0  0  0  0  0
  -26.4468  -31.6611   25.0732 C   0  0  0  0  0  0
  -25.3732  -31.3752   26.1491 C   0  0  0  0  0  0
  -27.0269  -30.3046   24.6094 C   0  0  0  0  0  0
  -27.6043  -32.4311   25.7515 C   0  0  0  0  0  0
  -27.5564  -37.1809   24.8482 C   0  0  0  0  0  0
  -21.4127  -29.3049   22.3745 N   0  0  0  0  0  0
  -26.4269  -37.3814   23.9432 N   0  0  0  0  0  0
  -24.6663  -31.0801   22.0990 N   0  0  0  0  0  0
  -23.4181  -28.8224   23.3042 O   0  0  0  0  0  0
  -28.4297  -26.7330   20.1169 O   0  0  0  0  0  0
  -26.5589  -34.8946   22.4686 O   0  0  0  0  0  0
  -23.5344  -32.1441   23.7503 O   0  0  0  0  0  0
  -29.5676  -17.7958   21.8599 C   0  0  0  0  0  0
  -30.9881  -17.7172   20.0834 C   0  0  0  0  0  0
  -30.1704  -16.9459   20.9755 C   0  0  0  0  0  0
  -31.0150  -18.9889   20.6172 C   0  0  0  0  0  0
  -31.8697  -20.1595   20.2277 C   0  0  0  0  0  0
  -31.6609  -18.2167   17.6417 C   0  0  0  0  0  0
  -27.3253  -20.2333   21.6143 C   0  0  0  0  0  0
  -29.6278  -25.0964   18.9213 C   0  0  0  0  0  0
  -31.7006  -17.2393   18.8278 C   0  0  0  0  0  0
  -29.7410  -20.2467   22.4705 C   0  0  0  0  0  0
  -28.8302  -22.1365   20.8570 C   0  0  0  0  0  0
  -28.7893  -24.6481   21.3364 C   0  0  0  0  0  0
  -28.5304  -21.1110   21.9918 C   0  0  1  0  0  0
  -28.5073  -25.3018   19.9513 C   0  0  1  0  0  0
  -30.0835  -19.0669   21.6550 N   0  0  0  0  0  0
  -29.9021  -15.5355   20.9611 N   0  0  0  0  0  0
  -29.5485  -23.3596   21.3091 N   0  3  0  0  0  0
  -31.4698  -12.4130   19.1350 H   0  0  0  0  0  0
  -30.3222  -11.3119   19.8451 H   0  0  0  0  0  0
  -29.7493  -11.7817   17.4326 H   0  0  0  0  0  0
  -29.6630  -13.4898   17.7728 H   0  0  0  0  0  0
  -27.8278  -11.3017   18.8213 H   0  0  0  0  0  0
  -27.3713  -12.6178   17.7820 H   0  0  0  0  0  0
  -27.6967  -14.2536   19.5610 H   0  0  0  0  0  0
  -28.6783  -11.9679   21.3441 H   0  0  0  0  0  0
  -28.4589  -13.6118   21.8657 H   0  0  0  0  0  0
  -25.2758   -9.5712   22.4722 H   0  0  0  0  0  0
  -24.0006   -7.4665   22.7487 H   0  0  0  0  0  0
  -21.0821   -8.8766   19.8961 H   0  0  0  0  0  0
  -22.3678  -10.9659   19.6155 H   0  0  0  0  0  0
  -21.2023   -7.6153   23.9718 H   0  0  0  0  0  0
  -21.1470   -6.0516   25.9074 H   0  0  0  0  0  0
  -22.0611   -2.7613   23.2832 H   0  0  0  0  0  0
  -22.4119  -11.9886   22.4744 H   0  0  0  0  0  0
  -21.1150  -13.1311   22.2639 H   0  0  0  0  0  0
  -24.6533  -15.8368   20.4946 H   0  0  0  0  0  0
  -26.2787  -15.6294   20.0820 H   0  0  0  0  0  0
  -26.7149  -32.5544   23.1178 H   0  0  0  0  0  0
  -25.0124  -33.9789   25.0515 H   0  0  0  0  0  0
  -22.6898  -31.3122   21.4169 H   0  0  0  0  0  0
  -23.3739  -35.9608   23.3324 H   0  0  0  0  0  0
  -24.3568  -36.8873   22.2046 H   0  0  0  0  0  0
  -23.7181  -37.6495   23.6617 H   0  0  0  0  0  0
  -26.0265  -31.5935   20.5813 H   0  0  0  0  0  0
  -26.8206  -30.9000   21.9669 H   0  0  0  0  0  0
  -28.0871  -29.0982   21.1626 H   0  0  0  0  0  0
  -26.0082  -25.9824   18.9880 H   0  0  0  0  0  0
  -23.9682  -27.2959   19.0393 H   0  0  0  0  0  0
  -23.7136  -30.6036   19.4064 H   0  0  0  0  0  0
  -22.7259  -29.2514   19.8675 H   0  0  0  0  0  0
  -25.1255  -36.1983   25.0828 H   0  0  0  0  0  0
  -20.9959  -28.3237   24.1450 H   0  0  0  0  0  0
  -20.5665  -26.2275   23.3630 H   0  0  0  0  0  0
  -21.6617  -26.7449   22.1231 H   0  0  0  0  0  0
  -19.6879  -25.6312   21.1249 H   0  0  0  0  0  0
  -19.6666  -27.3227   20.6786 H   0  0  0  0  0  0
  -17.4177  -26.6725   21.4035 H   0  0  0  0  0  0
  -18.0280  -26.0083   22.9032 H   0  0  0  0  0  0
  -19.7936  -30.7271   24.2290 H   0  0  0  0  0  0
  -17.5028  -31.6286   24.5177 H   0  0  0  0  0  0
  -15.5355  -30.3039   23.7635 H   0  0  0  0  0  0
  -15.8662  -28.0870   22.7044 H   0  0  0  0  0  0
  -24.5912  -30.7064   25.7878 H   0  0  0  0  0  0
  -24.8907  -32.2917   26.4894 H   0  0  0  0  0  0
  -25.8098  -30.8995   27.0281 H   0  0  0  0  0  0
  -26.2822  -29.6885   24.1037 H   0  0  0  0  0  0
  -27.3925  -29.7207   25.4549 H   0  0  0  0  0  0
  -27.8700  -30.4367   23.9311 H   0  0  0  0  0  0
  -27.2680  -33.3629   26.2070 H   0  0  0  0  0  0
  -28.3890  -32.6834   25.0374 H   0  0  0  0  0  0
  -28.0657  -31.8437   26.5464 H   0  0  0  0  0  0
  -28.2611  -38.0080   24.7531 H   0  0  0  0  0  0
  -28.1022  -36.2622   24.6292 H   0  0  0  0  0  0
  -27.2299  -37.1462   25.8891 H   0  0  0  0  0  0
  -20.9266  -29.8780   21.6991 H   0  0  0  0  0  0
  -26.0152  -38.2881   24.1478 H   0  0  0  0  0  0
  -28.8439  -17.6171   22.6452 H   0  0  0  0  0  0
  -31.4198  -20.7362   19.4210 H   0  0  0  0  0  0
  -32.8443  -19.8118   19.8856 H   0  0  0  0  0  0
  -32.0777  -20.8319   21.0565 H   0  0  0  0  0  0
  -30.6389  -18.5229   17.4126 H   0  0  0  0  0  0
  -32.0745  -17.7409   16.7526 H   0  0  0  0  0  0
  -32.2530  -19.1118   17.8136 H   0  0  0  0  0  0
  -27.0857  -19.5384   22.4189 H   0  0  0  0  0  0
  -27.5190  -19.6474   20.7159 H   0  0  0  0  0  0
  -26.4353  -20.8380   21.4291 H   0  0  0  0  0  0
  -29.3753  -25.6052   17.9912 H   0  0  0  0  0  0
  -30.5771  -25.5027   19.2726 H   0  0  0  0  0  0
  -29.7662  -24.0447   18.6733 H   0  0  0  0  0  0
  -31.2156  -16.3275   18.4822 H   0  0  0  0  0  0
  -32.7307  -16.9805   19.0771 H   0  0  0  0  0  0
  -29.5015  -19.8757   23.4687 H   0  0  0  0  0  0
  -30.6222  -20.8663   22.6229 H   0  0  0  0  0  0
  -27.9018  -22.4383   20.3710 H   0  0  0  0  0  0
  -29.4133  -21.6509   20.0769 H   0  0  0  0  0  0
  -27.8621  -24.5263   21.8985 H   0  0  0  0  0  0
  -29.3953  -25.3448   21.9173 H   0  0  0  0  0  0
  -28.2074  -21.6862   22.8616 H   0  0  0  0  0  0
  -27.6104  -24.8439   19.5420 H   0  0  0  0  0  0
  -29.0040  -15.2603   21.3297 H   0  0  0  0  0  0
  -30.3582  -23.4874   20.7226 H   0  0  0  0  0  0
  -29.8974  -23.1966   22.2397 H   0  0  0  0  0  0
  1 25  1  0  0  0
  1 30  2  0  0  0
  1 86  1  0  0  0
  2  3  1  0  0  0
  2 25  1  0  0  0
  2 88  1  0  0  0
  2 89  1  0  0  0
  3  4  1  0  0  0
  3 90  1  0  0  0
  3 91  1  0  0  0
  4  5  1  0  0  0
  4 92  1  0  0  0
  4 93  1  0  0  0
  5  6  1  0  0  0
  5 26  1  0  0  0
  5 94  1  0  0  0
  6 25  1  0  0  0
  6 95  1  0  0  0
  6 96  1  0  0  0
  7  8  2  0  0  0
  7 26  1  0  0  0
  7 29  1  0  0  0
  8  9  1  0  0  0
  8 22  1  0  0  0
  9 10  1  0  0  0
  9 27  2  0  0  0
 10 11  2  0  0  0
 10 15  1  0  0  0
 11 12  1  0  0  0
 11 97  1  0  0  0
 12 13  2  0  0  0
 12 98  1  0  0  0
 13 14  1  0  0  0
 13 31  1  0  0  0
 14 15  2  0  0  0
 14 99  1  0  0  0
 15100  1  0  0  0
 16 17  2  0  0  0
 16 21  1  0  0  0
 16 31  1  0  0  0
 17 18  1  0  0  0
 17101  1  0  0  0
 18 19  2  0  0  0
 18102  1  0  0  0
 19 20  1  0  0  0
 19 24  1  0  0  0
 20 21  2  0  0  0
 20103  1  0  0  0
 21 23  1  0  0  0
 22 28  1  0  0  0
 22 32  2  0  0  0
 26 27  1  0  0  0
 28104  1  0  0  0
 28105  1  0  0  0
 29106  1  0  0  0
 29107  1  0  0  0
 33 34  1  0  0  0
 33 66  1  0  0  0
 33 70  2  0  0  0
 34 36  1  0  0  0
 34 59  1  0  0  0
 34108  1  0  0  0
 35 44  2  0  0  0
 35 45  1  0  0  0
 35 68  1  0  0  0
 36 56  1  0  0  0
 36109  1  0  0  0
 37 39  1  0  0  0
 37 47  1  0  0  0
 37 66  1  0  0  0
 37110  1  0  0  0
 38 43  2  0  0  0
 38 46  1  0  0  0
 38 47  1  0  0  0
 39 64  1  0  0  0
 39 67  2  0  0  0
 40 52  1  0  0  0
 40 53  2  0  0  0
 40 58  1  0  0  0
 41111  1  0  0  0
 41112  1  0  0  0
 41113  1  0  0  0
 41 48  1  0  0  0
 42 43  1  0  0  0
 42 66  1  0  0  0
 42114  1  0  0  0
 42115  1  0  0  0
 43 44  1  0  0  0
 44116  1  0  0  0
 45 46  2  0  0  0
 45117  1  0  0  0
 46118  1  0  0  0
 47119  1  0  0  0
 47120  1  0  0  0
 48 56  1  0  0  0
 48 65  1  0  0  0
 48121  1  0  0  0
 49 50  1  0  0  0
 49 53  1  0  0  0
 49 64  1  0  0  0
 49122  1  0  0  0
 50 51  1  0  0  0
 50123  1  0  0  0
 50124  1  0  0  0
 51 52  1  0  0  0
 51125  1  0  0  0
 51126  1  0  0  0
 52127  1  0  0  0
 52128  1  0  0  0
 53 54  1  0  0  0
 54 55  2  0  0  0
 54129  1  0  0  0
 55 57  1  0  0  0
 55130  1  0  0  0
 56 69  2  0  0  0
 57 58  2  0  0  0
 57131  1  0  0  0
 58132  1  0  0  0
 59 60  1  0  0  0
 59 61  1  0  0  0
 59 62  1  0  0  0
 60133  1  0  0  0
 60134  1  0  0  0
 60135  1  0  0  0
 61136  1  0  0  0
 61137  1  0  0  0
 61138  1  0  0  0
 62139  1  0  0  0
 62140  1  0  0  0
 62141  1  0  0  0
 63 65  1  0  0  0
 63142  1  0  0  0
 63143  1  0  0  0
 63144  1  0  0  0
 64145  1  0  0  0
 65146  1  0  0  0
 68 84  1  0  0  0
 71 73  2  0  0  0
 71 85  1  0  0  0
 71147  1  0  0  0
 72 73  1  0  0  0
 72 74  2  0  0  0
 72 79  1  0  0  0
 73 86  1  0  0  0
 74 75  1  0  0  0
 74 85  1  0  0  0
 75148  1  0  0  0
 75149  1  0  0  0
 75150  1  0  0  0
 76 79  1  0  0  0
 76151  1  0  0  0
 76152  1  0  0  0
 76153  1  0  0  0
 77154  1  0  0  0
 77155  1  0  0  0
 77156  1  0  0  0
 77 83  1  0  0  0
 78157  1  0  0  0
 78158  1  0  0  0
 78159  1  0  0  0
 78 84  1  0  0  0
 79160  1  0  0  0
 79161  1  0  0  0
 80 83  1  0  0  0
 80 85  1  0  0  0
 80162  1  0  0  0
 80163  1  0  0  0
 81 83  1  0  0  0
 81 87  1  0  0  0
 81164  1  0  0  0
 81165  1  0  0  0
 82 84  1  0  0  0
 82 87  1  0  0  0
 82166  1  0  0  0
 82167  1  0  0  0
 83168  1  0  0  0
 84169  1  0  0  0
 86170  1  0  0  0
 87171  1  0  0  0
 87172  1  0  0  0
M  CHG  1  87   1
M  ISO  4   1 100  68 101  84 101  86 100
M  END
> <chiral flag>
0

> <version>
0

> <s_m_source_file>
/data/baiqing/PycharmProjects/Reinvent-master-3.2/result/LINK_invent/BTK/process_docking_weight1_custom_sum_contain_oxygen_bond_distance_aromatic_linkinvent_7_9_3/rearranged_h_0116.sdf

> <i_m_source_file_index>
49

> <r_mmod_Potential_Energy-OPLS-2005>
-142.617462158203

> <r_mmod_Stretch_Energy-OPLS-2005>
41.6061935424805

> <r_mmod_Bend_Energy-OPLS-2005>
137.648696899414

> <r_mmod_Torsional_Energy-OPLS-2005>
268.163116455078

> <r_mmod_Improper_Torsional_Energy-OPLS-2005>
3.72915244102478

> <r_mmod_Van_der_Waal_Energy-OPLS-2005>
127.895782470703

> <r_mmod_Electrostatic_Energy-OPLS-2005>
-283.131408691406

> <r_mmod_Solvation_Energy-OPLS-2005>
-455.641326904297

> <b_mmod_Minimization_Converged-OPLS-2005>
0

> <r_mmod_RMS_Derivative-OPLS-2005>
2.8357367515564

$$$$
50
                    3D
 Structure written by MMmdl.
165173  0  0  1  0            999 V2000
  -30.5747  -15.0268   20.4007 C   0  0  0  0  0  0
  -30.4363  -12.6544   19.4895 C   0  0  0  0  0  0
  -29.5224  -12.5383   18.2509 C   0  0  0  0  0  0
  -28.0657  -12.2795   18.6770 C   0  0  0  0  0  0
  -27.6196  -13.2243   19.8186 C   0  0  2  0  0  0
  -28.6675  -13.3484   20.9491 C   0  0  0  0  0  0
  -25.2475  -13.8122   20.5710 C   0  0  0  0  0  0
  -24.1789  -13.0387   20.9235 C   0  0  0  0  0  0
  -24.6367  -11.6859   20.8756 C   0  0  0  0  0  0
  -23.9052  -10.4252   21.0409 C   0  0  0  0  0  0
  -24.3619   -9.4165   21.9176 C   0  0  0  0  0  0
  -23.6296   -8.2199   22.0729 C   0  0  0  0  0  0
  -22.4267   -8.0257   21.3539 C   0  0  0  0  0  0
  -21.9912   -9.0219   20.4625 C   0  0  0  0  0  0
  -22.7230  -10.2096   20.3039 C   0  0  0  0  0  0
  -21.6842   -6.0715   22.5269 C   0  0  0  0  0  0
  -21.3993   -6.5617   23.8206 C   0  0  0  0  0  0
  -21.3681   -5.6780   24.9182 C   0  0  0  0  0  0
  -21.6052   -4.3037   24.7218 C   0  0  0  0  0  0
  -21.8830   -3.8123   23.4341 C   0  0  0  0  0  0
  -21.9187   -4.6945   22.3393 C   0  0  0  0  0  0
  -22.7813  -13.5163   21.1894 C   0  0  0  0  0  0
  -22.1666   -4.2132   21.0971 F   0  0  0  0  0  0
  -21.5657   -3.4525   25.7726 F   0  0  0  0  0  0
  -29.9263  -13.7842   20.3262 N   0  0  0  0  0  0
  -26.2857  -12.9297   20.3197 N   0  0  0  0  0  0
  -25.9281  -11.6464   20.5702 N   0  0  0  0  0  0
  -22.0463  -12.8155   22.0451 N   0  0  0  0  0  0
  -25.4214  -15.1846   20.4115 N   0  0  0  0  0  0
  -31.7991  -14.9958   20.2182 O   0  0  0  0  0  0
  -21.6631   -6.8852   21.4227 O   0  0  0  0  0  0
  -22.3481  -14.5455   20.6708 O   0  0  0  0  0  0
  -24.6437  -31.8425   23.1857 C   0  0  0  0  0  0
  -25.9193  -32.4699   23.8261 C   0  0  1  0  0  0
  -27.2259  -27.1333   20.1734 C   0  0  0  0  0  0
  -25.5939  -33.8506   24.2183 N   0  0  0  0  0  0
  -23.4474  -30.4565   21.5347 C   0  0  2  0  0  0
  -24.8972  -28.8735   20.1175 C   0  0  0  0  0  0
  -22.7582  -29.4514   22.4903 C   0  0  0  0  0  0
  -18.0291  -28.1387   22.8481 C   0  0  0  0  0  0
  -24.1485  -36.7262   23.2648 C   0  0  0  0  0  0
  -26.0008  -30.7187   21.3774 C   0  0  0  0  0  0
  -26.0734  -29.3267   20.7269 C   0  0  0  0  0  0
  -27.2414  -28.4781   20.7227 C   0  0  0  0  0  0
  -26.0236  -26.7728   19.5306 C   0  0  0  0  0  0
  -24.8846  -27.6104   19.5016 C   0  0  0  0  0  0
  -23.6732  -29.7768   20.1573 C   0  0  0  0  0  0
  -25.4121  -36.3041   24.0320 C   0  0  1  0  0  0
  -20.5910  -28.3707   23.1263 C   0  0  2  0  0  0
  -20.6776  -26.9403   22.5432 C   0  0  0  0  0  0
  -19.5751  -26.6373   21.5229 C   0  0  0  0  0  0
  -18.1928  -26.7936   22.1624 C   0  0  0  0  0  0
  -19.1554  -28.8868   23.2864 C   0  0  0  0  0  0
  -18.9461  -30.1462   23.8884 C   0  0  0  0  0  0
  -17.6456  -30.6589   24.0560 C   0  0  0  0  0  0
  -25.9070  -34.9412   23.5065 C   0  0  0  0  0  0
  -16.5348  -29.9079   23.6331 C   0  0  0  0  0  0
  -16.7277  -28.6498   23.0353 C   0  0  0  0  0  0
  -26.4524  -31.6554   25.0689 C   0  0  0  0  0  0
  -25.3709  -31.3749   26.1390 C   0  0  0  0  0  0
  -27.0374  -30.2959   24.6213 C   0  0  0  0  0  0
  -27.6052  -32.4328   25.7474 C   0  0  0  0  0  0
  -27.5583  -37.1786   24.8464 C   0  0  0  0  0  0
  -21.4271  -29.3027   22.3650 N   0  0  0  0  0  0
  -26.4293  -37.3750   23.9405 N   0  0  0  0  0  0
  -24.7177  -31.0291   22.0884 N   0  0  0  0  0  0
  -23.4227  -28.8074   23.3061 O   0  0  0  0  0  0
  -28.2994  -26.1650   20.2088 O   0  0  0  0  0  0
  -26.5677  -34.8912   22.4655 O   0  0  0  0  0  0
  -23.5558  -32.1289   23.7083 O   0  0  0  0  0  0
  -28.2281  -18.1739   20.0674 C   0  0  0  0  0  0
  -28.4786  -16.6361   20.3226 C   0  0  0  0  0  0
  -30.5138  -17.7529   20.4237 C   0  0  0  0  0  0
  -29.4116  -18.9569   20.6411 C   0  0  1  0  0  0
  -28.3276  -23.7063   23.2074 C   0  0  0  0  0  0
  -30.0694  -25.3368   22.4361 C   0  0  0  0  0  0
  -27.7677  -26.0912   22.9929 C   0  0  0  0  0  0
  -28.9519  -23.3294   20.1882 C   0  0  0  0  0  0
  -28.6687  -21.6878   20.5762 C   0  0  0  0  0  0
  -28.1752  -24.7226   20.8110 C   0  0  1  0  0  0
  -28.5770  -24.9507   22.3283 C   0  0  0  0  0  0
  -29.9170  -16.3162   20.4595 N   0  0  0  0  0  0
  -29.6184  -20.4722   20.1810 N   0  3  0  0  0  0
  -31.4668  -12.8134   19.1693 H   0  0  0  0  0  0
  -30.4410  -11.7221   20.0545 H   0  0  0  0  0  0
  -29.8730  -11.7407   17.5960 H   0  0  0  0  0  0
  -29.5822  -13.4597   17.6693 H   0  0  0  0  0  0
  -27.9988  -11.2441   19.0124 H   0  0  0  0  0  0
  -27.3991  -12.3664   17.8169 H   0  0  0  0  0  0
  -27.5321  -14.1778   19.3166 H   0  0  0  0  0  0
  -28.7932  -12.3993   21.4718 H   0  0  0  0  0  0
  -28.3436  -14.0727   21.6956 H   0  0  0  0  0  0
  -25.2780   -9.5622   22.4740 H   0  0  0  0  0  0
  -24.0015   -7.4564   22.7416 H   0  0  0  0  0  0
  -21.0859   -8.8705   19.8908 H   0  0  0  0  0  0
  -22.3694  -10.9634   19.6133 H   0  0  0  0  0  0
  -21.1949   -7.6119   23.9689 H   0  0  0  0  0  0
  -21.1529   -6.0519   25.9090 H   0  0  0  0  0  0
  -22.0586   -2.7577   23.2835 H   0  0  0  0  0  0
  -22.4103  -11.9862   22.4905 H   0  0  0  0  0  0
  -21.1035  -13.1086   22.2556 H   0  0  0  0  0  0
  -24.6618  -15.8470   20.5214 H   0  0  0  0  0  0
  -26.2765  -15.6123   20.0839 H   0  0  0  0  0  0
  -26.7265  -32.5327   23.0996 H   0  0  0  0  0  0
  -25.0070  -33.9611   25.0327 H   0  0  0  0  0  0
  -22.7485  -31.2805   21.3781 H   0  0  0  0  0  0
  -23.3756  -35.9585   23.3303 H   0  0  0  0  0  0
  -24.3561  -36.8907   22.2065 H   0  0  0  0  0  0
  -23.7230  -37.6450   23.6696 H   0  0  0  0  0  0
  -26.1461  -31.4646   20.5947 H   0  0  0  0  0  0
  -26.8764  -30.7842   22.0116 H   0  0  0  0  0  0
  -28.1402  -28.8233   21.2127 H   0  0  0  0  0  0
  -25.9540  -25.8001   19.0641 H   0  0  0  0  0  0
  -23.9848  -27.2567   19.0164 H   0  0  0  0  0  0
  -23.8140  -30.5473   19.3997 H   0  0  0  0  0  0
  -22.7866  -29.2189   19.8504 H   0  0  0  0  0  0
  -25.1312  -36.1878   25.0818 H   0  0  0  0  0  0
  -20.9988  -28.3284   24.1389 H   0  0  0  0  0  0
  -20.5656  -26.2310   23.3645 H   0  0  0  0  0  0
  -21.6639  -26.7401   22.1224 H   0  0  0  0  0  0
  -19.6899  -25.6276   21.1260 H   0  0  0  0  0  0
  -19.6703  -27.3184   20.6759 H   0  0  0  0  0  0
  -17.4208  -26.6701   21.4011 H   0  0  0  0  0  0
  -18.0299  -26.0071   22.9008 H   0  0  0  0  0  0
  -19.7933  -30.7286   24.2257 H   0  0  0  0  0  0
  -17.4999  -31.6261   24.5165 H   0  0  0  0  0  0
  -15.5342  -30.2971   23.7655 H   0  0  0  0  0  0
  -15.8680  -28.0808   22.7078 H   0  0  0  0  0  0
  -24.5869  -30.7120   25.7719 H   0  0  0  0  0  0
  -24.8915  -32.2933   26.4795 H   0  0  0  0  0  0
  -25.7982  -30.8932   27.0192 H   0  0  0  0  0  0
  -26.2969  -29.6693   24.1230 H   0  0  0  0  0  0
  -27.4038  -29.7241   25.4749 H   0  0  0  0  0  0
  -27.8856  -30.4234   23.9478 H   0  0  0  0  0  0
  -27.2633  -33.3641   26.2011 H   0  0  0  0  0  0
  -28.3873  -32.6881   25.0308 H   0  0  0  0  0  0
  -28.0709  -31.8488   26.5423 H   0  0  0  0  0  0
  -28.2595  -38.0091   24.7512 H   0  0  0  0  0  0
  -28.1086  -36.2620   24.6285 H   0  0  0  0  0  0
  -27.2303  -37.1430   25.8869 H   0  0  0  0  0  0
  -20.9487  -29.8750   21.6831 H   0  0  0  0  0  0
  -26.0166  -38.2823   24.1408 H   0  0  0  0  0  0
  -27.2846  -18.5014   20.5065 H   0  0  0  0  0  0
  -28.1560  -18.3530   18.9935 H   0  0  0  0  0  0
  -28.0711  -16.1164   19.4650 H   0  0  0  0  0  0
  -27.9516  -16.3154   21.2216 H   0  0  0  0  0  0
  -31.2931  -17.8318   21.1819 H   0  0  0  0  0  0
  -31.0152  -17.8820   19.4643 H   0  0  0  0  0  0
  -29.2473  -19.0235   21.7160 H   0  0  0  0  0  0
  -28.3149  -23.9488   24.2707 H   0  0  0  0  0  0
  -29.1174  -22.9661   23.1085 H   0  0  0  0  0  0
  -27.3703  -23.2384   22.9769 H   0  0  0  0  0  0
  -30.3349  -25.6296   23.4529 H   0  0  0  0  0  0
  -30.3153  -26.1808   21.7915 H   0  0  0  0  0  0
  -30.7310  -24.5182   22.1550 H   0  0  0  0  0  0
  -27.8618  -26.0954   24.0786 H   0  0  0  0  0  0
  -26.7051  -26.0380   22.7531 H   0  0  0  0  0  0
  -28.1381  -27.0688   22.6992 H   0  0  0  0  0  0
  -28.8084  -23.3872   19.1102 H   0  0  0  0  0  0
  -30.0225  -23.4946   20.3016 H   0  0  0  0  0  0
  -27.6844  -21.4425   20.1746 H   0  0  0  0  0  0
  -28.5479  -21.5852   21.6476 H   0  0  0  0  0  0
  -27.1125  -24.4740   20.7911 H   0  0  0  0  0  0
  -29.7020  -20.4646   19.1783 H   0  0  0  0  0  0
  -30.5310  -20.7306   20.5246 H   0  0  0  0  0  0
  1 25  1  0  0  0
  1 30  2  0  0  0
  1 82  1  0  0  0
  2  3  1  0  0  0
  2 25  1  0  0  0
  2 84  1  0  0  0
  2 85  1  0  0  0
  3  4  1  0  0  0
  3 86  1  0  0  0
  3 87  1  0  0  0
  4  5  1  0  0  0
  4 88  1  0  0  0
  4 89  1  0  0  0
  5  6  1  0  0  0
  5 26  1  0  0  0
  5 90  1  0  0  0
  6 25  1  0  0  0
  6 91  1  0  0  0
  6 92  1  0  0  0
  7  8  2  0  0  0
  7 26  1  0  0  0
  7 29  1  0  0  0
  8  9  1  0  0  0
  8 22  1  0  0  0
  9 10  1  0  0  0
  9 27  2  0  0  0
 10 11  2  0  0  0
 10 15  1  0  0  0
 11 12  1  0  0  0
 11 93  1  0  0  0
 12 13  2  0  0  0
 12 94  1  0  0  0
 13 14  1  0  0  0
 13 31  1  0  0  0
 14 15  2  0  0  0
 14 95  1  0  0  0
 15 96  1  0  0  0
 16 17  2  0  0  0
 16 21  1  0  0  0
 16 31  1  0  0  0
 17 18  1  0  0  0
 17 97  1  0  0  0
 18 19  2  0  0  0
 18 98  1  0  0  0
 19 20  1  0  0  0
 19 24  1  0  0  0
 20 21  2  0  0  0
 20 99  1  0  0  0
 21 23  1  0  0  0
 22 28  1  0  0  0
 22 32  2  0  0  0
 26 27  1  0  0  0
 28100  1  0  0  0
 28101  1  0  0  0
 29102  1  0  0  0
 29103  1  0  0  0
 33 34  1  0  0  0
 33 66  1  0  0  0
 33 70  2  0  0  0
 34 36  1  0  0  0
 34 59  1  0  0  0
 34104  1  0  0  0
 35 44  2  0  0  0
 35 45  1  0  0  0
 35 68  1  0  0  0
 36 56  1  0  0  0
 36105  1  0  0  0
 37 39  1  0  0  0
 37 47  1  0  0  0
 37 66  1  0  0  0
 37106  1  0  0  0
 38 43  2  0  0  0
 38 46  1  0  0  0
 38 47  1  0  0  0
 39 64  1  0  0  0
 39 67  2  0  0  0
 40 52  1  0  0  0
 40 53  2  0  0  0
 40 58  1  0  0  0
 41107  1  0  0  0
 41108  1  0  0  0
 41109  1  0  0  0
 41 48  1  0  0  0
 42 43  1  0  0  0
 42 66  1  0  0  0
 42110  1  0  0  0
 42111  1  0  0  0
 43 44  1  0  0  0
 44112  1  0  0  0
 45 46  2  0  0  0
 45113  1  0  0  0
 46114  1  0  0  0
 47115  1  0  0  0
 47116  1  0  0  0
 48 56  1  0  0  0
 48 65  1  0  0  0
 48117  1  0  0  0
 49 50  1  0  0  0
 49 53  1  0  0  0
 49 64  1  0  0  0
 49118  1  0  0  0
 50 51  1  0  0  0
 50119  1  0  0  0
 50120  1  0  0  0
 51 52  1  0  0  0
 51121  1  0  0  0
 51122  1  0  0  0
 52123  1  0  0  0
 52124  1  0  0  0
 53 54  1  0  0  0
 54 55  2  0  0  0
 54125  1  0  0  0
 55 57  1  0  0  0
 55126  1  0  0  0
 56 69  2  0  0  0
 57 58  2  0  0  0
 57127  1  0  0  0
 58128  1  0  0  0
 59 60  1  0  0  0
 59 61  1  0  0  0
 59 62  1  0  0  0
 60129  1  0  0  0
 60130  1  0  0  0
 60131  1  0  0  0
 61132  1  0  0  0
 61133  1  0  0  0
 61134  1  0  0  0
 62135  1  0  0  0
 62136  1  0  0  0
 62137  1  0  0  0
 63 65  1  0  0  0
 63138  1  0  0  0
 63139  1  0  0  0
 63140  1  0  0  0
 64141  1  0  0  0
 65142  1  0  0  0
 68 80  1  0  0  0
 71 72  1  0  0  0
 71 74  1  0  0  0
 71143  1  0  0  0
 71144  1  0  0  0
 72 82  1  0  0  0
 72145  1  0  0  0
 72146  1  0  0  0
 73 74  1  0  0  0
 73 82  1  0  0  0
 73147  1  0  0  0
 73148  1  0  0  0
 74 83  1  0  0  0
 74149  1  0  0  0
 75150  1  0  0  0
 75151  1  0  0  0
 75152  1  0  0  0
 75 81  1  0  0  0
 76 81  1  0  0  0
 76153  1  0  0  0
 76154  1  0  0  0
 76155  1  0  0  0
 77 81  1  0  0  0
 77156  1  0  0  0
 77157  1  0  0  0
 77158  1  0  0  0
 78 79  1  0  0  0
 78159  1  0  0  0
 78160  1  0  0  0
 78 80  1  0  0  0
 79 83  1  0  0  0
 79161  1  0  0  0
 79162  1  0  0  0
 80 81  1  0  0  0
 80163  1  0  0  0
 83164  1  0  0  0
 83165  1  0  0  0
M  CHG  1  83   1
M  ISO  4   1 100  68 101  80 101  82 100
M  END
> <chiral flag>
0

> <version>
0

> <s_m_source_file>
/data/baiqing/PycharmProjects/Reinvent-master-3.2/result/LINK_invent/BTK/process_docking_weight1_custom_sum_contain_oxygen_bond_distance_aromatic_linkinvent_7_9_3/rearranged_h_0116.sdf

> <i_m_source_file_index>
50

> <r_mmod_Potential_Energy-OPLS-2005>
608.457702636719

> <r_mmod_Stretch_Energy-OPLS-2005>
287.613372802734

> <r_mmod_Bend_Energy-OPLS-2005>
320.969543457031

> <r_mmod_Torsional_Energy-OPLS-2005>
349.164733886719

> <r_mmod_Improper_Torsional_Energy-OPLS-2005>
4.61355257034302

> <r_mmod_Van_der_Waal_Energy-OPLS-2005>
118.533226013184

> <r_mmod_Electrostatic_Energy-OPLS-2005>
-230.176574707031

> <r_mmod_Solvation_Energy-OPLS-2005>
-466.292419433594

> <b_mmod_Minimization_Converged-OPLS-2005>
0

> <r_mmod_RMS_Derivative-OPLS-2005>
3.55724573135376

$$$$
51
                    3D
 Structure written by MMmdl.
167175  0  0  1  0            999 V2000
  -30.6198  -14.6346   20.4896 C   0  0  0  0  0  0
  -30.4397  -12.3847   19.4607 C   0  0  0  0  0  0
  -29.5119  -12.5064   18.2299 C   0  0  0  0  0  0
  -28.0338  -12.3449   18.6387 C   0  0  0  0  0  0
  -27.6566  -13.2140   19.8676 C   0  0  2  0  0  0
  -28.6998  -13.0651   21.0006 C   0  0  0  0  0  0
  -25.2563  -13.8171   20.5664 C   0  0  0  0  0  0
  -24.1820  -13.0450   20.9174 C   0  0  0  0  0  0
  -24.6383  -11.6917   20.8729 C   0  0  0  0  0  0
  -23.9056  -10.4298   21.0387 C   0  0  0  0  0  0
  -24.3614   -9.4222   21.9168 C   0  0  0  0  0  0
  -23.6289   -8.2258   22.0758 C   0  0  0  0  0  0
  -22.4263   -8.0288   21.3554 C   0  0  0  0  0  0
  -21.9894   -9.0258   20.4659 C   0  0  0  0  0  0
  -22.7223  -10.2135   20.3045 C   0  0  0  0  0  0
  -21.6856   -6.0732   22.5277 C   0  0  0  0  0  0
  -21.4022   -6.5636   23.8210 C   0  0  0  0  0  0
  -21.3659   -5.6791   24.9174 C   0  0  0  0  0  0
  -21.6037   -4.3050   24.7225 C   0  0  0  0  0  0
  -21.8821   -3.8144   23.4349 C   0  0  0  0  0  0
  -21.9192   -4.6959   22.3405 C   0  0  0  0  0  0
  -22.7842  -13.5246   21.1825 C   0  0  0  0  0  0
  -22.1660   -4.2144   21.0981 F   0  0  0  0  0  0
  -21.5626   -3.4543   25.7744 F   0  0  0  0  0  0
  -30.0205  -13.4029   20.4447 N   0  0  0  0  0  0
  -26.2998  -12.9345   20.3326 N   0  0  0  0  0  0
  -25.9313  -11.6510   20.5750 N   0  0  0  0  0  0
  -22.0481  -12.8254   22.0390 N   0  0  0  0  0  0
  -25.4285  -15.1894   20.4056 N   0  0  0  0  0  0
  -31.7598  -14.8177   20.0548 O   0  0  0  0  0  0
  -21.6645   -6.8876   21.4237 O   0  0  0  0  0  0
  -22.3530  -14.5550   20.6669 O   0  0  0  0  0  0
  -24.6252  -31.8603   23.2033 C   0  0  0  0  0  0
  -25.9100  -32.4782   23.8357 C   0  0  1  0  0  0
  -27.2277  -27.3298   20.1089 C   0  0  0  0  0  0
  -25.5909  -33.8584   24.2273 N   0  0  0  0  0  0
  -23.4188  -30.4840   21.5458 C   0  0  2  0  0  0
  -24.8655  -28.9427   20.1087 C   0  0  0  0  0  0
  -22.7471  -29.4622   22.4941 C   0  0  0  0  0  0
  -18.0285  -28.1391   22.8487 C   0  0  0  0  0  0
  -24.1488  -36.7304   23.2643 C   0  0  0  0  0  0
  -25.9596  -30.7943   21.3725 C   0  0  0  0  0  0
  -26.0344  -29.4243   20.7113 C   0  0  0  0  0  0
  -27.2191  -28.6304   20.6984 C   0  0  0  0  0  0
  -26.0358  -26.9010   19.4804 C   0  0  0  0  0  0
  -24.8681  -27.6866   19.4842 C   0  0  0  0  0  0
  -23.6323  -29.8214   20.1602 C   0  0  0  0  0  0
  -25.4114  -36.3087   24.0327 C   0  0  1  0  0  0
  -20.5884  -28.3691   23.1294 C   0  0  2  0  0  0
  -20.6776  -26.9417   22.5423 C   0  0  0  0  0  0
  -19.5756  -26.6389   21.5221 C   0  0  0  0  0  0
  -18.1930  -26.7938   22.1623 C   0  0  0  0  0  0
  -19.1537  -28.8863   23.2886 C   0  0  0  0  0  0
  -18.9457  -30.1460   23.8906 C   0  0  0  0  0  0
  -17.6456  -30.6592   24.0572 C   0  0  0  0  0  0
  -25.9048  -34.9454   23.5108 C   0  0  0  0  0  0
  -16.5350  -29.9092   23.6327 C   0  0  0  0  0  0
  -16.7271  -28.6514   23.0345 C   0  0  0  0  0  0
  -26.4486  -31.6599   25.0731 C   0  0  0  0  0  0
  -25.3722  -31.3746   26.1467 C   0  0  0  0  0  0
  -27.0330  -30.3020   24.6195 C   0  0  0  0  0  0
  -27.6048  -32.4343   25.7493 C   0  0  0  0  0  0
  -27.5579  -37.1807   24.8461 C   0  0  0  0  0  0
  -21.4186  -29.3041   22.3685 N   0  0  0  0  0  0
  -26.4294  -37.3778   23.9404 N   0  0  0  0  0  0
  -24.6867  -31.0622   22.0976 N   0  0  0  0  0  0
  -23.4197  -28.8158   23.3015 O   0  0  0  0  0  0
  -28.3529  -26.4902   20.1629 O   0  0  0  0  0  0
  -26.5626  -34.8918   22.4673 O   0  0  0  0  0  0
  -23.5414  -32.1396   23.7366 O   0  0  0  0  0  0
  -29.0327  -21.7342   19.5260 C   0  0  0  0  0  0
  -29.6860  -20.2941   19.5904 C   0  0  0  0  0  0
  -30.2004  -20.6907   21.9011 C   0  0  0  0  0  0
  -29.5852  -22.1375   21.8286 C   0  0  1  0  0  0
  -30.3336  -23.0166   22.8516 C   0  0  0  0  0  0
  -30.2375  -24.4876   18.8634 C   0  0  0  0  0  0
  -27.4240  -24.7455   21.5997 C   0  0  0  0  0  0
  -29.7251  -17.0853   20.2680 C   0  0  0  0  0  0
  -30.1624  -18.2888   21.2003 C   0  0  0  0  0  0
  -29.5503  -24.1999   20.2097 C   0  0  1  0  0  0
  -28.1781  -25.0170   20.2839 C   0  0  2  0  0  0
  -29.6618  -22.7021   20.4577 N   0  0  0  0  0  0
  -29.8049  -15.6802   20.8211 N   0  0  0  0  0  0
  -29.6091  -19.6970   20.9552 N   0  3  2  0  0  0
  -31.4831  -12.5037   19.1621 H   0  0  0  0  0  0
  -30.3686  -11.3890   19.9002 H   0  0  0  0  0  0
  -29.7785  -11.7572   17.4841 H   0  0  0  0  0  0
  -29.6571  -13.4763   17.7511 H   0  0  0  0  0  0
  -27.8685  -11.2917   18.8689 H   0  0  0  0  0  0
  -27.3806  -12.5768   17.7963 H   0  0  0  0  0  0
  -27.6780  -14.2498   19.5284 H   0  0  0  0  0  0
  -28.7030  -12.0446   21.3879 H   0  0  0  0  0  0
  -28.4449  -13.7004   21.8496 H   0  0  0  0  0  0
  -25.2769   -9.5706   22.4733 H   0  0  0  0  0  0
  -24.0008   -7.4651   22.7479 H   0  0  0  0  0  0
  -21.0822   -8.8775   19.8968 H   0  0  0  0  0  0
  -22.3681  -10.9667   19.6152 H   0  0  0  0  0  0
  -21.2026   -7.6147   23.9717 H   0  0  0  0  0  0
  -21.1470   -6.0519   25.9073 H   0  0  0  0  0  0
  -22.0597   -2.7604   23.2853 H   0  0  0  0  0  0
  -22.4105  -11.9941   22.4819 H   0  0  0  0  0  0
  -21.1099  -13.1294   22.2581 H   0  0  0  0  0  0
  -24.6604  -15.8440   20.5055 H   0  0  0  0  0  0
  -26.2729  -15.6232   20.0565 H   0  0  0  0  0  0
  -26.7171  -32.5450   23.1109 H   0  0  0  0  0  0
  -25.0021  -33.9733   25.0394 H   0  0  0  0  0  0
  -22.7124  -31.3043   21.4046 H   0  0  0  0  0  0
  -23.3741  -35.9648   23.3316 H   0  0  0  0  0  0
  -24.3574  -36.8920   22.2056 H   0  0  0  0  0  0
  -23.7258  -37.6515   23.6665 H   0  0  0  0  0  0
  -26.0917  -31.5627   20.6089 H   0  0  0  0  0  0
  -26.8389  -30.8403   22.0035 H   0  0  0  0  0  0
  -28.1170  -28.9966   21.1758 H   0  0  0  0  0  0
  -25.9784  -25.9437   18.9873 H   0  0  0  0  0  0
  -23.9737  -27.3135   19.0049 H   0  0  0  0  0  0
  -23.7485  -30.5998   19.4051 H   0  0  0  0  0  0
  -22.7527  -29.2504   19.8576 H   0  0  0  0  0  0
  -25.1296  -36.1943   25.0822 H   0  0  0  0  0  0
  -20.9975  -28.3270   24.1416 H   0  0  0  0  0  0
  -20.5682  -26.2297   23.3618 H   0  0  0  0  0  0
  -21.6643  -26.7452   22.1213 H   0  0  0  0  0  0
  -19.6916  -25.6301   21.1248 H   0  0  0  0  0  0
  -19.6698  -27.3202   20.6753 H   0  0  0  0  0  0
  -17.4201  -26.6691   21.4019 H   0  0  0  0  0  0
  -18.0322  -26.0081   22.9020 H   0  0  0  0  0  0
  -19.7932  -30.7277   24.2279 H   0  0  0  0  0  0
  -17.5012  -31.6268   24.5176 H   0  0  0  0  0  0
  -15.5354  -30.2998   23.7654 H   0  0  0  0  0  0
  -15.8668  -28.0843   22.7048 H   0  0  0  0  0  0
  -24.5888  -30.7107   25.7799 H   0  0  0  0  0  0
  -24.8924  -32.2917   26.4897 H   0  0  0  0  0  0
  -25.8047  -30.8919   27.0241 H   0  0  0  0  0  0
  -26.2906  -29.6776   24.1216 H   0  0  0  0  0  0
  -27.4016  -29.7283   25.4708 H   0  0  0  0  0  0
  -27.8777  -30.4299   23.9424 H   0  0  0  0  0  0
  -27.2659  -33.3644   26.2071 H   0  0  0  0  0  0
  -28.3847  -32.6914   25.0313 H   0  0  0  0  0  0
  -28.0736  -31.8480   26.5408 H   0  0  0  0  0  0
  -28.2603  -38.0096   24.7490 H   0  0  0  0  0  0
  -28.1065  -36.2624   24.6302 H   0  0  0  0  0  0
  -27.2296  -37.1483   25.8865 H   0  0  0  0  0  0
  -20.9362  -29.8764   21.6899 H   0  0  0  0  0  0
  -26.0176  -38.2856   24.1396 H   0  0  0  0  0  0
  -27.9623  -21.6723   19.7311 H   0  0  0  0  0  0
  -29.1183  -22.0935   18.5011 H   0  0  0  0  0  0
  -30.7296  -20.3487   19.2766 H   0  0  0  0  0  0
  -29.1853  -19.6363   18.8791 H   0  0  0  0  0  0
  -30.0871  -20.3103   22.9172 H   0  0  0  0  0  0
  -31.2759  -20.7460   21.7209 H   0  0  0  0  0  0
  -28.5407  -22.0736   22.1327 H   0  0  0  0  0  0
  -31.3736  -23.1684   22.5603 H   0  0  0  0  0  0
  -30.3409  -22.5464   23.8357 H   0  0  0  0  0  0
  -29.8786  -23.9942   22.9903 H   0  0  0  0  0  0
  -30.4370  -25.5534   18.7510 H   0  0  0  0  0  0
  -29.6210  -24.1906   18.0154 H   0  0  0  0  0  0
  -31.1960  -23.9748   18.7829 H   0  0  0  0  0  0
  -27.1936  -23.6892   21.7114 H   0  0  0  0  0  0
  -26.4693  -25.2680   21.6440 H   0  0  0  0  0  0
  -28.0054  -25.0672   22.4624 H   0  0  0  0  0  0
  -30.2844  -17.1333   19.3325 H   0  0  0  0  0  0
  -28.6825  -17.2359   19.9865 H   0  0  0  0  0  0
  -31.2523  -18.3411   21.1916 H   0  0  0  0  0  0
  -29.8912  -18.0249   22.2226 H   0  0  0  0  0  0
  -30.2040  -24.6729   20.9414 H   0  0  0  0  0  0
  -27.5698  -24.6542   19.4562 H   0  0  0  0  0  0
  -28.9501  -15.3722   21.2596 H   0  0  0  0  0  0
  -28.6260  -19.6523   21.1751 H   0  0  0  0  0  0
  1 25  1  0  0  0
  1 30  2  0  0  0
  1 83  1  0  0  0
  2  3  1  0  0  0
  2 25  1  0  0  0
  2 85  1  0  0  0
  2 86  1  0  0  0
  3  4  1  0  0  0
  3 87  1  0  0  0
  3 88  1  0  0  0
  4  5  1  0  0  0
  4 89  1  0  0  0
  4 90  1  0  0  0
  5  6  1  0  0  0
  5 26  1  0  0  0
  5 91  1  0  0  0
  6 25  1  0  0  0
  6 92  1  0  0  0
  6 93  1  0  0  0
  7  8  2  0  0  0
  7 26  1  0  0  0
  7 29  1  0  0  0
  8  9  1  0  0  0
  8 22  1  0  0  0
  9 10  1  0  0  0
  9 27  2  0  0  0
 10 11  2  0  0  0
 10 15  1  0  0  0
 11 12  1  0  0  0
 11 94  1  0  0  0
 12 13  2  0  0  0
 12 95  1  0  0  0
 13 14  1  0  0  0
 13 31  1  0  0  0
 14 15  2  0  0  0
 14 96  1  0  0  0
 15 97  1  0  0  0
 16 17  2  0  0  0
 16 21  1  0  0  0
 16 31  1  0  0  0
 17 18  1  0  0  0
 17 98  1  0  0  0
 18 19  2  0  0  0
 18 99  1  0  0  0
 19 20  1  0  0  0
 19 24  1  0  0  0
 20 21  2  0  0  0
 20100  1  0  0  0
 21 23  1  0  0  0
 22 28  1  0  0  0
 22 32  2  0  0  0
 26 27  1  0  0  0
 28101  1  0  0  0
 28102  1  0  0  0
 29103  1  0  0  0
 29104  1  0  0  0
 33 34  1  0  0  0
 33 66  1  0  0  0
 33 70  2  0  0  0
 34 36  1  0  0  0
 34 59  1  0  0  0
 34105  1  0  0  0
 35 44  2  0  0  0
 35 45  1  0  0  0
 35 68  1  0  0  0
 36 56  1  0  0  0
 36106  1  0  0  0
 37 39  1  0  0  0
 37 47  1  0  0  0
 37 66  1  0  0  0
 37107  1  0  0  0
 38 43  2  0  0  0
 38 46  1  0  0  0
 38 47  1  0  0  0
 39 64  1  0  0  0
 39 67  2  0  0  0
 40 52  1  0  0  0
 40 53  2  0  0  0
 40 58  1  0  0  0
 41108  1  0  0  0
 41109  1  0  0  0
 41110  1  0  0  0
 41 48  1  0  0  0
 42 43  1  0  0  0
 42 66  1  0  0  0
 42111  1  0  0  0
 42112  1  0  0  0
 43 44  1  0  0  0
 44113  1  0  0  0
 45 46  2  0  0  0
 45114  1  0  0  0
 46115  1  0  0  0
 47116  1  0  0  0
 47117  1  0  0  0
 48 56  1  0  0  0
 48 65  1  0  0  0
 48118  1  0  0  0
 49 50  1  0  0  0
 49 53  1  0  0  0
 49 64  1  0  0  0
 49119  1  0  0  0
 50 51  1  0  0  0
 50120  1  0  0  0
 50121  1  0  0  0
 51 52  1  0  0  0
 51122  1  0  0  0
 51123  1  0  0  0
 52124  1  0  0  0
 52125  1  0  0  0
 53 54  1  0  0  0
 54 55  2  0  0  0
 54126  1  0  0  0
 55 57  1  0  0  0
 55127  1  0  0  0
 56 69  2  0  0  0
 57 58  2  0  0  0
 57128  1  0  0  0
 58129  1  0  0  0
 59 60  1  0  0  0
 59 61  1  0  0  0
 59 62  1  0  0  0
 60130  1  0  0  0
 60131  1  0  0  0
 60132  1  0  0  0
 61133  1  0  0  0
 61134  1  0  0  0
 61135  1  0  0  0
 62136  1  0  0  0
 62137  1  0  0  0
 62138  1  0  0  0
 63 65  1  0  0  0
 63139  1  0  0  0
 63140  1  0  0  0
 63141  1  0  0  0
 64142  1  0  0  0
 65143  1  0  0  0
 68 81  1  0  0  0
 71 72  1  0  0  0
 71 82  1  0  0  0
 71144  1  0  0  0
 71145  1  0  0  0
 72 84  1  0  0  0
 72146  1  0  0  0
 72147  1  0  0  0
 73 74  1  0  0  0
 73 84  1  0  0  0
 73148  1  0  0  0
 73149  1  0  0  0
 74 75  1  0  0  0
 74 82  1  0  0  0
 74150  1  0  0  0
 75151  1  0  0  0
 75152  1  0  0  0
 75153  1  0  0  0
 76154  1  0  0  0
 76155  1  0  0  0
 76156  1  0  0  0
 76 80  1  0  0  0
 77157  1  0  0  0
 77158  1  0  0  0
 77159  1  0  0  0
 77 81  1  0  0  0
 78 79  1  0  0  0
 78 83  1  0  0  0
 78160  1  0  0  0
 78161  1  0  0  0
 79162  1  0  0  0
 79163  1  0  0  0
 79 84  1  0  0  0
 80 81  1  0  0  0
 80 82  1  0  0  0
 80164  1  0  0  0
 81165  1  0  0  0
 83166  1  0  0  0
 84167  1  0  0  0
M  CHG  1  84   1
M  ISO  4   1 100  68 101  81 101  83 100
M  END
> <chiral flag>
0

> <version>
0

> <s_m_source_file>
/data/baiqing/PycharmProjects/Reinvent-master-3.2/result/LINK_invent/BTK/process_docking_weight1_custom_sum_contain_oxygen_bond_distance_aromatic_linkinvent_7_9_3/rearranged_h_0116.sdf

> <i_m_source_file_index>
51

> <r_mmod_Potential_Energy-OPLS-2005>
-39.7204742431641

> <r_mmod_Stretch_Energy-OPLS-2005>
88.4360198974609

> <r_mmod_Bend_Energy-OPLS-2005>
178.605911254883

> <r_mmod_Torsional_Energy-OPLS-2005>
247.423751831055

> <r_mmod_Improper_Torsional_Energy-OPLS-2005>
6.83993101119995

> <r_mmod_Van_der_Waal_Energy-OPLS-2005>
134.723724365234

> <r_mmod_Electrostatic_Energy-OPLS-2005>
-289.038452148438

> <r_mmod_Solvation_Energy-OPLS-2005>
-452.7607421875

> <b_mmod_Minimization_Converged-OPLS-2005>
0

> <r_mmod_RMS_Derivative-OPLS-2005>
1.62124049663544

$$$$
52
                    3D
 Structure written by MMmdl.
172181  0  0  1  0            999 V2000
  -30.7470  -14.4399   20.4324 C   0  0  0  0  0  0
  -30.4155  -12.2502   19.4329 C   0  0  0  0  0  0
  -29.4797  -12.3896   18.2114 C   0  0  0  0  0  0
  -27.9983  -12.3330   18.6235 C   0  0  0  0  0  0
  -27.6529  -13.2125   19.8588 C   0  0  2  0  0  0
  -28.7077  -13.0791   20.9823 C   0  0  0  0  0  0
  -25.2545  -13.8205   20.5648 C   0  0  0  0  0  0
  -24.1826  -13.0493   20.9186 C   0  0  0  0  0  0
  -24.6394  -11.6951   20.8792 C   0  0  0  0  0  0
  -23.9081  -10.4321   21.0425 C   0  0  0  0  0  0
  -24.3624   -9.4217   21.9189 C   0  0  0  0  0  0
  -23.6292   -8.2259   22.0746 C   0  0  0  0  0  0
  -22.4266   -8.0293   21.3544 C   0  0  0  0  0  0
  -21.9923   -9.0287   20.4646 C   0  0  0  0  0  0
  -22.7263  -10.2163   20.3071 C   0  0  0  0  0  0
  -21.6846   -6.0738   22.5267 C   0  0  0  0  0  0
  -21.3997   -6.5645   23.8202 C   0  0  0  0  0  0
  -21.3646   -5.6792   24.9165 C   0  0  0  0  0  0
  -21.6046   -4.3059   24.7207 C   0  0  0  0  0  0
  -21.8816   -3.8158   23.4326 C   0  0  0  0  0  0
  -21.9190   -4.6969   22.3387 C   0  0  0  0  0  0
  -22.7839  -13.5269   21.1859 C   0  0  0  0  0  0
  -22.1672   -4.2157   21.0964 F   0  0  0  0  0  0
  -21.5649   -3.4548   25.7720 F   0  0  0  0  0  0
  -30.0362  -13.2903   20.3906 N   0  0  0  0  0  0
  -26.3000  -12.9393   20.3402 N   0  0  0  0  0  0
  -25.9338  -11.6558   20.5918 N   0  0  0  0  0  0
  -22.0511  -12.8231   22.0404 N   0  0  0  0  0  0
  -25.4327  -15.1904   20.3898 N   0  0  0  0  0  0
  -31.9765  -14.4894   20.3668 O   0  0  0  0  0  0
  -21.6630   -6.8882   21.4223 O   0  0  0  0  0  0
  -22.3537  -14.5623   20.6765 O   0  0  0  0  0  0
  -24.6111  -31.8695   23.2125 C   0  0  0  0  0  0
  -25.9042  -32.4812   23.8403 C   0  0  1  0  0  0
  -27.2398  -27.4774   20.0979 C   0  0  0  0  0  0
  -25.5931  -33.8618   24.2320 N   0  0  0  0  0  0
  -23.3941  -30.4906   21.5561 C   0  0  2  0  0  0
  -24.8393  -28.9677   20.1162 C   0  0  0  0  0  0
  -22.7397  -29.4616   22.5028 C   0  0  0  0  0  0
  -18.0248  -28.1368   22.8453 C   0  0  0  0  0  0
  -24.1504  -36.7276   23.2620 C   0  0  0  0  0  0
  -25.9177  -30.8545   21.3586 C   0  0  0  0  0  0
  -25.9950  -29.4908   20.7095 C   0  0  0  0  0  0
  -27.1934  -28.7543   20.7080 C   0  0  0  0  0  0
  -26.0709  -26.9652   19.5053 C   0  0  0  0  0  0
  -24.8688  -27.6976   19.5171 C   0  0  0  0  0  0
  -23.5979  -29.8259   20.1679 C   0  0  0  0  0  0
  -25.4122  -36.3093   24.0319 C   0  0  1  0  0  0
  -20.5851  -28.3672   23.1305 C   0  0  2  0  0  0
  -20.6742  -26.9411   22.5430 C   0  0  0  0  0  0
  -19.5732  -26.6326   21.5212 C   0  0  0  0  0  0
  -18.1900  -26.7898   22.1603 C   0  0  0  0  0  0
  -19.1513  -28.8834   23.2857 C   0  0  0  0  0  0
  -18.9452  -30.1432   23.8892 C   0  0  0  0  0  0
  -17.6477  -30.6614   24.0533 C   0  0  0  0  0  0
  -25.9070  -34.9466   23.5117 C   0  0  0  0  0  0
  -16.5361  -29.9118   23.6297 C   0  0  0  0  0  0
  -16.7244  -28.6500   23.0359 C   0  0  0  0  0  0
  -26.4456  -31.6553   25.0712 C   0  0  0  0  0  0
  -25.3696  -31.3685   26.1446 C   0  0  0  0  0  0
  -27.0208  -30.2959   24.6009 C   0  0  0  0  0  0
  -27.6003  -32.4266   25.7552 C   0  0  0  0  0  0
  -27.5615  -37.1787   24.8453 C   0  0  0  0  0  0
  -21.4142  -29.3009   22.3747 N   0  0  0  0  0  0
  -26.4289  -37.3821   23.9451 N   0  0  0  0  0  0
  -24.6596  -31.0847   22.0990 N   0  0  0  0  0  0
  -23.4201  -28.8147   23.3033 O   0  0  0  0  0  0
  -28.3656  -26.6891   20.0249 O   0  0  0  0  0  0
  -26.5630  -34.8933   22.4677 O   0  0  0  0  0  0
  -23.5318  -32.1421   23.7555 O   0  0  0  0  0  0
  -29.0036  -22.0492   21.8139 C   0  0  0  0  0  0
  -27.7992  -23.4669   20.2869 C   0  0  0  0  0  0
  -28.5836  -20.9188   21.0783 C   0  0  0  0  0  0
  -28.6411  -23.3429   21.4014 C   0  0  0  0  0  0
  -27.8429  -21.1709   19.8828 C   0  0  0  0  0  0
  -29.0705  -19.5654   21.5376 C   0  0  0  0  0  0
  -31.1384  -17.0089   18.3532 C   0  0  0  0  0  0
  -30.4610  -17.8032   19.4333 C   0  0  0  0  0  0
  -30.3874  -15.6973   18.4544 C   0  0  0  0  0  0
  -30.1008  -16.7985   20.5449 C   0  0  1  0  0  0
  -27.5600  -20.1464   18.7890 C   0  0  0  0  0  0
  -30.4449  -27.8444   20.4073 C   0  0  0  0  0  0
  -29.1748  -24.5620   22.1397 C   0  0  0  0  0  0
  -28.7780  -17.0901   21.3246 C   0  0  0  0  0  0
  -30.0362  -25.4967   21.2608 C   0  0  0  0  0  0
  -29.4053  -26.8733   20.9795 C   0  0  2  0  0  0
  -27.4276  -22.4124   19.5394 N   0  0  0  0  0  0
  -30.0798  -15.4790   19.8880 N   0  0  0  0  0  0
  -28.3217  -18.4869   21.2651 N   0  0  0  0  0  0
  -30.1367  -19.4747   22.1523 O   0  0  0  0  0  0
  -31.4557  -12.3422   19.1139 H   0  0  0  0  0  0
  -30.3276  -11.2678   19.8965 H   0  0  0  0  0  0
  -29.7009  -11.6043   17.4900 H   0  0  0  0  0  0
  -29.6539  -13.3189   17.6794 H   0  0  0  0  0  0
  -27.7625  -11.2887   18.8317 H   0  0  0  0  0  0
  -27.3670  -12.6183   17.7820 H   0  0  0  0  0  0
  -27.6764  -14.2461   19.5207 H   0  0  0  0  0  0
  -28.6572  -12.0946   21.4526 H   0  0  0  0  0  0
  -28.5172  -13.8113   21.7700 H   0  0  0  0  0  0
  -25.2770   -9.5695   22.4769 H   0  0  0  0  0  0
  -24.0008   -7.4625   22.7447 H   0  0  0  0  0  0
  -21.0881   -8.8809   19.8912 H   0  0  0  0  0  0
  -22.3745  -10.9700   19.6186 H   0  0  0  0  0  0
  -21.1985   -7.6157   23.9711 H   0  0  0  0  0  0
  -21.1468   -6.0528   25.9068 H   0  0  0  0  0  0
  -22.0608   -2.7624   23.2829 H   0  0  0  0  0  0
  -22.4191  -11.9895   22.4739 H   0  0  0  0  0  0
  -21.1157  -13.1229   22.2720 H   0  0  0  0  0  0
  -24.6776  -15.8616   20.4743 H   0  0  0  0  0  0
  -26.2816  -15.5916   20.0157 H   0  0  0  0  0  0
  -26.7150  -32.5503   23.1227 H   0  0  0  0  0  0
  -25.0129  -33.9783   25.0488 H   0  0  0  0  0  0
  -22.6837  -31.3099   21.4247 H   0  0  0  0  0  0
  -23.3819  -35.9556   23.3197 H   0  0  0  0  0  0
  -24.3640  -36.8981   22.2053 H   0  0  0  0  0  0
  -23.7197  -37.6418   23.6711 H   0  0  0  0  0  0
  -26.0305  -31.6278   20.5968 H   0  0  0  0  0  0
  -26.8036  -30.9039   21.9774 H   0  0  0  0  0  0
  -28.0689  -29.1834   21.1693 H   0  0  0  0  0  0
  -26.0821  -25.9900   19.0401 H   0  0  0  0  0  0
  -23.9785  -27.2833   19.0652 H   0  0  0  0  0  0
  -23.7094  -30.6072   19.4157 H   0  0  0  0  0  0
  -22.7240  -29.2444   19.8660 H   0  0  0  0  0  0
  -25.1290  -36.1947   25.0798 H   0  0  0  0  0  0
  -20.9893  -28.3261   24.1442 H   0  0  0  0  0  0
  -20.5647  -26.2291   23.3645 H   0  0  0  0  0  0
  -21.6623  -26.7444   22.1270 H   0  0  0  0  0  0
  -19.6944  -25.6202   21.1324 H   0  0  0  0  0  0
  -19.6701  -27.3034   20.6673 H   0  0  0  0  0  0
  -17.4175  -26.6574   21.4007 H   0  0  0  0  0  0
  -18.0329  -26.0070   22.9029 H   0  0  0  0  0  0
  -19.7950  -30.7180   24.2321 H   0  0  0  0  0  0
  -17.5063  -31.6312   24.5130 H   0  0  0  0  0  0
  -15.5374  -30.3068   23.7624 H   0  0  0  0  0  0
  -15.8601  -28.0832   22.7163 H   0  0  0  0  0  0
  -24.5909  -30.6989   25.7807 H   0  0  0  0  0  0
  -24.8849  -32.2850   26.4810 H   0  0  0  0  0  0
  -25.8033  -30.8936   27.0250 H   0  0  0  0  0  0
  -26.2698  -29.6863   24.0969 H   0  0  0  0  0  0
  -27.3835  -29.7064   25.4441 H   0  0  0  0  0  0
  -27.8634  -30.4213   23.9208 H   0  0  0  0  0  0
  -27.2551  -33.3549   26.2142 H   0  0  0  0  0  0
  -28.3868  -32.6865   25.0452 H   0  0  0  0  0  0
  -28.0600  -31.8349   26.5478 H   0  0  0  0  0  0
  -28.2571  -38.0162   24.7690 H   0  0  0  0  0  0
  -28.1195  -36.2721   24.6069 H   0  0  0  0  0  0
  -27.2352  -37.1157   25.8853 H   0  0  0  0  0  0
  -20.9391  -29.8689   21.6894 H   0  0  0  0  0  0
  -26.0138  -38.2853   24.1617 H   0  0  0  0  0  0
  -29.6449  -21.9320   22.6780 H   0  0  0  0  0  0
  -27.4598  -24.4266   19.9402 H   0  0  0  0  0  0
  -32.1959  -16.8691   18.5852 H   0  0  0  0  0  0
  -31.0572  -17.4707   17.3671 H   0  0  0  0  0  0
  -29.5506  -18.1959   18.9979 H   0  0  0  0  0  0
  -31.0827  -18.6279   19.7806 H   0  0  0  0  0  0
  -31.0079  -14.9175   18.0037 H   0  0  0  0  0  0
  -29.4529  -15.7368   17.8907 H   0  0  0  0  0  0
  -30.9200  -16.8302   21.2702 H   0  0  0  0  0  0
  -28.4968  -19.8641   18.3107 H   0  0  0  0  0  0
  -26.9429  -20.5655   17.9921 H   0  0  0  0  0  0
  -27.0447  -19.2524   19.1380 H   0  0  0  0  0  0
  -31.2691  -27.9708   21.1101 H   0  0  0  0  0  0
  -30.0276  -28.8322   20.2113 H   0  0  0  0  0  0
  -30.8503  -27.4708   19.4670 H   0  0  0  0  0  0
  -29.8110  -24.2059   22.9517 H   0  0  0  0  0  0
  -28.3539  -25.0971   22.6250 H   0  0  0  0  0  0
  -28.8655  -16.7698   22.3659 H   0  0  0  0  0  0
  -27.9670  -16.4924   20.9108 H   0  0  0  0  0  0
  -30.3285  -25.0115   20.3291 H   0  0  0  0  0  0
  -30.9768  -25.6674   21.7835 H   0  0  0  0  0  0
  -29.0100  -27.2639   21.9193 H   0  0  0  0  0  0
  -27.3890  -18.6374   20.9039 H   0  0  0  0  0  0
  1 25  1  0  0  0
  1 30  2  0  0  0
  1 88  1  0  0  0
  2  3  1  0  0  0
  2 25  1  0  0  0
  2 91  1  0  0  0
  2 92  1  0  0  0
  3  4  1  0  0  0
  3 93  1  0  0  0
  3 94  1  0  0  0
  4  5  1  0  0  0
  4 95  1  0  0  0
  4 96  1  0  0  0
  5  6  1  0  0  0
  5 26  1  0  0  0
  5 97  1  0  0  0
  6 25  1  0  0  0
  6 98  1  0  0  0
  6 99  1  0  0  0
  7  8  2  0  0  0
  7 26  1  0  0  0
  7 29  1  0  0  0
  8  9  1  0  0  0
  8 22  1  0  0  0
  9 10  1  0  0  0
  9 27  2  0  0  0
 10 11  2  0  0  0
 10 15  1  0  0  0
 11 12  1  0  0  0
 11100  1  0  0  0
 12 13  2  0  0  0
 12101  1  0  0  0
 13 14  1  0  0  0
 13 31  1  0  0  0
 14 15  2  0  0  0
 14102  1  0  0  0
 15103  1  0  0  0
 16 17  2  0  0  0
 16 21  1  0  0  0
 16 31  1  0  0  0
 17 18  1  0  0  0
 17104  1  0  0  0
 18 19  2  0  0  0
 18105  1  0  0  0
 19 20  1  0  0  0
 19 24  1  0  0  0
 20 21  2  0  0  0
 20106  1  0  0  0
 21 23  1  0  0  0
 22 28  1  0  0  0
 22 32  2  0  0  0
 26 27  1  0  0  0
 28107  1  0  0  0
 28108  1  0  0  0
 29109  1  0  0  0
 29110  1  0  0  0
 33 34  1  0  0  0
 33 66  1  0  0  0
 33 70  2  0  0  0
 34 36  1  0  0  0
 34 59  1  0  0  0
 34111  1  0  0  0
 35 44  2  0  0  0
 35 45  1  0  0  0
 35 68  1  0  0  0
 36 56  1  0  0  0
 36112  1  0  0  0
 37 39  1  0  0  0
 37 47  1  0  0  0
 37 66  1  0  0  0
 37113  1  0  0  0
 38 43  2  0  0  0
 38 46  1  0  0  0
 38 47  1  0  0  0
 39 64  1  0  0  0
 39 67  2  0  0  0
 40 52  1  0  0  0
 40 53  2  0  0  0
 40 58  1  0  0  0
 41114  1  0  0  0
 41115  1  0  0  0
 41116  1  0  0  0
 41 48  1  0  0  0
 42 43  1  0  0  0
 42 66  1  0  0  0
 42117  1  0  0  0
 42118  1  0  0  0
 43 44  1  0  0  0
 44119  1  0  0  0
 45 46  2  0  0  0
 45120  1  0  0  0
 46121  1  0  0  0
 47122  1  0  0  0
 47123  1  0  0  0
 48 56  1  0  0  0
 48 65  1  0  0  0
 48124  1  0  0  0
 49 50  1  0  0  0
 49 53  1  0  0  0
 49 64  1  0  0  0
 49125  1  0  0  0
 50 51  1  0  0  0
 50126  1  0  0  0
 50127  1  0  0  0
 51 52  1  0  0  0
 51128  1  0  0  0
 51129  1  0  0  0
 52130  1  0  0  0
 52131  1  0  0  0
 53 54  1  0  0  0
 54 55  2  0  0  0
 54132  1  0  0  0
 55 57  1  0  0  0
 55133  1  0  0  0
 56 69  2  0  0  0
 57 58  2  0  0  0
 57134  1  0  0  0
 58135  1  0  0  0
 59 60  1  0  0  0
 59 61  1  0  0  0
 59 62  1  0  0  0
 60136  1  0  0  0
 60137  1  0  0  0
 60138  1  0  0  0
 61139  1  0  0  0
 61140  1  0  0  0
 61141  1  0  0  0
 62142  1  0  0  0
 62143  1  0  0  0
 62144  1  0  0  0
 63 65  1  0  0  0
 63145  1  0  0  0
 63146  1  0  0  0
 63147  1  0  0  0
 64148  1  0  0  0
 65149  1  0  0  0
 68 86  1  0  0  0
 71 73  2  0  0  0
 71 74  1  0  0  0
 71150  1  0  0  0
 72 74  2  0  0  0
 72 87  1  0  0  0
 72151  1  0  0  0
 73 75  1  0  0  0
 73 76  1  0  0  0
 74 83  1  0  0  0
 75 81  1  0  0  0
 75 87  2  0  0  0
 76 89  1  0  0  0
 76 90  2  0  0  0
 77 78  1  0  0  0
 77 79  1  0  0  0
 77152  1  0  0  0
 77153  1  0  0  0
 78 80  1  0  0  0
 78154  1  0  0  0
 78155  1  0  0  0
 79 88  1  0  0  0
 79156  1  0  0  0
 79157  1  0  0  0
 80 84  1  0  0  0
 80 88  1  0  0  0
 80158  1  0  0  0
 81159  1  0  0  0
 81160  1  0  0  0
 81161  1  0  0  0
 82162  1  0  0  0
 82163  1  0  0  0
 82164  1  0  0  0
 82 86  1  0  0  0
 83 85  1  0  0  0
 83165  1  0  0  0
 83166  1  0  0  0
 84 89  1  0  0  0
 84167  1  0  0  0
 84168  1  0  0  0
 85 86  1  0  0  0
 85169  1  0  0  0
 85170  1  0  0  0
 86171  1  0  0  0
 89172  1  0  0  0
M  ISO  4   1 100  68 101  86 101  88 100
M  END
> <chiral flag>
0

> <version>
0

> <s_m_source_file>
/data/baiqing/PycharmProjects/Reinvent-master-3.2/result/LINK_invent/BTK/process_docking_weight1_custom_sum_contain_oxygen_bond_distance_aromatic_linkinvent_7_9_3/rearranged_h_0116.sdf

> <i_m_source_file_index>
52

> <r_mmod_Potential_Energy-OPLS-2005>
122.56201171875

> <r_mmod_Stretch_Energy-OPLS-2005>
38.6909294128418

> <r_mmod_Bend_Energy-OPLS-2005>
144.310134887695

> <r_mmod_Torsional_Energy-OPLS-2005>
387.923156738281

> <r_mmod_Improper_Torsional_Energy-OPLS-2005>
28.7933197021484

> <r_mmod_Van_der_Waal_Energy-OPLS-2005>
166.528381347656

> <r_mmod_Electrostatic_Energy-OPLS-2005>
-446.659149169922

> <r_mmod_Solvation_Energy-OPLS-2005>
-231.024780273438

> <b_mmod_Minimization_Converged-OPLS-2005>
0

> <r_mmod_RMS_Derivative-OPLS-2005>
6.14661645889282

$$$$
53
                    3D
 Structure written by MMmdl.
180189  0  0  1  0            999 V2000
  -30.6574  -14.6636   20.3767 C   0  0  0  0  0  0
  -30.4335  -12.3801   19.4505 C   0  0  0  0  0  0
  -29.4970  -12.3888   18.2237 C   0  0  0  0  0  0
  -28.0247  -12.2183   18.6583 C   0  0  0  0  0  0
  -27.6212  -13.1407   19.8331 C   0  0  2  0  0  0
  -28.6882  -13.1704   20.9533 C   0  0  0  0  0  0
  -25.2558  -13.7934   20.5786 C   0  0  0  0  0  0
  -24.1754  -13.0327   20.9277 C   0  0  0  0  0  0
  -24.6239  -11.6771   20.8866 C   0  0  0  0  0  0
  -23.8922  -10.4216   21.0516 C   0  0  0  0  0  0
  -24.3522   -9.4129   21.9260 C   0  0  0  0  0  0
  -23.6222   -8.2160   22.0781 C   0  0  0  0  0  0
  -22.4215   -8.0229   21.3555 C   0  0  0  0  0  0
  -21.9828   -9.0196   20.4664 C   0  0  0  0  0  0
  -22.7136  -10.2083   20.3112 C   0  0  0  0  0  0
  -21.6804   -6.0714   22.5296 C   0  0  0  0  0  0
  -21.3978   -6.5630   23.8225 C   0  0  0  0  0  0
  -21.3645   -5.6782   24.9191 C   0  0  0  0  0  0
  -21.6043   -4.3043   24.7237 C   0  0  0  0  0  0
  -21.8816   -3.8140   23.4358 C   0  0  0  0  0  0
  -21.9160   -4.6952   22.3420 C   0  0  0  0  0  0
  -22.7812  -13.5246   21.1874 C   0  0  0  0  0  0
  -22.1644   -4.2147   21.0992 F   0  0  0  0  0  0
  -21.5633   -3.4526   25.7752 F   0  0  0  0  0  0
  -29.9913  -13.4663   20.3401 N   0  0  0  0  0  0
  -26.2834  -12.8914   20.3357 N   0  0  0  0  0  0
  -25.9123  -11.6185   20.5888 N   0  0  0  0  0  0
  -22.0365  -12.8319   22.0420 N   0  0  0  0  0  0
  -25.4398  -15.1654   20.4280 N   0  0  0  0  0  0
  -31.8820  -14.7161   20.2534 O   0  0  0  0  0  0
  -21.6575   -6.8843   21.4255 O   0  0  0  0  0  0
  -22.3604  -14.5568   20.6664 O   0  0  0  0  0  0
  -24.6128  -31.8664   23.2081 C   0  0  0  0  0  0
  -25.9021  -32.4810   23.8379 C   0  0  1  0  0  0
  -27.2412  -27.4104   20.1224 C   0  0  0  0  0  0
  -25.5878  -33.8614   24.2309 N   0  0  0  0  0  0
  -23.4034  -30.4835   21.5479 C   0  0  2  0  0  0
  -24.8525  -28.9443   20.1160 C   0  0  0  0  0  0
  -22.7409  -29.4620   22.4993 C   0  0  0  0  0  0
  -18.0264  -28.1382   22.8503 C   0  0  0  0  0  0
  -24.1479  -36.7325   23.2643 C   0  0  0  0  0  0
  -25.9307  -30.8246   21.3639 C   0  0  0  0  0  0
  -26.0092  -29.4547   20.7169 C   0  0  0  0  0  0
  -27.2025  -28.6961   20.7136 C   0  0  0  0  0  0
  -26.0673  -26.9203   19.5018 C   0  0  0  0  0  0
  -24.8795  -27.6786   19.5022 C   0  0  0  0  0  0
  -23.6139  -29.8108   20.1634 C   0  0  0  0  0  0
  -25.4100  -36.3113   24.0339 C   0  0  1  0  0  0
  -20.5853  -28.3655   23.1341 C   0  0  2  0  0  0
  -20.6753  -26.9396   22.5423 C   0  0  0  0  0  0
  -19.5725  -26.6391   21.5226 C   0  0  0  0  0  0
  -18.1906  -26.7930   22.1637 C   0  0  0  0  0  0
  -19.1518  -28.8836   23.2915 C   0  0  0  0  0  0
  -18.9443  -30.1449   23.8912 C   0  0  0  0  0  0
  -17.6446  -30.6594   24.0564 C   0  0  0  0  0  0
  -25.9028  -34.9473   23.5125 C   0  0  0  0  0  0
  -16.5333  -29.9088   23.6335 C   0  0  0  0  0  0
  -16.7257  -28.6504   23.0357 C   0  0  0  0  0  0
  -26.4454  -31.6586   25.0705 C   0  0  0  0  0  0
  -25.3734  -31.3691   26.1463 C   0  0  0  0  0  0
  -27.0277  -30.3019   24.6096 C   0  0  0  0  0  0
  -27.6032  -32.4305   25.7453 C   0  0  0  0  0  0
  -27.5575  -37.1806   24.8465 C   0  0  0  0  0  0
  -21.4136  -29.3024   22.3751 N   0  0  0  0  0  0
  -26.4286  -37.3795   23.9408 N   0  0  0  0  0  0
  -24.6672  -31.0735   22.0984 N   0  0  0  0  0  0
  -23.4173  -28.8179   23.3062 O   0  0  0  0  0  0
  -28.4281  -26.6999   20.1652 O   0  0  0  0  0  0
  -26.5610  -34.8932   22.4697 O   0  0  0  0  0  0
  -23.5325  -32.1423   23.7466 O   0  0  0  0  0  0
  -29.9050  -20.8413   20.8806 C   0  0  0  0  0  0
  -29.3368  -20.9972   23.5405 C   0  0  0  0  0  0
  -29.5567  -19.6264   21.5341 C   0  0  0  0  0  0
  -29.2648  -19.7312   22.9187 C   0  0  0  0  0  0
  -29.8583  -22.0798   21.5608 C   0  0  0  0  0  0
  -29.1172  -17.3333   18.4039 C   0  0  0  0  0  0
  -28.9720  -16.0234   19.1832 C   0  0  0  0  0  0
  -30.3931  -17.1394   20.8678 C   0  0  0  0  0  0
  -29.3203  -18.2973   20.7551 C   0  0  2  0  0  0
  -28.8478  -18.5559   19.2897 C   0  0  2  0  0  0
  -28.8309  -18.5374   23.7605 C   0  0  0  0  0  0
  -27.5653  -21.3316   18.3493 C   0  0  0  0  0  0
  -30.2044  -23.3940   20.8391 C   0  0  0  0  0  0
  -29.3779  -24.6756   21.1920 C   0  0  0  0  0  0
  -25.4160  -19.9328   18.1747 C   0  0  0  0  0  0
  -28.4340  -25.2558   20.0993 C   0  0  0  0  0  0
  -24.7480  -20.8286   17.1116 C   0  0  0  0  0  0
  -26.9693  -19.9156   18.1911 C   0  0  2  0  0  0
  -29.6158  -22.1422   22.8845 N   0  0  0  0  0  0
  -29.9149  -15.8283   20.3109 N   0  0  0  0  0  0
  -27.4248  -19.0096   19.2799 N   0  3  0  0  0  0
  -24.5257  -22.4997   17.7064 Cl  0  0  0  0  0  0
  -31.4700  -12.5035   19.1311 H   0  0  0  0  0  0
  -30.3905  -11.4224   19.9725 H   0  0  0  0  0  0
  -29.7696  -11.5800   17.5444 H   0  0  0  0  0  0
  -29.6298  -13.3017   17.6474 H   0  0  0  0  0  0
  -27.8907  -11.1765   18.9553 H   0  0  0  0  0  0
  -27.3595  -12.3771   17.8098 H   0  0  0  0  0  0
  -27.5192  -14.0905   19.3546 H   0  0  0  0  0  0
  -28.7252  -12.2105   21.4710 H   0  0  0  0  0  0
  -28.4350  -13.9217   21.7036 H   0  0  0  0  0  0
  -25.2666   -9.5585   22.4839 H   0  0  0  0  0  0
  -23.9915   -7.4526   22.7478 H   0  0  0  0  0  0
  -21.0762   -8.8711   19.8964 H   0  0  0  0  0  0
  -22.3619  -10.9636   19.6223 H   0  0  0  0  0  0
  -21.1973   -7.6134   23.9735 H   0  0  0  0  0  0
  -21.1474   -6.0514   25.9092 H   0  0  0  0  0  0
  -22.0610   -2.7603   23.2861 H   0  0  0  0  0  0
  -22.3873  -11.9969   22.4872 H   0  0  0  0  0  0
  -21.1012  -13.1468   22.2585 H   0  0  0  0  0  0
  -24.6901  -15.8303   20.5841 H   0  0  0  0  0  0
  -26.3225  -15.5923   20.1941 H   0  0  0  0  0  0
  -26.7081  -32.5518   23.1139 H   0  0  0  0  0  0
  -24.9954  -33.9773   25.0399 H   0  0  0  0  0  0
  -22.6922  -31.2994   21.4062 H   0  0  0  0  0  0
  -23.3734  -35.9666   23.3316 H   0  0  0  0  0  0
  -24.3572  -36.8931   22.2058 H   0  0  0  0  0  0
  -23.7255  -37.6540   23.6653 H   0  0  0  0  0  0
  -26.0422  -31.5836   20.5882 H   0  0  0  0  0  0
  -26.8199  -30.8847   21.9795 H   0  0  0  0  0  0
  -28.0942  -29.0849   21.1860 H   0  0  0  0  0  0
  -26.0550  -25.9601   19.0069 H   0  0  0  0  0  0
  -23.9914  -27.2813   19.0292 H   0  0  0  0  0  0
  -23.7226  -30.5846   19.4025 H   0  0  0  0  0  0
  -22.7379  -29.2271   19.8714 H   0  0  0  0  0  0
  -25.1276  -36.1976   25.0833 H   0  0  0  0  0  0
  -20.9929  -28.3223   24.1466 H   0  0  0  0  0  0
  -20.5672  -26.2265   23.3609 H   0  0  0  0  0  0
  -21.6621  -26.7452   22.1198 H   0  0  0  0  0  0
  -19.6886  -25.6315   21.1226 H   0  0  0  0  0  0
  -19.6661  -27.3229   20.6779 H   0  0  0  0  0  0
  -17.4170  -26.6698   21.4037 H   0  0  0  0  0  0
  -18.0290  -26.0075   22.9032 H   0  0  0  0  0  0
  -19.7920  -30.7269   24.2278 H   0  0  0  0  0  0
  -17.4997  -31.6272   24.5175 H   0  0  0  0  0  0
  -15.5329  -30.2986   23.7665 H   0  0  0  0  0  0
  -15.8657  -28.0826   22.7066 H   0  0  0  0  0  0
  -24.5900  -30.7050   25.7799 H   0  0  0  0  0  0
  -24.8938  -32.2843   26.4934 H   0  0  0  0  0  0
  -25.8094  -30.8836   27.0203 H   0  0  0  0  0  0
  -26.2815  -29.6779   24.1165 H   0  0  0  0  0  0
  -27.4041  -29.7264   25.4565 H   0  0  0  0  0  0
  -27.8655  -30.4314   23.9246 H   0  0  0  0  0  0
  -27.2648  -33.3592   26.2058 H   0  0  0  0  0  0
  -28.3807  -32.6886   25.0252 H   0  0  0  0  0  0
  -28.0740  -31.8422   26.5337 H   0  0  0  0  0  0
  -28.2592  -38.0097   24.7492 H   0  0  0  0  0  0
  -28.1064  -36.2629   24.6300 H   0  0  0  0  0  0
  -27.2298  -37.1474   25.8870 H   0  0  0  0  0  0
  -20.9311  -29.8731   21.6955 H   0  0  0  0  0  0
  -26.0181  -38.2870   24.1417 H   0  0  0  0  0  0
  -30.2065  -20.8754   19.8464 H   0  0  0  0  0  0
  -29.1142  -21.0989   24.5918 H   0  0  0  0  0  0
  -28.4662  -17.3351   17.5289 H   0  0  0  0  0  0
  -30.1324  -17.3896   18.0054 H   0  0  0  0  0  0
  -29.0607  -15.2246   18.4499 H   0  0  0  0  0  0
  -27.9627  -16.0321   19.5863 H   0  0  0  0  0  0
  -30.6583  -16.9759   21.9097 H   0  0  0  0  0  0
  -31.3185  -17.4343   20.3720 H   0  0  0  0  0  0
  -28.4539  -17.8615   21.2531 H   0  0  0  0  0  0
  -29.4531  -19.3192   18.8179 H   0  0  0  0  0  0
  -28.9069  -18.7572   24.8261 H   0  0  0  0  0  0
  -29.4425  -17.6572   23.5782 H   0  0  0  0  0  0
  -27.7926  -18.2786   23.5506 H   0  0  0  0  0  0
  -27.2406  -21.9918   17.5461 H   0  0  0  0  0  0
  -28.6512  -21.3292   18.2975 H   0  0  0  0  0  0
  -27.2694  -21.7937   19.2922 H   0  0  0  0  0  0
  -30.1631  -23.2272   19.7627 H   0  0  0  0  0  0
  -31.2574  -23.5889   21.0464 H   0  0  0  0  0  0
  -30.1151  -25.4493   21.4072 H   0  0  0  0  0  0
  -28.8319  -24.5551   22.1277 H   0  0  0  0  0  0
  -25.0749  -18.9128   17.9897 H   0  0  0  0  0  0
  -25.0209  -20.1953   19.1571 H   0  0  0  0  0  0
  -27.4494  -24.8071   20.2290 H   0  0  0  0  0  0
  -28.7767  -24.9797   19.1019 H   0  0  0  0  0  0
  -23.7538  -20.4514   16.8677 H   0  0  0  0  0  0
  -25.3184  -20.8652   16.1823 H   0  0  0  0  0  0
  -27.3065  -19.5062   17.2371 H   0  0  0  0  0  0
  -27.2548  -19.4994   20.1455 H   0  0  0  0  0  0
  -26.8302  -18.1961   19.2811 H   0  0  0  0  0  0
  1 25  1  0  0  0
  1 30  2  0  0  0
  1 90  1  0  0  0
  2  3  1  0  0  0
  2 25  1  0  0  0
  2 93  1  0  0  0
  2 94  1  0  0  0
  3  4  1  0  0  0
  3 95  1  0  0  0
  3 96  1  0  0  0
  4  5  1  0  0  0
  4 97  1  0  0  0
  4 98  1  0  0  0
  5  6  1  0  0  0
  5 26  1  0  0  0
  5 99  1  0  0  0
  6 25  1  0  0  0
  6100  1  0  0  0
  6101  1  0  0  0
  7  8  2  0  0  0
  7 26  1  0  0  0
  7 29  1  0  0  0
  8  9  1  0  0  0
  8 22  1  0  0  0
  9 10  1  0  0  0
  9 27  2  0  0  0
 10 11  2  0  0  0
 10 15  1  0  0  0
 11 12  1  0  0  0
 11102  1  0  0  0
 12 13  2  0  0  0
 12103  1  0  0  0
 13 14  1  0  0  0
 13 31  1  0  0  0
 14 15  2  0  0  0
 14104  1  0  0  0
 15105  1  0  0  0
 16 17  2  0  0  0
 16 21  1  0  0  0
 16 31  1  0  0  0
 17 18  1  0  0  0
 17106  1  0  0  0
 18 19  2  0  0  0
 18107  1  0  0  0
 19 20  1  0  0  0
 19 24  1  0  0  0
 20 21  2  0  0  0
 20108  1  0  0  0
 21 23  1  0  0  0
 22 28  1  0  0  0
 22 32  2  0  0  0
 26 27  1  0  0  0
 28109  1  0  0  0
 28110  1  0  0  0
 29111  1  0  0  0
 29112  1  0  0  0
 33 34  1  0  0  0
 33 66  1  0  0  0
 33 70  2  0  0  0
 34 36  1  0  0  0
 34 59  1  0  0  0
 34113  1  0  0  0
 35 44  2  0  0  0
 35 45  1  0  0  0
 35 68  1  0  0  0
 36 56  1  0  0  0
 36114  1  0  0  0
 37 39  1  0  0  0
 37 47  1  0  0  0
 37 66  1  0  0  0
 37115  1  0  0  0
 38 43  2  0  0  0
 38 46  1  0  0  0
 38 47  1  0  0  0
 39 64  1  0  0  0
 39 67  2  0  0  0
 40 52  1  0  0  0
 40 53  2  0  0  0
 40 58  1  0  0  0
 41116  1  0  0  0
 41117  1  0  0  0
 41118  1  0  0  0
 41 48  1  0  0  0
 42 43  1  0  0  0
 42 66  1  0  0  0
 42119  1  0  0  0
 42120  1  0  0  0
 43 44  1  0  0  0
 44121  1  0  0  0
 45 46  2  0  0  0
 45122  1  0  0  0
 46123  1  0  0  0
 47124  1  0  0  0
 47125  1  0  0  0
 48 56  1  0  0  0
 48 65  1  0  0  0
 48126  1  0  0  0
 49 50  1  0  0  0
 49 53  1  0  0  0
 49 64  1  0  0  0
 49127  1  0  0  0
 50 51  1  0  0  0
 50128  1  0  0  0
 50129  1  0  0  0
 51 52  1  0  0  0
 51130  1  0  0  0
 51131  1  0  0  0
 52132  1  0  0  0
 52133  1  0  0  0
 53 54  1  0  0  0
 54 55  2  0  0  0
 54134  1  0  0  0
 55 57  1  0  0  0
 55135  1  0  0  0
 56 69  2  0  0  0
 57 58  2  0  0  0
 57136  1  0  0  0
 58137  1  0  0  0
 59 60  1  0  0  0
 59 61  1  0  0  0
 59 62  1  0  0  0
 60138  1  0  0  0
 60139  1  0  0  0
 60140  1  0  0  0
 61141  1  0  0  0
 61142  1  0  0  0
 61143  1  0  0  0
 62144  1  0  0  0
 62145  1  0  0  0
 62146  1  0  0  0
 63 65  1  0  0  0
 63147  1  0  0  0
 63148  1  0  0  0
 63149  1  0  0  0
 64150  1  0  0  0
 65151  1  0  0  0
 68 86  1  0  0  0
 71 73  2  0  0  0
 71 75  1  0  0  0
 71152  1  0  0  0
 72 74  2  0  0  0
 72 89  1  0  0  0
 72153  1  0  0  0
 73 74  1  0  0  0
 73 79  1  0  0  0
 74 81  1  0  0  0
 75 83  1  0  0  0
 75 89  2  0  0  0
 76 77  1  0  0  0
 76 80  1  0  0  0
 76154  1  0  0  0
 76155  1  0  0  0
 77 90  1  0  0  0
 77156  1  0  0  0
 77157  1  0  0  0
 78 79  1  0  0  0
 78 90  1  0  0  0
 78158  1  0  0  0
 78159  1  0  0  0
 79 80  1  0  0  0
 79160  1  0  0  0
 80 91  1  0  0  0
 80161  1  0  0  0
 81162  1  0  0  0
 81163  1  0  0  0
 81164  1  0  0  0
 82165  1  0  0  0
 82166  1  0  0  0
 82167  1  0  0  0
 82 88  1  0  0  0
 83 84  1  0  0  0
 83168  1  0  0  0
 83169  1  0  0  0
 84 86  1  0  0  0
 84170  1  0  0  0
 84171  1  0  0  0
 85 87  1  0  0  0
 85 88  1  0  0  0
 85172  1  0  0  0
 85173  1  0  0  0
 86174  1  0  0  0
 86175  1  0  0  0
 87 92  1  0  0  0
 87176  1  0  0  0
 87177  1  0  0  0
 88 91  1  0  0  0
 88178  1  0  0  0
 91179  1  0  0  0
 91180  1  0  0  0
M  CHG  1  91   1
M  ISO  4   1 100  68 101  86 101  90 100
M  END
> <chiral flag>
0

> <version>
0

> <s_m_source_file>
/data/baiqing/PycharmProjects/Reinvent-master-3.2/result/LINK_invent/BTK/process_docking_weight1_custom_sum_contain_oxygen_bond_distance_aromatic_linkinvent_7_9_3/rearranged_h_0116.sdf

> <i_m_source_file_index>
53

> <r_mmod_Potential_Energy-OPLS-2005>
36.5254249572754

> <r_mmod_Stretch_Energy-OPLS-2005>
59.8374176025391

> <r_mmod_Bend_Energy-OPLS-2005>
147.503265380859

> <r_mmod_Torsional_Energy-OPLS-2005>
399.112487792969

> <r_mmod_Improper_Torsional_Energy-OPLS-2005>
7.93280506134033

> <r_mmod_Van_der_Waal_Energy-OPLS-2005>
167.794158935547

> <r_mmod_Electrostatic_Energy-OPLS-2005>
-312.302062988281

> <r_mmod_Solvation_Energy-OPLS-2005>
-490.541046142578

> <b_mmod_Minimization_Converged-OPLS-2005>
0

> <r_mmod_RMS_Derivative-OPLS-2005>
2.95183300971985

$$$$
54
                    3D
 Structure written by MMmdl.
164172  0  0  1  0            999 V2000
  -29.7104  -16.5443   20.3829 C   0  0  0  0  0  0
  -30.2478  -13.8175   19.5837 C   0  0  0  0  0  0
  -29.5452  -12.9625   18.4461 C   0  0  0  0  0  0
  -28.2187  -12.3622   18.9128 C   0  0  0  0  0  0
  -27.5366  -13.3898   19.8232 C   0  0  2  0  0  0
  -28.4307  -14.0523   20.9199 C   0  0  0  0  0  0
  -25.1995  -13.8384   20.5820 C   0  0  0  0  0  0
  -24.1525  -13.0430   20.9318 C   0  0  0  0  0  0
  -24.6355  -11.6965   20.8736 C   0  0  0  0  0  0
  -23.9120  -10.4286   21.0376 C   0  0  0  0  0  0
  -24.3659   -9.4205   21.9169 C   0  0  0  0  0  0
  -23.6314   -8.2247   22.0755 C   0  0  0  0  0  0
  -22.4296   -8.0291   21.3540 C   0  0  0  0  0  0
  -21.9939   -9.0254   20.4628 C   0  0  0  0  0  0
  -22.7295  -10.2118   20.3021 C   0  0  0  0  0  0
  -21.6874   -6.0729   22.5283 C   0  0  0  0  0  0
  -21.4024   -6.5640   23.8205 C   0  0  0  0  0  0
  -21.3656   -5.6797   24.9164 C   0  0  0  0  0  0
  -21.6044   -4.3055   24.7228 C   0  0  0  0  0  0
  -21.8828   -3.8152   23.4347 C   0  0  0  0  0  0
  -21.9196   -4.6959   22.3399 C   0  0  0  0  0  0
  -22.7547  -13.5103   21.1967 C   0  0  0  0  0  0
  -22.1663   -4.2153   21.0969 F   0  0  0  0  0  0
  -21.5620   -3.4536   25.7724 F   0  0  0  0  0  0
  -29.3923  -15.0056   20.2465 N   0  0  0  0  0  0
  -26.2472  -12.9823   20.3306 N   0  0  0  0  0  0
  -25.9317  -11.6810   20.5631 N   0  0  0  0  0  0
  -22.0237  -12.8046   22.0492 N   0  0  0  0  0  0
  -25.3486  -15.2145   20.4223 N   0  0  0  0  0  0
  -30.9717  -16.3835   20.3056 O   0  0  0  0  0  0
  -21.6663   -6.8888   21.4242 O   0  0  0  0  0  0
  -22.3206  -14.5395   20.6819 O   0  0  0  0  0  0
  -24.6670  -31.7240   23.1505 C   0  0  0  0  0  0
  -25.9031  -32.4436   23.7887 C   0  0  1  0  0  0
  -27.9880  -26.9776   19.5543 C   0  0  0  0  0  0
  -25.5417  -33.8343   24.1439 N   0  0  0  0  0  0
  -23.5223  -30.1281   21.6800 C   0  0  2  0  0  0
  -24.8254  -27.7159   20.6692 C   0  0  0  0  0  0
  -22.7318  -29.3541   22.7025 C   0  0  0  0  0  0
  -18.0020  -28.1331   22.8511 C   0  0  0  0  0  0
  -24.1499  -36.7317   23.2563 C   0  0  0  0  0  0
  -26.0044  -30.1951   21.5143 C   0  0  0  0  0  0
  -26.1065  -28.6247   21.0702 C   0  0  0  0  0  0
  -27.5270  -28.2121   20.5345 C   0  0  0  0  0  0
  -27.0112  -25.8851   18.5291 C   0  0  0  0  0  0
  -25.2181  -25.7987   18.8341 C   0  0  0  0  0  0
  -23.7599  -29.0531   20.5954 C   0  0  0  0  0  0
  -25.4151  -36.2954   24.0123 C   0  0  1  0  0  0
  -20.5390  -28.3569   23.2142 C   0  0  2  0  0  0
  -20.6529  -26.9397   22.6195 C   0  0  0  0  0  0
  -19.5787  -26.6077   21.5762 C   0  0  0  0  0  0
  -18.1805  -26.7760   22.1854 C   0  0  0  0  0  0
  -19.1153  -28.8855   23.3036 C   0  0  0  0  0  0
  -18.9073  -30.1567   23.8788 C   0  0  0  0  0  0
  -17.6060  -30.6601   24.0482 C   0  0  0  0  0  0
  -25.9062  -34.9345   23.4715 C   0  0  0  0  0  0
  -16.5018  -29.9048   23.6224 C   0  0  0  0  0  0
  -16.6995  -28.6532   23.0133 C   0  0  0  0  0  0
  -26.4264  -31.7331   25.0979 C   0  0  0  0  0  0
  -25.3337  -31.4235   26.1437 C   0  0  0  0  0  0
  -27.0566  -30.4146   24.7239 C   0  0  0  0  0  0
  -27.5491  -32.5526   25.7795 C   0  0  0  0  0  0
  -27.5581  -37.1694   24.8391 C   0  0  0  0  0  0
  -21.4071  -29.2860   22.5119 N   0  0  0  0  0  0
  -26.4292  -37.3698   23.9348 N   0  0  0  0  0  0
  -24.7671  -30.7351   22.1802 N   0  0  0  0  0  0
  -23.3420  -28.7261   23.5622 O   0  0  0  0  0  0
  -28.6742  -26.3283   20.6122 O   0  0  0  0  0  0
  -26.6045  -34.8904   22.4566 O   0  0  0  0  0  0
  -23.5651  -32.0792   23.6007 O   0  0  0  0  0  0
  -23.1288  -26.8004   19.2407 C   0  0  0  0  0  0
  -24.2426  -27.8321   18.3778 C   0  0  0  0  0  0
  -25.0273  -25.3850   21.3235 C   0  0  0  0  0  0
  -23.5103  -25.7419   20.5639 C   0  0  0  0  0  0
  -26.2471  -25.9255   20.6851 C   0  0  0  0  0  0
  -28.3987  -27.6931   24.1748 C   0  0  0  0  0  0
  -22.4915  -24.0465   21.9593 C   0  0  0  0  0  0
  -26.2443  -25.9156   22.4283 C   0  0  0  0  0  0
  -29.0094  -26.8969   23.0452 C   0  0  0  0  0  0
  -27.2538  -22.1688   20.6204 C   0  0  0  0  0  0
  -28.5434  -20.2029   20.6232 C   0  0  0  0  0  0
  -28.0628  -26.1257   22.0939 C   0  0  2  0  0  0
  -25.8859  -27.8144   18.8215 N   0  0  0  0  0  0
  -27.0467  -24.1819   20.5153 N   0  0  0  0  0  0
  -28.8880  -18.1297   20.4245 N   0  0  0  0  0  0
  -22.4106  -24.9683   20.8765 O   0  0  0  0  0  0
  -31.1211  -14.2703   19.1112 H   0  0  0  0  0  0
  -30.6763  -13.1598   20.3470 H   0  0  0  0  0  0
  -30.2187  -12.1809   18.0980 H   0  0  0  0  0  0
  -29.3415  -13.5994   17.5839 H   0  0  0  0  0  0
  -28.4173  -11.4578   19.4828 H   0  0  0  0  0  0
  -27.5858  -12.0719   18.0735 H   0  0  0  0  0  0
  -27.2953  -14.1848   19.1160 H   0  0  0  0  0  0
  -28.8973  -13.3313   21.5932 H   0  0  0  0  0  0
  -27.8115  -14.6529   21.5856 H   0  0  0  0  0  0
  -25.2778   -9.5709   22.4783 H   0  0  0  0  0  0
  -24.0010   -7.4656   22.7503 H   0  0  0  0  0  0
  -21.0871   -8.8821   19.8934 H   0  0  0  0  0  0
  -22.3768  -10.9678   19.6154 H   0  0  0  0  0  0
  -21.2026   -7.6155   23.9722 H   0  0  0  0  0  0
  -21.1461   -6.0506   25.9065 H   0  0  0  0  0  0
  -22.0601   -2.7623   23.2848 H   0  0  0  0  0  0
  -22.3869  -11.9728   22.4907 H   0  0  0  0  0  0
  -21.0846  -13.1045   22.2674 H   0  0  0  0  0  0
  -24.5878  -15.8727   20.5549 H   0  0  0  0  0  0
  -26.2066  -15.6623   20.1291 H   0  0  0  0  0  0
  -26.7046  -32.4644   23.0497 H   0  0  0  0  0  0
  -24.9119  -33.9495   24.9266 H   0  0  0  0  0  0
  -22.8986  -30.9243   21.2782 H   0  0  0  0  0  0
  -23.3763  -35.9635   23.3042 H   0  0  0  0  0  0
  -24.3554  -36.9231   22.2013 H   0  0  0  0  0  0
  -23.7268  -37.6399   23.6872 H   0  0  0  0  0  0
  -26.1291  -30.7698   20.5933 H   0  0  0  0  0  0
  -26.8862  -30.4222   22.1031 H   0  0  0  0  0  0
  -28.3278  -28.8510   20.8710 H   0  0  0  0  0  0
  -27.4896  -25.1227   17.9231 H   0  0  0  0  0  0
  -24.5557  -25.1278   18.2990 H   0  0  0  0  0  0
  -24.1010  -29.6943   19.7848 H   0  0  0  0  0  0
  -22.7461  -28.8073   20.2807 H   0  0  0  0  0  0
  -25.1386  -36.1674   25.0617 H   0  0  0  0  0  0
  -20.8858  -28.3083   24.2491 H   0  0  0  0  0  0
  -20.5279  -26.2445   23.4481 H   0  0  0  0  0  0
  -21.6570  -26.7688   22.2411 H   0  0  0  0  0  0
  -19.7124  -25.5933   21.1829 H   0  0  0  0  0  0
  -19.6830  -27.2993   20.7421 H   0  0  0  0  0  0
  -17.4280  -26.6605   21.4052 H   0  0  0  0  0  0
  -17.9834  -25.9981   22.9296 H   0  0  0  0  0  0
  -19.7495  -30.7507   24.2113 H   0  0  0  0  0  0
  -17.4552  -31.6230   24.5196 H   0  0  0  0  0  0
  -15.5006  -30.2920   23.7601 H   0  0  0  0  0  0
  -15.8399  -28.0954   22.6696 H   0  0  0  0  0  0
  -24.5691  -30.7505   25.7551 H   0  0  0  0  0  0
  -24.8311  -32.3312   26.4790 H   0  0  0  0  0  0
  -25.7493  -30.9361   27.0258 H   0  0  0  0  0  0
  -26.3343  -29.7418   24.2594 H   0  0  0  0  0  0
  -27.4524  -29.9064   25.6042 H   0  0  0  0  0  0
  -27.8958  -30.6197   24.0565 H   0  0  0  0  0  0
  -27.1760  -33.4932   26.1905 H   0  0  0  0  0  0
  -28.3500  -32.8040   25.0843 H   0  0  0  0  0  0
  -28.0031  -32.0107   26.6090 H   0  0  0  0  0  0
  -28.2461  -38.0122   24.7637 H   0  0  0  0  0  0
  -28.1232  -36.2650   24.6068 H   0  0  0  0  0  0
  -27.2260  -37.1090   25.8765 H   0  0  0  0  0  0
  -20.9585  -29.8567   21.8100 H   0  0  0  0  0  0
  -26.0111  -38.2698   24.1543 H   0  0  0  0  0  0
  -22.0984  -26.8119   18.9250 H   0  0  0  0  0  0
  -23.9061  -28.4920   17.5911 H   0  0  0  0  0  0
  -29.1349  -27.9920   24.9299 H   0  0  0  0  0  0
  -27.5527  -27.2322   24.6917 H   0  0  0  0  0  0
  -28.0809  -28.5781   23.6462 H   0  0  0  0  0  0
  -21.4637  -23.8201   22.2462 H   0  0  0  0  0  0
  -22.9399  -23.0924   21.6722 H   0  0  0  0  0  0
  -23.0086  -24.4576   22.8367 H   0  0  0  0  0  0
  -26.1845  -25.2066   23.2511 H   0  0  0  0  0  0
  -25.8904  -26.8210   22.9150 H   0  0  0  0  0  0
  -29.7831  -26.2415   23.4330 H   0  0  0  0  0  0
  -29.5781  -27.6187   22.4601 H   0  0  0  0  0  0
  -26.5839  -21.9649   21.4599 H   0  0  0  0  0  0
  -26.6614  -21.9522   19.7299 H   0  0  0  0  0  0
  -28.9325  -20.2690   21.6453 H   0  0  0  0  0  0
  -29.3838  -20.5654   20.0333 H   0  0  0  0  0  0
  -28.3967  -25.1190   22.3299 H   0  0  0  0  0  0
  -27.6997  -24.3863   19.7673 H   0  0  0  0  0  0
  -29.7170  -18.4116   19.9112 H   0  0  0  0  0  0
  1 25  1  0  0  0
  1 30  2  0  0  0
  1 85  1  0  0  0
  2  3  1  0  0  0
  2 25  1  0  0  0
  2 87  1  0  0  0
  2 88  1  0  0  0
  3  4  1  0  0  0
  3 89  1  0  0  0
  3 90  1  0  0  0
  4  5  1  0  0  0
  4 91  1  0  0  0
  4 92  1  0  0  0
  5  6  1  0  0  0
  5 26  1  0  0  0
  5 93  1  0  0  0
  6 25  1  0  0  0
  6 94  1  0  0  0
  6 95  1  0  0  0
  7  8  2  0  0  0
  7 26  1  0  0  0
  7 29  1  0  0  0
  8  9  1  0  0  0
  8 22  1  0  0  0
  9 10  1  0  0  0
  9 27  2  0  0  0
 10 11  2  0  0  0
 10 15  1  0  0  0
 11 12  1  0  0  0
 11 96  1  0  0  0
 12 13  2  0  0  0
 12 97  1  0  0  0
 13 14  1  0  0  0
 13 31  1  0  0  0
 14 15  2  0  0  0
 14 98  1  0  0  0
 15 99  1  0  0  0
 16 17  2  0  0  0
 16 21  1  0  0  0
 16 31  1  0  0  0
 17 18  1  0  0  0
 17100  1  0  0  0
 18 19  2  0  0  0
 18101  1  0  0  0
 19 20  1  0  0  0
 19 24  1  0  0  0
 20 21  2  0  0  0
 20102  1  0  0  0
 21 23  1  0  0  0
 22 28  1  0  0  0
 22 32  2  0  0  0
 26 27  1  0  0  0
 28103  1  0  0  0
 28104  1  0  0  0
 29105  1  0  0  0
 29106  1  0  0  0
 33 34  1  0  0  0
 33 66  1  0  0  0
 33 70  2  0  0  0
 34 36  1  0  0  0
 34 59  1  0  0  0
 34107  1  0  0  0
 35 44  2  0  0  0
 35 45  1  0  0  0
 35 68  1  0  0  0
 36 56  1  0  0  0
 36108  1  0  0  0
 37 39  1  0  0  0
 37 47  1  0  0  0
 37 66  1  0  0  0
 37109  1  0  0  0
 38 43  2  0  0  0
 38 46  1  0  0  0
 38 47  1  0  0  0
 39 64  1  0  0  0
 39 67  2  0  0  0
 40 52  1  0  0  0
 40 53  2  0  0  0
 40 58  1  0  0  0
 41110  1  0  0  0
 41111  1  0  0  0
 41112  1  0  0  0
 41 48  1  0  0  0
 42 43  1  0  0  0
 42 66  1  0  0  0
 42113  1  0  0  0
 42114  1  0  0  0
 43 44  1  0  0  0
 44115  1  0  0  0
 45 46  2  0  0  0
 45116  1  0  0  0
 46117  1  0  0  0
 47118  1  0  0  0
 47119  1  0  0  0
 48 56  1  0  0  0
 48 65  1  0  0  0
 48120  1  0  0  0
 49 50  1  0  0  0
 49 53  1  0  0  0
 49 64  1  0  0  0
 49121  1  0  0  0
 50 51  1  0  0  0
 50122  1  0  0  0
 50123  1  0  0  0
 51 52  1  0  0  0
 51124  1  0  0  0
 51125  1  0  0  0
 52126  1  0  0  0
 52127  1  0  0  0
 53 54  1  0  0  0
 54 55  2  0  0  0
 54128  1  0  0  0
 55 57  1  0  0  0
 55129  1  0  0  0
 56 69  2  0  0  0
 57 58  2  0  0  0
 57130  1  0  0  0
 58131  1  0  0  0
 59 60  1  0  0  0
 59 61  1  0  0  0
 59 62  1  0  0  0
 60132  1  0  0  0
 60133  1  0  0  0
 60134  1  0  0  0
 61135  1  0  0  0
 61136  1  0  0  0
 61137  1  0  0  0
 62138  1  0  0  0
 62139  1  0  0  0
 62140  1  0  0  0
 63 65  1  0  0  0
 63141  1  0  0  0
 63142  1  0  0  0
 63143  1  0  0  0
 64144  1  0  0  0
 65145  1  0  0  0
 68 82  1  0  0  0
 71 72  2  0  0  0
 71 74  1  0  0  0
 71146  1  0  0  0
 72 83  1  0  0  0
 72147  1  0  0  0
 73 74  2  0  0  0
 73 75  1  0  0  0
 73 78  1  0  0  0
 74 86  1  0  0  0
 75 83  2  0  0  0
 75 84  1  0  0  0
 76 79  1  0  0  0
 76148  1  0  0  0
 76149  1  0  0  0
 76150  1  0  0  0
 77 86  1  0  0  0
 77151  1  0  0  0
 77152  1  0  0  0
 77153  1  0  0  0
 78154  1  0  0  0
 78155  1  0  0  0
 78 82  1  0  0  0
 79 82  1  0  0  0
 79156  1  0  0  0
 79157  1  0  0  0
 80 81  1  0  0  0
 80 84  1  0  0  0
 80158  1  0  0  0
 80159  1  0  0  0
 81 85  1  0  0  0
 81160  1  0  0  0
 81161  1  0  0  0
 82162  1  0  0  0
 84163  1  0  0  0
 85164  1  0  0  0
M  ISO  4   1 100  68 101  82 101  85 100
M  END
> <chiral flag>
0

> <version>
0

> <s_m_source_file>
/data/baiqing/PycharmProjects/Reinvent-master-3.2/result/LINK_invent/BTK/process_docking_weight1_custom_sum_contain_oxygen_bond_distance_aromatic_linkinvent_7_9_3/rearranged_h_0116.sdf

> <i_m_source_file_index>
54

> <r_mmod_Potential_Energy-OPLS-2005>
21207.94921875

> <r_mmod_Stretch_Energy-OPLS-2005>
12144.8798828125

> <r_mmod_Bend_Energy-OPLS-2005>
1923.49462890625

> <r_mmod_Torsional_Energy-OPLS-2005>
606.653747558594

> <r_mmod_Improper_Torsional_Energy-OPLS-2005>
105.51579284668

> <r_mmod_Van_der_Waal_Energy-OPLS-2005>
4107.8916015625

> <r_mmod_Electrostatic_Energy-OPLS-2005>
-613.579772949219

> <r_mmod_Solvation_Energy-OPLS-2005>
-241.237274169922

> <b_mmod_Minimization_Converged-OPLS-2005>
0

> <r_mmod_RMS_Derivative-OPLS-2005>
18.185754776001

$$$$
55
                    3D
 Structure written by MMmdl.
175184  0  0  1  0            999 V2000
  -30.4554  -15.3322   20.3432 C   0  0  0  0  0  0
  -30.4265  -12.8503   19.5446 C   0  0  0  0  0  0
  -29.5381  -12.5895   18.3029 C   0  0  0  0  0  0
  -28.0892  -12.3072   18.7280 C   0  0  0  0  0  0
  -27.6072  -13.2899   19.8230 C   0  0  2  0  0  0
  -28.6348  -13.5117   20.9566 C   0  0  0  0  0  0
  -25.2360  -13.8282   20.5747 C   0  0  0  0  0  0
  -24.1727  -13.0446   20.9249 C   0  0  0  0  0  0
  -24.6406  -11.6946   20.8754 C   0  0  0  0  0  0
  -23.9108  -10.4297   21.0392 C   0  0  0  0  0  0
  -24.3657   -9.4216   21.9184 C   0  0  0  0  0  0
  -23.6317   -8.2255   22.0760 C   0  0  0  0  0  0
  -22.4294   -8.0297   21.3547 C   0  0  0  0  0  0
  -21.9937   -9.0266   20.4645 C   0  0  0  0  0  0
  -22.7272  -10.2138   20.3045 C   0  0  0  0  0  0
  -21.6866   -6.0726   22.5270 C   0  0  0  0  0  0
  -21.4018   -6.5625   23.8201 C   0  0  0  0  0  0
  -21.3668   -5.6789   24.9168 C   0  0  0  0  0  0
  -21.6052   -4.3049   24.7219 C   0  0  0  0  0  0
  -21.8821   -3.8135   23.4339 C   0  0  0  0  0  0
  -21.9200   -4.6951   22.3392 C   0  0  0  0  0  0
  -22.7745  -13.5182   21.1900 C   0  0  0  0  0  0
  -22.1670   -4.2137   21.0971 F   0  0  0  0  0  0
  -21.5641   -3.4536   25.7730 F   0  0  0  0  0  0
  -29.8644  -14.0254   20.3266 N   0  0  0  0  0  0
  -26.2800  -12.9582   20.3224 N   0  0  0  0  0  0
  -25.9346  -11.6674   20.5715 N   0  0  0  0  0  0
  -22.0416  -12.8159   22.0454 N   0  0  0  0  0  0
  -25.3999  -15.2012   20.4167 N   0  0  0  0  0  0
  -31.6681  -15.2440   20.1014 O   0  0  0  0  0  0
  -21.6665   -6.8887   21.4239 O   0  0  0  0  0  0
  -22.3414  -14.5478   20.6742 O   0  0  0  0  0  0
  -24.6658  -31.8199   23.1676 C   0  0  0  0  0  0
  -25.9325  -32.4565   23.8153 C   0  0  1  0  0  0
  -27.2157  -26.8940   20.1906 C   0  0  0  0  0  0
  -25.5984  -33.8383   24.2057 N   0  0  0  0  0  0
  -23.4820  -30.4299   21.5174 C   0  0  2  0  0  0
  -24.9359  -28.8113   20.1113 C   0  0  0  0  0  0
  -22.7673  -29.4419   22.4770 C   0  0  0  0  0  0
  -18.0324  -28.1405   22.8461 C   0  0  0  0  0  0
  -24.1496  -36.7199   23.2647 C   0  0  0  0  0  0
  -26.0525  -30.6160   21.4027 C   0  0  0  0  0  0
  -26.1206  -29.2027   20.7478 C   0  0  0  0  0  0
  -27.2542  -28.2663   20.7604 C   0  0  0  0  0  0
  -26.0028  -26.6637   19.5032 C   0  0  0  0  0  0
  -24.9044  -27.5633   19.4679 C   0  0  0  0  0  0
  -23.7234  -29.7429   20.1446 C   0  0  0  0  0  0
  -25.4140  -36.2955   24.0292 C   0  0  1  0  0  0
  -20.5947  -28.3752   23.1176 C   0  0  2  0  0  0
  -20.6797  -26.9427   22.5398 C   0  0  0  0  0  0
  -19.5773  -26.6371   21.5208 C   0  0  0  0  0  0
  -18.1956  -26.7937   22.1616 C   0  0  0  0  0  0
  -19.1587  -28.8899   23.2806 C   0  0  0  0  0  0
  -18.9496  -30.1492   23.8838 C   0  0  0  0  0  0
  -17.6489  -30.6596   24.0551 C   0  0  0  0  0  0
  -25.9103  -34.9340   23.4997 C   0  0  0  0  0  0
  -16.5380  -29.9076   23.6345 C   0  0  0  0  0  0
  -16.7303  -28.6497   23.0357 C   0  0  0  0  0  0
  -26.4574  -31.6518   25.0691 C   0  0  0  0  0  0
  -25.3694  -31.3783   26.1341 C   0  0  0  0  0  0
  -27.0475  -30.2874   24.6452 C   0  0  0  0  0  0
  -27.6050  -32.4345   25.7502 C   0  0  0  0  0  0
  -27.5570  -37.1756   24.8465 C   0  0  0  0  0  0
  -21.4338  -29.3041   22.3520 N   0  0  0  0  0  0
  -26.4284  -37.3692   23.9407 N   0  0  0  0  0  0
  -24.7547  -30.9835   22.0830 N   0  0  0  0  0  0
  -23.4207  -28.7992   23.3027 O   0  0  0  0  0  0
  -28.2035  -25.7656   20.2759 O   0  0  0  0  0  0
  -26.5716  -34.8881   22.4593 O   0  0  0  0  0  0
  -23.5718  -32.1193   23.6741 O   0  0  0  0  0  0
  -31.1193  -22.0210   21.1642 C   0  0  0  0  0  0
  -30.1206  -22.9922   20.9981 C   0  0  0  0  0  0
  -31.0608  -20.6806   20.6804 C   0  0  0  0  0  0
  -29.8326  -20.0046   20.3034 C   0  0  0  0  0  0
  -28.9053  -22.7007   20.3842 C   0  0  0  0  0  0
  -28.7660  -21.1532   20.1516 C   0  0  0  0  0  0
  -31.5263  -18.0367   19.4813 C   0  0  0  0  0  0
  -32.4316  -20.0407   20.4026 C   0  0  2  0  0  0
  -30.0105  -18.2584   19.7769 C   0  0  2  0  0  0
  -27.3747  -20.7313   19.7231 C   0  0  0  0  0  0
  -29.8109  -20.3386   17.0299 C   0  0  0  0  0  0
  -34.9654  -20.1781   19.9583 C   0  0  0  0  0  0
  -33.5067  -22.0186   19.0407 C   0  0  0  0  0  0
  -27.9063  -24.1316   20.1276 C   0  0  0  0  0  0
  -29.2255  -18.1551   18.4204 C   0  0  0  0  0  0
  -29.7906  -18.8043   17.1240 C   0  0  0  0  0  0
  -33.6674  -20.9811   20.1786 C   0  0  0  0  0  0
  -29.7726  -16.6839   20.4126 N   0  0  0  0  0  0
  -32.2815  -19.2406   19.1876 N   0  3  0  0  0  0
  -31.4502  -13.0291   19.2119 H   0  0  0  0  0  0
  -30.4853  -11.9564   20.1679 H   0  0  0  0  0  0
  -29.9259  -11.7524   17.7216 H   0  0  0  0  0  0
  -29.5683  -13.4599   17.6452 H   0  0  0  0  0  0
  -28.0497  -11.2858   19.1081 H   0  0  0  0  0  0
  -27.4238  -12.3376   17.8646 H   0  0  0  0  0  0
  -27.5110  -14.2452   19.3073 H   0  0  0  0  0  0
  -28.8135  -12.5937   21.5191 H   0  0  0  0  0  0
  -28.2599  -14.2470   21.6694 H   0  0  0  0  0  0
  -25.2804   -9.5688   22.4760 H   0  0  0  0  0  0
  -24.0023   -7.4641   22.7467 H   0  0  0  0  0  0
  -21.0873   -8.8782   19.8931 H   0  0  0  0  0  0
  -22.3743  -10.9680   19.6148 H   0  0  0  0  0  0
  -21.2012   -7.6137   23.9696 H   0  0  0  0  0  0
  -21.1492   -6.0521   25.9074 H   0  0  0  0  0  0
  -22.0594   -2.7591   23.2842 H   0  0  0  0  0  0
  -22.4070  -11.9853   22.4868 H   0  0  0  0  0  0
  -21.1007  -13.1130   22.2621 H   0  0  0  0  0  0
  -24.6316  -15.8531   20.5303 H   0  0  0  0  0  0
  -26.2400  -15.6392   20.0637 H   0  0  0  0  0  0
  -26.7389  -32.5092   23.0860 H   0  0  0  0  0  0
  -25.0086  -33.9460   25.0177 H   0  0  0  0  0  0
  -22.7965  -31.2624   21.3436 H   0  0  0  0  0  0
  -23.3769  -35.9517   23.3270 H   0  0  0  0  0  0
  -24.3573  -36.8887   22.2070 H   0  0  0  0  0  0
  -23.7242  -37.6369   23.6733 H   0  0  0  0  0  0
  -26.2349  -31.3551   20.6218 H   0  0  0  0  0  0
  -26.9110  -30.6739   22.0593 H   0  0  0  0  0  0
  -28.1502  -28.5635   21.2863 H   0  0  0  0  0  0
  -25.8656  -25.7119   19.0104 H   0  0  0  0  0  0
  -24.0044  -27.2582   18.9513 H   0  0  0  0  0  0
  -23.8813  -30.5111   19.3869 H   0  0  0  0  0  0
  -22.8322  -29.1997   19.8252 H   0  0  0  0  0  0
  -25.1339  -36.1744   25.0781 H   0  0  0  0  0  0
  -21.0035  -28.3363   24.1301 H   0  0  0  0  0  0
  -20.5670  -26.2369   23.3642 H   0  0  0  0  0  0
  -21.6657  -26.7395   22.1209 H   0  0  0  0  0  0
  -19.6930  -25.6267   21.1273 H   0  0  0  0  0  0
  -19.6719  -27.3149   20.6714 H   0  0  0  0  0  0
  -17.4223  -26.6676   21.4022 H   0  0  0  0  0  0
  -18.0356  -26.0093   22.9027 H   0  0  0  0  0  0
  -19.7975  -30.7324   24.2175 H   0  0  0  0  0  0
  -17.5041  -31.6266   24.5163 H   0  0  0  0  0  0
  -15.5376  -30.2956   23.7707 H   0  0  0  0  0  0
  -15.8706  -28.0799   22.7102 H   0  0  0  0  0  0
  -24.5883  -30.7126   25.7649 H   0  0  0  0  0  0
  -24.8886  -32.2995   26.4643 H   0  0  0  0  0  0
  -25.7922  -30.9027   27.0197 H   0  0  0  0  0  0
  -26.3146  -29.6532   24.1448 H   0  0  0  0  0  0
  -27.3972  -29.7261   25.5128 H   0  0  0  0  0  0
  -27.9105  -30.4035   23.9891 H   0  0  0  0  0  0
  -27.2592  -33.3687   26.1944 H   0  0  0  0  0  0
  -28.3935  -32.6840   25.0388 H   0  0  0  0  0  0
  -28.0633  -31.8564   26.5536 H   0  0  0  0  0  0
  -28.2557  -38.0079   24.7509 H   0  0  0  0  0  0
  -28.1096  -36.2599   24.6295 H   0  0  0  0  0  0
  -27.2283  -37.1395   25.8867 H   0  0  0  0  0  0
  -20.9590  -29.8731   21.6644 H   0  0  0  0  0  0
  -26.0123  -38.2744   24.1420 H   0  0  0  0  0  0
  -32.0398  -22.4142   21.5652 H   0  0  0  0  0  0
  -30.3263  -24.0115   21.2962 H   0  0  0  0  0  0
  -31.6774  -17.3333   18.6622 H   0  0  0  0  0  0
  -32.0312  -17.6068   20.3467 H   0  0  0  0  0  0
  -32.6718  -19.4187   21.2674 H   0  0  0  0  0  0
  -27.1416  -19.7325   20.0895 H   0  0  0  0  0  0
  -27.2633  -20.7474   18.6417 H   0  0  0  0  0  0
  -26.6275  -21.4067   20.1404 H   0  0  0  0  0  0
  -30.2125  -20.6510   16.0660 H   0  0  0  0  0  0
  -30.4215  -20.8139   17.7943 H   0  0  0  0  0  0
  -28.8085  -20.7556   17.0911 H   0  0  0  0  0  0
  -35.1199  -19.4369   20.7430 H   0  0  0  0  0  0
  -35.8340  -20.8384   19.9716 H   0  0  0  0  0  0
  -34.9757  -19.6607   18.9988 H   0  0  0  0  0  0
  -32.6836  -22.7124   19.2047 H   0  0  0  0  0  0
  -33.3417  -21.5447   18.0728 H   0  0  0  0  0  0
  -34.4086  -22.6258   18.9481 H   0  0  0  0  0  0
  -27.0353  -23.9619   20.7606 H   0  0  0  0  0  0
  -27.5315  -24.0109   19.1110 H   0  0  0  0  0  0
  -28.1951  -18.4712   18.5628 H   0  0  0  0  0  0
  -29.1273  -17.1007   18.1571 H   0  0  0  0  0  0
  -30.7803  -18.4131   16.8893 H   0  0  0  0  0  0
  -29.1659  -18.4525   16.3010 H   0  0  0  0  0  0
  -33.8511  -21.5264   21.1035 H   0  0  0  0  0  0
  -28.8240  -16.5735   20.7376 H   0  0  0  0  0  0
  -31.8191  -19.7798   18.4741 H   0  0  0  0  0  0
  -33.2018  -18.9821   18.8702 H   0  0  0  0  0  0
  1 25  1  0  0  0
  1 30  2  0  0  0
  1 88  1  0  0  0
  2  3  1  0  0  0
  2 25  1  0  0  0
  2 90  1  0  0  0
  2 91  1  0  0  0
  3  4  1  0  0  0
  3 92  1  0  0  0
  3 93  1  0  0  0
  4  5  1  0  0  0
  4 94  1  0  0  0
  4 95  1  0  0  0
  5  6  1  0  0  0
  5 26  1  0  0  0
  5 96  1  0  0  0
  6 25  1  0  0  0
  6 97  1  0  0  0
  6 98  1  0  0  0
  7  8  2  0  0  0
  7 26  1  0  0  0
  7 29  1  0  0  0
  8  9  1  0  0  0
  8 22  1  0  0  0
  9 10  1  0  0  0
  9 27  2  0  0  0
 10 11  2  0  0  0
 10 15  1  0  0  0
 11 12  1  0  0  0
 11 99  1  0  0  0
 12 13  2  0  0  0
 12100  1  0  0  0
 13 14  1  0  0  0
 13 31  1  0  0  0
 14 15  2  0  0  0
 14101  1  0  0  0
 15102  1  0  0  0
 16 17  2  0  0  0
 16 21  1  0  0  0
 16 31  1  0  0  0
 17 18  1  0  0  0
 17103  1  0  0  0
 18 19  2  0  0  0
 18104  1  0  0  0
 19 20  1  0  0  0
 19 24  1  0  0  0
 20 21  2  0  0  0
 20105  1  0  0  0
 21 23  1  0  0  0
 22 28  1  0  0  0
 22 32  2  0  0  0
 26 27  1  0  0  0
 28106  1  0  0  0
 28107  1  0  0  0
 29108  1  0  0  0
 29109  1  0  0  0
 33 34  1  0  0  0
 33 66  1  0  0  0
 33 70  2  0  0  0
 34 36  1  0  0  0
 34 59  1  0  0  0
 34110  1  0  0  0
 35 44  2  0  0  0
 35 45  1  0  0  0
 35 68  1  0  0  0
 36 56  1  0  0  0
 36111  1  0  0  0
 37 39  1  0  0  0
 37 47  1  0  0  0
 37 66  1  0  0  0
 37112  1  0  0  0
 38 43  2  0  0  0
 38 46  1  0  0  0
 38 47  1  0  0  0
 39 64  1  0  0  0
 39 67  2  0  0  0
 40 52  1  0  0  0
 40 53  2  0  0  0
 40 58  1  0  0  0
 41113  1  0  0  0
 41114  1  0  0  0
 41115  1  0  0  0
 41 48  1  0  0  0
 42 43  1  0  0  0
 42 66  1  0  0  0
 42116  1  0  0  0
 42117  1  0  0  0
 43 44  1  0  0  0
 44118  1  0  0  0
 45 46  2  0  0  0
 45119  1  0  0  0
 46120  1  0  0  0
 47121  1  0  0  0
 47122  1  0  0  0
 48 56  1  0  0  0
 48 65  1  0  0  0
 48123  1  0  0  0
 49 50  1  0  0  0
 49 53  1  0  0  0
 49 64  1  0  0  0
 49124  1  0  0  0
 50 51  1  0  0  0
 50125  1  0  0  0
 50126  1  0  0  0
 51 52  1  0  0  0
 51127  1  0  0  0
 51128  1  0  0  0
 52129  1  0  0  0
 52130  1  0  0  0
 53 54  1  0  0  0
 54 55  2  0  0  0
 54131  1  0  0  0
 55 57  1  0  0  0
 55132  1  0  0  0
 56 69  2  0  0  0
 57 58  2  0  0  0
 57133  1  0  0  0
 58134  1  0  0  0
 59 60  1  0  0  0
 59 61  1  0  0  0
 59 62  1  0  0  0
 60135  1  0  0  0
 60136  1  0  0  0
 60137  1  0  0  0
 61138  1  0  0  0
 61139  1  0  0  0
 61140  1  0  0  0
 62141  1  0  0  0
 62142  1  0  0  0
 62143  1  0  0  0
 63 65  1  0  0  0
 63144  1  0  0  0
 63145  1  0  0  0
 63146  1  0  0  0
 64147  1  0  0  0
 65148  1  0  0  0
 68 84  1  0  0  0
 71 72  2  0  0  0
 71 73  1  0  0  0
 71149  1  0  0  0
 72 75  1  0  0  0
 72150  1  0  0  0
 73 74  2  0  0  0
 73 78  1  0  0  0
 74 76  1  0  0  0
 74 79  1  0  0  0
 75 76  2  0  0  0
 75 84  1  0  0  0
 76 80  1  0  0  0
 77 79  1  0  0  0
 77 89  1  0  0  0
 77151  1  0  0  0
 77152  1  0  0  0
 78 87  1  0  0  0
 78 89  1  0  0  0
 78153  1  0  0  0
 79 85  1  0  0  0
 79 88  1  0  0  0
 80154  1  0  0  0
 80155  1  0  0  0
 80156  1  0  0  0
 81 86  1  0  0  0
 81157  1  0  0  0
 81158  1  0  0  0
 81159  1  0  0  0
 82160  1  0  0  0
 82161  1  0  0  0
 82162  1  0  0  0
 82 87  1  0  0  0
 83 87  1  0  0  0
 83163  1  0  0  0
 83164  1  0  0  0
 83165  1  0  0  0
 84166  1  0  0  0
 84167  1  0  0  0
 85 86  1  0  0  0
 85168  1  0  0  0
 85169  1  0  0  0
 86170  1  0  0  0
 86171  1  0  0  0
 87172  1  0  0  0
 88173  1  0  0  0
 89174  1  0  0  0
 89175  1  0  0  0
M  CHG  1  89   1
M  ISO  4   1 100  68 101  84 101  88 100
M  END
> <chiral flag>
0

> <version>
0

> <s_m_source_file>
/data/baiqing/PycharmProjects/Reinvent-master-3.2/result/LINK_invent/BTK/process_docking_weight1_custom_sum_contain_oxygen_bond_distance_aromatic_linkinvent_7_9_3/rearranged_h_0116.sdf

> <i_m_source_file_index>
55

> <r_mmod_Potential_Energy-OPLS-2005>
1441.35803222656

> <r_mmod_Stretch_Energy-OPLS-2005>
736.080688476562

> <r_mmod_Bend_Energy-OPLS-2005>
522.049499511719

> <r_mmod_Torsional_Energy-OPLS-2005>
318.852783203125

> <r_mmod_Improper_Torsional_Energy-OPLS-2005>
9.58851623535156

> <r_mmod_Van_der_Waal_Energy-OPLS-2005>
159.417144775391

> <r_mmod_Electrostatic_Energy-OPLS-2005>
-404.853942871094

> <r_mmod_Solvation_Energy-OPLS-2005>
-415.708221435547

> <b_mmod_Minimization_Converged-OPLS-2005>
0

> <r_mmod_RMS_Derivative-OPLS-2005>
1.75953912734985

$$$$
56
                    3D
 Structure written by MMmdl.
153161  0  0  1  0            999 V2000
  -30.4853  -15.2519   20.3771 C   0  0  0  0  0  0
  -30.4251  -12.8109   19.5035 C   0  0  0  0  0  0
  -29.5218  -12.5668   18.2725 C   0  0  0  0  0  0
  -28.0734  -12.2955   18.7115 C   0  0  0  0  0  0
  -27.6044  -13.2783   19.8136 C   0  0  2  0  0  0
  -28.6436  -13.4766   20.9363 C   0  0  0  0  0  0
  -25.2381  -13.8261   20.5773 C   0  0  0  0  0  0
  -24.1729  -13.0442   20.9263 C   0  0  0  0  0  0
  -24.6387  -11.6940   20.8766 C   0  0  0  0  0  0
  -23.9085  -10.4295   21.0412 C   0  0  0  0  0  0
  -24.3630   -9.4208   21.9189 C   0  0  0  0  0  0
  -23.6301   -8.2243   22.0755 C   0  0  0  0  0  0
  -22.4281   -8.0282   21.3547 C   0  0  0  0  0  0
  -21.9924   -9.0256   20.4645 C   0  0  0  0  0  0
  -22.7256  -10.2135   20.3058 C   0  0  0  0  0  0
  -21.6855   -6.0735   22.5278 C   0  0  0  0  0  0
  -21.4017   -6.5641   23.8211 C   0  0  0  0  0  0
  -21.3658   -5.6796   24.9174 C   0  0  0  0  0  0
  -21.6043   -4.3057   24.7227 C   0  0  0  0  0  0
  -21.8820   -3.8147   23.4349 C   0  0  0  0  0  0
  -21.9194   -4.6963   22.3404 C   0  0  0  0  0  0
  -22.7744  -13.5188   21.1916 C   0  0  0  0  0  0
  -22.1665   -4.2147   21.0983 F   0  0  0  0  0  0
  -21.5628   -3.4543   25.7742 F   0  0  0  0  0  0
  -29.8619  -13.9769   20.2803 N   0  0  0  0  0  0
  -26.2794  -12.9536   20.3225 N   0  0  0  0  0  0
  -25.9324  -11.6638   20.5729 N   0  0  0  0  0  0
  -22.0409  -12.8154   22.0462 N   0  0  0  0  0  0
  -25.4054  -15.1996   20.4251 N   0  0  0  0  0  0
  -31.7175  -15.1560   20.2543 O   0  0  0  0  0  0
  -21.6643   -6.8879   21.4239 O   0  0  0  0  0  0
  -22.3418  -14.5493   20.6765 O   0  0  0  0  0  0
  -24.6611  -31.8251   23.1717 C   0  0  0  0  0  0
  -25.9300  -32.4597   23.8177 C   0  0  1  0  0  0
  -27.2162  -26.9423   20.1915 C   0  0  0  0  0  0
  -25.5975  -33.8412   24.2087 N   0  0  0  0  0  0
  -23.4747  -30.4365   21.5220 C   0  0  2  0  0  0
  -24.9269  -28.8218   20.1191 C   0  0  0  0  0  0
  -22.7652  -29.4448   22.4805 C   0  0  0  0  0  0
  -18.0313  -28.1404   22.8462 C   0  0  0  0  0  0
  -24.1495  -36.7212   23.2649 C   0  0  0  0  0  0
  -26.0430  -30.6376   21.3981 C   0  0  0  0  0  0
  -26.1119  -29.2270   20.7468 C   0  0  0  0  0  0
  -27.2556  -28.3105   20.7520 C   0  0  0  0  0  0
  -26.0012  -26.6812   19.5223 C   0  0  0  0  0  0
  -24.8958  -27.5687   19.4857 C   0  0  0  0  0  0
  -23.7138  -29.7497   20.1495 C   0  0  0  0  0  0
  -25.4135  -36.2978   24.0302 C   0  0  1  0  0  0
  -20.5936  -28.3751   23.1193 C   0  0  2  0  0  0
  -20.6792  -26.9436   22.5403 C   0  0  0  0  0  0
  -19.5769  -26.6375   21.5210 C   0  0  0  0  0  0
  -18.1949  -26.7938   22.1618 C   0  0  0  0  0  0
  -19.1574  -28.8899   23.2813 C   0  0  0  0  0  0
  -18.9489  -30.1487   23.8850 C   0  0  0  0  0  0
  -17.6485  -30.6597   24.0555 C   0  0  0  0  0  0
  -25.9097  -34.9357   23.5017 C   0  0  0  0  0  0
  -16.5372  -29.9085   23.6347 C   0  0  0  0  0  0
  -16.7297  -28.6506   23.0362 C   0  0  0  0  0  0
  -26.4556  -31.6536   25.0698 C   0  0  0  0  0  0
  -25.3688  -31.3778   26.1360 C   0  0  0  0  0  0
  -27.0457  -30.2908   24.6418 C   0  0  0  0  0  0
  -27.6052  -32.4342   25.7500 C   0  0  0  0  0  0
  -27.5573  -37.1761   24.8464 C   0  0  0  0  0  0
  -21.4325  -29.3042   22.3548 N   0  0  0  0  0  0
  -26.4283  -37.3709   23.9406 N   0  0  0  0  0  0
  -24.7479  -30.9928   22.0846 N   0  0  0  0  0  0
  -23.4205  -28.8019   23.3045 O   0  0  0  0  0  0
  -28.2391  -25.8623   20.1978 O   0  0  0  0  0  0
  -26.5712  -34.8891   22.4616 O   0  0  0  0  0  0
  -23.5683  -32.1216   23.6821 O   0  0  0  0  0  0
  -30.3530  -19.0057   19.2363 C   0  0  0  0  0  0
  -30.3895  -17.4241   18.9908 C   0  0  0  0  0  0
  -29.2647  -17.8565   20.9017 C   0  0  0  0  0  0
  -29.1300  -19.3752   20.0895 C   0  0  1  0  0  0
  -28.2326  -22.5042   18.5176 C   0  0  0  0  0  0
  -28.8479  -21.0617   20.6754 C   0  0  0  0  0  0
  -28.0323  -24.2594   20.5102 C   0  0  0  0  0  0
  -28.7515  -22.7059   19.9455 C   0  0  2  0  0  0
  -29.8522  -16.5832   20.1109 N   0  0  0  0  0  0
  -31.4433  -13.0010   19.1619 H   0  0  0  0  0  0
  -30.4884  -11.9174   20.1271 H   0  0  0  0  0  0
  -29.8998  -11.7320   17.6807 H   0  0  0  0  0  0
  -29.5488  -13.4423   17.6216 H   0  0  0  0  0  0
  -28.0318  -11.2740   19.0913 H   0  0  0  0  0  0
  -27.4004  -12.3308   17.8538 H   0  0  0  0  0  0
  -27.5108  -14.2390   19.3052 H   0  0  0  0  0  0
  -28.8196  -12.5552   21.4939 H   0  0  0  0  0  0
  -28.2871  -14.2170   21.6544 H   0  0  0  0  0  0
  -25.2773   -9.5685   22.4764 H   0  0  0  0  0  0
  -24.0014   -7.4631   22.7466 H   0  0  0  0  0  0
  -21.0863   -8.8771   19.8940 H   0  0  0  0  0  0
  -22.3715  -10.9675   19.6167 H   0  0  0  0  0  0
  -21.2011   -7.6151   23.9712 H   0  0  0  0  0  0
  -21.1478   -6.0529   25.9077 H   0  0  0  0  0  0
  -22.0601   -2.7610   23.2850 H   0  0  0  0  0  0
  -22.4058  -11.9829   22.4850 H   0  0  0  0  0  0
  -21.1016  -13.1141   22.2669 H   0  0  0  0  0  0
  -24.6443  -15.8578   20.5515 H   0  0  0  0  0  0
  -26.2652  -15.6410   20.1230 H   0  0  0  0  0  0
  -26.7366  -32.5144   23.0892 H   0  0  0  0  0  0
  -25.0066  -33.9489   25.0200 H   0  0  0  0  0  0
  -22.7871  -31.2676   21.3508 H   0  0  0  0  0  0
  -23.3773  -35.9527   23.3280 H   0  0  0  0  0  0
  -24.3570  -36.8890   22.2069 H   0  0  0  0  0  0
  -23.7236  -37.6384   23.6723 H   0  0  0  0  0  0
  -26.2183  -31.3782   20.6165 H   0  0  0  0  0  0
  -26.9042  -30.6971   22.0513 H   0  0  0  0  0  0
  -28.1596  -28.6257   21.2542 H   0  0  0  0  0  0
  -25.8860  -25.7250   19.0322 H   0  0  0  0  0  0
  -23.9959  -27.2533   18.9753 H   0  0  0  0  0  0
  -23.8684  -30.5163   19.3889 H   0  0  0  0  0  0
  -22.8242  -29.2025   19.8341 H   0  0  0  0  0  0
  -25.1330  -36.1782   25.0792 H   0  0  0  0  0  0
  -21.0012  -28.3358   24.1322 H   0  0  0  0  0  0
  -20.5673  -26.2369   23.3640 H   0  0  0  0  0  0
  -21.6659  -26.7416   22.1214 H   0  0  0  0  0  0
  -19.6936  -25.6273   21.1275 H   0  0  0  0  0  0
  -19.6713  -27.3159   20.6717 H   0  0  0  0  0  0
  -17.4219  -26.6673   21.4023 H   0  0  0  0  0  0
  -18.0350  -26.0089   22.9023 H   0  0  0  0  0  0
  -19.7967  -30.7308   24.2204 H   0  0  0  0  0  0
  -17.5040  -31.6275   24.5163 H   0  0  0  0  0  0
  -15.5373  -30.2975   23.7697 H   0  0  0  0  0  0
  -15.8693  -28.0809   22.7108 H   0  0  0  0  0  0
  -24.5881  -30.7120   25.7663 H   0  0  0  0  0  0
  -24.8869  -32.2977   26.4677 H   0  0  0  0  0  0
  -25.7923  -30.9011   27.0211 H   0  0  0  0  0  0
  -26.3125  -29.6579   24.1408 H   0  0  0  0  0  0
  -27.3982  -29.7271   25.5066 H   0  0  0  0  0  0
  -27.9064  -30.4095   23.9835 H   0  0  0  0  0  0
  -27.2623  -33.3684   26.1959 H   0  0  0  0  0  0
  -28.3922  -32.6836   25.0372 H   0  0  0  0  0  0
  -28.0654  -31.8549   26.5515 H   0  0  0  0  0  0
  -28.2568  -38.0078   24.7517 H   0  0  0  0  0  0
  -28.1091  -36.2603   24.6287 H   0  0  0  0  0  0
  -27.2287  -37.1394   25.8866 H   0  0  0  0  0  0
  -20.9580  -29.8734   21.6678 H   0  0  0  0  0  0
  -26.0138  -38.2770   24.1415 H   0  0  0  0  0  0
  -30.3560  -19.5496   18.2908 H   0  0  0  0  0  0
  -31.2579  -19.3063   19.7669 H   0  0  0  0  0  0
  -31.4052  -17.1307   18.7207 H   0  0  0  0  0  0
  -29.7776  -17.1938   18.1177 H   0  0  0  0  0  0
  -28.2887  -17.5809   21.3026 H   0  0  0  0  0  0
  -29.9049  -17.9937   21.7745 H   0  0  0  0  0  0
  -28.2769  -19.2301   19.4244 H   0  0  0  0  0  0
  -28.7798  -21.7129   18.0042 H   0  0  0  0  0  0
  -28.3422  -23.4155   17.9285 H   0  0  0  0  0  0
  -27.1763  -22.2343   18.5189 H   0  0  0  0  0  0
  -29.5651  -21.1816   21.4877 H   0  0  0  0  0  0
  -27.8951  -20.9749   21.1984 H   0  0  0  0  0  0
  -28.2139  -24.2344   21.5848 H   0  0  0  0  0  0
  -26.9557  -24.1073   20.4411 H   0  0  0  0  0  0
  -29.8051  -22.9640   19.8343 H   0  0  0  0  0  0
  1 25  1  0  0  0
  1 30  2  0  0  0
  1 79  1  0  0  0
  2  3  1  0  0  0
  2 25  1  0  0  0
  2 80  1  0  0  0
  2 81  1  0  0  0
  3  4  1  0  0  0
  3 82  1  0  0  0
  3 83  1  0  0  0
  4  5  1  0  0  0
  4 84  1  0  0  0
  4 85  1  0  0  0
  5  6  1  0  0  0
  5 26  1  0  0  0
  5 86  1  0  0  0
  6 25  1  0  0  0
  6 87  1  0  0  0
  6 88  1  0  0  0
  7  8  2  0  0  0
  7 26  1  0  0  0
  7 29  1  0  0  0
  8  9  1  0  0  0
  8 22  1  0  0  0
  9 10  1  0  0  0
  9 27  2  0  0  0
 10 11  2  0  0  0
 10 15  1  0  0  0
 11 12  1  0  0  0
 11 89  1  0  0  0
 12 13  2  0  0  0
 12 90  1  0  0  0
 13 14  1  0  0  0
 13 31  1  0  0  0
 14 15  2  0  0  0
 14 91  1  0  0  0
 15 92  1  0  0  0
 16 17  2  0  0  0
 16 21  1  0  0  0
 16 31  1  0  0  0
 17 18  1  0  0  0
 17 93  1  0  0  0
 18 19  2  0  0  0
 18 94  1  0  0  0
 19 20  1  0  0  0
 19 24  1  0  0  0
 20 21  2  0  0  0
 20 95  1  0  0  0
 21 23  1  0  0  0
 22 28  1  0  0  0
 22 32  2  0  0  0
 26 27  1  0  0  0
 28 96  1  0  0  0
 28 97  1  0  0  0
 29 98  1  0  0  0
 29 99  1  0  0  0
 33 34  1  0  0  0
 33 66  1  0  0  0
 33 70  2  0  0  0
 34 36  1  0  0  0
 34 59  1  0  0  0
 34100  1  0  0  0
 35 44  2  0  0  0
 35 45  1  0  0  0
 35 68  1  0  0  0
 36 56  1  0  0  0
 36101  1  0  0  0
 37 39  1  0  0  0
 37 47  1  0  0  0
 37 66  1  0  0  0
 37102  1  0  0  0
 38 43  2  0  0  0
 38 46  1  0  0  0
 38 47  1  0  0  0
 39 64  1  0  0  0
 39 67  2  0  0  0
 40 52  1  0  0  0
 40 53  2  0  0  0
 40 58  1  0  0  0
 41103  1  0  0  0
 41104  1  0  0  0
 41105  1  0  0  0
 41 48  1  0  0  0
 42 43  1  0  0  0
 42 66  1  0  0  0
 42106  1  0  0  0
 42107  1  0  0  0
 43 44  1  0  0  0
 44108  1  0  0  0
 45 46  2  0  0  0
 45109  1  0  0  0
 46110  1  0  0  0
 47111  1  0  0  0
 47112  1  0  0  0
 48 56  1  0  0  0
 48 65  1  0  0  0
 48113  1  0  0  0
 49 50  1  0  0  0
 49 53  1  0  0  0
 49 64  1  0  0  0
 49114  1  0  0  0
 50 51  1  0  0  0
 50115  1  0  0  0
 50116  1  0  0  0
 51 52  1  0  0  0
 51117  1  0  0  0
 51118  1  0  0  0
 52119  1  0  0  0
 52120  1  0  0  0
 53 54  1  0  0  0
 54 55  2  0  0  0
 54121  1  0  0  0
 55 57  1  0  0  0
 55122  1  0  0  0
 56 69  2  0  0  0
 57 58  2  0  0  0
 57123  1  0  0  0
 58124  1  0  0  0
 59 60  1  0  0  0
 59 61  1  0  0  0
 59 62  1  0  0  0
 60125  1  0  0  0
 60126  1  0  0  0
 60127  1  0  0  0
 61128  1  0  0  0
 61129  1  0  0  0
 61130  1  0  0  0
 62131  1  0  0  0
 62132  1  0  0  0
 62133  1  0  0  0
 63 65  1  0  0  0
 63134  1  0  0  0
 63135  1  0  0  0
 63136  1  0  0  0
 64137  1  0  0  0
 65138  1  0  0  0
 68 77  1  0  0  0
 71 72  1  0  0  0
 71 74  1  0  0  0
 71139  1  0  0  0
 71140  1  0  0  0
 72 79  1  0  0  0
 72141  1  0  0  0
 72142  1  0  0  0
 73 74  1  0  0  0
 73 79  1  0  0  0
 73143  1  0  0  0
 73144  1  0  0  0
 74 76  1  0  0  0
 74145  1  0  0  0
 75146  1  0  0  0
 75147  1  0  0  0
 75148  1  0  0  0
 75 78  1  0  0  0
 76 78  1  0  0  0
 76149  1  0  0  0
 76150  1  0  0  0
 77 78  1  0  0  0
 77151  1  0  0  0
 77152  1  0  0  0
 78153  1  0  0  0
M  ISO  4   1 100  68 101  77 101  79 100
M  END
> <chiral flag>
0

> <version>
0

> <s_m_source_file>
/data/baiqing/PycharmProjects/Reinvent-master-3.2/result/LINK_invent/BTK/process_docking_weight1_custom_sum_contain_oxygen_bond_distance_aromatic_linkinvent_7_9_3/rearranged_h_0116.sdf

> <i_m_source_file_index>
56

> <r_mmod_Potential_Energy-OPLS-2005>
1530.68872070312

> <r_mmod_Stretch_Energy-OPLS-2005>
579.709533691406

> <r_mmod_Bend_Energy-OPLS-2005>
502.338928222656

> <r_mmod_Torsional_Energy-OPLS-2005>
352.098175048828

> <r_mmod_Improper_Torsional_Energy-OPLS-2005>
20.4804916381836

> <r_mmod_Van_der_Waal_Energy-OPLS-2005>
105.558876037598

> <r_mmod_Electrostatic_Energy-OPLS-2005>
-273.578338623047

> <r_mmod_Solvation_Energy-OPLS-2005>
-190.816665649414

> <b_mmod_Minimization_Converged-OPLS-2005>
0

> <r_mmod_RMS_Derivative-OPLS-2005>
0.757742524147034

$$$$
57
                    3D
 Structure written by MMmdl.
168177  0  0  1  0            999 V2000
  -30.6183  -14.7290   20.4485 C   0  0  0  0  0  0
  -30.4258  -12.4445   19.4654 C   0  0  0  0  0  0
  -29.5002  -12.4913   18.2319 C   0  0  0  0  0  0
  -28.0276  -12.3143   18.6514 C   0  0  0  0  0  0
  -27.6346  -13.2223   19.8478 C   0  0  2  0  0  0
  -28.6823  -13.1751   20.9801 C   0  0  0  0  0  0
  -25.2450  -13.8078   20.5695 C   0  0  0  0  0  0
  -24.1793  -13.0391   20.9354 C   0  0  0  0  0  0
  -24.6390  -11.6858   20.8866 C   0  0  0  0  0  0
  -23.9063  -10.4256   21.0475 C   0  0  0  0  0  0
  -24.3632   -9.4145   21.9232 C   0  0  0  0  0  0
  -23.6278   -8.2187   22.0764 C   0  0  0  0  0  0
  -22.4258   -8.0257   21.3565 C   0  0  0  0  0  0
  -21.9900   -9.0238   20.4679 C   0  0  0  0  0  0
  -22.7236  -10.2106   20.3102 C   0  0  0  0  0  0
  -21.6817   -6.0732   22.5270 C   0  0  0  0  0  0
  -21.3988   -6.5645   23.8195 C   0  0  0  0  0  0
  -21.3641   -5.6800   24.9160 C   0  0  0  0  0  0
  -21.6050   -4.3067   24.7219 C   0  0  0  0  0  0
  -21.8826   -3.8157   23.4343 C   0  0  0  0  0  0
  -21.9174   -4.6970   22.3403 C   0  0  0  0  0  0
  -22.7800  -13.5193   21.1939 C   0  0  0  0  0  0
  -22.1630   -4.2164   21.0978 F   0  0  0  0  0  0
  -21.5656   -3.4551   25.7730 F   0  0  0  0  0  0
  -29.9764  -13.5160   20.3819 N   0  0  0  0  0  0
  -26.2890  -12.9312   20.3261 N   0  0  0  0  0  0
  -25.9303  -11.6486   20.5800 N   0  0  0  0  0  0
  -22.0384  -12.8214   22.0435 N   0  0  0  0  0  0
  -25.3955  -15.1764   20.3773 N   0  0  0  0  0  0
  -31.8201  -14.7946   20.1629 O   0  0  0  0  0  0
  -21.6625   -6.8864   21.4226 O   0  0  0  0  0  0
  -22.3583  -14.5538   20.6715 O   0  0  0  0  0  0
  -24.6358  -31.8504   23.1917 C   0  0  0  0  0  0
  -25.9180  -32.4751   23.8276 C   0  0  1  0  0  0
  -27.2373  -27.2554   20.1474 C   0  0  0  0  0  0
  -25.5976  -33.8542   24.2230 N   0  0  0  0  0  0
  -23.4301  -30.4726   21.5327 C   0  0  2  0  0  0
  -24.8805  -28.9070   20.1092 C   0  0  0  0  0  0
  -22.7515  -29.4605   22.4878 C   0  0  0  0  0  0
  -18.0278  -28.1401   22.8482 C   0  0  0  0  0  0
  -24.1479  -36.7222   23.2603 C   0  0  0  0  0  0
  -25.9732  -30.7701   21.3600 C   0  0  0  0  0  0
  -26.0496  -29.3857   20.7146 C   0  0  0  0  0  0
  -27.2292  -28.5751   20.7141 C   0  0  0  0  0  0
  -26.0387  -26.8320   19.5313 C   0  0  0  0  0  0
  -24.8817  -27.6381   19.5044 C   0  0  0  0  0  0
  -23.6505  -29.7974   20.1490 C   0  0  0  0  0  0
  -25.4073  -36.3016   24.0336 C   0  0  1  0  0  0
  -20.5911  -28.3723   23.1251 C   0  0  2  0  0  0
  -20.6776  -26.9430   22.5387 C   0  0  0  0  0  0
  -19.5760  -26.6410   21.5193 C   0  0  0  0  0  0
  -18.1936  -26.7949   22.1595 C   0  0  0  0  0  0
  -19.1536  -28.8855   23.2873 C   0  0  0  0  0  0
  -18.9482  -30.1467   23.8910 C   0  0  0  0  0  0
  -17.6481  -30.6601   24.0589 C   0  0  0  0  0  0
  -25.9077  -34.9432   23.5075 C   0  0  0  0  0  0
  -16.5362  -29.9109   23.6333 C   0  0  0  0  0  0
  -16.7277  -28.6513   23.0355 C   0  0  0  0  0  0
  -26.4523  -31.6538   25.0648 C   0  0  0  0  0  0
  -25.3756  -31.3693   26.1383 C   0  0  0  0  0  0
  -27.0324  -30.2971   24.6046 C   0  0  0  0  0  0
  -27.6139  -32.4198   25.7391 C   0  0  0  0  0  0
  -27.5626  -37.1619   24.8355 C   0  0  0  0  0  0
  -21.4208  -29.3072   22.3621 N   0  0  0  0  0  0
  -26.4149  -37.3829   23.9602 N   0  0  0  0  0  0
  -24.6997  -31.0473   22.0880 N   0  0  0  0  0  0
  -23.4189  -28.8155   23.3005 O   0  0  0  0  0  0
  -28.3571  -26.3960   20.1776 O   0  0  0  0  0  0
  -26.5639  -34.8945   22.4658 O   0  0  0  0  0  0
  -23.5501  -32.1305   23.7216 O   0  0  0  0  0  0
  -29.3653  -20.3306   20.4481 C   0  0  0  0  0  0
  -27.8993  -22.4468   19.5662 C   0  0  0  0  0  0
  -29.3910  -22.7848   21.6473 C   0  0  0  0  0  0
  -28.2838  -23.9389   19.2112 C   0  0  0  0  0  0
  -29.3354  -24.3465   21.3369 C   0  0  0  0  0  0
  -29.4606  -18.0834   21.9482 C   0  0  0  0  0  0
  -30.4725  -16.9759   21.4850 C   0  0  0  0  0  0
  -29.3765  -16.6555   19.4487 C   0  0  0  0  0  0
  -28.6184  -21.7234   20.7661 C   0  0  2  0  0  0
  -28.7358  -18.9079   20.8318 C   0  0  2  0  0  0
  -28.3456  -17.8432   19.7218 C   0  0  1  0  0  0
  -28.2051  -24.9159   20.4232 C   0  0  1  0  0  0
  -27.8363  -18.4874   18.3969 C   0  0  0  0  0  0
  -29.8813  -15.9013   20.6399 N   0  0  0  0  0  0
  -26.7462  -17.7287   17.7462 N   0  3  0  0  0  0
  -30.4795  -20.3555   19.9234 O   0  0  0  0  0  0
  -31.4663  -12.5658   19.1603 H   0  0  0  0  0  0
  -30.3681  -11.4704   19.9546 H   0  0  0  0  0  0
  -29.7813  -11.7133   17.5207 H   0  0  0  0  0  0
  -29.6214  -13.4399   17.7094 H   0  0  0  0  0  0
  -27.8880  -11.2664   18.9215 H   0  0  0  0  0  0
  -27.3664  -12.4939   17.8014 H   0  0  0  0  0  0
  -27.6177  -14.2378   19.4617 H   0  0  0  0  0  0
  -28.7205  -12.1854   21.4409 H   0  0  0  0  0  0
  -28.4221  -13.8819   21.7707 H   0  0  0  0  0  0
  -25.2795   -9.5585   22.4772 H   0  0  0  0  0  0
  -23.9999   -7.4556   22.7474 H   0  0  0  0  0  0
  -21.0825   -8.8755   19.8996 H   0  0  0  0  0  0
  -22.3714  -10.9663   19.6191 H   0  0  0  0  0  0
  -21.1957   -7.6154   23.9689 H   0  0  0  0  0  0
  -21.1442   -6.0548   25.9062 H   0  0  0  0  0  0
  -22.0624   -2.7621   23.2821 H   0  0  0  0  0  0
  -22.3995  -11.9888   22.4889 H   0  0  0  0  0  0
  -21.0985  -13.1250   22.2602 H   0  0  0  0  0  0
  -24.5057  -15.6649   20.4102 H   0  0  0  0  0  0
  -25.9022  -15.3877   19.5294 H   0  0  0  0  0  0
  -26.7259  -32.5389   23.1013 H   0  0  0  0  0  0
  -25.0232  -33.9689   25.0448 H   0  0  0  0  0  0
  -22.7328  -31.2983   21.3797 H   0  0  0  0  0  0
  -23.3884  -35.9394   23.2910 H   0  0  0  0  0  0
  -24.3705  -36.9192   22.2098 H   0  0  0  0  0  0
  -23.6978  -37.6220   23.6840 H   0  0  0  0  0  0
  -26.0897  -31.5198   20.5757 H   0  0  0  0  0  0
  -26.8590  -30.8383   21.9758 H   0  0  0  0  0  0
  -28.1275  -28.9422   21.1918 H   0  0  0  0  0  0
  -25.9883  -25.8505   19.0839 H   0  0  0  0  0  0
  -23.9865  -27.2603   19.0293 H   0  0  0  0  0  0
  -23.7797  -30.5719   19.3924 H   0  0  0  0  0  0
  -22.7675  -29.2339   19.8393 H   0  0  0  0  0  0
  -25.1182  -36.1760   25.0795 H   0  0  0  0  0  0
  -21.0014  -28.3285   24.1368 H   0  0  0  0  0  0
  -20.5647  -26.2345   23.3616 H   0  0  0  0  0  0
  -21.6647  -26.7442   22.1202 H   0  0  0  0  0  0
  -19.6942  -25.6326   21.1206 H   0  0  0  0  0  0
  -19.6702  -27.3249   20.6758 H   0  0  0  0  0  0
  -17.4207  -26.6728   21.3981 H   0  0  0  0  0  0
  -18.0328  -26.0062   22.8965 H   0  0  0  0  0  0
  -19.7969  -30.7264   24.2298 H   0  0  0  0  0  0
  -17.5046  -31.6298   24.5197 H   0  0  0  0  0  0
  -15.5380  -30.3041   23.7663 H   0  0  0  0  0  0
  -15.8667  -28.0863   22.7090 H   0  0  0  0  0  0
  -24.6096  -30.6814   25.7763 H   0  0  0  0  0  0
  -24.8756  -32.2850   26.4570 H   0  0  0  0  0  0
  -25.8111  -30.9122   27.0285 H   0  0  0  0  0  0
  -26.2838  -29.6715   24.1180 H   0  0  0  0  0  0
  -27.4192  -29.7211   25.4457 H   0  0  0  0  0  0
  -27.8639  -30.4271   23.9118 H   0  0  0  0  0  0
  -27.2935  -33.3681   26.1705 H   0  0  0  0  0  0
  -28.4111  -32.6379   25.0268 H   0  0  0  0  0  0
  -28.0603  -31.8412   26.5490 H   0  0  0  0  0  0
  -28.2172  -38.0339   24.8181 H   0  0  0  0  0  0
  -28.1565  -36.3032   24.5189 H   0  0  0  0  0  0
  -27.2548  -37.0006   25.8704 H   0  0  0  0  0  0
  -20.9382  -29.8822   21.6847 H   0  0  0  0  0  0
  -25.9962  -38.2747   24.2144 H   0  0  0  0  0  0
  -27.9711  -21.8275   18.6719 H   0  0  0  0  0  0
  -26.8363  -22.4515   19.8170 H   0  0  0  0  0  0
  -29.0158  -22.6661   22.6639 H   0  0  0  0  0  0
  -30.4399  -22.4923   21.7211 H   0  0  0  0  0  0
  -27.6321  -24.3000   18.4162 H   0  0  0  0  0  0
  -29.2934  -23.9421   18.7873 H   0  0  0  0  0  0
  -30.2869  -24.6094   20.8705 H   0  0  0  0  0  0
  -29.3121  -24.8953   22.2800 H   0  0  0  0  0  0
  -29.9604  -18.7625   22.6405 H   0  0  0  0  0  0
  -28.6932  -17.5792   22.5412 H   0  0  0  0  0  0
  -30.9298  -16.5251   22.3692 H   0  0  0  0  0  0
  -31.2959  -17.4528   20.9452 H   0  0  0  0  0  0
  -30.2359  -17.0497   18.9016 H   0  0  0  0  0  0
  -28.9242  -15.9392   18.7639 H   0  0  0  0  0  0
  -27.8091  -21.3914   21.4170 H   0  0  0  0  0  0
  -27.7886  -19.2132   21.2714 H   0  0  0  0  0  0
  -27.4786  -17.3511   20.1660 H   0  0  0  0  0  0
  -27.2487  -24.7617   20.9248 H   0  0  0  0  0  0
  -28.6607  -18.6107   17.6918 H   0  0  0  0  0  0
  -27.4450  -19.4875   18.5788 H   0  0  0  0  0  0
  -26.9829  -16.7656   17.6078 H   0  0  0  0  0  0
  -26.5561  -18.1253   16.8415 H   0  0  0  0  0  0
  -25.8963  -17.7878   18.2790 H   0  0  0  0  0  0
  1 25  1  0  0  0
  1 30  2  0  0  0
  1 84  1  0  0  0
  2  3  1  0  0  0
  2 25  1  0  0  0
  2 87  1  0  0  0
  2 88  1  0  0  0
  3  4  1  0  0  0
  3 89  1  0  0  0
  3 90  1  0  0  0
  4  5  1  0  0  0
  4 91  1  0  0  0
  4 92  1  0  0  0
  5  6  1  0  0  0
  5 26  1  0  0  0
  5 93  1  0  0  0
  6 25  1  0  0  0
  6 94  1  0  0  0
  6 95  1  0  0  0
  7  8  2  0  0  0
  7 26  1  0  0  0
  7 29  1  0  0  0
  8  9  1  0  0  0
  8 22  1  0  0  0
  9 10  1  0  0  0
  9 27  2  0  0  0
 10 11  2  0  0  0
 10 15  1  0  0  0
 11 12  1  0  0  0
 11 96  1  0  0  0
 12 13  2  0  0  0
 12 97  1  0  0  0
 13 14  1  0  0  0
 13 31  1  0  0  0
 14 15  2  0  0  0
 14 98  1  0  0  0
 15 99  1  0  0  0
 16 17  2  0  0  0
 16 21  1  0  0  0
 16 31  1  0  0  0
 17 18  1  0  0  0
 17100  1  0  0  0
 18 19  2  0  0  0
 18101  1  0  0  0
 19 20  1  0  0  0
 19 24  1  0  0  0
 20 21  2  0  0  0
 20102  1  0  0  0
 21 23  1  0  0  0
 22 28  1  0  0  0
 22 32  2  0  0  0
 26 27  1  0  0  0
 28103  1  0  0  0
 28104  1  0  0  0
 29105  1  0  0  0
 29106  1  0  0  0
 33 34  1  0  0  0
 33 66  1  0  0  0
 33 70  2  0  0  0
 34 36  1  0  0  0
 34 59  1  0  0  0
 34107  1  0  0  0
 35 44  2  0  0  0
 35 45  1  0  0  0
 35 68  1  0  0  0
 36 56  1  0  0  0
 36108  1  0  0  0
 37 39  1  0  0  0
 37 47  1  0  0  0
 37 66  1  0  0  0
 37109  1  0  0  0
 38 43  2  0  0  0
 38 46  1  0  0  0
 38 47  1  0  0  0
 39 64  1  0  0  0
 39 67  2  0  0  0
 40 52  1  0  0  0
 40 53  2  0  0  0
 40 58  1  0  0  0
 41110  1  0  0  0
 41111  1  0  0  0
 41112  1  0  0  0
 41 48  1  0  0  0
 42 43  1  0  0  0
 42 66  1  0  0  0
 42113  1  0  0  0
 42114  1  0  0  0
 43 44  1  0  0  0
 44115  1  0  0  0
 45 46  2  0  0  0
 45116  1  0  0  0
 46117  1  0  0  0
 47118  1  0  0  0
 47119  1  0  0  0
 48 56  1  0  0  0
 48 65  1  0  0  0
 48120  1  0  0  0
 49 50  1  0  0  0
 49 53  1  0  0  0
 49 64  1  0  0  0
 49121  1  0  0  0
 50 51  1  0  0  0
 50122  1  0  0  0
 50123  1  0  0  0
 51 52  1  0  0  0
 51124  1  0  0  0
 51125  1  0  0  0
 52126  1  0  0  0
 52127  1  0  0  0
 53 54  1  0  0  0
 54 55  2  0  0  0
 54128  1  0  0  0
 55 57  1  0  0  0
 55129  1  0  0  0
 56 69  2  0  0  0
 57 58  2  0  0  0
 57130  1  0  0  0
 58131  1  0  0  0
 59 60  1  0  0  0
 59 61  1  0  0  0
 59 62  1  0  0  0
 60132  1  0  0  0
 60133  1  0  0  0
 60134  1  0  0  0
 61135  1  0  0  0
 61136  1  0  0  0
 61137  1  0  0  0
 62138  1  0  0  0
 62139  1  0  0  0
 62140  1  0  0  0
 63 65  1  0  0  0
 63141  1  0  0  0
 63142  1  0  0  0
 63143  1  0  0  0
 64144  1  0  0  0
 65145  1  0  0  0
 68 82  1  0  0  0
 71 86  2  0  0  0
 71 79  1  0  0  0
 71 80  1  0  0  0
 72 74  1  0  0  0
 72 79  1  0  0  0
 72146  1  0  0  0
 72147  1  0  0  0
 73 75  1  0  0  0
 73 79  1  0  0  0
 73148  1  0  0  0
 73149  1  0  0  0
 74 82  1  0  0  0
 74150  1  0  0  0
 74151  1  0  0  0
 75 82  1  0  0  0
 75152  1  0  0  0
 75153  1  0  0  0
 76 77  1  0  0  0
 76 80  1  0  0  0
 76154  1  0  0  0
 76155  1  0  0  0
 77 84  1  0  0  0
 77156  1  0  0  0
 77157  1  0  0  0
 78 81  1  0  0  0
 78 84  1  0  0  0
 78158  1  0  0  0
 78159  1  0  0  0
 79160  1  0  0  0
 80 81  1  0  0  0
 80161  1  0  0  0
 81 83  1  0  0  0
 81162  1  0  0  0
 82163  1  0  0  0
 83 85  1  0  0  0
 83164  1  0  0  0
 83165  1  0  0  0
 85166  1  0  0  0
 85167  1  0  0  0
 85168  1  0  0  0
M  CHG  1  85   1
M  ISO  4   1 100  68 101  82 101  84 100
M  END
> <chiral flag>
0

> <version>
0

> <s_m_source_file>
/data/baiqing/PycharmProjects/Reinvent-master-3.2/result/LINK_invent/BTK/process_docking_weight1_custom_sum_contain_oxygen_bond_distance_aromatic_linkinvent_7_9_3/rearranged_h_0116.sdf

> <i_m_source_file_index>
57

> <r_mmod_Potential_Energy-OPLS-2005>
233.008361816406

> <r_mmod_Stretch_Energy-OPLS-2005>
117.17113494873

> <r_mmod_Bend_Energy-OPLS-2005>
211.435928344727

> <r_mmod_Torsional_Energy-OPLS-2005>
401.428253173828

> <r_mmod_Improper_Torsional_Energy-OPLS-2005>
15.1153354644775

> <r_mmod_Van_der_Waal_Energy-OPLS-2005>
115.41512298584

> <r_mmod_Electrostatic_Energy-OPLS-2005>
-183.615356445312

> <r_mmod_Solvation_Energy-OPLS-2005>
-527.29736328125

> <b_mmod_Minimization_Converged-OPLS-2005>
0

> <r_mmod_RMS_Derivative-OPLS-2005>
5.84556341171265

$$$$
58
                    3D
 Structure written by MMmdl.
173181  0  0  1  0            999 V2000
  -30.7174  -14.4366   20.5926 C   0  0  0  0  0  0
  -30.4234  -12.2929   19.4040 C   0  0  0  0  0  0
  -29.4889  -12.5186   18.1962 C   0  0  0  0  0  0
  -28.0084  -12.3789   18.6039 C   0  0  0  0  0  0
  -27.6605  -13.1832   19.8845 C   0  0  2  0  0  0
  -28.7132  -12.9474   20.9943 C   0  0  0  0  0  0
  -25.2594  -13.8078   20.5643 C   0  0  0  0  0  0
  -24.1833  -13.0402   20.9166 C   0  0  0  0  0  0
  -24.6361  -11.6861   20.8749 C   0  0  0  0  0  0
  -23.9024  -10.4262   21.0419 C   0  0  0  0  0  0
  -24.3582   -9.4180   21.9196 C   0  0  0  0  0  0
  -23.6253   -8.2225   22.0768 C   0  0  0  0  0  0
  -22.4253   -8.0266   21.3547 C   0  0  0  0  0  0
  -21.9867   -9.0233   20.4650 C   0  0  0  0  0  0
  -22.7211  -10.2114   20.3061 C   0  0  0  0  0  0
  -21.6842   -6.0714   22.5270 C   0  0  0  0  0  0
  -21.4015   -6.5624   23.8201 C   0  0  0  0  0  0
  -21.3650   -5.6777   24.9158 C   0  0  0  0  0  0
  -21.6041   -4.3037   24.7220 C   0  0  0  0  0  0
  -21.8837   -3.8128   23.4344 C   0  0  0  0  0  0
  -21.9188   -4.6937   22.3392 C   0  0  0  0  0  0
  -22.7863  -13.5241   21.1801 C   0  0  0  0  0  0
  -22.1686   -4.2131   21.0975 F   0  0  0  0  0  0
  -21.5591   -3.4523   25.7727 F   0  0  0  0  0  0
  -30.0480  -13.2591   20.4468 N   0  0  0  0  0  0
  -26.3011  -12.9200   20.3408 N   0  0  0  0  0  0
  -25.9290  -11.6389   20.5796 N   0  0  0  0  0  0
  -22.0476  -12.8263   22.0359 N   0  0  0  0  0  0
  -25.4301  -15.1789   20.3955 N   0  0  0  0  0  0
  -31.8060  -14.6764   20.0688 O   0  0  0  0  0  0
  -21.6626   -6.8861   21.4240 O   0  0  0  0  0  0
  -22.3584  -14.5548   20.6626 O   0  0  0  0  0  0
  -24.6148  -31.8680   23.2126 C   0  0  0  0  0  0
  -25.9052  -32.4819   23.8404 C   0  0  1  0  0  0
  -27.2423  -27.4489   20.0612 C   0  0  0  0  0  0
  -25.5919  -33.8620   24.2338 N   0  0  0  0  0  0
  -23.4008  -30.4911   21.5560 C   0  0  2  0  0  0
  -24.8449  -28.9604   20.1161 C   0  0  0  0  0  0
  -22.7409  -29.4643   22.5029 C   0  0  0  0  0  0
  -18.0266  -28.1366   22.8494 C   0  0  0  0  0  0
  -24.1472  -36.7292   23.2632 C   0  0  0  0  0  0
  -25.9302  -30.8323   21.3673 C   0  0  0  0  0  0
  -26.0061  -29.4690   20.7103 C   0  0  0  0  0  0
  -27.2020  -28.7151   20.6900 C   0  0  0  0  0  0
  -26.0490  -26.9408   19.4940 C   0  0  0  0  0  0
  -24.8586  -27.6918   19.5144 C   0  0  0  0  0  0
  -23.6061  -29.8260   20.1694 C   0  0  0  0  0  0
  -25.4094  -36.3101   24.0329 C   0  0  1  0  0  0
  -20.5856  -28.3640   23.1333 C   0  0  2  0  0  0
  -20.6758  -26.9379   22.5426 C   0  0  0  0  0  0
  -19.5743  -26.6371   21.5215 C   0  0  0  0  0  0
  -18.1919  -26.7921   22.1608 C   0  0  0  0  0  0
  -19.1520  -28.8821   23.2905 C   0  0  0  0  0  0
  -18.9445  -30.1435   23.8911 C   0  0  0  0  0  0
  -17.6449  -30.6570   24.0565 C   0  0  0  0  0  0
  -25.9029  -34.9466   23.5126 C   0  0  0  0  0  0
  -16.5342  -29.9069   23.6323 C   0  0  0  0  0  0
  -16.7263  -28.6489   23.0351 C   0  0  0  0  0  0
  -26.4480  -31.6600   25.0730 C   0  0  0  0  0  0
  -25.3746  -31.3724   26.1481 C   0  0  0  0  0  0
  -27.0310  -30.3041   24.6108 C   0  0  0  0  0  0
  -27.6064  -32.4315   25.7483 C   0  0  0  0  0  0
  -27.5568  -37.1798   24.8451 C   0  0  0  0  0  0
  -21.4136  -29.3000   22.3751 N   0  0  0  0  0  0
  -26.4273  -37.3788   23.9401 N   0  0  0  0  0  0
  -24.6670  -31.0774   22.1038 N   0  0  0  0  0  0
  -23.4184  -28.8186   23.3071 O   0  0  0  0  0  0
  -28.4285  -26.7385   20.0647 O   0  0  0  0  0  0
  -26.5575  -34.8921   22.4678 O   0  0  0  0  0  0
  -23.5343  -32.1441   23.7519 O   0  0  0  0  0  0
  -31.9748  -20.0020   20.1677 C   0  0  0  0  0  0
  -27.6963  -17.8037   19.6564 C   0  0  0  0  0  0
  -28.8543  -17.0185   19.0647 C   0  0  0  0  0  0
  -28.3079  -19.1972   19.7141 C   0  0  0  0  0  0
  -30.0598  -17.5667   19.8428 C   0  0  2  0  0  0
  -33.2882  -20.2777   19.4440 C   0  0  0  0  0  0
  -31.3268  -22.0063   17.0671 C   0  0  0  0  0  0
  -30.2776  -16.8505   21.2207 C   0  0  0  0  0  0
  -29.6029  -24.6919   19.3659 C   0  0  0  0  0  0
  -29.9915  -23.8153   18.1541 C   0  0  0  0  0  0
  -30.0845  -21.4757   19.2568 C   0  0  0  0  0  0
  -28.7564  -25.9135   18.9374 C   0  0  0  0  0  0
  -30.6703  -20.0098   19.3441 C   0  0  2  0  0  0
  -30.8534  -22.5498   18.4308 C   0  0  1  0  0  0
  -30.0267  -15.3979   21.2211 N   0  0  0  0  0  0
  -29.7559  -19.0293   20.0296 N   0  3  1  0  0  0
  -31.9866  -19.7871   21.3828 O   0  0  0  0  0  0
  -31.4676  -12.3867   19.1007 H   0  0  0  0  0  0
  -30.3160  -11.2737   19.7820 H   0  0  0  0  0  0
  -29.7250  -11.8144   17.3968 H   0  0  0  0  0  0
  -29.6594  -13.5152   17.7849 H   0  0  0  0  0  0
  -27.8014  -11.3192   18.7606 H   0  0  0  0  0  0
  -27.3663  -12.6941   17.7798 H   0  0  0  0  0  0
  -27.6884  -14.2289   19.6089 H   0  0  0  0  0  0
  -28.6906  -11.9027   21.3065 H   0  0  0  0  0  0
  -28.4743  -13.5181   21.8930 H   0  0  0  0  0  0
  -25.2741   -9.5609   22.4770 H   0  0  0  0  0  0
  -23.9935   -7.4613   22.7501 H   0  0  0  0  0  0
  -21.0790   -8.8753   19.8979 H   0  0  0  0  0  0
  -22.3681  -10.9638   19.6139 H   0  0  0  0  0  0
  -21.2058   -7.6140   23.9695 H   0  0  0  0  0  0
  -21.1447   -6.0511   25.9050 H   0  0  0  0  0  0
  -22.0637   -2.7593   23.2859 H   0  0  0  0  0  0
  -22.4060  -11.9901   22.4731 H   0  0  0  0  0  0
  -21.1110  -13.1338   22.2552 H   0  0  0  0  0  0
  -24.6476  -15.8223   20.4557 H   0  0  0  0  0  0
  -26.2530  -15.5940   19.9813 H   0  0  0  0  0  0
  -26.7121  -32.5534   23.1165 H   0  0  0  0  0  0
  -25.0105  -33.9783   25.0510 H   0  0  0  0  0  0
  -22.6889  -31.3075   21.4212 H   0  0  0  0  0  0
  -23.3737  -35.9623   23.3300 H   0  0  0  0  0  0
  -24.3566  -36.8899   22.2045 H   0  0  0  0  0  0
  -23.7220  -37.6493   23.6650 H   0  0  0  0  0  0
  -26.0461  -31.6010   20.6020 H   0  0  0  0  0  0
  -26.8173  -30.8817   21.9868 H   0  0  0  0  0  0
  -28.1015  -29.1079   21.1452 H   0  0  0  0  0  0
  -25.9993  -25.9592   19.0495 H   0  0  0  0  0  0
  -23.9600  -27.2848   19.0722 H   0  0  0  0  0  0
  -23.7116  -30.6032   19.4117 H   0  0  0  0  0  0
  -22.7285  -29.2473   19.8754 H   0  0  0  0  0  0
  -25.1270  -36.1964   25.0820 H   0  0  0  0  0  0
  -20.9934  -28.3196   24.1459 H   0  0  0  0  0  0
  -20.5649  -26.2242   23.3600 H   0  0  0  0  0  0
  -21.6635  -26.7423   22.1234 H   0  0  0  0  0  0
  -19.6906  -25.6291   21.1217 H   0  0  0  0  0  0
  -19.6689  -27.3190   20.6760 H   0  0  0  0  0  0
  -17.4200  -26.6695   21.3997 H   0  0  0  0  0  0
  -18.0285  -26.0048   22.8972 H   0  0  0  0  0  0
  -19.7918  -30.7253   24.2279 H   0  0  0  0  0  0
  -17.4996  -31.6250   24.5167 H   0  0  0  0  0  0
  -15.5341  -30.2971   23.7646 H   0  0  0  0  0  0
  -15.8657  -28.0808   22.7064 H   0  0  0  0  0  0
  -24.5893  -30.7099   25.7825 H   0  0  0  0  0  0
  -24.8973  -32.2895   26.4945 H   0  0  0  0  0  0
  -25.8085  -30.8871   27.0230 H   0  0  0  0  0  0
  -26.2859  -29.6796   24.1161 H   0  0  0  0  0  0
  -27.4089  -29.7281   25.4566 H   0  0  0  0  0  0
  -27.8689  -30.4371   23.9259 H   0  0  0  0  0  0
  -27.2712  -33.3623   26.2071 H   0  0  0  0  0  0
  -28.3866  -32.6852   25.0296 H   0  0  0  0  0  0
  -28.0733  -31.8427   26.5387 H   0  0  0  0  0  0
  -28.2592  -38.0092   24.7497 H   0  0  0  0  0  0
  -28.1058  -36.2622   24.6268 H   0  0  0  0  0  0
  -27.2293  -37.1444   25.8859 H   0  0  0  0  0  0
  -20.9303  -29.8725   21.6971 H   0  0  0  0  0  0
  -26.0156  -38.2859   24.1421 H   0  0  0  0  0  0
  -27.4484  -17.4502   20.6590 H   0  0  0  0  0  0
  -26.7933  -17.7660   19.0471 H   0  0  0  0  0  0
  -28.9615  -17.2547   18.0041 H   0  0  0  0  0  0
  -28.7302  -15.9460   19.1142 H   0  0  0  0  0  0
  -27.7994  -19.8619   20.4131 H   0  0  0  0  0  0
  -28.1804  -19.6042   18.7115 H   0  0  0  0  0  0
  -30.9567  -17.4181   19.2386 H   0  0  0  0  0  0
  -33.3271  -19.7280   18.5037 H   0  0  0  0  0  0
  -34.1334  -19.9622   20.0543 H   0  0  0  0  0  0
  -33.3987  -21.3393   19.2293 H   0  0  0  0  0  0
  -31.8154  -22.7865   16.4818 H   0  0  0  0  0  0
  -30.4911  -21.6339   16.4734 H   0  0  0  0  0  0
  -32.0510  -21.1999   17.1610 H   0  0  0  0  0  0
  -29.6124  -17.2766   21.9743 H   0  0  0  0  0  0
  -31.2915  -17.0356   21.5797 H   0  0  0  0  0  0
  -30.5045  -25.0334   19.8763 H   0  0  0  0  0  0
  -29.0362  -24.1022   20.0867 H   0  0  0  0  0  0
  -30.5333  -24.4561   17.4561 H   0  0  0  0  0  0
  -29.0852  -23.5209   17.6221 H   0  0  0  0  0  0
  -29.9357  -21.8554   20.2692 H   0  0  0  0  0  0
  -29.0913  -21.4631   18.8174 H   0  0  0  0  0  0
  -27.8980  -25.5537   18.3765 H   0  0  0  0  0  0
  -29.3226  -26.5269   18.2351 H   0  0  0  0  0  0
  -30.8600  -19.6364   18.3383 H   0  0  0  0  0  0
  -31.7359  -22.8622   18.9904 H   0  0  0  0  0  0
  -29.1653  -15.0912   21.6497 H   0  0  0  0  0  0
  -29.8974  -19.2163   21.0140 H   0  0  0  0  0  0
  1 25  1  0  0  0
  1 30  2  0  0  0
  1 85  1  0  0  0
  2  3  1  0  0  0
  2 25  1  0  0  0
  2 88  1  0  0  0
  2 89  1  0  0  0
  3  4  1  0  0  0
  3 90  1  0  0  0
  3 91  1  0  0  0
  4  5  1  0  0  0
  4 92  1  0  0  0
  4 93  1  0  0  0
  5  6  1  0  0  0
  5 26  1  0  0  0
  5 94  1  0  0  0
  6 25  1  0  0  0
  6 95  1  0  0  0
  6 96  1  0  0  0
  7  8  2  0  0  0
  7 26  1  0  0  0
  7 29  1  0  0  0
  8  9  1  0  0  0
  8 22  1  0  0  0
  9 10  1  0  0  0
  9 27  2  0  0  0
 10 11  2  0  0  0
 10 15  1  0  0  0
 11 12  1  0  0  0
 11 97  1  0  0  0
 12 13  2  0  0  0
 12 98  1  0  0  0
 13 14  1  0  0  0
 13 31  1  0  0  0
 14 15  2  0  0  0
 14 99  1  0  0  0
 15100  1  0  0  0
 16 17  2  0  0  0
 16 21  1  0  0  0
 16 31  1  0  0  0
 17 18  1  0  0  0
 17101  1  0  0  0
 18 19  2  0  0  0
 18102  1  0  0  0
 19 20  1  0  0  0
 19 24  1  0  0  0
 20 21  2  0  0  0
 20103  1  0  0  0
 21 23  1  0  0  0
 22 28  1  0  0  0
 22 32  2  0  0  0
 26 27  1  0  0  0
 28104  1  0  0  0
 28105  1  0  0  0
 29106  1  0  0  0
 29107  1  0  0  0
 33 34  1  0  0  0
 33 66  1  0  0  0
 33 70  2  0  0  0
 34 36  1  0  0  0
 34 59  1  0  0  0
 34108  1  0  0  0
 35 44  2  0  0  0
 35 45  1  0  0  0
 35 68  1  0  0  0
 36 56  1  0  0  0
 36109  1  0  0  0
 37 39  1  0  0  0
 37 47  1  0  0  0
 37 66  1  0  0  0
 37110  1  0  0  0
 38 43  2  0  0  0
 38 46  1  0  0  0
 38 47  1  0  0  0
 39 64  1  0  0  0
 39 67  2  0  0  0
 40 52  1  0  0  0
 40 53  2  0  0  0
 40 58  1  0  0  0
 41111  1  0  0  0
 41112  1  0  0  0
 41113  1  0  0  0
 41 48  1  0  0  0
 42 43  1  0  0  0
 42 66  1  0  0  0
 42114  1  0  0  0
 42115  1  0  0  0
 43 44  1  0  0  0
 44116  1  0  0  0
 45 46  2  0  0  0
 45117  1  0  0  0
 46118  1  0  0  0
 47119  1  0  0  0
 47120  1  0  0  0
 48 56  1  0  0  0
 48 65  1  0  0  0
 48121  1  0  0  0
 49 50  1  0  0  0
 49 53  1  0  0  0
 49 64  1  0  0  0
 49122  1  0  0  0
 50 51  1  0  0  0
 50123  1  0  0  0
 50124  1  0  0  0
 51 52  1  0  0  0
 51125  1  0  0  0
 51126  1  0  0  0
 52127  1  0  0  0
 52128  1  0  0  0
 53 54  1  0  0  0
 54 55  2  0  0  0
 54129  1  0  0  0
 55 57  1  0  0  0
 55130  1  0  0  0
 56 69  2  0  0  0
 57 58  2  0  0  0
 57131  1  0  0  0
 58132  1  0  0  0
 59 60  1  0  0  0
 59 61  1  0  0  0
 59 62  1  0  0  0
 60133  1  0  0  0
 60134  1  0  0  0
 60135  1  0  0  0
 61136  1  0  0  0
 61137  1  0  0  0
 61138  1  0  0  0
 62139  1  0  0  0
 62140  1  0  0  0
 62141  1  0  0  0
 63 65  1  0  0  0
 63142  1  0  0  0
 63143  1  0  0  0
 63144  1  0  0  0
 64145  1  0  0  0
 65146  1  0  0  0
 68 82  1  0  0  0
 71 76  1  0  0  0
 71 83  1  0  0  0
 71 87  2  0  0  0
 72 73  1  0  0  0
 72 74  1  0  0  0
 72147  1  0  0  0
 72148  1  0  0  0
 73 75  1  0  0  0
 73149  1  0  0  0
 73150  1  0  0  0
 74151  1  0  0  0
 74152  1  0  0  0
 74 86  1  0  0  0
 75 78  1  0  0  0
 75 86  1  0  0  0
 75153  1  0  0  0
 76154  1  0  0  0
 76155  1  0  0  0
 76156  1  0  0  0
 77157  1  0  0  0
 77158  1  0  0  0
 77159  1  0  0  0
 77 84  1  0  0  0
 78 85  1  0  0  0
 78160  1  0  0  0
 78161  1  0  0  0
 79 80  1  0  0  0
 79 82  1  0  0  0
 79162  1  0  0  0
 79163  1  0  0  0
 80 84  1  0  0  0
 80164  1  0  0  0
 80165  1  0  0  0
 81 84  1  0  0  0
 81166  1  0  0  0
 81167  1  0  0  0
 81 83  1  0  0  0
 82168  1  0  0  0
 82169  1  0  0  0
 83 86  1  0  0  0
 83170  1  0  0  0
 84171  1  0  0  0
 85172  1  0  0  0
 86173  1  0  0  0
M  CHG  1  86   1
M  ISO  4   1 100  68 101  82 101  85 100
M  END
> <chiral flag>
0

> <version>
0

> <s_m_source_file>
/data/baiqing/PycharmProjects/Reinvent-master-3.2/result/LINK_invent/BTK/process_docking_weight1_custom_sum_contain_oxygen_bond_distance_aromatic_linkinvent_7_9_3/rearranged_h_0116.sdf

> <i_m_source_file_index>
58

> <r_mmod_Potential_Energy-OPLS-2005>
-168.900115966797

> <r_mmod_Stretch_Energy-OPLS-2005>
44.1823654174805

> <r_mmod_Bend_Energy-OPLS-2005>
145.193344116211

> <r_mmod_Torsional_Energy-OPLS-2005>
288.136199951172

> <r_mmod_Improper_Torsional_Energy-OPLS-2005>
4.32631874084473

> <r_mmod_Van_der_Waal_Energy-OPLS-2005>
137.940963745117

> <r_mmod_Electrostatic_Energy-OPLS-2005>
-362.898559570312

> <r_mmod_Solvation_Energy-OPLS-2005>
-435.556121826172

> <b_mmod_Minimization_Converged-OPLS-2005>
0

> <r_mmod_RMS_Derivative-OPLS-2005>
2.75761747360229

$$$$
59
                    3D
 Structure written by MMmdl.
156163  0  0  1  0            999 V2000
  -30.6049  -14.9303   20.4317 C   0  0  0  0  0  0
  -30.4318  -12.5747   19.5149 C   0  0  0  0  0  0
  -29.5233  -12.5359   18.2666 C   0  0  0  0  0  0
  -28.0527  -12.3292   18.6754 C   0  0  0  0  0  0
  -27.6302  -13.2627   19.8394 C   0  0  2  0  0  0
  -28.6722  -13.3042   20.9804 C   0  0  0  0  0  0
  -25.2422  -13.8281   20.5714 C   0  0  0  0  0  0
  -24.1758  -13.0455   20.9236 C   0  0  0  0  0  0
  -24.6426  -11.6960   20.8780 C   0  0  0  0  0  0
  -23.9108  -10.4307   21.0439 C   0  0  0  0  0  0
  -24.3650   -9.4204   21.9202 C   0  0  0  0  0  0
  -23.6308   -8.2249   22.0778 C   0  0  0  0  0  0
  -22.4283   -8.0305   21.3584 C   0  0  0  0  0  0
  -21.9934   -9.0263   20.4674 C   0  0  0  0  0  0
  -22.7280  -10.2135   20.3068 C   0  0  0  0  0  0
  -21.6838   -6.0731   22.5283 C   0  0  0  0  0  0
  -21.3990   -6.5619   23.8218 C   0  0  0  0  0  0
  -21.3705   -5.6794   24.9199 C   0  0  0  0  0  0
  -21.6065   -4.3048   24.7243 C   0  0  0  0  0  0
  -21.8821   -3.8148   23.4360 C   0  0  0  0  0  0
  -21.9180   -4.6956   22.3427 C   0  0  0  0  0  0
  -22.7749  -13.5185   21.1898 C   0  0  0  0  0  0
  -22.1632   -4.2124   21.1002 F   0  0  0  0  0  0
  -21.5675   -3.4552   25.7766 F   0  0  0  0  0  0
  -29.9616  -13.6895   20.3905 N   0  0  0  0  0  0
  -26.2877  -12.9549   20.3231 N   0  0  0  0  0  0
  -25.9360  -11.6660   20.5767 N   0  0  0  0  0  0
  -22.0426  -12.8177   22.0480 N   0  0  0  0  0  0
  -25.4165  -15.2019   20.4148 N   0  0  0  0  0  0
  -31.7939  -14.9502   20.1065 O   0  0  0  0  0  0
  -21.6663   -6.8872   21.4253 O   0  0  0  0  0  0
  -22.3413  -14.5465   20.6704 O   0  0  0  0  0  0
  -24.6443  -31.8428   23.1887 C   0  0  0  0  0  0
  -25.9204  -32.4700   23.8248 C   0  0  1  0  0  0
  -27.2053  -27.1285   20.1613 C   0  0  0  0  0  0
  -25.5949  -33.8499   24.2154 N   0  0  0  0  0  0
  -23.4454  -30.4636   21.5379 C   0  0  2  0  0  0
  -24.8922  -28.8904   20.1133 C   0  0  0  0  0  0
  -22.7600  -29.4518   22.4888 C   0  0  0  0  0  0
  -18.0309  -28.1412   22.8495 C   0  0  0  0  0  0
  -24.1504  -36.7266   23.2645 C   0  0  0  0  0  0
  -26.0028  -30.7145   21.3873 C   0  0  0  0  0  0
  -26.0698  -29.3238   20.7349 C   0  0  0  0  0  0
  -27.2298  -28.4609   20.7392 C   0  0  0  0  0  0
  -26.0075  -26.8011   19.4882 C   0  0  0  0  0  0
  -24.8752  -27.6437   19.4739 C   0  0  0  0  0  0
  -23.6716  -29.7968   20.1556 C   0  0  0  0  0  0
  -25.4124  -36.3017   24.0306 C   0  0  1  0  0  0
  -20.5942  -28.3694   23.1280 C   0  0  2  0  0  0
  -20.6816  -26.9407   22.5433 C   0  0  0  0  0  0
  -19.5774  -26.6375   21.5256 C   0  0  0  0  0  0
  -18.1935  -26.7962   22.1636 C   0  0  0  0  0  0
  -19.1578  -28.8881   23.2871 C   0  0  0  0  0  0
  -18.9492  -30.1498   23.8851 C   0  0  0  0  0  0
  -17.6486  -30.6603   24.0580 C   0  0  0  0  0  0
  -25.9072  -34.9402   23.5041 C   0  0  0  0  0  0
  -16.5372  -29.9089   23.6370 C   0  0  0  0  0  0
  -16.7290  -28.6540   23.0326 C   0  0  0  0  0  0
  -26.4502  -31.6583   25.0706 C   0  0  0  0  0  0
  -25.3671  -31.3798   26.1399 C   0  0  0  0  0  0
  -27.0366  -30.2976   24.6276 C   0  0  0  0  0  0
  -27.6031  -32.4355   25.7470 C   0  0  0  0  0  0
  -27.5584  -37.1775   24.8452 C   0  0  0  0  0  0
  -21.4292  -29.3008   22.3657 N   0  0  0  0  0  0
  -26.4269  -37.3748   23.9430 N   0  0  0  0  0  0
  -24.7177  -31.0286   22.0919 N   0  0  0  0  0  0
  -23.4249  -28.8065   23.3031 O   0  0  0  0  0  0
  -28.2533  -26.1367   20.2033 O   0  0  0  0  0  0
  -26.5676  -34.8919   22.4629 O   0  0  0  0  0  0
  -23.5559  -32.1273   23.7116 O   0  0  0  0  0  0
  -31.5684  -17.9621   21.2656 C   0  0  0  0  0  0
  -27.7523  -24.6444   22.0346 C   0  0  0  0  0  0
  -29.2306  -18.9710   20.6665 C   0  0  0  0  0  0
  -28.6801  -21.7137   20.7069 C   0  0  0  0  0  0
  -30.2974  -17.6764   20.4360 C   0  0  2  0  0  0
  -27.9568  -24.6332   20.5145 C   0  0  2  0  0  0
  -28.9083  -23.2850   20.1183 C   0  0  2  0  0  0
  -29.8986  -16.1486   20.6335 N   0  0  0  0  0  0
  -29.5714  -20.4736   20.2852 N   0  3  0  0  0  0
  -28.7354  -23.1364   18.7218 O   0  0  0  0  0  0
  -31.4733  -12.6930   19.2101 H   0  0  0  0  0  0
  -30.3927  -11.6219   20.0483 H   0  0  0  0  0  0
  -29.8405  -11.7459   17.5835 H   0  0  0  0  0  0
  -29.6221  -13.4767   17.7225 H   0  0  0  0  0  0
  -27.9355  -11.2871   18.9771 H   0  0  0  0  0  0
  -27.3988  -12.4699   17.8150 H   0  0  0  0  0  0
  -27.5907  -14.2654   19.4098 H   0  0  0  0  0  0
  -28.7460  -12.3315   21.4731 H   0  0  0  0  0  0
  -28.3753  -14.0272   21.7443 H   0  0  0  0  0  0
  -25.2796   -9.5628   22.4769 H   0  0  0  0  0  0
  -24.0016   -7.4626   22.7463 H   0  0  0  0  0  0
  -21.0882   -8.8758   19.8956 H   0  0  0  0  0  0
  -22.3750  -10.9660   19.6163 H   0  0  0  0  0  0
  -21.1923   -7.6112   23.9689 H   0  0  0  0  0  0
  -21.1552   -6.0541   25.9096 H   0  0  0  0  0  0
  -22.0551   -2.7591   23.2894 H   0  0  0  0  0  0
  -22.4010  -11.9799   22.4814 H   0  0  0  0  0  0
  -21.1035  -13.1167   22.2689 H   0  0  0  0  0  0
  -24.6647  -15.8721   20.5428 H   0  0  0  0  0  0
  -26.2723  -15.6312   20.0890 H   0  0  0  0  0  0
  -26.7265  -32.5291   23.0957 H   0  0  0  0  0  0
  -25.0072  -33.9615   25.0291 H   0  0  0  0  0  0
  -22.7451  -31.2885   21.3887 H   0  0  0  0  0  0
  -23.3774  -35.9598   23.3245 H   0  0  0  0  0  0
  -24.3582  -36.8953   22.2073 H   0  0  0  0  0  0
  -23.7243  -37.6436   23.6719 H   0  0  0  0  0  0
  -26.1564  -31.4646   20.6094 H   0  0  0  0  0  0
  -26.8775  -30.7656   22.0245 H   0  0  0  0  0  0
  -28.1285  -28.7914   21.2430 H   0  0  0  0  0  0
  -25.9251  -25.8585   18.9670 H   0  0  0  0  0  0
  -23.9796  -27.3147   18.9646 H   0  0  0  0  0  0
  -23.8132  -30.5752   19.4057 H   0  0  0  0  0  0
  -22.7848  -29.2442   19.8403 H   0  0  0  0  0  0
  -25.1322  -36.1822   25.0796 H   0  0  0  0  0  0
  -21.0002  -28.3264   24.1418 H   0  0  0  0  0  0
  -20.5772  -26.2282   23.3625 H   0  0  0  0  0  0
  -21.6661  -26.7452   22.1179 H   0  0  0  0  0  0
  -19.6930  -25.6283   21.1274 H   0  0  0  0  0  0
  -19.6734  -27.3214   20.6815 H   0  0  0  0  0  0
  -17.4235  -26.6739   21.4006 H   0  0  0  0  0  0
  -18.0283  -26.0100   22.9022 H   0  0  0  0  0  0
  -19.7956  -30.7364   24.2140 H   0  0  0  0  0  0
  -17.5019  -31.6271   24.5202 H   0  0  0  0  0  0
  -15.5362  -30.2960   23.7746 H   0  0  0  0  0  0
  -15.8690  -28.0875   22.6991 H   0  0  0  0  0  0
  -24.5844  -30.7155   25.7716 H   0  0  0  0  0  0
  -24.8887  -32.3016   26.4731 H   0  0  0  0  0  0
  -25.7934  -30.9015   27.0227 H   0  0  0  0  0  0
  -26.2987  -29.6688   24.1277 H   0  0  0  0  0  0
  -27.3994  -29.7268   25.4836 H   0  0  0  0  0  0
  -27.8886  -30.4227   23.9582 H   0  0  0  0  0  0
  -27.2608  -33.3668   26.1987 H   0  0  0  0  0  0
  -28.3849  -32.6882   25.0301 H   0  0  0  0  0  0
  -28.0682  -31.8522   26.5416 H   0  0  0  0  0  0
  -28.2554  -38.0124   24.7539 H   0  0  0  0  0  0
  -28.1113  -36.2641   24.6196 H   0  0  0  0  0  0
  -27.2309  -37.1338   25.8856 H   0  0  0  0  0  0
  -20.9498  -29.8654   21.6789 H   0  0  0  0  0  0
  -26.0121  -38.2809   24.1468 H   0  0  0  0  0  0
  -31.8724  -19.0071   21.1936 H   0  0  0  0  0  0
  -32.4161  -17.3703   20.9192 H   0  0  0  0  0  0
  -31.4232  -17.7457   22.3254 H   0  0  0  0  0  0
  -27.4116  -23.6744   22.3975 H   0  0  0  0  0  0
  -27.0015  -25.3797   22.3302 H   0  0  0  0  0  0
  -28.6793  -24.8860   22.5512 H   0  0  0  0  0  0
  -28.9550  -18.9803   21.7215 H   0  0  0  0  0  0
  -28.3091  -18.7259   20.1378 H   0  0  0  0  0  0
  -27.6433  -21.4311   20.5152 H   0  0  0  0  0  0
  -28.7596  -21.7692   21.7937 H   0  0  0  0  0  0
  -30.5987  -17.7372   19.3886 H   0  0  0  0  0  0
  -26.9791  -24.3953   20.1026 H   0  0  0  0  0  0
  -29.9467  -23.5534   20.3098 H   0  0  0  0  0  0
  -28.9353  -16.0016   20.8925 H   0  0  0  0  0  0
  -29.6336  -20.5141   19.2792 H   0  0  0  0  0  0
  -30.4971  -20.6693   20.6294 H   0  0  0  0  0  0
  -28.6860  -24.0140   18.3514 H   0  0  0  0  0  0
  1 25  1  0  0  0
  1 30  2  0  0  0
  1 78  1  0  0  0
  2  3  1  0  0  0
  2 25  1  0  0  0
  2 81  1  0  0  0
  2 82  1  0  0  0
  3  4  1  0  0  0
  3 83  1  0  0  0
  3 84  1  0  0  0
  4  5  1  0  0  0
  4 85  1  0  0  0
  4 86  1  0  0  0
  5  6  1  0  0  0
  5 26  1  0  0  0
  5 87  1  0  0  0
  6 25  1  0  0  0
  6 88  1  0  0  0
  6 89  1  0  0  0
  7  8  2  0  0  0
  7 26  1  0  0  0
  7 29  1  0  0  0
  8  9  1  0  0  0
  8 22  1  0  0  0
  9 10  1  0  0  0
  9 27  2  0  0  0
 10 11  2  0  0  0
 10 15  1  0  0  0
 11 12  1  0  0  0
 11 90  1  0  0  0
 12 13  2  0  0  0
 12 91  1  0  0  0
 13 14  1  0  0  0
 13 31  1  0  0  0
 14 15  2  0  0  0
 14 92  1  0  0  0
 15 93  1  0  0  0
 16 17  2  0  0  0
 16 21  1  0  0  0
 16 31  1  0  0  0
 17 18  1  0  0  0
 17 94  1  0  0  0
 18 19  2  0  0  0
 18 95  1  0  0  0
 19 20  1  0  0  0
 19 24  1  0  0  0
 20 21  2  0  0  0
 20 96  1  0  0  0
 21 23  1  0  0  0
 22 28  1  0  0  0
 22 32  2  0  0  0
 26 27  1  0  0  0
 28 97  1  0  0  0
 28 98  1  0  0  0
 29 99  1  0  0  0
 29100  1  0  0  0
 33 34  1  0  0  0
 33 66  1  0  0  0
 33 70  2  0  0  0
 34 36  1  0  0  0
 34 59  1  0  0  0
 34101  1  0  0  0
 35 44  2  0  0  0
 35 45  1  0  0  0
 35 68  1  0  0  0
 36 56  1  0  0  0
 36102  1  0  0  0
 37 39  1  0  0  0
 37 47  1  0  0  0
 37 66  1  0  0  0
 37103  1  0  0  0
 38 43  2  0  0  0
 38 46  1  0  0  0
 38 47  1  0  0  0
 39 64  1  0  0  0
 39 67  2  0  0  0
 40 52  1  0  0  0
 40 53  2  0  0  0
 40 58  1  0  0  0
 41104  1  0  0  0
 41105  1  0  0  0
 41106  1  0  0  0
 41 48  1  0  0  0
 42 43  1  0  0  0
 42 66  1  0  0  0
 42107  1  0  0  0
 42108  1  0  0  0
 43 44  1  0  0  0
 44109  1  0  0  0
 45 46  2  0  0  0
 45110  1  0  0  0
 46111  1  0  0  0
 47112  1  0  0  0
 47113  1  0  0  0
 48 56  1  0  0  0
 48 65  1  0  0  0
 48114  1  0  0  0
 49 50  1  0  0  0
 49 53  1  0  0  0
 49 64  1  0  0  0
 49115  1  0  0  0
 50 51  1  0  0  0
 50116  1  0  0  0
 50117  1  0  0  0
 51 52  1  0  0  0
 51118  1  0  0  0
 51119  1  0  0  0
 52120  1  0  0  0
 52121  1  0  0  0
 53 54  1  0  0  0
 54 55  2  0  0  0
 54122  1  0  0  0
 55 57  1  0  0  0
 55123  1  0  0  0
 56 69  2  0  0  0
 57 58  2  0  0  0
 57124  1  0  0  0
 58125  1  0  0  0
 59 60  1  0  0  0
 59 61  1  0  0  0
 59 62  1  0  0  0
 60126  1  0  0  0
 60127  1  0  0  0
 60128  1  0  0  0
 61129  1  0  0  0
 61130  1  0  0  0
 61131  1  0  0  0
 62132  1  0  0  0
 62133  1  0  0  0
 62134  1  0  0  0
 63 65  1  0  0  0
 63135  1  0  0  0
 63136  1  0  0  0
 63137  1  0  0  0
 64138  1  0  0  0
 65139  1  0  0  0
 68 76  1  0  0  0
 71140  1  0  0  0
 71141  1  0  0  0
 71142  1  0  0  0
 71 75  1  0  0  0
 72143  1  0  0  0
 72144  1  0  0  0
 72145  1  0  0  0
 72 76  1  0  0  0
 73 75  1  0  0  0
 73 79  1  0  0  0
 73146  1  0  0  0
 73147  1  0  0  0
 74 77  1  0  0  0
 74 79  1  0  0  0
 74148  1  0  0  0
 74149  1  0  0  0
 75 78  1  0  0  0
 75150  1  0  0  0
 76 77  1  0  0  0
 76151  1  0  0  0
 77 80  1  0  0  0
 77152  1  0  0  0
 78153  1  0  0  0
 79154  1  0  0  0
 79155  1  0  0  0
 80156  1  0  0  0
M  CHG  1  79   1
M  ISO  4   1 100  68 101  76 101  78 100
M  END
> <chiral flag>
0

> <version>
0

> <s_m_source_file>
/data/baiqing/PycharmProjects/Reinvent-master-3.2/result/LINK_invent/BTK/process_docking_weight1_custom_sum_contain_oxygen_bond_distance_aromatic_linkinvent_7_9_3/rearranged_h_0116.sdf

> <i_m_source_file_index>
59

> <r_mmod_Potential_Energy-OPLS-2005>
226.548309326172

> <r_mmod_Stretch_Energy-OPLS-2005>
272.009155273438

> <r_mmod_Bend_Energy-OPLS-2005>
250.952301025391

> <r_mmod_Torsional_Energy-OPLS-2005>
232.267929077148

> <r_mmod_Improper_Torsional_Energy-OPLS-2005>
4.04471254348755

> <r_mmod_Van_der_Waal_Energy-OPLS-2005>
112.663963317871

> <r_mmod_Electrostatic_Energy-OPLS-2005>
-346.90869140625

> <r_mmod_Solvation_Energy-OPLS-2005>
-485.834045410156

> <b_mmod_Minimization_Converged-OPLS-2005>
0

> <r_mmod_RMS_Derivative-OPLS-2005>
5.2309947013855

$$$$
60
                    3D
 Structure written by MMmdl.
161169  0  0  1  0            999 V2000
  -30.7427  -14.4701   20.5449 C   0  0  0  0  0  0
  -30.3997  -12.2957   19.4411 C   0  0  0  0  0  0
  -29.4905  -12.4981   18.2142 C   0  0  0  0  0  0
  -28.0109  -12.3725   18.6179 C   0  0  0  0  0  0
  -27.6545  -13.2196   19.8694 C   0  0  2  0  0  0
  -28.6952  -13.0415   20.9982 C   0  0  0  0  0  0
  -25.2534  -13.8201   20.5667 C   0  0  0  0  0  0
  -24.1806  -13.0453   20.9185 C   0  0  0  0  0  0
  -24.6376  -11.6924   20.8724 C   0  0  0  0  0  0
  -23.9054  -10.4296   21.0394 C   0  0  0  0  0  0
  -24.3602   -9.4217   21.9177 C   0  0  0  0  0  0
  -23.6287   -8.2251   22.0747 C   0  0  0  0  0  0
  -22.4277   -8.0275   21.3532 C   0  0  0  0  0  0
  -21.9910   -9.0243   20.4630 C   0  0  0  0  0  0
  -22.7229  -10.2131   20.3041 C   0  0  0  0  0  0
  -21.6857   -6.0732   22.5277 C   0  0  0  0  0  0
  -21.4012   -6.5633   23.8207 C   0  0  0  0  0  0
  -21.3663   -5.6787   24.9166 C   0  0  0  0  0  0
  -21.6050   -4.3053   24.7224 C   0  0  0  0  0  0
  -21.8820   -3.8142   23.4346 C   0  0  0  0  0  0
  -21.9194   -4.6960   22.3401 C   0  0  0  0  0  0
  -22.7823  -13.5232   21.1851 C   0  0  0  0  0  0
  -22.1660   -4.2136   21.0984 F   0  0  0  0  0  0
  -21.5636   -3.4540   25.7742 F   0  0  0  0  0  0
  -30.0272  -13.3146   20.4379 N   0  0  0  0  0  0
  -26.2974  -12.9384   20.3336 N   0  0  0  0  0  0
  -25.9307  -11.6533   20.5757 N   0  0  0  0  0  0
  -22.0479  -12.8200   22.0404 N   0  0  0  0  0  0
  -25.4270  -15.1912   20.4044 N   0  0  0  0  0  0
  -31.8803  -14.5520   20.0713 O   0  0  0  0  0  0
  -21.6641   -6.8871   21.4237 O   0  0  0  0  0  0
  -22.3500  -14.5552   20.6729 O   0  0  0  0  0  0
  -24.6157  -31.8665   23.2085 C   0  0  0  0  0  0
  -25.9050  -32.4810   23.8376 C   0  0  1  0  0  0
  -27.2295  -27.4285   20.1080 C   0  0  0  0  0  0
  -25.5898  -33.8606   24.2298 N   0  0  0  0  0  0
  -23.4029  -30.4903   21.5484 C   0  0  2  0  0  0
  -24.8514  -28.9571   20.1101 C   0  0  0  0  0  0
  -22.7409  -29.4660   22.4977 C   0  0  0  0  0  0
  -18.0269  -28.1387   22.8482 C   0  0  0  0  0  0
  -24.1486  -36.7296   23.2647 C   0  0  0  0  0  0
  -25.9305  -30.8364   21.3565 C   0  0  0  0  0  0
  -26.0117  -29.4702   20.7039 C   0  0  0  0  0  0
  -27.2086  -28.7144   20.6951 C   0  0  0  0  0  0
  -26.0588  -26.9337   19.4976 C   0  0  0  0  0  0
  -24.8706  -27.6899   19.5012 C   0  0  0  0  0  0
  -23.6100  -29.8213   20.1639 C   0  0  0  0  0  0
  -25.4102  -36.3093   24.0348 C   0  0  1  0  0  0
  -20.5864  -28.3666   23.1307 C   0  0  2  0  0  0
  -20.6755  -26.9410   22.5417 C   0  0  0  0  0  0
  -19.5725  -26.6384   21.5226 C   0  0  0  0  0  0
  -18.1894  -26.7927   22.1624 C   0  0  0  0  0  0
  -19.1529  -28.8838   23.2872 C   0  0  0  0  0  0
  -18.9472  -30.1439   23.8890 C   0  0  0  0  0  0
  -17.6481  -30.6586   24.0564 C   0  0  0  0  0  0
  -25.9042  -34.9469   23.5118 C   0  0  0  0  0  0
  -16.5363  -29.9094   23.6337 C   0  0  0  0  0  0
  -16.7264  -28.6515   23.0353 C   0  0  0  0  0  0
  -26.4463  -31.6599   25.0718 C   0  0  0  0  0  0
  -25.3723  -31.3699   26.1461 C   0  0  0  0  0  0
  -27.0330  -30.3057   24.6087 C   0  0  0  0  0  0
  -27.6024  -32.4332   25.7483 C   0  0  0  0  0  0
  -27.5561  -37.1783   24.8474 C   0  0  0  0  0  0
  -21.4142  -29.3038   22.3717 N   0  0  0  0  0  0
  -26.4285  -37.3782   23.9424 N   0  0  0  0  0  0
  -24.6678  -31.0770   22.0980 N   0  0  0  0  0  0
  -23.4184  -28.8230   23.3045 O   0  0  0  0  0  0
  -28.3650  -26.6490   20.1331 O   0  0  0  0  0  0
  -26.5621  -34.8918   22.4685 O   0  0  0  0  0  0
  -23.5344  -32.1439   23.7476 O   0  0  0  0  0  0
  -31.3688  -19.5711   21.2079 C   0  0  0  0  0  0
  -29.5972  -17.9339   21.2525 C   0  0  0  0  0  0
  -32.2677  -18.5133   21.0424 C   0  0  0  0  0  0
  -29.9885  -19.3039   21.3178 C   0  0  0  0  0  0
  -30.5614  -16.9067   21.0905 C   0  0  0  0  0  0
  -27.5378  -20.0174   21.4992 C   0  0  0  0  0  0
  -29.2754  -20.8449   23.1137 C   0  0  0  0  0  0
  -28.7524  -24.1745   20.2912 C   0  0  0  0  0  0
  -29.2431  -21.7154   20.7007 C   0  0  0  0  0  0
  -28.2609  -25.4801   20.9771 C   0  0  0  0  0  0
  -29.0127  -20.4685   21.6385 C   0  0  0  0  0  0
  -31.8750  -17.2276   21.0018 N   0  0  0  0  0  0
  -30.0963  -15.5490   21.0446 N   0  0  0  0  0  0
  -28.5083  -22.9474   21.1162 N   0  3  0  0  0  0
  -31.4489  -12.3488   19.1469 H   0  0  0  0  0  0
  -30.2635  -11.2972   19.8580 H   0  0  0  0  0  0
  -29.7300  -11.7659   17.4421 H   0  0  0  0  0  0
  -29.6712  -13.4808   17.7736 H   0  0  0  0  0  0
  -27.8089  -11.3178   18.8108 H   0  0  0  0  0  0
  -27.3703  -12.6539   17.7813 H   0  0  0  0  0  0
  -27.6870  -14.2635   19.5547 H   0  0  0  0  0  0
  -28.6618  -12.0228   21.3868 H   0  0  0  0  0  0
  -28.4606  -13.6878   21.8452 H   0  0  0  0  0  0
  -25.2747   -9.5703   22.4747 H   0  0  0  0  0  0
  -24.0001   -7.4646   22.7457 H   0  0  0  0  0  0
  -21.0855   -8.8748   19.8918 H   0  0  0  0  0  0
  -22.3688  -10.9656   19.6137 H   0  0  0  0  0  0
  -21.1999   -7.6138   23.9706 H   0  0  0  0  0  0
  -21.1486   -6.0517   25.9069 H   0  0  0  0  0  0
  -22.0598   -2.7599   23.2854 H   0  0  0  0  0  0
  -22.4104  -11.9839   22.4749 H   0  0  0  0  0  0
  -21.1089  -13.1176   22.2618 H   0  0  0  0  0  0
  -24.6605  -15.8487   20.4921 H   0  0  0  0  0  0
  -26.2772  -15.6197   20.0625 H   0  0  0  0  0  0
  -26.7131  -32.5544   23.1150 H   0  0  0  0  0  0
  -25.0032  -33.9764   25.0425 H   0  0  0  0  0  0
  -22.6922  -31.3068   21.4047 H   0  0  0  0  0  0
  -23.3749  -35.9635   23.3340 H   0  0  0  0  0  0
  -24.3570  -36.8905   22.2058 H   0  0  0  0  0  0
  -23.7252  -37.6516   23.6660 H   0  0  0  0  0  0
  -26.0375  -31.6033   20.5869 H   0  0  0  0  0  0
  -26.8180  -30.8906   21.9751 H   0  0  0  0  0  0
  -28.1004  -29.1042   21.1626 H   0  0  0  0  0  0
  -26.0603  -25.9582   19.0331 H   0  0  0  0  0  0
  -23.9808  -27.2893   19.0376 H   0  0  0  0  0  0
  -23.7120  -30.5928   19.4007 H   0  0  0  0  0  0
  -22.7343  -29.2387   19.8730 H   0  0  0  0  0  0
  -25.1264  -36.1939   25.0842 H   0  0  0  0  0  0
  -20.9922  -28.3253   24.1440 H   0  0  0  0  0  0
  -20.5685  -26.2277   23.3614 H   0  0  0  0  0  0
  -21.6601  -26.7452   22.1179 H   0  0  0  0  0  0
  -19.6896  -25.6310   21.1233 H   0  0  0  0  0  0
  -19.6673  -27.3196   20.6773 H   0  0  0  0  0  0
  -17.4166  -26.6722   21.4017 H   0  0  0  0  0  0
  -18.0251  -26.0071   22.9013 H   0  0  0  0  0  0
  -19.7971  -30.7231   24.2257 H   0  0  0  0  0  0
  -17.5065  -31.6278   24.5162 H   0  0  0  0  0  0
  -15.5365  -30.2999   23.7683 H   0  0  0  0  0  0
  -15.8663  -28.0837   22.7076 H   0  0  0  0  0  0
  -24.5925  -30.7008   25.7807 H   0  0  0  0  0  0
  -24.8859  -32.2855   26.4854 H   0  0  0  0  0  0
  -25.8056  -30.8928   27.0256 H   0  0  0  0  0  0
  -26.2884  -29.6766   24.1207 H   0  0  0  0  0  0
  -27.4218  -29.7335   25.4521 H   0  0  0  0  0  0
  -27.8650  -30.4417   23.9170 H   0  0  0  0  0  0
  -27.2654  -33.3657   26.2014 H   0  0  0  0  0  0
  -28.3852  -32.6850   25.0319 H   0  0  0  0  0  0
  -28.0675  -31.8491   26.5441 H   0  0  0  0  0  0
  -28.2566  -38.0083   24.7497 H   0  0  0  0  0  0
  -28.1057  -36.2606   24.6313 H   0  0  0  0  0  0
  -27.2274  -37.1448   25.8877 H   0  0  0  0  0  0
  -20.9326  -29.8789   21.6951 H   0  0  0  0  0  0
  -26.0172  -38.2863   24.1426 H   0  0  0  0  0  0
  -31.7767  -20.5678   21.2882 H   0  0  0  0  0  0
  -28.5594  -17.6523   21.3447 H   0  0  0  0  0  0
  -33.3286  -18.7012   20.9701 H   0  0  0  0  0  0
  -27.2878  -19.2141   22.1926 H   0  0  0  0  0  0
  -27.3213  -19.6637   20.4910 H   0  0  0  0  0  0
  -26.8384  -20.8241   21.7163 H   0  0  0  0  0  0
  -29.1681  -19.9701   23.7585 H   0  0  0  0  0  0
  -28.5807  -21.5963   23.4895 H   0  0  0  0  0  0
  -30.2896  -21.2227   23.2565 H   0  0  0  0  0  0
  -29.8185  -24.2694   20.0835 H   0  0  0  0  0  0
  -28.2535  -24.0574   19.3289 H   0  0  0  0  0  0
  -28.9698  -21.4572   19.6761 H   0  0  0  0  0  0
  -30.2967  -21.9863   20.6682 H   0  0  0  0  0  0
  -28.8637  -25.6693   21.8681 H   0  0  0  0  0  0
  -27.2406  -25.3387   21.3429 H   0  0  0  0  0  0
  -29.1464  -15.3929   21.3401 H   0  0  0  0  0  0
  -27.5203  -22.7432   21.1247 H   0  0  0  0  0  0
  -28.7838  -23.1477   22.0658 H   0  0  0  0  0  0
  1 25  1  0  0  0
  1 30  2  0  0  0
  1 83  1  0  0  0
  2  3  1  0  0  0
  2 25  1  0  0  0
  2 85  1  0  0  0
  2 86  1  0  0  0
  3  4  1  0  0  0
  3 87  1  0  0  0
  3 88  1  0  0  0
  4  5  1  0  0  0
  4 89  1  0  0  0
  4 90  1  0  0  0
  5  6  1  0  0  0
  5 26  1  0  0  0
  5 91  1  0  0  0
  6 25  1  0  0  0
  6 92  1  0  0  0
  6 93  1  0  0  0
  7  8  2  0  0  0
  7 26  1  0  0  0
  7 29  1  0  0  0
  8  9  1  0  0  0
  8 22  1  0  0  0
  9 10  1  0  0  0
  9 27  2  0  0  0
 10 11  2  0  0  0
 10 15  1  0  0  0
 11 12  1  0  0  0
 11 94  1  0  0  0
 12 13  2  0  0  0
 12 95  1  0  0  0
 13 14  1  0  0  0
 13 31  1  0  0  0
 14 15  2  0  0  0
 14 96  1  0  0  0
 15 97  1  0  0  0
 16 17  2  0  0  0
 16 21  1  0  0  0
 16 31  1  0  0  0
 17 18  1  0  0  0
 17 98  1  0  0  0
 18 19  2  0  0  0
 18 99  1  0  0  0
 19 20  1  0  0  0
 19 24  1  0  0  0
 20 21  2  0  0  0
 20100  1  0  0  0
 21 23  1  0  0  0
 22 28  1  0  0  0
 22 32  2  0  0  0
 26 27  1  0  0  0
 28101  1  0  0  0
 28102  1  0  0  0
 29103  1  0  0  0
 29104  1  0  0  0
 33 34  1  0  0  0
 33 66  1  0  0  0
 33 70  2  0  0  0
 34 36  1  0  0  0
 34 59  1  0  0  0
 34105  1  0  0  0
 35 44  2  0  0  0
 35 45  1  0  0  0
 35 68  1  0  0  0
 36 56  1  0  0  0
 36106  1  0  0  0
 37 39  1  0  0  0
 37 47  1  0  0  0
 37 66  1  0  0  0
 37107  1  0  0  0
 38 43  2  0  0  0
 38 46  1  0  0  0
 38 47  1  0  0  0
 39 64  1  0  0  0
 39 67  2  0  0  0
 40 52  1  0  0  0
 40 53  2  0  0  0
 40 58  1  0  0  0
 41108  1  0  0  0
 41109  1  0  0  0
 41110  1  0  0  0
 41 48  1  0  0  0
 42 43  1  0  0  0
 42 66  1  0  0  0
 42111  1  0  0  0
 42112  1  0  0  0
 43 44  1  0  0  0
 44113  1  0  0  0
 45 46  2  0  0  0
 45114  1  0  0  0
 46115  1  0  0  0
 47116  1  0  0  0
 47117  1  0  0  0
 48 56  1  0  0  0
 48 65  1  0  0  0
 48118  1  0  0  0
 49 50  1  0  0  0
 49 53  1  0  0  0
 49 64  1  0  0  0
 49119  1  0  0  0
 50 51  1  0  0  0
 50120  1  0  0  0
 50121  1  0  0  0
 51 52  1  0  0  0
 51122  1  0  0  0
 51123  1  0  0  0
 52124  1  0  0  0
 52125  1  0  0  0
 53 54  1  0  0  0
 54 55  2  0  0  0
 54126  1  0  0  0
 55 57  1  0  0  0
 55127  1  0  0  0
 56 69  2  0  0  0
 57 58  2  0  0  0
 57128  1  0  0  0
 58129  1  0  0  0
 59 60  1  0  0  0
 59 61  1  0  0  0
 59 62  1  0  0  0
 60130  1  0  0  0
 60131  1  0  0  0
 60132  1  0  0  0
 61133  1  0  0  0
 61134  1  0  0  0
 61135  1  0  0  0
 62136  1  0  0  0
 62137  1  0  0  0
 62138  1  0  0  0
 63 65  1  0  0  0
 63139  1  0  0  0
 63140  1  0  0  0
 63141  1  0  0  0
 64142  1  0  0  0
 65143  1  0  0  0
 68 80  1  0  0  0
 71 73  2  0  0  0
 71 74  1  0  0  0
 71144  1  0  0  0
 72 74  2  0  0  0
 72 75  1  0  0  0
 72145  1  0  0  0
 73 82  1  0  0  0
 73146  1  0  0  0
 74 81  1  0  0  0
 75 82  2  0  0  0
 75 83  1  0  0  0
 76147  1  0  0  0
 76148  1  0  0  0
 76149  1  0  0  0
 76 81  1  0  0  0
 77 81  1  0  0  0
 77150  1  0  0  0
 77151  1  0  0  0
 77152  1  0  0  0
 78 80  1  0  0  0
 78 84  1  0  0  0
 78153  1  0  0  0
 78154  1  0  0  0
 79 81  1  0  0  0
 79 84  1  0  0  0
 79155  1  0  0  0
 79156  1  0  0  0
 80157  1  0  0  0
 80158  1  0  0  0
 83159  1  0  0  0
 84160  1  0  0  0
 84161  1  0  0  0
M  CHG  1  84   1
M  ISO  4   1 100  68 101  80 101  83 100
M  END
> <chiral flag>
0

> <version>
0

> <s_m_source_file>
/data/baiqing/PycharmProjects/Reinvent-master-3.2/result/LINK_invent/BTK/process_docking_weight1_custom_sum_contain_oxygen_bond_distance_aromatic_linkinvent_7_9_3/rearranged_h_0116.sdf

> <i_m_source_file_index>
60

> <r_mmod_Potential_Energy-OPLS-2005>
-320.511596679688

> <r_mmod_Stretch_Energy-OPLS-2005>
44.7627487182617

> <r_mmod_Bend_Energy-OPLS-2005>
103.126960754395

> <r_mmod_Torsional_Energy-OPLS-2005>
241.058609008789

> <r_mmod_Improper_Torsional_Energy-OPLS-2005>
4.0217137336731

> <r_mmod_Van_der_Waal_Energy-OPLS-2005>
164.682678222656

> <r_mmod_Electrostatic_Energy-OPLS-2005>
-399.912994384766

> <r_mmod_Solvation_Energy-OPLS-2005>
-495.594207763672

> <b_mmod_Minimization_Converged-OPLS-2005>
0

> <r_mmod_RMS_Derivative-OPLS-2005>
2.90787410736084

$$$$
61
                    3D
 Structure written by MMmdl.
165174  0  0  1  0            999 V2000
  -30.6486  -14.7271   20.4291 C   0  0  0  0  0  0
  -30.4240  -12.4370   19.4639 C   0  0  0  0  0  0
  -29.5023  -12.4975   18.2284 C   0  0  0  0  0  0
  -28.0322  -12.3218   18.6507 C   0  0  0  0  0  0
  -27.6411  -13.2313   19.8458 C   0  0  2  0  0  0
  -28.6919  -13.1859   20.9782 C   0  0  0  0  0  0
  -25.2528  -13.8194   20.5704 C   0  0  0  0  0  0
  -24.1819  -13.0440   20.9197 C   0  0  0  0  0  0
  -24.6405  -11.6917   20.8743 C   0  0  0  0  0  0
  -23.9067  -10.4289   21.0390 C   0  0  0  0  0  0
  -24.3611   -9.4210   21.9171 C   0  0  0  0  0  0
  -23.6282   -8.2244   22.0753 C   0  0  0  0  0  0
  -22.4272   -8.0279   21.3541 C   0  0  0  0  0  0
  -21.9904   -9.0250   20.4641 C   0  0  0  0  0  0
  -22.7233  -10.2130   20.3044 C   0  0  0  0  0  0
  -21.6858   -6.0726   22.5264 C   0  0  0  0  0  0
  -21.4018   -6.5631   23.8201 C   0  0  0  0  0  0
  -21.3654   -5.6791   24.9162 C   0  0  0  0  0  0
  -21.6050   -4.3052   24.7218 C   0  0  0  0  0  0
  -21.8822   -3.8141   23.4337 C   0  0  0  0  0  0
  -21.9198   -4.6950   22.3395 C   0  0  0  0  0  0
  -22.7843  -13.5231   21.1839 C   0  0  0  0  0  0
  -22.1667   -4.2133   21.0968 F   0  0  0  0  0  0
  -21.5624   -3.4532   25.7726 F   0  0  0  0  0  0
  -29.9925  -13.5167   20.3824 N   0  0  0  0  0  0
  -26.2953  -12.9404   20.3292 N   0  0  0  0  0  0
  -25.9340  -11.6547   20.5756 N   0  0  0  0  0  0
  -22.0487  -12.8219   22.0387 N   0  0  0  0  0  0
  -25.4226  -15.1921   20.4119 N   0  0  0  0  0  0
  -31.8505  -14.7555   20.1494 O   0  0  0  0  0  0
  -21.6648   -6.8866   21.4233 O   0  0  0  0  0  0
  -22.3524  -14.5532   20.6680 O   0  0  0  0  0  0
  -24.6349  -31.8526   23.1959 C   0  0  0  0  0  0
  -25.9167  -32.4736   23.8303 C   0  0  1  0  0  0
  -27.2314  -27.2599   20.1291 C   0  0  0  0  0  0
  -25.5964  -33.8540   24.2235 N   0  0  0  0  0  0
  -23.4307  -30.4689   21.5425 C   0  0  2  0  0  0
  -24.8759  -28.9004   20.1247 C   0  0  0  0  0  0
  -22.7523  -29.4550   22.4955 C   0  0  0  0  0  0
  -18.0289  -28.1370   22.8467 C   0  0  0  0  0  0
  -24.1489  -36.7259   23.2640 C   0  0  0  0  0  0
  -25.9744  -30.7635   21.3731 C   0  0  0  0  0  0
  -26.0492  -29.3820   20.7213 C   0  0  0  0  0  0
  -27.2322  -28.5773   20.7015 C   0  0  0  0  0  0
  -26.0296  -26.8261   19.5342 C   0  0  0  0  0  0
  -24.8697  -27.6288   19.5242 C   0  0  0  0  0  0
  -23.6503  -29.7930   20.1619 C   0  0  0  0  0  0
  -25.4116  -36.3061   24.0319 C   0  0  1  0  0  0
  -20.5885  -28.3675   23.1272 C   0  0  2  0  0  0
  -20.6792  -26.9394   22.5405 C   0  0  0  0  0  0
  -19.5775  -26.6364   21.5195 C   0  0  0  0  0  0
  -18.1940  -26.7909   22.1588 C   0  0  0  0  0  0
  -19.1540  -28.8847   23.2854 C   0  0  0  0  0  0
  -18.9464  -30.1451   23.8877 C   0  0  0  0  0  0
  -17.6469  -30.6593   24.0531 C   0  0  0  0  0  0
  -25.9057  -34.9434   23.5073 C   0  0  0  0  0  0
  -16.5351  -29.9081   23.6314 C   0  0  0  0  0  0
  -16.7269  -28.6489   23.0341 C   0  0  0  0  0  0
  -26.4531  -31.6581   25.0705 C   0  0  0  0  0  0
  -25.3736  -31.3708   26.1414 C   0  0  0  0  0  0
  -27.0399  -30.3019   24.6168 C   0  0  0  0  0  0
  -27.6068  -32.4341   25.7496 C   0  0  0  0  0  0
  -27.5575  -37.1807   24.8469 C   0  0  0  0  0  0
  -21.4232  -29.3007   22.3688 N   0  0  0  0  0  0
  -26.4292  -37.3763   23.9402 N   0  0  0  0  0  0
  -24.6994  -31.0462   22.0940 N   0  0  0  0  0  0
  -23.4221  -28.8080   23.3048 O   0  0  0  0  0  0
  -28.3710  -26.4325   20.0554 O   0  0  0  0  0  0
  -26.5631  -34.8925   22.4647 O   0  0  0  0  0  0
  -23.5503  -32.1318   23.7282 O   0  0  0  0  0  0
  -29.3318  -18.4021   20.3607 C   0  0  0  0  0  0
  -29.7195  -19.8018   20.3032 C   0  0  0  0  0  0
  -31.1054  -20.0636   20.4123 C   0  0  0  0  0  0
  -32.0012  -18.9645   20.5153 C   0  0  0  0  0  0
  -30.2892  -17.3216   20.4788 C   0  0  0  0  0  0
  -31.5805  -21.5219   20.4653 C   0  0  0  0  0  0
  -28.7186  -21.0220   20.0860 C   0  0  0  0  0  0
  -30.6377  -22.5400   19.7902 C   0  0  0  0  0  0
  -34.0277  -18.8172   22.0509 C   0  0  0  0  0  0
  -28.5106  -23.9235   18.2940 C   0  0  0  0  0  0
  -33.5186  -19.1056   20.6322 C   0  0  0  0  0  0
  -28.4240  -25.0508   20.6466 C   0  0  0  0  0  0
  -28.3531  -23.6540   19.8065 C   0  0  2  0  0  0
  -31.5909  -17.6757   20.5398 N   0  0  0  0  0  0
  -29.8946  -15.8924   20.5486 N   0  0  0  0  0  0
  -29.2377  -22.4571   20.2812 N   0  3  1  0  0  0
  -31.4665  -12.5376   19.1581 H   0  0  0  0  0  0
  -30.3506  -11.4652   19.9551 H   0  0  0  0  0  0
  -29.7794  -11.7282   17.5073 H   0  0  0  0  0  0
  -29.6284  -13.4536   17.7190 H   0  0  0  0  0  0
  -27.8950  -11.2745   18.9252 H   0  0  0  0  0  0
  -27.3693  -12.4996   17.8043 H   0  0  0  0  0  0
  -27.6279  -14.2464   19.4501 H   0  0  0  0  0  0
  -28.7251  -12.2000   21.4447 H   0  0  0  0  0  0
  -28.4381  -13.8921   21.7707 H   0  0  0  0  0  0
  -25.2747   -9.5695   22.4747 H   0  0  0  0  0  0
  -23.9985   -7.4653   22.7494 H   0  0  0  0  0  0
  -21.0826   -8.8769   19.8956 H   0  0  0  0  0  0
  -22.3676  -10.9666   19.6154 H   0  0  0  0  0  0
  -21.2018   -7.6137   23.9691 H   0  0  0  0  0  0
  -21.1475   -6.0518   25.9061 H   0  0  0  0  0  0
  -22.0610   -2.7595   23.2842 H   0  0  0  0  0  0
  -22.4105  -11.9880   22.4771 H   0  0  0  0  0  0
  -21.1113  -13.1253   22.2592 H   0  0  0  0  0  0
  -24.6507  -15.8431   20.5101 H   0  0  0  0  0  0
  -26.2670  -15.6323   20.0706 H   0  0  0  0  0  0
  -26.7226  -32.5373   23.1037 H   0  0  0  0  0  0
  -25.0174  -33.9647   25.0430 H   0  0  0  0  0  0
  -22.7262  -31.2901   21.3956 H   0  0  0  0  0  0
  -23.3770  -35.9584   23.3302 H   0  0  0  0  0  0
  -24.3564  -36.8866   22.2054 H   0  0  0  0  0  0
  -23.7208  -37.6436   23.6662 H   0  0  0  0  0  0
  -26.1068  -31.5201   20.5983 H   0  0  0  0  0  0
  -26.8529  -30.8174   22.0037 H   0  0  0  0  0  0
  -28.1463  -28.9511   21.1441 H   0  0  0  0  0  0
  -25.9860  -25.8515   19.0695 H   0  0  0  0  0  0
  -23.9672  -27.2528   19.0602 H   0  0  0  0  0  0
  -23.7843  -30.5659   19.4035 H   0  0  0  0  0  0
  -22.7661  -29.2288   19.8588 H   0  0  0  0  0  0
  -25.1301  -36.1908   25.0806 H   0  0  0  0  0  0
  -20.9933  -28.3265   24.1410 H   0  0  0  0  0  0
  -20.5700  -26.2282   23.3618 H   0  0  0  0  0  0
  -21.6670  -26.7451   22.1193 H   0  0  0  0  0  0
  -19.6943  -25.6267   21.1253 H   0  0  0  0  0  0
  -19.6732  -27.3170   20.6722 H   0  0  0  0  0  0
  -17.4216  -26.6647   21.3980 H   0  0  0  0  0  0
  -18.0328  -26.0058   22.8988 H   0  0  0  0  0  0
  -19.7952  -30.7241   24.2269 H   0  0  0  0  0  0
  -17.5029  -31.6270   24.5152 H   0  0  0  0  0  0
  -15.5350  -30.2980   23.7671 H   0  0  0  0  0  0
  -15.8650  -28.0811   22.7070 H   0  0  0  0  0  0
  -24.5957  -30.6999   25.7733 H   0  0  0  0  0  0
  -24.8881  -32.2866   26.4798 H   0  0  0  0  0  0
  -25.8065  -30.8924   27.0209 H   0  0  0  0  0  0
  -26.2982  -29.6745   24.1214 H   0  0  0  0  0  0
  -27.4117  -29.7300   25.4673 H   0  0  0  0  0  0
  -27.8829  -30.4305   23.9379 H   0  0  0  0  0  0
  -27.2653  -33.3669   26.2011 H   0  0  0  0  0  0
  -28.3925  -32.6860   25.0349 H   0  0  0  0  0  0
  -28.0681  -31.8485   26.5456 H   0  0  0  0  0  0
  -28.2609  -38.0108   24.7529 H   0  0  0  0  0  0
  -28.1062  -36.2626   24.6298 H   0  0  0  0  0  0
  -27.2286  -37.1446   25.8879 H   0  0  0  0  0  0
  -20.9467  -29.8739   21.6874 H   0  0  0  0  0  0
  -26.0168  -38.2822   24.1440 H   0  0  0  0  0  0
  -28.2804  -18.1617   20.3030 H   0  0  0  0  0  0
  -32.5422  -21.6317   19.9692 H   0  0  0  0  0  0
  -31.7372  -21.7906   21.5112 H   0  0  0  0  0  0
  -27.8514  -20.8690   20.7272 H   0  0  0  0  0  0
  -28.3555  -20.9369   19.0613 H   0  0  0  0  0  0
  -30.6556  -22.3656   18.7129 H   0  0  0  0  0  0
  -31.0285  -23.5456   19.9484 H   0  0  0  0  0  0
  -35.1154  -18.8912   22.1006 H   0  0  0  0  0  0
  -33.7557  -17.8087   22.3626 H   0  0  0  0  0  0
  -33.6044  -19.5194   22.7699 H   0  0  0  0  0  0
  -27.7253  -24.5883   17.9315 H   0  0  0  0  0  0
  -28.4496  -23.0085   17.7029 H   0  0  0  0  0  0
  -29.4613  -24.4065   18.0650 H   0  0  0  0  0  0
  -33.8783  -20.0809   20.3158 H   0  0  0  0  0  0
  -33.9865  -18.4028   19.9392 H   0  0  0  0  0  0
  -29.3968  -25.0452   21.1411 H   0  0  0  0  0  0
  -27.7104  -24.9976   21.4697 H   0  0  0  0  0  0
  -27.3272  -23.3078   19.9359 H   0  0  0  0  0  0
  -28.9084  -15.7317   20.6615 H   0  0  0  0  0  0
  -29.3072  -22.5358   21.2849 H   0  0  0  0  0  0
  1 25  1  0  0  0
  1 30  2  0  0  0
  1 85  1  0  0  0
  2  3  1  0  0  0
  2 25  1  0  0  0
  2 87  1  0  0  0
  2 88  1  0  0  0
  3  4  1  0  0  0
  3 89  1  0  0  0
  3 90  1  0  0  0
  4  5  1  0  0  0
  4 91  1  0  0  0
  4 92  1  0  0  0
  5  6  1  0  0  0
  5 26  1  0  0  0
  5 93  1  0  0  0
  6 25  1  0  0  0
  6 94  1  0  0  0
  6 95  1  0  0  0
  7  8  2  0  0  0
  7 26  1  0  0  0
  7 29  1  0  0  0
  8  9  1  0  0  0
  8 22  1  0  0  0
  9 10  1  0  0  0
  9 27  2  0  0  0
 10 11  2  0  0  0
 10 15  1  0  0  0
 11 12  1  0  0  0
 11 96  1  0  0  0
 12 13  2  0  0  0
 12 97  1  0  0  0
 13 14  1  0  0  0
 13 31  1  0  0  0
 14 15  2  0  0  0
 14 98  1  0  0  0
 15 99  1  0  0  0
 16 17  2  0  0  0
 16 21  1  0  0  0
 16 31  1  0  0  0
 17 18  1  0  0  0
 17100  1  0  0  0
 18 19  2  0  0  0
 18101  1  0  0  0
 19 20  1  0  0  0
 19 24  1  0  0  0
 20 21  2  0  0  0
 20102  1  0  0  0
 21 23  1  0  0  0
 22 28  1  0  0  0
 22 32  2  0  0  0
 26 27  1  0  0  0
 28103  1  0  0  0
 28104  1  0  0  0
 29105  1  0  0  0
 29106  1  0  0  0
 33 34  1  0  0  0
 33 66  1  0  0  0
 33 70  2  0  0  0
 34 36  1  0  0  0
 34 59  1  0  0  0
 34107  1  0  0  0
 35 44  2  0  0  0
 35 45  1  0  0  0
 35 68  1  0  0  0
 36 56  1  0  0  0
 36108  1  0  0  0
 37 39  1  0  0  0
 37 47  1  0  0  0
 37 66  1  0  0  0
 37109  1  0  0  0
 38 43  2  0  0  0
 38 46  1  0  0  0
 38 47  1  0  0  0
 39 64  1  0  0  0
 39 67  2  0  0  0
 40 52  1  0  0  0
 40 53  2  0  0  0
 40 58  1  0  0  0
 41110  1  0  0  0
 41111  1  0  0  0
 41112  1  0  0  0
 41 48  1  0  0  0
 42 43  1  0  0  0
 42 66  1  0  0  0
 42113  1  0  0  0
 42114  1  0  0  0
 43 44  1  0  0  0
 44115  1  0  0  0
 45 46  2  0  0  0
 45116  1  0  0  0
 46117  1  0  0  0
 47118  1  0  0  0
 47119  1  0  0  0
 48 56  1  0  0  0
 48 65  1  0  0  0
 48120  1  0  0  0
 49 50  1  0  0  0
 49 53  1  0  0  0
 49 64  1  0  0  0
 49121  1  0  0  0
 50 51  1  0  0  0
 50122  1  0  0  0
 50123  1  0  0  0
 51 52  1  0  0  0
 51124  1  0  0  0
 51125  1  0  0  0
 52126  1  0  0  0
 52127  1  0  0  0
 53 54  1  0  0  0
 54 55  2  0  0  0
 54128  1  0  0  0
 55 57  1  0  0  0
 55129  1  0  0  0
 56 69  2  0  0  0
 57 58  2  0  0  0
 57130  1  0  0  0
 58131  1  0  0  0
 59 60  1  0  0  0
 59 61  1  0  0  0
 59 62  1  0  0  0
 60132  1  0  0  0
 60133  1  0  0  0
 60134  1  0  0  0
 61135  1  0  0  0
 61136  1  0  0  0
 61137  1  0  0  0
 62138  1  0  0  0
 62139  1  0  0  0
 62140  1  0  0  0
 63 65  1  0  0  0
 63141  1  0  0  0
 63142  1  0  0  0
 63143  1  0  0  0
 64144  1  0  0  0
 65145  1  0  0  0
 68 82  1  0  0  0
 71 72  2  0  0  0
 71 75  1  0  0  0
 71146  1  0  0  0
 72 73  1  0  0  0
 72 77  1  0  0  0
 73 74  2  0  0  0
 73 76  1  0  0  0
 74 81  1  0  0  0
 74 84  1  0  0  0
 75 84  2  0  0  0
 75 85  1  0  0  0
 76 78  1  0  0  0
 76147  1  0  0  0
 76148  1  0  0  0
 77149  1  0  0  0
 77150  1  0  0  0
 77 86  1  0  0  0
 78 86  1  0  0  0
 78151  1  0  0  0
 78152  1  0  0  0
 79 81  1  0  0  0
 79153  1  0  0  0
 79154  1  0  0  0
 79155  1  0  0  0
 80156  1  0  0  0
 80157  1  0  0  0
 80158  1  0  0  0
 80 83  1  0  0  0
 81159  1  0  0  0
 81160  1  0  0  0
 82 83  1  0  0  0
 82161  1  0  0  0
 82162  1  0  0  0
 83 86  1  0  0  0
 83163  1  0  0  0
 85164  1  0  0  0
 86165  1  0  0  0
M  CHG  1  86   1
M  ISO  4   1 100  68 101  82 101  85 100
M  END
> <chiral flag>
0

> <version>
0

> <s_m_source_file>
/data/baiqing/PycharmProjects/Reinvent-master-3.2/result/LINK_invent/BTK/process_docking_weight1_custom_sum_contain_oxygen_bond_distance_aromatic_linkinvent_7_9_3/rearranged_h_0116.sdf

> <i_m_source_file_index>
61

> <r_mmod_Potential_Energy-OPLS-2005>
-82.5204010009766

> <r_mmod_Stretch_Energy-OPLS-2005>
125.658233642578

> <r_mmod_Bend_Energy-OPLS-2005>
179.640716552734

> <r_mmod_Torsional_Energy-OPLS-2005>
254.216491699219

> <r_mmod_Improper_Torsional_Energy-OPLS-2005>
5.72427320480347

> <r_mmod_Van_der_Waal_Energy-OPLS-2005>
140.565994262695

> <r_mmod_Electrostatic_Energy-OPLS-2005>
-389.68994140625

> <r_mmod_Solvation_Energy-OPLS-2005>
-475.566131591797

> <b_mmod_Minimization_Converged-OPLS-2005>
0

> <r_mmod_RMS_Derivative-OPLS-2005>
2.78628349304199

$$$$
62
                    3D
 Structure written by MMmdl.
178187  0  0  1  0            999 V2000
  -30.6865  -14.6288   20.3588 C   0  0  0  0  0  0
  -30.4406  -12.3446   19.4503 C   0  0  0  0  0  0
  -29.5092  -12.3266   18.2201 C   0  0  0  0  0  0
  -28.0174  -12.3042   18.6294 C   0  0  0  0  0  0
  -27.6466  -13.2099   19.8412 C   0  0  2  0  0  0
  -28.7115  -13.1531   20.9554 C   0  0  0  0  0  0
  -25.2581  -13.8160   20.5751 C   0  0  0  0  0  0
  -24.1837  -13.0400   20.9219 C   0  0  0  0  0  0
  -24.6429  -11.6879   20.8799 C   0  0  0  0  0  0
  -23.9115  -10.4255   21.0442 C   0  0  0  0  0  0
  -24.3658   -9.4156   21.9205 C   0  0  0  0  0  0
  -23.6316   -8.2203   22.0757 C   0  0  0  0  0  0
  -22.4295   -8.0277   21.3542 C   0  0  0  0  0  0
  -21.9941   -9.0271   20.4653 C   0  0  0  0  0  0
  -22.7294  -10.2139   20.3090 C   0  0  0  0  0  0
  -21.6845   -6.0762   22.5292 C   0  0  0  0  0  0
  -21.4035   -6.5681   23.8229 C   0  0  0  0  0  0
  -21.3647   -5.6815   24.9181 C   0  0  0  0  0  0
  -21.6053   -4.3084   24.7209 C   0  0  0  0  0  0
  -21.8830   -3.8174   23.4329 C   0  0  0  0  0  0
  -21.9195   -4.6995   22.3392 C   0  0  0  0  0  0
  -22.7862  -13.5197   21.1813 C   0  0  0  0  0  0
  -22.1633   -4.2183   21.0959 F   0  0  0  0  0  0
  -21.5611   -3.4556   25.7709 F   0  0  0  0  0  0
  -30.0125  -13.4374   20.3354 N   0  0  0  0  0  0
  -26.3009  -12.9313   20.3357 N   0  0  0  0  0  0
  -25.9360  -11.6485   20.5862 N   0  0  0  0  0  0
  -22.0524  -12.8189   22.0394 N   0  0  0  0  0  0
  -25.4274  -15.1878   20.4191 N   0  0  0  0  0  0
  -31.9096  -14.6831   20.2444 O   0  0  0  0  0  0
  -21.6614   -6.8898   21.4258 O   0  0  0  0  0  0
  -22.3510  -14.5447   20.6596 O   0  0  0  0  0  0
  -24.6153  -31.8670   23.2093 C   0  0  0  0  0  0
  -25.9053  -32.4833   23.8373 C   0  0  1  0  0  0
  -27.2217  -27.3766   20.1161 C   0  0  0  0  0  0
  -25.5939  -33.8630   24.2301 N   0  0  0  0  0  0
  -23.4051  -30.4887   21.5542 C   0  0  2  0  0  0
  -24.8531  -28.9543   20.1101 C   0  0  0  0  0  0
  -22.7412  -29.4631   22.5021 C   0  0  0  0  0  0
  -18.0265  -28.1361   22.8483 C   0  0  0  0  0  0
  -24.1500  -36.7277   23.2648 C   0  0  0  0  0  0
  -25.9402  -30.8123   21.3769 C   0  0  0  0  0  0
  -26.0167  -29.4449   20.7183 C   0  0  0  0  0  0
  -27.2021  -28.6636   20.7183 C   0  0  0  0  0  0
  -26.0431  -26.9331   19.4691 C   0  0  0  0  0  0
  -24.8643  -27.7011   19.4794 C   0  0  0  0  0  0
  -23.6137  -29.8233   20.1683 C   0  0  0  0  0  0
  -25.4142  -36.3103   24.0322 C   0  0  1  0  0  0
  -20.5843  -28.3639   23.1351 C   0  0  2  0  0  0
  -20.6762  -26.9384   22.5432 C   0  0  0  0  0  0
  -19.5753  -26.6352   21.5228 C   0  0  0  0  0  0
  -18.1923  -26.7928   22.1588 C   0  0  0  0  0  0
  -19.1504  -28.8819   23.2910 C   0  0  0  0  0  0
  -18.9431  -30.1436   23.8907 C   0  0  0  0  0  0
  -17.6434  -30.6588   24.0542 C   0  0  0  0  0  0
  -25.9068  -34.9473   23.5086 C   0  0  0  0  0  0
  -16.5325  -29.9071   23.6337 C   0  0  0  0  0  0
  -16.7252  -28.6477   23.0370 C   0  0  0  0  0  0
  -26.4451  -31.6603   25.0719 C   0  0  0  0  0  0
  -25.3654  -31.3691   26.1410 C   0  0  0  0  0  0
  -27.0333  -30.3053   24.6115 C   0  0  0  0  0  0
  -27.5985  -32.4345   25.7535 C   0  0  0  0  0  0
  -27.5587  -37.1826   24.8484 C   0  0  0  0  0  0
  -21.4137  -29.3011   22.3755 N   0  0  0  0  0  0
  -26.4327  -37.3783   23.9385 N   0  0  0  0  0  0
  -24.6715  -31.0702   22.1050 N   0  0  0  0  0  0
  -23.4172  -28.8171   23.3067 O   0  0  0  0  0  0
  -28.3618  -26.5802   20.1878 O   0  0  0  0  0  0
  -26.5617  -34.8922   22.4633 O   0  0  0  0  0  0
  -23.5331  -32.1464   23.7439 O   0  0  0  0  0  0
  -29.9518  -20.8342   19.0143 C   0  0  0  0  0  0
  -29.3986  -20.2467   21.3778 C   0  0  0  0  0  0
  -30.0443  -22.3338   19.3750 C   0  0  0  0  0  0
  -29.5100  -21.7554   21.7277 C   0  0  0  0  0  0
  -29.4642  -15.9304   18.7241 C   0  0  0  0  0  0
  -30.2366  -17.1168   20.7197 C   0  0  0  0  0  0
  -30.4637  -16.7213   17.8423 C   0  0  0  0  0  0
  -30.2871  -19.8451   20.1794 C   0  0  1  0  0  0
  -29.1359  -22.7181   20.5612 C   0  0  1  0  0  0
  -30.1243  -18.3401   19.7117 C   0  0  1  0  0  0
  -29.0230  -24.5601   22.3892 C   0  0  0  0  0  0
  -32.6273  -18.8863   16.8963 C   0  0  0  0  0  0
  -33.3217  -17.3718   18.8293 C   0  0  0  0  0  0
  -28.2022  -25.1343   20.0551 C   0  0  0  0  0  0
  -29.2131  -24.2682   20.8856 C   0  0  2  0  0  0
  -32.3008  -18.4195   18.3277 C   0  0  0  0  0  0
  -29.9523  -15.7646   20.1102 N   0  0  0  0  0  0
  -30.8498  -18.0338   18.4359 N   0  3  1  0  0  0
  -31.4791  -12.4556   19.1304 H   0  0  0  0  0  0
  -30.3890  -11.3952   19.9848 H   0  0  0  0  0  0
  -29.7161  -11.4245   17.6397 H   0  0  0  0  0  0
  -29.7382  -13.1367   17.5327 H   0  0  0  0  0  0
  -27.7840  -11.2677   18.8834 H   0  0  0  0  0  0
  -27.3921  -12.5482   17.7688 H   0  0  0  0  0  0
  -27.6164  -14.2273   19.4655 H   0  0  0  0  0  0
  -28.7221  -12.1755   21.4406 H   0  0  0  0  0  0
  -28.4884  -13.8845   21.7354 H   0  0  0  0  0  0
  -25.2818   -9.5603   22.4776 H   0  0  0  0  0  0
  -24.0033   -7.4608   22.7480 H   0  0  0  0  0  0
  -21.0860   -8.8858   19.8950 H   0  0  0  0  0  0
  -22.3809  -10.9718   19.6218 H   0  0  0  0  0  0
  -21.2085   -7.6196   23.9726 H   0  0  0  0  0  0
  -21.1423   -6.0538   25.9076 H   0  0  0  0  0  0
  -22.0643   -2.7646   23.2808 H   0  0  0  0  0  0
  -22.4196  -11.9915   22.4864 H   0  0  0  0  0  0
  -21.1098  -13.1136   22.2489 H   0  0  0  0  0  0
  -24.6654  -15.8470   20.5402 H   0  0  0  0  0  0
  -26.2977  -15.6349   20.1565 H   0  0  0  0  0  0
  -26.7122  -32.5519   23.1120 H   0  0  0  0  0  0
  -25.0179  -33.9790   25.0504 H   0  0  0  0  0  0
  -22.6943  -31.3059   21.4192 H   0  0  0  0  0  0
  -23.3798  -35.9570   23.3304 H   0  0  0  0  0  0
  -24.3590  -36.8912   22.2063 H   0  0  0  0  0  0
  -23.7192  -37.6439   23.6689 H   0  0  0  0  0  0
  -26.0711  -31.5798   20.6132 H   0  0  0  0  0  0
  -26.8206  -30.8562   22.0056 H   0  0  0  0  0  0
  -28.0902  -29.0264   21.2165 H   0  0  0  0  0  0
  -26.0093  -25.9860   18.9522 H   0  0  0  0  0  0
  -23.9731  -27.3264   18.9943 H   0  0  0  0  0  0
  -23.7160  -30.5994   19.4108 H   0  0  0  0  0  0
  -22.7357  -29.2433   19.8788 H   0  0  0  0  0  0
  -25.1322  -36.1976   25.0823 H   0  0  0  0  0  0
  -20.9923  -28.3194   24.1475 H   0  0  0  0  0  0
  -20.5706  -26.2216   23.3587 H   0  0  0  0  0  0
  -21.6631  -26.7480   22.1205 H   0  0  0  0  0  0
  -19.6925  -25.6255   21.1260 H   0  0  0  0  0  0
  -19.6714  -27.3124   20.6733 H   0  0  0  0  0  0
  -17.4212  -26.6701   21.3964 H   0  0  0  0  0  0
  -18.0284  -26.0048   22.8951 H   0  0  0  0  0  0
  -19.7923  -30.7246   24.2276 H   0  0  0  0  0  0
  -17.5007  -31.6292   24.5094 H   0  0  0  0  0  0
  -15.5320  -30.2963   23.7692 H   0  0  0  0  0  0
  -15.8641  -28.0790   22.7104 H   0  0  0  0  0  0
  -24.5827  -30.7090   25.7649 H   0  0  0  0  0  0
  -24.8853  -32.2859   26.4851 H   0  0  0  0  0  0
  -25.7943  -30.8789   27.0162 H   0  0  0  0  0  0
  -26.2924  -29.6831   24.1087 H   0  0  0  0  0  0
  -27.4027  -29.7278   25.4600 H   0  0  0  0  0  0
  -27.8788  -30.4395   23.9361 H   0  0  0  0  0  0
  -27.2543  -33.3590   26.2180 H   0  0  0  0  0  0
  -28.3779  -32.6994   25.0384 H   0  0  0  0  0  0
  -28.0678  -31.8439   26.5410 H   0  0  0  0  0  0
  -28.2631  -38.0101   24.7546 H   0  0  0  0  0  0
  -28.1066  -36.2636   24.6353 H   0  0  0  0  0  0
  -27.2296  -37.1520   25.8886 H   0  0  0  0  0  0
  -20.9278  -29.8728   21.6978 H   0  0  0  0  0  0
  -26.0223  -38.2866   24.1352 H   0  0  0  0  0  0
  -30.6175  -20.6769   18.1698 H   0  0  0  0  0  0
  -28.9479  -20.6350   18.6355 H   0  0  0  0  0  0
  -28.3554  -19.9933   21.1812 H   0  0  0  0  0  0
  -29.6870  -19.6635   22.2523 H   0  0  0  0  0  0
  -29.7840  -22.9282   18.4986 H   0  0  0  0  0  0
  -31.0811  -22.5802   19.6079 H   0  0  0  0  0  0
  -30.5296  -21.9664   22.0550 H   0  0  0  0  0  0
  -28.8660  -21.9364   22.5875 H   0  0  0  0  0  0
  -29.2601  -14.9894   18.2369 H   0  0  0  0  0  0
  -28.4861  -16.4124   18.7326 H   0  0  0  0  0  0
  -29.5235  -17.2634   21.5325 H   0  0  0  0  0  0
  -31.2198  -17.1201   21.1898 H   0  0  0  0  0  0
  -30.0234  -16.9096   16.8620 H   0  0  0  0  0  0
  -31.3360  -16.1014   17.6498 H   0  0  0  0  0  0
  -31.3115  -20.0157   20.5069 H   0  0  0  0  0  0
  -28.1063  -22.4896   20.2853 H   0  0  0  0  0  0
  -29.0742  -18.3534   19.4215 H   0  0  0  0  0  0
  -29.7939  -24.0781   22.9919 H   0  0  0  0  0  0
  -28.0534  -24.2128   22.7480 H   0  0  0  0  0  0
  -29.0916  -25.6282   22.5983 H   0  0  0  0  0  0
  -33.6833  -19.1366   16.7921 H   0  0  0  0  0  0
  -32.0688  -19.7855   16.6359 H   0  0  0  0  0  0
  -32.3967  -18.1294   16.1494 H   0  0  0  0  0  0
  -34.3180  -17.8120   18.8726 H   0  0  0  0  0  0
  -33.4079  -16.5073   18.1745 H   0  0  0  0  0  0
  -33.1017  -17.0197   19.8350 H   0  0  0  0  0  0
  -27.2086  -24.8190   20.3735 H   0  0  0  0  0  0
  -28.2783  -24.8837   18.9970 H   0  0  0  0  0  0
  -30.2174  -24.6087   20.6321 H   0  0  0  0  0  0
  -32.4845  -19.2991   18.9394 H   0  0  0  0  0  0
  -30.4193  -18.6993   17.8098 H   0  0  0  0  0  0
  1 25  1  0  0  0
  1 30  2  0  0  0
  1 87  1  0  0  0
  2  3  1  0  0  0
  2 25  1  0  0  0
  2 89  1  0  0  0
  2 90  1  0  0  0
  3  4  1  0  0  0
  3 91  1  0  0  0
  3 92  1  0  0  0
  4  5  1  0  0  0
  4 93  1  0  0  0
  4 94  1  0  0  0
  5  6  1  0  0  0
  5 26  1  0  0  0
  5 95  1  0  0  0
  6 25  1  0  0  0
  6 96  1  0  0  0
  6 97  1  0  0  0
  7  8  2  0  0  0
  7 26  1  0  0  0
  7 29  1  0  0  0
  8  9  1  0  0  0
  8 22  1  0  0  0
  9 10  1  0  0  0
  9 27  2  0  0  0
 10 11  2  0  0  0
 10 15  1  0  0  0
 11 12  1  0  0  0
 11 98  1  0  0  0
 12 13  2  0  0  0
 12 99  1  0  0  0
 13 14  1  0  0  0
 13 31  1  0  0  0
 14 15  2  0  0  0
 14100  1  0  0  0
 15101  1  0  0  0
 16 17  2  0  0  0
 16 21  1  0  0  0
 16 31  1  0  0  0
 17 18  1  0  0  0
 17102  1  0  0  0
 18 19  2  0  0  0
 18103  1  0  0  0
 19 20  1  0  0  0
 19 24  1  0  0  0
 20 21  2  0  0  0
 20104  1  0  0  0
 21 23  1  0  0  0
 22 28  1  0  0  0
 22 32  2  0  0  0
 26 27  1  0  0  0
 28105  1  0  0  0
 28106  1  0  0  0
 29107  1  0  0  0
 29108  1  0  0  0
 33 34  1  0  0  0
 33 66  1  0  0  0
 33 70  2  0  0  0
 34 36  1  0  0  0
 34 59  1  0  0  0
 34109  1  0  0  0
 35 44  2  0  0  0
 35 45  1  0  0  0
 35 68  1  0  0  0
 36 56  1  0  0  0
 36110  1  0  0  0
 37 39  1  0  0  0
 37 47  1  0  0  0
 37 66  1  0  0  0
 37111  1  0  0  0
 38 43  2  0  0  0
 38 46  1  0  0  0
 38 47  1  0  0  0
 39 64  1  0  0  0
 39 67  2  0  0  0
 40 52  1  0  0  0
 40 53  2  0  0  0
 40 58  1  0  0  0
 41112  1  0  0  0
 41113  1  0  0  0
 41114  1  0  0  0
 41 48  1  0  0  0
 42 43  1  0  0  0
 42 66  1  0  0  0
 42115  1  0  0  0
 42116  1  0  0  0
 43 44  1  0  0  0
 44117  1  0  0  0
 45 46  2  0  0  0
 45118  1  0  0  0
 46119  1  0  0  0
 47120  1  0  0  0
 47121  1  0  0  0
 48 56  1  0  0  0
 48 65  1  0  0  0
 48122  1  0  0  0
 49 50  1  0  0  0
 49 53  1  0  0  0
 49 64  1  0  0  0
 49123  1  0  0  0
 50 51  1  0  0  0
 50124  1  0  0  0
 50125  1  0  0  0
 51 52  1  0  0  0
 51126  1  0  0  0
 51127  1  0  0  0
 52128  1  0  0  0
 52129  1  0  0  0
 53 54  1  0  0  0
 54 55  2  0  0  0
 54130  1  0  0  0
 55 57  1  0  0  0
 55131  1  0  0  0
 56 69  2  0  0  0
 57 58  2  0  0  0
 57132  1  0  0  0
 58133  1  0  0  0
 59 60  1  0  0  0
 59 61  1  0  0  0
 59 62  1  0  0  0
 60134  1  0  0  0
 60135  1  0  0  0
 60136  1  0  0  0
 61137  1  0  0  0
 61138  1  0  0  0
 61139  1  0  0  0
 62140  1  0  0  0
 62141  1  0  0  0
 62142  1  0  0  0
 63 65  1  0  0  0
 63143  1  0  0  0
 63144  1  0  0  0
 63145  1  0  0  0
 64146  1  0  0  0
 65147  1  0  0  0
 68 84  1  0  0  0
 71 73  1  0  0  0
 71148  1  0  0  0
 71149  1  0  0  0
 71 78  1  0  0  0
 72 74  1  0  0  0
 72 78  1  0  0  0
 72150  1  0  0  0
 72151  1  0  0  0
 73152  1  0  0  0
 73153  1  0  0  0
 73 79  1  0  0  0
 74 79  1  0  0  0
 74154  1  0  0  0
 74155  1  0  0  0
 75 77  1  0  0  0
 75 87  1  0  0  0
 75156  1  0  0  0
 75157  1  0  0  0
 76 87  1  0  0  0
 76158  1  0  0  0
 76159  1  0  0  0
 76 80  1  0  0  0
 77160  1  0  0  0
 77161  1  0  0  0
 77 88  1  0  0  0
 78 80  1  0  0  0
 78162  1  0  0  0
 79 85  1  0  0  0
 79163  1  0  0  0
 80 88  1  0  0  0
 80164  1  0  0  0
 81165  1  0  0  0
 81166  1  0  0  0
 81167  1  0  0  0
 81 85  1  0  0  0
 82168  1  0  0  0
 82169  1  0  0  0
 82170  1  0  0  0
 82 86  1  0  0  0
 83 86  1  0  0  0
 83171  1  0  0  0
 83172  1  0  0  0
 83173  1  0  0  0
 84 85  1  0  0  0
 84174  1  0  0  0
 84175  1  0  0  0
 85176  1  0  0  0
 86 88  1  0  0  0
 86177  1  0  0  0
 88178  1  0  0  0
M  CHG  1  88   1
M  ISO  4   1 100  68 101  84 101  87 100
M  END
> <chiral flag>
0

> <version>
0

> <s_m_source_file>
/data/baiqing/PycharmProjects/Reinvent-master-3.2/result/LINK_invent/BTK/process_docking_weight1_custom_sum_contain_oxygen_bond_distance_aromatic_linkinvent_7_9_3/rearranged_h_0116.sdf

> <i_m_source_file_index>
62

> <r_mmod_Potential_Energy-OPLS-2005>
317.988708496094

> <r_mmod_Stretch_Energy-OPLS-2005>
68.216438293457

> <r_mmod_Bend_Energy-OPLS-2005>
156.027816772461

> <r_mmod_Torsional_Energy-OPLS-2005>
464.240234375

> <r_mmod_Improper_Torsional_Energy-OPLS-2005>
13.3233699798584

> <r_mmod_Van_der_Waal_Energy-OPLS-2005>
155.837890625

> <r_mmod_Electrostatic_Energy-OPLS-2005>
-197.356460571289

> <r_mmod_Solvation_Energy-OPLS-2005>
-398.425170898438

> <b_mmod_Minimization_Converged-OPLS-2005>
0

> <r_mmod_RMS_Derivative-OPLS-2005>
4.55280876159668

$$$$
63
                    3D
 Structure written by MMmdl.
176184  0  0  1  0            999 V2000
  -30.6839  -14.5014   20.5727 C   0  0  0  0  0  0
  -30.4307  -12.3307   19.4128 C   0  0  0  0  0  0
  -29.4943  -12.5077   18.1995 C   0  0  0  0  0  0
  -28.0159  -12.3640   18.6155 C   0  0  0  0  0  0
  -27.6599  -13.2071   19.8692 C   0  0  2  0  0  0
  -28.7034  -12.9927   20.9872 C   0  0  0  0  0  0
  -25.2582  -13.8159   20.5636 C   0  0  0  0  0  0
  -24.1840  -13.0436   20.9152 C   0  0  0  0  0  0
  -24.6399  -11.6908   20.8723 C   0  0  0  0  0  0
  -23.9068  -10.4297   21.0401 C   0  0  0  0  0  0
  -24.3624   -9.4218   21.9183 C   0  0  0  0  0  0
  -23.6295   -8.2255   22.0759 C   0  0  0  0  0  0
  -22.4273   -8.0290   21.3555 C   0  0  0  0  0  0
  -21.9911   -9.0261   20.4647 C   0  0  0  0  0  0
  -22.7241  -10.2139   20.3054 C   0  0  0  0  0  0
  -21.6849   -6.0736   22.5281 C   0  0  0  0  0  0
  -21.4007   -6.5637   23.8215 C   0  0  0  0  0  0
  -21.3665   -5.6792   24.9177 C   0  0  0  0  0  0
  -21.6038   -4.3056   24.7229 C   0  0  0  0  0  0
  -21.8825   -3.8146   23.4354 C   0  0  0  0  0  0
  -21.9191   -4.6960   22.3402 C   0  0  0  0  0  0
  -22.7869  -13.5240   21.1832 C   0  0  0  0  0  0
  -22.1660   -4.2144   21.0985 F   0  0  0  0  0  0
  -21.5631   -3.4541   25.7747 F   0  0  0  0  0  0
  -30.0297  -13.3147   20.4312 N   0  0  0  0  0  0
  -26.3023  -12.9334   20.3341 N   0  0  0  0  0  0
  -25.9326  -11.6496   20.5751 N   0  0  0  0  0  0
  -22.0516  -12.8229   22.0398 N   0  0  0  0  0  0
  -25.4277  -15.1879   20.4025 N   0  0  0  0  0  0
  -31.8154  -14.6992   20.1225 O   0  0  0  0  0  0
  -21.6647   -6.8884   21.4246 O   0  0  0  0  0  0
  -22.3547  -14.5554   20.6691 O   0  0  0  0  0  0
  -24.6177  -31.8654   23.2094 C   0  0  0  0  0  0
  -25.9068  -32.4802   23.8384 C   0  0  1  0  0  0
  -27.2277  -27.3979   20.1002 C   0  0  0  0  0  0
  -25.5907  -33.8595   24.2302 N   0  0  0  0  0  0
  -23.4067  -30.4929   21.5506 C   0  0  2  0  0  0
  -24.8504  -28.9602   20.1086 C   0  0  0  0  0  0
  -22.7429  -29.4652   22.4958 C   0  0  0  0  0  0
  -18.0272  -28.1381   22.8474 C   0  0  0  0  0  0
  -24.1486  -36.7294   23.2647 C   0  0  0  0  0  0
  -25.9396  -30.8197   21.3702 C   0  0  0  0  0  0
  -26.0149  -29.4547   20.7108 C   0  0  0  0  0  0
  -27.2039  -28.6821   20.7033 C   0  0  0  0  0  0
  -26.0448  -26.9432   19.4658 C   0  0  0  0  0  0
  -24.8633  -27.7047   19.4812 C   0  0  0  0  0  0
  -23.6162  -29.8332   20.1631 C   0  0  0  0  0  0
  -25.4111  -36.3086   24.0344 C   0  0  1  0  0  0
  -20.5866  -28.3669   23.1289 C   0  0  2  0  0  0
  -20.6758  -26.9397   22.5404 C   0  0  0  0  0  0
  -19.5739  -26.6378   21.5202 C   0  0  0  0  0  0
  -18.1913  -26.7923   22.1613 C   0  0  0  0  0  0
  -19.1525  -28.8840   23.2868 C   0  0  0  0  0  0
  -18.9471  -30.1449   23.8878 C   0  0  0  0  0  0
  -17.6477  -30.6591   24.0570 C   0  0  0  0  0  0
  -25.9047  -34.9459   23.5115 C   0  0  0  0  0  0
  -16.5357  -29.9095   23.6337 C   0  0  0  0  0  0
  -16.7264  -28.6515   23.0333 C   0  0  0  0  0  0
  -26.4490  -31.6600   25.0726 C   0  0  0  0  0  0
  -25.3751  -31.3720   26.1471 C   0  0  0  0  0  0
  -27.0363  -30.3048   24.6140 C   0  0  0  0  0  0
  -27.6041  -32.4341   25.7488 C   0  0  0  0  0  0
  -27.5577  -37.1795   24.8470 C   0  0  0  0  0  0
  -21.4154  -29.3031   22.3697 N   0  0  0  0  0  0
  -26.4287  -37.3785   23.9423 N   0  0  0  0  0  0
  -24.6736  -31.0739   22.1013 N   0  0  0  0  0  0
  -23.4182  -28.8186   23.2998 O   0  0  0  0  0  0
  -28.3783  -26.6194   20.1558 O   0  0  0  0  0  0
  -26.5612  -34.8928   22.4685 O   0  0  0  0  0  0
  -23.5364  -32.1422   23.7481 O   0  0  0  0  0  0
  -27.7936  -22.1818   19.9812 C   0  0  0  0  0  0
  -29.5667  -21.7031   21.2001 C   0  0  0  0  0  0
  -28.9161  -22.7724   20.6269 C   0  0  0  0  0  0
  -27.7415  -20.8308   20.2172 C   0  0  0  0  0  0
  -31.7549  -24.5154   21.3509 C   0  0  0  0  0  0
  -25.0219  -20.6094   21.6441 C   0  0  0  0  0  0
  -28.0309  -19.2100   17.6449 C   0  0  0  0  0  0
  -30.7176  -24.5542   20.2150 C   0  0  0  0  0  0
  -25.2350  -20.4331   20.1285 C   0  0  0  0  0  0
  -26.6949  -19.7415   18.1895 C   0  0  0  0  0  0
  -29.6922  -18.0186   20.6973 C   0  0  0  0  0  0
  -29.2749  -19.2218   21.6069 C   0  0  0  0  0  0
  -30.3932  -16.8653   21.4881 C   0  0  0  0  0  0
  -28.2346  -25.1876   19.9474 C   0  0  0  0  0  0
  -29.2701  -24.2790   20.6862 C   0  0  1  0  0  0
  -26.6344  -19.9082   19.7275 C   0  0  0  0  0  0
  -28.8744  -20.5065   20.9793 N   0  0  0  0  0  0
  -29.9644  -15.4937   21.1373 N   0  0  0  0  0  0
  -26.6589  -18.6184   20.2888 O   0  0  0  0  0  0
  -31.4711  -12.4503   19.1040 H   0  0  0  0  0  0
  -30.3545  -11.3196   19.8165 H   0  0  0  0  0  0
  -29.7379  -11.7763   17.4279 H   0  0  0  0  0  0
  -29.6536  -13.4902   17.7517 H   0  0  0  0  0  0
  -27.8283  -11.3078   18.8134 H   0  0  0  0  0  0
  -27.3647  -12.6367   17.7844 H   0  0  0  0  0  0
  -27.7020  -14.2539   19.5685 H   0  0  0  0  0  0
  -28.6928  -11.9559   21.3263 H   0  0  0  0  0  0
  -28.4603  -13.5870   21.8688 H   0  0  0  0  0  0
  -25.2775   -9.5687   22.4748 H   0  0  0  0  0  0
  -23.9996   -7.4653   22.7480 H   0  0  0  0  0  0
  -21.0842   -8.8789   19.8951 H   0  0  0  0  0  0
  -22.3710  -10.9682   19.6154 H   0  0  0  0  0  0
  -21.1999   -7.6143   23.9716 H   0  0  0  0  0  0
  -21.1476   -6.0524   25.9083 H   0  0  0  0  0  0
  -22.0596   -2.7605   23.2862 H   0  0  0  0  0  0
  -22.4134  -11.9881   22.4768 H   0  0  0  0  0  0
  -21.1147  -13.1267   22.2631 H   0  0  0  0  0  0
  -24.6552  -15.8383   20.4997 H   0  0  0  0  0  0
  -26.2755  -15.6426   20.0840 H   0  0  0  0  0  0
  -26.7142  -32.5499   23.1149 H   0  0  0  0  0  0
  -25.0085  -33.9746   25.0464 H   0  0  0  0  0  0
  -22.6962  -31.3118   21.4145 H   0  0  0  0  0  0
  -23.3747  -35.9628   23.3315 H   0  0  0  0  0  0
  -24.3584  -36.8906   22.2060 H   0  0  0  0  0  0
  -23.7229  -37.6497   23.6664 H   0  0  0  0  0  0
  -26.0644  -31.5912   20.6082 H   0  0  0  0  0  0
  -26.8227  -30.8633   21.9957 H   0  0  0  0  0  0
  -28.0982  -29.0559   21.1832 H   0  0  0  0  0  0
  -26.0109  -25.9945   18.9495 H   0  0  0  0  0  0
  -23.9723  -27.3202   19.0009 H   0  0  0  0  0  0
  -23.7270  -30.6136   19.4089 H   0  0  0  0  0  0
  -22.7371  -29.2605   19.8623 H   0  0  0  0  0  0
  -25.1272  -36.1960   25.0836 H   0  0  0  0  0  0
  -20.9946  -28.3259   24.1415 H   0  0  0  0  0  0
  -20.5676  -26.2287   23.3601 H   0  0  0  0  0  0
  -21.6633  -26.7446   22.1198 H   0  0  0  0  0  0
  -19.6925  -25.6290   21.1228 H   0  0  0  0  0  0
  -19.6702  -27.3195   20.6730 H   0  0  0  0  0  0
  -17.4187  -26.6667   21.4004 H   0  0  0  0  0  0
  -18.0315  -26.0069   22.9013 H   0  0  0  0  0  0
  -19.7965  -30.7242   24.2241 H   0  0  0  0  0  0
  -17.5055  -31.6273   24.5165 H   0  0  0  0  0  0
  -15.5362  -30.2994   23.7691 H   0  0  0  0  0  0
  -15.8657  -28.0858   22.7025 H   0  0  0  0  0  0
  -24.5900  -30.7086   25.7813 H   0  0  0  0  0  0
  -24.8959  -32.2879   26.4933 H   0  0  0  0  0  0
  -25.8078  -30.8874   27.0229 H   0  0  0  0  0  0
  -26.2927  -29.6757   24.1216 H   0  0  0  0  0  0
  -27.4172  -29.7330   25.4612 H   0  0  0  0  0  0
  -27.8740  -30.4377   23.9287 H   0  0  0  0  0  0
  -27.2638  -33.3644   26.2062 H   0  0  0  0  0  0
  -28.3842  -32.6911   25.0305 H   0  0  0  0  0  0
  -28.0728  -31.8480   26.5412 H   0  0  0  0  0  0
  -28.2571  -38.0105   24.7522 H   0  0  0  0  0  0
  -28.1079  -36.2633   24.6271 H   0  0  0  0  0  0
  -27.2298  -37.1405   25.8871 H   0  0  0  0  0  0
  -20.9324  -29.8781   21.6944 H   0  0  0  0  0  0
  -26.0175  -38.2858   24.1451 H   0  0  0  0  0  0
  -27.0407  -22.7124   19.4142 H   0  0  0  0  0  0
  -30.4705  -21.6909   21.7945 H   0  0  0  0  0  0
  -32.7571  -24.7171   20.9731 H   0  0  0  0  0  0
  -31.7826  -23.5469   21.8473 H   0  0  0  0  0  0
  -31.5364  -25.2696   22.1083 H   0  0  0  0  0  0
  -24.0346  -21.0242   21.8476 H   0  0  0  0  0  0
  -25.7580  -21.2886   22.0739 H   0  0  0  0  0  0
  -25.0912  -19.6610   22.1764 H   0  0  0  0  0  0
  -28.0105  -19.1499   16.5567 H   0  0  0  0  0  0
  -28.2376  -18.2110   18.0269 H   0  0  0  0  0  0
  -28.8641  -19.8565   17.9226 H   0  0  0  0  0  0
  -30.9951  -23.8721   19.4084 H   0  0  0  0  0  0
  -30.7705  -25.5549   19.7838 H   0  0  0  0  0  0
  -25.0512  -21.3917   19.6450 H   0  0  0  0  0  0
  -24.4633  -19.7685   19.7375 H   0  0  0  0  0  0
  -25.8849  -19.0951   17.8474 H   0  0  0  0  0  0
  -26.5045  -20.7112   17.7265 H   0  0  0  0  0  0
  -30.3543  -18.3712   19.9056 H   0  0  0  0  0  0
  -28.8284  -17.6048   20.1881 H   0  0  0  0  0  0
  -30.1139  -19.4383   22.2691 H   0  0  0  0  0  0
  -28.4697  -18.9123   22.2734 H   0  0  0  0  0  0
  -30.1738  -16.9790   22.5508 H   0  0  0  0  0  0
  -31.4758  -16.9697   21.4026 H   0  0  0  0  0  0
  -27.2619  -24.8722   20.3224 H   0  0  0  0  0  0
  -28.2538  -24.9847   18.8747 H   0  0  0  0  0  0
  -29.1991  -24.5548   21.7401 H   0  0  0  0  0  0
  -29.0377  -15.2280   21.4343 H   0  0  0  0  0  0
  -26.4744  -18.7288   21.2117 H   0  0  0  0  0  0
  1 25  1  0  0  0
  1 30  2  0  0  0
  1 88  1  0  0  0
  2  3  1  0  0  0
  2 25  1  0  0  0
  2 90  1  0  0  0
  2 91  1  0  0  0
  3  4  1  0  0  0
  3 92  1  0  0  0
  3 93  1  0  0  0
  4  5  1  0  0  0
  4 94  1  0  0  0
  4 95  1  0  0  0
  5  6  1  0  0  0
  5 26  1  0  0  0
  5 96  1  0  0  0
  6 25  1  0  0  0
  6 97  1  0  0  0
  6 98  1  0  0  0
  7  8  2  0  0  0
  7 26  1  0  0  0
  7 29  1  0  0  0
  8  9  1  0  0  0
  8 22  1  0  0  0
  9 10  1  0  0  0
  9 27  2  0  0  0
 10 11  2  0  0  0
 10 15  1  0  0  0
 11 12  1  0  0  0
 11 99  1  0  0  0
 12 13  2  0  0  0
 12100  1  0  0  0
 13 14  1  0  0  0
 13 31  1  0  0  0
 14 15  2  0  0  0
 14101  1  0  0  0
 15102  1  0  0  0
 16 17  2  0  0  0
 16 21  1  0  0  0
 16 31  1  0  0  0
 17 18  1  0  0  0
 17103  1  0  0  0
 18 19  2  0  0  0
 18104  1  0  0  0
 19 20  1  0  0  0
 19 24  1  0  0  0
 20 21  2  0  0  0
 20105  1  0  0  0
 21 23  1  0  0  0
 22 28  1  0  0  0
 22 32  2  0  0  0
 26 27  1  0  0  0
 28106  1  0  0  0
 28107  1  0  0  0
 29108  1  0  0  0
 29109  1  0  0  0
 33 34  1  0  0  0
 33 66  1  0  0  0
 33 70  2  0  0  0
 34 36  1  0  0  0
 34 59  1  0  0  0
 34110  1  0  0  0
 35 44  2  0  0  0
 35 45  1  0  0  0
 35 68  1  0  0  0
 36 56  1  0  0  0
 36111  1  0  0  0
 37 39  1  0  0  0
 37 47  1  0  0  0
 37 66  1  0  0  0
 37112  1  0  0  0
 38 43  2  0  0  0
 38 46  1  0  0  0
 38 47  1  0  0  0
 39 64  1  0  0  0
 39 67  2  0  0  0
 40 52  1  0  0  0
 40 53  2  0  0  0
 40 58  1  0  0  0
 41113  1  0  0  0
 41114  1  0  0  0
 41115  1  0  0  0
 41 48  1  0  0  0
 42 43  1  0  0  0
 42 66  1  0  0  0
 42116  1  0  0  0
 42117  1  0  0  0
 43 44  1  0  0  0
 44118  1  0  0  0
 45 46  2  0  0  0
 45119  1  0  0  0
 46120  1  0  0  0
 47121  1  0  0  0
 47122  1  0  0  0
 48 56  1  0  0  0
 48 65  1  0  0  0
 48123  1  0  0  0
 49 50  1  0  0  0
 49 53  1  0  0  0
 49 64  1  0  0  0
 49124  1  0  0  0
 50 51  1  0  0  0
 50125  1  0  0  0
 50126  1  0  0  0
 51 52  1  0  0  0
 51127  1  0  0  0
 51128  1  0  0  0
 52129  1  0  0  0
 52130  1  0  0  0
 53 54  1  0  0  0
 54 55  2  0  0  0
 54131  1  0  0  0
 55 57  1  0  0  0
 55132  1  0  0  0
 56 69  2  0  0  0
 57 58  2  0  0  0
 57133  1  0  0  0
 58134  1  0  0  0
 59 60  1  0  0  0
 59 61  1  0  0  0
 59 62  1  0  0  0
 60135  1  0  0  0
 60136  1  0  0  0
 60137  1  0  0  0
 61138  1  0  0  0
 61139  1  0  0  0
 61140  1  0  0  0
 62141  1  0  0  0
 62142  1  0  0  0
 62143  1  0  0  0
 63 65  1  0  0  0
 63144  1  0  0  0
 63145  1  0  0  0
 63146  1  0  0  0
 64147  1  0  0  0
 65148  1  0  0  0
 68 84  1  0  0  0
 71 73  1  0  0  0
 71 74  2  0  0  0
 71149  1  0  0  0
 72 73  2  0  0  0
 72 87  1  0  0  0
 72150  1  0  0  0
 73 85  1  0  0  0
 74 86  1  0  0  0
 74 87  1  0  0  0
 75 78  1  0  0  0
 75151  1  0  0  0
 75152  1  0  0  0
 75153  1  0  0  0
 76 79  1  0  0  0
 76154  1  0  0  0
 76155  1  0  0  0
 76156  1  0  0  0
 77 80  1  0  0  0
 77157  1  0  0  0
 77158  1  0  0  0
 77159  1  0  0  0
 78160  1  0  0  0
 78161  1  0  0  0
 78 85  1  0  0  0
 79 86  1  0  0  0
 79162  1  0  0  0
 79163  1  0  0  0
 80 86  1  0  0  0
 80164  1  0  0  0
 80165  1  0  0  0
 81 82  1  0  0  0
 81 83  1  0  0  0
 81166  1  0  0  0
 81167  1  0  0  0
 82 87  1  0  0  0
 82168  1  0  0  0
 82169  1  0  0  0
 83 88  1  0  0  0
 83170  1  0  0  0
 83171  1  0  0  0
 84 85  1  0  0  0
 84172  1  0  0  0
 84173  1  0  0  0
 85174  1  0  0  0
 86 89  1  0  0  0
 88175  1  0  0  0
 89176  1  0  0  0
M  ISO  4   1 100  68 101  84 101  88 100
M  END
> <chiral flag>
0

> <version>
0

> <s_m_source_file>
/data/baiqing/PycharmProjects/Reinvent-master-3.2/result/LINK_invent/BTK/process_docking_weight1_custom_sum_contain_oxygen_bond_distance_aromatic_linkinvent_7_9_3/rearranged_h_0116.sdf

> <i_m_source_file_index>
63

> <r_mmod_Potential_Energy-OPLS-2005>
-52.634033203125

> <r_mmod_Stretch_Energy-OPLS-2005>
49.5775184631348

> <r_mmod_Bend_Energy-OPLS-2005>
131.046524047852

> <r_mmod_Torsional_Energy-OPLS-2005>
248.985916137695

> <r_mmod_Improper_Torsional_Energy-OPLS-2005>
3.40991044044495

> <r_mmod_Van_der_Waal_Energy-OPLS-2005>
132.406112670898

> <r_mmod_Electrostatic_Energy-OPLS-2005>
-440.930023193359

> <r_mmod_Solvation_Energy-OPLS-2005>
-196.234710693359

> <b_mmod_Minimization_Converged-OPLS-2005>
0

> <r_mmod_RMS_Derivative-OPLS-2005>
2.45848727226257

$$$$
64
                    3D
 Structure written by MMmdl.
166175  0  0  1  0            999 V2000
  -30.7056  -14.6380   20.3858 C   0  0  0  0  0  0
  -30.4149  -12.3739   19.4424 C   0  0  0  0  0  0
  -29.4844  -12.4095   18.2153 C   0  0  0  0  0  0
  -28.0086  -12.3039   18.6429 C   0  0  0  0  0  0
  -27.6360  -13.2130   19.8470 C   0  0  2  0  0  0
  -28.7013  -13.1868   20.9625 C   0  0  0  0  0  0
  -25.2520  -13.8166   20.5747 C   0  0  0  0  0  0
  -24.1790  -13.0428   20.9243 C   0  0  0  0  0  0
  -24.6368  -11.6900   20.8812 C   0  0  0  0  0  0
  -23.9052  -10.4277   21.0443 C   0  0  0  0  0  0
  -24.3614   -9.4189   21.9201 C   0  0  0  0  0  0
  -23.6287   -8.2228   22.0759 C   0  0  0  0  0  0
  -22.4269   -8.0276   21.3551 C   0  0  0  0  0  0
  -21.9911   -9.0251   20.4652 C   0  0  0  0  0  0
  -22.7238  -10.2132   20.3074 C   0  0  0  0  0  0
  -21.6847   -6.0726   22.5274 C   0  0  0  0  0  0
  -21.3999   -6.5632   23.8203 C   0  0  0  0  0  0
  -21.3663   -5.6791   24.9169 C   0  0  0  0  0  0
  -21.6049   -4.3055   24.7228 C   0  0  0  0  0  0
  -21.8818   -3.8144   23.4350 C   0  0  0  0  0  0
  -21.9188   -4.6953   22.3402 C   0  0  0  0  0  0
  -22.7816  -13.5224   21.1870 C   0  0  0  0  0  0
  -22.1666   -4.2137   21.0982 F   0  0  0  0  0  0
  -21.5647   -3.4540   25.7745 F   0  0  0  0  0  0
  -29.9925  -13.4724   20.3280 N   0  0  0  0  0  0
  -26.2935  -12.9324   20.3395 N   0  0  0  0  0  0
  -25.9302  -11.6497   20.5907 N   0  0  0  0  0  0
  -22.0447  -12.8222   22.0429 N   0  0  0  0  0  0
  -25.4216  -15.1882   20.4130 N   0  0  0  0  0  0
  -31.9343  -14.6070   20.3251 O   0  0  0  0  0  0
  -21.6639   -6.8870   21.4235 O   0  0  0  0  0  0
  -22.3506  -14.5521   20.6692 O   0  0  0  0  0  0
  -24.6226  -31.8596   23.2028 C   0  0  0  0  0  0
  -25.9088  -32.4771   23.8336 C   0  0  1  0  0  0
  -27.2337  -27.3583   20.1102 C   0  0  0  0  0  0
  -25.5922  -33.8569   24.2284 N   0  0  0  0  0  0
  -23.4117  -30.4835   21.5442 C   0  0  2  0  0  0
  -24.8563  -28.9322   20.1095 C   0  0  0  0  0  0
  -22.7434  -29.4636   22.4955 C   0  0  0  0  0  0
  -18.0280  -28.1378   22.8493 C   0  0  0  0  0  0
  -24.1487  -36.7293   23.2648 C   0  0  0  0  0  0
  -25.9460  -30.8027   21.3632 C   0  0  0  0  0  0
  -26.0181  -29.4313   20.7078 C   0  0  0  0  0  0
  -27.2036  -28.6534   20.7001 C   0  0  0  0  0  0
  -26.0472  -26.8798   19.5149 C   0  0  0  0  0  0
  -24.8695  -27.6590   19.5078 C   0  0  0  0  0  0
  -23.6227  -29.8110   20.1597 C   0  0  0  0  0  0
  -25.4109  -36.3087   24.0338 C   0  0  1  0  0  0
  -20.5874  -28.3675   23.1300 C   0  0  2  0  0  0
  -20.6770  -26.9399   22.5420 C   0  0  0  0  0  0
  -19.5746  -26.6389   21.5219 C   0  0  0  0  0  0
  -18.1927  -26.7928   22.1627 C   0  0  0  0  0  0
  -19.1531  -28.8840   23.2893 C   0  0  0  0  0  0
  -18.9465  -30.1453   23.8891 C   0  0  0  0  0  0
  -17.6462  -30.6584   24.0571 C   0  0  0  0  0  0
  -25.9047  -34.9450   23.5117 C   0  0  0  0  0  0
  -16.5351  -29.9083   23.6326 C   0  0  0  0  0  0
  -16.7270  -28.6503   23.0342 C   0  0  0  0  0  0
  -26.4493  -31.6567   25.0688 C   0  0  0  0  0  0
  -25.3753  -31.3681   26.1439 C   0  0  0  0  0  0
  -27.0343  -30.3003   24.6110 C   0  0  0  0  0  0
  -27.6066  -32.4287   25.7446 C   0  0  0  0  0  0
  -27.5576  -37.1804   24.8474 C   0  0  0  0  0  0
  -21.4154  -29.3041   22.3695 N   0  0  0  0  0  0
  -26.4291  -37.3776   23.9416 N   0  0  0  0  0  0
  -24.6789  -31.0648   22.0948 N   0  0  0  0  0  0
  -23.4186  -28.8179   23.3020 O   0  0  0  0  0  0
  -28.4090  -26.6164   20.1932 O   0  0  0  0  0  0
  -26.5614  -34.8908   22.4684 O   0  0  0  0  0  0
  -23.5409  -32.1396   23.7394 O   0  0  0  0  0  0
  -29.0159  -16.3049   18.1717 C   0  0  0  0  0  0
  -28.5854  -18.9694   21.0328 C   0  0  0  0  0  0
  -29.3658  -19.1742   18.7294 C   0  0  0  0  0  0
  -30.5113  -16.0133   18.3041 C   0  0  0  0  0  0
  -28.8952  -20.5064   21.2421 C   0  0  0  0  0  0
  -29.7258  -20.6620   18.9732 C   0  0  0  0  0  0
  -29.4712  -18.2421   19.9749 C   0  0  2  0  0  0
  -29.0685  -16.7174   19.6630 C   0  0  2  0  0  0
  -28.6060  -25.4383   18.0132 C   0  0  0  0  0  0
  -28.1665  -23.9466   20.1142 C   0  0  0  0  0  0
  -29.2688  -22.7991   20.1580 C   0  0  0  0  0  0
  -28.6917  -25.3350   19.5446 C   0  0  2  0  0  0
  -30.1744  -15.6958   19.6892 N   0  0  0  0  0  0
  -28.8683  -21.3373   19.9904 N   0  3  2  0  0  0
  -31.4532  -12.4720   19.1218 H   0  0  0  0  0  0
  -30.3444  -11.4157   19.9592 H   0  0  0  0  0  0
  -29.7287  -11.5881   17.5406 H   0  0  0  0  0  0
  -29.6412  -13.3179   17.6396 H   0  0  0  0  0  0
  -27.8294  -11.2611   18.9036 H   0  0  0  0  0  0
  -27.3568  -12.5179   17.7949 H   0  0  0  0  0  0
  -27.6062  -14.2252   19.4666 H   0  0  0  0  0  0
  -28.7238  -12.2198   21.4684 H   0  0  0  0  0  0
  -28.4748  -13.9390   21.7200 H   0  0  0  0  0  0
  -25.2756   -9.5672   22.4771 H   0  0  0  0  0  0
  -23.9999   -7.4623   22.7479 H   0  0  0  0  0  0
  -21.0845   -8.8770   19.8956 H   0  0  0  0  0  0
  -22.3695  -10.9677   19.6196 H   0  0  0  0  0  0
  -21.1977   -7.6136   23.9700 H   0  0  0  0  0  0
  -21.1495   -6.0524   25.9073 H   0  0  0  0  0  0
  -22.0594   -2.7602   23.2857 H   0  0  0  0  0  0
  -22.4058  -11.9900   22.4844 H   0  0  0  0  0  0
  -21.1055  -13.1248   22.2592 H   0  0  0  0  0  0
  -24.6546  -15.8425   20.5226 H   0  0  0  0  0  0
  -26.2762  -15.6279   20.0990 H   0  0  0  0  0  0
  -26.7135  -32.5443   23.1067 H   0  0  0  0  0  0
  -25.0071  -33.9692   25.0431 H   0  0  0  0  0  0
  -22.7062  -31.3045   21.4005 H   0  0  0  0  0  0
  -23.3739  -35.9638   23.3325 H   0  0  0  0  0  0
  -24.3591  -36.8896   22.2064 H   0  0  0  0  0  0
  -23.7225  -37.6496   23.6648 H   0  0  0  0  0  0
  -26.0736  -31.5658   20.5945 H   0  0  0  0  0  0
  -26.8301  -30.8529   21.9875 H   0  0  0  0  0  0
  -28.0997  -29.0339   21.1701 H   0  0  0  0  0  0
  -26.0056  -25.8910   19.0854 H   0  0  0  0  0  0
  -23.9729  -27.2653   19.0508 H   0  0  0  0  0  0
  -23.7399  -30.5874   19.4029 H   0  0  0  0  0  0
  -22.7420  -29.2419   19.8567 H   0  0  0  0  0  0
  -25.1280  -36.1958   25.0824 H   0  0  0  0  0  0
  -20.9982  -28.3264   24.1415 H   0  0  0  0  0  0
  -20.5693  -26.2275   23.3620 H   0  0  0  0  0  0
  -21.6636  -26.7439   22.1202 H   0  0  0  0  0  0
  -19.6908  -25.6308   21.1234 H   0  0  0  0  0  0
  -19.6690  -27.3213   20.6765 H   0  0  0  0  0  0
  -17.4203  -26.6699   21.4025 H   0  0  0  0  0  0
  -18.0310  -26.0058   22.9005 H   0  0  0  0  0  0
  -19.7936  -30.7283   24.2255 H   0  0  0  0  0  0
  -17.5007  -31.6261   24.5182 H   0  0  0  0  0  0
  -15.5349  -30.2984   23.7641 H   0  0  0  0  0  0
  -15.8677  -28.0828   22.7037 H   0  0  0  0  0  0
  -24.5920  -30.7038   25.7769 H   0  0  0  0  0  0
  -24.8962  -32.2843   26.4897 H   0  0  0  0  0  0
  -25.8116  -30.8832   27.0184 H   0  0  0  0  0  0
  -26.2906  -29.6721   24.1203 H   0  0  0  0  0  0
  -27.4142  -29.7275   25.4577 H   0  0  0  0  0  0
  -27.8715  -30.4301   23.9254 H   0  0  0  0  0  0
  -27.2687  -33.3576   26.2043 H   0  0  0  0  0  0
  -28.3862  -32.6864   25.0263 H   0  0  0  0  0  0
  -28.0751  -31.8401   26.5344 H   0  0  0  0  0  0
  -28.2608  -38.0091   24.7504 H   0  0  0  0  0  0
  -28.1061  -36.2620   24.6318 H   0  0  0  0  0  0
  -27.2307  -37.1471   25.8882 H   0  0  0  0  0  0
  -20.9330  -29.8723   21.6866 H   0  0  0  0  0  0
  -26.0187  -38.2861   24.1392 H   0  0  0  0  0  0
  -28.4432  -15.4062   17.9524 H   0  0  0  0  0  0
  -28.7621  -17.0627   17.4339 H   0  0  0  0  0  0
  -27.5366  -18.8552   20.7573 H   0  0  0  0  0  0
  -28.6923  -18.4581   21.9901 H   0  0  0  0  0  0
  -30.0252  -18.8235   17.9370 H   0  0  0  0  0  0
  -28.3532  -19.1293   18.3244 H   0  0  0  0  0  0
  -31.1728  -16.8730   18.1971 H   0  0  0  0  0  0
  -30.8613  -15.1795   17.6961 H   0  0  0  0  0  0
  -29.8795  -20.6043   21.7027 H   0  0  0  0  0  0
  -28.1867  -20.9261   21.9572 H   0  0  0  0  0  0
  -29.6459  -21.2002   18.0277 H   0  0  0  0  0  0
  -30.7712  -20.7291   19.2792 H   0  0  0  0  0  0
  -30.5028  -18.2694   20.3324 H   0  0  0  0  0  0
  -28.1752  -16.3917   20.1965 H   0  0  0  0  0  0
  -29.0855  -26.3517   17.6603 H   0  0  0  0  0  0
  -27.5807  -25.4357   17.6484 H   0  0  0  0  0  0
  -29.1183  -24.6008   17.5394 H   0  0  0  0  0  0
  -27.7816  -24.0927   21.1234 H   0  0  0  0  0  0
  -27.3118  -23.6232   19.5206 H   0  0  0  0  0  0
  -29.8535  -22.9077   21.0709 H   0  0  0  0  0  0
  -29.9832  -23.0319   19.3665 H   0  0  0  0  0  0
  -29.7622  -25.2982   19.7438 H   0  0  0  0  0  0
  -27.9242  -21.3241   19.6328 H   0  0  0  0  0  0
  1 25  1  0  0  0
  1 30  2  0  0  0
  1 83  1  0  0  0
  2  3  1  0  0  0
  2 25  1  0  0  0
  2 85  1  0  0  0
  2 86  1  0  0  0
  3  4  1  0  0  0
  3 87  1  0  0  0
  3 88  1  0  0  0
  4  5  1  0  0  0
  4 89  1  0  0  0
  4 90  1  0  0  0
  5  6  1  0  0  0
  5 26  1  0  0  0
  5 91  1  0  0  0
  6 25  1  0  0  0
  6 92  1  0  0  0
  6 93  1  0  0  0
  7  8  2  0  0  0
  7 26  1  0  0  0
  7 29  1  0  0  0
  8  9  1  0  0  0
  8 22  1  0  0  0
  9 10  1  0  0  0
  9 27  2  0  0  0
 10 11  2  0  0  0
 10 15  1  0  0  0
 11 12  1  0  0  0
 11 94  1  0  0  0
 12 13  2  0  0  0
 12 95  1  0  0  0
 13 14  1  0  0  0
 13 31  1  0  0  0
 14 15  2  0  0  0
 14 96  1  0  0  0
 15 97  1  0  0  0
 16 17  2  0  0  0
 16 21  1  0  0  0
 16 31  1  0  0  0
 17 18  1  0  0  0
 17 98  1  0  0  0
 18 19  2  0  0  0
 18 99  1  0  0  0
 19 20  1  0  0  0
 19 24  1  0  0  0
 20 21  2  0  0  0
 20100  1  0  0  0
 21 23  1  0  0  0
 22 28  1  0  0  0
 22 32  2  0  0  0
 26 27  1  0  0  0
 28101  1  0  0  0
 28102  1  0  0  0
 29103  1  0  0  0
 29104  1  0  0  0
 33 34  1  0  0  0
 33 66  1  0  0  0
 33 70  2  0  0  0
 34 36  1  0  0  0
 34 59  1  0  0  0
 34105  1  0  0  0
 35 44  2  0  0  0
 35 45  1  0  0  0
 35 68  1  0  0  0
 36 56  1  0  0  0
 36106  1  0  0  0
 37 39  1  0  0  0
 37 47  1  0  0  0
 37 66  1  0  0  0
 37107  1  0  0  0
 38 43  2  0  0  0
 38 46  1  0  0  0
 38 47  1  0  0  0
 39 64  1  0  0  0
 39 67  2  0  0  0
 40 52  1  0  0  0
 40 53  2  0  0  0
 40 58  1  0  0  0
 41108  1  0  0  0
 41109  1  0  0  0
 41110  1  0  0  0
 41 48  1  0  0  0
 42 43  1  0  0  0
 42 66  1  0  0  0
 42111  1  0  0  0
 42112  1  0  0  0
 43 44  1  0  0  0
 44113  1  0  0  0
 45 46  2  0  0  0
 45114  1  0  0  0
 46115  1  0  0  0
 47116  1  0  0  0
 47117  1  0  0  0
 48 56  1  0  0  0
 48 65  1  0  0  0
 48118  1  0  0  0
 49 50  1  0  0  0
 49 53  1  0  0  0
 49 64  1  0  0  0
 49119  1  0  0  0
 50 51  1  0  0  0
 50120  1  0  0  0
 50121  1  0  0  0
 51 52  1  0  0  0
 51122  1  0  0  0
 51123  1  0  0  0
 52124  1  0  0  0
 52125  1  0  0  0
 53 54  1  0  0  0
 54 55  2  0  0  0
 54126  1  0  0  0
 55 57  1  0  0  0
 55127  1  0  0  0
 56 69  2  0  0  0
 57 58  2  0  0  0
 57128  1  0  0  0
 58129  1  0  0  0
 59 60  1  0  0  0
 59 61  1  0  0  0
 59 62  1  0  0  0
 60130  1  0  0  0
 60131  1  0  0  0
 60132  1  0  0  0
 61133  1  0  0  0
 61134  1  0  0  0
 61135  1  0  0  0
 62136  1  0  0  0
 62137  1  0  0  0
 62138  1  0  0  0
 63 65  1  0  0  0
 63139  1  0  0  0
 63140  1  0  0  0
 63141  1  0  0  0
 64142  1  0  0  0
 65143  1  0  0  0
 68 82  1  0  0  0
 71 74  1  0  0  0
 71144  1  0  0  0
 71145  1  0  0  0
 71 78  1  0  0  0
 72 75  1  0  0  0
 72146  1  0  0  0
 72147  1  0  0  0
 72 77  1  0  0  0
 73 76  1  0  0  0
 73 77  1  0  0  0
 73148  1  0  0  0
 73149  1  0  0  0
 74 83  1  0  0  0
 74150  1  0  0  0
 74151  1  0  0  0
 75 84  1  0  0  0
 75152  1  0  0  0
 75153  1  0  0  0
 76 84  1  0  0  0
 76154  1  0  0  0
 76155  1  0  0  0
 77 78  1  0  0  0
 77156  1  0  0  0
 78 83  1  0  0  0
 78157  1  0  0  0
 79158  1  0  0  0
 79159  1  0  0  0
 79160  1  0  0  0
 79 82  1  0  0  0
 80 81  1  0  0  0
 80 82  1  0  0  0
 80161  1  0  0  0
 80162  1  0  0  0
 81163  1  0  0  0
 81164  1  0  0  0
 81 84  1  0  0  0
 82165  1  0  0  0
 84166  1  0  0  0
M  CHG  1  84   1
M  ISO  4   1 100  68 101  82 101  83 100
M  END
> <chiral flag>
0

> <version>
0

> <s_m_source_file>
/data/baiqing/PycharmProjects/Reinvent-master-3.2/result/LINK_invent/BTK/process_docking_weight1_custom_sum_contain_oxygen_bond_distance_aromatic_linkinvent_7_9_3/rearranged_h_0116.sdf

> <i_m_source_file_index>
64

> <r_mmod_Potential_Energy-OPLS-2005>
249.454727172852

> <r_mmod_Stretch_Energy-OPLS-2005>
74.4927597045898

> <r_mmod_Bend_Energy-OPLS-2005>
227.333953857422

> <r_mmod_Torsional_Energy-OPLS-2005>
368.959350585938

> <r_mmod_Improper_Torsional_Energy-OPLS-2005>
34.503547668457

> <r_mmod_Van_der_Waal_Energy-OPLS-2005>
129.797119140625

> <r_mmod_Electrostatic_Energy-OPLS-2005>
-198.814376831055

> <r_mmod_Solvation_Energy-OPLS-2005>
-448.621917724609

> <b_mmod_Minimization_Converged-OPLS-2005>
0

> <r_mmod_RMS_Derivative-OPLS-2005>
2.1307361125946

$$$$
65
                    3D
 Structure written by MMmdl.
172181  0  0  1  0            999 V2000
  -30.6111  -14.6313   20.4929 C   0  0  0  0  0  0
  -30.4374  -12.3825   19.4522 C   0  0  0  0  0  0
  -29.5134  -12.5168   18.2224 C   0  0  0  0  0  0
  -28.0401  -12.3290   18.6386 C   0  0  0  0  0  0
  -27.6537  -13.2083   19.8580 C   0  0  2  0  0  0
  -28.6925  -13.0615   20.9932 C   0  0  0  0  0  0
  -25.2599  -13.8158   20.5720 C   0  0  0  0  0  0
  -24.1842  -13.0437   20.9192 C   0  0  0  0  0  0
  -24.6375  -11.6900   20.8693 C   0  0  0  0  0  0
  -23.9042  -10.4291   21.0398 C   0  0  0  0  0  0
  -24.3600   -9.4220   21.9190 C   0  0  0  0  0  0
  -23.6272   -8.2254   22.0759 C   0  0  0  0  0  0
  -22.4247   -8.0289   21.3564 C   0  0  0  0  0  0
  -21.9876   -9.0274   20.4679 C   0  0  0  0  0  0
  -22.7202  -10.2152   20.3073 C   0  0  0  0  0  0
  -21.6844   -6.0745   22.5294 C   0  0  0  0  0  0
  -21.4019   -6.5642   23.8228 C   0  0  0  0  0  0
  -21.3655   -5.6790   24.9188 C   0  0  0  0  0  0
  -21.6034   -4.3046   24.7233 C   0  0  0  0  0  0
  -21.8819   -3.8151   23.4342 C   0  0  0  0  0  0
  -21.9190   -4.6979   22.3410 C   0  0  0  0  0  0
  -22.7872  -13.5277   21.1843 C   0  0  0  0  0  0
  -22.1668   -4.2167   21.0989 F   0  0  0  0  0  0
  -21.5618   -3.4533   25.7744 F   0  0  0  0  0  0
  -30.0121  -13.4005   20.4345 N   0  0  0  0  0  0
  -26.2982  -12.9313   20.3246 N   0  0  0  0  0  0
  -25.9285  -11.6477   20.5653 N   0  0  0  0  0  0
  -22.0470  -12.8325   22.0396 N   0  0  0  0  0  0
  -25.4364  -15.1884   20.4262 N   0  0  0  0  0  0
  -31.7772  -14.7917   20.1207 O   0  0  0  0  0  0
  -21.6622   -6.8885   21.4254 O   0  0  0  0  0  0
  -22.3576  -14.5586   20.6670 O   0  0  0  0  0  0
  -24.6290  -31.8608   23.2070 C   0  0  0  0  0  0
  -25.9138  -32.4777   23.8379 C   0  0  1  0  0  0
  -27.2148  -27.3099   20.0940 C   0  0  0  0  0  0
  -25.5948  -33.8574   24.2290 N   0  0  0  0  0  0
  -23.4190  -30.4911   21.5515 C   0  0  2  0  0  0
  -24.8580  -28.9472   20.1221 C   0  0  0  0  0  0
  -22.7476  -29.4641   22.4948 C   0  0  0  0  0  0
  -18.0280  -28.1428   22.8449 C   0  0  0  0  0  0
  -24.1491  -36.7284   23.2643 C   0  0  0  0  0  0
  -25.9651  -30.7894   21.3776 C   0  0  0  0  0  0
  -26.0351  -29.4170   20.7159 C   0  0  0  0  0  0
  -27.2153  -28.6113   20.6917 C   0  0  0  0  0  0
  -25.9873  -26.8808   19.5286 C   0  0  0  0  0  0
  -24.8340  -27.6817   19.5270 C   0  0  0  0  0  0
  -23.6360  -29.8404   20.1634 C   0  0  0  0  0  0
  -25.4107  -36.3066   24.0334 C   0  0  1  0  0  0
  -20.5883  -28.3711   23.1299 C   0  0  2  0  0  0
  -20.6774  -26.9432   22.5446 C   0  0  0  0  0  0
  -19.5773  -26.6411   21.5222 C   0  0  0  0  0  0
  -18.1940  -26.7961   22.1606 C   0  0  0  0  0  0
  -19.1543  -28.8886   23.2866 C   0  0  0  0  0  0
  -18.9459  -30.1472   23.8906 C   0  0  0  0  0  0
  -17.6467  -30.6601   24.0593 C   0  0  0  0  0  0
  -25.9056  -34.9442   23.5099 C   0  0  0  0  0  0
  -16.5350  -29.9126   23.6324 C   0  0  0  0  0  0
  -16.7276  -28.6567   23.0294 C   0  0  0  0  0  0
  -26.4529  -31.6559   25.0721 C   0  0  0  0  0  0
  -25.3800  -31.3715   26.1488 C   0  0  0  0  0  0
  -27.0325  -30.2966   24.6173 C   0  0  0  0  0  0
  -27.6123  -32.4277   25.7446 C   0  0  0  0  0  0
  -27.5582  -37.1769   24.8457 C   0  0  0  0  0  0
  -21.4198  -29.3044   22.3690 N   0  0  0  0  0  0
  -26.4276  -37.3760   23.9429 N   0  0  0  0  0  0
  -24.6901  -31.0646   22.1011 N   0  0  0  0  0  0
  -23.4197  -28.8173   23.3041 O   0  0  0  0  0  0
  -28.3569  -26.4789   20.0871 O   0  0  0  0  0  0
  -26.5613  -34.8911   22.4667 O   0  0  0  0  0  0
  -23.5460  -32.1413   23.7389 O   0  0  0  0  0  0
  -30.9118  -19.2127   19.7977 C   0  0  0  0  0  0
  -28.6456  -19.3160   20.5911 C   0  0  0  0  0  0
  -30.9583  -17.8104   20.0516 C   0  0  0  0  0  0
  -28.6971  -17.9144   20.8605 C   0  0  0  0  0  0
  -29.7553  -20.0091   20.0439 C   0  0  0  0  0  0
  -29.8419  -17.1139   20.5818 C   0  0  0  0  0  0
  -32.0714  -24.4032   19.6303 C   0  0  0  0  0  0
  -29.6819  -23.8887   22.5209 C   0  0  0  0  0  0
  -30.8311  -24.7089   21.9158 C   0  0  0  0  0  0
  -29.5765  -22.5331   21.8077 C   0  0  0  0  0  0
  -30.7641  -24.7804   20.3654 C   0  0  2  0  0  0
  -29.5039  -24.0692   19.7717 C   0  0  2  0  0  0
  -28.2282  -25.3105   17.9661 C   0  0  0  0  0  0
  -33.1154  -24.3749   17.4699 C   0  0  0  0  0  0
  -29.7187  -21.5050   19.5413 C   0  0  0  0  0  0
  -28.2972  -25.1068   19.5021 C   0  0  2  0  0  0
  -29.7867  -15.6714   20.8301 N   0  0  0  0  0  0
  -29.2004  -22.6754   20.3741 N   0  3  1  0  0  0
  -33.0522  -23.9255   20.2052 O   0  0  0  0  0  0
  -32.0050  -24.6567   18.3093 O   0  0  0  0  0  0
  -31.4849  -12.4953   19.1649 H   0  0  0  0  0  0
  -30.3553  -11.3836   19.8852 H   0  0  0  0  0  0
  -29.7866  -11.7882   17.4585 H   0  0  0  0  0  0
  -29.6474  -13.4995   17.7660 H   0  0  0  0  0  0
  -27.8999  -11.2761   18.8919 H   0  0  0  0  0  0
  -27.3792  -12.5322   17.7978 H   0  0  0  0  0  0
  -27.6769  -14.2415   19.5068 H   0  0  0  0  0  0
  -28.6967  -12.0399   21.3771 H   0  0  0  0  0  0
  -28.4325  -13.6942   21.8447 H   0  0  0  0  0  0
  -25.2761   -9.5698   22.4751 H   0  0  0  0  0  0
  -24.0007   -7.4631   22.7435 H   0  0  0  0  0  0
  -21.0817   -8.8785   19.8971 H   0  0  0  0  0  0
  -22.3661  -10.9695   19.6171 H   0  0  0  0  0  0
  -21.2021   -7.6148   23.9749 H   0  0  0  0  0  0
  -21.1469   -6.0508   25.9092 H   0  0  0  0  0  0
  -22.0590   -2.7615   23.2839 H   0  0  0  0  0  0
  -22.4044  -12.0030   22.4899 H   0  0  0  0  0  0
  -21.1098  -13.1416   22.2560 H   0  0  0  0  0  0
  -24.6706  -15.8382   20.5591 H   0  0  0  0  0  0
  -26.2887  -15.6333   20.1129 H   0  0  0  0  0  0
  -26.7184  -32.5460   23.1100 H   0  0  0  0  0  0
  -25.0069  -33.9704   25.0426 H   0  0  0  0  0  0
  -22.7108  -31.3111   21.4143 H   0  0  0  0  0  0
  -23.3743  -35.9628   23.3298 H   0  0  0  0  0  0
  -24.3591  -36.8927   22.2064 H   0  0  0  0  0  0
  -23.7264  -37.6485   23.6688 H   0  0  0  0  0  0
  -26.1013  -31.5581   20.6151 H   0  0  0  0  0  0
  -26.8438  -30.8292   22.0106 H   0  0  0  0  0  0
  -28.1266  -28.9723   21.1471 H   0  0  0  0  0  0
  -25.8604  -25.9089   19.0809 H   0  0  0  0  0  0
  -23.9226  -27.3049   19.0834 H   0  0  0  0  0  0
  -23.7805  -30.6280   19.4216 H   0  0  0  0  0  0
  -22.7471  -29.2961   19.8404 H   0  0  0  0  0  0
  -25.1285  -36.1890   25.0827 H   0  0  0  0  0  0
  -20.9931  -28.3311   24.1440 H   0  0  0  0  0  0
  -20.5679  -26.2319   23.3653 H   0  0  0  0  0  0
  -21.6653  -26.7486   22.1267 H   0  0  0  0  0  0
  -19.6945  -25.6325   21.1270 H   0  0  0  0  0  0
  -19.6741  -27.3215   20.6762 H   0  0  0  0  0  0
  -17.4211  -26.6675   21.4014 H   0  0  0  0  0  0
  -18.0335  -26.0130   22.9046 H   0  0  0  0  0  0
  -19.7943  -30.7283   24.2284 H   0  0  0  0  0  0
  -17.5033  -31.6270   24.5217 H   0  0  0  0  0  0
  -15.5361  -30.3046   23.7655 H   0  0  0  0  0  0
  -15.8663  -28.0942   22.6936 H   0  0  0  0  0  0
  -24.6044  -30.6934   25.7903 H   0  0  0  0  0  0
  -24.8906  -32.2870   26.4832 H   0  0  0  0  0  0
  -25.8202  -30.9036   27.0309 H   0  0  0  0  0  0
  -26.2851  -29.6720   24.1264 H   0  0  0  0  0  0
  -27.4054  -29.7227   25.4667 H   0  0  0  0  0  0
  -27.8743  -30.4205   23.9350 H   0  0  0  0  0  0
  -27.2756  -33.3562   26.2085 H   0  0  0  0  0  0
  -28.3886  -32.6865   25.0218 H   0  0  0  0  0  0
  -28.0869  -31.8374   26.5306 H   0  0  0  0  0  0
  -28.2597  -38.0062   24.7472 H   0  0  0  0  0  0
  -28.1056  -36.2588   24.6265 H   0  0  0  0  0  0
  -27.2319  -37.1431   25.8865 H   0  0  0  0  0  0
  -20.9370  -29.8765   21.6905 H   0  0  0  0  0  0
  -26.0146  -38.2825   24.1471 H   0  0  0  0  0  0
  -31.7864  -19.6689   19.3528 H   0  0  0  0  0  0
  -27.7227  -19.8473   20.7780 H   0  0  0  0  0  0
  -31.8648  -17.2776   19.8010 H   0  0  0  0  0  0
  -27.8094  -17.4474   21.2673 H   0  0  0  0  0  0
  -28.7424  -24.4346   22.4408 H   0  0  0  0  0  0
  -29.8581  -23.7383   23.5873 H   0  0  0  0  0  0
  -31.7750  -24.2855   22.2632 H   0  0  0  0  0  0
  -30.8077  -25.7179   22.3286 H   0  0  0  0  0  0
  -28.8511  -21.8884   22.3095 H   0  0  0  0  0  0
  -30.5412  -22.0300   21.8865 H   0  0  0  0  0  0
  -30.6721  -25.8366   20.1220 H   0  0  0  0  0  0
  -29.7855  -23.7754   18.7623 H   0  0  0  0  0  0
  -28.0052  -24.3723   17.4595 H   0  0  0  0  0  0
  -29.1821  -25.6798   17.5867 H   0  0  0  0  0  0
  -27.4809  -26.0243   17.6343 H   0  0  0  0  0  0
  -32.8112  -24.4140   16.4219 H   0  0  0  0  0  0
  -33.5241  -23.3815   17.6642 H   0  0  0  0  0  0
  -33.9052  -25.1132   17.6139 H   0  0  0  0  0  0
  -29.1993  -21.5094   18.5825 H   0  0  0  0  0  0
  -30.7545  -21.7513   19.3070 H   0  0  0  0  0  0
  -27.3902  -24.6143   19.8539 H   0  0  0  0  0  0
  -28.8960  -15.3477   21.1738 H   0  0  0  0  0  0
  -28.1956  -22.5729   20.3524 H   0  0  0  0  0  0
  1 25  1  0  0  0
  1 30  2  0  0  0
  1 87  1  0  0  0
  2  3  1  0  0  0
  2 25  1  0  0  0
  2 91  1  0  0  0
  2 92  1  0  0  0
  3  4  1  0  0  0
  3 93  1  0  0  0
  3 94  1  0  0  0
  4  5  1  0  0  0
  4 95  1  0  0  0
  4 96  1  0  0  0
  5  6  1  0  0  0
  5 26  1  0  0  0
  5 97  1  0  0  0
  6 25  1  0  0  0
  6 98  1  0  0  0
  6 99  1  0  0  0
  7  8  2  0  0  0
  7 26  1  0  0  0
  7 29  1  0  0  0
  8  9  1  0  0  0
  8 22  1  0  0  0
  9 10  1  0  0  0
  9 27  2  0  0  0
 10 11  2  0  0  0
 10 15  1  0  0  0
 11 12  1  0  0  0
 11100  1  0  0  0
 12 13  2  0  0  0
 12101  1  0  0  0
 13 14  1  0  0  0
 13 31  1  0  0  0
 14 15  2  0  0  0
 14102  1  0  0  0
 15103  1  0  0  0
 16 17  2  0  0  0
 16 21  1  0  0  0
 16 31  1  0  0  0
 17 18  1  0  0  0
 17104  1  0  0  0
 18 19  2  0  0  0
 18105  1  0  0  0
 19 20  1  0  0  0
 19 24  1  0  0  0
 20 21  2  0  0  0
 20106  1  0  0  0
 21 23  1  0  0  0
 22 28  1  0  0  0
 22 32  2  0  0  0
 26 27  1  0  0  0
 28107  1  0  0  0
 28108  1  0  0  0
 29109  1  0  0  0
 29110  1  0  0  0
 33 34  1  0  0  0
 33 66  1  0  0  0
 33 70  2  0  0  0
 34 36  1  0  0  0
 34 59  1  0  0  0
 34111  1  0  0  0
 35 44  2  0  0  0
 35 45  1  0  0  0
 35 68  1  0  0  0
 36 56  1  0  0  0
 36112  1  0  0  0
 37 39  1  0  0  0
 37 47  1  0  0  0
 37 66  1  0  0  0
 37113  1  0  0  0
 38 43  2  0  0  0
 38 46  1  0  0  0
 38 47  1  0  0  0
 39 64  1  0  0  0
 39 67  2  0  0  0
 40 52  1  0  0  0
 40 53  2  0  0  0
 40 58  1  0  0  0
 41114  1  0  0  0
 41115  1  0  0  0
 41116  1  0  0  0
 41 48  1  0  0  0
 42 43  1  0  0  0
 42 66  1  0  0  0
 42117  1  0  0  0
 42118  1  0  0  0
 43 44  1  0  0  0
 44119  1  0  0  0
 45 46  2  0  0  0
 45120  1  0  0  0
 46121  1  0  0  0
 47122  1  0  0  0
 47123  1  0  0  0
 48 56  1  0  0  0
 48 65  1  0  0  0
 48124  1  0  0  0
 49 50  1  0  0  0
 49 53  1  0  0  0
 49 64  1  0  0  0
 49125  1  0  0  0
 50 51  1  0  0  0
 50126  1  0  0  0
 50127  1  0  0  0
 51 52  1  0  0  0
 51128  1  0  0  0
 51129  1  0  0  0
 52130  1  0  0  0
 52131  1  0  0  0
 53 54  1  0  0  0
 54 55  2  0  0  0
 54132  1  0  0  0
 55 57  1  0  0  0
 55133  1  0  0  0
 56 69  2  0  0  0
 57 58  2  0  0  0
 57134  1  0  0  0
 58135  1  0  0  0
 59 60  1  0  0  0
 59 61  1  0  0  0
 59 62  1  0  0  0
 60136  1  0  0  0
 60137  1  0  0  0
 60138  1  0  0  0
 61139  1  0  0  0
 61140  1  0  0  0
 61141  1  0  0  0
 62142  1  0  0  0
 62143  1  0  0  0
 62144  1  0  0  0
 63 65  1  0  0  0
 63145  1  0  0  0
 63146  1  0  0  0
 63147  1  0  0  0
 64148  1  0  0  0
 65149  1  0  0  0
 68 86  1  0  0  0
 71 73  2  0  0  0
 71 75  1  0  0  0
 71150  1  0  0  0
 72 74  1  0  0  0
 72 75  2  0  0  0
 72151  1  0  0  0
 73 76  1  0  0  0
 73152  1  0  0  0
 74 76  2  0  0  0
 74153  1  0  0  0
 75 85  1  0  0  0
 76 87  1  0  0  0
 77 89  2  0  0  0
 77 90  1  0  0  0
 77 81  1  0  0  0
 78 79  1  0  0  0
 78 80  1  0  0  0
 78154  1  0  0  0
 78155  1  0  0  0
 79 81  1  0  0  0
 79156  1  0  0  0
 79157  1  0  0  0
 80 88  1  0  0  0
 80158  1  0  0  0
 80159  1  0  0  0
 81 82  1  0  0  0
 81160  1  0  0  0
 82 86  1  0  0  0
 82 88  1  0  0  0
 82161  1  0  0  0
 83162  1  0  0  0
 83163  1  0  0  0
 83164  1  0  0  0
 83 86  1  0  0  0
 84 90  1  0  0  0
 84165  1  0  0  0
 84166  1  0  0  0
 84167  1  0  0  0
 85168  1  0  0  0
 85169  1  0  0  0
 85 88  1  0  0  0
 86170  1  0  0  0
 87171  1  0  0  0
 88172  1  0  0  0
M  CHG  1  88   1
M  ISO  4   1 100  68 101  86 101  87 100
M  END
> <chiral flag>
0

> <version>
0

> <s_m_source_file>
/data/baiqing/PycharmProjects/Reinvent-master-3.2/result/LINK_invent/BTK/process_docking_weight1_custom_sum_contain_oxygen_bond_distance_aromatic_linkinvent_7_9_3/rearranged_h_0116.sdf

> <i_m_source_file_index>
65

> <r_mmod_Potential_Energy-OPLS-2005>
27.3783302307129

> <r_mmod_Stretch_Energy-OPLS-2005>
96.1606674194336

> <r_mmod_Bend_Energy-OPLS-2005>
179.79231262207

> <r_mmod_Torsional_Energy-OPLS-2005>
269.757049560547

> <r_mmod_Improper_Torsional_Energy-OPLS-2005>
4.80454254150391

> <r_mmod_Van_der_Waal_Energy-OPLS-2005>
168.278259277344

> <r_mmod_Electrostatic_Energy-OPLS-2005>
-307.097595214844

> <r_mmod_Solvation_Energy-OPLS-2005>
-432.117340087891

> <b_mmod_Minimization_Converged-OPLS-2005>
0

> <r_mmod_RMS_Derivative-OPLS-2005>
3.81581091880798

$$$$
66
                    3D
 Structure written by MMmdl.
171179  0  0  1  0            999 V2000
  -30.6942  -14.5751   20.3484 C   0  0  0  0  0  0
  -30.4327  -12.2977   19.4516 C   0  0  0  0  0  0
  -29.5038  -12.2926   18.2225 C   0  0  0  0  0  0
  -28.0087  -12.2978   18.6277 C   0  0  0  0  0  0
  -27.6395  -13.1991   19.8450 C   0  0  2  0  0  0
  -28.7096  -13.1367   20.9536 C   0  0  0  0  0  0
  -25.2548  -13.8106   20.5746 C   0  0  0  0  0  0
  -24.1791  -13.0400   20.9225 C   0  0  0  0  0  0
  -24.6342  -11.6866   20.8805 C   0  0  0  0  0  0
  -23.9007  -10.4259   21.0449 C   0  0  0  0  0  0
  -24.3570   -9.4176   21.9215 C   0  0  0  0  0  0
  -23.6260   -8.2200   22.0743 C   0  0  0  0  0  0
  -22.4251   -8.0240   21.3527 C   0  0  0  0  0  0
  -21.9882   -9.0219   20.4634 C   0  0  0  0  0  0
  -22.7198  -10.2113   20.3080 C   0  0  0  0  0  0
  -21.6830   -6.0704   22.5270 C   0  0  0  0  0  0
  -21.4019   -6.5625   23.8202 C   0  0  0  0  0  0
  -21.3663   -5.6781   24.9173 C   0  0  0  0  0  0
  -21.6033   -4.3037   24.7225 C   0  0  0  0  0  0
  -21.8821   -3.8132   23.4356 C   0  0  0  0  0  0
  -21.9189   -4.6932   22.3407 C   0  0  0  0  0  0
  -22.7836  -13.5227   21.1863 C   0  0  0  0  0  0
  -22.1657   -4.2123   21.0980 F   0  0  0  0  0  0
  -21.5625   -3.4527   25.7751 F   0  0  0  0  0  0
  -30.0072  -13.3985   20.3205 N   0  0  0  0  0  0
  -26.2943  -12.9241   20.3384 N   0  0  0  0  0  0
  -25.9264  -11.6425   20.5888 N   0  0  0  0  0  0
  -22.0457  -12.8230   22.0416 N   0  0  0  0  0  0
  -25.4302  -15.1830   20.4186 N   0  0  0  0  0  0
  -31.9236  -14.6061   20.2863 O   0  0  0  0  0  0
  -21.6620   -6.8837   21.4226 O   0  0  0  0  0  0
  -22.3544  -14.5534   20.6691 O   0  0  0  0  0  0
  -24.6153  -31.8668   23.2116 C   0  0  0  0  0  0
  -25.9048  -32.4821   23.8395 C   0  0  1  0  0  0
  -27.2245  -27.4349   20.0989 C   0  0  0  0  0  0
  -25.5928  -33.8615   24.2350 N   0  0  0  0  0  0
  -23.4019  -30.4966   21.5480 C   0  0  2  0  0  0
  -24.8485  -28.9756   20.1034 C   0  0  0  0  0  0
  -22.7402  -29.4664   22.4940 C   0  0  0  0  0  0
  -18.0278  -28.1374   22.8491 C   0  0  0  0  0  0
  -24.1479  -36.7293   23.2637 C   0  0  0  0  0  0
  -25.9316  -30.8387   21.3640 C   0  0  0  0  0  0
  -26.0098  -29.4764   20.7075 C   0  0  0  0  0  0
  -27.2023  -28.7134   20.7034 C   0  0  0  0  0  0
  -26.0513  -26.9728   19.4577 C   0  0  0  0  0  0
  -24.8666  -27.7222   19.4734 C   0  0  0  0  0  0
  -23.6115  -29.8408   20.1573 C   0  0  0  0  0  0
  -25.4101  -36.3101   24.0346 C   0  0  1  0  0  0
  -20.5867  -28.3655   23.1297 C   0  0  2  0  0  0
  -20.6764  -26.9396   22.5405 C   0  0  0  0  0  0
  -19.5735  -26.6388   21.5207 C   0  0  0  0  0  0
  -18.1916  -26.7924   22.1627 C   0  0  0  0  0  0
  -19.1531  -28.8835   23.2894 C   0  0  0  0  0  0
  -18.9467  -30.1439   23.8902 C   0  0  0  0  0  0
  -17.6471  -30.6582   24.0575 C   0  0  0  0  0  0
  -25.9027  -34.9465   23.5139 C   0  0  0  0  0  0
  -16.5356  -29.9089   23.6330 C   0  0  0  0  0  0
  -16.7275  -28.6512   23.0342 C   0  0  0  0  0  0
  -26.4483  -31.6575   25.0708 C   0  0  0  0  0  0
  -25.3779  -31.3666   26.1482 C   0  0  0  0  0  0
  -27.0289  -30.3010   24.6051 C   0  0  0  0  0  0
  -27.6057  -32.4285   25.7484 C   0  0  0  0  0  0
  -27.5576  -37.1788   24.8474 C   0  0  0  0  0  0
  -21.4124  -29.3030   22.3698 N   0  0  0  0  0  0
  -26.4280  -37.3796   23.9434 N   0  0  0  0  0  0
  -24.6675  -31.0793   22.1007 N   0  0  0  0  0  0
  -23.4195  -28.8207   23.2970 O   0  0  0  0  0  0
  -28.3629  -26.6479   20.1656 O   0  0  0  0  0  0
  -26.5565  -34.8921   22.4685 O   0  0  0  0  0  0
  -23.5344  -32.1409   23.7500 O   0  0  0  0  0  0
  -30.7419  -18.1582   18.9602 C   0  0  0  0  0  0
  -30.1163  -16.8452   20.8446 C   0  0  0  0  0  0
  -30.5033  -17.1300   18.1223 C   0  0  0  0  0  0
  -30.3463  -18.0896   20.3532 C   0  0  0  0  0  0
  -29.8005  -15.9569   18.6670 C   0  0  0  0  0  0
  -30.9411  -18.5446   16.0087 C   0  0  0  0  0  0
  -32.2042  -16.3863   16.3802 C   0  0  0  0  0  0
  -29.5673  -21.9437   22.4494 C   0  0  0  0  0  0
  -27.6750  -25.2003   22.0118 C   0  0  0  0  0  0
  -28.9707  -22.8596   20.1469 C   0  0  0  0  0  0
  -29.3701  -24.3574   20.3178 C   0  0  0  0  0  0
  -29.3406  -20.3725   20.4721 C   0  0  0  0  0  0
  -30.8839  -17.1363   16.6319 C   0  0  0  0  0  0
  -29.7770  -21.7898   20.9340 C   0  0  2  0  0  0
  -28.1380  -25.2698   20.5420 C   0  0  1  0  0  0
  -30.0179  -15.7089   20.0008 N   0  0  0  0  0  0
  -30.0786  -19.2512   21.0657 N   0  0  0  0  0  0
  -29.0572  -15.2800   17.9611 O   0  0  0  0  0  0
  -31.4741  -12.3912   19.1342 H   0  0  0  0  0  0
  -30.3612  -11.3527   19.9895 H   0  0  0  0  0  0
  -29.7021  -11.3946   17.6366 H   0  0  0  0  0  0
  -29.7533  -13.0999   17.5433 H   0  0  0  0  0  0
  -27.7582  -11.2639   18.8627 H   0  0  0  0  0  0
  -27.3899  -12.5562   17.7683 H   0  0  0  0  0  0
  -27.6063  -14.2216   19.4894 H   0  0  0  0  0  0
  -28.7143  -12.1630   21.4452 H   0  0  0  0  0  0
  -28.5015  -13.8821   21.7249 H   0  0  0  0  0  0
  -25.2708   -9.5645   22.4799 H   0  0  0  0  0  0
  -23.9950   -7.4592   22.7467 H   0  0  0  0  0  0
  -21.0793   -8.8723   19.8969 H   0  0  0  0  0  0
  -22.3628  -10.9641   19.6189 H   0  0  0  0  0  0
  -21.2030   -7.6142   23.9695 H   0  0  0  0  0  0
  -21.1482   -6.0522   25.9062 H   0  0  0  0  0  0
  -22.0612   -2.7590   23.2864 H   0  0  0  0  0  0
  -22.4049  -11.9899   22.4841 H   0  0  0  0  0  0
  -21.1080  -13.1271   22.2608 H   0  0  0  0  0  0
  -24.6731  -15.8466   20.5378 H   0  0  0  0  0  0
  -26.2938  -15.6150   20.1138 H   0  0  0  0  0  0
  -26.7139  -32.5538   23.1163 H   0  0  0  0  0  0
  -25.0172  -33.9781   25.0570 H   0  0  0  0  0  0
  -22.6910  -31.3150   21.4126 H   0  0  0  0  0  0
  -23.3733  -35.9633   23.3321 H   0  0  0  0  0  0
  -24.3579  -36.8874   22.2048 H   0  0  0  0  0  0
  -23.7242  -37.6512   23.6621 H   0  0  0  0  0  0
  -26.0459  -31.6095   20.6014 H   0  0  0  0  0  0
  -26.8182  -30.8863   21.9850 H   0  0  0  0  0  0
  -28.0909  -29.0867   21.1911 H   0  0  0  0  0  0
  -26.0301  -26.0364   18.9226 H   0  0  0  0  0  0
  -23.9835  -27.3375   18.9828 H   0  0  0  0  0  0
  -23.7193  -30.6219   19.4021 H   0  0  0  0  0  0
  -22.7339  -29.2633   19.8595 H   0  0  0  0  0  0
  -25.1266  -36.1950   25.0836 H   0  0  0  0  0  0
  -20.9987  -28.3224   24.1401 H   0  0  0  0  0  0
  -20.5650  -26.2261   23.3581 H   0  0  0  0  0  0
  -21.6633  -26.7417   22.1200 H   0  0  0  0  0  0
  -19.6883  -25.6308   21.1212 H   0  0  0  0  0  0
  -19.6673  -27.3226   20.6756 H   0  0  0  0  0  0
  -17.4182  -26.6680   21.4040 H   0  0  0  0  0  0
  -18.0308  -26.0064   22.9013 H   0  0  0  0  0  0
  -19.7949  -30.7260   24.2257 H   0  0  0  0  0  0
  -17.5031  -31.6266   24.5176 H   0  0  0  0  0  0
  -15.5359  -30.3003   23.7638 H   0  0  0  0  0  0
  -15.8664  -28.0849   22.7010 H   0  0  0  0  0  0
  -24.5997  -30.6949   25.7871 H   0  0  0  0  0  0
  -24.8931  -32.2798   26.4917 H   0  0  0  0  0  0
  -25.8195  -30.8898   27.0239 H   0  0  0  0  0  0
  -26.2800  -29.6789   24.1126 H   0  0  0  0  0  0
  -27.4093  -29.7223   25.4477 H   0  0  0  0  0  0
  -27.8634  -30.4328   23.9164 H   0  0  0  0  0  0
  -27.2665  -33.3568   26.2073 H   0  0  0  0  0  0
  -28.3857  -32.6846   25.0316 H   0  0  0  0  0  0
  -28.0713  -31.8388   26.5383 H   0  0  0  0  0  0
  -28.2579  -38.0094   24.7522 H   0  0  0  0  0  0
  -28.1065  -36.2611   24.6276 H   0  0  0  0  0  0
  -27.2278  -37.1439   25.8872 H   0  0  0  0  0  0
  -20.9237  -29.8808   21.6995 H   0  0  0  0  0  0
  -26.0143  -38.2859   24.1479 H   0  0  0  0  0  0
  -31.2714  -19.0308   18.6054 H   0  0  0  0  0  0
  -29.7547  -16.6637   21.8492 H   0  0  0  0  0  0
  -30.0384  -19.1185   16.2219 H   0  0  0  0  0  0
  -31.0384  -18.4869   14.9232 H   0  0  0  0  0  0
  -31.7962  -19.1124   16.3763 H   0  0  0  0  0  0
  -32.1742  -15.3730   16.7819 H   0  0  0  0  0  0
  -33.0510  -16.9000   16.8374 H   0  0  0  0  0  0
  -32.4087  -16.2995   15.3113 H   0  0  0  0  0  0
  -28.5382  -21.7103   22.7313 H   0  0  0  0  0  0
  -29.7778  -22.9582   22.7885 H   0  0  0  0  0  0
  -30.2194  -21.2716   23.0071 H   0  0  0  0  0  0
  -28.4718  -25.5036   22.6886 H   0  0  0  0  0  0
  -27.3740  -24.1887   22.2853 H   0  0  0  0  0  0
  -26.8213  -25.8501   22.2063 H   0  0  0  0  0  0
  -29.0192  -22.6286   19.0811 H   0  0  0  0  0  0
  -27.9190  -22.7262   20.4012 H   0  0  0  0  0  0
  -29.8910  -24.6836   19.4167 H   0  0  0  0  0  0
  -30.0975  -24.4860   21.1199 H   0  0  0  0  0  0
  -29.4099  -20.3297   19.3854 H   0  0  0  0  0  0
  -28.2817  -20.2181   20.6907 H   0  0  0  0  0  0
  -30.0977  -16.6007   16.0946 H   0  0  0  0  0  0
  -30.8355  -21.9233   20.7019 H   0  0  0  0  0  0
  -27.3595  -24.8451   19.9141 H   0  0  0  0  0  0
  -29.8726  -19.1266   22.0522 H   0  0  0  0  0  0
  1 25  1  0  0  0
  1 30  2  0  0  0
  1 86  1  0  0  0
  2  3  1  0  0  0
  2 25  1  0  0  0
  2 89  1  0  0  0
  2 90  1  0  0  0
  3  4  1  0  0  0
  3 91  1  0  0  0
  3 92  1  0  0  0
  4  5  1  0  0  0
  4 93  1  0  0  0
  4 94  1  0  0  0
  5  6  1  0  0  0
  5 26  1  0  0  0
  5 95  1  0  0  0
  6 25  1  0  0  0
  6 96  1  0  0  0
  6 97  1  0  0  0
  7  8  2  0  0  0
  7 26  1  0  0  0
  7 29  1  0  0  0
  8  9  1  0  0  0
  8 22  1  0  0  0
  9 10  1  0  0  0
  9 27  2  0  0  0
 10 11  2  0  0  0
 10 15  1  0  0  0
 11 12  1  0  0  0
 11 98  1  0  0  0
 12 13  2  0  0  0
 12 99  1  0  0  0
 13 14  1  0  0  0
 13 31  1  0  0  0
 14 15  2  0  0  0
 14100  1  0  0  0
 15101  1  0  0  0
 16 17  2  0  0  0
 16 21  1  0  0  0
 16 31  1  0  0  0
 17 18  1  0  0  0
 17102  1  0  0  0
 18 19  2  0  0  0
 18103  1  0  0  0
 19 20  1  0  0  0
 19 24  1  0  0  0
 20 21  2  0  0  0
 20104  1  0  0  0
 21 23  1  0  0  0
 22 28  1  0  0  0
 22 32  2  0  0  0
 26 27  1  0  0  0
 28105  1  0  0  0
 28106  1  0  0  0
 29107  1  0  0  0
 29108  1  0  0  0
 33 34  1  0  0  0
 33 66  1  0  0  0
 33 70  2  0  0  0
 34 36  1  0  0  0
 34 59  1  0  0  0
 34109  1  0  0  0
 35 44  2  0  0  0
 35 45  1  0  0  0
 35 68  1  0  0  0
 36 56  1  0  0  0
 36110  1  0  0  0
 37 39  1  0  0  0
 37 47  1  0  0  0
 37 66  1  0  0  0
 37111  1  0  0  0
 38 43  2  0  0  0
 38 46  1  0  0  0
 38 47  1  0  0  0
 39 64  1  0  0  0
 39 67  2  0  0  0
 40 52  1  0  0  0
 40 53  2  0  0  0
 40 58  1  0  0  0
 41112  1  0  0  0
 41113  1  0  0  0
 41114  1  0  0  0
 41 48  1  0  0  0
 42 43  1  0  0  0
 42 66  1  0  0  0
 42115  1  0  0  0
 42116  1  0  0  0
 43 44  1  0  0  0
 44117  1  0  0  0
 45 46  2  0  0  0
 45118  1  0  0  0
 46119  1  0  0  0
 47120  1  0  0  0
 47121  1  0  0  0
 48 56  1  0  0  0
 48 65  1  0  0  0
 48122  1  0  0  0
 49 50  1  0  0  0
 49 53  1  0  0  0
 49 64  1  0  0  0
 49123  1  0  0  0
 50 51  1  0  0  0
 50124  1  0  0  0
 50125  1  0  0  0
 51 52  1  0  0  0
 51126  1  0  0  0
 51127  1  0  0  0
 52128  1  0  0  0
 52129  1  0  0  0
 53 54  1  0  0  0
 54 55  2  0  0  0
 54130  1  0  0  0
 55 57  1  0  0  0
 55131  1  0  0  0
 56 69  2  0  0  0
 57 58  2  0  0  0
 57132  1  0  0  0
 58133  1  0  0  0
 59 60  1  0  0  0
 59 61  1  0  0  0
 59 62  1  0  0  0
 60134  1  0  0  0
 60135  1  0  0  0
 60136  1  0  0  0
 61137  1  0  0  0
 61138  1  0  0  0
 61139  1  0  0  0
 62140  1  0  0  0
 62141  1  0  0  0
 62142  1  0  0  0
 63 65  1  0  0  0
 63143  1  0  0  0
 63144  1  0  0  0
 63145  1  0  0  0
 64146  1  0  0  0
 65147  1  0  0  0
 68 85  1  0  0  0
 71 73  2  0  0  0
 71 74  1  0  0  0
 71148  1  0  0  0
 72 74  2  0  0  0
 72 86  1  0  0  0
 72149  1  0  0  0
 73 75  1  0  0  0
 73 83  1  0  0  0
 74 87  1  0  0  0
 75 86  1  0  0  0
 75 88  2  0  0  0
 76150  1  0  0  0
 76151  1  0  0  0
 76152  1  0  0  0
 76 83  1  0  0  0
 77 83  1  0  0  0
 77153  1  0  0  0
 77154  1  0  0  0
 77155  1  0  0  0
 78156  1  0  0  0
 78157  1  0  0  0
 78158  1  0  0  0
 78 84  1  0  0  0
 79159  1  0  0  0
 79160  1  0  0  0
 79161  1  0  0  0
 79 85  1  0  0  0
 80 81  1  0  0  0
 80 84  1  0  0  0
 80162  1  0  0  0
 80163  1  0  0  0
 81 85  1  0  0  0
 81164  1  0  0  0
 81165  1  0  0  0
 82 84  1  0  0  0
 82 87  1  0  0  0
 82166  1  0  0  0
 82167  1  0  0  0
 83168  1  0  0  0
 84169  1  0  0  0
 85170  1  0  0  0
 87171  1  0  0  0
M  ISO  4   1 100  68 101  85 101  86 100
M  END
> <chiral flag>
0

> <version>
0

> <s_m_source_file>
/data/baiqing/PycharmProjects/Reinvent-master-3.2/result/LINK_invent/BTK/process_docking_weight1_custom_sum_contain_oxygen_bond_distance_aromatic_linkinvent_7_9_3/rearranged_h_0116.sdf

> <i_m_source_file_index>
66

> <r_mmod_Potential_Energy-OPLS-2005>
237.890594482422

> <r_mmod_Stretch_Energy-OPLS-2005>
46.2881202697754

> <r_mmod_Bend_Energy-OPLS-2005>
115.405792236328

> <r_mmod_Torsional_Energy-OPLS-2005>
408.076049804688

> <r_mmod_Improper_Torsional_Energy-OPLS-2005>
17.983341217041

> <r_mmod_Van_der_Waal_Energy-OPLS-2005>
173.781188964844

> <r_mmod_Electrostatic_Energy-OPLS-2005>
-384.2783203125

> <r_mmod_Solvation_Energy-OPLS-2005>
-190.4208984375

> <b_mmod_Minimization_Converged-OPLS-2005>
0

> <r_mmod_RMS_Derivative-OPLS-2005>
3.5949182510376

$$$$
67
                    3D
 Structure written by MMmdl.
185194  0  0  1  0            999 V2000
  -30.7106  -14.5408   20.3508 C   0  0  0  0  0  0
  -30.4165  -12.3014   19.3990 C   0  0  0  0  0  0
  -29.4669  -12.3621   18.1853 C   0  0  0  0  0  0
  -27.9918  -12.2872   18.6288 C   0  0  0  0  0  0
  -27.6393  -13.1916   19.8436 C   0  0  2  0  0  0
  -28.7111  -13.1166   20.9505 C   0  0  0  0  0  0
  -25.2587  -13.8119   20.5720 C   0  0  0  0  0  0
  -24.1813  -13.0400   20.9208 C   0  0  0  0  0  0
  -24.6346  -11.6874   20.8785 C   0  0  0  0  0  0
  -23.9026  -10.4291   21.0461 C   0  0  0  0  0  0
  -24.3621   -9.4218   21.9203 C   0  0  0  0  0  0
  -23.6319   -8.2259   22.0771 C   0  0  0  0  0  0
  -22.4299   -8.0310   21.3574 C   0  0  0  0  0  0
  -21.9927   -9.0271   20.4669 C   0  0  0  0  0  0
  -22.7218  -10.2157   20.3096 C   0  0  0  0  0  0
  -21.6863   -6.0781   22.5300 C   0  0  0  0  0  0
  -21.4009   -6.5681   23.8233 C   0  0  0  0  0  0
  -21.3645   -5.6824   24.9181 C   0  0  0  0  0  0
  -21.6037   -4.3088   24.7218 C   0  0  0  0  0  0
  -21.8825   -3.8196   23.4339 C   0  0  0  0  0  0
  -21.9203   -4.7016   22.3403 C   0  0  0  0  0  0
  -22.7869  -13.5238   21.1853 C   0  0  0  0  0  0
  -22.1686   -4.2221   21.0981 F   0  0  0  0  0  0
  -21.5595   -3.4556   25.7719 F   0  0  0  0  0  0
  -30.0189  -13.3698   20.3264 N   0  0  0  0  0  0
  -26.2960  -12.9206   20.3382 N   0  0  0  0  0  0
  -25.9255  -11.6398   20.5832 N   0  0  0  0  0  0
  -22.0532  -12.8223   22.0428 N   0  0  0  0  0  0
  -25.4313  -15.1826   20.4084 N   0  0  0  0  0  0
  -31.9395  -14.5791   20.2897 O   0  0  0  0  0  0
  -21.6676   -6.8908   21.4267 O   0  0  0  0  0  0
  -22.3566  -14.5550   20.6741 O   0  0  0  0  0  0
  -24.6184  -31.8642   23.2084 C   0  0  0  0  0  0
  -25.9053  -32.4808   23.8393 C   0  0  1  0  0  0
  -27.2120  -27.3938   20.1012 C   0  0  0  0  0  0
  -25.5898  -33.8612   24.2322 N   0  0  0  0  0  0
  -23.4072  -30.4860   21.5531 C   0  0  2  0  0  0
  -24.8531  -28.9547   20.1089 C   0  0  0  0  0  0
  -22.7437  -29.4609   22.5029 C   0  0  0  0  0  0
  -18.0266  -28.1359   22.8513 C   0  0  0  0  0  0
  -24.1491  -36.7304   23.2642 C   0  0  0  0  0  0
  -25.9422  -30.8167   21.3691 C   0  0  0  0  0  0
  -26.0179  -29.4521   20.7083 C   0  0  0  0  0  0
  -27.2075  -28.6810   20.6972 C   0  0  0  0  0  0
  -26.0323  -26.9221   19.4925 C   0  0  0  0  0  0
  -24.8575  -27.6932   19.4913 C   0  0  0  0  0  0
  -23.6140  -29.8211   20.1668 C   0  0  0  0  0  0
  -25.4110  -36.3110   24.0341 C   0  0  1  0  0  0
  -20.5859  -28.3618   23.1354 C   0  0  2  0  0  0
  -20.6765  -26.9361   22.5443 C   0  0  0  0  0  0
  -19.5747  -26.6366   21.5239 C   0  0  0  0  0  0
  -18.1907  -26.7916   22.1631 C   0  0  0  0  0  0
  -19.1518  -28.8816   23.2924 C   0  0  0  0  0  0
  -18.9436  -30.1420   23.8937 C   0  0  0  0  0  0
  -17.6437  -30.6573   24.0546 C   0  0  0  0  0  0
  -25.9044  -34.9469   23.5139 C   0  0  0  0  0  0
  -16.5330  -29.9064   23.6333 C   0  0  0  0  0  0
  -16.7252  -28.6472   23.0383 C   0  0  0  0  0  0
  -26.4471  -31.6608   25.0735 C   0  0  0  0  0  0
  -25.3710  -31.3733   26.1468 C   0  0  0  0  0  0
  -27.0296  -30.3048   24.6124 C   0  0  0  0  0  0
  -27.6038  -32.4349   25.7493 C   0  0  0  0  0  0
  -27.5595  -37.1793   24.8454 C   0  0  0  0  0  0
  -21.4167  -29.2988   22.3784 N   0  0  0  0  0  0
  -26.4287  -37.3802   23.9434 N   0  0  0  0  0  0
  -24.6753  -31.0701   22.1002 N   0  0  0  0  0  0
  -23.4202  -28.8142   23.3060 O   0  0  0  0  0  0
  -28.3218  -26.5692   20.1172 O   0  0  0  0  0  0
  -26.5610  -34.8918   22.4701 O   0  0  0  0  0  0
  -23.5372  -32.1428   23.7441 O   0  0  0  0  0  0
  -28.0541  -23.5986   18.9589 C   0  0  0  0  0  0
  -29.2328  -22.9787   20.7322 C   0  0  0  0  0  0
  -28.5012  -24.0371   20.2388 C   0  0  0  0  0  0
  -28.5480  -22.3447   18.6884 C   0  0  0  0  0  0
  -31.2857  -18.9926   21.5181 C   0  0  0  0  0  0
  -28.8027  -19.1067   21.5737 C   0  0  0  0  0  0
  -31.2446  -17.7875   20.5643 C   0  0  0  0  0  0
  -28.7248  -17.7361   20.8380 C   0  0  0  0  0  0
  -30.0842  -19.9443   21.2869 C   0  0  2  0  0  0
  -30.0350  -16.8838   20.8642 C   0  0  1  0  0  0
  -31.7327  -16.9392   17.2687 C   0  0  0  0  0  0
  -28.9902  -25.6071   22.2040 C   0  0  0  0  0  0
  -27.9228  -22.3078   16.2217 C   0  0  0  0  0  0
  -27.4690  -20.3039   17.6267 C   0  0  0  0  0  0
  -31.5496  -21.1258   19.4862 C   0  0  0  0  0  0
  -30.8599  -15.7034   17.5260 C   0  0  0  0  0  0
  -29.7180  -15.9060   18.5588 C   0  0  0  0  0  0
  -28.1662  -25.3751   20.9322 C   0  0  1  0  0  0
  -28.4101  -21.5047   17.4377 C   0  0  0  0  0  0
  -30.1240  -20.7169   19.9098 C   0  0  2  0  0  0
  -29.2836  -21.9370   19.8058 N   0  0  0  0  0  0
  -30.0050  -15.6604   20.0049 N   0  0  0  0  0  0
  -31.4507  -12.3993   19.0556 H   0  0  0  0  0  0
  -30.3471  -11.3290   19.8873 H   0  0  0  0  0  0
  -29.6724  -11.5253   17.5157 H   0  0  0  0  0  0
  -29.6431  -13.2471   17.5788 H   0  0  0  0  0  0
  -27.8039  -11.2446   18.8896 H   0  0  0  0  0  0
  -27.3360  -12.5048   17.7844 H   0  0  0  0  0  0
  -27.6162  -14.2115   19.4847 H   0  0  0  0  0  0
  -28.7033  -12.1444   21.4450 H   0  0  0  0  0  0
  -28.4945  -13.8595   21.7191 H   0  0  0  0  0  0
  -25.2787   -9.5690   22.4718 H   0  0  0  0  0  0
  -24.0065   -7.4606   22.7427 H   0  0  0  0  0  0
  -21.0893   -8.8772   19.8924 H   0  0  0  0  0  0
  -22.3711  -10.9701   19.6210 H   0  0  0  0  0  0
  -21.2040   -7.6191   23.9765 H   0  0  0  0  0  0
  -21.1430   -6.0536   25.9074 H   0  0  0  0  0  0
  -22.0628   -2.7678   23.2802 H   0  0  0  0  0  0
  -22.4227  -11.9917   22.4785 H   0  0  0  0  0  0
  -21.1117  -13.1167   22.2578 H   0  0  0  0  0  0
  -24.6616  -15.8366   20.4953 H   0  0  0  0  0  0
  -26.2876  -15.6191   20.0894 H   0  0  0  0  0  0
  -26.7104  -32.5524   23.1144 H   0  0  0  0  0  0
  -25.0045  -33.9779   25.0464 H   0  0  0  0  0  0
  -22.6960  -31.3027   21.4167 H   0  0  0  0  0  0
  -23.3776  -35.9615   23.3284 H   0  0  0  0  0  0
  -24.3584  -36.8941   22.2061 H   0  0  0  0  0  0
  -23.7207  -37.6484   23.6670 H   0  0  0  0  0  0
  -26.0639  -31.5816   20.6025 H   0  0  0  0  0  0
  -26.8277  -30.8668   21.9899 H   0  0  0  0  0  0
  -28.1064  -29.0525   21.1700 H   0  0  0  0  0  0
  -26.0143  -25.9416   19.0348 H   0  0  0  0  0  0
  -23.9624  -27.3114   19.0206 H   0  0  0  0  0  0
  -23.7102  -30.5961   19.4059 H   0  0  0  0  0  0
  -22.7409  -29.2311   19.8807 H   0  0  0  0  0  0
  -25.1284  -36.1981   25.0828 H   0  0  0  0  0  0
  -20.9929  -28.3159   24.1483 H   0  0  0  0  0  0
  -20.5695  -26.2202   23.3599 H   0  0  0  0  0  0
  -21.6627  -26.7398   22.1230 H   0  0  0  0  0  0
  -19.6902  -25.6283   21.1252 H   0  0  0  0  0  0
  -19.6714  -27.3194   20.6780 H   0  0  0  0  0  0
  -17.4194  -26.6675   21.4012 H   0  0  0  0  0  0
  -18.0278  -26.0042   22.9003 H   0  0  0  0  0  0
  -19.7896  -30.7226   24.2347 H   0  0  0  0  0  0
  -17.4974  -31.6274   24.5094 H   0  0  0  0  0  0
  -15.5331  -30.2964   23.7635 H   0  0  0  0  0  0
  -15.8647  -28.0772   22.7123 H   0  0  0  0  0  0
  -24.5854  -30.7123   25.7797 H   0  0  0  0  0  0
  -24.8923  -32.2893   26.4942 H   0  0  0  0  0  0
  -25.8023  -30.8862   27.0219 H   0  0  0  0  0  0
  -26.2832  -29.6837   24.1158 H   0  0  0  0  0  0
  -27.4049  -29.7273   25.4584 H   0  0  0  0  0  0
  -27.8687  -30.4392   23.9295 H   0  0  0  0  0  0
  -27.2649  -33.3660   26.2058 H   0  0  0  0  0  0
  -28.3830  -32.6904   25.0297 H   0  0  0  0  0  0
  -28.0718  -31.8482   26.5411 H   0  0  0  0  0  0
  -28.2572  -38.0133   24.7577 H   0  0  0  0  0  0
  -28.1132  -36.2669   24.6185 H   0  0  0  0  0  0
  -27.2317  -37.1324   25.8851 H   0  0  0  0  0  0
  -20.9343  -29.8694   21.6984 H   0  0  0  0  0  0
  -26.0186  -38.2878   24.1468 H   0  0  0  0  0  0
  -27.4399  -24.1716   18.2799 H   0  0  0  0  0  0
  -29.7558  -22.8869   21.6728 H   0  0  0  0  0  0
  -32.2339  -19.5178   21.4274 H   0  0  0  0  0  0
  -31.2750  -18.6325   22.5503 H   0  0  0  0  0  0
  -28.7585  -18.9089   22.6470 H   0  0  0  0  0  0
  -27.9081  -19.6910   21.3462 H   0  0  0  0  0  0
  -32.1822  -17.2352   20.6223 H   0  0  0  0  0  0
  -31.1718  -18.1588   19.5464 H   0  0  0  0  0  0
  -28.4166  -17.9731   19.8269 H   0  0  0  0  0  0
  -27.9094  -17.1441   21.2534 H   0  0  0  0  0  0
  -30.1501  -20.7029   22.0672 H   0  0  0  0  0  0
  -30.1681  -16.5404   21.8933 H   0  0  0  0  0  0
  -32.3509  -16.7948   16.3815 H   0  0  0  0  0  0
  -32.4096  -17.1337   18.0980 H   0  0  0  0  0  0
  -31.1247  -17.8298   17.0973 H   0  0  0  0  0  0
  -28.8763  -24.7812   22.9053 H   0  0  0  0  0  0
  -28.6670  -26.5133   22.7182 H   0  0  0  0  0  0
  -30.0472  -25.7138   21.9650 H   0  0  0  0  0  0
  -28.5968  -23.1336   15.9918 H   0  0  0  0  0  0
  -26.9246  -22.7137   16.3870 H   0  0  0  0  0  0
  -27.8743  -21.6731   15.3356 H   0  0  0  0  0  0
  -27.7616  -19.6692   18.4595 H   0  0  0  0  0  0
  -27.4596  -19.6770   16.7323 H   0  0  0  0  0  0
  -26.4488  -20.6339   17.8185 H   0  0  0  0  0  0
  -32.1731  -20.2647   19.2465 H   0  0  0  0  0  0
  -32.0472  -21.6864   20.2788 H   0  0  0  0  0  0
  -31.5362  -21.7514   18.5940 H   0  0  0  0  0  0
  -31.4814  -14.8378   17.7456 H   0  0  0  0  0  0
  -30.3888  -15.4604   16.5731 H   0  0  0  0  0  0
  -28.9191  -15.2372   18.2586 H   0  0  0  0  0  0
  -29.3058  -16.8897   18.3683 H   0  0  0  0  0  0
  -27.1302  -25.2703   21.2600 H   0  0  0  0  0  0
  -29.4011  -21.1282   17.1756 H   0  0  0  0  0  0
  -29.7891  -20.0087   19.1552 H   0  0  0  0  0  0
  1 25  1  0  0  0
  1 30  2  0  0  0
  1 92  1  0  0  0
  2  3  1  0  0  0
  2 25  1  0  0  0
  2 93  1  0  0  0
  2 94  1  0  0  0
  3  4  1  0  0  0
  3 95  1  0  0  0
  3 96  1  0  0  0
  4  5  1  0  0  0
  4 97  1  0  0  0
  4 98  1  0  0  0
  5  6  1  0  0  0
  5 26  1  0  0  0
  5 99  1  0  0  0
  6 25  1  0  0  0
  6100  1  0  0  0
  6101  1  0  0  0
  7  8  2  0  0  0
  7 26  1  0  0  0
  7 29  1  0  0  0
  8  9  1  0  0  0
  8 22  1  0  0  0
  9 10  1  0  0  0
  9 27  2  0  0  0
 10 11  2  0  0  0
 10 15  1  0  0  0
 11 12  1  0  0  0
 11102  1  0  0  0
 12 13  2  0  0  0
 12103  1  0  0  0
 13 14  1  0  0  0
 13 31  1  0  0  0
 14 15  2  0  0  0
 14104  1  0  0  0
 15105  1  0  0  0
 16 17  2  0  0  0
 16 21  1  0  0  0
 16 31  1  0  0  0
 17 18  1  0  0  0
 17106  1  0  0  0
 18 19  2  0  0  0
 18107  1  0  0  0
 19 20  1  0  0  0
 19 24  1  0  0  0
 20 21  2  0  0  0
 20108  1  0  0  0
 21 23  1  0  0  0
 22 28  1  0  0  0
 22 32  2  0  0  0
 26 27  1  0  0  0
 28109  1  0  0  0
 28110  1  0  0  0
 29111  1  0  0  0
 29112  1  0  0  0
 33 34  1  0  0  0
 33 66  1  0  0  0
 33 70  2  0  0  0
 34 36  1  0  0  0
 34 59  1  0  0  0
 34113  1  0  0  0
 35 44  2  0  0  0
 35 45  1  0  0  0
 35 68  1  0  0  0
 36 56  1  0  0  0
 36114  1  0  0  0
 37 39  1  0  0  0
 37 47  1  0  0  0
 37 66  1  0  0  0
 37115  1  0  0  0
 38 43  2  0  0  0
 38 46  1  0  0  0
 38 47  1  0  0  0
 39 64  1  0  0  0
 39 67  2  0  0  0
 40 52  1  0  0  0
 40 53  2  0  0  0
 40 58  1  0  0  0
 41116  1  0  0  0
 41117  1  0  0  0
 41118  1  0  0  0
 41 48  1  0  0  0
 42 43  1  0  0  0
 42 66  1  0  0  0
 42119  1  0  0  0
 42120  1  0  0  0
 43 44  1  0  0  0
 44121  1  0  0  0
 45 46  2  0  0  0
 45122  1  0  0  0
 46123  1  0  0  0
 47124  1  0  0  0
 47125  1  0  0  0
 48 56  1  0  0  0
 48 65  1  0  0  0
 48126  1  0  0  0
 49 50  1  0  0  0
 49 53  1  0  0  0
 49 64  1  0  0  0
 49127  1  0  0  0
 50 51  1  0  0  0
 50128  1  0  0  0
 50129  1  0  0  0
 51 52  1  0  0  0
 51130  1  0  0  0
 51131  1  0  0  0
 52132  1  0  0  0
 52133  1  0  0  0
 53 54  1  0  0  0
 54 55  2  0  0  0
 54134  1  0  0  0
 55 57  1  0  0  0
 55135  1  0  0  0
 56 69  2  0  0  0
 57 58  2  0  0  0
 57136  1  0  0  0
 58137  1  0  0  0
 59 60  1  0  0  0
 59 61  1  0  0  0
 59 62  1  0  0  0
 60138  1  0  0  0
 60139  1  0  0  0
 60140  1  0  0  0
 61141  1  0  0  0
 61142  1  0  0  0
 61143  1  0  0  0
 62144  1  0  0  0
 62145  1  0  0  0
 62146  1  0  0  0
 63 65  1  0  0  0
 63147  1  0  0  0
 63148  1  0  0  0
 63149  1  0  0  0
 64150  1  0  0  0
 65151  1  0  0  0
 68 88  1  0  0  0
 71 73  1  0  0  0
 71 74  2  0  0  0
 71152  1  0  0  0
 72 73  2  0  0  0
 72 91  1  0  0  0
 72153  1  0  0  0
 73 88  1  0  0  0
 74 89  1  0  0  0
 74 91  1  0  0  0
 75 77  1  0  0  0
 75154  1  0  0  0
 75155  1  0  0  0
 75 79  1  0  0  0
 76 78  1  0  0  0
 76 79  1  0  0  0
 76156  1  0  0  0
 76157  1  0  0  0
 77 80  1  0  0  0
 77158  1  0  0  0
 77159  1  0  0  0
 78 80  1  0  0  0
 78160  1  0  0  0
 78161  1  0  0  0
 79 90  1  0  0  0
 79162  1  0  0  0
 80 92  1  0  0  0
 80163  1  0  0  0
 81 86  1  0  0  0
 81164  1  0  0  0
 81165  1  0  0  0
 81166  1  0  0  0
 82167  1  0  0  0
 82168  1  0  0  0
 82169  1  0  0  0
 82 88  1  0  0  0
 83170  1  0  0  0
 83171  1  0  0  0
 83172  1  0  0  0
 83 89  1  0  0  0
 84 89  1  0  0  0
 84173  1  0  0  0
 84174  1  0  0  0
 84175  1  0  0  0
 85176  1  0  0  0
 85177  1  0  0  0
 85178  1  0  0  0
 85 90  1  0  0  0
 86 87  1  0  0  0
 86179  1  0  0  0
 86180  1  0  0  0
 87 92  1  0  0  0
 87181  1  0  0  0
 87182  1  0  0  0
 88183  1  0  0  0
 89184  1  0  0  0
 90 91  1  0  0  0
 90185  1  0  0  0
M  ISO  4   1 100  68 101  88 101  92 100
M  END
> <chiral flag>
0

> <version>
0

> <s_m_source_file>
/data/baiqing/PycharmProjects/Reinvent-master-3.2/result/LINK_invent/BTK/process_docking_weight1_custom_sum_contain_oxygen_bond_distance_aromatic_linkinvent_7_9_3/rearranged_h_0116.sdf

> <i_m_source_file_index>
67

> <r_mmod_Potential_Energy-OPLS-2005>
337.303283691406

> <r_mmod_Stretch_Energy-OPLS-2005>
54.8431358337402

> <r_mmod_Bend_Energy-OPLS-2005>
132.757125854492

> <r_mmod_Torsional_Energy-OPLS-2005>
440.253570556641

> <r_mmod_Improper_Torsional_Energy-OPLS-2005>
14.9574108123779

> <r_mmod_Van_der_Waal_Energy-OPLS-2005>
124.304649353027

> <r_mmod_Electrostatic_Energy-OPLS-2005>
-302.252655029297

> <r_mmod_Solvation_Energy-OPLS-2005>
-175.905654907227

> <b_mmod_Minimization_Converged-OPLS-2005>
0

> <r_mmod_RMS_Derivative-OPLS-2005>
4.6367621421814

$$$$
68
                    3D
 Structure written by MMmdl.
146154  0  0  1  0            999 V2000
  -30.2960  -15.6131   20.3262 C   0  0  0  0  0  0
  -30.4298  -13.0600   19.5434 C   0  0  0  0  0  0
  -29.5518  -12.6551   18.3237 C   0  0  0  0  0  0
  -28.1242  -12.2989   18.7649 C   0  0  0  0  0  0
  -27.5989  -13.3038   19.8153 C   0  0  2  0  0  0
  -28.6156  -13.6217   20.9380 C   0  0  0  0  0  0
  -25.2329  -13.8273   20.5773 C   0  0  0  0  0  0
  -24.1717  -13.0426   20.9279 C   0  0  0  0  0  0
  -24.6415  -11.6938   20.8758 C   0  0  0  0  0  0
  -23.9110  -10.4290   21.0393 C   0  0  0  0  0  0
  -24.3648   -9.4203   21.9174 C   0  0  0  0  0  0
  -23.6310   -8.2245   22.0752 C   0  0  0  0  0  0
  -22.4292   -8.0287   21.3544 C   0  0  0  0  0  0
  -21.9935   -9.0262   20.4646 C   0  0  0  0  0  0
  -22.7274  -10.2132   20.3050 C   0  0  0  0  0  0
  -21.6861   -6.0737   22.5274 C   0  0  0  0  0  0
  -21.4019   -6.5641   23.8205 C   0  0  0  0  0  0
  -21.3660   -5.6795   24.9166 C   0  0  0  0  0  0
  -21.6043   -4.3056   24.7220 C   0  0  0  0  0  0
  -21.8819   -3.8148   23.4343 C   0  0  0  0  0  0
  -21.9195   -4.6965   22.3399 C   0  0  0  0  0  0
  -22.7730  -13.5162   21.1914 C   0  0  0  0  0  0
  -22.1663   -4.2149   21.0975 F   0  0  0  0  0  0
  -21.5627   -3.4541   25.7733 F   0  0  0  0  0  0
  -29.7987  -14.2375   20.2935 N   0  0  0  0  0  0
  -26.2780  -12.9601   20.3223 N   0  0  0  0  0  0
  -25.9361  -11.6678   20.5700 N   0  0  0  0  0  0
  -22.0398  -12.8149   22.0472 N   0  0  0  0  0  0
  -25.3900  -15.2014   20.4186 N   0  0  0  0  0  0
  -31.5277  -15.5760   20.1277 O   0  0  0  0  0  0
  -21.6649   -6.8889   21.4242 O   0  0  0  0  0  0
  -22.3414  -14.5462   20.6751 O   0  0  0  0  0  0
  -24.6846  -31.7989   23.1505 C   0  0  0  0  0  0
  -25.9427  -32.4459   23.8044 C   0  0  1  0  0  0
  -27.2301  -26.7052   20.2072 C   0  0  0  0  0  0
  -25.6002  -33.8285   24.1944 N   0  0  0  0  0  0
  -23.5107  -30.4026   21.5019 C   0  0  2  0  0  0
  -24.9697  -28.7447   20.1125 C   0  0  0  0  0  0
  -22.7774  -29.4331   22.4685 C   0  0  0  0  0  0
  -18.0352  -28.1450   22.8468 C   0  0  0  0  0  0
  -24.1474  -36.7140   23.2655 C   0  0  0  0  0  0
  -26.0915  -30.5328   21.4156 C   0  0  0  0  0  0
  -26.1579  -29.0980   20.7637 C   0  0  0  0  0  0
  -27.2708  -28.1052   20.7821 C   0  0  0  0  0  0
  -26.0124  -26.5646   19.4924 C   0  0  0  0  0  0
  -24.9368  -27.5038   19.4529 C   0  0  0  0  0  0
  -23.7645  -29.6986   20.1370 C   0  0  0  0  0  0
  -25.4132  -36.2888   24.0279 C   0  0  1  0  0  0
  -20.5988  -28.3806   23.1138 C   0  0  2  0  0  0
  -20.6816  -26.9463   22.5407 C   0  0  0  0  0  0
  -19.5782  -26.6395   21.5225 C   0  0  0  0  0  0
  -18.1965  -26.7984   22.1629 C   0  0  0  0  0  0
  -19.1623  -28.8953   23.2786 C   0  0  0  0  0  0
  -18.9529  -30.1537   23.8832 C   0  0  0  0  0  0
  -17.6518  -30.6629   24.0566 C   0  0  0  0  0  0
  -25.9117  -34.9281   23.4946 C   0  0  0  0  0  0
  -16.5405  -29.9115   23.6364 C   0  0  0  0  0  0
  -16.7332  -28.6538   23.0377 C   0  0  0  0  0  0
  -26.4614  -31.6498   25.0667 C   0  0  0  0  0  0
  -25.3677  -31.3839   26.1277 C   0  0  0  0  0  0
  -27.0546  -30.2829   24.6586 C   0  0  0  0  0  0
  -27.6052  -32.4368   25.7490 C   0  0  0  0  0  0
  -27.5547  -37.1735   24.8481 C   0  0  0  0  0  0
  -21.4420  -29.3042   22.3434 N   0  0  0  0  0  0
  -26.4262  -37.3649   23.9409 N   0  0  0  0  0  0
  -24.7856  -30.9447   22.0747 N   0  0  0  0  0  0
  -23.4219  -28.7938   23.3035 O   0  0  0  0  0  0
  -28.1781  -25.4762   20.3098 O   0  0  0  0  0  0
  -26.5755  -34.8861   22.4565 O   0  0  0  0  0  0
  -23.5868  -32.1065   23.6462 O   0  0  0  0  0  0
  -27.8093  -20.8774   20.7599 C   0  0  0  0  0  0
  -28.1298  -19.3950   20.8041 C   0  0  0  0  0  0
  -28.5903  -22.0356   20.2640 C   0  0  0  0  0  0
  -29.7830  -21.2254   19.8261 C   0  0  0  0  0  0
  -29.3264  -18.6469   20.3635 C   0  0  0  0  0  0
  -30.8939  -21.9942   19.1421 C   0  0  0  0  0  0
  -27.9289  -23.7722   19.9854 C   0  0  0  0  0  0
  -30.0944  -19.7720   19.8921 N   0  0  0  0  0  0
  -29.4681  -16.9277   20.4321 N   0  0  0  0  0  0
  -31.4254  -13.3207   19.1825 H   0  0  0  0  0  0
  -30.5832  -12.2082   20.2084 H   0  0  0  0  0  0
  -30.0022  -11.8196   17.7860 H   0  0  0  0  0  0
  -29.5124  -13.4875   17.6191 H   0  0  0  0  0  0
  -28.1489  -11.2988   19.1993 H   0  0  0  0  0  0
  -27.4538  -12.2455   17.9061 H   0  0  0  0  0  0
  -27.4666  -14.2291   19.2525 H   0  0  0  0  0  0
  -28.8669  -12.7338   21.5203 H   0  0  0  0  0  0
  -28.1848  -14.3371   21.6404 H   0  0  0  0  0  0
  -25.2794   -9.5678   22.4745 H   0  0  0  0  0  0
  -24.0011   -7.4644   22.7485 H   0  0  0  0  0  0
  -21.0858   -8.8787   19.8962 H   0  0  0  0  0  0
  -22.3729  -10.9670   19.6158 H   0  0  0  0  0  0
  -21.2013   -7.6150   23.9708 H   0  0  0  0  0  0
  -21.1482   -6.0523   25.9067 H   0  0  0  0  0  0
  -22.0598   -2.7611   23.2838 H   0  0  0  0  0  0
  -22.4046  -11.9813   22.4845 H   0  0  0  0  0  0
  -21.1011  -13.1149   22.2686 H   0  0  0  0  0  0
  -24.6050  -15.8373   20.5079 H   0  0  0  0  0  0
  -26.2121  -15.6422   20.0293 H   0  0  0  0  0  0
  -26.7501  -32.4933   23.0747 H   0  0  0  0  0  0
  -25.0070  -33.9308   25.0044 H   0  0  0  0  0  0
  -22.8376  -31.2409   21.3108 H   0  0  0  0  0  0
  -23.3742  -35.9463   23.3306 H   0  0  0  0  0  0
  -24.3532  -36.8813   22.2070 H   0  0  0  0  0  0
  -23.7224  -37.6316   23.6737 H   0  0  0  0  0  0
  -26.2991  -31.2603   20.6299 H   0  0  0  0  0  0
  -26.9404  -30.5968   22.0840 H   0  0  0  0  0  0
  -28.1603  -28.3783   21.3318 H   0  0  0  0  0  0
  -25.8463  -25.6254   18.9840 H   0  0  0  0  0  0
  -24.0414  -27.2259   18.9143 H   0  0  0  0  0  0
  -23.9359  -30.4575   19.3726 H   0  0  0  0  0  0
  -22.8699  -29.1635   19.8142 H   0  0  0  0  0  0
  -25.1345  -36.1647   25.0768 H   0  0  0  0  0  0
  -21.0091  -28.3437   24.1255 H   0  0  0  0  0  0
  -20.5701  -26.2427   23.3674 H   0  0  0  0  0  0
  -21.6670  -26.7420   22.1205 H   0  0  0  0  0  0
  -19.6931  -25.6288   21.1297 H   0  0  0  0  0  0
  -19.6718  -27.3181   20.6733 H   0  0  0  0  0  0
  -17.4236  -26.6754   21.4023 H   0  0  0  0  0  0
  -18.0336  -26.0157   22.9050 H   0  0  0  0  0  0
  -19.8004  -30.7387   24.2154 H   0  0  0  0  0  0
  -17.5068  -31.6297   24.5196 H   0  0  0  0  0  0
  -15.5403  -30.2998   23.7733 H   0  0  0  0  0  0
  -15.8730  -28.0840   22.7119 H   0  0  0  0  0  0
  -24.5876  -30.7173   25.7584 H   0  0  0  0  0  0
  -24.8849  -32.3070   26.4486 H   0  0  0  0  0  0
  -25.7841  -30.9146   27.0194 H   0  0  0  0  0  0
  -26.3272  -29.6429   24.1584 H   0  0  0  0  0  0
  -27.3970  -29.7291   25.5337 H   0  0  0  0  0  0
  -27.9247  -30.3940   24.0114 H   0  0  0  0  0  0
  -27.2582  -33.3744   26.1846 H   0  0  0  0  0  0
  -28.3976  -32.6820   25.0403 H   0  0  0  0  0  0
  -28.0589  -31.8648   26.5592 H   0  0  0  0  0  0
  -28.2577  -38.0018   24.7482 H   0  0  0  0  0  0
  -28.1026  -36.2543   24.6365 H   0  0  0  0  0  0
  -27.2261  -37.1446   25.8885 H   0  0  0  0  0  0
  -20.9723  -29.8654   21.6465 H   0  0  0  0  0  0
  -26.0085  -38.2694   24.1420 H   0  0  0  0  0  0
  -26.8198  -21.1270   21.1138 H   0  0  0  0  0  0
  -27.3384  -18.7794   21.2088 H   0  0  0  0  0  0
  -30.5944  -23.0183   18.9220 H   0  0  0  0  0  0
  -31.1680  -21.5171   18.2016 H   0  0  0  0  0  0
  -31.7780  -22.0305   19.7787 H   0  0  0  0  0  0
  -26.8960  -23.6507   20.3129 H   0  0  0  0  0  0
  -27.8487  -23.7853   18.8983 H   0  0  0  0  0  0
  -28.5456  -16.5804   20.6400 H   0  0  0  0  0  0
  1 25  1  0  0  0
  1 30  2  0  0  0
  1 79  1  0  0  0
  2  3  1  0  0  0
  2 25  1  0  0  0
  2 80  1  0  0  0
  2 81  1  0  0  0
  3  4  1  0  0  0
  3 82  1  0  0  0
  3 83  1  0  0  0
  4  5  1  0  0  0
  4 84  1  0  0  0
  4 85  1  0  0  0
  5  6  1  0  0  0
  5 26  1  0  0  0
  5 86  1  0  0  0
  6 25  1  0  0  0
  6 87  1  0  0  0
  6 88  1  0  0  0
  7  8  2  0  0  0
  7 26  1  0  0  0
  7 29  1  0  0  0
  8  9  1  0  0  0
  8 22  1  0  0  0
  9 10  1  0  0  0
  9 27  2  0  0  0
 10 11  2  0  0  0
 10 15  1  0  0  0
 11 12  1  0  0  0
 11 89  1  0  0  0
 12 13  2  0  0  0
 12 90  1  0  0  0
 13 14  1  0  0  0
 13 31  1  0  0  0
 14 15  2  0  0  0
 14 91  1  0  0  0
 15 92  1  0  0  0
 16 17  2  0  0  0
 16 21  1  0  0  0
 16 31  1  0  0  0
 17 18  1  0  0  0
 17 93  1  0  0  0
 18 19  2  0  0  0
 18 94  1  0  0  0
 19 20  1  0  0  0
 19 24  1  0  0  0
 20 21  2  0  0  0
 20 95  1  0  0  0
 21 23  1  0  0  0
 22 28  1  0  0  0
 22 32  2  0  0  0
 26 27  1  0  0  0
 28 96  1  0  0  0
 28 97  1  0  0  0
 29 98  1  0  0  0
 29 99  1  0  0  0
 33 34  1  0  0  0
 33 66  1  0  0  0
 33 70  2  0  0  0
 34 36  1  0  0  0
 34 59  1  0  0  0
 34100  1  0  0  0
 35 44  2  0  0  0
 35 45  1  0  0  0
 35 68  1  0  0  0
 36 56  1  0  0  0
 36101  1  0  0  0
 37 39  1  0  0  0
 37 47  1  0  0  0
 37 66  1  0  0  0
 37102  1  0  0  0
 38 43  2  0  0  0
 38 46  1  0  0  0
 38 47  1  0  0  0
 39 64  1  0  0  0
 39 67  2  0  0  0
 40 52  1  0  0  0
 40 53  2  0  0  0
 40 58  1  0  0  0
 41103  1  0  0  0
 41104  1  0  0  0
 41105  1  0  0  0
 41 48  1  0  0  0
 42 43  1  0  0  0
 42 66  1  0  0  0
 42106  1  0  0  0
 42107  1  0  0  0
 43 44  1  0  0  0
 44108  1  0  0  0
 45 46  2  0  0  0
 45109  1  0  0  0
 46110  1  0  0  0
 47111  1  0  0  0
 47112  1  0  0  0
 48 56  1  0  0  0
 48 65  1  0  0  0
 48113  1  0  0  0
 49 50  1  0  0  0
 49 53  1  0  0  0
 49 64  1  0  0  0
 49114  1  0  0  0
 50 51  1  0  0  0
 50115  1  0  0  0
 50116  1  0  0  0
 51 52  1  0  0  0
 51117  1  0  0  0
 51118  1  0  0  0
 52119  1  0  0  0
 52120  1  0  0  0
 53 54  1  0  0  0
 54 55  2  0  0  0
 54121  1  0  0  0
 55 57  1  0  0  0
 55122  1  0  0  0
 56 69  2  0  0  0
 57 58  2  0  0  0
 57123  1  0  0  0
 58124  1  0  0  0
 59 60  1  0  0  0
 59 61  1  0  0  0
 59 62  1  0  0  0
 60125  1  0  0  0
 60126  1  0  0  0
 60127  1  0  0  0
 61128  1  0  0  0
 61129  1  0  0  0
 61130  1  0  0  0
 62131  1  0  0  0
 62132  1  0  0  0
 62133  1  0  0  0
 63 65  1  0  0  0
 63134  1  0  0  0
 63135  1  0  0  0
 63136  1  0  0  0
 64137  1  0  0  0
 65138  1  0  0  0
 68 77  1  0  0  0
 71 72  2  0  0  0
 71 73  1  0  0  0
 71139  1  0  0  0
 72 75  1  0  0  0
 72140  1  0  0  0
 73 74  2  0  0  0
 73 77  1  0  0  0
 74 76  1  0  0  0
 74 78  1  0  0  0
 75 78  2  0  0  0
 75 79  1  0  0  0
 76141  1  0  0  0
 76142  1  0  0  0
 76143  1  0  0  0
 77144  1  0  0  0
 77145  1  0  0  0
 79146  1  0  0  0
M  ISO  4   1 100  68 101  77 101  79 100
M  END
> <chiral flag>
0

> <version>
0

> <s_m_source_file>
/data/baiqing/PycharmProjects/Reinvent-master-3.2/result/LINK_invent/BTK/process_docking_weight1_custom_sum_contain_oxygen_bond_distance_aromatic_linkinvent_7_9_3/rearranged_h_0116.sdf

> <i_m_source_file_index>
68

> <r_mmod_Potential_Energy-OPLS-2005>
2154.05810546875

> <r_mmod_Stretch_Energy-OPLS-2005>
937.371032714844

> <r_mmod_Bend_Energy-OPLS-2005>
692.173034667969

> <r_mmod_Torsional_Energy-OPLS-2005>
219.083602905273

> <r_mmod_Improper_Torsional_Energy-OPLS-2005>
6.6822681427002

> <r_mmod_Van_der_Waal_Energy-OPLS-2005>
134.004669189453

> <r_mmod_Electrostatic_Energy-OPLS-2005>
-483.310485839844

> <r_mmod_Solvation_Energy-OPLS-2005>
-237.927536010742

> <b_mmod_Minimization_Converged-OPLS-2005>
0

> <r_mmod_RMS_Derivative-OPLS-2005>
1.33145105838776

$$$$
69
                    3D
 Structure written by MMmdl.
161168  0  0  1  0            999 V2000
  -30.5278  -14.9633   20.4213 C   0  0  0  0  0  0
  -30.4416  -12.6007   19.4880 C   0  0  0  0  0  0
  -29.5228  -12.5271   18.2479 C   0  0  0  0  0  0
  -28.0547  -12.3152   18.6674 C   0  0  0  0  0  0
  -27.6269  -13.2475   19.8303 C   0  0  2  0  0  0
  -28.6710  -13.2779   20.9637 C   0  0  0  0  0  0
  -25.2468  -13.8217   20.5689 C   0  0  0  0  0  0
  -24.1790  -13.0443   20.9228 C   0  0  0  0  0  0
  -24.6407  -11.6925   20.8753 C   0  0  0  0  0  0
  -23.9087  -10.4290   21.0406 C   0  0  0  0  0  0
  -24.3640   -9.4190   21.9170 C   0  0  0  0  0  0
  -23.6305   -8.2235   22.0751 C   0  0  0  0  0  0
  -22.4279   -8.0282   21.3558 C   0  0  0  0  0  0
  -21.9925   -9.0243   20.4645 C   0  0  0  0  0  0
  -22.7262  -10.2117   20.3043 C   0  0  0  0  0  0
  -21.6852   -6.0717   22.5263 C   0  0  0  0  0  0
  -21.4012   -6.5623   23.8196 C   0  0  0  0  0  0
  -21.3667   -5.6783   24.9166 C   0  0  0  0  0  0
  -21.6060   -4.3042   24.7218 C   0  0  0  0  0  0
  -21.8830   -3.8128   23.4345 C   0  0  0  0  0  0
  -21.9198   -4.6946   22.3398 C   0  0  0  0  0  0
  -22.7808  -13.5194   21.1883 C   0  0  0  0  0  0
  -22.1678   -4.2132   21.0977 F   0  0  0  0  0  0
  -21.5638   -3.4528   25.7735 F   0  0  0  0  0  0
  -29.9370  -13.7018   20.3542 N   0  0  0  0  0  0
  -26.2877  -12.9438   20.3194 N   0  0  0  0  0  0
  -25.9325  -11.6578   20.5707 N   0  0  0  0  0  0
  -22.0494  -12.8143   22.0444 N   0  0  0  0  0  0
  -25.4166  -15.1942   20.4104 N   0  0  0  0  0  0
  -31.7456  -15.0139   20.2192 O   0  0  0  0  0  0
  -21.6656   -6.8866   21.4232 O   0  0  0  0  0  0
  -22.3473  -14.5501   20.6744 O   0  0  0  0  0  0
  -24.6432  -31.8441   23.1864 C   0  0  0  0  0  0
  -25.9197  -32.4686   23.8265 C   0  0  1  0  0  0
  -27.2083  -27.1293   20.1648 C   0  0  0  0  0  0
  -25.5947  -33.8490   24.2185 N   0  0  0  0  0  0
  -23.4472  -30.4605   21.5351 C   0  0  2  0  0  0
  -24.8917  -28.8790   20.1175 C   0  0  0  0  0  0
  -22.7566  -29.4533   22.4884 C   0  0  0  0  0  0
  -18.0301  -28.1404   22.8471 C   0  0  0  0  0  0
  -24.1499  -36.7257   23.2644 C   0  0  0  0  0  0
  -26.0022  -30.7151   21.3837 C   0  0  0  0  0  0
  -26.0717  -29.3232   20.7330 C   0  0  0  0  0  0
  -27.2355  -28.4665   20.7304 C   0  0  0  0  0  0
  -26.0033  -26.7752   19.5271 C   0  0  0  0  0  0
  -24.8689  -27.6176   19.5014 C   0  0  0  0  0  0
  -23.6726  -29.7868   20.1552 C   0  0  0  0  0  0
  -25.4123  -36.3024   24.0323 C   0  0  1  0  0  0
  -20.5914  -28.3710   23.1251 C   0  0  2  0  0  0
  -20.6793  -26.9416   22.5413 C   0  0  0  0  0  0
  -19.5764  -26.6376   21.5222 C   0  0  0  0  0  0
  -18.1946  -26.7945   22.1629 C   0  0  0  0  0  0
  -19.1561  -28.8880   23.2853 C   0  0  0  0  0  0
  -18.9473  -30.1486   23.8870 C   0  0  0  0  0  0
  -17.6471  -30.6599   24.0557 C   0  0  0  0  0  0
  -25.9074  -34.9403   23.5065 C   0  0  0  0  0  0
  -16.5363  -29.9091   23.6336 C   0  0  0  0  0  0
  -16.7288  -28.6517   23.0342 C   0  0  0  0  0  0
  -26.4487  -31.6546   25.0714 C   0  0  0  0  0  0
  -25.3659  -31.3765   26.1399 C   0  0  0  0  0  0
  -27.0333  -30.2944   24.6274 C   0  0  0  0  0  0
  -27.6005  -32.4302   25.7511 C   0  0  0  0  0  0
  -27.5577  -37.1789   24.8458 C   0  0  0  0  0  0
  -21.4263  -29.3034   22.3627 N   0  0  0  0  0  0
  -26.4284  -37.3737   23.9407 N   0  0  0  0  0  0
  -24.7180  -31.0285   22.0906 N   0  0  0  0  0  0
  -23.4200  -28.8089   23.3046 O   0  0  0  0  0  0
  -28.2765  -26.1662   20.1234 O   0  0  0  0  0  0
  -26.5669  -34.8901   22.4650 O   0  0  0  0  0  0
  -23.5549  -32.1320   23.7077 O   0  0  0  0  0  0
  -29.8238  -21.8054   18.7598 C   0  0  0  0  0  0
  -29.3382  -24.8201   21.8404 C   0  0  0  0  0  0
  -31.4344  -18.0135   20.8244 C   0  0  0  0  0  0
  -29.4861  -17.7815   22.3648 C   0  0  0  0  0  0
  -28.0958  -23.1783   20.1843 C   0  0  0  0  0  0
  -29.1723  -18.9832   20.0772 C   0  0  0  0  0  0
  -29.2030  -21.8839   20.1639 C   0  0  1  0  0  0
  -28.2211  -24.7628   20.7928 C   0  0  2  0  0  0
  -29.9274  -17.6930   20.8909 C   0  0  0  0  0  0
  -29.7277  -16.1486   20.5132 N   0  0  0  0  0  0
  -28.8947  -20.4188   20.7286 N   0  3  0  0  0  0
  -31.4737  -12.7688   19.1776 H   0  0  0  0  0  0
  -30.4438  -11.6526   20.0295 H   0  0  0  0  0  0
  -29.8445  -11.7238   17.5839 H   0  0  0  0  0  0
  -29.6111  -13.4511   17.6745 H   0  0  0  0  0  0
  -27.9505  -11.2743   18.9731 H   0  0  0  0  0  0
  -27.3921  -12.4500   17.8116 H   0  0  0  0  0  0
  -27.5860  -14.2474   19.3983 H   0  0  0  0  0  0
  -28.7678  -12.3017   21.4384 H   0  0  0  0  0  0
  -28.3707  -13.9756   21.7487 H   0  0  0  0  0  0
  -25.2799   -9.5648   22.4720 H   0  0  0  0  0  0
  -24.0020   -7.4618   22.7452 H   0  0  0  0  0  0
  -21.0870   -8.8755   19.8929 H   0  0  0  0  0  0
  -22.3737  -10.9652   19.6138 H   0  0  0  0  0  0
  -21.1981   -7.6123   23.9684 H   0  0  0  0  0  0
  -21.1502   -6.0518   25.9072 H   0  0  0  0  0  0
  -22.0600   -2.7586   23.2847 H   0  0  0  0  0  0
  -22.4179  -11.9816   22.4796 H   0  0  0  0  0  0
  -21.1094  -13.1092   22.2672 H   0  0  0  0  0  0
  -24.6471  -15.8470   20.5118 H   0  0  0  0  0  0
  -26.2483  -15.6256   20.0306 H   0  0  0  0  0  0
  -26.7269  -32.5273   23.0998 H   0  0  0  0  0  0
  -25.0050  -33.9595   25.0299 H   0  0  0  0  0  0
  -22.7507  -31.2873   21.3801 H   0  0  0  0  0  0
  -23.3763  -35.9582   23.3271 H   0  0  0  0  0  0
  -24.3608  -36.8911   22.2068 H   0  0  0  0  0  0
  -23.7237  -37.6440   23.6696 H   0  0  0  0  0  0
  -26.1554  -31.4655   20.6073 H   0  0  0  0  0  0
  -26.8752  -30.7682   22.0233 H   0  0  0  0  0  0
  -28.1443  -28.8065   21.2065 H   0  0  0  0  0  0
  -25.9319  -25.8069   19.0531 H   0  0  0  0  0  0
  -23.9664  -27.2729   19.0149 H   0  0  0  0  0  0
  -23.8157  -30.5614   19.4007 H   0  0  0  0  0  0
  -22.7835  -29.2361   19.8422 H   0  0  0  0  0  0
  -25.1310  -36.1862   25.0816 H   0  0  0  0  0  0
  -21.0010  -28.3308   24.1366 H   0  0  0  0  0  0
  -20.5708  -26.2326   23.3633 H   0  0  0  0  0  0
  -21.6658  -26.7440   22.1198 H   0  0  0  0  0  0
  -19.6938  -25.6276   21.1274 H   0  0  0  0  0  0
  -19.6717  -27.3169   20.6743 H   0  0  0  0  0  0
  -17.4219  -26.6679   21.4029 H   0  0  0  0  0  0
  -18.0344  -26.0106   22.9046 H   0  0  0  0  0  0
  -19.7946  -30.7313   24.2227 H   0  0  0  0  0  0
  -17.5014  -31.6273   24.5161 H   0  0  0  0  0  0
  -15.5360  -30.2979   23.7673 H   0  0  0  0  0  0
  -15.8694  -28.0834   22.7054 H   0  0  0  0  0  0
  -24.5813  -30.7147   25.7706 H   0  0  0  0  0  0
  -24.8886  -32.2975   26.4769 H   0  0  0  0  0  0
  -25.7914  -30.8948   27.0214 H   0  0  0  0  0  0
  -26.2945  -29.6698   24.1248 H   0  0  0  0  0  0
  -27.3903  -29.7195   25.4824 H   0  0  0  0  0  0
  -27.8867  -30.4165   23.9603 H   0  0  0  0  0  0
  -27.2570  -33.3596   26.2059 H   0  0  0  0  0  0
  -28.3840  -32.6876   25.0380 H   0  0  0  0  0  0
  -28.0630  -31.8450   26.5462 H   0  0  0  0  0  0
  -28.2563  -38.0113   24.7515 H   0  0  0  0  0  0
  -28.1113  -36.2646   24.6274 H   0  0  0  0  0  0
  -27.2318  -37.1411   25.8866 H   0  0  0  0  0  0
  -20.9498  -29.8732   21.6781 H   0  0  0  0  0  0
  -26.0156  -38.2803   24.1415 H   0  0  0  0  0  0
  -30.1036  -22.7955   18.3966 H   0  0  0  0  0  0
  -29.1235  -21.3783   18.0407 H   0  0  0  0  0  0
  -30.7280  -21.1988   18.7560 H   0  0  0  0  0  0
  -29.2782  -25.7334   22.4337 H   0  0  0  0  0  0
  -30.3192  -24.8005   21.3659 H   0  0  0  0  0  0
  -29.2794  -23.9777   22.5295 H   0  0  0  0  0  0
  -31.6413  -19.0345   21.1444 H   0  0  0  0  0  0
  -31.8155  -17.9144   19.8069 H   0  0  0  0  0  0
  -32.0256  -17.3577   21.4665 H   0  0  0  0  0  0
  -29.7240  -18.7539   22.8007 H   0  0  0  0  0  0
  -29.9902  -17.0346   22.9799 H   0  0  0  0  0  0
  -28.4118  -17.6260   22.4733 H   0  0  0  0  0  0
  -27.2459  -22.7693   20.7286 H   0  0  0  0  0  0
  -27.6908  -23.2703   19.1767 H   0  0  0  0  0  0
  -28.1895  -18.6311   19.7638 H   0  0  0  0  0  0
  -29.7007  -19.1323   19.1372 H   0  0  0  0  0  0
  -30.0118  -22.2180   20.8132 H   0  0  0  0  0  0
  -27.2993  -24.8472   21.3729 H   0  0  0  0  0  0
  -28.7506  -15.9037   20.4691 H   0  0  0  0  0  0
  -29.3233  -20.3945   21.6409 H   0  0  0  0  0  0
  -27.9064  -20.4094   20.9235 H   0  0  0  0  0  0
  1 25  1  0  0  0
  1 30  2  0  0  0
  1 80  1  0  0  0
  2  3  1  0  0  0
  2 25  1  0  0  0
  2 82  1  0  0  0
  2 83  1  0  0  0
  3  4  1  0  0  0
  3 84  1  0  0  0
  3 85  1  0  0  0
  4  5  1  0  0  0
  4 86  1  0  0  0
  4 87  1  0  0  0
  5  6  1  0  0  0
  5 26  1  0  0  0
  5 88  1  0  0  0
  6 25  1  0  0  0
  6 89  1  0  0  0
  6 90  1  0  0  0
  7  8  2  0  0  0
  7 26  1  0  0  0
  7 29  1  0  0  0
  8  9  1  0  0  0
  8 22  1  0  0  0
  9 10  1  0  0  0
  9 27  2  0  0  0
 10 11  2  0  0  0
 10 15  1  0  0  0
 11 12  1  0  0  0
 11 91  1  0  0  0
 12 13  2  0  0  0
 12 92  1  0  0  0
 13 14  1  0  0  0
 13 31  1  0  0  0
 14 15  2  0  0  0
 14 93  1  0  0  0
 15 94  1  0  0  0
 16 17  2  0  0  0
 16 21  1  0  0  0
 16 31  1  0  0  0
 17 18  1  0  0  0
 17 95  1  0  0  0
 18 19  2  0  0  0
 18 96  1  0  0  0
 19 20  1  0  0  0
 19 24  1  0  0  0
 20 21  2  0  0  0
 20 97  1  0  0  0
 21 23  1  0  0  0
 22 28  1  0  0  0
 22 32  2  0  0  0
 26 27  1  0  0  0
 28 98  1  0  0  0
 28 99  1  0  0  0
 29100  1  0  0  0
 29101  1  0  0  0
 33 34  1  0  0  0
 33 66  1  0  0  0
 33 70  2  0  0  0
 34 36  1  0  0  0
 34 59  1  0  0  0
 34102  1  0  0  0
 35 44  2  0  0  0
 35 45  1  0  0  0
 35 68  1  0  0  0
 36 56  1  0  0  0
 36103  1  0  0  0
 37 39  1  0  0  0
 37 47  1  0  0  0
 37 66  1  0  0  0
 37104  1  0  0  0
 38 43  2  0  0  0
 38 46  1  0  0  0
 38 47  1  0  0  0
 39 64  1  0  0  0
 39 67  2  0  0  0
 40 52  1  0  0  0
 40 53  2  0  0  0
 40 58  1  0  0  0
 41105  1  0  0  0
 41106  1  0  0  0
 41107  1  0  0  0
 41 48  1  0  0  0
 42 43  1  0  0  0
 42 66  1  0  0  0
 42108  1  0  0  0
 42109  1  0  0  0
 43 44  1  0  0  0
 44110  1  0  0  0
 45 46  2  0  0  0
 45111  1  0  0  0
 46112  1  0  0  0
 47113  1  0  0  0
 47114  1  0  0  0
 48 56  1  0  0  0
 48 65  1  0  0  0
 48115  1  0  0  0
 49 50  1  0  0  0
 49 53  1  0  0  0
 49 64  1  0  0  0
 49116  1  0  0  0
 50 51  1  0  0  0
 50117  1  0  0  0
 50118  1  0  0  0
 51 52  1  0  0  0
 51119  1  0  0  0
 51120  1  0  0  0
 52121  1  0  0  0
 52122  1  0  0  0
 53 54  1  0  0  0
 54 55  2  0  0  0
 54123  1  0  0  0
 55 57  1  0  0  0
 55124  1  0  0  0
 56 69  2  0  0  0
 57 58  2  0  0  0
 57125  1  0  0  0
 58126  1  0  0  0
 59 60  1  0  0  0
 59 61  1  0  0  0
 59 62  1  0  0  0
 60127  1  0  0  0
 60128  1  0  0  0
 60129  1  0  0  0
 61130  1  0  0  0
 61131  1  0  0  0
 61132  1  0  0  0
 62133  1  0  0  0
 62134  1  0  0  0
 62135  1  0  0  0
 63 65  1  0  0  0
 63136  1  0  0  0
 63137  1  0  0  0
 63138  1  0  0  0
 64139  1  0  0  0
 65140  1  0  0  0
 68 78  1  0  0  0
 71141  1  0  0  0
 71142  1  0  0  0
 71143  1  0  0  0
 71 77  1  0  0  0
 72144  1  0  0  0
 72145  1  0  0  0
 72146  1  0  0  0
 72 78  1  0  0  0
 73147  1  0  0  0
 73148  1  0  0  0
 73149  1  0  0  0
 73 79  1  0  0  0
 74 79  1  0  0  0
 74150  1  0  0  0
 74151  1  0  0  0
 74152  1  0  0  0
 75 77  1  0  0  0
 75 78  1  0  0  0
 75153  1  0  0  0
 75154  1  0  0  0
 76 79  1  0  0  0
 76 81  1  0  0  0
 76155  1  0  0  0
 76156  1  0  0  0
 77 81  1  0  0  0
 77157  1  0  0  0
 78158  1  0  0  0
 79 80  1  0  0  0
 80159  1  0  0  0
 81160  1  0  0  0
 81161  1  0  0  0
M  CHG  1  81   1
M  ISO  4   1 100  68 101  78 101  80 100
M  END
> <chiral flag>
0

> <version>
0

> <s_m_source_file>
/data/baiqing/PycharmProjects/Reinvent-master-3.2/result/LINK_invent/BTK/process_docking_weight1_custom_sum_contain_oxygen_bond_distance_aromatic_linkinvent_7_9_3/rearranged_h_0116.sdf

> <i_m_source_file_index>
69

> <r_mmod_Potential_Energy-OPLS-2005>
489.208557128906

> <r_mmod_Stretch_Energy-OPLS-2005>
293.995056152344

> <r_mmod_Bend_Energy-OPLS-2005>
337.803192138672

> <r_mmod_Torsional_Energy-OPLS-2005>
299.348266601562

> <r_mmod_Improper_Torsional_Energy-OPLS-2005>
4.69989919662476

> <r_mmod_Van_der_Waal_Energy-OPLS-2005>
107.932594299316

> <r_mmod_Electrostatic_Energy-OPLS-2005>
-274.785949707031

> <r_mmod_Solvation_Energy-OPLS-2005>
-476.873840332031

> <b_mmod_Minimization_Converged-OPLS-2005>
0

> <r_mmod_RMS_Derivative-OPLS-2005>
2.55478048324585

$$$$
70
                    3D
 Structure written by MMmdl.
146154  0  0  1  0            999 V2000
  -30.2894  -15.6246   20.3453 C   0  0  0  0  0  0
  -30.4210  -13.0749   19.5427 C   0  0  0  0  0  0
  -29.5559  -12.6479   18.3209 C   0  0  0  0  0  0
  -28.1244  -12.2963   18.7588 C   0  0  0  0  0  0
  -27.5925  -13.3060   19.8033 C   0  0  2  0  0  0
  -28.6006  -13.6369   20.9283 C   0  0  0  0  0  0
  -25.2303  -13.8277   20.5731 C   0  0  0  0  0  0
  -24.1701  -13.0433   20.9271 C   0  0  0  0  0  0
  -24.6397  -11.6942   20.8738 C   0  0  0  0  0  0
  -23.9098  -10.4302   21.0396 C   0  0  0  0  0  0
  -24.3641   -9.4211   21.9170 C   0  0  0  0  0  0
  -23.6302   -8.2256   22.0770 C   0  0  0  0  0  0
  -22.4283   -8.0300   21.3561 C   0  0  0  0  0  0
  -21.9919   -9.0283   20.4664 C   0  0  0  0  0  0
  -22.7278  -10.2137   20.3045 C   0  0  0  0  0  0
  -21.6851   -6.0727   22.5263 C   0  0  0  0  0  0
  -21.4035   -6.5625   23.8200 C   0  0  0  0  0  0
  -21.3657   -5.6778   24.9157 C   0  0  0  0  0  0
  -21.6041   -4.3044   24.7212 C   0  0  0  0  0  0
  -21.8822   -3.8136   23.4330 C   0  0  0  0  0  0
  -21.9198   -4.6957   22.3383 C   0  0  0  0  0  0
  -22.7718  -13.5183   21.1887 C   0  0  0  0  0  0
  -22.1661   -4.2147   21.0967 F   0  0  0  0  0  0
  -21.5620   -3.4523   25.7721 F   0  0  0  0  0  0
  -29.7751  -14.2559   20.2773 N   0  0  0  0  0  0
  -26.2734  -12.9596   20.3155 N   0  0  0  0  0  0
  -25.9335  -11.6674   20.5666 N   0  0  0  0  0  0
  -22.0355  -12.8202   22.0448 N   0  0  0  0  0  0
  -25.3884  -15.2016   20.4088 N   0  0  0  0  0  0
  -31.5264  -15.5633   20.1979 O   0  0  0  0  0  0
  -21.6645   -6.8893   21.4242 O   0  0  0  0  0  0
  -22.3404  -14.5485   20.6715 O   0  0  0  0  0  0
  -24.6837  -31.7993   23.1515 C   0  0  0  0  0  0
  -25.9420  -32.4457   23.8058 C   0  0  1  0  0  0
  -27.2043  -26.6796   20.2297 C   0  0  0  0  0  0
  -25.5988  -33.8282   24.1922 N   0  0  0  0  0  0
  -23.5065  -30.4019   21.5072 C   0  0  2  0  0  0
  -24.9581  -28.7353   20.1241 C   0  0  0  0  0  0
  -22.7761  -29.4312   22.4721 C   0  0  0  0  0  0
  -18.0320  -28.1396   22.8448 C   0  0  0  0  0  0
  -24.1513  -36.7153   23.2644 C   0  0  0  0  0  0
  -26.0877  -30.5209   21.4222 C   0  0  0  0  0  0
  -26.1451  -29.0830   20.7807 C   0  0  0  0  0  0
  -27.2510  -28.0815   20.8017 C   0  0  0  0  0  0
  -25.9885  -26.5454   19.5120 C   0  0  0  0  0  0
  -24.9178  -27.4921   19.4710 C   0  0  0  0  0  0
  -23.7598  -29.6998   20.1421 C   0  0  0  0  0  0
  -25.4160  -36.2890   24.0277 C   0  0  1  0  0  0
  -20.5965  -28.3793   23.1142 C   0  0  2  0  0  0
  -20.6803  -26.9454   22.5405 C   0  0  0  0  0  0
  -19.5768  -26.6359   21.5228 C   0  0  0  0  0  0
  -18.1950  -26.7914   22.1624 C   0  0  0  0  0  0
  -19.1588  -28.8909   23.2763 C   0  0  0  0  0  0
  -18.9498  -30.1493   23.8813 C   0  0  0  0  0  0
  -17.6490  -30.6597   24.0554 C   0  0  0  0  0  0
  -25.9161  -34.9282   23.4947 C   0  0  0  0  0  0
  -16.5374  -29.9094   23.6342 C   0  0  0  0  0  0
  -16.7302  -28.6505   23.0366 C   0  0  0  0  0  0
  -26.4577  -31.6488   25.0684 C   0  0  0  0  0  0
  -25.3636  -31.3769   26.1290 C   0  0  0  0  0  0
  -27.0561  -30.2843   24.6601 C   0  0  0  0  0  0
  -27.6019  -32.4356   25.7529 C   0  0  0  0  0  0
  -27.5586  -37.1706   24.8447 C   0  0  0  0  0  0
  -21.4405  -29.3020   22.3469 N   0  0  0  0  0  0
  -26.4279  -37.3672   23.9420 N   0  0  0  0  0  0
  -24.7833  -30.9437   22.0780 N   0  0  0  0  0  0
  -23.4217  -28.7929   23.3077 O   0  0  0  0  0  0
  -28.2104  -25.4928   20.2488 O   0  0  0  0  0  0
  -26.5829  -34.8872   22.4586 O   0  0  0  0  0  0
  -23.5857  -32.1071   23.6482 O   0  0  0  0  0  0
  -27.5099  -22.7290   20.8249 C   0  0  0  0  0  0
  -29.7114  -21.7103   19.7750 C   0  0  0  0  0  0
  -27.8415  -21.2241   20.8678 C   0  0  0  0  0  0
  -29.0344  -20.4950   20.3191 C   0  0  0  0  0  0
  -28.2762  -23.8665   20.2480 C   0  0  0  0  0  0
  -26.8317  -20.3799   21.6234 C   0  0  0  0  0  0
  -29.7748  -18.7555   20.3594 C   0  0  0  0  0  0
  -29.4070  -23.1461   19.7580 N   0  0  0  0  0  0
  -29.5224  -16.9901   20.3949 N   0  0  0  0  0  0
  -31.4176  -13.3358   19.1851 H   0  0  0  0  0  0
  -30.5747  -12.2319   20.2208 H   0  0  0  0  0  0
  -30.0162  -11.8002   17.8086 H   0  0  0  0  0  0
  -29.5272  -13.4627   17.5946 H   0  0  0  0  0  0
  -28.1490  -11.2984   19.1997 H   0  0  0  0  0  0
  -27.4603  -12.2362   17.8954 H   0  0  0  0  0  0
  -27.4587  -14.2261   19.2318 H   0  0  0  0  0  0
  -28.8537  -12.7576   21.5258 H   0  0  0  0  0  0
  -28.1589  -14.3608   21.6141 H   0  0  0  0  0  0
  -25.2791   -9.5678   22.4735 H   0  0  0  0  0  0
  -23.9992   -7.4656   22.7502 H   0  0  0  0  0  0
  -21.0840   -8.8836   19.8972 H   0  0  0  0  0  0
  -22.3777  -10.9674   19.6142 H   0  0  0  0  0  0
  -21.2055   -7.6136   23.9703 H   0  0  0  0  0  0
  -21.1467   -6.0496   25.9053 H   0  0  0  0  0  0
  -22.0608   -2.7599   23.2812 H   0  0  0  0  0  0
  -22.3960  -11.9904   22.4924 H   0  0  0  0  0  0
  -21.0957  -13.1252   22.2599 H   0  0  0  0  0  0
  -24.6063  -15.8413   20.4941 H   0  0  0  0  0  0
  -26.2058  -15.6336   19.9984 H   0  0  0  0  0  0
  -26.7488  -32.4897   23.0753 H   0  0  0  0  0  0
  -24.9947  -33.9321   24.9942 H   0  0  0  0  0  0
  -22.8327  -31.2406   21.3205 H   0  0  0  0  0  0
  -23.3805  -35.9453   23.3241 H   0  0  0  0  0  0
  -24.3590  -36.8878   22.2076 H   0  0  0  0  0  0
  -23.7265  -37.6313   23.6760 H   0  0  0  0  0  0
  -26.3014  -31.2412   20.6325 H   0  0  0  0  0  0
  -26.9374  -30.5877   22.0879 H   0  0  0  0  0  0
  -28.1492  -28.3519   21.3377 H   0  0  0  0  0  0
  -25.8233  -25.6103   18.9960 H   0  0  0  0  0  0
  -24.0192  -27.2210   18.9356 H   0  0  0  0  0  0
  -23.9418  -30.4608   19.3825 H   0  0  0  0  0  0
  -22.8593  -29.1732   19.8202 H   0  0  0  0  0  0
  -25.1367  -36.1637   25.0768 H   0  0  0  0  0  0
  -21.0014  -28.3412   24.1282 H   0  0  0  0  0  0
  -20.5695  -26.2414   23.3680 H   0  0  0  0  0  0
  -21.6669  -26.7421   22.1216 H   0  0  0  0  0  0
  -19.6958  -25.6257   21.1297 H   0  0  0  0  0  0
  -19.6685  -27.3147   20.6739 H   0  0  0  0  0  0
  -17.4225  -26.6634   21.4036 H   0  0  0  0  0  0
  -18.0346  -26.0086   22.9053 H   0  0  0  0  0  0
  -19.7983  -30.7317   24.2155 H   0  0  0  0  0  0
  -17.5056  -31.6283   24.5174 H   0  0  0  0  0  0
  -15.5380  -30.2980   23.7710 H   0  0  0  0  0  0
  -15.8695  -28.0817   22.7114 H   0  0  0  0  0  0
  -24.5886  -30.7046   25.7566 H   0  0  0  0  0  0
  -24.8745  -32.2972   26.4502 H   0  0  0  0  0  0
  -25.7810  -30.9074   27.0214 H   0  0  0  0  0  0
  -26.3293  -29.6410   24.1626 H   0  0  0  0  0  0
  -27.4043  -29.7313   25.5339 H   0  0  0  0  0  0
  -27.9240  -30.3985   24.0106 H   0  0  0  0  0  0
  -27.2520  -33.3674   26.1987 H   0  0  0  0  0  0
  -28.3904  -32.6898   25.0430 H   0  0  0  0  0  0
  -28.0634  -31.8591   26.5559 H   0  0  0  0  0  0
  -28.2498  -38.0108   24.7660 H   0  0  0  0  0  0
  -28.1181  -36.2653   24.6060 H   0  0  0  0  0  0
  -27.2321  -37.1096   25.8844 H   0  0  0  0  0  0
  -20.9719  -29.8654   21.6509 H   0  0  0  0  0  0
  -26.0085  -38.2694   24.1506 H   0  0  0  0  0  0
  -26.5921  -23.0252   21.3153 H   0  0  0  0  0  0
  -30.6619  -21.5071   19.3056 H   0  0  0  0  0  0
  -26.9198  -20.5795   22.6921 H   0  0  0  0  0  0
  -26.9965  -19.3134   21.4619 H   0  0  0  0  0  0
  -25.8096  -20.6113   21.3134 H   0  0  0  0  0  0
  -30.4643  -18.8608   21.1971 H   0  0  0  0  0  0
  -30.4298  -18.8182   19.4914 H   0  0  0  0  0  0
  -28.5344  -16.7899   20.4476 H   0  0  0  0  0  0
  1 25  1  0  0  0
  1 30  2  0  0  0
  1 79  1  0  0  0
  2  3  1  0  0  0
  2 25  1  0  0  0
  2 80  1  0  0  0
  2 81  1  0  0  0
  3  4  1  0  0  0
  3 82  1  0  0  0
  3 83  1  0  0  0
  4  5  1  0  0  0
  4 84  1  0  0  0
  4 85  1  0  0  0
  5  6  1  0  0  0
  5 26  1  0  0  0
  5 86  1  0  0  0
  6 25  1  0  0  0
  6 87  1  0  0  0
  6 88  1  0  0  0
  7  8  2  0  0  0
  7 26  1  0  0  0
  7 29  1  0  0  0
  8  9  1  0  0  0
  8 22  1  0  0  0
  9 10  1  0  0  0
  9 27  2  0  0  0
 10 11  2  0  0  0
 10 15  1  0  0  0
 11 12  1  0  0  0
 11 89  1  0  0  0
 12 13  2  0  0  0
 12 90  1  0  0  0
 13 14  1  0  0  0
 13 31  1  0  0  0
 14 15  2  0  0  0
 14 91  1  0  0  0
 15 92  1  0  0  0
 16 17  2  0  0  0
 16 21  1  0  0  0
 16 31  1  0  0  0
 17 18  1  0  0  0
 17 93  1  0  0  0
 18 19  2  0  0  0
 18 94  1  0  0  0
 19 20  1  0  0  0
 19 24  1  0  0  0
 20 21  2  0  0  0
 20 95  1  0  0  0
 21 23  1  0  0  0
 22 28  1  0  0  0
 22 32  2  0  0  0
 26 27  1  0  0  0
 28 96  1  0  0  0
 28 97  1  0  0  0
 29 98  1  0  0  0
 29 99  1  0  0  0
 33 34  1  0  0  0
 33 66  1  0  0  0
 33 70  2  0  0  0
 34 36  1  0  0  0
 34 59  1  0  0  0
 34100  1  0  0  0
 35 44  2  0  0  0
 35 45  1  0  0  0
 35 68  1  0  0  0
 36 56  1  0  0  0
 36101  1  0  0  0
 37 39  1  0  0  0
 37 47  1  0  0  0
 37 66  1  0  0  0
 37102  1  0  0  0
 38 43  2  0  0  0
 38 46  1  0  0  0
 38 47  1  0  0  0
 39 64  1  0  0  0
 39 67  2  0  0  0
 40 52  1  0  0  0
 40 53  2  0  0  0
 40 58  1  0  0  0
 41103  1  0  0  0
 41104  1  0  0  0
 41105  1  0  0  0
 41 48  1  0  0  0
 42 43  1  0  0  0
 42 66  1  0  0  0
 42106  1  0  0  0
 42107  1  0  0  0
 43 44  1  0  0  0
 44108  1  0  0  0
 45 46  2  0  0  0
 45109  1  0  0  0
 46110  1  0  0  0
 47111  1  0  0  0
 47112  1  0  0  0
 48 56  1  0  0  0
 48 65  1  0  0  0
 48113  1  0  0  0
 49 50  1  0  0  0
 49 53  1  0  0  0
 49 64  1  0  0  0
 49114  1  0  0  0
 50 51  1  0  0  0
 50115  1  0  0  0
 50116  1  0  0  0
 51 52  1  0  0  0
 51117  1  0  0  0
 51118  1  0  0  0
 52119  1  0  0  0
 52120  1  0  0  0
 53 54  1  0  0  0
 54 55  2  0  0  0
 54121  1  0  0  0
 55 57  1  0  0  0
 55122  1  0  0  0
 56 69  2  0  0  0
 57 58  2  0  0  0
 57123  1  0  0  0
 58124  1  0  0  0
 59 60  1  0  0  0
 59 61  1  0  0  0
 59 62  1  0  0  0
 60125  1  0  0  0
 60126  1  0  0  0
 60127  1  0  0  0
 61128  1  0  0  0
 61129  1  0  0  0
 61130  1  0  0  0
 62131  1  0  0  0
 62132  1  0  0  0
 62133  1  0  0  0
 63 65  1  0  0  0
 63134  1  0  0  0
 63135  1  0  0  0
 63136  1  0  0  0
 64137  1  0  0  0
 65138  1  0  0  0
 68 75  1  0  0  0
 71 73  2  0  0  0
 71 75  1  0  0  0
 71139  1  0  0  0
 72 74  2  0  0  0
 72 78  1  0  0  0
 72140  1  0  0  0
 73 74  1  0  0  0
 73 76  1  0  0  0
 74 77  1  0  0  0
 75 78  2  0  0  0
 76141  1  0  0  0
 76142  1  0  0  0
 76143  1  0  0  0
 77 79  1  0  0  0
 77144  1  0  0  0
 77145  1  0  0  0
 79146  1  0  0  0
M  ISO  4   1 100  68 101  75 101  79 100
M  END
> <chiral flag>
0

> <version>
0

> <s_m_source_file>
/data/baiqing/PycharmProjects/Reinvent-master-3.2/result/LINK_invent/BTK/process_docking_weight1_custom_sum_contain_oxygen_bond_distance_aromatic_linkinvent_7_9_3/rearranged_h_0116.sdf

> <i_m_source_file_index>
70

> <r_mmod_Potential_Energy-OPLS-2005>
2191.55834960938

> <r_mmod_Stretch_Energy-OPLS-2005>
935.571228027344

> <r_mmod_Bend_Energy-OPLS-2005>
699.281921386719

> <r_mmod_Torsional_Energy-OPLS-2005>
208.283706665039

> <r_mmod_Improper_Torsional_Energy-OPLS-2005>
5.64380788803101

> <r_mmod_Van_der_Waal_Energy-OPLS-2005>
132.703903198242

> <r_mmod_Electrostatic_Energy-OPLS-2005>
-459.397521972656

> <r_mmod_Solvation_Energy-OPLS-2005>
-231.145004272461

> <b_mmod_Minimization_Converged-OPLS-2005>
0

> <r_mmod_RMS_Derivative-OPLS-2005>
4.36147308349609

$$$$
71
                    3D
 Structure written by MMmdl.
168176  0  0  1  0            999 V2000
  -30.6656  -14.6174   20.4583 C   0  0  0  0  0  0
  -30.4225  -12.3635   19.4548 C   0  0  0  0  0  0
  -29.4998  -12.4770   18.2229 C   0  0  0  0  0  0
  -28.0295  -12.3130   18.6507 C   0  0  0  0  0  0
  -27.6531  -13.2110   19.8599 C   0  0  2  0  0  0
  -28.7013  -13.1075   20.9913 C   0  0  0  0  0  0
  -25.2588  -13.8158   20.5682 C   0  0  0  0  0  0
  -24.1851  -13.0437   20.9206 C   0  0  0  0  0  0
  -24.6415  -11.6901   20.8775 C   0  0  0  0  0  0
  -23.9077  -10.4289   21.0433 C   0  0  0  0  0  0
  -24.3623   -9.4213   21.9215 C   0  0  0  0  0  0
  -23.6294   -8.2242   22.0787 C   0  0  0  0  0  0
  -22.4280   -8.0283   21.3557 C   0  0  0  0  0  0
  -21.9915   -9.0268   20.4665 C   0  0  0  0  0  0
  -22.7254  -10.2143   20.3082 C   0  0  0  0  0  0
  -21.6848   -6.0733   22.5291 C   0  0  0  0  0  0
  -21.4015   -6.5644   23.8223 C   0  0  0  0  0  0
  -21.3662   -5.6799   24.9188 C   0  0  0  0  0  0
  -21.6047   -4.3060   24.7234 C   0  0  0  0  0  0
  -21.8822   -3.8155   23.4352 C   0  0  0  0  0  0
  -21.9198   -4.6966   22.3411 C   0  0  0  0  0  0
  -22.7884  -13.5254   21.1868 C   0  0  0  0  0  0
  -22.1665   -4.2155   21.0984 F   0  0  0  0  0  0
  -21.5631   -3.4552   25.7744 F   0  0  0  0  0  0
  -30.0161  -13.4142   20.4075 N   0  0  0  0  0  0
  -26.3009  -12.9325   20.3345 N   0  0  0  0  0  0
  -25.9342  -11.6491   20.5808 N   0  0  0  0  0  0
  -22.0529  -12.8212   22.0397 N   0  0  0  0  0  0
  -25.4283  -15.1858   20.4063 N   0  0  0  0  0  0
  -31.8466  -14.7290   20.1267 O   0  0  0  0  0  0
  -21.6651   -6.8875   21.4246 O   0  0  0  0  0  0
  -22.3589  -14.5584   20.6755 O   0  0  0  0  0  0
  -24.6226  -31.8631   23.2066 C   0  0  0  0  0  0
  -25.9053  -32.4813   23.8383 C   0  0  1  0  0  0
  -27.2225  -27.3319   20.1099 C   0  0  0  0  0  0
  -25.5875  -33.8606   24.2283 N   0  0  0  0  0  0
  -23.4166  -30.4856   21.5510 C   0  0  2  0  0  0
  -24.8668  -28.9492   20.1112 C   0  0  0  0  0  0
  -22.7466  -29.4608   22.4959 C   0  0  0  0  0  0
  -18.0272  -28.1364   22.8487 C   0  0  0  0  0  0
  -24.1504  -36.7295   23.2649 C   0  0  0  0  0  0
  -25.9615  -30.7909   21.3862 C   0  0  0  0  0  0
  -26.0364  -29.4260   20.7187 C   0  0  0  0  0  0
  -27.2184  -28.6271   20.7092 C   0  0  0  0  0  0
  -26.0303  -26.9125   19.4756 C   0  0  0  0  0  0
  -24.8660  -27.6992   19.4831 C   0  0  0  0  0  0
  -23.6317  -29.8251   20.1672 C   0  0  0  0  0  0
  -25.4130  -36.3084   24.0336 C   0  0  1  0  0  0
  -20.5870  -28.3660   23.1316 C   0  0  2  0  0  0
  -20.6766  -26.9385   22.5422 C   0  0  0  0  0  0
  -19.5739  -26.6366   21.5226 C   0  0  0  0  0  0
  -18.1906  -26.7912   22.1617 C   0  0  0  0  0  0
  -19.1525  -28.8819   23.2892 C   0  0  0  0  0  0
  -18.9431  -30.1410   23.8914 C   0  0  0  0  0  0
  -17.6442  -30.6583   24.0537 C   0  0  0  0  0  0
  -25.9058  -34.9459   23.5122 C   0  0  0  0  0  0
  -16.5318  -29.9070   23.6352 C   0  0  0  0  0  0
  -16.7259  -28.6485   23.0387 C   0  0  0  0  0  0
  -26.4470  -31.6625   25.0750 C   0  0  0  0  0  0
  -25.3700  -31.3733   26.1469 C   0  0  0  0  0  0
  -27.0347  -30.3069   24.6207 C   0  0  0  0  0  0
  -27.6029  -32.4407   25.7469 C   0  0  0  0  0  0
  -27.5601  -37.1770   24.8471 C   0  0  0  0  0  0
  -21.4186  -29.3016   22.3720 N   0  0  0  0  0  0
  -26.4314  -37.3761   23.9424 N   0  0  0  0  0  0
  -24.6839  -31.0640   22.1024 N   0  0  0  0  0  0
  -23.4205  -28.8125   23.3005 O   0  0  0  0  0  0
  -28.3423  -26.4874   20.1547 O   0  0  0  0  0  0
  -26.5644  -34.8900   22.4697 O   0  0  0  0  0  0
  -23.5380  -32.1429   23.7395 O   0  0  0  0  0  0
  -29.2582  -21.8795   18.7693 C   0  0  0  0  0  0
  -29.3712  -20.4579   21.0948 C   0  0  0  0  0  0
  -29.2545  -20.4591   18.6949 C   0  0  0  0  0  0
  -29.3163  -19.6877   19.9004 C   0  0  0  0  0  0
  -29.2990  -22.5563   20.0046 C   0  0  0  0  0  0
  -31.7682  -18.2447   13.4516 C   0  0  0  0  0  0
  -27.5385  -24.7584   21.7072 C   0  0  0  0  0  0
  -29.1675  -18.1158   19.9326 C   0  0  0  0  0  0
  -29.1538  -19.8439   17.3000 C   0  0  0  0  0  0
  -29.4155  -24.1245   20.0656 C   0  0  0  0  0  0
  -31.7629  -18.8802   14.8483 C   0  0  0  0  0  0
  -30.2754  -17.1805   20.5725 C   0  0  0  0  0  0
  -30.3495  -18.9926   15.4373 C   0  0  0  0  0  0
  -28.1326  -25.0236   20.3102 C   0  0  2  0  0  0
  -29.3654  -21.8268   21.1489 N   0  0  0  0  0  0
  -29.8950  -15.7252   20.6667 N   0  0  0  0  0  0
  -30.4233  -19.4353   16.7896 O   0  0  0  0  0  0
  -31.4715  -12.4432   19.1655 H   0  0  0  0  0  0
  -30.3137  -11.3816   19.9174 H   0  0  0  0  0  0
  -29.7587  -11.7095   17.4920 H   0  0  0  0  0  0
  -29.6387  -13.4389   17.7264 H   0  0  0  0  0  0
  -27.8912  -11.2636   18.9174 H   0  0  0  0  0  0
  -27.3591  -12.5012   17.8122 H   0  0  0  0  0  0
  -27.6625  -14.2360   19.4917 H   0  0  0  0  0  0
  -28.7081  -12.1085   21.4310 H   0  0  0  0  0  0
  -28.4604  -13.7938   21.8056 H   0  0  0  0  0  0
  -25.2756   -9.5697   22.4797 H   0  0  0  0  0  0
  -24.0017   -7.4637   22.7508 H   0  0  0  0  0  0
  -21.0847   -8.8794   19.8949 H   0  0  0  0  0  0
  -22.3724  -10.9700   19.6198 H   0  0  0  0  0  0
  -21.2005   -7.6153   23.9727 H   0  0  0  0  0  0
  -21.1482   -6.0531   25.9087 H   0  0  0  0  0  0
  -22.0590   -2.7618   23.2865 H   0  0  0  0  0  0
  -22.4126  -11.9822   22.4679 H   0  0  0  0  0  0
  -21.1187  -13.1291   22.2706 H   0  0  0  0  0  0
  -24.6481  -15.8291   20.4866 H   0  0  0  0  0  0
  -26.2659  -15.6236   20.0424 H   0  0  0  0  0  0
  -26.7102  -32.5505   23.1105 H   0  0  0  0  0  0
  -24.9993  -33.9787   25.0403 H   0  0  0  0  0  0
  -22.7061  -31.3043   21.4104 H   0  0  0  0  0  0
  -23.3788  -35.9613   23.3314 H   0  0  0  0  0  0
  -24.3601  -36.8939   22.2064 H   0  0  0  0  0  0
  -23.7241  -37.6477   23.6707 H   0  0  0  0  0  0
  -26.1072  -31.5552   20.6217 H   0  0  0  0  0  0
  -26.8352  -30.8270   22.0274 H   0  0  0  0  0  0
  -28.1173  -28.9756   21.1993 H   0  0  0  0  0  0
  -25.9636  -25.9656   18.9663 H   0  0  0  0  0  0
  -23.9716  -27.3272   18.9996 H   0  0  0  0  0  0
  -23.7419  -30.6027   19.4116 H   0  0  0  0  0  0
  -22.7553  -29.2497   19.8641 H   0  0  0  0  0  0
  -25.1293  -36.1954   25.0825 H   0  0  0  0  0  0
  -20.9920  -28.3224   24.1464 H   0  0  0  0  0  0
  -20.5709  -26.2240   23.3593 H   0  0  0  0  0  0
  -21.6629  -26.7456   22.1172 H   0  0  0  0  0  0
  -19.6914  -25.6284   21.1242 H   0  0  0  0  0  0
  -19.6713  -27.3208   20.6766 H   0  0  0  0  0  0
  -17.4189  -26.6688   21.3992 H   0  0  0  0  0  0
  -18.0259  -26.0041   22.8977 H   0  0  0  0  0  0
  -19.7901  -30.7186   24.2346 H   0  0  0  0  0  0
  -17.5007  -31.6284   24.5081 H   0  0  0  0  0  0
  -15.5327  -30.2948   23.7728 H   0  0  0  0  0  0
  -15.8646  -28.0794   22.7160 H   0  0  0  0  0  0
  -24.5861  -30.7116   25.7777 H   0  0  0  0  0  0
  -24.8879  -32.2852   26.4987 H   0  0  0  0  0  0
  -25.7971  -30.8828   27.0216 H   0  0  0  0  0  0
  -26.2915  -29.6764   24.1318 H   0  0  0  0  0  0
  -27.4137  -29.7389   25.4716 H   0  0  0  0  0  0
  -27.8739  -30.4391   23.9385 H   0  0  0  0  0  0
  -27.2675  -33.3741   26.2020 H   0  0  0  0  0  0
  -28.3797  -32.6951   25.0239 H   0  0  0  0  0  0
  -28.0750  -31.8570   26.5381 H   0  0  0  0  0  0
  -28.2577  -38.0089   24.7556 H   0  0  0  0  0  0
  -28.1101  -36.2609   24.6256 H   0  0  0  0  0  0
  -27.2308  -37.1410   25.8859 H   0  0  0  0  0  0
  -20.9376  -29.8766   21.6947 H   0  0  0  0  0  0
  -26.0211  -38.2851   24.1389 H   0  0  0  0  0  0
  -29.2384  -22.4653   17.8590 H   0  0  0  0  0  0
  -29.3832  -19.9644   22.0539 H   0  0  0  0  0  0
  -32.7824  -18.1813   13.0503 H   0  0  0  0  0  0
  -31.1722  -18.8248   12.7470 H   0  0  0  0  0  0
  -31.3630  -17.2340   13.4807 H   0  0  0  0  0  0
  -27.2749  -23.7066   21.8339 H   0  0  0  0  0  0
  -26.6327  -25.3377   21.8918 H   0  0  0  0  0  0
  -28.2548  -25.0162   22.4863 H   0  0  0  0  0  0
  -29.0205  -17.7492   18.9167 H   0  0  0  0  0  0
  -28.2224  -17.9117   20.4409 H   0  0  0  0  0  0
  -28.7481  -20.6110   16.6379 H   0  0  0  0  0  0
  -28.4250  -19.0341   17.2710 H   0  0  0  0  0  0
  -29.8402  -24.4325   19.1110 H   0  0  0  0  0  0
  -30.1788  -24.3752   20.8014 H   0  0  0  0  0  0
  -32.2166  -19.8711   14.7873 H   0  0  0  0  0  0
  -32.3975  -18.2939   15.5148 H   0  0  0  0  0  0
  -30.4953  -17.5181   21.5862 H   0  0  0  0  0  0
  -31.2071  -17.2903   20.0135 H   0  0  0  0  0  0
  -29.8288  -18.0338   15.3895 H   0  0  0  0  0  0
  -29.7747  -19.6959   14.8319 H   0  0  0  0  0  0
  -27.4204  -24.6738   19.5669 H   0  0  0  0  0  0
  -28.9310  -15.5321   20.8915 H   0  0  0  0  0  0
  1 25  1  0  0  0
  1 30  2  0  0  0
  1 86  1  0  0  0
  2  3  1  0  0  0
  2 25  1  0  0  0
  2 88  1  0  0  0
  2 89  1  0  0  0
  3  4  1  0  0  0
  3 90  1  0  0  0
  3 91  1  0  0  0
  4  5  1  0  0  0
  4 92  1  0  0  0
  4 93  1  0  0  0
  5  6  1  0  0  0
  5 26  1  0  0  0
  5 94  1  0  0  0
  6 25  1  0  0  0
  6 95  1  0  0  0
  6 96  1  0  0  0
  7  8  2  0  0  0
  7 26  1  0  0  0
  7 29  1  0  0  0
  8  9  1  0  0  0
  8 22  1  0  0  0
  9 10  1  0  0  0
  9 27  2  0  0  0
 10 11  2  0  0  0
 10 15  1  0  0  0
 11 12  1  0  0  0
 11 97  1  0  0  0
 12 13  2  0  0  0
 12 98  1  0  0  0
 13 14  1  0  0  0
 13 31  1  0  0  0
 14 15  2  0  0  0
 14 99  1  0  0  0
 15100  1  0  0  0
 16 17  2  0  0  0
 16 21  1  0  0  0
 16 31  1  0  0  0
 17 18  1  0  0  0
 17101  1  0  0  0
 18 19  2  0  0  0
 18102  1  0  0  0
 19 20  1  0  0  0
 19 24  1  0  0  0
 20 21  2  0  0  0
 20103  1  0  0  0
 21 23  1  0  0  0
 22 28  1  0  0  0
 22 32  2  0  0  0
 26 27  1  0  0  0
 28104  1  0  0  0
 28105  1  0  0  0
 29106  1  0  0  0
 29107  1  0  0  0
 33 34  1  0  0  0
 33 66  1  0  0  0
 33 70  2  0  0  0
 34 36  1  0  0  0
 34 59  1  0  0  0
 34108  1  0  0  0
 35 44  2  0  0  0
 35 45  1  0  0  0
 35 68  1  0  0  0
 36 56  1  0  0  0
 36109  1  0  0  0
 37 39  1  0  0  0
 37 47  1  0  0  0
 37 66  1  0  0  0
 37110  1  0  0  0
 38 43  2  0  0  0
 38 46  1  0  0  0
 38 47  1  0  0  0
 39 64  1  0  0  0
 39 67  2  0  0  0
 40 52  1  0  0  0
 40 53  2  0  0  0
 40 58  1  0  0  0
 41111  1  0  0  0
 41112  1  0  0  0
 41113  1  0  0  0
 41 48  1  0  0  0
 42 43  1  0  0  0
 42 66  1  0  0  0
 42114  1  0  0  0
 42115  1  0  0  0
 43 44  1  0  0  0
 44116  1  0  0  0
 45 46  2  0  0  0
 45117  1  0  0  0
 46118  1  0  0  0
 47119  1  0  0  0
 47120  1  0  0  0
 48 56  1  0  0  0
 48 65  1  0  0  0
 48121  1  0  0  0
 49 50  1  0  0  0
 49 53  1  0  0  0
 49 64  1  0  0  0
 49122  1  0  0  0
 50 51  1  0  0  0
 50123  1  0  0  0
 50124  1  0  0  0
 51 52  1  0  0  0
 51125  1  0  0  0
 51126  1  0  0  0
 52127  1  0  0  0
 52128  1  0  0  0
 53 54  1  0  0  0
 54 55  2  0  0  0
 54129  1  0  0  0
 55 57  1  0  0  0
 55130  1  0  0  0
 56 69  2  0  0  0
 57 58  2  0  0  0
 57131  1  0  0  0
 58132  1  0  0  0
 59 60  1  0  0  0
 59 61  1  0  0  0
 59 62  1  0  0  0
 60133  1  0  0  0
 60134  1  0  0  0
 60135  1  0  0  0
 61136  1  0  0  0
 61137  1  0  0  0
 61138  1  0  0  0
 62139  1  0  0  0
 62140  1  0  0  0
 62141  1  0  0  0
 63 65  1  0  0  0
 63142  1  0  0  0
 63143  1  0  0  0
 63144  1  0  0  0
 64145  1  0  0  0
 65146  1  0  0  0
 68 84  1  0  0  0
 71 73  2  0  0  0
 71 75  1  0  0  0
 71147  1  0  0  0
 72 74  2  0  0  0
 72 85  1  0  0  0
 72148  1  0  0  0
 73 74  1  0  0  0
 73 79  1  0  0  0
 74 78  1  0  0  0
 75 80  1  0  0  0
 75 85  2  0  0  0
 76 81  1  0  0  0
 76149  1  0  0  0
 76150  1  0  0  0
 76151  1  0  0  0
 77152  1  0  0  0
 77153  1  0  0  0
 77154  1  0  0  0
 77 84  1  0  0  0
 78 82  1  0  0  0
 78155  1  0  0  0
 78156  1  0  0  0
 79 87  1  0  0  0
 79157  1  0  0  0
 79158  1  0  0  0
 80 84  1  0  0  0
 80159  1  0  0  0
 80160  1  0  0  0
 81 83  1  0  0  0
 81161  1  0  0  0
 81162  1  0  0  0
 82 86  1  0  0  0
 82163  1  0  0  0
 82164  1  0  0  0
 83 87  1  0  0  0
 83165  1  0  0  0
 83166  1  0  0  0
 84167  1  0  0  0
 86168  1  0  0  0
M  ISO  4   1 100  68 101  84 101  86 100
M  END
> <chiral flag>
0

> <version>
0

> <s_m_source_file>
/data/baiqing/PycharmProjects/Reinvent-master-3.2/result/LINK_invent/BTK/process_docking_weight1_custom_sum_contain_oxygen_bond_distance_aromatic_linkinvent_7_9_3/rearranged_h_0116.sdf

> <i_m_source_file_index>
71

> <r_mmod_Potential_Energy-OPLS-2005>
-125.958312988281

> <r_mmod_Stretch_Energy-OPLS-2005>
77.4271392822266

> <r_mmod_Bend_Energy-OPLS-2005>
132.164978027344

> <r_mmod_Torsional_Energy-OPLS-2005>
209.522445678711

> <r_mmod_Improper_Torsional_Energy-OPLS-2005>
6.18054056167603

> <r_mmod_Van_der_Waal_Energy-OPLS-2005>
144.262084960938

> <r_mmod_Electrostatic_Energy-OPLS-2005>
-511.059997558594

> <r_mmod_Solvation_Energy-OPLS-2005>
-230.455200195312

> <b_mmod_Minimization_Converged-OPLS-2005>
0

> <r_mmod_RMS_Derivative-OPLS-2005>
4.53847646713257

$$$$
72
                    3D
 Structure written by MMmdl.
152159  0  0  1  0            999 V2000
  -30.4448  -15.2000   20.3780 C   0  0  0  0  0  0
  -30.4425  -12.7621   19.5290 C   0  0  0  0  0  0
  -29.5363  -12.5591   18.2887 C   0  0  0  0  0  0
  -28.0816  -12.2931   18.7134 C   0  0  0  0  0  0
  -27.6168  -13.2633   19.8258 C   0  0  2  0  0  0
  -28.6471  -13.4068   20.9659 C   0  0  0  0  0  0
  -25.2432  -13.8225   20.5744 C   0  0  0  0  0  0
  -24.1763  -13.0449   20.9254 C   0  0  0  0  0  0
  -24.6384  -11.6933   20.8758 C   0  0  0  0  0  0
  -23.9071  -10.4301   21.0422 C   0  0  0  0  0  0
  -24.3617   -9.4215   21.9200 C   0  0  0  0  0  0
  -23.6296   -8.2243   22.0762 C   0  0  0  0  0  0
  -22.4284   -8.0267   21.3546 C   0  0  0  0  0  0
  -21.9914   -9.0250   20.4659 C   0  0  0  0  0  0
  -22.7234  -10.2136   20.3079 C   0  0  0  0  0  0
  -21.6853   -6.0741   22.5288 C   0  0  0  0  0  0
  -21.4014   -6.5650   23.8217 C   0  0  0  0  0  0
  -21.3665   -5.6801   24.9180 C   0  0  0  0  0  0
  -21.6050   -4.3063   24.7233 C   0  0  0  0  0  0
  -21.8818   -3.8152   23.4352 C   0  0  0  0  0  0
  -21.9202   -4.6973   22.3413 C   0  0  0  0  0  0
  -22.7789  -13.5221   21.1900 C   0  0  0  0  0  0
  -22.1665   -4.2157   21.0990 F   0  0  0  0  0  0
  -21.5633   -3.4546   25.7748 F   0  0  0  0  0  0
  -29.8913  -13.8959   20.3530 N   0  0  0  0  0  0
  -26.2826  -12.9475   20.3180 N   0  0  0  0  0  0
  -25.9303  -11.6598   20.5682 N   0  0  0  0  0  0
  -22.0427  -12.8220   22.0450 N   0  0  0  0  0  0
  -25.4144  -15.1944   20.4217 N   0  0  0  0  0  0
  -31.6561  -15.2257   20.1210 O   0  0  0  0  0  0
  -21.6637   -6.8870   21.4243 O   0  0  0  0  0  0
  -22.3489  -14.5530   20.6735 O   0  0  0  0  0  0
  -24.6579  -31.8279   23.1738 C   0  0  0  0  0  0
  -25.9290  -32.4595   23.8188 C   0  0  1  0  0  0
  -27.2139  -26.9719   20.1673 C   0  0  0  0  0  0
  -25.5985  -33.8409   24.2102 N   0  0  0  0  0  0
  -23.4696  -30.4400   21.5203 C   0  0  2  0  0  0
  -24.9226  -28.8373   20.1057 C   0  0  0  0  0  0
  -22.7653  -29.4455   22.4791 C   0  0  0  0  0  0
  -18.0346  -28.1362   22.8427 C   0  0  0  0  0  0
  -24.1496  -36.7208   23.2639 C   0  0  0  0  0  0
  -26.0354  -30.6453   21.3988 C   0  0  0  0  0  0
  -26.1016  -29.2411   20.7407 C   0  0  0  0  0  0
  -27.2393  -28.3249   20.7558 C   0  0  0  0  0  0
  -26.0116  -26.7145   19.4714 C   0  0  0  0  0  0
  -24.9009  -27.5947   19.4520 C   0  0  0  0  0  0
  -23.7060  -29.7585   20.1444 C   0  0  0  0  0  0
  -25.4133  -36.2965   24.0295 C   0  0  1  0  0  0
  -20.5951  -28.3716   23.1198 C   0  0  2  0  0  0
  -20.6813  -26.9412   22.5404 C   0  0  0  0  0  0
  -19.5818  -26.6340   21.5194 C   0  0  0  0  0  0
  -18.1982  -26.7908   22.1555 C   0  0  0  0  0  0
  -19.1589  -28.8863   23.2800 C   0  0  0  0  0  0
  -18.9490  -30.1434   23.8866 C   0  0  0  0  0  0
  -17.6476  -30.6545   24.0556 C   0  0  0  0  0  0
  -25.9099  -34.9343   23.5016 C   0  0  0  0  0  0
  -16.5380  -29.9033   23.6310 C   0  0  0  0  0  0
  -16.7324  -28.6454   23.0324 C   0  0  0  0  0  0
  -26.4570  -31.6523   25.0691 C   0  0  0  0  0  0
  -25.3714  -31.3767   26.1362 C   0  0  0  0  0  0
  -27.0461  -30.2896   24.6386 C   0  0  0  0  0  0
  -27.6069  -32.4331   25.7494 C   0  0  0  0  0  0
  -27.5574  -37.1760   24.8466 C   0  0  0  0  0  0
  -21.4325  -29.3007   22.3543 N   0  0  0  0  0  0
  -26.4284  -37.3698   23.9404 N   0  0  0  0  0  0
  -24.7420  -30.9989   22.0842 N   0  0  0  0  0  0
  -23.4241  -28.8055   23.3038 O   0  0  0  0  0  0
  -28.2269  -25.8993   20.2983 O   0  0  0  0  0  0
  -26.5696  -34.8875   22.4608 O   0  0  0  0  0  0
  -23.5658  -32.1226   23.6853 O   0  0  0  0  0  0
  -27.4982  -19.1065   20.3396 C   0  0  0  0  0  0
  -29.1270  -19.6445   22.1289 C   0  0  0  0  0  0
  -28.4842  -22.7518   20.5856 C   0  0  0  0  0  0
  -29.0779  -21.1771   19.9906 C   0  0  0  0  0  0
  -29.8973  -18.0550   20.1696 C   0  0  0  0  0  0
  -28.2213  -24.3377   19.8153 C   0  0  0  0  0  0
  -28.9581  -19.5056   20.6081 C   0  0  0  0  0  0
  -29.6666  -16.4457   20.4877 N   0  0  0  0  0  0
  -31.4635  -12.9612   19.2004 H   0  0  0  0  0  0
  -30.5034  -11.8488   20.1228 H   0  0  0  0  0  0
  -29.9032  -11.7302   17.6810 H   0  0  0  0  0  0
  -29.5784  -13.4479   17.6575 H   0  0  0  0  0  0
  -28.0296  -11.2661   19.0774 H   0  0  0  0  0  0
  -27.4141  -12.3424   17.8523 H   0  0  0  0  0  0
  -27.5467  -14.2359   19.3353 H   0  0  0  0  0  0
  -28.7940  -12.4628   21.4925 H   0  0  0  0  0  0
  -28.2964  -14.1267   21.7063 H   0  0  0  0  0  0
  -25.2762   -9.5704   22.4777 H   0  0  0  0  0  0
  -24.0012   -7.4645   22.7483 H   0  0  0  0  0  0
  -21.0841   -8.8775   19.8966 H   0  0  0  0  0  0
  -22.3681  -10.9683   19.6195 H   0  0  0  0  0  0
  -21.1984   -7.6155   23.9724 H   0  0  0  0  0  0
  -21.1482   -6.0528   25.9081 H   0  0  0  0  0  0
  -22.0581   -2.7611   23.2855 H   0  0  0  0  0  0
  -22.4032  -11.9872   22.4841 H   0  0  0  0  0  0
  -21.1040  -13.1234   22.2647 H   0  0  0  0  0  0
  -24.6496  -15.8456   20.5534 H   0  0  0  0  0  0
  -26.2516  -15.6338   20.0637 H   0  0  0  0  0  0
  -26.7337  -32.5141   23.0880 H   0  0  0  0  0  0
  -25.0109  -33.9487   25.0239 H   0  0  0  0  0  0
  -22.7783  -31.2689   21.3495 H   0  0  0  0  0  0
  -23.3765  -35.9537   23.3281 H   0  0  0  0  0  0
  -24.3574  -36.8883   22.2061 H   0  0  0  0  0  0
  -23.7252  -37.6386   23.6714 H   0  0  0  0  0  0
  -26.2122  -31.3891   20.6203 H   0  0  0  0  0  0
  -26.8964  -30.7016   22.0530 H   0  0  0  0  0  0
  -28.1286  -28.6229   21.2939 H   0  0  0  0  0  0
  -25.8810  -25.7701   18.9668 H   0  0  0  0  0  0
  -24.0047  -27.2828   18.9331 H   0  0  0  0  0  0
  -23.8546  -30.5270   19.3854 H   0  0  0  0  0  0
  -22.8174  -29.2083   19.8299 H   0  0  0  0  0  0
  -25.1330  -36.1765   25.0784 H   0  0  0  0  0  0
  -21.0028  -28.3329   24.1315 H   0  0  0  0  0  0
  -20.5687  -26.2357   23.3650 H   0  0  0  0  0  0
  -21.6680  -26.7385   22.1220 H   0  0  0  0  0  0
  -19.7005  -25.6241   21.1254 H   0  0  0  0  0  0
  -19.6787  -27.3111   20.6699 H   0  0  0  0  0  0
  -17.4284  -26.6675   21.3923 H   0  0  0  0  0  0
  -18.0353  -26.0043   22.8943 H   0  0  0  0  0  0
  -19.7960  -30.7241   24.2260 H   0  0  0  0  0  0
  -17.4997  -31.6200   24.5176 H   0  0  0  0  0  0
  -15.5359  -30.2902   23.7621 H   0  0  0  0  0  0
  -15.8745  -28.0738   22.7043 H   0  0  0  0  0  0
  -24.5893  -30.7118   25.7687 H   0  0  0  0  0  0
  -24.8904  -32.2962   26.4702 H   0  0  0  0  0  0
  -25.7962  -30.8991   27.0197 H   0  0  0  0  0  0
  -26.3113  -29.6575   24.1380 H   0  0  0  0  0  0
  -27.4006  -29.7255   25.5027 H   0  0  0  0  0  0
  -27.9053  -30.4101   23.9782 H   0  0  0  0  0  0
  -27.2636  -33.3659   26.1978 H   0  0  0  0  0  0
  -28.3930  -32.6851   25.0365 H   0  0  0  0  0  0
  -28.0677  -31.8517   26.5490 H   0  0  0  0  0  0
  -28.2566  -38.0077   24.7496 H   0  0  0  0  0  0
  -28.1086  -36.2596   24.6308 H   0  0  0  0  0  0
  -27.2276  -37.1417   25.8864 H   0  0  0  0  0  0
  -20.9535  -29.8655   21.6670 H   0  0  0  0  0  0
  -26.0132  -38.2755   24.1428 H   0  0  0  0  0  0
  -26.8086  -19.8897   20.6574 H   0  0  0  0  0  0
  -27.2222  -18.1917   20.8656 H   0  0  0  0  0  0
  -27.3296  -18.9363   19.2760 H   0  0  0  0  0  0
  -28.4172  -20.3603   22.5471 H   0  0  0  0  0  0
  -30.1274  -19.9936   22.3858 H   0  0  0  0  0  0
  -28.9713  -18.6946   22.6410 H   0  0  0  0  0  0
  -29.1198  -22.9712   21.4434 H   0  0  0  0  0  0
  -27.5207  -22.5218   21.0410 H   0  0  0  0  0  0
  -30.1467  -21.3369   19.8454 H   0  0  0  0  0  0
  -28.7007  -21.1156   18.9680 H   0  0  0  0  0  0
  -29.9719  -18.0891   19.0814 H   0  0  0  0  0  0
  -30.9156  -18.2516   20.5067 H   0  0  0  0  0  0
  -27.3060  -24.2051   19.2422 H   0  0  0  0  0  0
  -28.9886  -24.3605   19.0407 H   0  0  0  0  0  0
  -28.7066  -16.2492   20.7298 H   0  0  0  0  0  0
  1 25  1  0  0  0
  1 30  2  0  0  0
  1 78  1  0  0  0
  2  3  1  0  0  0
  2 25  1  0  0  0
  2 79  1  0  0  0
  2 80  1  0  0  0
  3  4  1  0  0  0
  3 81  1  0  0  0
  3 82  1  0  0  0
  4  5  1  0  0  0
  4 83  1  0  0  0
  4 84  1  0  0  0
  5  6  1  0  0  0
  5 26  1  0  0  0
  5 85  1  0  0  0
  6 25  1  0  0  0
  6 86  1  0  0  0
  6 87  1  0  0  0
  7  8  2  0  0  0
  7 26  1  0  0  0
  7 29  1  0  0  0
  8  9  1  0  0  0
  8 22  1  0  0  0
  9 10  1  0  0  0
  9 27  2  0  0  0
 10 11  2  0  0  0
 10 15  1  0  0  0
 11 12  1  0  0  0
 11 88  1  0  0  0
 12 13  2  0  0  0
 12 89  1  0  0  0
 13 14  1  0  0  0
 13 31  1  0  0  0
 14 15  2  0  0  0
 14 90  1  0  0  0
 15 91  1  0  0  0
 16 17  2  0  0  0
 16 21  1  0  0  0
 16 31  1  0  0  0
 17 18  1  0  0  0
 17 92  1  0  0  0
 18 19  2  0  0  0
 18 93  1  0  0  0
 19 20  1  0  0  0
 19 24  1  0  0  0
 20 21  2  0  0  0
 20 94  1  0  0  0
 21 23  1  0  0  0
 22 28  1  0  0  0
 22 32  2  0  0  0
 26 27  1  0  0  0
 28 95  1  0  0  0
 28 96  1  0  0  0
 29 97  1  0  0  0
 29 98  1  0  0  0
 33 34  1  0  0  0
 33 66  1  0  0  0
 33 70  2  0  0  0
 34 36  1  0  0  0
 34 59  1  0  0  0
 34 99  1  0  0  0
 35 44  2  0  0  0
 35 45  1  0  0  0
 35 68  1  0  0  0
 36 56  1  0  0  0
 36100  1  0  0  0
 37 39  1  0  0  0
 37 47  1  0  0  0
 37 66  1  0  0  0
 37101  1  0  0  0
 38 43  2  0  0  0
 38 46  1  0  0  0
 38 47  1  0  0  0
 39 64  1  0  0  0
 39 67  2  0  0  0
 40 52  1  0  0  0
 40 53  2  0  0  0
 40 58  1  0  0  0
 41102  1  0  0  0
 41103  1  0  0  0
 41104  1  0  0  0
 41 48  1  0  0  0
 42 43  1  0  0  0
 42 66  1  0  0  0
 42105  1  0  0  0
 42106  1  0  0  0
 43 44  1  0  0  0
 44107  1  0  0  0
 45 46  2  0  0  0
 45108  1  0  0  0
 46109  1  0  0  0
 47110  1  0  0  0
 47111  1  0  0  0
 48 56  1  0  0  0
 48 65  1  0  0  0
 48112  1  0  0  0
 49 50  1  0  0  0
 49 53  1  0  0  0
 49 64  1  0  0  0
 49113  1  0  0  0
 50 51  1  0  0  0
 50114  1  0  0  0
 50115  1  0  0  0
 51 52  1  0  0  0
 51116  1  0  0  0
 51117  1  0  0  0
 52118  1  0  0  0
 52119  1  0  0  0
 53 54  1  0  0  0
 54 55  2  0  0  0
 54120  1  0  0  0
 55 57  1  0  0  0
 55121  1  0  0  0
 56 69  2  0  0  0
 57 58  2  0  0  0
 57122  1  0  0  0
 58123  1  0  0  0
 59 60  1  0  0  0
 59 61  1  0  0  0
 59 62  1  0  0  0
 60124  1  0  0  0
 60125  1  0  0  0
 60126  1  0  0  0
 61127  1  0  0  0
 61128  1  0  0  0
 61129  1  0  0  0
 62130  1  0  0  0
 62131  1  0  0  0
 62132  1  0  0  0
 63 65  1  0  0  0
 63133  1  0  0  0
 63134  1  0  0  0
 63135  1  0  0  0
 64136  1  0  0  0
 65137  1  0  0  0
 68 76  1  0  0  0
 71138  1  0  0  0
 71139  1  0  0  0
 71140  1  0  0  0
 71 77  1  0  0  0
 72 77  1  0  0  0
 72141  1  0  0  0
 72142  1  0  0  0
 72143  1  0  0  0
 73 74  1  0  0  0
 73 76  1  0  0  0
 73144  1  0  0  0
 73145  1  0  0  0
 74 77  1  0  0  0
 74146  1  0  0  0
 74147  1  0  0  0
 75 77  1  0  0  0
 75 78  1  0  0  0
 75148  1  0  0  0
 75149  1  0  0  0
 76150  1  0  0  0
 76151  1  0  0  0
 78152  1  0  0  0
M  ISO  4   1 100  68 101  76 101  78 100
M  END
> <chiral flag>
0

> <version>
0

> <s_m_source_file>
/data/baiqing/PycharmProjects/Reinvent-master-3.2/result/LINK_invent/BTK/process_docking_weight1_custom_sum_contain_oxygen_bond_distance_aromatic_linkinvent_7_9_3/rearranged_h_0116.sdf

> <i_m_source_file_index>
72

> <r_mmod_Potential_Energy-OPLS-2005>
1110.20471191406

> <r_mmod_Stretch_Energy-OPLS-2005>
556.68115234375

> <r_mmod_Bend_Energy-OPLS-2005>
422.959045410156

> <r_mmod_Torsional_Energy-OPLS-2005>
230.776428222656

> <r_mmod_Improper_Torsional_Energy-OPLS-2005>
4.29207897186279

> <r_mmod_Van_der_Waal_Energy-OPLS-2005>
106.733596801758

> <r_mmod_Electrostatic_Energy-OPLS-2005>
-403.880706787109

> <r_mmod_Solvation_Energy-OPLS-2005>
-203.002014160156

> <b_mmod_Minimization_Converged-OPLS-2005>
0

> <r_mmod_RMS_Derivative-OPLS-2005>
2.36118316650391

$$$$
73
                    3D
 Structure written by MMmdl.
170178  0  0  1  0            999 V2000
  -30.6409  -14.4995   20.4930 C   0  0  0  0  0  0
  -30.4233  -12.2964   19.4345 C   0  0  0  0  0  0
  -29.4950  -12.4925   18.2156 C   0  0  0  0  0  0
  -28.0147  -12.3481   18.6249 C   0  0  0  0  0  0
  -27.6565  -13.1944   19.8747 C   0  0  2  0  0  0
  -28.6984  -12.9879   21.0030 C   0  0  0  0  0  0
  -25.2579  -13.8138   20.5667 C   0  0  0  0  0  0
  -24.1827  -13.0435   20.9195 C   0  0  0  0  0  0
  -24.6363  -11.6893   20.8764 C   0  0  0  0  0  0
  -23.9035  -10.4281   21.0414 C   0  0  0  0  0  0
  -24.3601   -9.4200   21.9191 C   0  0  0  0  0  0
  -23.6278   -8.2238   22.0764 C   0  0  0  0  0  0
  -22.4262   -8.0267   21.3548 C   0  0  0  0  0  0
  -21.9895   -9.0245   20.4662 C   0  0  0  0  0  0
  -22.7212  -10.2125   20.3063 C   0  0  0  0  0  0
  -21.6847   -6.0717   22.5268 C   0  0  0  0  0  0
  -21.4021   -6.5633   23.8196 C   0  0  0  0  0  0
  -21.3665   -5.6793   24.9170 C   0  0  0  0  0  0
  -21.6042   -4.3053   24.7224 C   0  0  0  0  0  0
  -21.8828   -3.8135   23.4353 C   0  0  0  0  0  0
  -21.9198   -4.6951   22.3397 C   0  0  0  0  0  0
  -22.7860  -13.5243   21.1850 C   0  0  0  0  0  0
  -22.1665   -4.2133   21.0980 F   0  0  0  0  0  0
  -21.5625   -3.4537   25.7742 F   0  0  0  0  0  0
  -30.0307  -13.2847   20.4503 N   0  0  0  0  0  0
  -26.2986  -12.9271   20.3363 N   0  0  0  0  0  0
  -25.9280  -11.6452   20.5810 N   0  0  0  0  0  0
  -22.0495  -12.8225   22.0409 N   0  0  0  0  0  0
  -25.4334  -15.1858   20.4028 N   0  0  0  0  0  0
  -31.8035  -14.6834   20.1252 O   0  0  0  0  0  0
  -21.6637   -6.8859   21.4225 O   0  0  0  0  0  0
  -22.3558  -14.5540   20.6689 O   0  0  0  0  0  0
  -24.6163  -31.8659   23.2068 C   0  0  0  0  0  0
  -25.9047  -32.4822   23.8379 C   0  0  1  0  0  0
  -27.2363  -27.4280   20.1154 C   0  0  0  0  0  0
  -25.5885  -33.8618   24.2318 N   0  0  0  0  0  0
  -23.4049  -30.4910   21.5442 C   0  0  2  0  0  0
  -24.8521  -28.9479   20.1197 C   0  0  0  0  0  0
  -22.7410  -29.4674   22.4943 C   0  0  0  0  0  0
  -18.0313  -28.1362   22.8471 C   0  0  0  0  0  0
  -24.1488  -36.7314   23.2643 C   0  0  0  0  0  0
  -25.9332  -30.8336   21.3562 C   0  0  0  0  0  0
  -26.0104  -29.4638   20.7133 C   0  0  0  0  0  0
  -27.2072  -28.7119   20.7048 C   0  0  0  0  0  0
  -26.0666  -26.9247   19.5133 C   0  0  0  0  0  0
  -24.8743  -27.6756   19.5178 C   0  0  0  0  0  0
  -23.6143  -29.8171   20.1615 C   0  0  0  0  0  0
  -25.4104  -36.3111   24.0349 C   0  0  1  0  0  0
  -20.5898  -28.3678   23.1320 C   0  0  2  0  0  0
  -20.6817  -26.9407   22.5439 C   0  0  0  0  0  0
  -19.5832  -26.6384   21.5200 C   0  0  0  0  0  0
  -18.1986  -26.7924   22.1562 C   0  0  0  0  0  0
  -19.1545  -28.8828   23.2917 C   0  0  0  0  0  0
  -18.9456  -30.1419   23.8941 C   0  0  0  0  0  0
  -17.6455  -30.6560   24.0557 C   0  0  0  0  0  0
  -25.9026  -34.9480   23.5135 C   0  0  0  0  0  0
  -16.5355  -29.9057   23.6303 C   0  0  0  0  0  0
  -16.7297  -28.6480   23.0322 C   0  0  0  0  0  0
  -26.4471  -31.6601   25.0704 C   0  0  0  0  0  0
  -25.3753  -31.3705   26.1460 C   0  0  0  0  0  0
  -27.0312  -30.3056   24.6081 C   0  0  0  0  0  0
  -27.6062  -32.4289   25.7468 C   0  0  0  0  0  0
  -27.5580  -37.1804   24.8471 C   0  0  0  0  0  0
  -21.4144  -29.3047   22.3688 N   0  0  0  0  0  0
  -26.4293  -37.3786   23.9411 N   0  0  0  0  0  0
  -24.6696  -31.0790   22.0943 N   0  0  0  0  0  0
  -23.4180  -28.8189   23.2972 O   0  0  0  0  0  0
  -28.4005  -26.6950   20.0822 O   0  0  0  0  0  0
  -26.5604  -34.8946   22.4704 O   0  0  0  0  0  0
  -23.5348  -32.1357   23.7478 O   0  0  0  0  0  0
  -30.0037  -17.8546   17.5564 C   0  0  0  0  0  0
  -30.5294  -16.9854   18.7197 C   0  0  0  0  0  0
  -29.5920  -18.0245   20.9006 C   0  0  0  0  0  0
  -29.0848  -19.0435   17.8935 C   0  0  0  0  0  0
  -29.5861  -16.7950   19.9400 C   0  0  2  0  0  0
  -28.8785  -19.3042   20.3572 C   0  0  1  0  0  0
  -28.0314  -20.2481   22.5981 C   0  0  0  0  0  0
  -28.7872  -24.0787   18.8826 C   0  0  0  0  0  0
  -28.6188  -22.9812   21.1696 C   0  0  0  0  0  0
  -28.4640  -25.5428   20.9450 C   0  0  0  0  0  0
  -28.8516  -20.5255   21.3256 C   0  0  2  0  0  0
  -28.1512  -24.1694   20.2780 C   0  0  1  0  0  0
  -29.7670  -15.5157   20.6760 N   0  0  0  0  0  0
  -28.2560  -21.6696   20.6082 N   0  0  0  0  0  0
  -29.4902  -19.7819   19.1034 N   0  3  0  0  0  0
  -31.4671  -12.4020   19.1367 H   0  0  0  0  0  0
  -30.3242  -11.2858   19.8317 H   0  0  0  0  0  0
  -29.7387  -11.7691   17.4368 H   0  0  0  0  0  0
  -29.6613  -13.4780   17.7770 H   0  0  0  0  0  0
  -27.8289  -11.2930   18.8297 H   0  0  0  0  0  0
  -27.3671  -12.6127   17.7887 H   0  0  0  0  0  0
  -27.6893  -14.2349   19.5564 H   0  0  0  0  0  0
  -28.6695  -11.9582   21.3648 H   0  0  0  0  0  0
  -28.4709  -13.6122   21.8696 H   0  0  0  0  0  0
  -25.2745   -9.5679   22.4771 H   0  0  0  0  0  0
  -23.9985   -7.4638   22.7491 H   0  0  0  0  0  0
  -21.0823   -8.8758   19.8979 H   0  0  0  0  0  0
  -22.3656  -10.9671   19.6182 H   0  0  0  0  0  0
  -21.2014   -7.6144   23.9689 H   0  0  0  0  0  0
  -21.1480   -6.0533   25.9066 H   0  0  0  0  0  0
  -22.0602   -2.7597   23.2856 H   0  0  0  0  0  0
  -22.4095  -11.9878   22.4779 H   0  0  0  0  0  0
  -21.1131  -13.1282   22.2655 H   0  0  0  0  0  0
  -24.6646  -15.8400   20.4982 H   0  0  0  0  0  0
  -26.2761  -15.6147   20.0449 H   0  0  0  0  0  0
  -26.7132  -32.5545   23.1155 H   0  0  0  0  0  0
  -25.0067  -33.9792   25.0489 H   0  0  0  0  0  0
  -22.6954  -31.3080   21.4036 H   0  0  0  0  0  0
  -23.3746  -35.9650   23.3319 H   0  0  0  0  0  0
  -24.3590  -36.8892   22.2050 H   0  0  0  0  0  0
  -23.7248  -37.6534   23.6641 H   0  0  0  0  0  0
  -26.0454  -31.5906   20.5788 H   0  0  0  0  0  0
  -26.8244  -30.8939   21.9695 H   0  0  0  0  0  0
  -28.1058  -29.1106   21.1534 H   0  0  0  0  0  0
  -26.0836  -25.9579   19.0324 H   0  0  0  0  0  0
  -23.9847  -27.2709   19.0569 H   0  0  0  0  0  0
  -23.7237  -30.5875   19.3961 H   0  0  0  0  0  0
  -22.7384  -29.2346   19.8695 H   0  0  0  0  0  0
  -25.1272  -36.1979   25.0841 H   0  0  0  0  0  0
  -21.0006  -28.3295   24.1440 H   0  0  0  0  0  0
  -20.5677  -26.2281   23.3630 H   0  0  0  0  0  0
  -21.6707  -26.7407   22.1286 H   0  0  0  0  0  0
  -19.7006  -25.6306   21.1208 H   0  0  0  0  0  0
  -19.6800  -27.3166   20.6711 H   0  0  0  0  0  0
  -17.4311  -26.6697   21.3904 H   0  0  0  0  0  0
  -18.0379  -26.0021   22.8916 H   0  0  0  0  0  0
  -19.7928  -30.7216   24.2336 H   0  0  0  0  0  0
  -17.4991  -31.6241   24.5136 H   0  0  0  0  0  0
  -15.5354  -30.2951   23.7590 H   0  0  0  0  0  0
  -15.8712  -28.0803   22.7007 H   0  0  0  0  0  0
  -24.5929  -30.7038   25.7803 H   0  0  0  0  0  0
  -24.8949  -32.2857   26.4922 H   0  0  0  0  0  0
  -25.8112  -30.8865   27.0205 H   0  0  0  0  0  0
  -26.2858  -29.6799   24.1159 H   0  0  0  0  0  0
  -27.4111  -29.7305   25.4535 H   0  0  0  0  0  0
  -27.8674  -30.4385   23.9220 H   0  0  0  0  0  0
  -27.2713  -33.3571   26.2111 H   0  0  0  0  0  0
  -28.3859  -32.6850   25.0282 H   0  0  0  0  0  0
  -28.0759  -31.8354   26.5319 H   0  0  0  0  0  0
  -28.2606  -38.0093   24.7489 H   0  0  0  0  0  0
  -28.1054  -36.2615   24.6304 H   0  0  0  0  0  0
  -27.2306  -37.1472   25.8879 H   0  0  0  0  0  0
  -20.9320  -29.8699   21.6839 H   0  0  0  0  0  0
  -26.0185  -38.2872   24.1367 H   0  0  0  0  0  0
  -29.4537  -17.2098   16.8682 H   0  0  0  0  0  0
  -30.8588  -18.2106   16.9787 H   0  0  0  0  0  0
  -31.4838  -17.3806   19.0699 H   0  0  0  0  0  0
  -30.7675  -16.0253   18.2591 H   0  0  0  0  0  0
  -30.6133  -18.2630   21.2005 H   0  0  0  0  0  0
  -29.0854  -17.7299   21.8189 H   0  0  0  0  0  0
  -28.0512  -18.7055   17.9824 H   0  0  0  0  0  0
  -29.0880  -19.7379   17.0516 H   0  0  0  0  0  0
  -28.5747  -16.6990   19.5403 H   0  0  0  0  0  0
  -27.8366  -19.0448   20.1589 H   0  0  0  0  0  0
  -28.4698  -19.4355   23.1782 H   0  0  0  0  0  0
  -27.0039  -19.9630   22.3659 H   0  0  0  0  0  0
  -27.9954  -21.1117   23.2615 H   0  0  0  0  0  0
  -28.5608  -23.1286   18.4029 H   0  0  0  0  0  0
  -29.8711  -24.1869   18.9279 H   0  0  0  0  0  0
  -28.3967  -24.8571   18.2289 H   0  0  0  0  0  0
  -28.1790  -23.0863   22.1632 H   0  0  0  0  0  0
  -29.7007  -23.0373   21.3008 H   0  0  0  0  0  0
  -29.4822  -25.5121   21.3355 H   0  0  0  0  0  0
  -27.8234  -25.6835   21.8179 H   0  0  0  0  0  0
  -29.8803  -20.7635   21.6080 H   0  0  0  0  0  0
  -27.0696  -24.0943   20.1604 H   0  0  0  0  0  0
  -28.9147  -15.1893   21.1053 H   0  0  0  0  0  0
  -27.2406  -21.5853   20.6119 H   0  0  0  0  0  0
  -29.1145  -20.7237   19.0597 H   0  0  0  0  0  0
  -30.4887  -19.8725   19.1791 H   0  0  0  0  0  0
  1 25  1  0  0  0
  1 30  2  0  0  0
  1 83  1  0  0  0
  2  3  1  0  0  0
  2 25  1  0  0  0
  2 86  1  0  0  0
  2 87  1  0  0  0
  3  4  1  0  0  0
  3 88  1  0  0  0
  3 89  1  0  0  0
  4  5  1  0  0  0
  4 90  1  0  0  0
  4 91  1  0  0  0
  5  6  1  0  0  0
  5 26  1  0  0  0
  5 92  1  0  0  0
  6 25  1  0  0  0
  6 93  1  0  0  0
  6 94  1  0  0  0
  7  8  2  0  0  0
  7 26  1  0  0  0
  7 29  1  0  0  0
  8  9  1  0  0  0
  8 22  1  0  0  0
  9 10  1  0  0  0
  9 27  2  0  0  0
 10 11  2  0  0  0
 10 15  1  0  0  0
 11 12  1  0  0  0
 11 95  1  0  0  0
 12 13  2  0  0  0
 12 96  1  0  0  0
 13 14  1  0  0  0
 13 31  1  0  0  0
 14 15  2  0  0  0
 14 97  1  0  0  0
 15 98  1  0  0  0
 16 17  2  0  0  0
 16 21  1  0  0  0
 16 31  1  0  0  0
 17 18  1  0  0  0
 17 99  1  0  0  0
 18 19  2  0  0  0
 18100  1  0  0  0
 19 20  1  0  0  0
 19 24  1  0  0  0
 20 21  2  0  0  0
 20101  1  0  0  0
 21 23  1  0  0  0
 22 28  1  0  0  0
 22 32  2  0  0  0
 26 27  1  0  0  0
 28102  1  0  0  0
 28103  1  0  0  0
 29104  1  0  0  0
 29105  1  0  0  0
 33 34  1  0  0  0
 33 66  1  0  0  0
 33 70  2  0  0  0
 34 36  1  0  0  0
 34 59  1  0  0  0
 34106  1  0  0  0
 35 44  2  0  0  0
 35 45  1  0  0  0
 35 68  1  0  0  0
 36 56  1  0  0  0
 36107  1  0  0  0
 37 39  1  0  0  0
 37 47  1  0  0  0
 37 66  1  0  0  0
 37108  1  0  0  0
 38 43  2  0  0  0
 38 46  1  0  0  0
 38 47  1  0  0  0
 39 64  1  0  0  0
 39 67  2  0  0  0
 40 52  1  0  0  0
 40 53  2  0  0  0
 40 58  1  0  0  0
 41109  1  0  0  0
 41110  1  0  0  0
 41111  1  0  0  0
 41 48  1  0  0  0
 42 43  1  0  0  0
 42 66  1  0  0  0
 42112  1  0  0  0
 42113  1  0  0  0
 43 44  1  0  0  0
 44114  1  0  0  0
 45 46  2  0  0  0
 45115  1  0  0  0
 46116  1  0  0  0
 47117  1  0  0  0
 47118  1  0  0  0
 48 56  1  0  0  0
 48 65  1  0  0  0
 48119  1  0  0  0
 49 50  1  0  0  0
 49 53  1  0  0  0
 49 64  1  0  0  0
 49120  1  0  0  0
 50 51  1  0  0  0
 50121  1  0  0  0
 50122  1  0  0  0
 51 52  1  0  0  0
 51123  1  0  0  0
 51124  1  0  0  0
 52125  1  0  0  0
 52126  1  0  0  0
 53 54  1  0  0  0
 54 55  2  0  0  0
 54127  1  0  0  0
 55 57  1  0  0  0
 55128  1  0  0  0
 56 69  2  0  0  0
 57 58  2  0  0  0
 57129  1  0  0  0
 58130  1  0  0  0
 59 60  1  0  0  0
 59 61  1  0  0  0
 59 62  1  0  0  0
 60131  1  0  0  0
 60132  1  0  0  0
 60133  1  0  0  0
 61134  1  0  0  0
 61135  1  0  0  0
 61136  1  0  0  0
 62137  1  0  0  0
 62138  1  0  0  0
 62139  1  0  0  0
 63 65  1  0  0  0
 63140  1  0  0  0
 63141  1  0  0  0
 63142  1  0  0  0
 64143  1  0  0  0
 65144  1  0  0  0
 68 80  1  0  0  0
 71 72  1  0  0  0
 71 74  1  0  0  0
 71145  1  0  0  0
 71146  1  0  0  0
 72 75  1  0  0  0
 72147  1  0  0  0
 72148  1  0  0  0
 73 75  1  0  0  0
 73149  1  0  0  0
 73150  1  0  0  0
 73 76  1  0  0  0
 74 85  1  0  0  0
 74151  1  0  0  0
 74152  1  0  0  0
 75 83  1  0  0  0
 75153  1  0  0  0
 76 81  1  0  0  0
 76 85  1  0  0  0
 76154  1  0  0  0
 77155  1  0  0  0
 77156  1  0  0  0
 77157  1  0  0  0
 77 81  1  0  0  0
 78158  1  0  0  0
 78159  1  0  0  0
 78160  1  0  0  0
 78 82  1  0  0  0
 79 82  1  0  0  0
 79 84  1  0  0  0
 79161  1  0  0  0
 79162  1  0  0  0
 80 82  1  0  0  0
 80163  1  0  0  0
 80164  1  0  0  0
 81 84  1  0  0  0
 81165  1  0  0  0
 82166  1  0  0  0
 83167  1  0  0  0
 84168  1  0  0  0
 85169  1  0  0  0
 85170  1  0  0  0
M  CHG  1  85   1
M  ISO  4   1 100  68 101  80 101  83 100
M  END
> <chiral flag>
0

> <version>
0

> <s_m_source_file>
/data/baiqing/PycharmProjects/Reinvent-master-3.2/result/LINK_invent/BTK/process_docking_weight1_custom_sum_contain_oxygen_bond_distance_aromatic_linkinvent_7_9_3/rearranged_h_0116.sdf

> <i_m_source_file_index>
73

> <r_mmod_Potential_Energy-OPLS-2005>
-134.19172668457

> <r_mmod_Stretch_Energy-OPLS-2005>
42.2859230041504

> <r_mmod_Bend_Energy-OPLS-2005>
122.802787780762

> <r_mmod_Torsional_Energy-OPLS-2005>
309.954437255859

> <r_mmod_Improper_Torsional_Energy-OPLS-2005>
9.79910278320312

> <r_mmod_Van_der_Waal_Energy-OPLS-2005>
139.130126953125

> <r_mmod_Electrostatic_Energy-OPLS-2005>
-333.508972167969

> <r_mmod_Solvation_Energy-OPLS-2005>
-441.073059082031

> <b_mmod_Minimization_Converged-OPLS-2005>
0

> <r_mmod_RMS_Derivative-OPLS-2005>
2.84264969825745

$$$$
74
                    3D
 Structure written by MMmdl.
156164  0  0  1  0            999 V2000
  -30.7558  -14.4088   20.6212 C   0  0  0  0  0  0
  -30.4145  -12.2919   19.4049 C   0  0  0  0  0  0
  -29.4842  -12.5041   18.1955 C   0  0  0  0  0  0
  -28.0087  -12.3640   18.6162 C   0  0  0  0  0  0
  -27.6623  -13.2054   19.8734 C   0  0  2  0  0  0
  -28.7043  -12.9786   20.9910 C   0  0  0  0  0  0
  -25.2594  -13.8161   20.5686 C   0  0  0  0  0  0
  -24.1837  -13.0440   20.9180 C   0  0  0  0  0  0
  -24.6393  -11.6911   20.8736 C   0  0  0  0  0  0
  -23.9061  -10.4293   21.0402 C   0  0  0  0  0  0
  -24.3614   -9.4213   21.9184 C   0  0  0  0  0  0
  -23.6294   -8.2243   22.0750 C   0  0  0  0  0  0
  -22.4272   -8.0281   21.3549 C   0  0  0  0  0  0
  -21.9908   -9.0251   20.4651 C   0  0  0  0  0  0
  -22.7241  -10.2130   20.3045 C   0  0  0  0  0  0
  -21.6856   -6.0734   22.5285 C   0  0  0  0  0  0
  -21.4009   -6.5637   23.8217 C   0  0  0  0  0  0
  -21.3650   -5.6791   24.9180 C   0  0  0  0  0  0
  -21.6042   -4.3053   24.7225 C   0  0  0  0  0  0
  -21.8820   -3.8147   23.4348 C   0  0  0  0  0  0
  -21.9197   -4.6964   22.3406 C   0  0  0  0  0  0
  -22.7864  -13.5242   21.1846 C   0  0  0  0  0  0
  -22.1667   -4.2149   21.0984 F   0  0  0  0  0  0
  -21.5620   -3.4535   25.7734 F   0  0  0  0  0  0
  -30.0399  -13.2681   20.4383 N   0  0  0  0  0  0
  -26.3028  -12.9337   20.3375 N   0  0  0  0  0  0
  -25.9320  -11.6497   20.5778 N   0  0  0  0  0  0
  -22.0498  -12.8220   22.0391 N   0  0  0  0  0  0
  -25.4341  -15.1876   20.4099 N   0  0  0  0  0  0
  -31.8475  -14.6113   20.0834 O   0  0  0  0  0  0
  -21.6643   -6.8875   21.4246 O   0  0  0  0  0  0
  -22.3554  -14.5559   20.6717 O   0  0  0  0  0  0
  -24.6109  -31.8710   23.2123 C   0  0  0  0  0  0
  -25.9036  -32.4833   23.8412 C   0  0  1  0  0  0
  -27.2359  -27.4649   20.0732 C   0  0  0  0  0  0
  -25.5941  -33.8627   24.2364 N   0  0  0  0  0  0
  -23.3946  -30.4950   21.5525 C   0  0  2  0  0  0
  -24.8372  -28.9605   20.1180 C   0  0  0  0  0  0
  -22.7383  -29.4672   22.5010 C   0  0  0  0  0  0
  -18.0258  -28.1370   22.8488 C   0  0  0  0  0  0
  -24.1495  -36.7293   23.2636 C   0  0  0  0  0  0
  -25.9208  -30.8421   21.3626 C   0  0  0  0  0  0
  -25.9962  -29.4791   20.7088 C   0  0  0  0  0  0
  -27.1942  -28.7354   20.6878 C   0  0  0  0  0  0
  -26.0527  -26.9485   19.4933 C   0  0  0  0  0  0
  -24.8584  -27.6917   19.5146 C   0  0  0  0  0  0
  -23.6008  -29.8267   20.1669 C   0  0  0  0  0  0
  -25.4110  -36.3104   24.0351 C   0  0  1  0  0  0
  -20.5845  -28.3647   23.1331 C   0  0  2  0  0  0
  -20.6749  -26.9390   22.5421 C   0  0  0  0  0  0
  -19.5747  -26.6381   21.5199 C   0  0  0  0  0  0
  -18.1912  -26.7932   22.1587 C   0  0  0  0  0  0
  -19.1508  -28.8824   23.2907 C   0  0  0  0  0  0
  -18.9440  -30.1434   23.8902 C   0  0  0  0  0  0
  -17.6445  -30.6581   24.0551 C   0  0  0  0  0  0
  -25.9049  -34.9474   23.5147 C   0  0  0  0  0  0
  -16.5331  -29.9078   23.6331 C   0  0  0  0  0  0
  -16.7249  -28.6496   23.0348 C   0  0  0  0  0  0
  -26.4475  -31.6600   25.0732 C   0  0  0  0  0  0
  -25.3751  -31.3653   26.1480 C   0  0  0  0  0  0
  -27.0279  -30.3045   24.6081 C   0  0  0  0  0  0
  -27.6097  -32.4275   25.7482 C   0  0  0  0  0  0
  -27.5584  -37.1793   24.8461 C   0  0  0  0  0  0
  -21.4113  -29.3019   22.3738 N   0  0  0  0  0  0
  -26.4281  -37.3801   23.9434 N   0  0  0  0  0  0
  -24.6600  -31.0853   22.1003 N   0  0  0  0  0  0
  -23.4181  -28.8242   23.3052 O   0  0  0  0  0  0
  -28.4406  -26.7962   20.0634 O   0  0  0  0  0  0
  -26.5580  -34.8923   22.4688 O   0  0  0  0  0  0
  -23.5318  -32.1439   23.7563 O   0  0  0  0  0  0
  -31.1819  -17.8777   19.7232 C   0  0  0  0  0  0
  -31.0753  -19.0835   19.0095 C   0  0  0  0  0  0
  -30.0479  -18.9720   21.5514 C   0  0  0  0  0  0
  -30.6563  -17.8121   21.0294 C   0  0  0  0  0  0
  -30.4622  -20.1882   19.6185 C   0  0  0  0  0  0
  -30.8232  -16.5615   21.8953 C   0  0  0  0  0  0
  -30.0018  -25.1182   19.3942 C   0  0  0  0  0  0
  -30.2670  -23.7648   18.7121 C   0  0  0  0  0  0
  -28.5285  -25.5430   19.3956 C   0  0  0  0  0  0
  -29.9359  -22.5475   19.5905 C   0  0  0  0  0  0
  -29.9462  -20.1326   20.8667 N   0  0  0  0  0  0
  -30.1841  -15.3394   21.3982 N   0  0  0  0  0  0
  -30.4048  -21.3783   18.9226 O   0  0  0  0  0  0
  -31.4583  -12.3816   19.0982 H   0  0  0  0  0  0
  -30.3090  -11.2780   19.7939 H   0  0  0  0  0  0
  -29.7151  -11.7811   17.4119 H   0  0  0  0  0  0
  -29.6544  -13.4916   17.7644 H   0  0  0  0  0  0
  -27.8222  -11.3080   18.8165 H   0  0  0  0  0  0
  -27.3523  -12.6352   17.7881 H   0  0  0  0  0  0
  -27.7112  -14.2543   19.5794 H   0  0  0  0  0  0
  -28.6723  -11.9432   21.3335 H   0  0  0  0  0  0
  -28.4622  -13.5795   21.8682 H   0  0  0  0  0  0
  -25.2755   -9.5690   22.4767 H   0  0  0  0  0  0
  -24.0004   -7.4627   22.7459 H   0  0  0  0  0  0
  -21.0835   -8.8774   19.8961 H   0  0  0  0  0  0
  -22.3709  -10.9656   19.6135 H   0  0  0  0  0  0
  -21.1996   -7.6144   23.9718 H   0  0  0  0  0  0
  -21.1464   -6.0520   25.9081 H   0  0  0  0  0  0
  -22.0601   -2.7610   23.2844 H   0  0  0  0  0  0
  -22.4098  -11.9861   22.4752 H   0  0  0  0  0  0
  -21.1121  -13.1255   22.2606 H   0  0  0  0  0  0
  -24.6724  -15.8484   20.5173 H   0  0  0  0  0  0
  -26.2964  -15.6235   20.1057 H   0  0  0  0  0  0
  -26.7106  -32.5548   23.1184 H   0  0  0  0  0  0
  -25.0217  -33.9802   25.0591 H   0  0  0  0  0  0
  -22.6821  -31.3111   21.4162 H   0  0  0  0  0  0
  -23.3782  -35.9601   23.3271 H   0  0  0  0  0  0
  -24.3597  -36.8918   22.2056 H   0  0  0  0  0  0
  -23.7206  -37.6482   23.6639 H   0  0  0  0  0  0
  -26.0348  -31.6117   20.5979 H   0  0  0  0  0  0
  -26.8090  -30.8896   21.9812 H   0  0  0  0  0  0
  -28.0912  -29.1397   21.1362 H   0  0  0  0  0  0
  -26.0317  -25.9805   19.0133 H   0  0  0  0  0  0
  -23.9643  -27.2845   19.0607 H   0  0  0  0  0  0
  -23.7091  -30.6022   19.4070 H   0  0  0  0  0  0
  -22.7258  -29.2451   19.8705 H   0  0  0  0  0  0
  -25.1282  -36.1969   25.0843 H   0  0  0  0  0  0
  -20.9927  -28.3188   24.1456 H   0  0  0  0  0  0
  -20.5630  -26.2260   23.3603 H   0  0  0  0  0  0
  -21.6623  -26.7424   22.1228 H   0  0  0  0  0  0
  -19.6913  -25.6290   21.1228 H   0  0  0  0  0  0
  -19.6732  -27.3193   20.6733 H   0  0  0  0  0  0
  -17.4222  -26.6711   21.3952 H   0  0  0  0  0  0
  -18.0287  -26.0041   22.8945 H   0  0  0  0  0  0
  -19.7917  -30.7228   24.2287 H   0  0  0  0  0  0
  -17.5005  -31.6259   24.5149 H   0  0  0  0  0  0
  -15.5334  -30.2972   23.7666 H   0  0  0  0  0  0
  -15.8648  -28.0810   22.7067 H   0  0  0  0  0  0
  -24.6083  -30.6806   25.7840 H   0  0  0  0  0  0
  -24.8742  -32.2748   26.4807 H   0  0  0  0  0  0
  -25.8158  -30.8993   27.0308 H   0  0  0  0  0  0
  -26.2784  -29.6842   24.1158 H   0  0  0  0  0  0
  -27.4057  -29.7263   25.4528 H   0  0  0  0  0  0
  -27.8634  -30.4362   23.9201 H   0  0  0  0  0  0
  -27.2788  -33.3595   26.2079 H   0  0  0  0  0  0
  -28.3906  -32.6783   25.0286 H   0  0  0  0  0  0
  -28.0769  -31.8363   26.5371 H   0  0  0  0  0  0
  -28.2582  -38.0109   24.7545 H   0  0  0  0  0  0
  -28.1087  -36.2645   24.6223 H   0  0  0  0  0  0
  -27.2318  -37.1375   25.8865 H   0  0  0  0  0  0
  -20.9277  -29.8733   21.6952 H   0  0  0  0  0  0
  -26.0169  -38.2875   24.1457 H   0  0  0  0  0  0
  -31.6852  -17.0334   19.2770 H   0  0  0  0  0  0
  -31.4838  -19.1684   18.0120 H   0  0  0  0  0  0
  -29.6483  -18.9810   22.5544 H   0  0  0  0  0  0
  -30.4249  -16.7595   22.8912 H   0  0  0  0  0  0
  -31.8913  -16.3879   22.0410 H   0  0  0  0  0  0
  -30.5718  -25.8889   18.8754 H   0  0  0  0  0  0
  -30.3873  -25.1005   20.4145 H   0  0  0  0  0  0
  -31.3267  -23.7184   18.4560 H   0  0  0  0  0  0
  -29.7306  -23.7066   17.7637 H   0  0  0  0  0  0
  -27.9135  -24.8005   19.9062 H   0  0  0  0  0  0
  -28.1786  -25.6326   18.3650 H   0  0  0  0  0  0
  -28.8619  -22.4745   19.7658 H   0  0  0  0  0  0
  -30.4287  -22.6601   20.5577 H   0  0  0  0  0  0
  -29.2795  -15.1076   21.7806 H   0  0  0  0  0  0
  1 25  1  0  0  0
  1 30  2  0  0  0
  1 82  1  0  0  0
  2  3  1  0  0  0
  2 25  1  0  0  0
  2 84  1  0  0  0
  2 85  1  0  0  0
  3  4  1  0  0  0
  3 86  1  0  0  0
  3 87  1  0  0  0
  4  5  1  0  0  0
  4 88  1  0  0  0
  4 89  1  0  0  0
  5  6  1  0  0  0
  5 26  1  0  0  0
  5 90  1  0  0  0
  6 25  1  0  0  0
  6 91  1  0  0  0
  6 92  1  0  0  0
  7  8  2  0  0  0
  7 26  1  0  0  0
  7 29  1  0  0  0
  8  9  1  0  0  0
  8 22  1  0  0  0
  9 10  1  0  0  0
  9 27  2  0  0  0
 10 11  2  0  0  0
 10 15  1  0  0  0
 11 12  1  0  0  0
 11 93  1  0  0  0
 12 13  2  0  0  0
 12 94  1  0  0  0
 13 14  1  0  0  0
 13 31  1  0  0  0
 14 15  2  0  0  0
 14 95  1  0  0  0
 15 96  1  0  0  0
 16 17  2  0  0  0
 16 21  1  0  0  0
 16 31  1  0  0  0
 17 18  1  0  0  0
 17 97  1  0  0  0
 18 19  2  0  0  0
 18 98  1  0  0  0
 19 20  1  0  0  0
 19 24  1  0  0  0
 20 21  2  0  0  0
 20 99  1  0  0  0
 21 23  1  0  0  0
 22 28  1  0  0  0
 22 32  2  0  0  0
 26 27  1  0  0  0
 28100  1  0  0  0
 28101  1  0  0  0
 29102  1  0  0  0
 29103  1  0  0  0
 33 34  1  0  0  0
 33 66  1  0  0  0
 33 70  2  0  0  0
 34 36  1  0  0  0
 34 59  1  0  0  0
 34104  1  0  0  0
 35 44  2  0  0  0
 35 45  1  0  0  0
 35 68  1  0  0  0
 36 56  1  0  0  0
 36105  1  0  0  0
 37 39  1  0  0  0
 37 47  1  0  0  0
 37 66  1  0  0  0
 37106  1  0  0  0
 38 43  2  0  0  0
 38 46  1  0  0  0
 38 47  1  0  0  0
 39 64  1  0  0  0
 39 67  2  0  0  0
 40 52  1  0  0  0
 40 53  2  0  0  0
 40 58  1  0  0  0
 41107  1  0  0  0
 41108  1  0  0  0
 41109  1  0  0  0
 41 48  1  0  0  0
 42 43  1  0  0  0
 42 66  1  0  0  0
 42110  1  0  0  0
 42111  1  0  0  0
 43 44  1  0  0  0
 44112  1  0  0  0
 45 46  2  0  0  0
 45113  1  0  0  0
 46114  1  0  0  0
 47115  1  0  0  0
 47116  1  0  0  0
 48 56  1  0  0  0
 48 65  1  0  0  0
 48117  1  0  0  0
 49 50  1  0  0  0
 49 53  1  0  0  0
 49 64  1  0  0  0
 49118  1  0  0  0
 50 51  1  0  0  0
 50119  1  0  0  0
 50120  1  0  0  0
 51 52  1  0  0  0
 51121  1  0  0  0
 51122  1  0  0  0
 52123  1  0  0  0
 52124  1  0  0  0
 53 54  1  0  0  0
 54 55  2  0  0  0
 54125  1  0  0  0
 55 57  1  0  0  0
 55126  1  0  0  0
 56 69  2  0  0  0
 57 58  2  0  0  0
 57127  1  0  0  0
 58128  1  0  0  0
 59 60  1  0  0  0
 59 61  1  0  0  0
 59 62  1  0  0  0
 60129  1  0  0  0
 60130  1  0  0  0
 60131  1  0  0  0
 61132  1  0  0  0
 61133  1  0  0  0
 61134  1  0  0  0
 62135  1  0  0  0
 62136  1  0  0  0
 62137  1  0  0  0
 63 65  1  0  0  0
 63138  1  0  0  0
 63139  1  0  0  0
 63140  1  0  0  0
 64141  1  0  0  0
 65142  1  0  0  0
 68 79  1  0  0  0
 71 72  2  0  0  0
 71 74  1  0  0  0
 71143  1  0  0  0
 72 75  1  0  0  0
 72144  1  0  0  0
 73 74  2  0  0  0
 73 81  1  0  0  0
 73145  1  0  0  0
 74 76  1  0  0  0
 75 81  2  0  0  0
 75 83  1  0  0  0
 76 82  1  0  0  0
 76146  1  0  0  0
 76147  1  0  0  0
 77 78  1  0  0  0
 77 79  1  0  0  0
 77148  1  0  0  0
 77149  1  0  0  0
 78 80  1  0  0  0
 78150  1  0  0  0
 78151  1  0  0  0
 79152  1  0  0  0
 79153  1  0  0  0
 80 83  1  0  0  0
 80154  1  0  0  0
 80155  1  0  0  0
 82156  1  0  0  0
M  ISO  4   1 100  68 101  79 101  82 100
M  END
> <chiral flag>
0

> <version>
0

> <s_m_source_file>
/data/baiqing/PycharmProjects/Reinvent-master-3.2/result/LINK_invent/BTK/process_docking_weight1_custom_sum_contain_oxygen_bond_distance_aromatic_linkinvent_7_9_3/rearranged_h_0116.sdf

> <i_m_source_file_index>
74

> <r_mmod_Potential_Energy-OPLS-2005>
-256.065460205078

> <r_mmod_Stretch_Energy-OPLS-2005>
32.2597312927246

> <r_mmod_Bend_Energy-OPLS-2005>
100.761360168457

> <r_mmod_Torsional_Energy-OPLS-2005>
177.752410888672

> <r_mmod_Improper_Torsional_Energy-OPLS-2005>
2.13886117935181

> <r_mmod_Van_der_Waal_Energy-OPLS-2005>
165.079605102539

> <r_mmod_Electrostatic_Energy-OPLS-2005>
-527.667785644531

> <r_mmod_Solvation_Energy-OPLS-2005>
-215.821899414062

> <b_mmod_Minimization_Converged-OPLS-2005>
0

> <r_mmod_RMS_Derivative-OPLS-2005>
1.91409170627594

$$$$
75
                    3D
 Structure written by MMmdl.
166174  0  0  1  0            999 V2000
  -30.6063  -14.7621   20.4506 C   0  0  0  0  0  0
  -30.4322  -12.4646   19.4810 C   0  0  0  0  0  0
  -29.5129  -12.5082   18.2404 C   0  0  0  0  0  0
  -28.0374  -12.3365   18.6502 C   0  0  0  0  0  0
  -27.6425  -13.2315   19.8556 C   0  0  2  0  0  0
  -28.6881  -13.1738   20.9918 C   0  0  0  0  0  0
  -25.2508  -13.8175   20.5679 C   0  0  0  0  0  0
  -24.1811  -13.0428   20.9252 C   0  0  0  0  0  0
  -24.6401  -11.6908   20.8788 C   0  0  0  0  0  0
  -23.9068  -10.4285   21.0426 C   0  0  0  0  0  0
  -24.3618   -9.4189   21.9187 C   0  0  0  0  0  0
  -23.6290   -8.2229   22.0755 C   0  0  0  0  0  0
  -22.4269   -8.0276   21.3550 C   0  0  0  0  0  0
  -21.9910   -9.0248   20.4644 C   0  0  0  0  0  0
  -22.7245  -10.2129   20.3059 C   0  0  0  0  0  0
  -21.6848   -6.0728   22.5279 C   0  0  0  0  0  0
  -21.4007   -6.5631   23.8213 C   0  0  0  0  0  0
  -21.3659   -5.6785   24.9175 C   0  0  0  0  0  0
  -21.6049   -4.3048   24.7229 C   0  0  0  0  0  0
  -21.8816   -3.8143   23.4348 C   0  0  0  0  0  0
  -21.9186   -4.6955   22.3402 C   0  0  0  0  0  0
  -22.7831  -13.5222   21.1881 C   0  0  0  0  0  0
  -22.1653   -4.2139   21.0978 F   0  0  0  0  0  0
  -21.5637   -3.4529   25.7742 F   0  0  0  0  0  0
  -29.9861  -13.5314   20.4086 N   0  0  0  0  0  0
  -26.2942  -12.9386   20.3307 N   0  0  0  0  0  0
  -25.9331  -11.6533   20.5785 N   0  0  0  0  0  0
  -22.0466  -12.8217   22.0428 N   0  0  0  0  0  0
  -25.4180  -15.1877   20.3921 N   0  0  0  0  0  0
  -31.7908  -14.8580   20.1208 O   0  0  0  0  0  0
  -21.6641   -6.8869   21.4239 O   0  0  0  0  0  0
  -22.3527  -14.5522   20.6702 O   0  0  0  0  0  0
  -24.6315  -31.8533   23.1940 C   0  0  0  0  0  0
  -25.9142  -32.4745   23.8299 C   0  0  1  0  0  0
  -27.2297  -27.2614   20.1345 C   0  0  0  0  0  0
  -25.5931  -33.8546   24.2225 N   0  0  0  0  0  0
  -23.4291  -30.4722   21.5368 C   0  0  2  0  0  0
  -24.8775  -28.9106   20.1097 C   0  0  0  0  0  0
  -22.7503  -29.4593   22.4900 C   0  0  0  0  0  0
  -18.0298  -28.1392   22.8486 C   0  0  0  0  0  0
  -24.1491  -36.7281   23.2642 C   0  0  0  0  0  0
  -25.9726  -30.7676   21.3708 C   0  0  0  0  0  0
  -26.0464  -29.3885   20.7144 C   0  0  0  0  0  0
  -27.2247  -28.5777   20.7084 C   0  0  0  0  0  0
  -26.0383  -26.8403   19.5082 C   0  0  0  0  0  0
  -24.8791  -27.6464   19.4940 C   0  0  0  0  0  0
  -23.6464  -29.7972   20.1554 C   0  0  0  0  0  0
  -25.4121  -36.3065   24.0321 C   0  0  1  0  0  0
  -20.5901  -28.3705   23.1269 C   0  0  2  0  0  0
  -20.6785  -26.9422   22.5409 C   0  0  0  0  0  0
  -19.5759  -26.6387   21.5215 C   0  0  0  0  0  0
  -18.1939  -26.7936   22.1625 C   0  0  0  0  0  0
  -19.1551  -28.8868   23.2874 C   0  0  0  0  0  0
  -18.9469  -30.1468   23.8895 C   0  0  0  0  0  0
  -17.6468  -30.6594   24.0567 C   0  0  0  0  0  0
  -25.9062  -34.9436   23.5083 C   0  0  0  0  0  0
  -16.5361  -29.9087   23.6333 C   0  0  0  0  0  0
  -16.7286  -28.6505   23.0354 C   0  0  0  0  0  0
  -26.4497  -31.6587   25.0705 C   0  0  0  0  0  0
  -25.3712  -31.3740   26.1421 C   0  0  0  0  0  0
  -27.0355  -30.3009   24.6203 C   0  0  0  0  0  0
  -27.6044  -32.4333   25.7483 C   0  0  0  0  0  0
  -27.5578  -37.1798   24.8464 C   0  0  0  0  0  0
  -21.4211  -29.3046   22.3649 N   0  0  0  0  0  0
  -26.4293  -37.3765   23.9403 N   0  0  0  0  0  0
  -24.6968  -31.0493   22.0907 N   0  0  0  0  0  0
  -23.4201  -28.8154   23.3019 O   0  0  0  0  0  0
  -28.3502  -26.4002   20.2031 O   0  0  0  0  0  0
  -26.5639  -34.8916   22.4651 O   0  0  0  0  0  0
  -23.5464  -32.1352   23.7240 O   0  0  0  0  0  0
  -30.2772  -24.7750   21.6089 C   0  0  0  0  0  0
  -31.3263  -24.2131   22.3439 C   0  0  0  0  0  0
  -29.3694  -23.9810   20.8581 C   0  0  0  0  0  0
  -31.4728  -22.8281   22.3335 C   0  0  0  0  0  0
  -29.6204  -22.5197   20.9012 C   0  0  0  0  0  0
  -33.5962  -21.4607   22.1541 C   0  0  0  0  0  0
  -32.0725  -21.2065   24.1880 C   0  0  0  0  0  0
  -28.2581  -24.8875   20.1501 C   0  0  0  0  0  0
  -29.6720  -20.0984   19.9366 C   0  0  0  0  0  0
  -30.1769  -17.3449   20.1805 C   0  0  0  0  0  0
  -32.6044  -22.1544   23.1012 C   0  0  0  0  0  0
  -29.4315  -18.6982   20.7352 C   0  0  2  0  0  0
  -30.6405  -22.0291   21.6412 N   0  0  0  0  0  0
  -28.9424  -21.4019   20.2960 N   0  0  0  0  0  0
  -29.8319  -15.9063   20.6213 N   0  0  0  0  0  0
  -27.9890  -18.4975   20.9293 N   0  3  0  0  0  0
  -31.4727  -12.5884   19.1773 H   0  0  0  0  0  0
  -30.3796  -11.4898   19.9681 H   0  0  0  0  0  0
  -29.7985  -11.7288   17.5328 H   0  0  0  0  0  0
  -29.6428  -13.4584   17.7190 H   0  0  0  0  0  0
  -27.8880  -11.2862   18.9028 H   0  0  0  0  0  0
  -27.3823  -12.5400   17.8024 H   0  0  0  0  0  0
  -27.6351  -14.2533   19.4774 H   0  0  0  0  0  0
  -28.7303  -12.1778   21.4351 H   0  0  0  0  0  0
  -28.4224  -13.8567   21.8000 H   0  0  0  0  0  0
  -25.2770   -9.5646   22.4757 H   0  0  0  0  0  0
  -23.9991   -7.4608   22.7467 H   0  0  0  0  0  0
  -21.0849   -8.8761   19.8938 H   0  0  0  0  0  0
  -22.3714  -10.9660   19.6156 H   0  0  0  0  0  0
  -21.1997   -7.6139   23.9708 H   0  0  0  0  0  0
  -21.1488   -6.0522   25.9077 H   0  0  0  0  0  0
  -22.0601   -2.7605   23.2857 H   0  0  0  0  0  0
  -22.4076  -11.9882   22.4815 H   0  0  0  0  0  0
  -21.1064  -13.1212   22.2599 H   0  0  0  0  0  0
  -24.5873  -15.7689   20.3498 H   0  0  0  0  0  0
  -26.1641  -15.5318   19.8033 H   0  0  0  0  0  0
  -26.7213  -32.5387   23.1040 H   0  0  0  0  0  0
  -25.0072  -33.9672   25.0368 H   0  0  0  0  0  0
  -22.7275  -31.2951   21.3863 H   0  0  0  0  0  0
  -23.3753  -35.9612   23.3303 H   0  0  0  0  0  0
  -24.3578  -36.8907   22.2057 H   0  0  0  0  0  0
  -23.7246  -37.6479   23.6672 H   0  0  0  0  0  0
  -26.1104  -31.5289   20.6014 H   0  0  0  0  0  0
  -26.8501  -30.8171   22.0041 H   0  0  0  0  0  0
  -28.1225  -28.9414   21.1880 H   0  0  0  0  0  0
  -25.9906  -25.8675   19.0408 H   0  0  0  0  0  0
  -23.9826  -27.2761   19.0160 H   0  0  0  0  0  0
  -23.7675  -30.5685   19.3935 H   0  0  0  0  0  0
  -22.7655  -29.2260   19.8565 H   0  0  0  0  0  0
  -25.1306  -36.1901   25.0813 H   0  0  0  0  0  0
  -21.0000  -28.3292   24.1388 H   0  0  0  0  0  0
  -20.5686  -26.2321   23.3616 H   0  0  0  0  0  0
  -21.6652  -26.7445   22.1202 H   0  0  0  0  0  0
  -19.6918  -25.6293   21.1255 H   0  0  0  0  0  0
  -19.6694  -27.3193   20.6739 H   0  0  0  0  0  0
  -17.4208  -26.6695   21.4024 H   0  0  0  0  0  0
  -18.0335  -26.0075   22.9019 H   0  0  0  0  0  0
  -19.7947  -30.7288   24.2257 H   0  0  0  0  0  0
  -17.5022  -31.6273   24.5171 H   0  0  0  0  0  0
  -15.5361  -30.2986   23.7659 H   0  0  0  0  0  0
  -15.8688  -28.0822   22.7067 H   0  0  0  0  0  0
  -24.5878  -30.7104   25.7733 H   0  0  0  0  0  0
  -24.8915  -32.2917   26.4843 H   0  0  0  0  0  0
  -25.8017  -30.8904   27.0203 H   0  0  0  0  0  0
  -26.2949  -29.6745   24.1220 H   0  0  0  0  0  0
  -27.4033  -29.7279   25.4726 H   0  0  0  0  0  0
  -27.8819  -30.4284   23.9451 H   0  0  0  0  0  0
  -27.2649  -33.3633   26.2054 H   0  0  0  0  0  0
  -28.3862  -32.6901   25.0321 H   0  0  0  0  0  0
  -28.0717  -31.8473   26.5408 H   0  0  0  0  0  0
  -28.2594  -38.0095   24.7509 H   0  0  0  0  0  0
  -28.1074  -36.2626   24.6294 H   0  0  0  0  0  0
  -27.2296  -37.1452   25.8868 H   0  0  0  0  0  0
  -20.9406  -29.8743   21.6824 H   0  0  0  0  0  0
  -26.0167  -38.2837   24.1397 H   0  0  0  0  0  0
  -30.1771  -25.8495   21.6373 H   0  0  0  0  0  0
  -32.0027  -24.8448   22.9043 H   0  0  0  0  0  0
  -34.0071  -22.1687   21.4342 H   0  0  0  0  0  0
  -33.1121  -20.6614   21.5931 H   0  0  0  0  0  0
  -34.4318  -21.0258   22.7031 H   0  0  0  0  0  0
  -31.4198  -21.7364   24.8824 H   0  0  0  0  0  0
  -32.8881  -20.7720   24.7659 H   0  0  0  0  0  0
  -31.4986  -20.3883   23.7524 H   0  0  0  0  0  0
  -27.8846  -25.1263   21.1470 H   0  0  0  0  0  0
  -29.0295  -25.1753   19.4331 H   0  0  0  0  0  0
  -29.4135  -19.9091   18.8945 H   0  0  0  0  0  0
  -30.7467  -20.2849   19.8991 H   0  0  0  0  0  0
  -31.2489  -17.4856   20.3296 H   0  0  0  0  0  0
  -30.0543  -17.3423   19.0970 H   0  0  0  0  0  0
  -33.1600  -22.9416   23.6147 H   0  0  0  0  0  0
  -29.8249  -18.8622   21.7397 H   0  0  0  0  0  0
  -28.1955  -21.6613   19.6595 H   0  0  0  0  0  0
  -28.8728  -15.7189   20.8661 H   0  0  0  0  0  0
  -27.8110  -17.7756   21.6032 H   0  0  0  0  0  0
  -27.5302  -18.2778   20.0638 H   0  0  0  0  0  0
  -27.6012  -19.3559   21.2818 H   0  0  0  0  0  0
  1 25  1  0  0  0
  1 30  2  0  0  0
  1 85  1  0  0  0
  2  3  1  0  0  0
  2 25  1  0  0  0
  2 87  1  0  0  0
  2 88  1  0  0  0
  3  4  1  0  0  0
  3 89  1  0  0  0
  3 90  1  0  0  0
  4  5  1  0  0  0
  4 91  1  0  0  0
  4 92  1  0  0  0
  5  6  1  0  0  0
  5 26  1  0  0  0
  5 93  1  0  0  0
  6 25  1  0  0  0
  6 94  1  0  0  0
  6 95  1  0  0  0
  7  8  2  0  0  0
  7 26  1  0  0  0
  7 29  1  0  0  0
  8  9  1  0  0  0
  8 22  1  0  0  0
  9 10  1  0  0  0
  9 27  2  0  0  0
 10 11  2  0  0  0
 10 15  1  0  0  0
 11 12  1  0  0  0
 11 96  1  0  0  0
 12 13  2  0  0  0
 12 97  1  0  0  0
 13 14  1  0  0  0
 13 31  1  0  0  0
 14 15  2  0  0  0
 14 98  1  0  0  0
 15 99  1  0  0  0
 16 17  2  0  0  0
 16 21  1  0  0  0
 16 31  1  0  0  0
 17 18  1  0  0  0
 17100  1  0  0  0
 18 19  2  0  0  0
 18101  1  0  0  0
 19 20  1  0  0  0
 19 24  1  0  0  0
 20 21  2  0  0  0
 20102  1  0  0  0
 21 23  1  0  0  0
 22 28  1  0  0  0
 22 32  2  0  0  0
 26 27  1  0  0  0
 28103  1  0  0  0
 28104  1  0  0  0
 29105  1  0  0  0
 29106  1  0  0  0
 33 34  1  0  0  0
 33 66  1  0  0  0
 33 70  2  0  0  0
 34 36  1  0  0  0
 34 59  1  0  0  0
 34107  1  0  0  0
 35 44  2  0  0  0
 35 45  1  0  0  0
 35 68  1  0  0  0
 36 56  1  0  0  0
 36108  1  0  0  0
 37 39  1  0  0  0
 37 47  1  0  0  0
 37 66  1  0  0  0
 37109  1  0  0  0
 38 43  2  0  0  0
 38 46  1  0  0  0
 38 47  1  0  0  0
 39 64  1  0  0  0
 39 67  2  0  0  0
 40 52  1  0  0  0
 40 53  2  0  0  0
 40 58  1  0  0  0
 41110  1  0  0  0
 41111  1  0  0  0
 41112  1  0  0  0
 41 48  1  0  0  0
 42 43  1  0  0  0
 42 66  1  0  0  0
 42113  1  0  0  0
 42114  1  0  0  0
 43 44  1  0  0  0
 44115  1  0  0  0
 45 46  2  0  0  0
 45116  1  0  0  0
 46117  1  0  0  0
 47118  1  0  0  0
 47119  1  0  0  0
 48 56  1  0  0  0
 48 65  1  0  0  0
 48120  1  0  0  0
 49 50  1  0  0  0
 49 53  1  0  0  0
 49 64  1  0  0  0
 49121  1  0  0  0
 50 51  1  0  0  0
 50122  1  0  0  0
 50123  1  0  0  0
 51 52  1  0  0  0
 51124  1  0  0  0
 51125  1  0  0  0
 52126  1  0  0  0
 52127  1  0  0  0
 53 54  1  0  0  0
 54 55  2  0  0  0
 54128  1  0  0  0
 55 57  1  0  0  0
 55129  1  0  0  0
 56 69  2  0  0  0
 57 58  2  0  0  0
 57130  1  0  0  0
 58131  1  0  0  0
 59 60  1  0  0  0
 59 61  1  0  0  0
 59 62  1  0  0  0
 60132  1  0  0  0
 60133  1  0  0  0
 60134  1  0  0  0
 61135  1  0  0  0
 61136  1  0  0  0
 61137  1  0  0  0
 62138  1  0  0  0
 62139  1  0  0  0
 62140  1  0  0  0
 63 65  1  0  0  0
 63141  1  0  0  0
 63142  1  0  0  0
 63143  1  0  0  0
 64144  1  0  0  0
 65145  1  0  0  0
 68 78  1  0  0  0
 71 72  2  0  0  0
 71 73  1  0  0  0
 71146  1  0  0  0
 72 74  1  0  0  0
 72147  1  0  0  0
 73 75  2  0  0  0
 73 78  1  0  0  0
 74 81  1  0  0  0
 74 83  2  0  0  0
 75 83  1  0  0  0
 75 84  1  0  0  0
 76148  1  0  0  0
 76149  1  0  0  0
 76150  1  0  0  0
 76 81  1  0  0  0
 77 81  1  0  0  0
 77151  1  0  0  0
 77152  1  0  0  0
 77153  1  0  0  0
 78154  1  0  0  0
 78155  1  0  0  0
 79 82  1  0  0  0
 79 84  1  0  0  0
 79156  1  0  0  0
 79157  1  0  0  0
 80 82  1  0  0  0
 80 85  1  0  0  0
 80158  1  0  0  0
 80159  1  0  0  0
 81160  1  0  0  0
 82 86  1  0  0  0
 82161  1  0  0  0
 84162  1  0  0  0
 85163  1  0  0  0
 86164  1  0  0  0
 86165  1  0  0  0
 86166  1  0  0  0
M  CHG  1  86   1
M  ISO  4   1 100  68 101  78 101  85 100
M  END
> <chiral flag>
0

> <version>
0

> <s_m_source_file>
/data/baiqing/PycharmProjects/Reinvent-master-3.2/result/LINK_invent/BTK/process_docking_weight1_custom_sum_contain_oxygen_bond_distance_aromatic_linkinvent_7_9_3/rearranged_h_0116.sdf

> <i_m_source_file_index>
75

> <r_mmod_Potential_Energy-OPLS-2005>
-122.687255859375

> <r_mmod_Stretch_Energy-OPLS-2005>
146.522369384766

> <r_mmod_Bend_Energy-OPLS-2005>
417.076385498047

> <r_mmod_Torsional_Energy-OPLS-2005>
258.151214599609

> <r_mmod_Improper_Torsional_Energy-OPLS-2005>
11.587215423584

> <r_mmod_Van_der_Waal_Energy-OPLS-2005>
146.346969604492

> <r_mmod_Electrostatic_Energy-OPLS-2005>
-660.189392089844

> <r_mmod_Solvation_Energy-OPLS-2005>
-529.759521484375

> <b_mmod_Minimization_Converged-OPLS-2005>
0

> <r_mmod_RMS_Derivative-OPLS-2005>
1.34670090675354

$$$$
76
                    3D
 Structure written by MMmdl.
185194  0  0  1  0            999 V2000
  -30.8094  -14.2759   20.7964 C   0  0  0  0  0  0
  -30.4150  -12.3026   19.3632 C   0  0  0  0  0  0
  -29.4736  -12.5523   18.1744 C   0  0  0  0  0  0
  -28.0035  -12.3834   18.5993 C   0  0  0  0  0  0
  -27.6639  -13.1979   19.8737 C   0  0  2  0  0  0
  -28.6965  -12.9235   20.9846 C   0  0  0  0  0  0
  -25.2605  -13.8145   20.5632 C   0  0  0  0  0  0
  -24.1841  -13.0435   20.9122 C   0  0  0  0  0  0
  -24.6381  -11.6900   20.8698 C   0  0  0  0  0  0
  -23.9036  -10.4302   21.0401 C   0  0  0  0  0  0
  -24.3604   -9.4231   21.9186 C   0  0  0  0  0  0
  -23.6287   -8.2260   22.0772 C   0  0  0  0  0  0
  -22.4274   -8.0290   21.3556 C   0  0  0  0  0  0
  -21.9901   -9.0253   20.4648 C   0  0  0  0  0  0
  -22.7218  -10.2130   20.3051 C   0  0  0  0  0  0
  -21.6852   -6.0737   22.5279 C   0  0  0  0  0  0
  -21.4009   -6.5632   23.8214 C   0  0  0  0  0  0
  -21.3663   -5.6789   24.9176 C   0  0  0  0  0  0
  -21.6052   -4.3059   24.7221 C   0  0  0  0  0  0
  -21.8820   -3.8148   23.4346 C   0  0  0  0  0  0
  -21.9183   -4.6964   22.3403 C   0  0  0  0  0  0
  -22.7876  -13.5257   21.1788 C   0  0  0  0  0  0
  -22.1661   -4.2157   21.0984 F   0  0  0  0  0  0
  -21.5626   -3.4546   25.7732 F   0  0  0  0  0  0
  -30.0463  -13.2094   20.4582 N   0  0  0  0  0  0
  -26.3025  -12.9298   20.3310 N   0  0  0  0  0  0
  -25.9296  -11.6469   20.5715 N   0  0  0  0  0  0
  -22.0508  -12.8264   22.0343 N   0  0  0  0  0  0
  -25.4333  -15.1862   20.4075 N   0  0  0  0  0  0
  -31.7623  -14.6792   20.1219 O   0  0  0  0  0  0
  -21.6641   -6.8889   21.4251 O   0  0  0  0  0  0
  -22.3571  -14.5587   20.6663 O   0  0  0  0  0  0
  -24.6097  -31.8734   23.2133 C   0  0  0  0  0  0
  -25.9008  -32.4842   23.8455 C   0  0  1  0  0  0
  -27.2726  -27.4924   20.1058 C   0  0  0  0  0  0
  -25.5866  -33.8640   24.2400 N   0  0  0  0  0  0
  -23.3995  -30.4932   21.5519 C   0  0  2  0  0  0
  -24.8575  -28.9655   20.1230 C   0  0  0  0  0  0
  -22.7404  -29.4673   22.5009 C   0  0  0  0  0  0
  -18.0272  -28.1413   22.8487 C   0  0  0  0  0  0
  -24.1458  -36.7351   23.2650 C   0  0  0  0  0  0
  -25.9193  -30.8596   21.3582 C   0  0  0  0  0  0
  -26.0083  -29.4952   20.7152 C   0  0  0  0  0  0
  -27.2156  -28.7704   20.7085 C   0  0  0  0  0  0
  -26.1074  -26.9724   19.5039 C   0  0  0  0  0  0
  -24.8999  -27.7005   19.5094 C   0  0  0  0  0  0
  -23.6118  -29.8215   20.1695 C   0  0  0  0  0  0
  -25.4067  -36.3129   24.0355 C   0  0  1  0  0  0
  -20.5843  -28.3694   23.1334 C   0  0  2  0  0  0
  -20.6754  -26.9439   22.5426 C   0  0  0  0  0  0
  -19.5729  -26.6417   21.5225 C   0  0  0  0  0  0
  -18.1923  -26.7961   22.1628 C   0  0  0  0  0  0
  -19.1505  -28.8871   23.2888 C   0  0  0  0  0  0
  -18.9432  -30.1484   23.8910 C   0  0  0  0  0  0
  -17.6425  -30.6592   24.0579 C   0  0  0  0  0  0
  -25.8992  -34.9484   23.5174 C   0  0  0  0  0  0
  -16.5314  -29.9103   23.6321 C   0  0  0  0  0  0
  -16.7252  -28.6517   23.0318 C   0  0  0  0  0  0
  -26.4437  -31.6580   25.0754 C   0  0  0  0  0  0
  -25.3696  -31.3622   26.1479 C   0  0  0  0  0  0
  -27.0271  -30.3018   24.6105 C   0  0  0  0  0  0
  -27.6036  -32.4274   25.7524 C   0  0  0  0  0  0
  -27.5580  -37.1795   24.8426 C   0  0  0  0  0  0
  -21.4135  -29.3049   22.3758 N   0  0  0  0  0  0
  -26.4244  -37.3815   23.9443 N   0  0  0  0  0  0
  -24.6605  -31.0882   22.1017 N   0  0  0  0  0  0
  -23.4187  -28.8231   23.3050 O   0  0  0  0  0  0
  -28.4113  -26.7159   20.0355 O   0  0  0  0  0  0
  -26.5586  -34.8904   22.4750 O   0  0  0  0  0  0
  -23.5289  -32.1465   23.7551 O   0  0  0  0  0  0
  -28.4944  -19.0916   21.4010 C   0  0  0  0  0  0
  -30.5293  -18.0091   20.6659 C   0  0  0  0  0  0
  -28.6237  -20.0533   20.3735 C   0  0  0  0  0  0
  -30.6907  -18.9607   19.6411 C   0  0  0  0  0  0
  -29.7466  -20.0127   19.4932 C   0  0  0  0  0  0
  -29.4436  -18.0669   21.5606 C   0  0  0  0  0  0
  -31.8251  -23.6712   20.6534 C   0  0  0  0  0  0
  -31.6099  -24.5868   18.4903 C   0  0  0  0  0  0
  -30.9236  -22.4810   20.2932 C   0  0  0  0  0  0
  -30.7112  -23.4225   18.0227 C   0  0  0  0  0  0
  -27.5240  -21.1048   20.2591 C   0  0  0  0  0  0
  -31.8896  -18.7950   18.7161 C   0  0  0  0  0  0
  -31.3820  -28.5787   20.6200 C   0  0  0  0  0  0
  -29.9671  -21.1031   18.4277 C   0  0  0  0  0  0
  -31.8627  -26.0967   20.4034 C   0  0  0  0  0  0
  -30.4172  -16.7814   23.4123 C   0  0  0  0  0  0
  -31.3156  -15.6636   22.8394 C   0  0  0  0  0  0
  -29.4858  -26.9214   20.9623 C   0  0  0  0  0  0
  -30.8087  -27.2158   20.2051 C   0  0  1  0  0  0
  -31.3309  -24.8285   19.9084 N   0  0  0  0  0  0
  -29.2601  -17.1263   22.5842 N   0  0  0  0  0  0
  -30.5483  -14.7231   22.0293 N   0  0  0  0  0  0
  -30.9137  -22.1866   18.8315 N   0  3  0  0  0  0
  -31.4550  -12.4266   19.0543 H   0  0  0  0  0  0
  -30.3308  -11.2689   19.7037 H   0  0  0  0  0  0
  -29.7090  -11.8695   17.3569 H   0  0  0  0  0  0
  -29.6305  -13.5602   17.7856 H   0  0  0  0  0  0
  -27.8245  -11.3215   18.7776 H   0  0  0  0  0  0
  -27.3423  -12.6720   17.7818 H   0  0  0  0  0  0
  -27.7279  -14.2548   19.6119 H   0  0  0  0  0  0
  -28.6541  -11.8786   21.2971 H   0  0  0  0  0  0
  -28.4271  -13.5036   21.8675 H   0  0  0  0  0  0
  -25.2756   -9.5701   22.4748 H   0  0  0  0  0  0
  -23.9986   -7.4668   22.7517 H   0  0  0  0  0  0
  -21.0822   -8.8766   19.8965 H   0  0  0  0  0  0
  -22.3690  -10.9660   19.6147 H   0  0  0  0  0  0
  -21.2020   -7.6139   23.9715 H   0  0  0  0  0  0
  -21.1477   -6.0519   25.9069 H   0  0  0  0  0  0
  -22.0598   -2.7608   23.2839 H   0  0  0  0  0  0
  -22.4118  -11.9912   22.4708 H   0  0  0  0  0  0
  -21.1125  -13.1300   22.2552 H   0  0  0  0  0  0
  -24.6729  -15.8461   20.5364 H   0  0  0  0  0  0
  -26.3058  -15.6307   20.1470 H   0  0  0  0  0  0
  -26.7123  -32.5589   23.1284 H   0  0  0  0  0  0
  -24.9858  -33.9777   25.0439 H   0  0  0  0  0  0
  -22.6858  -31.3077   21.4113 H   0  0  0  0  0  0
  -23.3696  -35.9703   23.3192 H   0  0  0  0  0  0
  -24.3595  -36.9076   22.2094 H   0  0  0  0  0  0
  -23.7162  -37.6506   23.6701 H   0  0  0  0  0  0
  -26.0171  -31.6268   20.5888 H   0  0  0  0  0  0
  -26.8091  -30.9235   21.9730 H   0  0  0  0  0  0
  -28.0912  -29.2306   21.1407 H   0  0  0  0  0  0
  -26.1378  -26.0001   19.0309 H   0  0  0  0  0  0
  -24.0181  -27.2859   19.0410 H   0  0  0  0  0  0
  -23.7191  -30.5944   19.4080 H   0  0  0  0  0  0
  -22.7450  -29.2287   19.8720 H   0  0  0  0  0  0
  -25.1224  -36.2013   25.0838 H   0  0  0  0  0  0
  -20.9902  -28.3271   24.1466 H   0  0  0  0  0  0
  -20.5664  -26.2311   23.3613 H   0  0  0  0  0  0
  -21.6623  -26.7488   22.1227 H   0  0  0  0  0  0
  -19.6862  -25.6332   21.1245 H   0  0  0  0  0  0
  -19.6682  -27.3239   20.6768 H   0  0  0  0  0  0
  -17.4198  -26.6742   21.4013 H   0  0  0  0  0  0
  -18.0273  -26.0101   22.9023 H   0  0  0  0  0  0
  -19.7876  -30.7333   24.2257 H   0  0  0  0  0  0
  -17.4944  -31.6257   24.5223 H   0  0  0  0  0  0
  -15.5307  -30.3001   23.7610 H   0  0  0  0  0  0
  -15.8652  -28.0860   22.6979 H   0  0  0  0  0  0
  -24.5822  -30.7096   25.7699 H   0  0  0  0  0  0
  -24.8951  -32.2717   26.5162 H   0  0  0  0  0  0
  -25.8054  -30.8548   27.0095 H   0  0  0  0  0  0
  -26.2847  -29.6817   24.1056 H   0  0  0  0  0  0
  -27.3909  -29.7216   25.4607 H   0  0  0  0  0  0
  -27.8731  -30.4351   23.9353 H   0  0  0  0  0  0
  -27.2719  -33.3595   26.2137 H   0  0  0  0  0  0
  -28.3854  -32.6822   25.0336 H   0  0  0  0  0  0
  -28.0707  -31.8357   26.5405 H   0  0  0  0  0  0
  -28.2484  -38.0203   24.7628 H   0  0  0  0  0  0
  -28.1187  -36.2739   24.6034 H   0  0  0  0  0  0
  -27.2362  -37.1223   25.8840 H   0  0  0  0  0  0
  -20.9338  -29.8724   21.6908 H   0  0  0  0  0  0
  -26.0115  -38.2868   24.1521 H   0  0  0  0  0  0
  -27.6501  -19.1471   22.0757 H   0  0  0  0  0  0
  -31.2536  -17.2183   20.7366 H   0  0  0  0  0  0
  -32.8785  -23.4644   20.4518 H   0  0  0  0  0  0
  -31.7359  -23.8488   21.7272 H   0  0  0  0  0  0
  -31.3768  -25.4750   17.9016 H   0  0  0  0  0  0
  -32.6676  -24.3641   18.3238 H   0  0  0  0  0  0
  -29.9159  -22.7038   20.6339 H   0  0  0  0  0  0
  -31.2655  -21.6117   20.8559 H   0  0  0  0  0  0
  -30.8961  -23.2117   16.9671 H   0  0  0  0  0  0
  -29.6704  -23.7422   18.0901 H   0  0  0  0  0  0
  -26.6661  -20.8466   20.8801 H   0  0  0  0  0  0
  -27.1499  -21.1823   19.2397 H   0  0  0  0  0  0
  -27.8569  -22.0881   20.5844 H   0  0  0  0  0  0
  -32.5932  -18.0616   19.1135 H   0  0  0  0  0  0
  -32.4410  -19.7244   18.5810 H   0  0  0  0  0  0
  -31.5727  -18.4306   17.7387 H   0  0  0  0  0  0
  -32.2722  -28.8232   20.0412 H   0  0  0  0  0  0
  -31.6633  -28.5875   21.6715 H   0  0  0  0  0  0
  -30.6543  -29.3772   20.4658 H   0  0  0  0  0  0
  -29.0078  -21.5418   18.1590 H   0  0  0  0  0  0
  -30.3145  -20.6449   17.5009 H   0  0  0  0  0  0
  -32.0757  -26.0199   21.4691 H   0  0  0  0  0  0
  -32.8107  -26.3392   19.9212 H   0  0  0  0  0  0
  -31.0019  -17.6704   23.6554 H   0  0  0  0  0  0
  -30.0143  -16.4350   24.3662 H   0  0  0  0  0  0
  -31.7866  -15.1164   23.6571 H   0  0  0  0  0  0
  -32.1477  -16.0844   22.2752 H   0  0  0  0  0  0
  -29.2961  -27.6582   21.7426 H   0  0  0  0  0  0
  -29.5764  -25.9911   21.5256 H   0  0  0  0  0  0
  -30.5835  -27.3003   19.1403 H   0  0  0  0  0  0
  -28.4081  -17.2594   23.1214 H   0  0  0  0  0  0
  -29.7308  -14.3345   22.4723 H   0  0  0  0  0  0
  -31.8407  -21.8566   18.6159 H   0  0  0  0  0  0
  1 25  1  0  0  0
  1 30  2  0  0  0
  1 92  1  0  0  0
  2  3  1  0  0  0
  2 25  1  0  0  0
  2 94  1  0  0  0
  2 95  1  0  0  0
  3  4  1  0  0  0
  3 96  1  0  0  0
  3 97  1  0  0  0
  4  5  1  0  0  0
  4 98  1  0  0  0
  4 99  1  0  0  0
  5  6  1  0  0  0
  5 26  1  0  0  0
  5100  1  0  0  0
  6 25  1  0  0  0
  6101  1  0  0  0
  6102  1  0  0  0
  7  8  2  0  0  0
  7 26  1  0  0  0
  7 29  1  0  0  0
  8  9  1  0  0  0
  8 22  1  0  0  0
  9 10  1  0  0  0
  9 27  2  0  0  0
 10 11  2  0  0  0
 10 15  1  0  0  0
 11 12  1  0  0  0
 11103  1  0  0  0
 12 13  2  0  0  0
 12104  1  0  0  0
 13 14  1  0  0  0
 13 31  1  0  0  0
 14 15  2  0  0  0
 14105  1  0  0  0
 15106  1  0  0  0
 16 17  2  0  0  0
 16 21  1  0  0  0
 16 31  1  0  0  0
 17 18  1  0  0  0
 17107  1  0  0  0
 18 19  2  0  0  0
 18108  1  0  0  0
 19 20  1  0  0  0
 19 24  1  0  0  0
 20 21  2  0  0  0
 20109  1  0  0  0
 21 23  1  0  0  0
 22 28  1  0  0  0
 22 32  2  0  0  0
 26 27  1  0  0  0
 28110  1  0  0  0
 28111  1  0  0  0
 29112  1  0  0  0
 29113  1  0  0  0
 33 34  1  0  0  0
 33 66  1  0  0  0
 33 70  2  0  0  0
 34 36  1  0  0  0
 34 59  1  0  0  0
 34114  1  0  0  0
 35 44  2  0  0  0
 35 45  1  0  0  0
 35 68  1  0  0  0
 36 56  1  0  0  0
 36115  1  0  0  0
 37 39  1  0  0  0
 37 47  1  0  0  0
 37 66  1  0  0  0
 37116  1  0  0  0
 38 43  2  0  0  0
 38 46  1  0  0  0
 38 47  1  0  0  0
 39 64  1  0  0  0
 39 67  2  0  0  0
 40 52  1  0  0  0
 40 53  2  0  0  0
 40 58  1  0  0  0
 41117  1  0  0  0
 41118  1  0  0  0
 41119  1  0  0  0
 41 48  1  0  0  0
 42 43  1  0  0  0
 42 66  1  0  0  0
 42120  1  0  0  0
 42121  1  0  0  0
 43 44  1  0  0  0
 44122  1  0  0  0
 45 46  2  0  0  0
 45123  1  0  0  0
 46124  1  0  0  0
 47125  1  0  0  0
 47126  1  0  0  0
 48 56  1  0  0  0
 48 65  1  0  0  0
 48127  1  0  0  0
 49 50  1  0  0  0
 49 53  1  0  0  0
 49 64  1  0  0  0
 49128  1  0  0  0
 50 51  1  0  0  0
 50129  1  0  0  0
 50130  1  0  0  0
 51 52  1  0  0  0
 51131  1  0  0  0
 51132  1  0  0  0
 52133  1  0  0  0
 52134  1  0  0  0
 53 54  1  0  0  0
 54 55  2  0  0  0
 54135  1  0  0  0
 55 57  1  0  0  0
 55136  1  0  0  0
 56 69  2  0  0  0
 57 58  2  0  0  0
 57137  1  0  0  0
 58138  1  0  0  0
 59 60  1  0  0  0
 59 61  1  0  0  0
 59 62  1  0  0  0
 60139  1  0  0  0
 60140  1  0  0  0
 60141  1  0  0  0
 61142  1  0  0  0
 61143  1  0  0  0
 61144  1  0  0  0
 62145  1  0  0  0
 62146  1  0  0  0
 62147  1  0  0  0
 63 65  1  0  0  0
 63148  1  0  0  0
 63149  1  0  0  0
 63150  1  0  0  0
 64151  1  0  0  0
 65152  1  0  0  0
 68 88  1  0  0  0
 71 73  2  0  0  0
 71 76  1  0  0  0
 71153  1  0  0  0
 72 74  1  0  0  0
 72 76  2  0  0  0
 72154  1  0  0  0
 73 75  1  0  0  0
 73 81  1  0  0  0
 74 75  2  0  0  0
 74 82  1  0  0  0
 75 84  1  0  0  0
 76 91  1  0  0  0
 77 79  1  0  0  0
 77 90  1  0  0  0
 77155  1  0  0  0
 77156  1  0  0  0
 78 80  1  0  0  0
 78 90  1  0  0  0
 78157  1  0  0  0
 78158  1  0  0  0
 79 93  1  0  0  0
 79159  1  0  0  0
 79160  1  0  0  0
 80 93  1  0  0  0
 80161  1  0  0  0
 80162  1  0  0  0
 81163  1  0  0  0
 81164  1  0  0  0
 81165  1  0  0  0
 82166  1  0  0  0
 82167  1  0  0  0
 82168  1  0  0  0
 83169  1  0  0  0
 83170  1  0  0  0
 83171  1  0  0  0
 83 89  1  0  0  0
 84172  1  0  0  0
 84173  1  0  0  0
 84 93  1  0  0  0
 85 89  1  0  0  0
 85 90  1  0  0  0
 85174  1  0  0  0
 85175  1  0  0  0
 86 87  1  0  0  0
 86 91  1  0  0  0
 86176  1  0  0  0
 86177  1  0  0  0
 87 92  1  0  0  0
 87178  1  0  0  0
 87179  1  0  0  0
 88 89  1  0  0  0
 88180  1  0  0  0
 88181  1  0  0  0
 89182  1  0  0  0
 91183  1  0  0  0
 92184  1  0  0  0
 93185  1  0  0  0
M  CHG  1  93   1
M  ISO  4   1 100  68 101  88 101  92 100
M  END
> <chiral flag>
0

> <version>
0

> <s_m_source_file>
/data/baiqing/PycharmProjects/Reinvent-master-3.2/result/LINK_invent/BTK/process_docking_weight1_custom_sum_contain_oxygen_bond_distance_aromatic_linkinvent_7_9_3/rearranged_h_0116.sdf

> <i_m_source_file_index>
76

> <r_mmod_Potential_Energy-OPLS-2005>
-173.206802368164

> <r_mmod_Stretch_Energy-OPLS-2005>
39.334659576416

> <r_mmod_Bend_Energy-OPLS-2005>
120.539970397949

> <r_mmod_Torsional_Energy-OPLS-2005>
243.537857055664

> <r_mmod_Improper_Torsional_Energy-OPLS-2005>
7.63717365264893

> <r_mmod_Van_der_Waal_Energy-OPLS-2005>
176.52619934082

> <r_mmod_Electrostatic_Energy-OPLS-2005>
-350.338623046875

> <r_mmod_Solvation_Energy-OPLS-2005>
-419.474975585938

> <b_mmod_Minimization_Converged-OPLS-2005>
0

> <r_mmod_RMS_Derivative-OPLS-2005>
4.22425222396851

$$$$
77
                    3D
 Structure written by MMmdl.
172179  0  0  1  0            999 V2000
  -30.7349  -14.4316   20.5897 C   0  0  0  0  0  0
  -30.4112  -12.2891   19.4185 C   0  0  0  0  0  0
  -29.4872  -12.5055   18.2040 C   0  0  0  0  0  0
  -28.0073  -12.3758   18.6142 C   0  0  0  0  0  0
  -27.6595  -13.2094   19.8759 C   0  0  2  0  0  0
  -28.7030  -12.9858   20.9952 C   0  0  0  0  0  0
  -25.2549  -13.8175   20.5666 C   0  0  0  0  0  0
  -24.1803  -13.0429   20.9177 C   0  0  0  0  0  0
  -24.6365  -11.6915   20.8723 C   0  0  0  0  0  0
  -23.9031  -10.4292   21.0391 C   0  0  0  0  0  0
  -24.3593   -9.4216   21.9170 C   0  0  0  0  0  0
  -23.6279   -8.2240   22.0743 C   0  0  0  0  0  0
  -22.4256   -8.0271   21.3541 C   0  0  0  0  0  0
  -21.9891   -9.0236   20.4634 C   0  0  0  0  0  0
  -22.7205  -10.2124   20.3045 C   0  0  0  0  0  0
  -21.6854   -6.0723   22.5279 C   0  0  0  0  0  0
  -21.4013   -6.5632   23.8211 C   0  0  0  0  0  0
  -21.3657   -5.6790   24.9178 C   0  0  0  0  0  0
  -21.6044   -4.3049   24.7236 C   0  0  0  0  0  0
  -21.8819   -3.8137   23.4356 C   0  0  0  0  0  0
  -21.9194   -4.6949   22.3409 C   0  0  0  0  0  0
  -22.7831  -13.5224   21.1848 C   0  0  0  0  0  0
  -22.1659   -4.2136   21.0982 F   0  0  0  0  0  0
  -21.5629   -3.4536   25.7751 F   0  0  0  0  0  0
  -30.0386  -13.2738   20.4434 N   0  0  0  0  0  0
  -26.2995  -12.9351   20.3368 N   0  0  0  0  0  0
  -25.9293  -11.6510   20.5761 N   0  0  0  0  0  0
  -22.0481  -12.8214   22.0418 N   0  0  0  0  0  0
  -25.4252  -15.1880   20.4032 N   0  0  0  0  0  0
  -31.8341  -14.6260   20.0650 O   0  0  0  0  0  0
  -21.6635   -6.8856   21.4233 O   0  0  0  0  0  0
  -22.3532  -14.5526   20.6703 O   0  0  0  0  0  0
  -24.6134  -31.8702   23.2136 C   0  0  0  0  0  0
  -25.9015  -32.4843   23.8433 C   0  0  1  0  0  0
  -27.2499  -27.4522   20.0736 C   0  0  0  0  0  0
  -25.5866  -33.8644   24.2370 N   0  0  0  0  0  0
  -23.4028  -30.4920   21.5536 C   0  0  2  0  0  0
  -24.8522  -28.9625   20.1149 C   0  0  0  0  0  0
  -22.7398  -29.4662   22.5001 C   0  0  0  0  0  0
  -18.0236  -28.1375   22.8485 C   0  0  0  0  0  0
  -24.1470  -36.7309   23.2631 C   0  0  0  0  0  0
  -25.9308  -30.8354   21.3675 C   0  0  0  0  0  0
  -26.0099  -29.4709   20.7137 C   0  0  0  0  0  0
  -27.2073  -28.7217   20.6945 C   0  0  0  0  0  0
  -26.0682  -26.9606   19.4665 C   0  0  0  0  0  0
  -24.8760  -27.7072   19.4873 C   0  0  0  0  0  0
  -23.6131  -29.8257   20.1683 C   0  0  0  0  0  0
  -25.4087  -36.3128   24.0350 C   0  0  1  0  0  0
  -20.5839  -28.3666   23.1320 C   0  0  2  0  0  0
  -20.6739  -26.9416   22.5406 C   0  0  0  0  0  0
  -19.5732  -26.6396   21.5183 C   0  0  0  0  0  0
  -18.1903  -26.7922   22.1598 C   0  0  0  0  0  0
  -19.1490  -28.8830   23.2890 C   0  0  0  0  0  0
  -18.9434  -30.1426   23.8933 C   0  0  0  0  0  0
  -17.6441  -30.6597   24.0557 C   0  0  0  0  0  0
  -25.9028  -34.9500   23.5168 C   0  0  0  0  0  0
  -16.5320  -29.9112   23.6326 C   0  0  0  0  0  0
  -16.7228  -28.6506   23.0381 C   0  0  0  0  0  0
  -26.4462  -31.6602   25.0737 C   0  0  0  0  0  0
  -25.3757  -31.3684   26.1513 C   0  0  0  0  0  0
  -27.0246  -30.3035   24.6093 C   0  0  0  0  0  0
  -27.6139  -32.4254   25.7408 C   0  0  0  0  0  0
  -27.5598  -37.1768   24.8438 C   0  0  0  0  0  0
  -21.4125  -29.3033   22.3727 N   0  0  0  0  0  0
  -26.4269  -37.3828   23.9452 N   0  0  0  0  0  0
  -24.6664  -31.0781   22.1039 N   0  0  0  0  0  0
  -23.4169  -28.8208   23.3044 O   0  0  0  0  0  0
  -28.4412  -26.7526   20.0898 O   0  0  0  0  0  0
  -26.5607  -34.8943   22.4740 O   0  0  0  0  0  0
  -23.5324  -32.1463   23.7510 O   0  0  0  0  0  0
  -26.8781  -21.8943   21.6089 C   0  0  0  0  0  0
  -29.7383  -24.6852   20.0192 C   0  0  0  0  0  0
  -30.6172  -16.7791   21.4347 C   0  0  0  0  0  0
  -29.8866  -17.8058   20.5413 C   0  0  0  0  0  0
  -29.9478  -20.1894   19.7488 C   0  0  0  0  0  0
  -28.4771  -25.4322   19.5391 C   0  0  0  0  0  0
  -30.0457  -23.3299   19.3216 C   0  0  2  0  0  0
  -29.0358  -21.2984   20.3602 C   0  0  2  0  0  0
  -27.5994  -20.8368   20.7502 C   0  0  2  0  0  0
  -30.4335  -23.5163   17.8295 C   0  0  2  0  0  0
  -31.0744  -22.2820   17.1773 C   0  0  0  0  0  0
  -30.1071  -15.4127   21.2552 N   0  0  0  0  0  0
  -28.8787  -22.4424   19.4467 N   0  0  0  0  0  0
  -26.7915  -20.4900   19.5625 N   0  3  0  0  0  0
  -30.4417  -19.1723   20.7074 N   0  3  0  0  0  0
  -31.3231  -24.5063   17.7254 F   0  0  0  0  0  0
  -31.3466  -22.5121   15.8922 F   0  0  0  0  0  0
  -32.1953  -21.9249   17.8092 F   0  0  0  0  0  0
  -31.4574  -12.3698   19.1211 H   0  0  0  0  0  0
  -30.2970  -11.2796   19.8164 H   0  0  0  0  0  0
  -29.7223  -11.7843   17.4198 H   0  0  0  0  0  0
  -29.6664  -13.4933   17.7765 H   0  0  0  0  0  0
  -27.8034  -11.3201   18.7961 H   0  0  0  0  0  0
  -27.3640  -12.6695   17.7839 H   0  0  0  0  0  0
  -27.7040  -14.2583   19.5827 H   0  0  0  0  0  0
  -28.6686  -11.9510   21.3397 H   0  0  0  0  0  0
  -28.4644  -13.5903   21.8715 H   0  0  0  0  0  0
  -25.2736   -9.5705   22.4746 H   0  0  0  0  0  0
  -23.9997   -7.4639   22.7470 H   0  0  0  0  0  0
  -21.0823   -8.8738   19.8947 H   0  0  0  0  0  0
  -22.3641  -10.9654   19.6158 H   0  0  0  0  0  0
  -21.2006   -7.6143   23.9712 H   0  0  0  0  0  0
  -21.1473   -6.0521   25.9080 H   0  0  0  0  0  0
  -22.0602   -2.7599   23.2868 H   0  0  0  0  0  0
  -22.4094  -11.9859   22.4769 H   0  0  0  0  0  0
  -21.1092  -13.1219   22.2618 H   0  0  0  0  0  0
  -24.6483  -15.8367   20.4749 H   0  0  0  0  0  0
  -26.2744  -15.6207   20.0627 H   0  0  0  0  0  0
  -26.7085  -32.5564   23.1207 H   0  0  0  0  0  0
  -24.9967  -33.9792   25.0484 H   0  0  0  0  0  0
  -22.6912  -31.3073   21.4146 H   0  0  0  0  0  0
  -23.3818  -35.9544   23.3149 H   0  0  0  0  0  0
  -24.3611  -36.9094   22.2075 H   0  0  0  0  0  0
  -23.7108  -37.6415   23.6756 H   0  0  0  0  0  0
  -26.0402  -31.6030   20.6010 H   0  0  0  0  0  0
  -26.8208  -30.8935   21.9834 H   0  0  0  0  0  0
  -28.1060  -29.1114   21.1516 H   0  0  0  0  0  0
  -26.0457  -26.0101   18.9565 H   0  0  0  0  0  0
  -23.9888  -27.3155   19.0090 H   0  0  0  0  0  0
  -23.7204  -30.6028   19.4104 H   0  0  0  0  0  0
  -22.7394  -29.2413   19.8747 H   0  0  0  0  0  0
  -25.1256  -36.1987   25.0838 H   0  0  0  0  0  0
  -20.9876  -28.3247   24.1450 H   0  0  0  0  0  0
  -20.5612  -26.2296   23.3599 H   0  0  0  0  0  0
  -21.6626  -26.7455   22.1227 H   0  0  0  0  0  0
  -19.6912  -25.6308   21.1217 H   0  0  0  0  0  0
  -19.6679  -27.3198   20.6723 H   0  0  0  0  0  0
  -17.4163  -26.6650   21.3998 H   0  0  0  0  0  0
  -18.0312  -26.0052   22.8995 H   0  0  0  0  0  0
  -19.7912  -30.7196   24.2383 H   0  0  0  0  0  0
  -17.5017  -31.6287   24.5137 H   0  0  0  0  0  0
  -15.5341  -30.3043   23.7649 H   0  0  0  0  0  0
  -15.8609  -28.0839   22.7146 H   0  0  0  0  0  0
  -24.5840  -30.7163   25.7804 H   0  0  0  0  0  0
  -24.9041  -32.2816   26.5141 H   0  0  0  0  0  0
  -25.8086  -30.8661   27.0168 H   0  0  0  0  0  0
  -26.2738  -29.6763   24.1263 H   0  0  0  0  0  0
  -27.4142  -29.7306   25.4513 H   0  0  0  0  0  0
  -27.8534  -30.4344   23.9140 H   0  0  0  0  0  0
  -27.2949  -33.3653   26.1916 H   0  0  0  0  0  0
  -28.3935  -32.6609   25.0154 H   0  0  0  0  0  0
  -28.0796  -31.8373   26.5334 H   0  0  0  0  0  0
  -28.2532  -38.0148   24.7694 H   0  0  0  0  0  0
  -28.1197  -36.2724   24.6016 H   0  0  0  0  0  0
  -27.2361  -37.1094   25.8836 H   0  0  0  0  0  0
  -20.9297  -29.8757   21.6934 H   0  0  0  0  0  0
  -26.0171  -38.2884   24.1584 H   0  0  0  0  0  0
  -27.5204  -22.2511   22.4149 H   0  0  0  0  0  0
  -25.9859  -21.4752   22.0754 H   0  0  0  0  0  0
  -26.5652  -22.7620   21.0288 H   0  0  0  0  0  0
  -29.6593  -24.5356   21.0945 H   0  0  0  0  0  0
  -30.5977  -25.3447   19.8957 H   0  0  0  0  0  0
  -30.5102  -17.0506   22.4847 H   0  0  0  0  0  0
  -31.6877  -16.8210   21.2226 H   0  0  0  0  0  0
  -28.8201  -17.8147   20.7683 H   0  0  0  0  0  0
  -29.9812  -17.5019   19.4963 H   0  0  0  0  0  0
  -30.8605  -20.6635   19.3997 H   0  0  0  0  0  0
  -29.5081  -19.7345   18.8612 H   0  0  0  0  0  0
  -27.6143  -24.8522   19.8655 H   0  0  0  0  0  0
  -28.4457  -25.5044   18.4514 H   0  0  0  0  0  0
  -30.9107  -22.9005   19.8311 H   0  0  0  0  0  0
  -29.5200  -21.6621   21.2702 H   0  0  0  0  0  0
  -27.6733  -19.9378   21.3635 H   0  0  0  0  0  0
  -29.5658  -23.8186   17.2442 H   0  0  0  0  0  0
  -30.3888  -21.4370   17.1994 H   0  0  0  0  0  0
  -29.1971  -15.1949   21.6346 H   0  0  0  0  0  0
  -28.1500  -23.0272   19.8421 H   0  0  0  0  0  0
  -26.8735  -21.2167   18.8709 H   0  0  0  0  0  0
  -25.8239  -20.3887   19.8129 H   0  0  0  0  0  0
  -27.0853  -19.6288   19.1386 H   0  0  0  0  0  0
  -31.4329  -19.0970   20.5371 H   0  0  0  0  0  0
  -30.3381  -19.4950   21.6563 H   0  0  0  0  0  0
  1 25  1  0  0  0
  1 30  2  0  0  0
  1 82  1  0  0  0
  2  3  1  0  0  0
  2 25  1  0  0  0
  2 89  1  0  0  0
  2 90  1  0  0  0
  3  4  1  0  0  0
  3 91  1  0  0  0
  3 92  1  0  0  0
  4  5  1  0  0  0
  4 93  1  0  0  0
  4 94  1  0  0  0
  5  6  1  0  0  0
  5 26  1  0  0  0
  5 95  1  0  0  0
  6 25  1  0  0  0
  6 96  1  0  0  0
  6 97  1  0  0  0
  7  8  2  0  0  0
  7 26  1  0  0  0
  7 29  1  0  0  0
  8  9  1  0  0  0
  8 22  1  0  0  0
  9 10  1  0  0  0
  9 27  2  0  0  0
 10 11  2  0  0  0
 10 15  1  0  0  0
 11 12  1  0  0  0
 11 98  1  0  0  0
 12 13  2  0  0  0
 12 99  1  0  0  0
 13 14  1  0  0  0
 13 31  1  0  0  0
 14 15  2  0  0  0
 14100  1  0  0  0
 15101  1  0  0  0
 16 17  2  0  0  0
 16 21  1  0  0  0
 16 31  1  0  0  0
 17 18  1  0  0  0
 17102  1  0  0  0
 18 19  2  0  0  0
 18103  1  0  0  0
 19 20  1  0  0  0
 19 24  1  0  0  0
 20 21  2  0  0  0
 20104  1  0  0  0
 21 23  1  0  0  0
 22 28  1  0  0  0
 22 32  2  0  0  0
 26 27  1  0  0  0
 28105  1  0  0  0
 28106  1  0  0  0
 29107  1  0  0  0
 29108  1  0  0  0
 33 34  1  0  0  0
 33 66  1  0  0  0
 33 70  2  0  0  0
 34 36  1  0  0  0
 34 59  1  0  0  0
 34109  1  0  0  0
 35 44  2  0  0  0
 35 45  1  0  0  0
 35 68  1  0  0  0
 36 56  1  0  0  0
 36110  1  0  0  0
 37 39  1  0  0  0
 37 47  1  0  0  0
 37 66  1  0  0  0
 37111  1  0  0  0
 38 43  2  0  0  0
 38 46  1  0  0  0
 38 47  1  0  0  0
 39 64  1  0  0  0
 39 67  2  0  0  0
 40 52  1  0  0  0
 40 53  2  0  0  0
 40 58  1  0  0  0
 41112  1  0  0  0
 41113  1  0  0  0
 41114  1  0  0  0
 41 48  1  0  0  0
 42 43  1  0  0  0
 42 66  1  0  0  0
 42115  1  0  0  0
 42116  1  0  0  0
 43 44  1  0  0  0
 44117  1  0  0  0
 45 46  2  0  0  0
 45118  1  0  0  0
 46119  1  0  0  0
 47120  1  0  0  0
 47121  1  0  0  0
 48 56  1  0  0  0
 48 65  1  0  0  0
 48122  1  0  0  0
 49 50  1  0  0  0
 49 53  1  0  0  0
 49 64  1  0  0  0
 49123  1  0  0  0
 50 51  1  0  0  0
 50124  1  0  0  0
 50125  1  0  0  0
 51 52  1  0  0  0
 51126  1  0  0  0
 51127  1  0  0  0
 52128  1  0  0  0
 52129  1  0  0  0
 53 54  1  0  0  0
 54 55  2  0  0  0
 54130  1  0  0  0
 55 57  1  0  0  0
 55131  1  0  0  0
 56 69  2  0  0  0
 57 58  2  0  0  0
 57132  1  0  0  0
 58133  1  0  0  0
 59 60  1  0  0  0
 59 61  1  0  0  0
 59 62  1  0  0  0
 60134  1  0  0  0
 60135  1  0  0  0
 60136  1  0  0  0
 61137  1  0  0  0
 61138  1  0  0  0
 61139  1  0  0  0
 62140  1  0  0  0
 62141  1  0  0  0
 62142  1  0  0  0
 63 65  1  0  0  0
 63143  1  0  0  0
 63144  1  0  0  0
 63145  1  0  0  0
 64146  1  0  0  0
 65147  1  0  0  0
 68 76  1  0  0  0
 71148  1  0  0  0
 71149  1  0  0  0
 71150  1  0  0  0
 71 79  1  0  0  0
 72 76  1  0  0  0
 72151  1  0  0  0
 72152  1  0  0  0
 72 77  1  0  0  0
 73 74  1  0  0  0
 73 82  1  0  0  0
 73153  1  0  0  0
 73154  1  0  0  0
 74 85  1  0  0  0
 74155  1  0  0  0
 74156  1  0  0  0
 75 85  1  0  0  0
 75157  1  0  0  0
 75158  1  0  0  0
 75 78  1  0  0  0
 76159  1  0  0  0
 76160  1  0  0  0
 77 80  1  0  0  0
 77 83  1  0  0  0
 77161  1  0  0  0
 78 79  1  0  0  0
 78 83  1  0  0  0
 78162  1  0  0  0
 79 84  1  0  0  0
 79163  1  0  0  0
 80 81  1  0  0  0
 80 86  1  0  0  0
 80164  1  0  0  0
 81 87  1  0  0  0
 81 88  1  0  0  0
 81165  1  0  0  0
 82166  1  0  0  0
 83167  1  0  0  0
 84168  1  0  0  0
 84169  1  0  0  0
 84170  1  0  0  0
 85171  1  0  0  0
 85172  1  0  0  0
M  CHG  2  84   1  85   1
M  ISO  4   1 100  68 101  76 101  82 100
M  END
> <chiral flag>
0

> <version>
0

> <s_m_source_file>
/data/baiqing/PycharmProjects/Reinvent-master-3.2/result/LINK_invent/BTK/process_docking_weight1_custom_sum_contain_oxygen_bond_distance_aromatic_linkinvent_7_9_3/rearranged_h_0116.sdf

> <i_m_source_file_index>
77

> <r_mmod_Potential_Energy-OPLS-2005>
-484.585571289062

> <r_mmod_Stretch_Energy-OPLS-2005>
37.5481872558594

> <r_mmod_Bend_Energy-OPLS-2005>
110.761169433594

> <r_mmod_Torsional_Energy-OPLS-2005>
237.790023803711

> <r_mmod_Improper_Torsional_Energy-OPLS-2005>
2.74789333343506

> <r_mmod_Van_der_Waal_Energy-OPLS-2005>
138.355590820312

> <r_mmod_Electrostatic_Energy-OPLS-2005>
97.0179748535156

> <r_mmod_Solvation_Energy-OPLS-2005>
-1119.28137207031

> <b_mmod_Minimization_Converged-OPLS-2005>
0

> <r_mmod_RMS_Derivative-OPLS-2005>
3.64106965065002

$$$$
78
                    3D
 Structure written by MMmdl.
167175  0  0  1  0            999 V2000
  -30.5585  -14.8977   20.4291 C   0  0  0  0  0  0
  -30.4425  -12.5518   19.4970 C   0  0  0  0  0  0
  -29.5207  -12.5222   18.2557 C   0  0  0  0  0  0
  -28.0506  -12.3220   18.6707 C   0  0  0  0  0  0
  -27.6365  -13.2433   19.8494 C   0  0  2  0  0  0
  -28.6806  -13.2435   20.9880 C   0  0  0  0  0  0
  -25.2504  -13.8218   20.5715 C   0  0  0  0  0  0
  -24.1803  -13.0445   20.9203 C   0  0  0  0  0  0
  -24.6422  -11.6924   20.8758 C   0  0  0  0  0  0
  -23.9108  -10.4291   21.0414 C   0  0  0  0  0  0
  -24.3644   -9.4200   21.9193 C   0  0  0  0  0  0
  -23.6309   -8.2244   22.0758 C   0  0  0  0  0  0
  -22.4294   -8.0292   21.3551 C   0  0  0  0  0  0
  -21.9942   -9.0268   20.4655 C   0  0  0  0  0  0
  -22.7283  -10.2143   20.3067 C   0  0  0  0  0  0
  -21.6861   -6.0748   22.5277 C   0  0  0  0  0  0
  -21.4010   -6.5644   23.8208 C   0  0  0  0  0  0
  -21.3661   -5.6800   24.9168 C   0  0  0  0  0  0
  -21.6050   -4.3058   24.7214 C   0  0  0  0  0  0
  -21.8826   -3.8157   23.4333 C   0  0  0  0  0  0
  -21.9191   -4.6978   22.3395 C   0  0  0  0  0  0
  -22.7830  -13.5207   21.1847 C   0  0  0  0  0  0
  -22.1664   -4.2167   21.0973 F   0  0  0  0  0  0
  -21.5629   -3.4537   25.7718 F   0  0  0  0  0  0
  -29.9645  -13.6395   20.3962 N   0  0  0  0  0  0
  -26.2929  -12.9440   20.3307 N   0  0  0  0  0  0
  -25.9352  -11.6574   20.5784 N   0  0  0  0  0  0
  -22.0487  -12.8212   22.0414 N   0  0  0  0  0  0
  -25.4195  -15.1944   20.4113 N   0  0  0  0  0  0
  -31.7483  -14.9839   20.1110 O   0  0  0  0  0  0
  -21.6651   -6.8900   21.4246 O   0  0  0  0  0  0
  -22.3523  -14.5515   20.6694 O   0  0  0  0  0  0
  -24.6395  -31.8445   23.1892 C   0  0  0  0  0  0
  -25.9180  -32.4713   23.8262 C   0  0  1  0  0  0
  -27.2425  -27.1772   20.1341 C   0  0  0  0  0  0
  -25.5951  -33.8512   24.2180 N   0  0  0  0  0  0
  -23.4423  -30.4638   21.5323 C   0  0  2  0  0  0
  -24.8935  -28.8898   20.1072 C   0  0  0  0  0  0
  -22.7534  -29.4564   22.4859 C   0  0  0  0  0  0
  -18.0294  -28.1404   22.8469 C   0  0  0  0  0  0
  -24.1480  -36.7231   23.2652 C   0  0  0  0  0  0
  -25.9928  -30.7301   21.3795 C   0  0  0  0  0  0
  -26.0657  -29.3433   20.7228 C   0  0  0  0  0  0
  -27.2334  -28.4998   20.7247 C   0  0  0  0  0  0
  -26.0339  -26.8002   19.5085 C   0  0  0  0  0  0
  -24.8851  -27.6264   19.4942 C   0  0  0  0  0  0
  -23.6675  -29.7890   20.1507 C   0  0  0  0  0  0
  -25.4114  -36.3024   24.0324 C   0  0  1  0  0  0
  -20.5897  -28.3712   23.1243 C   0  0  2  0  0  0
  -20.6786  -26.9420   22.5414 C   0  0  0  0  0  0
  -19.5765  -26.6368   21.5226 C   0  0  0  0  0  0
  -18.1935  -26.7937   22.1621 C   0  0  0  0  0  0
  -19.1551  -28.8876   23.2836 C   0  0  0  0  0  0
  -18.9487  -30.1477   23.8856 C   0  0  0  0  0  0
  -17.6498  -30.6600   24.0581 C   0  0  0  0  0  0
  -25.9061  -34.9421   23.5050 C   0  0  0  0  0  0
  -16.5372  -29.9115   23.6353 C   0  0  0  0  0  0
  -16.7285  -28.6543   23.0351 C   0  0  0  0  0  0
  -26.4490  -31.6588   25.0709 C   0  0  0  0  0  0
  -25.3678  -31.3807   26.1417 C   0  0  0  0  0  0
  -27.0388  -30.3002   24.6290 C   0  0  0  0  0  0
  -27.6016  -32.4354   25.7503 C   0  0  0  0  0  0
  -27.5537  -37.1769   24.8469 C   0  0  0  0  0  0
  -21.4231  -29.3036   22.3613 N   0  0  0  0  0  0
  -26.4259  -37.3744   23.9416 N   0  0  0  0  0  0
  -24.7119  -31.0334   22.0904 N   0  0  0  0  0  0
  -23.4199  -28.8092   23.2980 O   0  0  0  0  0  0
  -28.3465  -26.2656   20.2615 O   0  0  0  0  0  0
  -26.5642  -34.8919   22.4622 O   0  0  0  0  0  0
  -23.5529  -32.1304   23.7147 O   0  0  0  0  0  0
  -27.6070  -22.5546   20.2550 C   0  0  0  0  0  0
  -30.0601  -21.3143   20.2930 C   0  0  0  0  0  0
  -28.9698  -20.4083   20.5202 C   0  0  0  0  0  0
  -27.7176  -21.1351   20.5240 C   0  0  0  0  0  0
  -28.7255  -23.4109   20.0576 C   0  0  0  0  0  0
  -28.2302  -24.9958   18.0287 C   0  0  0  0  0  0
  -25.1377  -19.3716   22.4893 C   0  0  0  0  0  0
  -26.9209  -20.9399   23.2685 C   0  0  0  0  0  0
  -24.8974  -21.8202   22.0730 C   0  0  0  0  0  0
  -29.0559  -18.7970   20.8936 C   0  0  0  0  0  0
  -30.0281  -17.5848   20.2908 C   0  0  0  0  0  0
  -28.6575  -24.9584   19.5026 C   0  0  1  0  0  0
  -25.9035  -20.6558   22.1375 C   0  0  0  0  0  0
  -29.9058  -22.6876   20.0778 N   0  3  0  0  0  0
  -26.5403  -20.4409   20.8312 N   0  0  0  0  0  0
  -29.7743  -16.0628   20.6093 N   0  0  0  0  0  0
  -31.4746  -12.7109   19.1810 H   0  0  0  0  0  0
  -30.4320  -11.5898   20.0135 H   0  0  0  0  0  0
  -29.8255  -11.7262   17.5745 H   0  0  0  0  0  0
  -29.6221  -13.4573   17.7020 H   0  0  0  0  0  0
  -27.9296  -11.2764   18.9613 H   0  0  0  0  0  0
  -27.3913  -12.4770   17.8156 H   0  0  0  0  0  0
  -27.6108  -14.2523   19.4369 H   0  0  0  0  0  0
  -28.7549  -12.2610   21.4570 H   0  0  0  0  0  0
  -28.3909  -13.9395   21.7773 H   0  0  0  0  0  0
  -25.2780   -9.5672   22.4773 H   0  0  0  0  0  0
  -24.0011   -7.4640   22.7481 H   0  0  0  0  0  0
  -21.0873   -8.8817   19.8952 H   0  0  0  0  0  0
  -22.3760  -10.9695   19.6182 H   0  0  0  0  0  0
  -21.2009   -7.6152   23.9722 H   0  0  0  0  0  0
  -21.1474   -6.0517   25.9075 H   0  0  0  0  0  0
  -22.0605   -2.7619   23.2824 H   0  0  0  0  0  0
  -22.4108  -11.9848   22.4771 H   0  0  0  0  0  0
  -21.1121  -13.1271   22.2622 H   0  0  0  0  0  0
  -24.6516  -15.8477   20.5188 H   0  0  0  0  0  0
  -26.2652  -15.6353   20.0740 H   0  0  0  0  0  0
  -26.7222  -32.5300   23.0967 H   0  0  0  0  0  0
  -25.0131  -33.9639   25.0345 H   0  0  0  0  0  0
  -22.7458  -31.2903   21.3739 H   0  0  0  0  0  0
  -23.3765  -35.9538   23.3338 H   0  0  0  0  0  0
  -24.3548  -36.8844   22.2054 H   0  0  0  0  0  0
  -23.7216  -37.6425   23.6672 H   0  0  0  0  0  0
  -26.1399  -31.4836   20.6047 H   0  0  0  0  0  0
  -26.8678  -30.7817   22.0162 H   0  0  0  0  0  0
  -28.1242  -28.8431   21.2320 H   0  0  0  0  0  0
  -25.9288  -25.8161   19.0846 H   0  0  0  0  0  0
  -23.9775  -27.2618   19.0334 H   0  0  0  0  0  0
  -23.8069  -30.5651   19.3993 H   0  0  0  0  0  0
  -22.7831  -29.2329   19.8339 H   0  0  0  0  0  0
  -25.1299  -36.1830   25.0812 H   0  0  0  0  0  0
  -20.9978  -28.3299   24.1366 H   0  0  0  0  0  0
  -20.5691  -26.2319   23.3627 H   0  0  0  0  0  0
  -21.6653  -26.7434   22.1199 H   0  0  0  0  0  0
  -19.6948  -25.6279   21.1262 H   0  0  0  0  0  0
  -19.6723  -27.3190   20.6775 H   0  0  0  0  0  0
  -17.4207  -26.6683   21.4026 H   0  0  0  0  0  0
  -18.0314  -26.0092   22.9025 H   0  0  0  0  0  0
  -19.7982  -30.7289   24.2187 H   0  0  0  0  0  0
  -17.5087  -31.6297   24.5172 H   0  0  0  0  0  0
  -15.5390  -30.3029   23.7742 H   0  0  0  0  0  0
  -15.8667  -28.0906   22.7042 H   0  0  0  0  0  0
  -24.5847  -30.7163   25.7743 H   0  0  0  0  0  0
  -24.8892  -32.3019   26.4736 H   0  0  0  0  0  0
  -25.7944  -30.9038   27.0251 H   0  0  0  0  0  0
  -26.3012  -29.6718   24.1293 H   0  0  0  0  0  0
  -27.4015  -29.7296   25.4851 H   0  0  0  0  0  0
  -27.8891  -30.4273   23.9600 H   0  0  0  0  0  0
  -27.2585  -33.3665   26.2010 H   0  0  0  0  0  0
  -28.3851  -32.6906   25.0366 H   0  0  0  0  0  0
  -28.0652  -31.8541   26.5482 H   0  0  0  0  0  0
  -28.2567  -38.0050   24.7493 H   0  0  0  0  0  0
  -28.1027  -36.2586   24.6327 H   0  0  0  0  0  0
  -27.2258  -37.1428   25.8877 H   0  0  0  0  0  0
  -20.9425  -29.8750   21.6807 H   0  0  0  0  0  0
  -26.0135  -38.2800   24.1485 H   0  0  0  0  0  0
  -26.6319  -23.0053   20.1655 H   0  0  0  0  0  0
  -31.0853  -20.9711   20.2868 H   0  0  0  0  0  0
  -28.8864  -24.3690   17.4222 H   0  0  0  0  0  0
  -28.2750  -26.0063   17.6248 H   0  0  0  0  0  0
  -27.2223  -24.6136   17.8880 H   0  0  0  0  0  0
  -24.5405  -19.4979   23.3946 H   0  0  0  0  0  0
  -25.8186  -18.5351   22.6571 H   0  0  0  0  0  0
  -24.4543  -19.0831   21.6891 H   0  0  0  0  0  0
  -26.4121  -21.0747   24.2237 H   0  0  0  0  0  0
  -27.4944  -21.8526   23.1010 H   0  0  0  0  0  0
  -27.6236  -20.1170   23.3966 H   0  0  0  0  0  0
  -24.3247  -21.8952   22.9987 H   0  0  0  0  0  0
  -24.1801  -21.7010   21.2593 H   0  0  0  0  0  0
  -25.3852  -22.7855   21.9511 H   0  0  0  0  0  0
  -28.0451  -18.4170   20.7572 H   0  0  0  0  0  0
  -29.1951  -18.7801   21.9753 H   0  0  0  0  0  0
  -31.0613  -17.8113   20.5529 H   0  0  0  0  0  0
  -29.9828  -17.6603   19.2043 H   0  0  0  0  0  0
  -29.7283  -25.1459   19.4172 H   0  0  0  0  0  0
  -30.7636  -23.2118   19.8870 H   0  0  0  0  0  0
  -25.8755  -20.4871   20.0654 H   0  0  0  0  0  0
  -28.8243  -15.8568   20.8785 H   0  0  0  0  0  0
  1 25  1  0  0  0
  1 30  2  0  0  0
  1 86  1  0  0  0
  2  3  1  0  0  0
  2 25  1  0  0  0
  2 87  1  0  0  0
  2 88  1  0  0  0
  3  4  1  0  0  0
  3 89  1  0  0  0
  3 90  1  0  0  0
  4  5  1  0  0  0
  4 91  1  0  0  0
  4 92  1  0  0  0
  5  6  1  0  0  0
  5 26  1  0  0  0
  5 93  1  0  0  0
  6 25  1  0  0  0
  6 94  1  0  0  0
  6 95  1  0  0  0
  7  8  2  0  0  0
  7 26  1  0  0  0
  7 29  1  0  0  0
  8  9  1  0  0  0
  8 22  1  0  0  0
  9 10  1  0  0  0
  9 27  2  0  0  0
 10 11  2  0  0  0
 10 15  1  0  0  0
 11 12  1  0  0  0
 11 96  1  0  0  0
 12 13  2  0  0  0
 12 97  1  0  0  0
 13 14  1  0  0  0
 13 31  1  0  0  0
 14 15  2  0  0  0
 14 98  1  0  0  0
 15 99  1  0  0  0
 16 17  2  0  0  0
 16 21  1  0  0  0
 16 31  1  0  0  0
 17 18  1  0  0  0
 17100  1  0  0  0
 18 19  2  0  0  0
 18101  1  0  0  0
 19 20  1  0  0  0
 19 24  1  0  0  0
 20 21  2  0  0  0
 20102  1  0  0  0
 21 23  1  0  0  0
 22 28  1  0  0  0
 22 32  2  0  0  0
 26 27  1  0  0  0
 28103  1  0  0  0
 28104  1  0  0  0
 29105  1  0  0  0
 29106  1  0  0  0
 33 34  1  0  0  0
 33 66  1  0  0  0
 33 70  2  0  0  0
 34 36  1  0  0  0
 34 59  1  0  0  0
 34107  1  0  0  0
 35 44  2  0  0  0
 35 45  1  0  0  0
 35 68  1  0  0  0
 36 56  1  0  0  0
 36108  1  0  0  0
 37 39  1  0  0  0
 37 47  1  0  0  0
 37 66  1  0  0  0
 37109  1  0  0  0
 38 43  2  0  0  0
 38 46  1  0  0  0
 38 47  1  0  0  0
 39 64  1  0  0  0
 39 67  2  0  0  0
 40 52  1  0  0  0
 40 53  2  0  0  0
 40 58  1  0  0  0
 41110  1  0  0  0
 41111  1  0  0  0
 41112  1  0  0  0
 41 48  1  0  0  0
 42 43  1  0  0  0
 42 66  1  0  0  0
 42113  1  0  0  0
 42114  1  0  0  0
 43 44  1  0  0  0
 44115  1  0  0  0
 45 46  2  0  0  0
 45116  1  0  0  0
 46117  1  0  0  0
 47118  1  0  0  0
 47119  1  0  0  0
 48 56  1  0  0  0
 48 65  1  0  0  0
 48120  1  0  0  0
 49 50  1  0  0  0
 49 53  1  0  0  0
 49 64  1  0  0  0
 49121  1  0  0  0
 50 51  1  0  0  0
 50122  1  0  0  0
 50123  1  0  0  0
 51 52  1  0  0  0
 51124  1  0  0  0
 51125  1  0  0  0
 52126  1  0  0  0
 52127  1  0  0  0
 53 54  1  0  0  0
 54 55  2  0  0  0
 54128  1  0  0  0
 55 57  1  0  0  0
 55129  1  0  0  0
 56 69  2  0  0  0
 57 58  2  0  0  0
 57130  1  0  0  0
 58131  1  0  0  0
 59 60  1  0  0  0
 59 61  1  0  0  0
 59 62  1  0  0  0
 60132  1  0  0  0
 60133  1  0  0  0
 60134  1  0  0  0
 61135  1  0  0  0
 61136  1  0  0  0
 61137  1  0  0  0
 62138  1  0  0  0
 62139  1  0  0  0
 62140  1  0  0  0
 63 65  1  0  0  0
 63141  1  0  0  0
 63142  1  0  0  0
 63143  1  0  0  0
 64144  1  0  0  0
 65145  1  0  0  0
 68 82  1  0  0  0
 71 74  2  0  0  0
 71 75  1  0  0  0
 71146  1  0  0  0
 72 73  2  0  0  0
 72 84  1  0  0  0
 72147  1  0  0  0
 73 74  1  0  0  0
 73 80  1  0  0  0
 74 85  1  0  0  0
 75 82  1  0  0  0
 75 84  2  0  0  0
 76148  1  0  0  0
 76149  1  0  0  0
 76150  1  0  0  0
 76 82  1  0  0  0
 77151  1  0  0  0
 77152  1  0  0  0
 77153  1  0  0  0
 77 83  1  0  0  0
 78 83  1  0  0  0
 78154  1  0  0  0
 78155  1  0  0  0
 78156  1  0  0  0
 79 83  1  0  0  0
 79157  1  0  0  0
 79158  1  0  0  0
 79159  1  0  0  0
 80 81  1  0  0  0
 80160  1  0  0  0
 80161  1  0  0  0
 81 86  1  0  0  0
 81162  1  0  0  0
 81163  1  0  0  0
 82164  1  0  0  0
 83 85  1  0  0  0
 84165  1  0  0  0
 85166  1  0  0  0
 86167  1  0  0  0
M  CHG  1  84   1
M  ISO  4   1 100  68 101  82 101  86 100
M  END
> <chiral flag>
0

> <version>
0

> <s_m_source_file>
/data/baiqing/PycharmProjects/Reinvent-master-3.2/result/LINK_invent/BTK/process_docking_weight1_custom_sum_contain_oxygen_bond_distance_aromatic_linkinvent_7_9_3/rearranged_h_0116.sdf

> <i_m_source_file_index>
78

> <r_mmod_Potential_Energy-OPLS-2005>
267.603912353516

> <r_mmod_Stretch_Energy-OPLS-2005>
214.831649780273

> <r_mmod_Bend_Energy-OPLS-2005>
296.609436035156

> <r_mmod_Torsional_Energy-OPLS-2005>
234.277145385742

> <r_mmod_Improper_Torsional_Energy-OPLS-2005>
12.0689964294434

> <r_mmod_Van_der_Waal_Energy-OPLS-2005>
134.142807006836

> <r_mmod_Electrostatic_Energy-OPLS-2005>
-354.631866455078

> <r_mmod_Solvation_Energy-OPLS-2005>
-424.784545898438

> <b_mmod_Minimization_Converged-OPLS-2005>
0

> <r_mmod_RMS_Derivative-OPLS-2005>
3.62087321281433

$$$$
79
                    3D
 Structure written by MMmdl.
163171  0  0  1  0            999 V2000
  -30.6592  -14.5610   20.5061 C   0  0  0  0  0  0
  -30.4255  -12.3465   19.4411 C   0  0  0  0  0  0
  -29.5019  -12.4998   18.2140 C   0  0  0  0  0  0
  -28.0231  -12.3582   18.6231 C   0  0  0  0  0  0
  -27.6539  -13.2191   19.8616 C   0  0  2  0  0  0
  -28.6954  -13.0476   20.9900 C   0  0  0  0  0  0
  -25.2554  -13.8214   20.5694 C   0  0  0  0  0  0
  -24.1822  -13.0473   20.9203 C   0  0  0  0  0  0
  -24.6393  -11.6939   20.8740 C   0  0  0  0  0  0
  -23.9069  -10.4313   21.0399 C   0  0  0  0  0  0
  -24.3630   -9.4239   21.9170 C   0  0  0  0  0  0
  -23.6320   -8.2266   22.0731 C   0  0  0  0  0  0
  -22.4304   -8.0299   21.3531 C   0  0  0  0  0  0
  -21.9923   -9.0273   20.4624 C   0  0  0  0  0  0
  -22.7248  -10.2153   20.3038 C   0  0  0  0  0  0
  -21.6871   -6.0764   22.5282 C   0  0  0  0  0  0
  -21.4020   -6.5653   23.8217 C   0  0  0  0  0  0
  -21.3665   -5.6792   24.9163 C   0  0  0  0  0  0
  -21.6046   -4.3062   24.7208 C   0  0  0  0  0  0
  -21.8823   -3.8166   23.4323 C   0  0  0  0  0  0
  -21.9195   -4.6988   22.3394 C   0  0  0  0  0  0
  -22.7836  -13.5256   21.1864 C   0  0  0  0  0  0
  -22.1661   -4.2177   21.0972 F   0  0  0  0  0  0
  -21.5622   -3.4536   25.7716 F   0  0  0  0  0  0
  -30.0182  -13.3602   20.4303 N   0  0  0  0  0  0
  -26.2977  -12.9387   20.3295 N   0  0  0  0  0  0
  -25.9312  -11.6543   20.5736 N   0  0  0  0  0  0
  -22.0461  -12.8242   22.0410 N   0  0  0  0  0  0
  -25.4292  -15.1928   20.4094 N   0  0  0  0  0  0
  -31.8199  -14.7121   20.1121 O   0  0  0  0  0  0
  -21.6662   -6.8910   21.4241 O   0  0  0  0  0  0
  -22.3520  -14.5565   20.6706 O   0  0  0  0  0  0
  -24.6183  -31.8632   23.2070 C   0  0  0  0  0  0
  -25.9059  -32.4796   23.8379 C   0  0  1  0  0  0
  -27.2296  -27.3794   20.0960 C   0  0  0  0  0  0
  -25.5919  -33.8596   24.2315 N   0  0  0  0  0  0
  -23.4093  -30.4864   21.5479 C   0  0  2  0  0  0
  -24.8546  -28.9461   20.1131 C   0  0  0  0  0  0
  -22.7434  -29.4612   22.4962 C   0  0  0  0  0  0
  -18.0280  -28.1330   22.8506 C   0  0  0  0  0  0
  -24.1493  -36.7303   23.2640 C   0  0  0  0  0  0
  -25.9443  -30.8088   21.3713 C   0  0  0  0  0  0
  -26.0169  -29.4409   20.7135 C   0  0  0  0  0  0
  -27.2043  -28.6648   20.7012 C   0  0  0  0  0  0
  -26.0406  -26.9100   19.4915 C   0  0  0  0  0  0
  -24.8639  -27.6826   19.4986 C   0  0  0  0  0  0
  -23.6203  -29.8211   20.1619 C   0  0  0  0  0  0
  -25.4112  -36.3095   24.0337 C   0  0  1  0  0  0
  -20.5870  -28.3619   23.1310 C   0  0  2  0  0  0
  -20.6753  -26.9350   22.5407 C   0  0  0  0  0  0
  -19.5737  -26.6346   21.5197 C   0  0  0  0  0  0
  -18.1917  -26.7881   22.1618 C   0  0  0  0  0  0
  -19.1527  -28.8791   23.2915 C   0  0  0  0  0  0
  -18.9449  -30.1393   23.8927 C   0  0  0  0  0  0
  -17.6451  -30.6548   24.0536 C   0  0  0  0  0  0
  -25.9038  -34.9464   23.5129 C   0  0  0  0  0  0
  -16.5344  -29.9039   23.6311 C   0  0  0  0  0  0
  -16.7267  -28.6442   23.0372 C   0  0  0  0  0  0
  -26.4470  -31.6589   25.0731 C   0  0  0  0  0  0
  -25.3738  -31.3708   26.1490 C   0  0  0  0  0  0
  -27.0303  -30.3025   24.6131 C   0  0  0  0  0  0
  -27.6033  -32.4312   25.7498 C   0  0  0  0  0  0
  -27.5585  -37.1805   24.8459 C   0  0  0  0  0  0
  -21.4153  -29.3015   22.3728 N   0  0  0  0  0  0
  -26.4290  -37.3783   23.9410 N   0  0  0  0  0  0
  -24.6755  -31.0685   22.0996 N   0  0  0  0  0  0
  -23.4192  -28.8151   23.3002 O   0  0  0  0  0  0
  -28.3953  -26.6224   20.1301 O   0  0  0  0  0  0
  -26.5592  -34.8907   22.4681 O   0  0  0  0  0  0
  -23.5362  -32.1400   23.7439 O   0  0  0  0  0  0
  -29.6208  -23.2254   21.7988 C   0  0  0  0  0  0
  -30.2160  -20.8757   21.8273 C   0  0  0  0  0  0
  -30.3831  -22.1751   22.3462 C   0  0  0  0  0  0
  -28.7117  -22.9543   20.7629 C   0  0  0  0  0  0
  -29.2976  -20.6581   20.7849 C   0  0  0  0  0  0
  -30.6783  -23.0885   24.6873 C   0  0  0  0  0  0
  -32.5614  -23.2620   22.9857 C   0  0  0  0  0  0
  -27.7932  -24.0948   20.2502 C   0  0  0  0  0  0
  -29.2195  -18.1275   21.0232 C   0  0  0  0  0  0
  -30.1955  -17.0461   20.4406 C   0  0  0  0  0  0
  -28.4675  -25.3053   19.5101 C   0  0  0  0  0  0
  -31.3660  -22.4344   23.4783 C   0  0  0  0  0  0
  -28.5686  -21.6854   20.2592 N   0  0  0  0  0  0
  -29.1140  -19.3734   20.2255 N   0  0  0  0  0  0
  -29.8864  -15.6368   20.8067 N   0  0  0  0  0  0
  -31.4701  -12.4518   19.1427 H   0  0  0  0  0  0
  -30.3375  -11.3478   19.8682 H   0  0  0  0  0  0
  -29.7569  -11.7540   17.4589 H   0  0  0  0  0  0
  -29.6608  -13.4728   17.7472 H   0  0  0  0  0  0
  -27.8408  -11.3058   18.8413 H   0  0  0  0  0  0
  -27.3740  -12.6065   17.7825 H   0  0  0  0  0  0
  -27.6842  -14.2598   19.5380 H   0  0  0  0  0  0
  -28.6824  -12.0255   21.3700 H   0  0  0  0  0  0
  -28.4578  -13.6858   21.8423 H   0  0  0  0  0  0
  -25.2750   -9.5758   22.4749 H   0  0  0  0  0  0
  -24.0052   -7.4670   22.7447 H   0  0  0  0  0  0
  -21.0858   -8.8800   19.8928 H   0  0  0  0  0  0
  -22.3703  -10.9702   19.6160 H   0  0  0  0  0  0
  -21.2017   -7.6153   23.9738 H   0  0  0  0  0  0
  -21.1478   -6.0502   25.9074 H   0  0  0  0  0  0
  -22.0596   -2.7632   23.2805 H   0  0  0  0  0  0
  -22.4071  -11.9924   22.4836 H   0  0  0  0  0  0
  -21.1067  -13.1260   22.2582 H   0  0  0  0  0  0
  -24.6617  -15.8504   20.5082 H   0  0  0  0  0  0
  -26.2743  -15.6266   20.0620 H   0  0  0  0  0  0
  -26.7128  -32.5467   23.1128 H   0  0  0  0  0  0
  -25.0111  -33.9760   25.0493 H   0  0  0  0  0  0
  -22.7000  -31.3047   21.4081 H   0  0  0  0  0  0
  -23.3756  -35.9635   23.3290 H   0  0  0  0  0  0
  -24.3600  -36.8929   22.2058 H   0  0  0  0  0  0
  -23.7236  -37.6501   23.6658 H   0  0  0  0  0  0
  -26.0735  -31.5776   20.6076 H   0  0  0  0  0  0
  -26.8270  -30.8546   21.9968 H   0  0  0  0  0  0
  -28.1022  -29.0443   21.1695 H   0  0  0  0  0  0
  -25.9934  -25.9424   19.0170 H   0  0  0  0  0  0
  -23.9702  -27.2943   19.0307 H   0  0  0  0  0  0
  -23.7332  -30.5977   19.4046 H   0  0  0  0  0  0
  -22.7428  -29.2453   19.8622 H   0  0  0  0  0  0
  -25.1284  -36.1966   25.0828 H   0  0  0  0  0  0
  -20.9983  -28.3165   24.1421 H   0  0  0  0  0  0
  -20.5620  -26.2218   23.3593 H   0  0  0  0  0  0
  -21.6625  -26.7358   22.1221 H   0  0  0  0  0  0
  -19.6888  -25.6260   21.1217 H   0  0  0  0  0  0
  -19.6677  -27.3162   20.6729 H   0  0  0  0  0  0
  -17.4189  -26.6653   21.4012 H   0  0  0  0  0  0
  -18.0315  -25.9995   22.8985 H   0  0  0  0  0  0
  -19.7919  -30.7191   24.2333 H   0  0  0  0  0  0
  -17.4997  -31.6251   24.5102 H   0  0  0  0  0  0
  -15.5337  -30.2945   23.7595 H   0  0  0  0  0  0
  -15.8674  -28.0737   22.7108 H   0  0  0  0  0  0
  -24.5898  -30.7062   25.7836 H   0  0  0  0  0  0
  -24.8940  -32.2871   26.4941 H   0  0  0  0  0  0
  -25.8098  -30.8877   27.0246 H   0  0  0  0  0  0
  -26.2853  -29.6799   24.1161 H   0  0  0  0  0  0
  -27.4043  -29.7241   25.4585 H   0  0  0  0  0  0
  -27.8702  -30.4330   23.9306 H   0  0  0  0  0  0
  -27.2645  -33.3598   26.2097 H   0  0  0  0  0  0
  -28.3839  -32.6897   25.0334 H   0  0  0  0  0  0
  -28.0716  -31.8435   26.5408 H   0  0  0  0  0  0
  -28.2581  -38.0119   24.7528 H   0  0  0  0  0  0
  -28.1103  -36.2655   24.6256 H   0  0  0  0  0  0
  -27.2318  -37.1420   25.8863 H   0  0  0  0  0  0
  -20.9285  -29.8787   21.7012 H   0  0  0  0  0  0
  -26.0186  -38.2858   24.1412 H   0  0  0  0  0  0
  -29.7208  -24.2333   22.1827 H   0  0  0  0  0  0
  -30.8090  -20.0650   22.2284 H   0  0  0  0  0  0
  -29.8392  -22.4847   25.0355 H   0  0  0  0  0  0
  -30.2952  -24.0808   24.4478 H   0  0  0  0  0  0
  -31.3694  -23.1978   25.5235 H   0  0  0  0  0  0
  -33.0739  -22.7554   22.1670 H   0  0  0  0  0  0
  -33.2884  -23.4187   23.7831 H   0  0  0  0  0  0
  -32.2458  -24.2410   22.6235 H   0  0  0  0  0  0
  -27.2259  -24.4725   21.1007 H   0  0  0  0  0  0
  -27.0482  -23.6571   19.5846 H   0  0  0  0  0  0
  -29.4751  -18.3364   22.0626 H   0  0  0  0  0  0
  -28.2128  -17.7106   21.0574 H   0  0  0  0  0  0
  -31.2216  -17.2887   20.7221 H   0  0  0  0  0  0
  -30.1678  -17.0953   19.3511 H   0  0  0  0  0  0
  -28.0945  -25.3700   18.4870 H   0  0  0  0  0  0
  -29.5258  -25.0765   19.3832 H   0  0  0  0  0  0
  -31.7520  -21.4720   23.8142 H   0  0  0  0  0  0
  -28.4335  -19.3378   19.4747 H   0  0  0  0  0  0
  -28.9500  -15.4393   21.1275 H   0  0  0  0  0  0
  1 25  1  0  0  0
  1 30  2  0  0  0
  1 85  1  0  0  0
  2  3  1  0  0  0
  2 25  1  0  0  0
  2 86  1  0  0  0
  2 87  1  0  0  0
  3  4  1  0  0  0
  3 88  1  0  0  0
  3 89  1  0  0  0
  4  5  1  0  0  0
  4 90  1  0  0  0
  4 91  1  0  0  0
  5  6  1  0  0  0
  5 26  1  0  0  0
  5 92  1  0  0  0
  6 25  1  0  0  0
  6 93  1  0  0  0
  6 94  1  0  0  0
  7  8  2  0  0  0
  7 26  1  0  0  0
  7 29  1  0  0  0
  8  9  1  0  0  0
  8 22  1  0  0  0
  9 10  1  0  0  0
  9 27  2  0  0  0
 10 11  2  0  0  0
 10 15  1  0  0  0
 11 12  1  0  0  0
 11 95  1  0  0  0
 12 13  2  0  0  0
 12 96  1  0  0  0
 13 14  1  0  0  0
 13 31  1  0  0  0
 14 15  2  0  0  0
 14 97  1  0  0  0
 15 98  1  0  0  0
 16 17  2  0  0  0
 16 21  1  0  0  0
 16 31  1  0  0  0
 17 18  1  0  0  0
 17 99  1  0  0  0
 18 19  2  0  0  0
 18100  1  0  0  0
 19 20  1  0  0  0
 19 24  1  0  0  0
 20 21  2  0  0  0
 20101  1  0  0  0
 21 23  1  0  0  0
 22 28  1  0  0  0
 22 32  2  0  0  0
 26 27  1  0  0  0
 28102  1  0  0  0
 28103  1  0  0  0
 29104  1  0  0  0
 29105  1  0  0  0
 33 34  1  0  0  0
 33 66  1  0  0  0
 33 70  2  0  0  0
 34 36  1  0  0  0
 34 59  1  0  0  0
 34106  1  0  0  0
 35 44  2  0  0  0
 35 45  1  0  0  0
 35 68  1  0  0  0
 36 56  1  0  0  0
 36107  1  0  0  0
 37 39  1  0  0  0
 37 47  1  0  0  0
 37 66  1  0  0  0
 37108  1  0  0  0
 38 43  2  0  0  0
 38 46  1  0  0  0
 38 47  1  0  0  0
 39 64  1  0  0  0
 39 67  2  0  0  0
 40 52  1  0  0  0
 40 53  2  0  0  0
 40 58  1  0  0  0
 41109  1  0  0  0
 41110  1  0  0  0
 41111  1  0  0  0
 41 48  1  0  0  0
 42 43  1  0  0  0
 42 66  1  0  0  0
 42112  1  0  0  0
 42113  1  0  0  0
 43 44  1  0  0  0
 44114  1  0  0  0
 45 46  2  0  0  0
 45115  1  0  0  0
 46116  1  0  0  0
 47117  1  0  0  0
 47118  1  0  0  0
 48 56  1  0  0  0
 48 65  1  0  0  0
 48119  1  0  0  0
 49 50  1  0  0  0
 49 53  1  0  0  0
 49 64  1  0  0  0
 49120  1  0  0  0
 50 51  1  0  0  0
 50121  1  0  0  0
 50122  1  0  0  0
 51 52  1  0  0  0
 51123  1  0  0  0
 51124  1  0  0  0
 52125  1  0  0  0
 52126  1  0  0  0
 53 54  1  0  0  0
 54 55  2  0  0  0
 54127  1  0  0  0
 55 57  1  0  0  0
 55128  1  0  0  0
 56 69  2  0  0  0
 57 58  2  0  0  0
 57129  1  0  0  0
 58130  1  0  0  0
 59 60  1  0  0  0
 59 61  1  0  0  0
 59 62  1  0  0  0
 60131  1  0  0  0
 60132  1  0  0  0
 60133  1  0  0  0
 61134  1  0  0  0
 61135  1  0  0  0
 61136  1  0  0  0
 62137  1  0  0  0
 62138  1  0  0  0
 62139  1  0  0  0
 63 65  1  0  0  0
 63140  1  0  0  0
 63141  1  0  0  0
 63142  1  0  0  0
 64143  1  0  0  0
 65144  1  0  0  0
 68 81  1  0  0  0
 71 73  2  0  0  0
 71 74  1  0  0  0
 71145  1  0  0  0
 72 73  1  0  0  0
 72 75  2  0  0  0
 72146  1  0  0  0
 73 82  1  0  0  0
 74 78  1  0  0  0
 74 83  2  0  0  0
 75 83  1  0  0  0
 75 84  1  0  0  0
 76147  1  0  0  0
 76148  1  0  0  0
 76149  1  0  0  0
 76 82  1  0  0  0
 77 82  1  0  0  0
 77150  1  0  0  0
 77151  1  0  0  0
 77152  1  0  0  0
 78 81  1  0  0  0
 78153  1  0  0  0
 78154  1  0  0  0
 79 80  1  0  0  0
 79 84  1  0  0  0
 79155  1  0  0  0
 79156  1  0  0  0
 80 85  1  0  0  0
 80157  1  0  0  0
 80158  1  0  0  0
 81159  1  0  0  0
 81160  1  0  0  0
 82161  1  0  0  0
 84162  1  0  0  0
 85163  1  0  0  0
M  ISO  4   1 100  68 101  81 101  85 100
M  END
> <chiral flag>
0

> <version>
0

> <s_m_source_file>
/data/baiqing/PycharmProjects/Reinvent-master-3.2/result/LINK_invent/BTK/process_docking_weight1_custom_sum_contain_oxygen_bond_distance_aromatic_linkinvent_7_9_3/rearranged_h_0116.sdf

> <i_m_source_file_index>
79

> <r_mmod_Potential_Energy-OPLS-2005>
-333.712921142578

> <r_mmod_Stretch_Energy-OPLS-2005>
51.8362007141113

> <r_mmod_Bend_Energy-OPLS-2005>
123.093856811523

> <r_mmod_Torsional_Energy-OPLS-2005>
206.044876098633

> <r_mmod_Improper_Torsional_Energy-OPLS-2005>
8.70073318481445

> <r_mmod_Van_der_Waal_Energy-OPLS-2005>
148.092971801758

> <r_mmod_Electrostatic_Energy-OPLS-2005>
-662.880310058594

> <r_mmod_Solvation_Energy-OPLS-2005>
-234.981201171875

> <b_mmod_Minimization_Converged-OPLS-2005>
0

> <r_mmod_RMS_Derivative-OPLS-2005>
2.82652997970581

$$$$
80
                    3D
 Structure written by MMmdl.
172180  0  0  1  0            999 V2000
  -30.6961  -14.4357   20.5688 C   0  0  0  0  0  0
  -30.4410  -12.2860   19.3954 C   0  0  0  0  0  0
  -29.4951  -12.4545   18.1888 C   0  0  0  0  0  0
  -28.0204  -12.3312   18.6243 C   0  0  0  0  0  0
  -27.6734  -13.1839   19.8750 C   0  0  2  0  0  0
  -28.7151  -12.9458   20.9945 C   0  0  0  0  0  0
  -25.2680  -13.8142   20.5693 C   0  0  0  0  0  0
  -24.1917  -13.0509   20.9209 C   0  0  0  0  0  0
  -24.6355  -11.6915   20.8763 C   0  0  0  0  0  0
  -23.9025  -10.4297   21.0419 C   0  0  0  0  0  0
  -24.3572   -9.4201   21.9182 C   0  0  0  0  0  0
  -23.6251   -8.2265   22.0785 C   0  0  0  0  0  0
  -22.4233   -8.0282   21.3570 C   0  0  0  0  0  0
  -21.9863   -9.0260   20.4672 C   0  0  0  0  0  0
  -22.7223  -10.2125   20.3056 C   0  0  0  0  0  0
  -21.6842   -6.0711   22.5298 C   0  0  0  0  0  0
  -21.3981   -6.5618   23.8218 C   0  0  0  0  0  0
  -21.3664   -5.6775   24.9187 C   0  0  0  0  0  0
  -21.6029   -4.3038   24.7242 C   0  0  0  0  0  0
  -21.8841   -3.8136   23.4372 C   0  0  0  0  0  0
  -21.9179   -4.6947   22.3407 C   0  0  0  0  0  0
  -22.7908  -13.5325   21.1888 C   0  0  0  0  0  0
  -22.1665   -4.2118   21.0991 F   0  0  0  0  0  0
  -21.5632   -3.4514   25.7758 F   0  0  0  0  0  0
  -30.0431  -13.2505   20.4368 N   0  0  0  0  0  0
  -26.3089  -12.9255   20.3329 N   0  0  0  0  0  0
  -25.9287  -11.6453   20.5830 N   0  0  0  0  0  0
  -22.0435  -12.8339   22.0323 N   0  0  0  0  0  0
  -25.4448  -15.1882   20.4143 N   0  0  0  0  0  0
  -31.7901  -14.6634   20.0541 O   0  0  0  0  0  0
  -21.6662   -6.8848   21.4254 O   0  0  0  0  0  0
  -22.3654  -14.5641   20.6699 O   0  0  0  0  0  0
  -24.6080  -31.8715   23.2079 C   0  0  0  0  0  0
  -25.8985  -32.4833   23.8406 C   0  0  1  0  0  0
  -27.2965  -27.4550   20.1217 C   0  0  0  0  0  0
  -25.5827  -33.8619   24.2323 N   0  0  0  0  0  0
  -23.4064  -30.4858   21.5375 C   0  0  2  0  0  0
  -24.8754  -28.9381   20.1406 C   0  0  0  0  0  0
  -22.7340  -29.4759   22.4933 C   0  0  0  0  0  0
  -18.0267  -28.1370   22.8549 C   0  0  0  0  0  0
  -24.1494  -36.7349   23.2637 C   0  0  0  0  0  0
  -25.9323  -30.8435   21.3695 C   0  0  0  0  0  0
  -26.0259  -29.4691   20.7366 C   0  0  0  0  0  0
  -27.2322  -28.7355   20.7229 C   0  0  0  0  0  0
  -26.1095  -26.9244   19.5640 C   0  0  0  0  0  0
  -24.9088  -27.6578   19.5607 C   0  0  0  0  0  0
  -23.6372  -29.8005   20.1613 C   0  0  0  0  0  0
  -25.4105  -36.3119   24.0336 C   0  0  1  0  0  0
  -20.5810  -28.3829   23.1214 C   0  0  2  0  0  0
  -20.6818  -26.9536   22.5413 C   0  0  0  0  0  0
  -19.5698  -26.5991   21.5525 C   0  0  0  0  0  0
  -18.1921  -26.7764   22.1962 C   0  0  0  0  0  0
  -19.1489  -28.8915   23.2865 C   0  0  0  0  0  0
  -18.9412  -30.1524   23.8797 C   0  0  0  0  0  0
  -17.6432  -30.6629   24.0388 C   0  0  0  0  0  0
  -25.9008  -34.9472   23.5116 C   0  0  0  0  0  0
  -16.5319  -29.9044   23.6284 C   0  0  0  0  0  0
  -16.7255  -28.6406   23.0473 C   0  0  0  0  0  0
  -26.4468  -31.6591   25.0695 C   0  0  0  0  0  0
  -25.3771  -31.3676   26.1452 C   0  0  0  0  0  0
  -27.0300  -30.3016   24.6076 C   0  0  0  0  0  0
  -27.6028  -32.4348   25.7457 C   0  0  0  0  0  0
  -27.5586  -37.1819   24.8451 C   0  0  0  0  0  0
  -21.4098  -29.3222   22.3685 N   0  0  0  0  0  0
  -26.4305  -37.3798   23.9374 N   0  0  0  0  0  0
  -24.6644  -31.0845   22.0956 N   0  0  0  0  0  0
  -23.4003  -28.8316   23.3066 O   0  0  0  0  0  0
  -28.5290  -26.8221   20.0987 O   0  0  0  0  0  0
  -26.5588  -34.8922   22.4690 O   0  0  0  0  0  0
  -23.5258  -32.1466   23.7469 O   0  0  0  0  0  0
  -30.8297  -20.7727   22.3119 C   0  0  0  0  0  0
  -26.1954  -21.7099   19.3040 C   0  0  0  0  0  0
  -27.6425  -21.1878   19.3458 C   0  0  0  0  0  0
  -26.3402  -23.1712   19.7330 C   0  0  0  0  0  0
  -28.3343  -21.9803   20.4801 C   0  0  2  0  0  0
  -28.5662  -25.0626   18.3236 C   0  0  0  0  0  0
  -28.3463  -21.1407   21.7889 C   0  0  0  0  0  0
  -30.3767  -16.8118   21.2519 C   0  0  0  0  0  0
  -28.1624  -24.5076   20.9632 C   0  0  0  0  0  0
  -29.1994  -17.7830   20.9844 C   0  0  0  0  0  0
  -29.4940  -20.1021   21.9728 C   0  0  1  0  0  0
  -28.7252  -25.4172   19.8189 C   0  0  2  0  0  0
  -31.3367  -20.5150   23.5135 N   0  0  0  0  0  0
  -30.0015  -15.3975   21.2020 N   0  0  0  0  0  0
  -27.5017  -23.1996   20.6545 N   0  3  1  0  0  0
  -29.7015  -19.1716   20.8368 N   0  3  0  0  0  0
  -31.4117  -21.4837   21.4954 O   0  0  0  0  0  0
  -31.4746  -12.4182   19.0595 H   0  0  0  0  0  0
  -30.3859  -11.2685   19.7841 H   0  0  0  0  0  0
  -29.7165  -11.6911   17.4394 H   0  0  0  0  0  0
  -29.6658  -13.4212   17.7115 H   0  0  0  0  0  0
  -27.8342  -11.2745   18.8368 H   0  0  0  0  0  0
  -27.3578  -12.5845   17.7968 H   0  0  0  0  0  0
  -27.7272  -14.2336   19.5844 H   0  0  0  0  0  0
  -28.7035  -11.9066   21.3286 H   0  0  0  0  0  0
  -28.4838  -13.5395   21.8765 H   0  0  0  0  0  0
  -25.2686   -9.5726   22.4774 H   0  0  0  0  0  0
  -23.9961   -7.4661   22.7499 H   0  0  0  0  0  0
  -21.0790   -8.8784   19.8949 H   0  0  0  0  0  0
  -22.3669  -10.9669   19.6180 H   0  0  0  0  0  0
  -21.1965   -7.6108   23.9715 H   0  0  0  0  0  0
  -21.1460   -6.0486   25.9069 H   0  0  0  0  0  0
  -22.0604   -2.7588   23.2896 H   0  0  0  0  0  0
  -22.3971  -12.0016   22.4823 H   0  0  0  0  0  0
  -21.1026  -13.1418   22.2408 H   0  0  0  0  0  0
  -24.6815  -15.8438   20.5501 H   0  0  0  0  0  0
  -26.2877  -15.6215   20.0681 H   0  0  0  0  0  0
  -26.7103  -32.5604   23.1226 H   0  0  0  0  0  0
  -25.0018  -33.9808   25.0490 H   0  0  0  0  0  0
  -22.6977  -31.3002   21.3712 H   0  0  0  0  0  0
  -23.3734  -35.9709   23.3320 H   0  0  0  0  0  0
  -24.3599  -36.8930   22.2046 H   0  0  0  0  0  0
  -23.7295  -37.6566   23.6666 H   0  0  0  0  0  0
  -26.0375  -31.6100   20.5987 H   0  0  0  0  0  0
  -26.8151  -30.9057   21.9912 H   0  0  0  0  0  0
  -28.1241  -29.1585   21.1651 H   0  0  0  0  0  0
  -26.0946  -25.9410   19.1385 H   0  0  0  0  0  0
  -24.0234  -27.2154   19.1302 H   0  0  0  0  0  0
  -23.7828  -30.5668   19.3956 H   0  0  0  0  0  0
  -22.7710  -29.2140   19.8461 H   0  0  0  0  0  0
  -25.1303  -36.1988   25.0848 H   0  0  0  0  0  0
  -20.9852  -28.3487   24.1365 H   0  0  0  0  0  0
  -20.6143  -26.2515   23.3709 H   0  0  0  0  0  0
  -21.6584  -26.7799   22.0900 H   0  0  0  0  0  0
  -19.6827  -25.5655   21.2265 H   0  0  0  0  0  0
  -19.6461  -27.2234   20.6637 H   0  0  0  0  0  0
  -17.4117  -26.6430   21.4425 H   0  0  0  0  0  0
  -18.0287  -26.0088   22.9553 H   0  0  0  0  0  0
  -19.7889  -30.7395   24.2000 H   0  0  0  0  0  0
  -17.4956  -31.6375   24.4726 H   0  0  0  0  0  0
  -15.5310  -30.2943   23.7522 H   0  0  0  0  0  0
  -15.8681  -28.0577   22.7425 H   0  0  0  0  0  0
  -24.5952  -30.7018   25.7800 H   0  0  0  0  0  0
  -24.8975  -32.2826   26.4919 H   0  0  0  0  0  0
  -25.8145  -30.8835   27.0199 H   0  0  0  0  0  0
  -26.2823  -29.6712   24.1268 H   0  0  0  0  0  0
  -27.4190  -29.7286   25.4513 H   0  0  0  0  0  0
  -27.8623  -30.4252   23.9152 H   0  0  0  0  0  0
  -27.2590  -33.3620   26.2081 H   0  0  0  0  0  0
  -28.3817  -32.6969   25.0279 H   0  0  0  0  0  0
  -28.0777  -31.8480   26.5326 H   0  0  0  0  0  0
  -28.2596  -38.0133   24.7493 H   0  0  0  0  0  0
  -28.1095  -36.2629   24.6311 H   0  0  0  0  0  0
  -27.2297  -37.1550   25.8867 H   0  0  0  0  0  0
  -20.9298  -29.9029   21.6937 H   0  0  0  0  0  0
  -26.0181  -38.2881   24.1357 H   0  0  0  0  0  0
  -25.5537  -21.1624   19.9971 H   0  0  0  0  0  0
  -25.7422  -21.6140   18.3121 H   0  0  0  0  0  0
  -28.1266  -21.3962   18.3918 H   0  0  0  0  0  0
  -27.6725  -20.1065   19.4784 H   0  0  0  0  0  0
  -25.4489  -23.5545   20.2209 H   0  0  0  0  0  0
  -26.4696  -23.7649   18.8352 H   0  0  0  0  0  0
  -29.3487  -22.2445   20.1886 H   0  0  0  0  0  0
  -28.6123  -23.9906   18.1478 H   0  0  0  0  0  0
  -29.3818  -25.5045   17.7454 H   0  0  0  0  0  0
  -27.6541  -25.4327   17.8656 H   0  0  0  0  0  0
  -27.3978  -20.6104   21.8706 H   0  0  0  0  0  0
  -28.3424  -21.8124   22.6556 H   0  0  0  0  0  0
  -31.1626  -17.0242   20.5262 H   0  0  0  0  0  0
  -30.8066  -16.9849   22.2409 H   0  0  0  0  0  0
  -28.9618  -24.3209   21.6945 H   0  0  0  0  0  0
  -27.4316  -25.0912   21.5193 H   0  0  0  0  0  0
  -28.6884  -17.5114   20.0589 H   0  0  0  0  0  0
  -28.4262  -17.7120   21.7516 H   0  0  0  0  0  0
  -29.2407  -19.5233   22.8616 H   0  0  0  0  0  0
  -29.8052  -25.3061   19.9261 H   0  0  0  0  0  0
  -30.8254  -19.9327   24.1641 H   0  0  0  0  0  0
  -32.2278  -20.8864   23.8131 H   0  0  0  0  0  0
  -29.1429  -15.1093   21.6521 H   0  0  0  0  0  0
  -27.0662  -22.9856   21.5361 H   0  0  0  0  0  0
  -30.7027  -19.0847   20.7595 H   0  0  0  0  0  0
  -29.3969  -19.5755   19.9651 H   0  0  0  0  0  0
  1 25  1  0  0  0
  1 30  2  0  0  0
  1 84  1  0  0  0
  2  3  1  0  0  0
  2 25  1  0  0  0
  2 88  1  0  0  0
  2 89  1  0  0  0
  3  4  1  0  0  0
  3 90  1  0  0  0
  3 91  1  0  0  0
  4  5  1  0  0  0
  4 92  1  0  0  0
  4 93  1  0  0  0
  5  6  1  0  0  0
  5 26  1  0  0  0
  5 94  1  0  0  0
  6 25  1  0  0  0
  6 95  1  0  0  0
  6 96  1  0  0  0
  7  8  2  0  0  0
  7 26  1  0  0  0
  7 29  1  0  0  0
  8  9  1  0  0  0
  8 22  1  0  0  0
  9 10  1  0  0  0
  9 27  2  0  0  0
 10 11  2  0  0  0
 10 15  1  0  0  0
 11 12  1  0  0  0
 11 97  1  0  0  0
 12 13  2  0  0  0
 12 98  1  0  0  0
 13 14  1  0  0  0
 13 31  1  0  0  0
 14 15  2  0  0  0
 14 99  1  0  0  0
 15100  1  0  0  0
 16 17  2  0  0  0
 16 21  1  0  0  0
 16 31  1  0  0  0
 17 18  1  0  0  0
 17101  1  0  0  0
 18 19  2  0  0  0
 18102  1  0  0  0
 19 20  1  0  0  0
 19 24  1  0  0  0
 20 21  2  0  0  0
 20103  1  0  0  0
 21 23  1  0  0  0
 22 28  1  0  0  0
 22 32  2  0  0  0
 26 27  1  0  0  0
 28104  1  0  0  0
 28105  1  0  0  0
 29106  1  0  0  0
 29107  1  0  0  0
 33 34  1  0  0  0
 33 66  1  0  0  0
 33 70  2  0  0  0
 34 36  1  0  0  0
 34 59  1  0  0  0
 34108  1  0  0  0
 35 44  2  0  0  0
 35 45  1  0  0  0
 35 68  1  0  0  0
 36 56  1  0  0  0
 36109  1  0  0  0
 37 39  1  0  0  0
 37 47  1  0  0  0
 37 66  1  0  0  0
 37110  1  0  0  0
 38 43  2  0  0  0
 38 46  1  0  0  0
 38 47  1  0  0  0
 39 64  1  0  0  0
 39 67  2  0  0  0
 40 52  1  0  0  0
 40 53  2  0  0  0
 40 58  1  0  0  0
 41111  1  0  0  0
 41112  1  0  0  0
 41113  1  0  0  0
 41 48  1  0  0  0
 42 43  1  0  0  0
 42 66  1  0  0  0
 42114  1  0  0  0
 42115  1  0  0  0
 43 44  1  0  0  0
 44116  1  0  0  0
 45 46  2  0  0  0
 45117  1  0  0  0
 46118  1  0  0  0
 47119  1  0  0  0
 47120  1  0  0  0
 48 56  1  0  0  0
 48 65  1  0  0  0
 48121  1  0  0  0
 49 50  1  0  0  0
 49 53  1  0  0  0
 49 64  1  0  0  0
 49122  1  0  0  0
 50 51  1  0  0  0
 50123  1  0  0  0
 50124  1  0  0  0
 51 52  1  0  0  0
 51125  1  0  0  0
 51126  1  0  0  0
 52127  1  0  0  0
 52128  1  0  0  0
 53 54  1  0  0  0
 54 55  2  0  0  0
 54129  1  0  0  0
 55 57  1  0  0  0
 55130  1  0  0  0
 56 69  2  0  0  0
 57 58  2  0  0  0
 57131  1  0  0  0
 58132  1  0  0  0
 59 60  1  0  0  0
 59 61  1  0  0  0
 59 62  1  0  0  0
 60133  1  0  0  0
 60134  1  0  0  0
 60135  1  0  0  0
 61136  1  0  0  0
 61137  1  0  0  0
 61138  1  0  0  0
 62139  1  0  0  0
 62140  1  0  0  0
 62141  1  0  0  0
 63 65  1  0  0  0
 63142  1  0  0  0
 63143  1  0  0  0
 63144  1  0  0  0
 64145  1  0  0  0
 65146  1  0  0  0
 68 82  1  0  0  0
 71 81  1  0  0  0
 71 83  1  0  0  0
 71 87  2  0  0  0
 72 73  1  0  0  0
 72 74  1  0  0  0
 72147  1  0  0  0
 72148  1  0  0  0
 73 75  1  0  0  0
 73149  1  0  0  0
 73150  1  0  0  0
 74 85  1  0  0  0
 74151  1  0  0  0
 74152  1  0  0  0
 75 77  1  0  0  0
 75 85  1  0  0  0
 75153  1  0  0  0
 76154  1  0  0  0
 76155  1  0  0  0
 76156  1  0  0  0
 76 82  1  0  0  0
 77157  1  0  0  0
 77158  1  0  0  0
 77 81  1  0  0  0
 78 80  1  0  0  0
 78 84  1  0  0  0
 78159  1  0  0  0
 78160  1  0  0  0
 79 82  1  0  0  0
 79161  1  0  0  0
 79162  1  0  0  0
 79 85  1  0  0  0
 80 86  1  0  0  0
 80163  1  0  0  0
 80164  1  0  0  0
 81 86  1  0  0  0
 81165  1  0  0  0
 82166  1  0  0  0
 83167  1  0  0  0
 83168  1  0  0  0
 84169  1  0  0  0
 85170  1  0  0  0
 86171  1  0  0  0
 86172  1  0  0  0
M  CHG  2  85   1  86   1
M  ISO  4   1 100  68 101  82 101  84 100
M  END
> <chiral flag>
0

> <version>
0

> <s_m_source_file>
/data/baiqing/PycharmProjects/Reinvent-master-3.2/result/LINK_invent/BTK/process_docking_weight1_custom_sum_contain_oxygen_bond_distance_aromatic_linkinvent_7_9_3/rearranged_h_0116.sdf

> <i_m_source_file_index>
80

> <r_mmod_Potential_Energy-OPLS-2005>
-417.672760009766

> <r_mmod_Stretch_Energy-OPLS-2005>
40.2588691711426

> <r_mmod_Bend_Energy-OPLS-2005>
187.180145263672

> <r_mmod_Torsional_Energy-OPLS-2005>
310.050872802734

> <r_mmod_Improper_Torsional_Energy-OPLS-2005>
2.93506693840027

> <r_mmod_Van_der_Waal_Energy-OPLS-2005>
128.309448242188

> <r_mmod_Electrostatic_Energy-OPLS-2005>
-121.683807373047

> <r_mmod_Solvation_Energy-OPLS-2005>
-979.213745117188

> <b_mmod_Minimization_Converged-OPLS-2005>
0

> <r_mmod_RMS_Derivative-OPLS-2005>
11.265172958374

$$$$
81
                    3D
 Structure written by MMmdl.
179187  0  0  1  0            999 V2000
  -30.6188  -14.5047   20.5379 C   0  0  0  0  0  0
  -30.4476  -12.3063   19.4352 C   0  0  0  0  0  0
  -29.5024  -12.4701   18.2217 C   0  0  0  0  0  0
  -28.0233  -12.3463   18.6468 C   0  0  0  0  0  0
  -27.6725  -13.1893   19.8967 C   0  0  2  0  0  0
  -28.7176  -12.9390   21.0066 C   0  0  0  0  0  0
  -25.2699  -13.8091   20.5772 C   0  0  0  0  0  0
  -24.1926  -13.0380   20.9256 C   0  0  0  0  0  0
  -24.6424  -11.6860   20.8796 C   0  0  0  0  0  0
  -23.9039  -10.4258   21.0436 C   0  0  0  0  0  0
  -24.3574   -9.4159   21.9222 C   0  0  0  0  0  0
  -23.6252   -8.2170   22.0717 C   0  0  0  0  0  0
  -22.4230   -8.0245   21.3514 C   0  0  0  0  0  0
  -21.9898   -9.0215   20.4608 C   0  0  0  0  0  0
  -22.7212  -10.2120   20.3073 C   0  0  0  0  0  0
  -21.6845   -6.0714   22.5274 C   0  0  0  0  0  0
  -21.4000   -6.5607   23.8220 C   0  0  0  0  0  0
  -21.3675   -5.6736   24.9169 C   0  0  0  0  0  0
  -21.6078   -4.3013   24.7205 C   0  0  0  0  0  0
  -21.8840   -3.8137   23.4317 C   0  0  0  0  0  0
  -21.9208   -4.6953   22.3381 C   0  0  0  0  0  0
  -22.7980  -13.5236   21.1870 C   0  0  0  0  0  0
  -22.1720   -4.2136   21.0961 F   0  0  0  0  0  0
  -21.5645   -3.4504   25.7717 F   0  0  0  0  0  0
  -30.0352  -13.2794   20.4528 N   0  0  0  0  0  0
  -26.3105  -12.9233   20.3551 N   0  0  0  0  0  0
  -25.9356  -11.6407   20.5865 N   0  0  0  0  0  0
  -22.0565  -12.8208   22.0388 N   0  0  0  0  0  0
  -25.4304  -15.1756   20.4029 N   0  0  0  0  0  0
  -31.7653  -14.7370   20.1467 O   0  0  0  0  0  0
  -21.6607   -6.8844   21.4216 O   0  0  0  0  0  0
  -22.3761  -14.5573   20.6725 O   0  0  0  0  0  0
  -24.6030  -31.8788   23.2178 C   0  0  0  0  0  0
  -25.8997  -32.4846   23.8428 C   0  0  1  0  0  0
  -27.2189  -27.5210   20.0250 C   0  0  0  0  0  0
  -25.5940  -33.8664   24.2386 N   0  0  0  0  0  0
  -23.3780  -30.5006   21.5660 C   0  0  2  0  0  0
  -24.8191  -28.9759   20.1133 C   0  0  0  0  0  0
  -22.7318  -29.4732   22.5177 C   0  0  0  0  0  0
  -18.0225  -28.1363   22.8474 C   0  0  0  0  0  0
  -24.1493  -36.7314   23.2642 C   0  0  0  0  0  0
  -25.8963  -30.8573   21.3572 C   0  0  0  0  0  0
  -25.9748  -29.4943   20.7127 C   0  0  0  0  0  0
  -27.1786  -28.7697   20.6787 C   0  0  0  0  0  0
  -26.0627  -27.0182   19.3980 C   0  0  0  0  0  0
  -24.8525  -27.7323   19.4604 C   0  0  0  0  0  0
  -23.5734  -29.8292   20.1794 C   0  0  0  0  0  0
  -25.4113  -36.3115   24.0341 C   0  0  1  0  0  0
  -20.5806  -28.3624   23.1397 C   0  0  2  0  0  0
  -20.6731  -26.9395   22.5433 C   0  0  0  0  0  0
  -19.5745  -26.6377   21.5199 C   0  0  0  0  0  0
  -18.1904  -26.7907   22.1591 C   0  0  0  0  0  0
  -19.1475  -28.8813   23.2917 C   0  0  0  0  0  0
  -18.9420  -30.1421   23.8919 C   0  0  0  0  0  0
  -17.6439  -30.6579   24.0550 C   0  0  0  0  0  0
  -25.9042  -34.9480   23.5139 C   0  0  0  0  0  0
  -16.5322  -29.9086   23.6331 C   0  0  0  0  0  0
  -16.7213  -28.6499   23.0347 C   0  0  0  0  0  0
  -26.4470  -31.6564   25.0692 C   0  0  0  0  0  0
  -25.3809  -31.3678   26.1500 C   0  0  0  0  0  0
  -27.0232  -30.3011   24.5962 C   0  0  0  0  0  0
  -27.6112  -32.4220   25.7385 C   0  0  0  0  0  0
  -27.5570  -37.1829   24.8489 C   0  0  0  0  0  0
  -21.4079  -29.3031   22.3878 N   0  0  0  0  0  0
  -26.4299  -37.3787   23.9397 N   0  0  0  0  0  0
  -24.6441  -31.0912   22.1068 N   0  0  0  0  0  0
  -23.4145  -28.8369   23.3250 O   0  0  0  0  0  0
  -28.3762  -26.8023   19.9379 O   0  0  0  0  0  0
  -26.5541  -34.8912   22.4668 O   0  0  0  0  0  0
  -23.5264  -32.1596   23.7627 O   0  0  0  0  0  0
  -27.1533  -24.5955   21.7143 C   0  0  0  0  0  0
  -29.1560  -24.1088   20.2273 C   0  0  0  0  0  0
  -26.8052  -23.0823   21.7463 C   0  0  0  0  0  0
  -28.9069  -22.6248   20.4134 C   0  0  0  0  0  0
  -28.6476  -24.9148   21.4257 C   0  0  1  0  0  0
  -27.4041  -22.3264   20.5254 C   0  0  1  0  0  0
  -29.7911  -17.3240   19.2198 C   0  0  0  0  0  0
  -25.8744  -21.0903   17.4710 C   0  0  0  0  0  0
  -24.9242  -18.8503   18.1506 C   0  0  0  0  0  0
  -28.9468  -26.4142   21.1771 C   0  0  0  0  0  0
  -27.6815  -19.9453   21.6760 C   0  0  0  0  0  0
  -28.7553  -17.6705   21.5371 C   0  0  0  0  0  0
  -27.2421  -20.7790   20.4376 C   0  0  1  0  0  0
  -29.8618  -16.9349   20.7145 C   0  0  1  0  0  0
  -26.0033  -19.9000   18.4418 C   0  0  0  0  0  0
  -29.7398  -15.4784   20.8687 N   0  0  0  0  0  0
  -28.8182  -19.1078   21.2764 N   0  0  0  0  0  0
  -25.9610  -20.3025   19.8749 N   0  3  0  0  0  0
  -31.4874  -12.4396   19.1374 H   0  0  0  0  0  0
  -30.3892  -11.2966   19.8466 H   0  0  0  0  0  0
  -29.7366  -11.7219   17.4644 H   0  0  0  0  0  0
  -29.6708  -13.4417   17.7555 H   0  0  0  0  0  0
  -27.8444  -11.2951   18.8698 H   0  0  0  0  0  0
  -27.3526  -12.6111   17.8277 H   0  0  0  0  0  0
  -27.7224  -14.2359   19.5995 H   0  0  0  0  0  0
  -28.7197  -11.8849   21.2927 H   0  0  0  0  0  0
  -28.4983  -13.4910   21.9225 H   0  0  0  0  0  0
  -25.2671   -9.5614   22.4899 H   0  0  0  0  0  0
  -23.9957   -7.4522   22.7406 H   0  0  0  0  0  0
  -21.0837   -8.8695   19.8904 H   0  0  0  0  0  0
  -22.3610  -10.9672   19.6229 H   0  0  0  0  0  0
  -21.1969   -7.6122   23.9706 H   0  0  0  0  0  0
  -21.1515   -6.0470   25.9063 H   0  0  0  0  0  0
  -22.0616   -2.7601   23.2783 H   0  0  0  0  0  0
  -22.4149  -11.9792   22.4648 H   0  0  0  0  0  0
  -21.1273  -13.1404   22.2721 H   0  0  0  0  0  0
  -24.5776  -15.7207   20.3310 H   0  0  0  0  0  0
  -26.1763  -15.5334   19.8231 H   0  0  0  0  0  0
  -26.7060  -32.5577   23.1194 H   0  0  0  0  0  0
  -25.0184  -33.9841   25.0587 H   0  0  0  0  0  0
  -22.6605  -31.3139   21.4379 H   0  0  0  0  0  0
  -23.3772  -35.9631   23.3275 H   0  0  0  0  0  0
  -24.3634  -36.8964   22.2072 H   0  0  0  0  0  0
  -23.7188  -37.6490   23.6677 H   0  0  0  0  0  0
  -25.9658  -31.6160   20.5782 H   0  0  0  0  0  0
  -26.7995  -30.9337   21.9513 H   0  0  0  0  0  0
  -28.0776  -29.1783   21.1230 H   0  0  0  0  0  0
  -26.1014  -26.0827   18.8575 H   0  0  0  0  0  0
  -23.9626  -27.3438   18.9822 H   0  0  0  0  0  0
  -23.6539  -30.6003   19.4110 H   0  0  0  0  0  0
  -22.7004  -29.2373   19.8958 H   0  0  0  0  0  0
  -25.1293  -36.1992   25.0828 H   0  0  0  0  0  0
  -20.9806  -28.3104   24.1568 H   0  0  0  0  0  0
  -20.5635  -26.2233   23.3590 H   0  0  0  0  0  0
  -21.6605  -26.7498   22.1246 H   0  0  0  0  0  0
  -19.6920  -25.6298   21.1231 H   0  0  0  0  0  0
  -19.6668  -27.3189   20.6730 H   0  0  0  0  0  0
  -17.4180  -26.6638   21.3977 H   0  0  0  0  0  0
  -18.0316  -26.0032   22.8976 H   0  0  0  0  0  0
  -19.7906  -30.7191   24.2324 H   0  0  0  0  0  0
  -17.5004  -31.6271   24.5145 H   0  0  0  0  0  0
  -15.5326  -30.3006   23.7644 H   0  0  0  0  0  0
  -15.8601  -28.0803   22.7116 H   0  0  0  0  0  0
  -24.5809  -30.7245   25.7819 H   0  0  0  0  0  0
  -24.9219  -32.2861   26.5171 H   0  0  0  0  0  0
  -25.8171  -30.8595   27.0108 H   0  0  0  0  0  0
  -26.2684  -29.6769   24.1160 H   0  0  0  0  0  0
  -27.4202  -29.7235   25.4318 H   0  0  0  0  0  0
  -27.8450  -30.4342   23.8926 H   0  0  0  0  0  0
  -27.2850  -33.3600   26.1888 H   0  0  0  0  0  0
  -28.3929  -32.6630   25.0167 H   0  0  0  0  0  0
  -28.0742  -31.8355   26.5327 H   0  0  0  0  0  0
  -28.2652  -38.0057   24.7434 H   0  0  0  0  0  0
  -28.0991  -36.2588   24.6438 H   0  0  0  0  0  0
  -27.2299  -37.1628   25.8899 H   0  0  0  0  0  0
  -20.9279  -29.8732   21.7077 H   0  0  0  0  0  0
  -26.0206  -38.2889   24.1343 H   0  0  0  0  0  0
  -26.8602  -25.0512   22.6628 H   0  0  0  0  0  0
  -26.5344  -25.0591   20.9544 H   0  0  0  0  0  0
  -28.6805  -24.4511   19.3046 H   0  0  0  0  0  0
  -30.2262  -24.2585   20.1142 H   0  0  0  0  0  0
  -25.7199  -22.9820   21.7440 H   0  0  0  0  0  0
  -27.1244  -22.6676   22.7017 H   0  0  0  0  0  0
  -29.4195  -22.2587   21.3037 H   0  0  0  0  0  0
  -29.3622  -22.1033   19.5679 H   0  0  0  0  0  0
  -29.2302  -24.5926   22.2907 H   0  0  0  0  0  0
  -26.9389  -22.7669   19.6425 H   0  0  0  0  0  0
  -29.9355  -18.3974   19.0825 H   0  0  0  0  0  0
  -28.8279  -17.0642   18.7767 H   0  0  0  0  0  0
  -30.5741  -16.8403   18.6389 H   0  0  0  0  0  0
  -26.0291  -20.7524   16.4451 H   0  0  0  0  0  0
  -26.6112  -21.8732   17.6474 H   0  0  0  0  0  0
  -24.8836  -21.5426   17.5232 H   0  0  0  0  0  0
  -24.9730  -18.5215   17.1116 H   0  0  0  0  0  0
  -23.9262  -19.2524   18.3312 H   0  0  0  0  0  0
  -25.0555  -17.9645   18.7729 H   0  0  0  0  0  0
  -30.0200  -26.5727   21.0618 H   0  0  0  0  0  0
  -28.6305  -27.0484   22.0074 H   0  0  0  0  0  0
  -26.8540  -19.3509   22.0752 H   0  0  0  0  0  0
  -27.9994  -20.6078   22.4835 H   0  0  0  0  0  0
  -28.8851  -17.5081   22.6091 H   0  0  0  0  0  0
  -27.7660  -17.2984   21.2714 H   0  0  0  0  0  0
  -27.9566  -20.5170   19.6605 H   0  0  0  0  0  0
  -30.8427  -17.2176   21.0987 H   0  0  0  0  0  0
  -26.9550  -19.4012   18.2405 H   0  0  0  0  0  0
  -28.8180  -15.1356   21.0839 H   0  0  0  0  0  0
  -29.6985  -19.5146   21.5774 H   0  0  0  0  0  0
  -25.2016  -20.9319   20.0768 H   0  0  0  0  0  0
  -25.7797  -19.4499   20.3774 H   0  0  0  0  0  0
  1 25  1  0  0  0
  1 30  2  0  0  0
  1 86  1  0  0  0
  2  3  1  0  0  0
  2 25  1  0  0  0
  2 89  1  0  0  0
  2 90  1  0  0  0
  3  4  1  0  0  0
  3 91  1  0  0  0
  3 92  1  0  0  0
  4  5  1  0  0  0
  4 93  1  0  0  0
  4 94  1  0  0  0
  5  6  1  0  0  0
  5 26  1  0  0  0
  5 95  1  0  0  0
  6 25  1  0  0  0
  6 96  1  0  0  0
  6 97  1  0  0  0
  7  8  2  0  0  0
  7 26  1  0  0  0
  7 29  1  0  0  0
  8  9  1  0  0  0
  8 22  1  0  0  0
  9 10  1  0  0  0
  9 27  2  0  0  0
 10 11  2  0  0  0
 10 15  1  0  0  0
 11 12  1  0  0  0
 11 98  1  0  0  0
 12 13  2  0  0  0
 12 99  1  0  0  0
 13 14  1  0  0  0
 13 31  1  0  0  0
 14 15  2  0  0  0
 14100  1  0  0  0
 15101  1  0  0  0
 16 17  2  0  0  0
 16 21  1  0  0  0
 16 31  1  0  0  0
 17 18  1  0  0  0
 17102  1  0  0  0
 18 19  2  0  0  0
 18103  1  0  0  0
 19 20  1  0  0  0
 19 24  1  0  0  0
 20 21  2  0  0  0
 20104  1  0  0  0
 21 23  1  0  0  0
 22 28  1  0  0  0
 22 32  2  0  0  0
 26 27  1  0  0  0
 28105  1  0  0  0
 28106  1  0  0  0
 29107  1  0  0  0
 29108  1  0  0  0
 33 34  1  0  0  0
 33 66  1  0  0  0
 33 70  2  0  0  0
 34 36  1  0  0  0
 34 59  1  0  0  0
 34109  1  0  0  0
 35 44  2  0  0  0
 35 45  1  0  0  0
 35 68  1  0  0  0
 36 56  1  0  0  0
 36110  1  0  0  0
 37 39  1  0  0  0
 37 47  1  0  0  0
 37 66  1  0  0  0
 37111  1  0  0  0
 38 43  2  0  0  0
 38 46  1  0  0  0
 38 47  1  0  0  0
 39 64  1  0  0  0
 39 67  2  0  0  0
 40 52  1  0  0  0
 40 53  2  0  0  0
 40 58  1  0  0  0
 41112  1  0  0  0
 41113  1  0  0  0
 41114  1  0  0  0
 41 48  1  0  0  0
 42 43  1  0  0  0
 42 66  1  0  0  0
 42115  1  0  0  0
 42116  1  0  0  0
 43 44  1  0  0  0
 44117  1  0  0  0
 45 46  2  0  0  0
 45118  1  0  0  0
 46119  1  0  0  0
 47120  1  0  0  0
 47121  1  0  0  0
 48 56  1  0  0  0
 48 65  1  0  0  0
 48122  1  0  0  0
 49 50  1  0  0  0
 49 53  1  0  0  0
 49 64  1  0  0  0
 49123  1  0  0  0
 50 51  1  0  0  0
 50124  1  0  0  0
 50125  1  0  0  0
 51 52  1  0  0  0
 51126  1  0  0  0
 51127  1  0  0  0
 52128  1  0  0  0
 52129  1  0  0  0
 53 54  1  0  0  0
 54 55  2  0  0  0
 54130  1  0  0  0
 55 57  1  0  0  0
 55131  1  0  0  0
 56 69  2  0  0  0
 57 58  2  0  0  0
 57132  1  0  0  0
 58133  1  0  0  0
 59 60  1  0  0  0
 59 61  1  0  0  0
 59 62  1  0  0  0
 60134  1  0  0  0
 60135  1  0  0  0
 60136  1  0  0  0
 61137  1  0  0  0
 61138  1  0  0  0
 61139  1  0  0  0
 62140  1  0  0  0
 62141  1  0  0  0
 62142  1  0  0  0
 63 65  1  0  0  0
 63143  1  0  0  0
 63144  1  0  0  0
 63145  1  0  0  0
 64146  1  0  0  0
 65147  1  0  0  0
 68 80  1  0  0  0
 71 73  1  0  0  0
 71 75  1  0  0  0
 71148  1  0  0  0
 71149  1  0  0  0
 72 74  1  0  0  0
 72 75  1  0  0  0
 72150  1  0  0  0
 72151  1  0  0  0
 73152  1  0  0  0
 73153  1  0  0  0
 73 76  1  0  0  0
 74 76  1  0  0  0
 74154  1  0  0  0
 74155  1  0  0  0
 75 80  1  0  0  0
 75156  1  0  0  0
 76 83  1  0  0  0
 76157  1  0  0  0
 77158  1  0  0  0
 77159  1  0  0  0
 77160  1  0  0  0
 77 84  1  0  0  0
 78161  1  0  0  0
 78162  1  0  0  0
 78163  1  0  0  0
 78 85  1  0  0  0
 79 85  1  0  0  0
 79164  1  0  0  0
 79165  1  0  0  0
 79166  1  0  0  0
 80167  1  0  0  0
 80168  1  0  0  0
 81 87  1  0  0  0
 81169  1  0  0  0
 81170  1  0  0  0
 81 83  1  0  0  0
 82 84  1  0  0  0
 82 87  1  0  0  0
 82171  1  0  0  0
 82172  1  0  0  0
 83 88  1  0  0  0
 83173  1  0  0  0
 84 86  1  0  0  0
 84174  1  0  0  0
 85 88  1  0  0  0
 85175  1  0  0  0
 86176  1  0  0  0
 87177  1  0  0  0
 88178  1  0  0  0
 88179  1  0  0  0
M  CHG  1  88   1
M  ISO  4   1 100  68 101  80 101  86 100
M  END
> <chiral flag>
0

> <version>
0

> <s_m_source_file>
/data/baiqing/PycharmProjects/Reinvent-master-3.2/result/LINK_invent/BTK/process_docking_weight1_custom_sum_contain_oxygen_bond_distance_aromatic_linkinvent_7_9_3/rearranged_h_0116.sdf

> <i_m_source_file_index>
81

> <r_mmod_Potential_Energy-OPLS-2005>
-86.5466079711914

> <r_mmod_Stretch_Energy-OPLS-2005>
36.3524703979492

> <r_mmod_Bend_Energy-OPLS-2005>
124.387054443359

> <r_mmod_Torsional_Energy-OPLS-2005>
296.971954345703

> <r_mmod_Improper_Torsional_Energy-OPLS-2005>
9.08343410491943

> <r_mmod_Van_der_Waal_Energy-OPLS-2005>
146.134948730469

> <r_mmod_Electrostatic_Energy-OPLS-2005>
-288.457244873047

> <r_mmod_Solvation_Energy-OPLS-2005>
-430.729339599609

> <b_mmod_Minimization_Converged-OPLS-2005>
0

> <r_mmod_RMS_Derivative-OPLS-2005>
8.11378955841064

$$$$
82
                    3D
 Structure written by MMmdl.
162170  0  0  1  0            999 V2000
  -30.5871  -14.5693   20.5233 C   0  0  0  0  0  0
  -30.4382  -12.3338   19.4903 C   0  0  0  0  0  0
  -29.5165  -12.4833   18.2454 C   0  0  0  0  0  0
  -28.0130  -12.3351   18.6167 C   0  0  0  0  0  0
  -27.6286  -13.1893   19.8575 C   0  0  2  0  0  0
  -28.6627  -13.0073   20.9916 C   0  0  0  0  0  0
  -25.2352  -13.7942   20.5703 C   0  0  0  0  0  0
  -24.1545  -13.0113   20.9142 C   0  0  0  0  0  0
  -24.6203  -11.6693   20.8798 C   0  0  0  0  0  0
  -23.8948  -10.4055   21.0424 C   0  0  0  0  0  0
  -24.3528   -9.4079   21.9251 C   0  0  0  0  0  0
  -23.6239   -8.2134   22.0780 C   0  0  0  0  0  0
  -22.4240   -8.0195   21.3538 C   0  0  0  0  0  0
  -21.9815   -9.0149   20.4658 C   0  0  0  0  0  0
  -22.7108  -10.2028   20.3087 C   0  0  0  0  0  0
  -21.6808   -6.0712   22.5293 C   0  0  0  0  0  0
  -21.3981   -6.5631   23.8219 C   0  0  0  0  0  0
  -21.3656   -5.6792   24.9187 C   0  0  0  0  0  0
  -21.6029   -4.3045   24.7228 C   0  0  0  0  0  0
  -21.8831   -3.8141   23.4342 C   0  0  0  0  0  0
  -21.9169   -4.6961   22.3404 C   0  0  0  0  0  0
  -22.7695  -13.5155   21.1898 C   0  0  0  0  0  0
  -22.1655   -4.2142   21.0986 F   0  0  0  0  0  0
  -21.5633   -3.4531   25.7750 F   0  0  0  0  0  0
  -29.9877  -13.3493   20.4462 N   0  0  0  0  0  0
  -26.2762  -12.9120   20.3290 N   0  0  0  0  0  0
  -25.9064  -11.6279   20.5712 N   0  0  0  0  0  0
  -22.0254  -12.8115   22.0486 N   0  0  0  0  0  0
  -25.3877  -15.1492   20.4156 N   0  0  0  0  0  0
  -31.7740  -14.7495   20.2570 O   0  0  0  0  0  0
  -21.6552   -6.8807   21.4240 O   0  0  0  0  0  0
  -22.3417  -14.5395   20.6690 O   0  0  0  0  0  0
  -24.6269  -31.8942   23.2779 C   0  0  0  0  0  0
  -25.9229  -32.4958   23.8825 C   0  0  1  0  0  0
  -27.1303  -27.4293   19.9538 C   0  0  0  0  0  0
  -25.6077  -33.8841   24.2599 N   0  0  0  0  0  0
  -23.3851  -30.5693   21.6342 C   0  0  2  0  0  0
  -24.7881  -29.0809   20.1561 C   0  0  0  0  0  0
  -22.7332  -29.5174   22.5732 C   0  0  0  0  0  0
  -17.9962  -28.0826   22.9035 C   0  0  0  0  0  0
  -24.1502  -36.7374   23.2646 C   0  0  0  0  0  0
  -25.9315  -30.8378   21.4437 C   0  0  0  0  0  0
  -25.9805  -29.4886   20.7596 C   0  0  0  0  0  0
  -27.1623  -28.6721   20.6769 C   0  0  0  0  0  0
  -25.9247  -27.1626   19.2669 C   0  0  0  0  0  0
  -24.7674  -27.9242   19.4194 C   0  0  0  0  0  0
  -23.5948  -30.0017   20.2188 C   0  0  0  0  0  0
  -25.4124  -36.3285   24.0321 C   0  0  1  0  0  0
  -20.5551  -28.3598   23.1057 C   0  0  2  0  0  0
  -20.7747  -27.1779   22.1544 C   0  0  0  0  0  0
  -19.5279  -26.4723   21.5896 C   0  0  0  0  0  0
  -18.1342  -26.7558   22.1888 C   0  0  0  0  0  0
  -19.1245  -28.8127   23.3506 C   0  0  0  0  0  0
  -18.9231  -30.0474   23.9957 C   0  0  0  0  0  0
  -17.6648  -30.6496   24.0815 C   0  0  0  0  0  0
  -25.9034  -34.9553   23.5253 C   0  0  0  0  0  0
  -16.5387  -29.9598   23.6501 C   0  0  0  0  0  0
  -16.7245  -28.6779   23.0472 C   0  0  0  0  0  0
  -26.4585  -31.6639   25.1007 C   0  0  0  0  0  0
  -25.3795  -31.3716   26.1647 C   0  0  0  0  0  0
  -27.0278  -30.3070   24.6266 C   0  0  0  0  0  0
  -27.6134  -32.4318   25.7661 C   0  0  0  0  0  0
  -27.5565  -37.1859   24.8458 C   0  0  0  0  0  0
  -21.3726  -29.4298   22.5386 N   0  0  0  0  0  0
  -26.4304  -37.3928   23.9383 N   0  0  0  0  0  0
  -24.6678  -31.0959   22.1761 N   0  0  0  0  0  0
  -23.4510  -28.7811   23.2740 O   0  0  0  0  0  0
  -28.2091  -26.5395   19.7665 O   0  0  0  0  0  0
  -26.5566  -34.8974   22.4831 O   0  0  0  0  0  0
  -23.5401  -32.1717   23.8185 O   0  0  0  0  0  0
  -25.5080  -21.3891   21.5077 C   0  0  0  0  0  0
  -25.2167  -22.5659   20.8032 C   0  0  0  0  0  0
  -25.0966  -20.2141   19.4597 C   0  0  0  0  0  0
  -25.5119  -20.1744   20.8228 C   0  0  0  0  0  0
  -24.9040  -22.4848   19.4393 C   0  0  0  0  0  0
  -26.1408  -18.8903   21.4048 C   0  0  0  0  0  0
  -27.3085  -24.6846   17.9867 C   0  0  0  0  0  0
  -29.3743  -16.9919   20.5486 C   0  0  0  0  0  0
  -27.8557  -17.1736   20.7041 C   0  0  0  0  0  0
  -27.8110  -25.1470   19.4550 C   0  0  0  0  0  0
  -26.3253  -23.4786   17.9695 C   0  0  0  0  0  0
  -24.8340  -21.3185   18.7585 N   0  0  0  0  0  0
  -29.7096  -15.5733   20.2301 N   0  0  0  0  0  0
  -27.3910  -18.5671   20.6277 N   0  3  0  0  0  0
  -25.1060  -23.6248   18.6966 O   0  0  0  0  0  0
  -31.4778  -12.4835   19.1808 H   0  0  0  0  0  0
  -30.3852  -11.3155   19.9052 H   0  0  0  0  0  0
  -29.7730  -11.7482   17.4687 H   0  0  0  0  0  0
  -29.6645  -13.4721   17.7933 H   0  0  0  0  0  0
  -27.7905  -11.2856   18.7989 H   0  0  0  0  0  0
  -27.3908  -12.6318   17.7633 H   0  0  0  0  0  0
  -27.6284  -14.2266   19.5324 H   0  0  0  0  0  0
  -28.6351  -11.9649   21.3421 H   0  0  0  0  0  0
  -28.4104  -13.6328   21.8455 H   0  0  0  0  0  0
  -25.2675   -9.5561   22.4787 H   0  0  0  0  0  0
  -23.9943   -7.4496   22.7446 H   0  0  0  0  0  0
  -21.0770   -8.8669   19.8933 H   0  0  0  0  0  0
  -22.3624  -10.9581   19.6197 H   0  0  0  0  0  0
  -21.1974   -7.6131   23.9722 H   0  0  0  0  0  0
  -21.1478   -6.0516   25.9087 H   0  0  0  0  0  0
  -22.0615   -2.7602   23.2846 H   0  0  0  0  0  0
  -22.3867  -11.9855   22.4927 H   0  0  0  0  0  0
  -21.0915  -13.1276   22.2739 H   0  0  0  0  0  0
  -24.6184  -15.8083   20.4871 H   0  0  0  0  0  0
  -26.2390  -15.5181   20.0305 H   0  0  0  0  0  0
  -26.7224  -32.5741   23.1504 H   0  0  0  0  0  0
  -25.0006  -34.0117   25.0502 H   0  0  0  0  0  0
  -22.6749  -31.4157   21.5356 H   0  0  0  0  0  0
  -23.3774  -35.9708   23.3366 H   0  0  0  0  0  0
  -24.3574  -36.8968   22.2058 H   0  0  0  0  0  0
  -23.7169  -37.6551   23.6594 H   0  0  0  0  0  0
  -26.0640  -31.6393   20.7161 H   0  0  0  0  0  0
  -26.8042  -30.8586   22.0890 H   0  0  0  0  0  0
  -28.0894  -29.0326   21.1206 H   0  0  0  0  0  0
  -25.8743  -26.5714   18.3517 H   0  0  0  0  0  0
  -23.9257  -27.7546   18.7780 H   0  0  0  0  0  0
  -23.7007  -30.8686   19.5510 H   0  0  0  0  0  0
  -22.6870  -29.5015   19.8859 H   0  0  0  0  0  0
  -25.1276  -36.2155   25.0751 H   0  0  0  0  0  0
  -20.9644  -28.0971   24.0675 H   0  0  0  0  0  0
  -21.5166  -26.4953   22.5965 H   0  0  0  0  0  0
  -21.2888  -27.5652   21.2793 H   0  0  0  0  0  0
  -19.5082  -26.5799   20.5178 H   0  0  0  0  0  0
  -19.7182  -25.4173   21.7712 H   0  0  0  0  0  0
  -17.3421  -26.6280   21.4163 H   0  0  0  0  0  0
  -17.8977  -26.0299   22.9620 H   0  0  0  0  0  0
  -19.7266  -30.5952   24.4375 H   0  0  0  0  0  0
  -17.4836  -31.6371   24.5421 H   0  0  0  0  0  0
  -15.5546  -30.3754   23.8509 H   0  0  0  0  0  0
  -15.8570  -28.1303   22.7310 H   0  0  0  0  0  0
  -24.6022  -30.7002   25.7998 H   0  0  0  0  0  0
  -24.8854  -32.2784   26.5072 H   0  0  0  0  0  0
  -25.8110  -30.8879   27.0383 H   0  0  0  0  0  0
  -26.2787  -29.6925   24.1232 H   0  0  0  0  0  0
  -27.3874  -29.7237   25.4709 H   0  0  0  0  0  0
  -27.8730  -30.4303   23.9541 H   0  0  0  0  0  0
  -27.2831  -33.3670   26.2184 H   0  0  0  0  0  0
  -28.3943  -32.6823   25.0480 H   0  0  0  0  0  0
  -28.0761  -31.8446   26.5555 H   0  0  0  0  0  0
  -28.2641  -38.0135   24.7525 H   0  0  0  0  0  0
  -28.1017  -36.2615   24.6259 H   0  0  0  0  0  0
  -27.2255  -37.1514   25.8887 H   0  0  0  0  0  0
  -20.9015  -30.0062   21.8461 H   0  0  0  0  0  0
  -26.0217  -38.3003   24.1434 H   0  0  0  0  0  0
  -25.8028  -21.4736   22.5172 H   0  0  0  0  0  0
  -25.2488  -23.5407   21.2627 H   0  0  0  0  0  0
  -25.1401  -19.2830   18.9335 H   0  0  0  0  0  0
  -25.4071  -18.0947   21.3428 H   0  0  0  0  0  0
  -26.4335  -18.9605   22.4529 H   0  0  0  0  0  0
  -28.1373  -24.2809   17.4427 H   0  0  0  0  0  0
  -26.9455  -25.4410   17.2864 H   0  0  0  0  0  0
  -29.7680  -17.5469   19.6892 H   0  0  0  0  0  0
  -29.8909  -17.3711   21.4584 H   0  0  0  0  0  0
  -27.6187  -16.7343   21.6768 H   0  0  0  0  0  0
  -27.4052  -16.6116   19.8905 H   0  0  0  0  0  0
  -28.6733  -24.5575   19.7678 H   0  0  0  0  0  0
  -27.0865  -24.8269   20.2066 H   0  0  0  0  0  0
  -26.8422  -22.5537   18.2430 H   0  0  0  0  0  0
  -26.0395  -23.2476   16.9533 H   0  0  0  0  0  0
  -30.2735  -15.8181   19.4187 H   0  0  0  0  0  0
  -27.1886  -18.7690   19.6539 H   0  0  0  0  0  0
  -28.1791  -19.1516   20.8504 H   0  0  0  0  0  0
  1 25  1  0  0  0
  1 30  2  0  0  0
  1 83  1  0  0  0
  2  3  1  0  0  0
  2 25  1  0  0  0
  2 86  1  0  0  0
  2 87  1  0  0  0
  3  4  1  0  0  0
  3 88  1  0  0  0
  3 89  1  0  0  0
  4  5  1  0  0  0
  4 90  1  0  0  0
  4 91  1  0  0  0
  5  6  1  0  0  0
  5 26  1  0  0  0
  5 92  1  0  0  0
  6 25  1  0  0  0
  6 93  1  0  0  0
  6 94  1  0  0  0
  7  8  2  0  0  0
  7 26  1  0  0  0
  7 29  1  0  0  0
  8  9  1  0  0  0
  8 22  1  0  0  0
  9 10  1  0  0  0
  9 27  2  0  0  0
 10 11  2  0  0  0
 10 15  1  0  0  0
 11 12  1  0  0  0
 11 95  1  0  0  0
 12 13  2  0  0  0
 12 96  1  0  0  0
 13 14  1  0  0  0
 13 31  1  0  0  0
 14 15  2  0  0  0
 14 97  1  0  0  0
 15 98  1  0  0  0
 16 17  2  0  0  0
 16 21  1  0  0  0
 16 31  1  0  0  0
 17 18  1  0  0  0
 17 99  1  0  0  0
 18 19  2  0  0  0
 18100  1  0  0  0
 19 20  1  0  0  0
 19 24  1  0  0  0
 20 21  2  0  0  0
 20101  1  0  0  0
 21 23  1  0  0  0
 22 28  1  0  0  0
 22 32  2  0  0  0
 26 27  1  0  0  0
 28102  1  0  0  0
 28103  1  0  0  0
 29104  1  0  0  0
 29105  1  0  0  0
 33 34  1  0  0  0
 33 66  1  0  0  0
 33 70  2  0  0  0
 34 36  1  0  0  0
 34 59  1  0  0  0
 34106  1  0  0  0
 35 44  2  0  0  0
 35 45  1  0  0  0
 35 68  1  0  0  0
 36 56  1  0  0  0
 36107  1  0  0  0
 37 39  1  0  0  0
 37 47  1  0  0  0
 37 66  1  0  0  0
 37108  1  0  0  0
 38 43  2  0  0  0
 38 46  1  0  0  0
 38 47  1  0  0  0
 39 64  1  0  0  0
 39 67  2  0  0  0
 40 52  1  0  0  0
 40 53  2  0  0  0
 40 58  1  0  0  0
 41109  1  0  0  0
 41110  1  0  0  0
 41111  1  0  0  0
 41 48  1  0  0  0
 42 43  1  0  0  0
 42 66  1  0  0  0
 42112  1  0  0  0
 42113  1  0  0  0
 43 44  1  0  0  0
 44114  1  0  0  0
 45 46  2  0  0  0
 45115  1  0  0  0
 46116  1  0  0  0
 47117  1  0  0  0
 47118  1  0  0  0
 48 56  1  0  0  0
 48 65  1  0  0  0
 48119  1  0  0  0
 49 50  1  0  0  0
 49 53  1  0  0  0
 49 64  1  0  0  0
 49120  1  0  0  0
 50 51  1  0  0  0
 50121  1  0  0  0
 50122  1  0  0  0
 51 52  1  0  0  0
 51123  1  0  0  0
 51124  1  0  0  0
 52125  1  0  0  0
 52126  1  0  0  0
 53 54  1  0  0  0
 54 55  2  0  0  0
 54127  1  0  0  0
 55 57  1  0  0  0
 55128  1  0  0  0
 56 69  2  0  0  0
 57 58  2  0  0  0
 57129  1  0  0  0
 58130  1  0  0  0
 59 60  1  0  0  0
 59 61  1  0  0  0
 59 62  1  0  0  0
 60131  1  0  0  0
 60132  1  0  0  0
 60133  1  0  0  0
 61134  1  0  0  0
 61135  1  0  0  0
 61136  1  0  0  0
 62137  1  0  0  0
 62138  1  0  0  0
 62139  1  0  0  0
 63 65  1  0  0  0
 63140  1  0  0  0
 63141  1  0  0  0
 63142  1  0  0  0
 64143  1  0  0  0
 65144  1  0  0  0
 68 80  1  0  0  0
 71 72  2  0  0  0
 71 74  1  0  0  0
 71145  1  0  0  0
 72 75  1  0  0  0
 72146  1  0  0  0
 73 74  2  0  0  0
 73 82  1  0  0  0
 73147  1  0  0  0
 74 76  1  0  0  0
 75 82  2  0  0  0
 75 85  1  0  0  0
 76 84  1  0  0  0
 76148  1  0  0  0
 76149  1  0  0  0
 77 80  1  0  0  0
 77 81  1  0  0  0
 77150  1  0  0  0
 77151  1  0  0  0
 78 79  1  0  0  0
 78 83  1  0  0  0
 78152  1  0  0  0
 78153  1  0  0  0
 79 84  1  0  0  0
 79154  1  0  0  0
 79155  1  0  0  0
 80156  1  0  0  0
 80157  1  0  0  0
 81 85  1  0  0  0
 81158  1  0  0  0
 81159  1  0  0  0
 83160  1  0  0  0
 84161  1  0  0  0
 84162  1  0  0  0
M  CHG  1  84   1
M  ISO  4   1 100  68 101  80 101  83 100
M  END
> <chiral flag>
0

> <version>
0

> <s_m_source_file>
/data/baiqing/PycharmProjects/Reinvent-master-3.2/result/LINK_invent/BTK/process_docking_weight1_custom_sum_contain_oxygen_bond_distance_aromatic_linkinvent_7_9_3/rearranged_h_0116.sdf

> <i_m_source_file_index>
82

> <r_mmod_Potential_Energy-OPLS-2005>
94.9701080322266

> <r_mmod_Stretch_Energy-OPLS-2005>
75.0582580566406

> <r_mmod_Bend_Energy-OPLS-2005>
270.900482177734

> <r_mmod_Torsional_Energy-OPLS-2005>
359.572937011719

> <r_mmod_Improper_Torsional_Energy-OPLS-2005>
41.4693908691406

> <r_mmod_Van_der_Waal_Energy-OPLS-2005>
196.825637817383

> <r_mmod_Electrostatic_Energy-OPLS-2005>
-448.70849609375

> <r_mmod_Solvation_Energy-OPLS-2005>
-511.416625976562

> <b_mmod_Minimization_Converged-OPLS-2005>
0

> <r_mmod_RMS_Derivative-OPLS-2005>
51.7893028259277

$$$$
83
                    3D
 Structure written by MMmdl.
162170  0  0  1  0            999 V2000
  -30.6545  -14.6354   20.4620 C   0  0  0  0  0  0
  -30.4249  -12.3767   19.4693 C   0  0  0  0  0  0
  -29.5018  -12.4945   18.2356 C   0  0  0  0  0  0
  -28.0267  -12.3388   18.6489 C   0  0  0  0  0  0
  -27.6534  -13.2214   19.8700 C   0  0  2  0  0  0
  -28.7014  -13.1054   21.0033 C   0  0  0  0  0  0
  -25.2547  -13.8180   20.5711 C   0  0  0  0  0  0
  -24.1822  -13.0436   20.9180 C   0  0  0  0  0  0
  -24.6395  -11.6910   20.8753 C   0  0  0  0  0  0
  -23.9063  -10.4289   21.0412 C   0  0  0  0  0  0
  -24.3607   -9.4197   21.9183 C   0  0  0  0  0  0
  -23.6286   -8.2239   22.0754 C   0  0  0  0  0  0
  -22.4269   -8.0274   21.3538 C   0  0  0  0  0  0
  -21.9913   -9.0243   20.4633 C   0  0  0  0  0  0
  -22.7247  -10.2124   20.3057 C   0  0  0  0  0  0
  -21.6843   -6.0730   22.5271 C   0  0  0  0  0  0
  -21.4013   -6.5624   23.8202 C   0  0  0  0  0  0
  -21.3662   -5.6784   24.9156 C   0  0  0  0  0  0
  -21.6051   -4.3051   24.7216 C   0  0  0  0  0  0
  -21.8822   -3.8136   23.4336 C   0  0  0  0  0  0
  -21.9192   -4.6960   22.3392 C   0  0  0  0  0  0
  -22.7837  -13.5218   21.1850 C   0  0  0  0  0  0
  -22.1658   -4.2148   21.0965 F   0  0  0  0  0  0
  -21.5636   -3.4539   25.7731 F   0  0  0  0  0  0
  -30.0170  -13.4225   20.4306 N   0  0  0  0  0  0
  -26.2990  -12.9381   20.3384 N   0  0  0  0  0  0
  -25.9340  -11.6531   20.5825 N   0  0  0  0  0  0
  -22.0492  -12.8199   22.0404 N   0  0  0  0  0  0
  -25.4255  -15.1906   20.4126 N   0  0  0  0  0  0
  -31.8185  -14.7563   20.0762 O   0  0  0  0  0  0
  -21.6633   -6.8867   21.4225 O   0  0  0  0  0  0
  -22.3518  -14.5539   20.6716 O   0  0  0  0  0  0
  -24.6288  -31.8589   23.2061 C   0  0  0  0  0  0
  -25.9131  -32.4766   23.8376 C   0  0  1  0  0  0
  -27.1994  -27.2872   20.1207 C   0  0  0  0  0  0
  -25.5945  -33.8566   24.2286 N   0  0  0  0  0  0
  -23.4217  -30.4906   21.5489 C   0  0  2  0  0  0
  -24.8655  -28.9592   20.1090 C   0  0  0  0  0  0
  -22.7498  -29.4623   22.4913 C   0  0  0  0  0  0
  -18.0297  -28.1362   22.8474 C   0  0  0  0  0  0
  -24.1479  -36.7245   23.2632 C   0  0  0  0  0  0
  -25.9713  -30.7807   21.3872 C   0  0  0  0  0  0
  -26.0401  -29.4105   20.7239 C   0  0  0  0  0  0
  -27.2105  -28.5866   20.7254 C   0  0  0  0  0  0
  -26.0015  -26.9236   19.4518 C   0  0  0  0  0  0
  -24.8498  -27.7190   19.4668 C   0  0  0  0  0  0
  -23.6377  -29.8432   20.1598 C   0  0  0  0  0  0
  -25.4100  -36.3053   24.0339 C   0  0  1  0  0  0
  -20.5906  -28.3675   23.1252 C   0  0  2  0  0  0
  -20.6788  -26.9390   22.5383 C   0  0  0  0  0  0
  -19.5754  -26.6355   21.5190 C   0  0  0  0  0  0
  -18.1926  -26.7907   22.1599 C   0  0  0  0  0  0
  -19.1557  -28.8838   23.2855 C   0  0  0  0  0  0
  -18.9478  -30.1449   23.8866 C   0  0  0  0  0  0
  -17.6484  -30.6570   24.0569 C   0  0  0  0  0  0
  -25.9064  -34.9439   23.5109 C   0  0  0  0  0  0
  -16.5372  -29.9070   23.6345 C   0  0  0  0  0  0
  -16.7293  -28.6487   23.0357 C   0  0  0  0  0  0
  -26.4516  -31.6586   25.0748 C   0  0  0  0  0  0
  -25.3740  -31.3694   26.1466 C   0  0  0  0  0  0
  -27.0400  -30.3016   24.6216 C   0  0  0  0  0  0
  -27.6057  -32.4357   25.7518 C   0  0  0  0  0  0
  -27.5598  -37.1732   24.8452 C   0  0  0  0  0  0
  -21.4210  -29.3037   22.3663 N   0  0  0  0  0  0
  -26.4255  -37.3783   23.9475 N   0  0  0  0  0  0
  -24.6921  -31.0619   22.1012 N   0  0  0  0  0  0
  -23.4236  -28.8135   23.2958 O   0  0  0  0  0  0
  -28.2600  -26.3560   20.2215 O   0  0  0  0  0  0
  -26.5640  -34.8919   22.4679 O   0  0  0  0  0  0
  -23.5443  -32.1394   23.7356 O   0  0  0  0  0  0
  -29.8786  -21.6246   19.4737 C   0  0  0  0  0  0
  -29.6570  -23.0456   19.4607 C   0  0  0  0  0  0
  -29.1798  -20.7962   20.4015 C   0  0  0  0  0  0
  -28.6788  -23.6309   20.3105 C   0  0  0  0  0  0
  -28.3415  -21.4991   21.3065 C   0  0  0  0  0  0
  -30.7658  -20.9927   18.4088 C   0  0  0  0  0  0
  -30.3831  -23.9300   18.4570 C   0  0  0  0  0  0
  -27.5941  -20.7382   22.3879 C   0  0  0  0  0  0
  -30.2410  -18.3002   22.1914 C   0  0  0  0  0  0
  -27.8830  -24.9435   19.9174 C   0  0  0  0  0  0
  -30.0069  -17.0523   19.9158 C   0  0  0  0  0  0
  -30.1556  -18.4533   20.6682 C   0  0  1  0  0  0
  -28.0947  -22.8419   21.2555 N   0  0  0  0  0  0
  -29.8815  -15.7441   20.6604 N   0  0  0  0  0  0
  -29.0901  -19.3890   20.3090 O   0  0  0  0  0  0
  -31.4712  -12.4673   19.1723 H   0  0  0  0  0  0
  -30.3304  -11.3907   19.9268 H   0  0  0  0  0  0
  -29.7615  -11.7388   17.4926 H   0  0  0  0  0  0
  -29.6469  -13.4632   17.7540 H   0  0  0  0  0  0
  -27.8635  -11.2878   18.8896 H   0  0  0  0  0  0
  -27.3705  -12.5618   17.8072 H   0  0  0  0  0  0
  -27.6644  -14.2514   19.5135 H   0  0  0  0  0  0
  -28.7103  -12.0976   21.4212 H   0  0  0  0  0  0
  -28.4595  -13.7735   21.8313 H   0  0  0  0  0  0
  -25.2745   -9.5686   22.4769 H   0  0  0  0  0  0
  -23.9988   -7.4643   22.7507 H   0  0  0  0  0  0
  -21.0835   -8.8770   19.8939 H   0  0  0  0  0  0
  -22.3697  -10.9669   19.6174 H   0  0  0  0  0  0
  -21.1996   -7.6137   23.9703 H   0  0  0  0  0  0
  -21.1487   -6.0507   25.9061 H   0  0  0  0  0  0
  -22.0602   -2.7604   23.2834 H   0  0  0  0  0  0
  -22.4109  -11.9808   22.4708 H   0  0  0  0  0  0
  -21.1146  -13.1253   22.2708 H   0  0  0  0  0  0
  -24.6575  -15.8451   20.5180 H   0  0  0  0  0  0
  -26.2778  -15.6341   20.0947 H   0  0  0  0  0  0
  -26.7193  -32.5428   23.1113 H   0  0  0  0  0  0
  -25.0164  -33.9706   25.0482 H   0  0  0  0  0  0
  -22.7122  -31.3101   21.4130 H   0  0  0  0  0  0
  -23.3798  -35.9513   23.3191 H   0  0  0  0  0  0
  -24.3591  -36.8972   22.2069 H   0  0  0  0  0  0
  -23.7164  -37.6373   23.6746 H   0  0  0  0  0  0
  -26.1192  -31.5450   20.6232 H   0  0  0  0  0  0
  -26.8460  -30.8173   22.0256 H   0  0  0  0  0  0
  -28.1013  -28.9207   21.2378 H   0  0  0  0  0  0
  -25.8864  -25.9915   18.9212 H   0  0  0  0  0  0
  -23.9522  -27.3637   18.9803 H   0  0  0  0  0  0
  -23.7660  -30.6282   19.4122 H   0  0  0  0  0  0
  -22.7532  -29.2853   19.8504 H   0  0  0  0  0  0
  -25.1253  -36.1877   25.0823 H   0  0  0  0  0  0
  -20.9991  -28.3252   24.1383 H   0  0  0  0  0  0
  -20.5665  -26.2286   23.3584 H   0  0  0  0  0  0
  -21.6659  -26.7377   22.1205 H   0  0  0  0  0  0
  -19.6915  -25.6270   21.1211 H   0  0  0  0  0  0
  -19.6689  -27.3168   20.6725 H   0  0  0  0  0  0
  -17.4191  -26.6683   21.4000 H   0  0  0  0  0  0
  -18.0297  -26.0041   22.8980 H   0  0  0  0  0  0
  -19.7963  -30.7275   24.2206 H   0  0  0  0  0  0
  -17.5039  -31.6252   24.5172 H   0  0  0  0  0  0
  -15.5373  -30.2955   23.7699 H   0  0  0  0  0  0
  -15.8690  -28.0816   22.7074 H   0  0  0  0  0  0
  -24.5997  -30.6939   25.7812 H   0  0  0  0  0  0
  -24.8827  -32.2830   26.4824 H   0  0  0  0  0  0
  -25.8059  -30.8956   27.0286 H   0  0  0  0  0  0
  -26.2999  -29.6721   24.1258 H   0  0  0  0  0  0
  -27.4158  -29.7310   25.4717 H   0  0  0  0  0  0
  -27.8829  -30.4326   23.9424 H   0  0  0  0  0  0
  -27.2697  -33.3733   26.1966 H   0  0  0  0  0  0
  -28.3929  -32.6789   25.0368 H   0  0  0  0  0  0
  -28.0662  -31.8572   26.5539 H   0  0  0  0  0  0
  -28.2460  -38.0178   24.7724 H   0  0  0  0  0  0
  -28.1249  -36.2728   24.5984 H   0  0  0  0  0  0
  -27.2357  -37.1020   25.8851 H   0  0  0  0  0  0
  -20.9385  -29.8814   21.6922 H   0  0  0  0  0  0
  -26.0105  -38.2804   24.1640 H   0  0  0  0  0  0
  -30.5521  -21.4189   17.4283 H   0  0  0  0  0  0
  -30.6089  -19.9180   18.3180 H   0  0  0  0  0  0
  -31.8158  -21.1709   18.6376 H   0  0  0  0  0  0
  -31.4461  -23.6894   18.4263 H   0  0  0  0  0  0
  -30.3048  -24.9844   18.7245 H   0  0  0  0  0  0
  -29.9637  -23.8008   17.4594 H   0  0  0  0  0  0
  -27.3836  -19.7101   22.0922 H   0  0  0  0  0  0
  -26.6444  -21.2107   22.6366 H   0  0  0  0  0  0
  -28.2008  -20.7034   23.2920 H   0  0  0  0  0  0
  -31.0746  -17.6511   22.4612 H   0  0  0  0  0  0
  -29.3310  -17.8610   22.5998 H   0  0  0  0  0  0
  -30.4100  -19.2588   22.6803 H   0  0  0  0  0  0
  -26.8951  -24.7552   20.3414 H   0  0  0  0  0  0
  -27.7649  -24.8901   18.8341 H   0  0  0  0  0  0
  -30.8185  -16.9729   19.1911 H   0  0  0  0  0  0
  -29.1165  -17.1165   19.2895 H   0  0  0  0  0  0
  -31.0961  -18.8947   20.3381 H   0  0  0  0  0  0
  -28.9641  -15.5547   21.0357 H   0  0  0  0  0  0
  1 25  1  0  0  0
  1 30  2  0  0  0
  1 84  1  0  0  0
  2  3  1  0  0  0
  2 25  1  0  0  0
  2 86  1  0  0  0
  2 87  1  0  0  0
  3  4  1  0  0  0
  3 88  1  0  0  0
  3 89  1  0  0  0
  4  5  1  0  0  0
  4 90  1  0  0  0
  4 91  1  0  0  0
  5  6  1  0  0  0
  5 26  1  0  0  0
  5 92  1  0  0  0
  6 25  1  0  0  0
  6 93  1  0  0  0
  6 94  1  0  0  0
  7  8  2  0  0  0
  7 26  1  0  0  0
  7 29  1  0  0  0
  8  9  1  0  0  0
  8 22  1  0  0  0
  9 10  1  0  0  0
  9 27  2  0  0  0
 10 11  2  0  0  0
 10 15  1  0  0  0
 11 12  1  0  0  0
 11 95  1  0  0  0
 12 13  2  0  0  0
 12 96  1  0  0  0
 13 14  1  0  0  0
 13 31  1  0  0  0
 14 15  2  0  0  0
 14 97  1  0  0  0
 15 98  1  0  0  0
 16 17  2  0  0  0
 16 21  1  0  0  0
 16 31  1  0  0  0
 17 18  1  0  0  0
 17 99  1  0  0  0
 18 19  2  0  0  0
 18100  1  0  0  0
 19 20  1  0  0  0
 19 24  1  0  0  0
 20 21  2  0  0  0
 20101  1  0  0  0
 21 23  1  0  0  0
 22 28  1  0  0  0
 22 32  2  0  0  0
 26 27  1  0  0  0
 28102  1  0  0  0
 28103  1  0  0  0
 29104  1  0  0  0
 29105  1  0  0  0
 33 34  1  0  0  0
 33 66  1  0  0  0
 33 70  2  0  0  0
 34 36  1  0  0  0
 34 59  1  0  0  0
 34106  1  0  0  0
 35 44  2  0  0  0
 35 45  1  0  0  0
 35 68  1  0  0  0
 36 56  1  0  0  0
 36107  1  0  0  0
 37 39  1  0  0  0
 37 47  1  0  0  0
 37 66  1  0  0  0
 37108  1  0  0  0
 38 43  2  0  0  0
 38 46  1  0  0  0
 38 47  1  0  0  0
 39 64  1  0  0  0
 39 67  2  0  0  0
 40 52  1  0  0  0
 40 53  2  0  0  0
 40 58  1  0  0  0
 41109  1  0  0  0
 41110  1  0  0  0
 41111  1  0  0  0
 41 48  1  0  0  0
 42 43  1  0  0  0
 42 66  1  0  0  0
 42112  1  0  0  0
 42113  1  0  0  0
 43 44  1  0  0  0
 44114  1  0  0  0
 45 46  2  0  0  0
 45115  1  0  0  0
 46116  1  0  0  0
 47117  1  0  0  0
 47118  1  0  0  0
 48 56  1  0  0  0
 48 65  1  0  0  0
 48119  1  0  0  0
 49 50  1  0  0  0
 49 53  1  0  0  0
 49 64  1  0  0  0
 49120  1  0  0  0
 50 51  1  0  0  0
 50121  1  0  0  0
 50122  1  0  0  0
 51 52  1  0  0  0
 51123  1  0  0  0
 51124  1  0  0  0
 52125  1  0  0  0
 52126  1  0  0  0
 53 54  1  0  0  0
 54 55  2  0  0  0
 54127  1  0  0  0
 55 57  1  0  0  0
 55128  1  0  0  0
 56 69  2  0  0  0
 57 58  2  0  0  0
 57129  1  0  0  0
 58130  1  0  0  0
 59 60  1  0  0  0
 59 61  1  0  0  0
 59 62  1  0  0  0
 60131  1  0  0  0
 60132  1  0  0  0
 60133  1  0  0  0
 61134  1  0  0  0
 61135  1  0  0  0
 61136  1  0  0  0
 62137  1  0  0  0
 62138  1  0  0  0
 62139  1  0  0  0
 63 65  1  0  0  0
 63140  1  0  0  0
 63141  1  0  0  0
 63142  1  0  0  0
 64143  1  0  0  0
 65144  1  0  0  0
 68 80  1  0  0  0
 71 72  2  0  0  0
 71 73  1  0  0  0
 71 76  1  0  0  0
 72 74  1  0  0  0
 72 77  1  0  0  0
 73 75  2  0  0  0
 73 85  1  0  0  0
 74 80  1  0  0  0
 74 83  2  0  0  0
 75 78  1  0  0  0
 75 83  1  0  0  0
 76145  1  0  0  0
 76146  1  0  0  0
 76147  1  0  0  0
 77148  1  0  0  0
 77149  1  0  0  0
 77150  1  0  0  0
 78151  1  0  0  0
 78152  1  0  0  0
 78153  1  0  0  0
 79154  1  0  0  0
 79155  1  0  0  0
 79156  1  0  0  0
 79 82  1  0  0  0
 80157  1  0  0  0
 80158  1  0  0  0
 81 82  1  0  0  0
 81 84  1  0  0  0
 81159  1  0  0  0
 81160  1  0  0  0
 82 85  1  0  0  0
 82161  1  0  0  0
 84162  1  0  0  0
M  ISO  4   1 100  68 101  80 101  84 100
M  END
> <chiral flag>
0

> <version>
0

> <s_m_source_file>
/data/baiqing/PycharmProjects/Reinvent-master-3.2/result/LINK_invent/BTK/process_docking_weight1_custom_sum_contain_oxygen_bond_distance_aromatic_linkinvent_7_9_3/rearranged_h_0116.sdf

> <i_m_source_file_index>
83

> <r_mmod_Potential_Energy-OPLS-2005>
11.5547018051147

> <r_mmod_Stretch_Energy-OPLS-2005>
87.0314788818359

> <r_mmod_Bend_Energy-OPLS-2005>
166.603424072266

> <r_mmod_Torsional_Energy-OPLS-2005>
286.943298339844

> <r_mmod_Improper_Torsional_Energy-OPLS-2005>
14.7129516601562

> <r_mmod_Van_der_Waal_Energy-OPLS-2005>
158.695388793945

> <r_mmod_Electrostatic_Energy-OPLS-2005>
-545.35791015625

> <r_mmod_Solvation_Energy-OPLS-2005>
-221.346496582031

> <b_mmod_Minimization_Converged-OPLS-2005>
0

> <r_mmod_RMS_Derivative-OPLS-2005>
3.15396571159363

$$$$
84
                    3D
 Structure written by MMmdl.
161169  0  0  1  0            999 V2000
  -30.6210  -14.8416   20.5022 C   0  0  0  0  0  0
  -30.4383  -12.5255   19.4991 C   0  0  0  0  0  0
  -29.5192  -12.5109   18.2556 C   0  0  0  0  0  0
  -28.0516  -12.3103   18.6728 C   0  0  0  0  0  0
  -27.6416  -13.2362   19.8456 C   0  0  2  0  0  0
  -28.6789  -13.2184   20.9869 C   0  0  0  0  0  0
  -25.2535  -13.8208   20.5703 C   0  0  0  0  0  0
  -24.1813  -13.0456   20.9181 C   0  0  0  0  0  0
  -24.6398  -11.6924   20.8712 C   0  0  0  0  0  0
  -23.9075  -10.4304   21.0390 C   0  0  0  0  0  0
  -24.3622   -9.4215   21.9168 C   0  0  0  0  0  0
  -23.6291   -8.2250   22.0754 C   0  0  0  0  0  0
  -22.4274   -8.0286   21.3547 C   0  0  0  0  0  0
  -21.9906   -9.0257   20.4642 C   0  0  0  0  0  0
  -22.7239  -10.2135   20.3046 C   0  0  0  0  0  0
  -21.6857   -6.0727   22.5272 C   0  0  0  0  0  0
  -21.4017   -6.5636   23.8205 C   0  0  0  0  0  0
  -21.3655   -5.6784   24.9158 C   0  0  0  0  0  0
  -21.6043   -4.3044   24.7207 C   0  0  0  0  0  0
  -21.8826   -3.8144   23.4330 C   0  0  0  0  0  0
  -21.9201   -4.6962   22.3387 C   0  0  0  0  0  0
  -22.7841  -13.5232   21.1853 C   0  0  0  0  0  0
  -22.1672   -4.2149   21.0961 F   0  0  0  0  0  0
  -21.5619   -3.4526   25.7720 F   0  0  0  0  0  0
  -29.9820  -13.6067   20.4202 N   0  0  0  0  0  0
  -26.2949  -12.9403   20.3258 N   0  0  0  0  0  0
  -25.9334  -11.6550   20.5735 N   0  0  0  0  0  0
  -22.0498  -12.8204   22.0412 N   0  0  0  0  0  0
  -25.4270  -15.1927   20.4174 N   0  0  0  0  0  0
  -31.7408  -14.9444   19.9903 O   0  0  0  0  0  0
  -21.6650   -6.8869   21.4235 O   0  0  0  0  0  0
  -22.3525  -14.5548   20.6726 O   0  0  0  0  0  0
  -24.6408  -31.8492   23.1934 C   0  0  0  0  0  0
  -25.9192  -32.4736   23.8296 C   0  0  1  0  0  0
  -27.2026  -27.1596   20.1475 C   0  0  0  0  0  0
  -25.5955  -33.8535   24.2220 N   0  0  0  0  0  0
  -23.4426  -30.4728   21.5372 C   0  0  2  0  0  0
  -24.8906  -28.9160   20.1092 C   0  0  0  0  0  0
  -22.7575  -29.4572   22.4863 C   0  0  0  0  0  0
  -18.0313  -28.1407   22.8478 C   0  0  0  0  0  0
  -24.1474  -36.7231   23.2647 C   0  0  0  0  0  0
  -26.0009  -30.7331   21.3882 C   0  0  0  0  0  0
  -26.0693  -29.3477   20.7293 C   0  0  0  0  0  0
  -27.2280  -28.4850   20.7348 C   0  0  0  0  0  0
  -25.9962  -26.8411   19.4747 C   0  0  0  0  0  0
  -24.8664  -27.6758   19.4655 C   0  0  0  0  0  0
  -23.6676  -29.8131   20.1543 C   0  0  0  0  0  0
  -25.4102  -36.3038   24.0335 C   0  0  1  0  0  0
  -20.5925  -28.3722   23.1237 C   0  0  2  0  0  0
  -20.6792  -26.9432   22.5391 C   0  0  0  0  0  0
  -19.5762  -26.6389   21.5218 C   0  0  0  0  0  0
  -18.1945  -26.7952   22.1624 C   0  0  0  0  0  0
  -19.1567  -28.8887   23.2856 C   0  0  0  0  0  0
  -18.9499  -30.1492   23.8883 C   0  0  0  0  0  0
  -17.6492  -30.6609   24.0575 C   0  0  0  0  0  0
  -25.9056  -34.9423   23.5073 C   0  0  0  0  0  0
  -16.5382  -29.9097   23.6356 C   0  0  0  0  0  0
  -16.7295  -28.6517   23.0365 C   0  0  0  0  0  0
  -26.4534  -31.6589   25.0714 C   0  0  0  0  0  0
  -25.3737  -31.3741   26.1419 C   0  0  0  0  0  0
  -27.0415  -30.3013   24.6235 C   0  0  0  0  0  0
  -27.6085  -32.4358   25.7470 C   0  0  0  0  0  0
  -27.5568  -37.1761   24.8483 C   0  0  0  0  0  0
  -21.4267  -29.3057   22.3631 N   0  0  0  0  0  0
  -26.4258  -37.3761   23.9456 N   0  0  0  0  0  0
  -24.7143  -31.0380   22.0945 N   0  0  0  0  0  0
  -23.4246  -28.8095   23.2965 O   0  0  0  0  0  0
  -28.2271  -26.1488   20.2393 O   0  0  0  0  0  0
  -26.5639  -34.8923   22.4651 O   0  0  0  0  0  0
  -23.5525  -32.1316   23.7171 O   0  0  0  0  0  0
  -28.6687  -22.2777   19.2070 C   0  0  0  0  0  0
  -28.9617  -20.8750   19.4254 C   0  0  0  0  0  0
  -29.2152  -20.3601   20.7350 C   0  0  0  0  0  0
  -28.5898  -23.2574   20.2522 C   0  0  0  0  0  0
  -29.1526  -21.4161   21.7198 C   0  0  0  0  0  0
  -28.9158  -19.9250   18.2456 C   0  0  0  0  0  0
  -29.3719  -21.0834   23.1861 C   0  0  0  0  0  0
  -30.4846  -14.9844   23.3698 C   0  0  0  0  0  0
  -29.4290  -18.7917   21.1933 C   0  0  0  0  0  0
  -27.7945  -24.6783   20.0417 C   0  0  0  0  0  0
  -29.7529  -16.0370   22.4952 C   0  0  0  0  0  0
  -29.8885  -17.4224   20.3578 C   0  0  0  0  0  0
  -28.8527  -22.7554   21.4975 N   0  0  0  0  0  0
  -29.9767  -15.9924   21.0257 N   0  0  0  0  0  0
  -31.4755  -12.6541   19.1846 H   0  0  0  0  0  0
  -30.4073  -11.5618   20.0091 H   0  0  0  0  0  0
  -29.8210  -11.7100   17.5777 H   0  0  0  0  0  0
  -29.6269  -13.4445   17.7012 H   0  0  0  0  0  0
  -27.9393  -11.2683   18.9765 H   0  0  0  0  0  0
  -27.3873  -12.4545   17.8199 H   0  0  0  0  0  0
  -27.6249  -14.2483   19.4399 H   0  0  0  0  0  0
  -28.7376  -12.2361   21.4565 H   0  0  0  0  0  0
  -28.3566  -13.9071   21.7648 H   0  0  0  0  0  0
  -25.2760   -9.5694   22.4750 H   0  0  0  0  0  0
  -23.9994   -7.4649   22.7488 H   0  0  0  0  0  0
  -21.0832   -8.8770   19.8949 H   0  0  0  0  0  0
  -22.3688  -10.9673   19.6160 H   0  0  0  0  0  0
  -21.2018   -7.6147   23.9701 H   0  0  0  0  0  0
  -21.1458   -6.0509   25.9055 H   0  0  0  0  0  0
  -22.0611   -2.7606   23.2823 H   0  0  0  0  0  0
  -22.4113  -11.9851   22.4763 H   0  0  0  0  0  0
  -21.1135  -13.1235   22.2677 H   0  0  0  0  0  0
  -24.6653  -15.8507   20.5381 H   0  0  0  0  0  0
  -26.2931  -15.6331   20.1327 H   0  0  0  0  0  0
  -26.7243  -32.5355   23.1008 H   0  0  0  0  0  0
  -25.0170  -33.9673   25.0416 H   0  0  0  0  0  0
  -22.7430  -31.2978   21.3862 H   0  0  0  0  0  0
  -23.3778  -35.9525   23.3278 H   0  0  0  0  0  0
  -24.3553  -36.8878   22.2069 H   0  0  0  0  0  0
  -23.7171  -37.6392   23.6685 H   0  0  0  0  0  0
  -26.1529  -31.4895   20.6157 H   0  0  0  0  0  0
  -26.8752  -30.7817   22.0263 H   0  0  0  0  0  0
  -28.1254  -28.8065   21.2440 H   0  0  0  0  0  0
  -25.8573  -25.9067   18.9575 H   0  0  0  0  0  0
  -23.9701  -27.3452   18.9602 H   0  0  0  0  0  0
  -23.8027  -30.5901   19.4011 H   0  0  0  0  0  0
  -22.7846  -29.2526   19.8389 H   0  0  0  0  0  0
  -25.1272  -36.1856   25.0823 H   0  0  0  0  0  0
  -21.0023  -28.3294   24.1353 H   0  0  0  0  0  0
  -20.5716  -26.2334   23.3598 H   0  0  0  0  0  0
  -21.6647  -26.7448   22.1169 H   0  0  0  0  0  0
  -19.6919  -25.6295   21.1251 H   0  0  0  0  0  0
  -19.6696  -27.3209   20.6756 H   0  0  0  0  0  0
  -17.4211  -26.6731   21.4029 H   0  0  0  0  0  0
  -18.0323  -26.0094   22.9014 H   0  0  0  0  0  0
  -19.7981  -30.7318   24.2229 H   0  0  0  0  0  0
  -17.5050  -31.6290   24.5175 H   0  0  0  0  0  0
  -15.5381  -30.3005   23.7700 H   0  0  0  0  0  0
  -15.8690  -28.0843   22.7093 H   0  0  0  0  0  0
  -24.5944  -30.7057   25.7721 H   0  0  0  0  0  0
  -24.8898  -32.2908   26.4802 H   0  0  0  0  0  0
  -25.8033  -30.8937   27.0225 H   0  0  0  0  0  0
  -26.3019  -29.6729   24.1253 H   0  0  0  0  0  0
  -27.4104  -29.7292   25.4761 H   0  0  0  0  0  0
  -27.8884  -30.4303   23.9494 H   0  0  0  0  0  0
  -27.2726  -33.3745   26.1889 H   0  0  0  0  0  0
  -28.3956  -32.6779   25.0315 H   0  0  0  0  0  0
  -28.0669  -31.8574   26.5498 H   0  0  0  0  0  0
  -28.2557  -38.0093   24.7585 H   0  0  0  0  0  0
  -28.1089  -36.2622   24.6221 H   0  0  0  0  0  0
  -27.2300  -37.1297   25.8891 H   0  0  0  0  0  0
  -20.9479  -29.8790   21.6830 H   0  0  0  0  0  0
  -26.0117  -38.2812   24.1537 H   0  0  0  0  0  0
  -28.4048  -22.5971   18.2082 H   0  0  0  0  0  0
  -28.6989  -20.4488   17.3145 H   0  0  0  0  0  0
  -28.1346  -19.1784   18.3920 H   0  0  0  0  0  0
  -29.8678  -19.4081   18.1257 H   0  0  0  0  0  0
  -28.7501  -20.2402   23.4898 H   0  0  0  0  0  0
  -29.1237  -21.9229   23.8349 H   0  0  0  0  0  0
  -30.4169  -20.8277   23.3639 H   0  0  0  0  0  0
  -30.2883  -15.1752   24.4250 H   0  0  0  0  0  0
  -31.5670  -15.0341   23.2374 H   0  0  0  0  0  0
  -30.1746  -13.9569   23.1825 H   0  0  0  0  0  0
  -28.4937  -18.5358   21.6916 H   0  0  0  0  0  0
  -30.1671  -18.8834   21.9874 H   0  0  0  0  0  0
  -26.8916  -24.5478   20.6420 H   0  0  0  0  0  0
  -27.4734  -24.6086   19.0041 H   0  0  0  0  0  0
  -30.0939  -16.9861   22.8969 H   0  0  0  0  0  0
  -28.6804  -15.9991   22.6866 H   0  0  0  0  0  0
  -30.8582  -17.6249   19.9006 H   0  0  0  0  0  0
  -29.2005  -17.3014   19.5212 H   0  0  0  0  0  0
  1 25  1  0  0  0
  1 30  2  0  0  0
  1 84  1  0  0  0
  2  3  1  0  0  0
  2 25  1  0  0  0
  2 85  1  0  0  0
  2 86  1  0  0  0
  3  4  1  0  0  0
  3 87  1  0  0  0
  3 88  1  0  0  0
  4  5  1  0  0  0
  4 89  1  0  0  0
  4 90  1  0  0  0
  5  6  1  0  0  0
  5 26  1  0  0  0
  5 91  1  0  0  0
  6 25  1  0  0  0
  6 92  1  0  0  0
  6 93  1  0  0  0
  7  8  2  0  0  0
  7 26  1  0  0  0
  7 29  1  0  0  0
  8  9  1  0  0  0
  8 22  1  0  0  0
  9 10  1  0  0  0
  9 27  2  0  0  0
 10 11  2  0  0  0
 10 15  1  0  0  0
 11 12  1  0  0  0
 11 94  1  0  0  0
 12 13  2  0  0  0
 12 95  1  0  0  0
 13 14  1  0  0  0
 13 31  1  0  0  0
 14 15  2  0  0  0
 14 96  1  0  0  0
 15 97  1  0  0  0
 16 17  2  0  0  0
 16 21  1  0  0  0
 16 31  1  0  0  0
 17 18  1  0  0  0
 17 98  1  0  0  0
 18 19  2  0  0  0
 18 99  1  0  0  0
 19 20  1  0  0  0
 19 24  1  0  0  0
 20 21  2  0  0  0
 20100  1  0  0  0
 21 23  1  0  0  0
 22 28  1  0  0  0
 22 32  2  0  0  0
 26 27  1  0  0  0
 28101  1  0  0  0
 28102  1  0  0  0
 29103  1  0  0  0
 29104  1  0  0  0
 33 34  1  0  0  0
 33 66  1  0  0  0
 33 70  2  0  0  0
 34 36  1  0  0  0
 34 59  1  0  0  0
 34105  1  0  0  0
 35 44  2  0  0  0
 35 45  1  0  0  0
 35 68  1  0  0  0
 36 56  1  0  0  0
 36106  1  0  0  0
 37 39  1  0  0  0
 37 47  1  0  0  0
 37 66  1  0  0  0
 37107  1  0  0  0
 38 43  2  0  0  0
 38 46  1  0  0  0
 38 47  1  0  0  0
 39 64  1  0  0  0
 39 67  2  0  0  0
 40 52  1  0  0  0
 40 53  2  0  0  0
 40 58  1  0  0  0
 41108  1  0  0  0
 41109  1  0  0  0
 41110  1  0  0  0
 41 48  1  0  0  0
 42 43  1  0  0  0
 42 66  1  0  0  0
 42111  1  0  0  0
 42112  1  0  0  0
 43 44  1  0  0  0
 44113  1  0  0  0
 45 46  2  0  0  0
 45114  1  0  0  0
 46115  1  0  0  0
 47116  1  0  0  0
 47117  1  0  0  0
 48 56  1  0  0  0
 48 65  1  0  0  0
 48118  1  0  0  0
 49 50  1  0  0  0
 49 53  1  0  0  0
 49 64  1  0  0  0
 49119  1  0  0  0
 50 51  1  0  0  0
 50120  1  0  0  0
 50121  1  0  0  0
 51 52  1  0  0  0
 51122  1  0  0  0
 51123  1  0  0  0
 52124  1  0  0  0
 52125  1  0  0  0
 53 54  1  0  0  0
 54 55  2  0  0  0
 54126  1  0  0  0
 55 57  1  0  0  0
 55127  1  0  0  0
 56 69  2  0  0  0
 57 58  2  0  0  0
 57128  1  0  0  0
 58129  1  0  0  0
 59 60  1  0  0  0
 59 61  1  0  0  0
 59 62  1  0  0  0
 60130  1  0  0  0
 60131  1  0  0  0
 60132  1  0  0  0
 61133  1  0  0  0
 61134  1  0  0  0
 61135  1  0  0  0
 62136  1  0  0  0
 62137  1  0  0  0
 62138  1  0  0  0
 63 65  1  0  0  0
 63139  1  0  0  0
 63140  1  0  0  0
 63141  1  0  0  0
 64142  1  0  0  0
 65143  1  0  0  0
 68 80  1  0  0  0
 71 72  2  0  0  0
 71 74  1  0  0  0
 71144  1  0  0  0
 72 73  1  0  0  0
 72 76  1  0  0  0
 73 75  2  0  0  0
 73 79  1  0  0  0
 74 80  1  0  0  0
 74 83  2  0  0  0
 75 77  1  0  0  0
 75 83  1  0  0  0
 76145  1  0  0  0
 76146  1  0  0  0
 76147  1  0  0  0
 77148  1  0  0  0
 77149  1  0  0  0
 77150  1  0  0  0
 78 81  1  0  0  0
 78151  1  0  0  0
 78152  1  0  0  0
 78153  1  0  0  0
 79 82  1  0  0  0
 79154  1  0  0  0
 79155  1  0  0  0
 80156  1  0  0  0
 80157  1  0  0  0
 81 84  1  0  0  0
 81158  1  0  0  0
 81159  1  0  0  0
 82 84  1  0  0  0
 82160  1  0  0  0
 82161  1  0  0  0
M  ISO  4   1 100  68 101  80 101  84 100
M  END
> <chiral flag>
0

> <version>
0

> <s_m_source_file>
/data/baiqing/PycharmProjects/Reinvent-master-3.2/result/LINK_invent/BTK/process_docking_weight1_custom_sum_contain_oxygen_bond_distance_aromatic_linkinvent_7_9_3/rearranged_h_0116.sdf

> <i_m_source_file_index>
84

> <r_mmod_Potential_Energy-OPLS-2005>
474.220458984375

> <r_mmod_Stretch_Energy-OPLS-2005>
216.534149169922

> <r_mmod_Bend_Energy-OPLS-2005>
267.785949707031

> <r_mmod_Torsional_Energy-OPLS-2005>
292.221710205078

> <r_mmod_Improper_Torsional_Energy-OPLS-2005>
8.0114107131958

> <r_mmod_Van_der_Waal_Energy-OPLS-2005>
156.604507446289

> <r_mmod_Electrostatic_Energy-OPLS-2005>
-406.723052978516

> <r_mmod_Solvation_Energy-OPLS-2005>
-211.573715209961

> <b_mmod_Minimization_Converged-OPLS-2005>
0

> <r_mmod_RMS_Derivative-OPLS-2005>
3.1874668598175

$$$$
85
                    3D
 Structure written by MMmdl.
173181  0  0  1  0            999 V2000
  -30.7677  -14.3722   20.6774 C   0  0  0  0  0  0
  -30.4182  -12.2965   19.3853 C   0  0  0  0  0  0
  -29.4754  -12.5050   18.1826 C   0  0  0  0  0  0
  -28.0038  -12.3429   18.6063 C   0  0  0  0  0  0
  -27.6589  -13.1837   19.8571 C   0  0  2  0  0  0
  -28.6985  -12.9510   20.9763 C   0  0  0  0  0  0
  -25.2590  -13.8118   20.5555 C   0  0  0  0  0  0
  -24.1858  -13.0414   20.9178 C   0  0  0  0  0  0
  -24.6408  -11.6881   20.8753 C   0  0  0  0  0  0
  -23.9089  -10.4283   21.0406 C   0  0  0  0  0  0
  -24.3672   -9.4193   21.9158 C   0  0  0  0  0  0
  -23.6323   -8.2241   22.0757 C   0  0  0  0  0  0
  -22.4287   -8.0304   21.3557 C   0  0  0  0  0  0
  -21.9947   -9.0274   20.4656 C   0  0  0  0  0  0
  -22.7278  -10.2136   20.3061 C   0  0  0  0  0  0
  -21.6829   -6.0760   22.5324 C   0  0  0  0  0  0
  -21.3963   -6.5642   23.8260 C   0  0  0  0  0  0
  -21.3667   -5.6797   24.9218 C   0  0  0  0  0  0
  -21.6062   -4.3069   24.7258 C   0  0  0  0  0  0
  -21.8803   -3.8159   23.4364 C   0  0  0  0  0  0
  -21.9183   -4.6989   22.3424 C   0  0  0  0  0  0
  -22.7880  -13.5221   21.1823 C   0  0  0  0  0  0
  -22.1652   -4.2160   21.0986 F   0  0  0  0  0  0
  -21.5697   -3.4548   25.7767 F   0  0  0  0  0  0
  -30.0441  -13.2425   20.4454 N   0  0  0  0  0  0
  -26.3010  -12.9256   20.3246 N   0  0  0  0  0  0
  -25.9311  -11.6442   20.5743 N   0  0  0  0  0  0
  -22.0507  -12.8250   22.0400 N   0  0  0  0  0  0
  -25.4194  -15.1819   20.3729 N   0  0  0  0  0  0
  -31.7787  -14.6710   20.0328 O   0  0  0  0  0  0
  -21.6619   -6.8920   21.4281 O   0  0  0  0  0  0
  -22.3558  -14.5509   20.6628 O   0  0  0  0  0  0
  -24.6127  -31.8689   23.2125 C   0  0  0  0  0  0
  -25.9034  -32.4821   23.8391 C   0  0  1  0  0  0
  -27.2407  -27.4632   20.0888 C   0  0  0  0  0  0
  -25.5894  -33.8615   24.2330 N   0  0  0  0  0  0
  -23.3992  -30.4900   21.5553 C   0  0  2  0  0  0
  -24.8465  -28.9517   20.1255 C   0  0  0  0  0  0
  -22.7398  -29.4639   22.5058 C   0  0  0  0  0  0
  -18.0258  -28.1380   22.8509 C   0  0  0  0  0  0
  -24.1489  -36.7320   23.2636 C   0  0  0  0  0  0
  -25.9247  -30.8383   21.3633 C   0  0  0  0  0  0
  -26.0047  -29.4716   20.7187 C   0  0  0  0  0  0
  -27.2068  -28.7347   20.6986 C   0  0  0  0  0  0
  -26.0688  -26.9432   19.5038 C   0  0  0  0  0  0
  -24.8692  -27.6795   19.5222 C   0  0  0  0  0  0
  -23.6089  -29.8180   20.1703 C   0  0  0  0  0  0
  -25.4112  -36.3118   24.0338 C   0  0  1  0  0  0
  -20.5849  -28.3638   23.1357 C   0  0  2  0  0  0
  -20.6773  -26.9394   22.5433 C   0  0  0  0  0  0
  -19.5741  -26.6394   21.5240 C   0  0  0  0  0  0
  -18.1911  -26.7930   22.1634 C   0  0  0  0  0  0
  -19.1512  -28.8836   23.2917 C   0  0  0  0  0  0
  -18.9439  -30.1461   23.8912 C   0  0  0  0  0  0
  -17.6439  -30.6595   24.0574 C   0  0  0  0  0  0
  -25.9035  -34.9482   23.5131 C   0  0  0  0  0  0
  -16.5336  -29.9101   23.6324 C   0  0  0  0  0  0
  -16.7248  -28.6521   23.0336 C   0  0  0  0  0  0
  -26.4475  -31.6577   25.0694 C   0  0  0  0  0  0
  -25.3752  -31.3671   26.1441 C   0  0  0  0  0  0
  -27.0264  -30.3012   24.6014 C   0  0  0  0  0  0
  -27.6045  -32.4289   25.7457 C   0  0  0  0  0  0
  -27.5581  -37.1814   24.8464 C   0  0  0  0  0  0
  -21.4133  -29.3002   22.3767 N   0  0  0  0  0  0
  -26.4305  -37.3796   23.9405 N   0  0  0  0  0  0
  -24.6639  -31.0795   22.1022 N   0  0  0  0  0  0
  -23.4176  -28.8177   23.3094 O   0  0  0  0  0  0
  -28.4110  -26.7552   19.9785 O   0  0  0  0  0  0
  -26.5597  -34.8928   22.4686 O   0  0  0  0  0  0
  -23.5328  -32.1430   23.7536 O   0  0  0  0  0  0
  -27.8422  -19.8702   19.1473 C   0  0  0  0  0  0
  -27.9471  -19.2406   21.2871 C   0  0  0  0  0  0
  -27.6449  -20.3122   20.4897 C   0  0  0  0  0  0
  -28.1969  -18.5441   19.1633 C   0  0  0  0  0  0
  -28.4797  -17.6253   18.0249 C   0  0  0  0  0  0
  -26.3564  -21.5435   22.2589 C   0  0  0  0  0  0
  -29.5223  -26.5894   22.1009 C   0  0  0  0  0  0
  -30.5490  -14.8678   23.0328 C   0  0  0  0  0  0
  -29.5093  -24.6628   20.4400 C   0  0  0  0  0  0
  -28.5525  -16.8363   21.0481 C   0  0  0  0  0  0
  -30.0431  -16.6117   21.3403 C   0  0  0  0  0  0
  -28.6409  -23.4632   20.0098 C   0  0  0  0  0  0
  -27.1662  -21.6715   20.9600 C   0  0  1  0  0  0
  -28.7089  -25.8463   21.0336 C   0  0  2  0  0  0
  -28.2649  -18.1530   20.5009 N   0  0  0  0  0  0
  -27.8465  -17.8970   16.8918 N   0  0  0  0  0  0
  -30.2791  -15.1893   21.6313 N   0  0  0  0  0  0
  -28.3008  -22.5927   21.1599 N   0  3  0  0  0  0
  -29.2067  -16.6402   18.1274 O   0  0  0  0  0  0
  -31.4584  -12.4083   19.0713 H   0  0  0  0  0  0
  -30.3316  -11.2785   19.7715 H   0  0  0  0  0  0
  -29.7139  -11.7859   17.3954 H   0  0  0  0  0  0
  -29.6296  -13.4968   17.7512 H   0  0  0  0  0  0
  -27.8297  -11.2845   18.8126 H   0  0  0  0  0  0
  -27.3333  -12.6033   17.7857 H   0  0  0  0  0  0
  -27.7003  -14.2177   19.5343 H   0  0  0  0  0  0
  -28.6632  -11.9113   21.2995 H   0  0  0  0  0  0
  -28.4394  -13.5323   21.8616 H   0  0  0  0  0  0
  -25.2828   -9.5648   22.4722 H   0  0  0  0  0  0
  -24.0024   -7.4645   22.7495 H   0  0  0  0  0  0
  -21.0888   -8.8840   19.8954 H   0  0  0  0  0  0
  -22.3780  -10.9709   19.6205 H   0  0  0  0  0  0
  -21.1901   -7.6133   23.9764 H   0  0  0  0  0  0
  -21.1517   -6.0504   25.9116 H   0  0  0  0  0  0
  -22.0567   -2.7607   23.2881 H   0  0  0  0  0  0
  -22.4088  -11.9926   22.4871 H   0  0  0  0  0  0
  -21.1141  -13.1347   22.2573 H   0  0  0  0  0  0
  -24.6346  -15.8197   20.4701 H   0  0  0  0  0  0
  -26.2191  -15.6061   19.9215 H   0  0  0  0  0  0
  -26.7096  -32.5529   23.1146 H   0  0  0  0  0  0
  -25.0054  -33.9782   25.0476 H   0  0  0  0  0  0
  -22.6866  -31.3061   21.4172 H   0  0  0  0  0  0
  -23.3748  -35.9656   23.3326 H   0  0  0  0  0  0
  -24.3590  -36.8899   22.2047 H   0  0  0  0  0  0
  -23.7259  -37.6536   23.6633 H   0  0  0  0  0  0
  -26.0274  -31.6018   20.5906 H   0  0  0  0  0  0
  -26.8182  -30.8991   21.9731 H   0  0  0  0  0  0
  -28.1068  -29.1441   21.1344 H   0  0  0  0  0  0
  -26.0953  -25.9779   19.0207 H   0  0  0  0  0  0
  -23.9796  -27.2706   19.0632 H   0  0  0  0  0  0
  -23.7179  -30.5942   19.4111 H   0  0  0  0  0  0
  -22.7330  -29.2381   19.8715 H   0  0  0  0  0  0
  -25.1296  -36.1977   25.0836 H   0  0  0  0  0  0
  -20.9911  -28.3201   24.1486 H   0  0  0  0  0  0
  -20.5718  -26.2242   23.3605 H   0  0  0  0  0  0
  -21.6637  -26.7477   22.1191 H   0  0  0  0  0  0
  -19.6908  -25.6312   21.1247 H   0  0  0  0  0  0
  -19.6701  -27.3231   20.6796 H   0  0  0  0  0  0
  -17.4194  -26.6690   21.4018 H   0  0  0  0  0  0
  -18.0292  -26.0075   22.9024 H   0  0  0  0  0  0
  -19.7916  -30.7282   24.2274 H   0  0  0  0  0  0
  -17.4992  -31.6268   24.5174 H   0  0  0  0  0  0
  -15.5332  -30.3000   23.7669 H   0  0  0  0  0  0
  -15.8640  -28.0863   22.7014 H   0  0  0  0  0  0
  -24.5942  -30.6993   25.7787 H   0  0  0  0  0  0
  -24.8927  -32.2823   26.4873 H   0  0  0  0  0  0
  -25.8119  -30.8854   27.0195 H   0  0  0  0  0  0
  -26.2761  -29.6805   24.1093 H   0  0  0  0  0  0
  -27.4070  -29.7199   25.4424 H   0  0  0  0  0  0
  -27.8597  -30.4321   23.9107 H   0  0  0  0  0  0
  -27.2646  -33.3578   26.2041 H   0  0  0  0  0  0
  -28.3848  -32.6853   25.0285 H   0  0  0  0  0  0
  -28.0707  -31.8402   26.5360 H   0  0  0  0  0  0
  -28.2607  -38.0098   24.7498 H   0  0  0  0  0  0
  -28.1070  -36.2632   24.6320 H   0  0  0  0  0  0
  -27.2296  -37.1492   25.8863 H   0  0  0  0  0  0
  -20.9309  -29.8704   21.6966 H   0  0  0  0  0  0
  -26.0196  -38.2868   24.1403 H   0  0  0  0  0  0
  -27.7012  -20.4547   18.2484 H   0  0  0  0  0  0
  -27.9202  -19.1414   22.3650 H   0  0  0  0  0  0
  -25.5162  -20.8626   22.1176 H   0  0  0  0  0  0
  -26.9641  -21.1536   23.0766 H   0  0  0  0  0  0
  -25.9483  -22.5025   22.5751 H   0  0  0  0  0  0
  -29.8123  -25.9126   22.9046 H   0  0  0  0  0  0
  -28.9463  -27.3967   22.5546 H   0  0  0  0  0  0
  -30.4305  -27.0164   21.6732 H   0  0  0  0  0  0
  -30.4096  -13.8069   23.2358 H   0  0  0  0  0  0
  -31.5805  -15.1209   23.2904 H   0  0  0  0  0  0
  -29.8765  -15.4057   23.6988 H   0  0  0  0  0  0
  -30.0744  -25.0209   19.5802 H   0  0  0  0  0  0
  -30.2600  -24.3118   21.1495 H   0  0  0  0  0  0
  -27.9788  -16.7030   21.9659 H   0  0  0  0  0  0
  -28.1758  -16.0865   20.3632 H   0  0  0  0  0  0
  -30.3563  -17.2373   22.1763 H   0  0  0  0  0  0
  -30.6344  -16.9401   20.4819 H   0  0  0  0  0  0
  -29.1793  -22.8568   19.2811 H   0  0  0  0  0  0
  -27.7428  -23.8293   19.5085 H   0  0  0  0  0  0
  -26.4939  -22.0726   20.1996 H   0  0  0  0  0  0
  -27.7864  -25.4765   21.4881 H   0  0  0  0  0  0
  -27.2245  -18.6897   16.8432 H   0  0  0  0  0  0
  -27.9644  -17.3106   16.0767 H   0  0  0  0  0  0
  -28.0619  -23.1753   21.9452 H   0  0  0  0  0  0
  -29.1059  -22.0406   21.4169 H   0  0  0  0  0  0
  1 25  1  0  0  0
  1 30  2  0  0  0
  1 87  1  0  0  0
  2  3  1  0  0  0
  2 25  1  0  0  0
  2 90  1  0  0  0
  2 91  1  0  0  0
  3  4  1  0  0  0
  3 92  1  0  0  0
  3 93  1  0  0  0
  4  5  1  0  0  0
  4 94  1  0  0  0
  4 95  1  0  0  0
  5  6  1  0  0  0
  5 26  1  0  0  0
  5 96  1  0  0  0
  6 25  1  0  0  0
  6 97  1  0  0  0
  6 98  1  0  0  0
  7  8  2  0  0  0
  7 26  1  0  0  0
  7 29  1  0  0  0
  8  9  1  0  0  0
  8 22  1  0  0  0
  9 10  1  0  0  0
  9 27  2  0  0  0
 10 11  2  0  0  0
 10 15  1  0  0  0
 11 12  1  0  0  0
 11 99  1  0  0  0
 12 13  2  0  0  0
 12100  1  0  0  0
 13 14  1  0  0  0
 13 31  1  0  0  0
 14 15  2  0  0  0
 14101  1  0  0  0
 15102  1  0  0  0
 16 17  2  0  0  0
 16 21  1  0  0  0
 16 31  1  0  0  0
 17 18  1  0  0  0
 17103  1  0  0  0
 18 19  2  0  0  0
 18104  1  0  0  0
 19 20  1  0  0  0
 19 24  1  0  0  0
 20 21  2  0  0  0
 20105  1  0  0  0
 21 23  1  0  0  0
 22 28  1  0  0  0
 22 32  2  0  0  0
 26 27  1  0  0  0
 28106  1  0  0  0
 28107  1  0  0  0
 29108  1  0  0  0
 29109  1  0  0  0
 33 34  1  0  0  0
 33 66  1  0  0  0
 33 70  2  0  0  0
 34 36  1  0  0  0
 34 59  1  0  0  0
 34110  1  0  0  0
 35 44  2  0  0  0
 35 45  1  0  0  0
 35 68  1  0  0  0
 36 56  1  0  0  0
 36111  1  0  0  0
 37 39  1  0  0  0
 37 47  1  0  0  0
 37 66  1  0  0  0
 37112  1  0  0  0
 38 43  2  0  0  0
 38 46  1  0  0  0
 38 47  1  0  0  0
 39 64  1  0  0  0
 39 67  2  0  0  0
 40 52  1  0  0  0
 40 53  2  0  0  0
 40 58  1  0  0  0
 41113  1  0  0  0
 41114  1  0  0  0
 41115  1  0  0  0
 41 48  1  0  0  0
 42 43  1  0  0  0
 42 66  1  0  0  0
 42116  1  0  0  0
 42117  1  0  0  0
 43 44  1  0  0  0
 44118  1  0  0  0
 45 46  2  0  0  0
 45119  1  0  0  0
 46120  1  0  0  0
 47121  1  0  0  0
 47122  1  0  0  0
 48 56  1  0  0  0
 48 65  1  0  0  0
 48123  1  0  0  0
 49 50  1  0  0  0
 49 53  1  0  0  0
 49 64  1  0  0  0
 49124  1  0  0  0
 50 51  1  0  0  0
 50125  1  0  0  0
 50126  1  0  0  0
 51 52  1  0  0  0
 51127  1  0  0  0
 51128  1  0  0  0
 52129  1  0  0  0
 52130  1  0  0  0
 53 54  1  0  0  0
 54 55  2  0  0  0
 54131  1  0  0  0
 55 57  1  0  0  0
 55132  1  0  0  0
 56 69  2  0  0  0
 57 58  2  0  0  0
 57133  1  0  0  0
 58134  1  0  0  0
 59 60  1  0  0  0
 59 61  1  0  0  0
 59 62  1  0  0  0
 60135  1  0  0  0
 60136  1  0  0  0
 60137  1  0  0  0
 61138  1  0  0  0
 61139  1  0  0  0
 61140  1  0  0  0
 62141  1  0  0  0
 62142  1  0  0  0
 62143  1  0  0  0
 63 65  1  0  0  0
 63144  1  0  0  0
 63145  1  0  0  0
 63146  1  0  0  0
 64147  1  0  0  0
 65148  1  0  0  0
 68 84  1  0  0  0
 71 73  1  0  0  0
 71 74  2  0  0  0
 71149  1  0  0  0
 72 73  2  0  0  0
 72 85  1  0  0  0
 72150  1  0  0  0
 73 83  1  0  0  0
 74 75  1  0  0  0
 74 85  1  0  0  0
 75 86  1  0  0  0
 75 89  2  0  0  0
 76151  1  0  0  0
 76152  1  0  0  0
 76153  1  0  0  0
 76 83  1  0  0  0
 77154  1  0  0  0
 77155  1  0  0  0
 77156  1  0  0  0
 77 84  1  0  0  0
 78 87  1  0  0  0
 78157  1  0  0  0
 78158  1  0  0  0
 78159  1  0  0  0
 79 82  1  0  0  0
 79 84  1  0  0  0
 79160  1  0  0  0
 79161  1  0  0  0
 80 81  1  0  0  0
 80 85  1  0  0  0
 80162  1  0  0  0
 80163  1  0  0  0
 81 87  1  0  0  0
 81164  1  0  0  0
 81165  1  0  0  0
 82 88  1  0  0  0
 82166  1  0  0  0
 82167  1  0  0  0
 83 88  1  0  0  0
 83168  1  0  0  0
 84169  1  0  0  0
 86170  1  0  0  0
 86171  1  0  0  0
 88172  1  0  0  0
 88173  1  0  0  0
M  CHG  1  88   1
M  ISO  4   1 100  68 101  84 101  87 100
M  END
> <chiral flag>
0

> <version>
0

> <s_m_source_file>
/data/baiqing/PycharmProjects/Reinvent-master-3.2/result/LINK_invent/BTK/process_docking_weight1_custom_sum_contain_oxygen_bond_distance_aromatic_linkinvent_7_9_3/rearranged_h_0116.sdf

> <i_m_source_file_index>
85

> <r_mmod_Potential_Energy-OPLS-2005>
-249.368881225586

> <r_mmod_Stretch_Energy-OPLS-2005>
32.858097076416

> <r_mmod_Bend_Energy-OPLS-2005>
93.5050888061523

> <r_mmod_Torsional_Energy-OPLS-2005>
339.357269287109

> <r_mmod_Improper_Torsional_Energy-OPLS-2005>
4.86115598678589

> <r_mmod_Van_der_Waal_Energy-OPLS-2005>
115.286041259766

> <r_mmod_Electrostatic_Energy-OPLS-2005>
-378.677947998047

> <r_mmod_Solvation_Energy-OPLS-2005>
-463.915618896484

> <b_mmod_Minimization_Converged-OPLS-2005>
0

> <r_mmod_RMS_Derivative-OPLS-2005>
4.63592672348022

$$$$
86
                    3D
 Structure written by MMmdl.
177185  0  0  1  0            999 V2000
  -30.7988  -14.3811   20.7291 C   0  0  0  0  0  0
  -30.4223  -12.3190   19.4080 C   0  0  0  0  0  0
  -29.4923  -12.5532   18.2062 C   0  0  0  0  0  0
  -28.0184  -12.3953   18.6190 C   0  0  0  0  0  0
  -27.6658  -13.2163   19.8846 C   0  0  2  0  0  0
  -28.7072  -12.9914   21.0066 C   0  0  0  0  0  0
  -25.2583  -13.8165   20.5735 C   0  0  0  0  0  0
  -24.1839  -13.0429   20.9183 C   0  0  0  0  0  0
  -24.6437  -11.6896   20.8739 C   0  0  0  0  0  0
  -23.9096  -10.4290   21.0404 C   0  0  0  0  0  0
  -24.3657   -9.4167   21.9131 C   0  0  0  0  0  0
  -23.6300   -8.2227   22.0705 C   0  0  0  0  0  0
  -22.4246   -8.0322   21.3541 C   0  0  0  0  0  0
  -21.9854   -9.0357   20.4705 C   0  0  0  0  0  0
  -22.7214  -10.2220   20.3144 C   0  0  0  0  0  0
  -21.6882   -6.0758   22.5277 C   0  0  0  0  0  0
  -21.4074   -6.5630   23.8238 C   0  0  0  0  0  0
  -21.3690   -5.6740   24.9168 C   0  0  0  0  0  0
  -21.6087   -4.3018   24.7175 C   0  0  0  0  0  0
  -21.8836   -3.8143   23.4287 C   0  0  0  0  0  0
  -21.9204   -4.6978   22.3362 C   0  0  0  0  0  0
  -22.7847  -13.5221   21.1821 C   0  0  0  0  0  0
  -22.1642   -4.2171   21.0927 F   0  0  0  0  0  0
  -21.5634   -3.4483   25.7675 F   0  0  0  0  0  0
  -30.0585  -13.2634   20.4761 N   0  0  0  0  0  0
  -26.3065  -12.9362   20.3427 N   0  0  0  0  0  0
  -25.9371  -11.6516   20.5788 N   0  0  0  0  0  0
  -22.0410  -12.8216   22.0302 N   0  0  0  0  0  0
  -25.4279  -15.1874   20.4153 N   0  0  0  0  0  0
  -31.7410  -14.7372   20.0136 O   0  0  0  0  0  0
  -21.6610   -6.8919   21.4255 O   0  0  0  0  0  0
  -22.3558  -14.5578   20.6732 O   0  0  0  0  0  0
  -24.6150  -31.8708   23.2114 C   0  0  0  0  0  0
  -25.9044  -32.4837   23.8402 C   0  0  1  0  0  0
  -27.2283  -27.4401   20.0769 C   0  0  0  0  0  0
  -25.5910  -33.8637   24.2330 N   0  0  0  0  0  0
  -23.3994  -30.4983   21.5560 C   0  0  2  0  0  0
  -24.8413  -28.9711   20.1131 C   0  0  0  0  0  0
  -22.7392  -29.4692   22.5018 C   0  0  0  0  0  0
  -18.0267  -28.1367   22.8487 C   0  0  0  0  0  0
  -24.1508  -36.7341   23.2629 C   0  0  0  0  0  0
  -25.9307  -30.8360   21.3640 C   0  0  0  0  0  0
  -26.0050  -29.4738   20.7068 C   0  0  0  0  0  0
  -27.2000  -28.7161   20.6877 C   0  0  0  0  0  0
  -26.0386  -26.9666   19.4659 C   0  0  0  0  0  0
  -24.8506  -27.7143   19.4946 C   0  0  0  0  0  0
  -23.6032  -29.8365   20.1692 C   0  0  0  0  0  0
  -25.4125  -36.3130   24.0331 C   0  0  1  0  0  0
  -20.5850  -28.3665   23.1314 C   0  0  2  0  0  0
  -20.6772  -26.9409   22.5409 C   0  0  0  0  0  0
  -19.5759  -26.6390   21.5197 C   0  0  0  0  0  0
  -18.1933  -26.7915   22.1615 C   0  0  0  0  0  0
  -19.1513  -28.8831   23.2897 C   0  0  0  0  0  0
  -18.9443  -30.1434   23.8911 C   0  0  0  0  0  0
  -17.6449  -30.6575   24.0562 C   0  0  0  0  0  0
  -25.9048  -34.9488   23.5129 C   0  0  0  0  0  0
  -16.5339  -29.9084   23.6316 C   0  0  0  0  0  0
  -16.7254  -28.6497   23.0341 C   0  0  0  0  0  0
  -26.4459  -31.6603   25.0723 C   0  0  0  0  0  0
  -25.3708  -31.3703   26.1457 C   0  0  0  0  0  0
  -27.0260  -30.3039   24.6086 C   0  0  0  0  0  0
  -27.6060  -32.4294   25.7475 C   0  0  0  0  0  0
  -27.5599  -37.1828   24.8456 C   0  0  0  0  0  0
  -21.4125  -29.3040   22.3726 N   0  0  0  0  0  0
  -26.4315  -37.3804   23.9387 N   0  0  0  0  0  0
  -24.6677  -31.0809   22.1025 N   0  0  0  0  0  0
  -23.4163  -28.8225   23.3051 O   0  0  0  0  0  0
  -28.3910  -26.6851   20.1005 O   0  0  0  0  0  0
  -26.5608  -34.8924   22.4689 O   0  0  0  0  0  0
  -23.5347  -32.1473   23.7504 O   0  0  0  0  0  0
  -30.4375  -18.7979   22.3401 C   0  0  0  0  0  0
  -29.0559  -18.1881   20.4095 C   0  0  0  0  0  0
  -30.4386  -17.3710   22.9118 C   0  0  0  0  0  0
  -28.8974  -16.7164   20.8496 C   0  0  0  0  0  0
  -29.1190  -19.1051   21.6353 C   0  0  2  0  0  0
  -29.7444  -16.2330   22.0881 C   0  0  1  0  0  0
  -32.6811  -14.6705   23.2816 C   0  0  0  0  0  0
  -30.3972  -14.4707   24.4239 C   0  0  0  0  0  0
  -30.7836  -22.0564   21.8725 C   0  0  0  0  0  0
  -30.2819  -21.2967   19.5218 C   0  0  0  0  0  0
  -28.7197  -20.5958   21.4350 C   0  0  0  0  0  0
  -29.3391  -24.3468   20.3913 C   0  0  0  0  0  0
  -28.7396  -22.9415   20.6560 C   0  0  0  0  0  0
  -28.2039  -25.2734   19.9148 C   0  0  0  0  0  0
  -31.1839  -14.3254   23.1087 C   0  0  0  0  0  0
  -29.6654  -21.7072   20.8699 C   0  0  0  0  0  0
  -30.5608  -14.9826   21.9232 N   0  0  0  0  0  0
  -31.4686  -12.4211   19.1105 H   0  0  0  0  0  0
  -30.3195  -11.2964   19.7750 H   0  0  0  0  0  0
  -29.7366  -11.8624   17.3978 H   0  0  0  0  0  0
  -29.6538  -13.5581   17.8152 H   0  0  0  0  0  0
  -27.8331  -11.3361   18.8021 H   0  0  0  0  0  0
  -27.3653  -12.6834   17.7955 H   0  0  0  0  0  0
  -27.7047  -14.2653   19.5985 H   0  0  0  0  0  0
  -28.6671  -11.9602   21.3626 H   0  0  0  0  0  0
  -28.4543  -13.6114   21.8665 H   0  0  0  0  0  0
  -25.2839   -9.5570   22.4634 H   0  0  0  0  0  0
  -24.0039   -7.4546   22.7337 H   0  0  0  0  0  0
  -21.0728   -8.9025   19.9058 H   0  0  0  0  0  0
  -22.3657  -10.9857   19.6367 H   0  0  0  0  0  0
  -21.2101   -7.6130   23.9812 H   0  0  0  0  0  0
  -21.1504   -6.0394   25.9088 H   0  0  0  0  0  0
  -22.0599   -2.7606   23.2737 H   0  0  0  0  0  0
  -22.3934  -11.9825   22.4689 H   0  0  0  0  0  0
  -21.0972  -13.1212   22.2318 H   0  0  0  0  0  0
  -24.6694  -15.8490   20.5437 H   0  0  0  0  0  0
  -26.2821  -15.6215   20.0937 H   0  0  0  0  0  0
  -26.7112  -32.5528   23.1165 H   0  0  0  0  0  0
  -25.0041  -33.9810   25.0462 H   0  0  0  0  0  0
  -22.6894  -31.3172   21.4226 H   0  0  0  0  0  0
  -23.3759  -35.9684   23.3293 H   0  0  0  0  0  0
  -24.3610  -36.8958   22.2046 H   0  0  0  0  0  0
  -23.7276  -37.6555   23.6639 H   0  0  0  0  0  0
  -26.0407  -31.6035   20.5968 H   0  0  0  0  0  0
  -26.8206  -30.8862   21.9792 H   0  0  0  0  0  0
  -28.0958  -29.1020   21.1529 H   0  0  0  0  0  0
  -25.9951  -26.0161   18.9559 H   0  0  0  0  0  0
  -23.9551  -27.3195   19.0340 H   0  0  0  0  0  0
  -23.7044  -30.6148   19.4125 H   0  0  0  0  0  0
  -22.7261  -29.2580   19.8750 H   0  0  0  0  0  0
  -25.1303  -36.2014   25.0827 H   0  0  0  0  0  0
  -20.9931  -28.3228   24.1436 H   0  0  0  0  0  0
  -20.5678  -26.2272   23.3586 H   0  0  0  0  0  0
  -21.6650  -26.7469   22.1203 H   0  0  0  0  0  0
  -19.6934  -25.6306   21.1219 H   0  0  0  0  0  0
  -19.6701  -27.3208   20.6729 H   0  0  0  0  0  0
  -17.4204  -26.6632   21.4022 H   0  0  0  0  0  0
  -18.0358  -26.0052   22.9013 H   0  0  0  0  0  0
  -19.7919  -30.7238   24.2296 H   0  0  0  0  0  0
  -17.5005  -31.6255   24.5169 H   0  0  0  0  0  0
  -15.5343  -30.2998   23.7619 H   0  0  0  0  0  0
  -15.8649  -28.0817   22.7053 H   0  0  0  0  0  0
  -24.5891  -30.7051   25.7770 H   0  0  0  0  0  0
  -24.8875  -32.2849   26.4901 H   0  0  0  0  0  0
  -25.8039  -30.8862   27.0217 H   0  0  0  0  0  0
  -26.2788  -29.6841   24.1113 H   0  0  0  0  0  0
  -27.3994  -29.7241   25.4538 H   0  0  0  0  0  0
  -27.8647  -30.4353   23.9242 H   0  0  0  0  0  0
  -27.2710  -33.3579   26.2105 H   0  0  0  0  0  0
  -28.3831  -32.6875   25.0267 H   0  0  0  0  0  0
  -28.0763  -31.8372   26.5336 H   0  0  0  0  0  0
  -28.2621  -38.0123   24.7499 H   0  0  0  0  0  0
  -28.1094  -36.2655   24.6292 H   0  0  0  0  0  0
  -27.2304  -37.1489   25.8855 H   0  0  0  0  0  0
  -20.9271  -29.8768   21.6959 H   0  0  0  0  0  0
  -26.0221  -38.2892   24.1353 H   0  0  0  0  0  0
  -31.2719  -18.9172   21.6490 H   0  0  0  0  0  0
  -30.6044  -19.4992   23.1571 H   0  0  0  0  0  0
  -28.2167  -18.4624   19.7695 H   0  0  0  0  0  0
  -29.9489  -18.3017   19.7944 H   0  0  0  0  0  0
  -29.9374  -17.4326   23.8803 H   0  0  0  0  0  0
  -31.4671  -17.1218   23.1442 H   0  0  0  0  0  0
  -29.0188  -16.0969   19.9646 H   0  0  0  0  0  0
  -27.8476  -16.5921   21.1167 H   0  0  0  0  0  0
  -28.3289  -18.7519   22.3018 H   0  0  0  0  0  0
  -28.9567  -15.8846   22.7553 H   0  0  0  0  0  0
  -33.1834  -13.9195   23.8947 H   0  0  0  0  0  0
  -32.8453  -15.6268   23.7748 H   0  0  0  0  0  0
  -33.2099  -14.6993   22.3267 H   0  0  0  0  0  0
  -29.3607  -14.1550   24.3055 H   0  0  0  0  0  0
  -30.4040  -15.4870   24.8124 H   0  0  0  0  0  0
  -30.8297  -13.8368   25.1987 H   0  0  0  0  0  0
  -31.4875  -21.2359   21.9947 H   0  0  0  0  0  0
  -30.3802  -22.3007   22.8565 H   0  0  0  0  0  0
  -31.3747  -22.9080   21.5378 H   0  0  0  0  0  0
  -30.9381  -20.4338   19.6271 H   0  0  0  0  0  0
  -30.8838  -22.1020   19.1000 H   0  0  0  0  0  0
  -29.5139  -21.0436   18.7895 H   0  0  0  0  0  0
  -27.8030  -20.5903   20.8393 H   0  0  0  0  0  0
  -28.3919  -20.9412   22.4164 H   0  0  0  0  0  0
  -30.1322  -24.3123   19.6443 H   0  0  0  0  0  0
  -29.7789  -24.7399   21.3085 H   0  0  0  0  0  0
  -28.0591  -22.7076   19.8357 H   0  0  0  0  0  0
  -28.0949  -23.0469   21.5306 H   0  0  0  0  0  0
  -27.3134  -24.9770   20.4748 H   0  0  0  0  0  0
  -28.0067  -25.0715   18.8598 H   0  0  0  0  0  0
  -31.1638  -13.2485   22.9186 H   0  0  0  0  0  0
  1 25  1  0  0  0
  1 30  2  0  0  0
  1 87  1  0  0  0
  2  3  1  0  0  0
  2 25  1  0  0  0
  2 88  1  0  0  0
  2 89  1  0  0  0
  3  4  1  0  0  0
  3 90  1  0  0  0
  3 91  1  0  0  0
  4  5  1  0  0  0
  4 92  1  0  0  0
  4 93  1  0  0  0
  5  6  1  0  0  0
  5 26  1  0  0  0
  5 94  1  0  0  0
  6 25  1  0  0  0
  6 95  1  0  0  0
  6 96  1  0  0  0
  7  8  2  0  0  0
  7 26  1  0  0  0
  7 29  1  0  0  0
  8  9  1  0  0  0
  8 22  1  0  0  0
  9 10  1  0  0  0
  9 27  2  0  0  0
 10 11  2  0  0  0
 10 15  1  0  0  0
 11 12  1  0  0  0
 11 97  1  0  0  0
 12 13  2  0  0  0
 12 98  1  0  0  0
 13 14  1  0  0  0
 13 31  1  0  0  0
 14 15  2  0  0  0
 14 99  1  0  0  0
 15100  1  0  0  0
 16 17  2  0  0  0
 16 21  1  0  0  0
 16 31  1  0  0  0
 17 18  1  0  0  0
 17101  1  0  0  0
 18 19  2  0  0  0
 18102  1  0  0  0
 19 20  1  0  0  0
 19 24  1  0  0  0
 20 21  2  0  0  0
 20103  1  0  0  0
 21 23  1  0  0  0
 22 28  1  0  0  0
 22 32  2  0  0  0
 26 27  1  0  0  0
 28104  1  0  0  0
 28105  1  0  0  0
 29106  1  0  0  0
 29107  1  0  0  0
 33 34  1  0  0  0
 33 66  1  0  0  0
 33 70  2  0  0  0
 34 36  1  0  0  0
 34 59  1  0  0  0
 34108  1  0  0  0
 35 44  2  0  0  0
 35 45  1  0  0  0
 35 68  1  0  0  0
 36 56  1  0  0  0
 36109  1  0  0  0
 37 39  1  0  0  0
 37 47  1  0  0  0
 37 66  1  0  0  0
 37110  1  0  0  0
 38 43  2  0  0  0
 38 46  1  0  0  0
 38 47  1  0  0  0
 39 64  1  0  0  0
 39 67  2  0  0  0
 40 52  1  0  0  0
 40 53  2  0  0  0
 40 58  1  0  0  0
 41111  1  0  0  0
 41112  1  0  0  0
 41113  1  0  0  0
 41 48  1  0  0  0
 42 43  1  0  0  0
 42 66  1  0  0  0
 42114  1  0  0  0
 42115  1  0  0  0
 43 44  1  0  0  0
 44116  1  0  0  0
 45 46  2  0  0  0
 45117  1  0  0  0
 46118  1  0  0  0
 47119  1  0  0  0
 47120  1  0  0  0
 48 56  1  0  0  0
 48 65  1  0  0  0
 48121  1  0  0  0
 49 50  1  0  0  0
 49 53  1  0  0  0
 49 64  1  0  0  0
 49122  1  0  0  0
 50 51  1  0  0  0
 50123  1  0  0  0
 50124  1  0  0  0
 51 52  1  0  0  0
 51125  1  0  0  0
 51126  1  0  0  0
 52127  1  0  0  0
 52128  1  0  0  0
 53 54  1  0  0  0
 54 55  2  0  0  0
 54129  1  0  0  0
 55 57  1  0  0  0
 55130  1  0  0  0
 56 69  2  0  0  0
 57 58  2  0  0  0
 57131  1  0  0  0
 58132  1  0  0  0
 59 60  1  0  0  0
 59 61  1  0  0  0
 59 62  1  0  0  0
 60133  1  0  0  0
 60134  1  0  0  0
 60135  1  0  0  0
 61136  1  0  0  0
 61137  1  0  0  0
 61138  1  0  0  0
 62139  1  0  0  0
 62140  1  0  0  0
 62141  1  0  0  0
 63 65  1  0  0  0
 63142  1  0  0  0
 63143  1  0  0  0
 63144  1  0  0  0
 64145  1  0  0  0
 65146  1  0  0  0
 68 84  1  0  0  0
 71 73  1  0  0  0
 71 75  1  0  0  0
 71147  1  0  0  0
 71148  1  0  0  0
 72 74  1  0  0  0
 72 75  1  0  0  0
 72149  1  0  0  0
 72150  1  0  0  0
 73 76  1  0  0  0
 73151  1  0  0  0
 73152  1  0  0  0
 74 76  1  0  0  0
 74153  1  0  0  0
 74154  1  0  0  0
 75 81  1  0  0  0
 75155  1  0  0  0
 76 87  1  0  0  0
 76156  1  0  0  0
 77157  1  0  0  0
 77158  1  0  0  0
 77159  1  0  0  0
 77 85  1  0  0  0
 78 85  1  0  0  0
 78160  1  0  0  0
 78161  1  0  0  0
 78162  1  0  0  0
 79163  1  0  0  0
 79164  1  0  0  0
 79165  1  0  0  0
 79 86  1  0  0  0
 80 86  1  0  0  0
 80166  1  0  0  0
 80167  1  0  0  0
 80168  1  0  0  0
 81 86  1  0  0  0
 81169  1  0  0  0
 81170  1  0  0  0
 82 83  1  0  0  0
 82 84  1  0  0  0
 82171  1  0  0  0
 82172  1  0  0  0
 83 86  1  0  0  0
 83173  1  0  0  0
 83174  1  0  0  0
 84175  1  0  0  0
 84176  1  0  0  0
 85 87  1  0  0  0
 85177  1  0  0  0
M  ISO  4   1 100  68 101  84 101  87 100
M  END
> <chiral flag>
0

> <version>
0

> <s_m_source_file>
/data/baiqing/PycharmProjects/Reinvent-master-3.2/result/LINK_invent/BTK/process_docking_weight1_custom_sum_contain_oxygen_bond_distance_aromatic_linkinvent_7_9_3/rearranged_h_0116.sdf

> <i_m_source_file_index>
86

> <r_mmod_Potential_Energy-OPLS-2005>
357.860961914062

> <r_mmod_Stretch_Energy-OPLS-2005>
48.5613021850586

> <r_mmod_Bend_Energy-OPLS-2005>
165.354354858398

> <r_mmod_Torsional_Energy-OPLS-2005>
392.158538818359

> <r_mmod_Improper_Torsional_Energy-OPLS-2005>
3.65455007553101

> <r_mmod_Van_der_Waal_Energy-OPLS-2005>
155.694915771484

> <r_mmod_Electrostatic_Energy-OPLS-2005>
-252.981353759766

> <r_mmod_Solvation_Energy-OPLS-2005>
-165.76008605957

> <b_mmod_Minimization_Converged-OPLS-2005>
0

> <r_mmod_RMS_Derivative-OPLS-2005>
3.31167817115784

$$$$
87
                    3D
 Structure written by MMmdl.
161169  0  0  1  0            999 V2000
  -30.7243  -14.5429   20.5611 C   0  0  0  0  0  0
  -30.4265  -12.3427   19.4354 C   0  0  0  0  0  0
  -29.4997  -12.4954   18.2138 C   0  0  0  0  0  0
  -28.0177  -12.3493   18.6321 C   0  0  0  0  0  0
  -27.6557  -13.2214   19.8690 C   0  0  2  0  0  0
  -28.7056  -13.0594   20.9890 C   0  0  0  0  0  0
  -25.2566  -13.8149   20.5662 C   0  0  0  0  0  0
  -24.1837  -13.0456   20.9164 C   0  0  0  0  0  0
  -24.6376  -11.6899   20.8754 C   0  0  0  0  0  0
  -23.9052  -10.4303   21.0388 C   0  0  0  0  0  0
  -24.3575   -9.4226   21.9170 C   0  0  0  0  0  0
  -23.6251   -8.2253   22.0734 C   0  0  0  0  0  0
  -22.4239   -8.0256   21.3526 C   0  0  0  0  0  0
  -21.9881   -9.0249   20.4642 C   0  0  0  0  0  0
  -22.7210  -10.2142   20.3038 C   0  0  0  0  0  0
  -21.6832   -6.0702   22.5264 C   0  0  0  0  0  0
  -21.4045   -6.5611   23.8220 C   0  0  0  0  0  0
  -21.3671   -5.6760   24.9177 C   0  0  0  0  0  0
  -21.6024   -4.3007   24.7219 C   0  0  0  0  0  0
  -21.8843   -3.8105   23.4343 C   0  0  0  0  0  0
  -21.9202   -4.6935   22.3395 C   0  0  0  0  0  0
  -22.7841  -13.5243   21.1813 C   0  0  0  0  0  0
  -22.1628   -4.2116   21.0966 F   0  0  0  0  0  0
  -21.5636   -3.4497   25.7751 F   0  0  0  0  0  0
  -30.0295  -13.3717   20.4212 N   0  0  0  0  0  0
  -26.3018  -12.9391   20.3366 N   0  0  0  0  0  0
  -25.9337  -11.6538   20.5808 N   0  0  0  0  0  0
  -22.0456  -12.8286   22.0369 N   0  0  0  0  0  0
  -25.4362  -15.1874   20.3998 N   0  0  0  0  0  0
  -31.8670  -14.6715   20.1209 O   0  0  0  0  0  0
  -21.6622   -6.8833   21.4206 O   0  0  0  0  0  0
  -22.3577  -14.5550   20.6604 O   0  0  0  0  0  0
  -24.6250  -31.8583   23.2071 C   0  0  0  0  0  0
  -25.9119  -32.4801   23.8320 C   0  0  1  0  0  0
  -27.2041  -27.3399   20.0726 C   0  0  0  0  0  0
  -25.5948  -33.8617   24.2275 N   0  0  0  0  0  0
  -23.4132  -30.4876   21.5476 C   0  0  2  0  0  0
  -24.8505  -28.9480   20.1034 C   0  0  0  0  0  0
  -22.7434  -29.4645   22.4976 C   0  0  0  0  0  0
  -18.0258  -28.1374   22.8485 C   0  0  0  0  0  0
  -24.1500  -36.7291   23.2642 C   0  0  0  0  0  0
  -25.9518  -30.7946   21.3684 C   0  0  0  0  0  0
  -26.0207  -29.4244   20.7099 C   0  0  0  0  0  0
  -27.1996  -28.6278   20.6931 C   0  0  0  0  0  0
  -26.0041  -26.9027   19.4734 C   0  0  0  0  0  0
  -24.8443  -27.6923   19.4769 C   0  0  0  0  0  0
  -23.6200  -29.8243   20.1603 C   0  0  0  0  0  0
  -25.4128  -36.3070   24.0306 C   0  0  1  0  0  0
  -20.5848  -28.3676   23.1266 C   0  0  2  0  0  0
  -20.6745  -26.9435   22.5377 C   0  0  0  0  0  0
  -19.5743  -26.6423   21.5138 C   0  0  0  0  0  0
  -18.1945  -26.7921   22.1580 C   0  0  0  0  0  0
  -19.1505  -28.8816   23.2907 C   0  0  0  0  0  0
  -18.9461  -30.1403   23.8922 C   0  0  0  0  0  0
  -17.6480  -30.6593   24.0522 C   0  0  0  0  0  0
  -25.9064  -34.9461   23.5072 C   0  0  0  0  0  0
  -16.5358  -29.9077   23.6360 C   0  0  0  0  0  0
  -16.7232  -28.6485   23.0399 C   0  0  0  0  0  0
  -26.4556  -31.6601   25.0705 C   0  0  0  0  0  0
  -25.3819  -31.3707   26.1456 C   0  0  0  0  0  0
  -27.0343  -30.3019   24.6119 C   0  0  0  0  0  0
  -27.6108  -32.4320   25.7497 C   0  0  0  0  0  0
  -27.5559  -37.1785   24.8466 C   0  0  0  0  0  0
  -21.4164  -29.3086   22.3746 N   0  0  0  0  0  0
  -26.4299  -37.3766   23.9390 N   0  0  0  0  0  0
  -24.6813  -31.0607   22.0980 N   0  0  0  0  0  0
  -23.4159  -28.8138   23.3014 O   0  0  0  0  0  0
  -28.3354  -26.5214   20.0830 O   0  0  0  0  0  0
  -26.5601  -34.8932   22.4616 O   0  0  0  0  0  0
  -23.5436  -32.1362   23.7440 O   0  0  0  0  0  0
  -31.1588  -18.5382   19.6639 C   0  0  0  0  0  0
  -30.7316  -19.7697   19.2402 C   0  0  0  0  0  0
  -30.4877  -18.1878   20.8721 C   0  0  0  0  0  0
  -29.7572  -19.3275   21.2029 C   0  0  0  0  0  0
  -29.0279  -19.6626   22.4572 C   0  0  0  0  0  0
  -26.9604  -23.8859   20.9281 C   0  0  0  0  0  0
  -30.6827  -16.8537   21.6532 C   0  0  0  0  0  0
  -29.1848  -22.8385   19.9420 C   0  0  0  0  0  0
  -28.7798  -21.3241   19.8025 C   0  0  0  0  0  0
  -28.4002  -25.3135   19.2463 C   0  0  0  0  0  0
  -27.9928  -23.8752   19.7725 C   0  0  2  0  0  0
  -29.7529  -20.2239   20.1107 N   0  0  0  0  0  0
  -28.9430  -20.9518   22.7637 N   0  0  0  0  0  0
  -30.0785  -15.5959   21.1236 N   0  0  0  0  0  0
  -28.6185  -18.7921   23.2207 O   0  0  0  0  0  0
  -31.4711  -12.4386   19.1324 H   0  0  0  0  0  0
  -30.3345  -11.3387   19.8573 H   0  0  0  0  0  0
  -29.7539  -11.7561   17.4526 H   0  0  0  0  0  0
  -29.6589  -13.4718   17.7570 H   0  0  0  0  0  0
  -27.8350  -11.2931   18.8539 H   0  0  0  0  0  0
  -27.3663  -12.5994   17.7934 H   0  0  0  0  0  0
  -27.6856  -14.2602   19.5399 H   0  0  0  0  0  0
  -28.7006  -12.0360   21.3696 H   0  0  0  0  0  0
  -28.4631  -13.6947   21.8443 H   0  0  0  0  0  0
  -25.2700   -9.5698   22.4763 H   0  0  0  0  0  0
  -23.9947   -7.4649   22.7454 H   0  0  0  0  0  0
  -21.0805   -8.8735   19.8954 H   0  0  0  0  0  0
  -22.3600  -10.9657   19.6133 H   0  0  0  0  0  0
  -21.2025   -7.6123   23.9693 H   0  0  0  0  0  0
  -21.1479   -6.0496   25.9090 H   0  0  0  0  0  0
  -22.0620   -2.7557   23.2848 H   0  0  0  0  0  0
  -22.4002  -11.9954   22.4833 H   0  0  0  0  0  0
  -21.1092  -13.1390   22.2558 H   0  0  0  0  0  0
  -24.6800  -15.8562   20.5150 H   0  0  0  0  0  0
  -26.2945  -15.6096   20.0695 H   0  0  0  0  0  0
  -26.7190  -32.5466   23.1036 H   0  0  0  0  0  0
  -25.0224  -33.9808   25.0508 H   0  0  0  0  0  0
  -22.7043  -31.3070   21.4100 H   0  0  0  0  0  0
  -23.3752  -35.9612   23.3344 H   0  0  0  0  0  0
  -24.3621  -36.8914   22.2048 H   0  0  0  0  0  0
  -23.7274  -37.6508   23.6678 H   0  0  0  0  0  0
  -26.0628  -31.5523   20.5922 H   0  0  0  0  0  0
  -26.8340  -30.8478   21.9932 H   0  0  0  0  0  0
  -28.1062  -28.9872   21.1644 H   0  0  0  0  0  0
  -25.9107  -25.9314   19.0156 H   0  0  0  0  0  0
  -23.9453  -27.3175   19.0129 H   0  0  0  0  0  0
  -23.7283  -30.5995   19.3995 H   0  0  0  0  0  0
  -22.7433  -29.2469   19.8654 H   0  0  0  0  0  0
  -25.1298  -36.1934   25.0797 H   0  0  0  0  0  0
  -20.9911  -28.3152   24.1399 H   0  0  0  0  0  0
  -20.5670  -26.2267   23.3538 H   0  0  0  0  0  0
  -21.6617  -26.7516   22.1133 H   0  0  0  0  0  0
  -19.6898  -25.6343   21.1168 H   0  0  0  0  0  0
  -19.6656  -27.3224   20.6676 H   0  0  0  0  0  0
  -17.4187  -26.6645   21.4003 H   0  0  0  0  0  0
  -18.0385  -26.0051   22.8988 H   0  0  0  0  0  0
  -19.7951  -30.7200   24.2343 H   0  0  0  0  0  0
  -17.5049  -31.6296   24.5105 H   0  0  0  0  0  0
  -15.5360  -30.2994   23.7653 H   0  0  0  0  0  0
  -15.8656  -28.0769   22.7166 H   0  0  0  0  0  0
  -24.6082  -30.6956   25.7836 H   0  0  0  0  0  0
  -24.8913  -32.2845   26.4819 H   0  0  0  0  0  0
  -25.8202  -30.9003   27.0280 H   0  0  0  0  0  0
  -26.2834  -29.6817   24.1215 H   0  0  0  0  0  0
  -27.4135  -29.7296   25.4596 H   0  0  0  0  0  0
  -27.8696  -30.4327   23.9225 H   0  0  0  0  0  0
  -27.2719  -33.3673   26.1987 H   0  0  0  0  0  0
  -28.3968  -32.6785   25.0345 H   0  0  0  0  0  0
  -28.0684  -31.8484   26.5515 H   0  0  0  0  0  0
  -28.2544  -38.0100   24.7469 H   0  0  0  0  0  0
  -28.1061  -36.2607   24.6299 H   0  0  0  0  0  0
  -27.2310  -37.1477   25.8890 H   0  0  0  0  0  0
  -20.9327  -29.8879   21.7054 H   0  0  0  0  0  0
  -26.0173  -38.2845   24.1398 H   0  0  0  0  0  0
  -31.8822  -17.9154   19.1509 H   0  0  0  0  0  0
  -30.9886  -20.3256   18.3478 H   0  0  0  0  0  0
  -27.0141  -22.9809   21.5312 H   0  0  0  0  0  0
  -25.9452  -23.9162   20.5281 H   0  0  0  0  0  0
  -27.0672  -24.7413   21.6015 H   0  0  0  0  0  0
  -30.2915  -16.9810   22.6577 H   0  0  0  0  0  0
  -31.7524  -16.6934   21.7947 H   0  0  0  0  0  0
  -29.7221  -23.0329   20.8703 H   0  0  0  0  0  0
  -29.8923  -23.0197   19.1287 H   0  0  0  0  0  0
  -28.4896  -21.1710   18.7622 H   0  0  0  0  0  0
  -27.8619  -21.1300   20.3592 H   0  0  0  0  0  0
  -27.8724  -25.4892   18.3099 H   0  0  0  0  0  0
  -29.4355  -25.2240   18.9179 H   0  0  0  0  0  0
  -27.4324  -23.4410   18.9372 H   0  0  0  0  0  0
  -29.3348  -21.6386   22.1356 H   0  0  0  0  0  0
  -28.5146  -21.2493   23.6236 H   0  0  0  0  0  0
  -29.1137  -15.4344   21.3686 H   0  0  0  0  0  0
  1 25  1  0  0  0
  1 30  2  0  0  0
  1 84  1  0  0  0
  2  3  1  0  0  0
  2 25  1  0  0  0
  2 86  1  0  0  0
  2 87  1  0  0  0
  3  4  1  0  0  0
  3 88  1  0  0  0
  3 89  1  0  0  0
  4  5  1  0  0  0
  4 90  1  0  0  0
  4 91  1  0  0  0
  5  6  1  0  0  0
  5 26  1  0  0  0
  5 92  1  0  0  0
  6 25  1  0  0  0
  6 93  1  0  0  0
  6 94  1  0  0  0
  7  8  2  0  0  0
  7 26  1  0  0  0
  7 29  1  0  0  0
  8  9  1  0  0  0
  8 22  1  0  0  0
  9 10  1  0  0  0
  9 27  2  0  0  0
 10 11  2  0  0  0
 10 15  1  0  0  0
 11 12  1  0  0  0
 11 95  1  0  0  0
 12 13  2  0  0  0
 12 96  1  0  0  0
 13 14  1  0  0  0
 13 31  1  0  0  0
 14 15  2  0  0  0
 14 97  1  0  0  0
 15 98  1  0  0  0
 16 17  2  0  0  0
 16 21  1  0  0  0
 16 31  1  0  0  0
 17 18  1  0  0  0
 17 99  1  0  0  0
 18 19  2  0  0  0
 18100  1  0  0  0
 19 20  1  0  0  0
 19 24  1  0  0  0
 20 21  2  0  0  0
 20101  1  0  0  0
 21 23  1  0  0  0
 22 28  1  0  0  0
 22 32  2  0  0  0
 26 27  1  0  0  0
 28102  1  0  0  0
 28103  1  0  0  0
 29104  1  0  0  0
 29105  1  0  0  0
 33 34  1  0  0  0
 33 66  1  0  0  0
 33 70  2  0  0  0
 34 36  1  0  0  0
 34 59  1  0  0  0
 34106  1  0  0  0
 35 44  2  0  0  0
 35 45  1  0  0  0
 35 68  1  0  0  0
 36 56  1  0  0  0
 36107  1  0  0  0
 37 39  1  0  0  0
 37 47  1  0  0  0
 37 66  1  0  0  0
 37108  1  0  0  0
 38 43  2  0  0  0
 38 46  1  0  0  0
 38 47  1  0  0  0
 39 64  1  0  0  0
 39 67  2  0  0  0
 40 52  1  0  0  0
 40 53  2  0  0  0
 40 58  1  0  0  0
 41109  1  0  0  0
 41110  1  0  0  0
 41111  1  0  0  0
 41 48  1  0  0  0
 42 43  1  0  0  0
 42 66  1  0  0  0
 42112  1  0  0  0
 42113  1  0  0  0
 43 44  1  0  0  0
 44114  1  0  0  0
 45 46  2  0  0  0
 45115  1  0  0  0
 46116  1  0  0  0
 47117  1  0  0  0
 47118  1  0  0  0
 48 56  1  0  0  0
 48 65  1  0  0  0
 48119  1  0  0  0
 49 50  1  0  0  0
 49 53  1  0  0  0
 49 64  1  0  0  0
 49120  1  0  0  0
 50 51  1  0  0  0
 50121  1  0  0  0
 50122  1  0  0  0
 51 52  1  0  0  0
 51123  1  0  0  0
 51124  1  0  0  0
 52125  1  0  0  0
 52126  1  0  0  0
 53 54  1  0  0  0
 54 55  2  0  0  0
 54127  1  0  0  0
 55 57  1  0  0  0
 55128  1  0  0  0
 56 69  2  0  0  0
 57 58  2  0  0  0
 57129  1  0  0  0
 58130  1  0  0  0
 59 60  1  0  0  0
 59 61  1  0  0  0
 59 62  1  0  0  0
 60131  1  0  0  0
 60132  1  0  0  0
 60133  1  0  0  0
 61134  1  0  0  0
 61135  1  0  0  0
 61136  1  0  0  0
 62137  1  0  0  0
 62138  1  0  0  0
 62139  1  0  0  0
 63 65  1  0  0  0
 63140  1  0  0  0
 63141  1  0  0  0
 63142  1  0  0  0
 64143  1  0  0  0
 65144  1  0  0  0
 68 80  1  0  0  0
 71 72  2  0  0  0
 71 73  1  0  0  0
 71145  1  0  0  0
 72 82  1  0  0  0
 72146  1  0  0  0
 73 74  2  0  0  0
 73 77  1  0  0  0
 74 75  1  0  0  0
 74 82  1  0  0  0
 75 83  1  0  0  0
 75 85  2  0  0  0
 76147  1  0  0  0
 76148  1  0  0  0
 76149  1  0  0  0
 76 81  1  0  0  0
 77 84  1  0  0  0
 77150  1  0  0  0
 77151  1  0  0  0
 78 79  1  0  0  0
 78 81  1  0  0  0
 78152  1  0  0  0
 78153  1  0  0  0
 79 82  1  0  0  0
 79154  1  0  0  0
 79155  1  0  0  0
 80 81  1  0  0  0
 80156  1  0  0  0
 80157  1  0  0  0
 81158  1  0  0  0
 83159  1  0  0  0
 83160  1  0  0  0
 84161  1  0  0  0
M  ISO  4   1 100  68 101  80 101  84 100
M  END
> <chiral flag>
0

> <version>
0

> <s_m_source_file>
/data/baiqing/PycharmProjects/Reinvent-master-3.2/result/LINK_invent/BTK/process_docking_weight1_custom_sum_contain_oxygen_bond_distance_aromatic_linkinvent_7_9_3/rearranged_h_0116.sdf

> <i_m_source_file_index>
87

> <r_mmod_Potential_Energy-OPLS-2005>
-116.088806152344

> <r_mmod_Stretch_Energy-OPLS-2005>
68.2471160888672

> <r_mmod_Bend_Energy-OPLS-2005>
147.354431152344

> <r_mmod_Torsional_Energy-OPLS-2005>
267.3876953125

> <r_mmod_Improper_Torsional_Energy-OPLS-2005>
4.84542751312256

> <r_mmod_Van_der_Waal_Energy-OPLS-2005>
128.695419311523

> <r_mmod_Electrostatic_Energy-OPLS-2005>
-522.833068847656

> <r_mmod_Solvation_Energy-OPLS-2005>
-241.159118652344

> <b_mmod_Minimization_Converged-OPLS-2005>
0

> <r_mmod_RMS_Derivative-OPLS-2005>
8.53868865966797

$$$$
88
                    3D
 Structure written by MMmdl.
163171  0  0  1  0            999 V2000
  -30.6930  -14.3959   20.6396 C   0  0  0  0  0  0
  -30.4218  -12.2846   19.3914 C   0  0  0  0  0  0
  -29.4853  -12.5261   18.1890 C   0  0  0  0  0  0
  -28.0052  -12.3893   18.6019 C   0  0  0  0  0  0
  -27.6650  -13.1929   19.8839 C   0  0  2  0  0  0
  -28.7012  -12.8991   20.9906 C   0  0  0  0  0  0
  -25.2599  -13.8117   20.5698 C   0  0  0  0  0  0
  -24.1822  -13.0426   20.9193 C   0  0  0  0  0  0
  -24.6349  -11.6885   20.8719 C   0  0  0  0  0  0
  -23.9013  -10.4281   21.0401 C   0  0  0  0  0  0
  -24.3584   -9.4200   21.9171 C   0  0  0  0  0  0
  -23.6273   -8.2227   22.0740 C   0  0  0  0  0  0
  -22.4262   -8.0257   21.3526 C   0  0  0  0  0  0
  -21.9886   -9.0225   20.4628 C   0  0  0  0  0  0
  -22.7185  -10.2120   20.3042 C   0  0  0  0  0  0
  -21.6851   -6.0723   22.5280 C   0  0  0  0  0  0
  -21.4018   -6.5639   23.8208 C   0  0  0  0  0  0
  -21.3654   -5.6793   24.9173 C   0  0  0  0  0  0
  -21.6037   -4.3051   24.7234 C   0  0  0  0  0  0
  -21.8817   -3.8142   23.4360 C   0  0  0  0  0  0
  -21.9197   -4.6952   22.3418 C   0  0  0  0  0  0
  -22.7851  -13.5228   21.1882 C   0  0  0  0  0  0
  -22.1672   -4.2140   21.0996 F   0  0  0  0  0  0
  -21.5620   -3.4536   25.7751 F   0  0  0  0  0  0
  -30.0411  -13.2184   20.4606 N   0  0  0  0  0  0
  -26.3012  -12.9264   20.3374 N   0  0  0  0  0  0
  -25.9263  -11.6437   20.5724 N   0  0  0  0  0  0
  -22.0484  -12.8209   22.0435 N   0  0  0  0  0  0
  -25.4383  -15.1821   20.4147 N   0  0  0  0  0  0
  -31.7583  -14.6833   20.0856 O   0  0  0  0  0  0
  -21.6627   -6.8853   21.4237 O   0  0  0  0  0  0
  -22.3536  -14.5532   20.6730 O   0  0  0  0  0  0
  -24.6131  -31.8677   23.2099 C   0  0  0  0  0  0
  -25.9034  -32.4823   23.8384 C   0  0  1  0  0  0
  -27.2428  -27.4530   20.0908 C   0  0  0  0  0  0
  -25.5889  -33.8620   24.2323 N   0  0  0  0  0  0
  -23.4005  -30.4876   21.5515 C   0  0  2  0  0  0
  -24.8475  -28.9468   20.1232 C   0  0  0  0  0  0
  -22.7397  -29.4650   22.5023 C   0  0  0  0  0  0
  -18.0263  -28.1384   22.8499 C   0  0  0  0  0  0
  -24.1483  -36.7312   23.2634 C   0  0  0  0  0  0
  -25.9259  -30.8368   21.3591 C   0  0  0  0  0  0
  -26.0058  -29.4701   20.7120 C   0  0  0  0  0  0
  -27.2079  -28.7304   20.6897 C   0  0  0  0  0  0
  -26.0697  -26.9307   19.5093 C   0  0  0  0  0  0
  -24.8727  -27.6750   19.5203 C   0  0  0  0  0  0
  -23.6089  -29.8118   20.1689 C   0  0  0  0  0  0
  -25.4109  -36.3114   24.0333 C   0  0  1  0  0  0
  -20.5850  -28.3660   23.1336 C   0  0  2  0  0  0
  -20.6753  -26.9398   22.5433 C   0  0  0  0  0  0
  -19.5737  -26.6391   21.5221 C   0  0  0  0  0  0
  -18.1915  -26.7929   22.1627 C   0  0  0  0  0  0
  -19.1513  -28.8840   23.2908 C   0  0  0  0  0  0
  -18.9442  -30.1444   23.8919 C   0  0  0  0  0  0
  -17.6446  -30.6591   24.0566 C   0  0  0  0  0  0
  -25.9030  -34.9474   23.5124 C   0  0  0  0  0  0
  -16.5339  -29.9095   23.6327 C   0  0  0  0  0  0
  -16.7253  -28.6510   23.0353 C   0  0  0  0  0  0
  -26.4475  -31.6605   25.0708 C   0  0  0  0  0  0
  -25.3757  -31.3717   26.1472 C   0  0  0  0  0  0
  -27.0299  -30.3049   24.6067 C   0  0  0  0  0  0
  -27.6049  -32.4323   25.7472 C   0  0  0  0  0  0
  -27.5584  -37.1815   24.8463 C   0  0  0  0  0  0
  -21.4130  -29.3021   22.3746 N   0  0  0  0  0  0
  -26.4301  -37.3796   23.9406 N   0  0  0  0  0  0
  -24.6650  -31.0780   22.0993 N   0  0  0  0  0  0
  -23.4170  -28.8207   23.3078 O   0  0  0  0  0  0
  -28.4303  -26.7659   20.0152 O   0  0  0  0  0  0
  -26.5598  -34.8919   22.4688 O   0  0  0  0  0  0
  -23.5329  -32.1432   23.7493 O   0  0  0  0  0  0
  -29.6316  -20.9734   20.6855 C   0  0  0  0  0  0
  -30.1918  -19.7323   20.8167 C   0  0  0  0  0  0
  -28.2366  -19.5021   19.7620 C   0  0  0  0  0  0
  -28.3893  -20.8437   19.9921 C   0  0  0  0  0  0
  -27.1895  -21.8945   18.0285 C   0  0  0  0  0  0
  -28.9718  -24.5532   18.4663 C   0  0  0  0  0  0
  -27.4693  -23.3118   20.2080 C   0  0  0  0  0  0
  -29.5108  -17.3697   20.1586 C   0  0  0  0  0  0
  -30.1986  -16.7318   21.3857 C   0  0  0  0  0  0
  -28.5363  -25.5677   20.7867 C   0  0  0  0  0  0
  -27.3831  -21.9002   19.5554 C   0  0  2  0  0  0
  -28.6699  -24.2646   19.9474 C   0  0  2  0  0  0
  -29.3228  -18.8108   20.2656 N   0  0  0  0  0  0
  -30.0149  -15.2829   21.3788 N   0  0  0  0  0  0
  -31.4659  -12.3964   19.0932 H   0  0  0  0  0  0
  -30.3232  -11.2575   19.7439 H   0  0  0  0  0  0
  -29.7138  -11.8218   17.3872 H   0  0  0  0  0  0
  -29.6581  -13.5237   17.7791 H   0  0  0  0  0  0
  -27.7983  -11.3310   18.7637 H   0  0  0  0  0  0
  -27.3556  -12.7006   17.7838 H   0  0  0  0  0  0
  -27.7311  -14.2511   19.6304 H   0  0  0  0  0  0
  -28.6656  -11.8417   21.2585 H   0  0  0  0  0  0
  -28.4528  -13.4267   21.9119 H   0  0  0  0  0  0
  -25.2727   -9.5693   22.4748 H   0  0  0  0  0  0
  -23.9987   -7.4617   22.7463 H   0  0  0  0  0  0
  -21.0814   -8.8715   19.8936 H   0  0  0  0  0  0
  -22.3601  -10.9659   19.6161 H   0  0  0  0  0  0
  -21.2016   -7.6148   23.9711 H   0  0  0  0  0  0
  -21.1483   -6.0529   25.9072 H   0  0  0  0  0  0
  -22.0611   -2.7609   23.2865 H   0  0  0  0  0  0
  -22.4072  -11.9860   22.4827 H   0  0  0  0  0  0
  -21.1107  -13.1242   22.2660 H   0  0  0  0  0  0
  -26.3043  -15.6118   20.1171 H   0  0  0  0  0  0
  -24.6785  -15.8456   20.5123 H   0  0  0  0  0  0
  -26.7096  -32.5546   23.1139 H   0  0  0  0  0  0
  -25.0033  -33.9779   25.0466 H   0  0  0  0  0  0
  -22.6880  -31.3028   21.4094 H   0  0  0  0  0  0
  -23.3735  -35.9655   23.3322 H   0  0  0  0  0  0
  -24.3570  -36.8903   22.2041 H   0  0  0  0  0  0
  -23.7240  -37.6523   23.6637 H   0  0  0  0  0  0
  -26.0315  -31.6008   20.5872 H   0  0  0  0  0  0
  -26.8151  -30.8947   21.9743 H   0  0  0  0  0  0
  -28.1109  -29.1390   21.1209 H   0  0  0  0  0  0
  -26.0858  -25.9628   19.0291 H   0  0  0  0  0  0
  -23.9830  -27.2680   19.0593 H   0  0  0  0  0  0
  -23.7147  -30.5818   19.4042 H   0  0  0  0  0  0
  -22.7340  -29.2278   19.8764 H   0  0  0  0  0  0
  -25.1281  -36.1979   25.0827 H   0  0  0  0  0  0
  -20.9935  -28.3229   24.1459 H   0  0  0  0  0  0
  -20.5670  -26.2260   23.3616 H   0  0  0  0  0  0
  -21.6626  -26.7461   22.1216 H   0  0  0  0  0  0
  -19.6898  -25.6307   21.1239 H   0  0  0  0  0  0
  -19.6676  -27.3215   20.6764 H   0  0  0  0  0  0
  -17.4188  -26.6684   21.4027 H   0  0  0  0  0  0
  -18.0307  -26.0066   22.9016 H   0  0  0  0  0  0
  -19.7920  -30.7253   24.2305 H   0  0  0  0  0  0
  -17.5002  -31.6275   24.5162 H   0  0  0  0  0  0
  -15.5341  -30.3004   23.7636 H   0  0  0  0  0  0
  -15.8652  -28.0833   22.7064 H   0  0  0  0  0  0
  -24.5914  -30.7071   25.7828 H   0  0  0  0  0  0
  -24.8975  -32.2882   26.4942 H   0  0  0  0  0  0
  -25.8130  -30.8882   27.0217 H   0  0  0  0  0  0
  -26.2848  -29.6823   24.1102 H   0  0  0  0  0  0
  -27.4052  -29.7264   25.4518 H   0  0  0  0  0  0
  -27.8683  -30.4358   23.9219 H   0  0  0  0  0  0
  -27.2659  -33.3594   26.2103 H   0  0  0  0  0  0
  -28.3836  -32.6942   25.0298 H   0  0  0  0  0  0
  -28.0742  -31.8423   26.5351 H   0  0  0  0  0  0
  -28.2615  -38.0100   24.7502 H   0  0  0  0  0  0
  -28.1072  -36.2633   24.6309 H   0  0  0  0  0  0
  -27.2302  -37.1484   25.8866 H   0  0  0  0  0  0
  -20.9302  -29.8707   21.6930 H   0  0  0  0  0  0
  -26.0187  -38.2873   24.1416 H   0  0  0  0  0  0
  -30.0996  -21.8738   21.0513 H   0  0  0  0  0  0
  -31.1303  -19.4256   21.2598 H   0  0  0  0  0  0
  -27.4355  -18.9685   19.2652 H   0  0  0  0  0  0
  -26.7289  -20.9619   17.7008 H   0  0  0  0  0  0
  -28.1293  -21.9785   17.4870 H   0  0  0  0  0  0
  -26.5367  -22.7043   17.7040 H   0  0  0  0  0  0
  -29.3557  -23.6674   17.9665 H   0  0  0  0  0  0
  -29.7501  -25.3095   18.3634 H   0  0  0  0  0  0
  -28.0889  -24.9017   17.9299 H   0  0  0  0  0  0
  -27.3929  -23.1621   21.2861 H   0  0  0  0  0  0
  -26.5590  -23.8484   19.9388 H   0  0  0  0  0  0
  -28.5274  -16.9180   20.0172 H   0  0  0  0  0  0
  -30.0784  -17.1633   19.2508 H   0  0  0  0  0  0
  -29.7519  -17.1202   22.3028 H   0  0  0  0  0  0
  -31.2585  -16.9881   21.4131 H   0  0  0  0  0  0
  -29.4476  -25.6833   21.3744 H   0  0  0  0  0  0
  -27.7359  -25.4919   21.5254 H   0  0  0  0  0  0
  -26.4392  -21.5098   19.9411 H   0  0  0  0  0  0
  -29.5581  -23.7709   20.3310 H   0  0  0  0  0  0
  -29.1733  -14.9348   21.8154 H   0  0  0  0  0  0
  1 25  1  0  0  0
  1 30  2  0  0  0
  1 84  1  0  0  0
  2  3  1  0  0  0
  2 25  1  0  0  0
  2 85  1  0  0  0
  2 86  1  0  0  0
  3  4  1  0  0  0
  3 87  1  0  0  0
  3 88  1  0  0  0
  4  5  1  0  0  0
  4 89  1  0  0  0
  4 90  1  0  0  0
  5  6  1  0  0  0
  5 26  1  0  0  0
  5 91  1  0  0  0
  6 25  1  0  0  0
  6 92  1  0  0  0
  6 93  1  0  0  0
  7  8  2  0  0  0
  7 26  1  0  0  0
  7 29  1  0  0  0
  8  9  1  0  0  0
  8 22  1  0  0  0
  9 10  1  0  0  0
  9 27  2  0  0  0
 10 11  2  0  0  0
 10 15  1  0  0  0
 11 12  1  0  0  0
 11 94  1  0  0  0
 12 13  2  0  0  0
 12 95  1  0  0  0
 13 14  1  0  0  0
 13 31  1  0  0  0
 14 15  2  0  0  0
 14 96  1  0  0  0
 15 97  1  0  0  0
 16 17  2  0  0  0
 16 21  1  0  0  0
 16 31  1  0  0  0
 17 18  1  0  0  0
 17 98  1  0  0  0
 18 19  2  0  0  0
 18 99  1  0  0  0
 19 20  1  0  0  0
 19 24  1  0  0  0
 20 21  2  0  0  0
 20100  1  0  0  0
 21 23  1  0  0  0
 22 28  1  0  0  0
 22 32  2  0  0  0
 26 27  1  0  0  0
 28101  1  0  0  0
 28102  1  0  0  0
 29103  1  0  0  0
 29104  1  0  0  0
 33 34  1  0  0  0
 33 66  1  0  0  0
 33 70  2  0  0  0
 34 36  1  0  0  0
 34 59  1  0  0  0
 34105  1  0  0  0
 35 44  2  0  0  0
 35 45  1  0  0  0
 35 68  1  0  0  0
 36 56  1  0  0  0
 36106  1  0  0  0
 37 39  1  0  0  0
 37 47  1  0  0  0
 37 66  1  0  0  0
 37107  1  0  0  0
 38 43  2  0  0  0
 38 46  1  0  0  0
 38 47  1  0  0  0
 39 64  1  0  0  0
 39 67  2  0  0  0
 40 52  1  0  0  0
 40 53  2  0  0  0
 40 58  1  0  0  0
 41108  1  0  0  0
 41109  1  0  0  0
 41110  1  0  0  0
 41 48  1  0  0  0
 42 43  1  0  0  0
 42 66  1  0  0  0
 42111  1  0  0  0
 42112  1  0  0  0
 43 44  1  0  0  0
 44113  1  0  0  0
 45 46  2  0  0  0
 45114  1  0  0  0
 46115  1  0  0  0
 47116  1  0  0  0
 47117  1  0  0  0
 48 56  1  0  0  0
 48 65  1  0  0  0
 48118  1  0  0  0
 49 50  1  0  0  0
 49 53  1  0  0  0
 49 64  1  0  0  0
 49119  1  0  0  0
 50 51  1  0  0  0
 50120  1  0  0  0
 50121  1  0  0  0
 51 52  1  0  0  0
 51122  1  0  0  0
 51123  1  0  0  0
 52124  1  0  0  0
 52125  1  0  0  0
 53 54  1  0  0  0
 54 55  2  0  0  0
 54126  1  0  0  0
 55 57  1  0  0  0
 55127  1  0  0  0
 56 69  2  0  0  0
 57 58  2  0  0  0
 57128  1  0  0  0
 58129  1  0  0  0
 59 60  1  0  0  0
 59 61  1  0  0  0
 59 62  1  0  0  0
 60130  1  0  0  0
 60131  1  0  0  0
 60132  1  0  0  0
 61133  1  0  0  0
 61134  1  0  0  0
 61135  1  0  0  0
 62136  1  0  0  0
 62137  1  0  0  0
 62138  1  0  0  0
 63 65  1  0  0  0
 63139  1  0  0  0
 63140  1  0  0  0
 63141  1  0  0  0
 64142  1  0  0  0
 65143  1  0  0  0
 68 80  1  0  0  0
 71 72  2  0  0  0
 71 74  1  0  0  0
 71144  1  0  0  0
 72 83  1  0  0  0
 72145  1  0  0  0
 73 74  2  0  0  0
 73 83  1  0  0  0
 73146  1  0  0  0
 74 81  1  0  0  0
 75147  1  0  0  0
 75148  1  0  0  0
 75149  1  0  0  0
 75 81  1  0  0  0
 76150  1  0  0  0
 76151  1  0  0  0
 76152  1  0  0  0
 76 82  1  0  0  0
 77 81  1  0  0  0
 77 82  1  0  0  0
 77153  1  0  0  0
 77154  1  0  0  0
 78 79  1  0  0  0
 78 83  1  0  0  0
 78155  1  0  0  0
 78156  1  0  0  0
 79 84  1  0  0  0
 79157  1  0  0  0
 79158  1  0  0  0
 80 82  1  0  0  0
 80159  1  0  0  0
 80160  1  0  0  0
 81161  1  0  0  0
 82162  1  0  0  0
 84163  1  0  0  0
M  ISO  4   1 100  68 101  80 101  84 100
M  END
> <chiral flag>
0

> <version>
0

> <s_m_source_file>
/data/baiqing/PycharmProjects/Reinvent-master-3.2/result/LINK_invent/BTK/process_docking_weight1_custom_sum_contain_oxygen_bond_distance_aromatic_linkinvent_7_9_3/rearranged_h_0116.sdf

> <i_m_source_file_index>
88

> <r_mmod_Potential_Energy-OPLS-2005>
-57.0570182800293

> <r_mmod_Stretch_Energy-OPLS-2005>
33.2502555847168

> <r_mmod_Bend_Energy-OPLS-2005>
115.523094177246

> <r_mmod_Torsional_Energy-OPLS-2005>
257.141021728516

> <r_mmod_Improper_Torsional_Energy-OPLS-2005>
3.63795876502991

> <r_mmod_Van_der_Waal_Energy-OPLS-2005>
126.466850280762

> <r_mmod_Electrostatic_Energy-OPLS-2005>
-393.677886962891

> <r_mmod_Solvation_Energy-OPLS-2005>
-207.437072753906

> <b_mmod_Minimization_Converged-OPLS-2005>
0

> <r_mmod_RMS_Derivative-OPLS-2005>
2.16657185554504

$$$$
89
                    3D
 Structure written by MMmdl.
163171  0  0  1  0            999 V2000
  -30.6859  -14.4741   20.5322 C   0  0  0  0  0  0
  -30.4248  -12.2926   19.4314 C   0  0  0  0  0  0
  -29.4986  -12.4915   18.2120 C   0  0  0  0  0  0
  -28.0169  -12.3603   18.6192 C   0  0  0  0  0  0
  -27.6617  -13.2026   19.8735 C   0  0  2  0  0  0
  -28.7031  -12.9897   20.9984 C   0  0  0  0  0  0
  -25.2580  -13.8144   20.5668 C   0  0  0  0  0  0
  -24.1834  -13.0428   20.9189 C   0  0  0  0  0  0
  -24.6388  -11.6896   20.8742 C   0  0  0  0  0  0
  -23.9051  -10.4287   21.0408 C   0  0  0  0  0  0
  -24.3607   -9.4205   21.9183 C   0  0  0  0  0  0
  -23.6287   -8.2236   22.0749 C   0  0  0  0  0  0
  -22.4267   -8.0277   21.3542 C   0  0  0  0  0  0
  -21.9904   -9.0249   20.4639 C   0  0  0  0  0  0
  -22.7227  -10.2128   20.3051 C   0  0  0  0  0  0
  -21.6848   -6.0732   22.5280 C   0  0  0  0  0  0
  -21.4013   -6.5635   23.8215 C   0  0  0  0  0  0
  -21.3659   -5.6787   24.9175 C   0  0  0  0  0  0
  -21.6041   -4.3052   24.7225 C   0  0  0  0  0  0
  -21.8821   -3.8142   23.4347 C   0  0  0  0  0  0
  -21.9195   -4.6959   22.3403 C   0  0  0  0  0  0
  -22.7857  -13.5231   21.1846 C   0  0  0  0  0  0
  -22.1661   -4.2143   21.0982 F   0  0  0  0  0  0
  -21.5629   -3.4538   25.7739 F   0  0  0  0  0  0
  -30.0380  -13.2816   20.4489 N   0  0  0  0  0  0
  -26.3018  -12.9313   20.3351 N   0  0  0  0  0  0
  -25.9315  -11.6478   20.5767 N   0  0  0  0  0  0
  -22.0489  -12.8229   22.0400 N   0  0  0  0  0  0
  -25.4293  -15.1858   20.4040 N   0  0  0  0  0  0
  -31.8252  -14.6558   20.0953 O   0  0  0  0  0  0
  -21.6636   -6.8870   21.4238 O   0  0  0  0  0  0
  -22.3552  -14.5538   20.6691 O   0  0  0  0  0  0
  -24.6139  -31.8685   23.2098 C   0  0  0  0  0  0
  -25.9028  -32.4834   23.8396 C   0  0  1  0  0  0
  -27.2355  -27.4412   20.1046 C   0  0  0  0  0  0
  -25.5879  -33.8630   24.2323 N   0  0  0  0  0  0
  -23.4026  -30.4912   21.5496 C   0  0  2  0  0  0
  -24.8514  -28.9571   20.1161 C   0  0  0  0  0  0
  -22.7407  -29.4661   22.4985 C   0  0  0  0  0  0
  -18.0278  -28.1394   22.8486 C   0  0  0  0  0  0
  -24.1490  -36.7314   23.2640 C   0  0  0  0  0  0
  -25.9295  -30.8376   21.3613 C   0  0  0  0  0  0
  -26.0094  -29.4705   20.7143 C   0  0  0  0  0  0
  -27.2066  -28.7185   20.7080 C   0  0  0  0  0  0
  -26.0686  -26.9456   19.4914 C   0  0  0  0  0  0
  -24.8748  -27.6923   19.5009 C   0  0  0  0  0  0
  -23.6122  -29.8222   20.1645 C   0  0  0  0  0  0
  -25.4107  -36.3118   24.0341 C   0  0  1  0  0  0
  -20.5865  -28.3670   23.1322 C   0  0  2  0  0  0
  -20.6776  -26.9408   22.5421 C   0  0  0  0  0  0
  -19.5753  -26.6399   21.5221 C   0  0  0  0  0  0
  -18.1927  -26.7942   22.1623 C   0  0  0  0  0  0
  -19.1529  -28.8842   23.2908 C   0  0  0  0  0  0
  -18.9458  -30.1446   23.8918 C   0  0  0  0  0  0
  -17.6461  -30.6592   24.0565 C   0  0  0  0  0  0
  -25.9034  -34.9487   23.5134 C   0  0  0  0  0  0
  -16.5349  -29.9101   23.6323 C   0  0  0  0  0  0
  -16.7271  -28.6520   23.0336 C   0  0  0  0  0  0
  -26.4455  -31.6605   25.0718 C   0  0  0  0  0  0
  -25.3720  -31.3716   26.1461 C   0  0  0  0  0  0
  -27.0276  -30.3053   24.6066 C   0  0  0  0  0  0
  -27.6037  -32.4312   25.7480 C   0  0  0  0  0  0
  -27.5582  -37.1809   24.8466 C   0  0  0  0  0  0
  -21.4136  -29.3045   22.3725 N   0  0  0  0  0  0
  -26.4296  -37.3799   23.9416 N   0  0  0  0  0  0
  -24.6671  -31.0793   22.0995 N   0  0  0  0  0  0
  -23.4181  -28.8207   23.3030 O   0  0  0  0  0  0
  -28.3887  -26.6889   20.0925 O   0  0  0  0  0  0
  -26.5604  -34.8929   22.4700 O   0  0  0  0  0  0
  -23.5325  -32.1426   23.7484 O   0  0  0  0  0  0
  -28.7990  -17.2801   19.4805 C   0  0  0  0  0  0
  -28.6172  -18.7910   19.7193 C   0  0  0  0  0  0
  -30.1420  -18.0176   21.3401 C   0  0  0  0  0  0
  -30.0227  -16.8750   20.3157 C   0  0  1  0  0  0
  -28.1051  -22.9179   22.6435 C   0  0  0  0  0  0
  -29.0030  -21.6818   20.5713 C   0  0  0  0  0  0
  -29.4865  -20.4521   21.3986 C   0  0  0  0  0  0
  -28.4231  -25.6180   21.0520 C   0  0  0  0  0  0
  -28.9113  -23.0425   21.3315 C   0  0  1  0  0  0
  -28.3820  -24.1963   20.4145 C   0  0  1  0  0  0
  -29.9039  -15.5141   20.8766 N   0  0  0  0  0  0
  -29.7402  -19.2282   20.5810 N   0  3  2  0  0  0
  -27.0442  -23.8788   20.0688 O   0  0  0  0  0  0
  -31.4698  -12.3884   19.1313 H   0  0  0  0  0  0
  -30.3225  -11.2829   19.8321 H   0  0  0  0  0  0
  -29.7370  -11.7617   17.4373 H   0  0  0  0  0  0
  -29.6732  -13.4738   17.7701 H   0  0  0  0  0  0
  -27.8205  -11.3054   18.8154 H   0  0  0  0  0  0
  -27.3715  -12.6382   17.7853 H   0  0  0  0  0  0
  -27.7022  -14.2474   19.5675 H   0  0  0  0  0  0
  -28.6715  -11.9585   21.3534 H   0  0  0  0  0  0
  -28.4719  -13.6064   21.8683 H   0  0  0  0  0  0
  -25.2751   -9.5679   22.4757 H   0  0  0  0  0  0
  -23.9998   -7.4625   22.7467 H   0  0  0  0  0  0
  -21.0836   -8.8760   19.8945 H   0  0  0  0  0  0
  -22.3688  -10.9663   19.6157 H   0  0  0  0  0  0
  -21.2001   -7.6143   23.9714 H   0  0  0  0  0  0
  -21.1477   -6.0518   25.9076 H   0  0  0  0  0  0
  -22.0601   -2.7606   23.2851 H   0  0  0  0  0  0
  -22.4095  -11.9892   22.4800 H   0  0  0  0  0  0
  -21.1097  -13.1245   22.2567 H   0  0  0  0  0  0
  -24.6560  -15.8358   20.4932 H   0  0  0  0  0  0
  -26.2640  -15.6135   20.0284 H   0  0  0  0  0  0
  -26.7100  -32.5545   23.1164 H   0  0  0  0  0  0
  -25.0034  -33.9806   25.0465 H   0  0  0  0  0  0
  -22.6921  -31.3083   21.4087 H   0  0  0  0  0  0
  -23.3754  -35.9651   23.3318 H   0  0  0  0  0  0
  -24.3582  -36.8910   22.2054 H   0  0  0  0  0  0
  -23.7241  -37.6526   23.6637 H   0  0  0  0  0  0
  -26.0366  -31.6021   20.5890 H   0  0  0  0  0  0
  -26.8195  -30.8965   21.9760 H   0  0  0  0  0  0
  -28.1014  -29.1111   21.1701 H   0  0  0  0  0  0
  -26.0829  -25.9831   19.0018 H   0  0  0  0  0  0
  -23.9887  -27.2915   19.0288 H   0  0  0  0  0  0
  -23.7203  -30.5965   19.4043 H   0  0  0  0  0  0
  -22.7372  -29.2423   19.8670 H   0  0  0  0  0  0
  -25.1287  -36.1995   25.0836 H   0  0  0  0  0  0
  -20.9950  -28.3236   24.1446 H   0  0  0  0  0  0
  -20.5690  -26.2276   23.3607 H   0  0  0  0  0  0
  -21.6645  -26.7475   22.1201 H   0  0  0  0  0  0
  -19.6923  -25.6321   21.1235 H   0  0  0  0  0  0
  -19.6695  -27.3219   20.6762 H   0  0  0  0  0  0
  -17.4201  -26.6685   21.4022 H   0  0  0  0  0  0
  -18.0316  -26.0088   22.9017 H   0  0  0  0  0  0
  -19.7938  -30.7256   24.2287 H   0  0  0  0  0  0
  -17.5027  -31.6270   24.5176 H   0  0  0  0  0  0
  -15.5353  -30.3014   23.7650 H   0  0  0  0  0  0
  -15.8667  -28.0862   22.7029 H   0  0  0  0  0  0
  -24.5896  -30.7056   25.7800 H   0  0  0  0  0  0
  -24.8903  -32.2881   26.4894 H   0  0  0  0  0  0
  -25.8068  -30.8901   27.0230 H   0  0  0  0  0  0
  -26.2819  -29.6831   24.1100 H   0  0  0  0  0  0
  -27.4055  -29.7268   25.4510 H   0  0  0  0  0  0
  -27.8650  -30.4394   23.9206 H   0  0  0  0  0  0
  -27.2662  -33.3606   26.2078 H   0  0  0  0  0  0
  -28.3834  -32.6869   25.0291 H   0  0  0  0  0  0
  -28.0706  -31.8412   26.5378 H   0  0  0  0  0  0
  -28.2606  -38.0100   24.7509 H   0  0  0  0  0  0
  -28.1070  -36.2631   24.6297 H   0  0  0  0  0  0
  -27.2298  -37.1469   25.8869 H   0  0  0  0  0  0
  -20.9285  -29.8760   21.6946 H   0  0  0  0  0  0
  -26.0191  -38.2887   24.1412 H   0  0  0  0  0  0
  -28.9456  -17.0529   18.4236 H   0  0  0  0  0  0
  -27.9004  -16.7543   19.8023 H   0  0  0  0  0  0
  -27.6667  -18.9639   20.2270 H   0  0  0  0  0  0
  -28.5988  -19.3531   18.7851 H   0  0  0  0  0  0
  -31.1518  -18.1098   21.7415 H   0  0  0  0  0  0
  -29.4587  -17.8566   22.1757 H   0  0  0  0  0  0
  -30.8944  -16.9368   19.6598 H   0  0  0  0  0  0
  -28.5706  -22.2133   23.3316 H   0  0  0  0  0  0
  -27.0850  -22.5763   22.4646 H   0  0  0  0  0  0
  -28.0521  -23.8660   23.1774 H   0  0  0  0  0  0
  -28.0243  -21.4495   20.1521 H   0  0  0  0  0  0
  -29.6660  -21.8180   19.7165 H   0  0  0  0  0  0
  -28.7488  -20.2093   22.1645 H   0  0  0  0  0  0
  -30.4065  -20.7093   21.9258 H   0  0  0  0  0  0
  -29.3704  -25.7292   21.5808 H   0  0  0  0  0  0
  -27.6511  -25.7327   21.8157 H   0  0  0  0  0  0
  -29.9313  -23.3108   21.6140 H   0  0  0  0  0  0
  -28.9868  -24.2164   19.5063 H   0  0  0  0  0  0
  -29.0094  -15.2627   21.2700 H   0  0  0  0  0  0
  -30.5117  -19.4369   19.9632 H   0  0  0  0  0  0
  -26.5297  -23.9075   20.8682 H   0  0  0  0  0  0
  1 25  1  0  0  0
  1 30  2  0  0  0
  1 81  1  0  0  0
  2  3  1  0  0  0
  2 25  1  0  0  0
  2 84  1  0  0  0
  2 85  1  0  0  0
  3  4  1  0  0  0
  3 86  1  0  0  0
  3 87  1  0  0  0
  4  5  1  0  0  0
  4 88  1  0  0  0
  4 89  1  0  0  0
  5  6  1  0  0  0
  5 26  1  0  0  0
  5 90  1  0  0  0
  6 25  1  0  0  0
  6 91  1  0  0  0
  6 92  1  0  0  0
  7  8  2  0  0  0
  7 26  1  0  0  0
  7 29  1  0  0  0
  8  9  1  0  0  0
  8 22  1  0  0  0
  9 10  1  0  0  0
  9 27  2  0  0  0
 10 11  2  0  0  0
 10 15  1  0  0  0
 11 12  1  0  0  0
 11 93  1  0  0  0
 12 13  2  0  0  0
 12 94  1  0  0  0
 13 14  1  0  0  0
 13 31  1  0  0  0
 14 15  2  0  0  0
 14 95  1  0  0  0
 15 96  1  0  0  0
 16 17  2  0  0  0
 16 21  1  0  0  0
 16 31  1  0  0  0
 17 18  1  0  0  0
 17 97  1  0  0  0
 18 19  2  0  0  0
 18 98  1  0  0  0
 19 20  1  0  0  0
 19 24  1  0  0  0
 20 21  2  0  0  0
 20 99  1  0  0  0
 21 23  1  0  0  0
 22 28  1  0  0  0
 22 32  2  0  0  0
 26 27  1  0  0  0
 28100  1  0  0  0
 28101  1  0  0  0
 29102  1  0  0  0
 29103  1  0  0  0
 33 34  1  0  0  0
 33 66  1  0  0  0
 33 70  2  0  0  0
 34 36  1  0  0  0
 34 59  1  0  0  0
 34104  1  0  0  0
 35 44  2  0  0  0
 35 45  1  0  0  0
 35 68  1  0  0  0
 36 56  1  0  0  0
 36105  1  0  0  0
 37 39  1  0  0  0
 37 47  1  0  0  0
 37 66  1  0  0  0
 37106  1  0  0  0
 38 43  2  0  0  0
 38 46  1  0  0  0
 38 47  1  0  0  0
 39 64  1  0  0  0
 39 67  2  0  0  0
 40 52  1  0  0  0
 40 53  2  0  0  0
 40 58  1  0  0  0
 41107  1  0  0  0
 41108  1  0  0  0
 41109  1  0  0  0
 41 48  1  0  0  0
 42 43  1  0  0  0
 42 66  1  0  0  0
 42110  1  0  0  0
 42111  1  0  0  0
 43 44  1  0  0  0
 44112  1  0  0  0
 45 46  2  0  0  0
 45113  1  0  0  0
 46114  1  0  0  0
 47115  1  0  0  0
 47116  1  0  0  0
 48 56  1  0  0  0
 48 65  1  0  0  0
 48117  1  0  0  0
 49 50  1  0  0  0
 49 53  1  0  0  0
 49 64  1  0  0  0
 49118  1  0  0  0
 50 51  1  0  0  0
 50119  1  0  0  0
 50120  1  0  0  0
 51 52  1  0  0  0
 51121  1  0  0  0
 51122  1  0  0  0
 52123  1  0  0  0
 52124  1  0  0  0
 53 54  1  0  0  0
 54 55  2  0  0  0
 54125  1  0  0  0
 55 57  1  0  0  0
 55126  1  0  0  0
 56 69  2  0  0  0
 57 58  2  0  0  0
 57127  1  0  0  0
 58128  1  0  0  0
 59 60  1  0  0  0
 59 61  1  0  0  0
 59 62  1  0  0  0
 60129  1  0  0  0
 60130  1  0  0  0
 60131  1  0  0  0
 61132  1  0  0  0
 61133  1  0  0  0
 61134  1  0  0  0
 62135  1  0  0  0
 62136  1  0  0  0
 62137  1  0  0  0
 63 65  1  0  0  0
 63138  1  0  0  0
 63139  1  0  0  0
 63140  1  0  0  0
 64141  1  0  0  0
 65142  1  0  0  0
 68 78  1  0  0  0
 71 72  1  0  0  0
 71 74  1  0  0  0
 71143  1  0  0  0
 71144  1  0  0  0
 72 82  1  0  0  0
 72145  1  0  0  0
 72146  1  0  0  0
 73 74  1  0  0  0
 73 82  1  0  0  0
 73147  1  0  0  0
 73148  1  0  0  0
 74 81  1  0  0  0
 74149  1  0  0  0
 75150  1  0  0  0
 75151  1  0  0  0
 75152  1  0  0  0
 75 79  1  0  0  0
 76 77  1  0  0  0
 76 79  1  0  0  0
 76153  1  0  0  0
 76154  1  0  0  0
 77155  1  0  0  0
 77156  1  0  0  0
 77 82  1  0  0  0
 78 80  1  0  0  0
 78157  1  0  0  0
 78158  1  0  0  0
 79 80  1  0  0  0
 79159  1  0  0  0
 80 83  1  0  0  0
 80160  1  0  0  0
 81161  1  0  0  0
 82162  1  0  0  0
 83163  1  0  0  0
M  CHG  1  82   1
M  ISO  4   1 100  68 101  78 101  81 100
M  END
> <chiral flag>
0

> <version>
0

> <s_m_source_file>
/data/baiqing/PycharmProjects/Reinvent-master-3.2/result/LINK_invent/BTK/process_docking_weight1_custom_sum_contain_oxygen_bond_distance_aromatic_linkinvent_7_9_3/rearranged_h_0116.sdf

> <i_m_source_file_index>
89

> <r_mmod_Potential_Energy-OPLS-2005>
-114.515998840332

> <r_mmod_Stretch_Energy-OPLS-2005>
38.1488990783691

> <r_mmod_Bend_Energy-OPLS-2005>
118.916893005371

> <r_mmod_Torsional_Energy-OPLS-2005>
313.093536376953

> <r_mmod_Improper_Torsional_Energy-OPLS-2005>
7.83377265930176

> <r_mmod_Van_der_Waal_Energy-OPLS-2005>
127.131759643555

> <r_mmod_Electrostatic_Energy-OPLS-2005>
-266.888244628906

> <r_mmod_Solvation_Energy-OPLS-2005>
-465.657775878906

> <b_mmod_Minimization_Converged-OPLS-2005>
0

> <r_mmod_RMS_Derivative-OPLS-2005>
1.46099448204041

$$$$
90
                    3D
 Structure written by MMmdl.
159167  0  0  1  0            999 V2000
  -30.6226  -14.6191   20.5030 C   0  0  0  0  0  0
  -30.4153  -12.3764   19.4529 C   0  0  0  0  0  0
  -29.4897  -12.4934   18.2210 C   0  0  0  0  0  0
  -28.0106  -12.3496   18.6288 C   0  0  0  0  0  0
  -27.6425  -13.2153   19.8633 C   0  0  2  0  0  0
  -28.6825  -13.0780   20.9960 C   0  0  0  0  0  0
  -25.2508  -13.8211   20.5701 C   0  0  0  0  0  0
  -24.1763  -13.0441   20.9202 C   0  0  0  0  0  0
  -24.6326  -11.6931   20.8751 C   0  0  0  0  0  0
  -23.9007  -10.4291   21.0405 C   0  0  0  0  0  0
  -24.3607   -9.4231   21.9182 C   0  0  0  0  0  0
  -23.6318   -8.2236   22.0745 C   0  0  0  0  0  0
  -22.4294   -8.0254   21.3549 C   0  0  0  0  0  0
  -21.9901   -9.0198   20.4619 C   0  0  0  0  0  0
  -22.7198  -10.2102   20.3043 C   0  0  0  0  0  0
  -21.6853   -6.0740   22.5284 C   0  0  0  0  0  0
  -21.3995   -6.5636   23.8213 C   0  0  0  0  0  0
  -21.3643   -5.6774   24.9180 C   0  0  0  0  0  0
  -21.6056   -4.3034   24.7212 C   0  0  0  0  0  0
  -21.8828   -3.8145   23.4330 C   0  0  0  0  0  0
  -21.9201   -4.6965   22.3398 C   0  0  0  0  0  0
  -22.7772  -13.5233   21.1889 C   0  0  0  0  0  0
  -22.1671   -4.2170   21.0957 F   0  0  0  0  0  0
  -21.5645   -3.4497   25.7727 F   0  0  0  0  0  0
  -29.9952  -13.4048   20.4286 N   0  0  0  0  0  0
  -26.2908  -12.9359   20.3334 N   0  0  0  0  0  0
  -25.9233  -11.6518   20.5740 N   0  0  0  0  0  0
  -22.0429  -12.8176   22.0433 N   0  0  0  0  0  0
  -25.4247  -15.1897   20.4097 N   0  0  0  0  0  0
  -31.7877  -14.7551   20.1066 O   0  0  0  0  0  0
  -21.6662   -6.8854   21.4233 O   0  0  0  0  0  0
  -22.3430  -14.5524   20.6739 O   0  0  0  0  0  0
  -24.6190  -31.8641   23.2046 C   0  0  0  0  0  0
  -25.9068  -32.4803   23.8366 C   0  0  1  0  0  0
  -27.2329  -27.3699   20.1181 C   0  0  0  0  0  0
  -25.5947  -33.8586   24.2311 N   0  0  0  0  0  0
  -23.4086  -30.4842   21.5484 C   0  0  2  0  0  0
  -24.8596  -28.9359   20.1179 C   0  0  0  0  0  0
  -22.7442  -29.4648   22.5020 C   0  0  0  0  0  0
  -18.0279  -28.1376   22.8476 C   0  0  0  0  0  0
  -24.1479  -36.7227   23.2652 C   0  0  0  0  0  0
  -25.9432  -30.8058   21.3695 C   0  0  0  0  0  0
  -26.0198  -29.4335   20.7195 C   0  0  0  0  0  0
  -27.2130  -28.6610   20.7107 C   0  0  0  0  0  0
  -26.0530  -26.8977   19.5073 C   0  0  0  0  0  0
  -24.8718  -27.6692   19.5065 C   0  0  0  0  0  0
  -23.6223  -29.8099   20.1651 C   0  0  0  0  0  0
  -25.4101  -36.3070   24.0362 C   0  0  1  0  0  0
  -20.5882  -28.3639   23.1348 C   0  0  2  0  0  0
  -20.6772  -26.9365   22.5489 C   0  0  0  0  0  0
  -19.5796  -26.6363   21.5238 C   0  0  0  0  0  0
  -18.1934  -26.7963   22.1538 C   0  0  0  0  0  0
  -19.1535  -28.8816   23.2917 C   0  0  0  0  0  0
  -18.9479  -30.1428   23.8913 C   0  0  0  0  0  0
  -17.6481  -30.6579   24.0571 C   0  0  0  0  0  0
  -25.9030  -34.9450   23.5119 C   0  0  0  0  0  0
  -16.5362  -29.9074   23.6353 C   0  0  0  0  0  0
  -16.7262  -28.6508   23.0323 C   0  0  0  0  0  0
  -26.4469  -31.6560   25.0690 C   0  0  0  0  0  0
  -25.3720  -31.3703   26.1440 C   0  0  0  0  0  0
  -27.0281  -30.3012   24.6032 C   0  0  0  0  0  0
  -27.6066  -32.4245   25.7428 C   0  0  0  0  0  0
  -27.5577  -37.1738   24.8459 C   0  0  0  0  0  0
  -21.4169  -29.2998   22.3749 N   0  0  0  0  0  0
  -26.4267  -37.3763   23.9452 N   0  0  0  0  0  0
  -24.6740  -31.0687   22.0983 N   0  0  0  0  0  0
  -23.4199  -28.8219   23.3091 O   0  0  0  0  0  0
  -28.3781  -26.5839   20.0928 O   0  0  0  0  0  0
  -26.5584  -34.8923   22.4675 O   0  0  0  0  0  0
  -23.5392  -32.1415   23.7430 O   0  0  0  0  0  0
  -29.7366  -17.8255   22.0747 C   0  0  0  0  0  0
  -29.9788  -18.1325   19.6157 C   0  0  0  0  0  0
  -29.3350  -16.3213   21.8727 C   0  0  0  0  0  0
  -29.5961  -16.6235   19.4143 C   0  0  0  0  0  0
  -29.3316  -18.7591   20.8865 C   0  0  0  0  0  0
  -28.9466  -22.7251   20.9685 C   0  0  0  0  0  0
  -28.6743  -23.9949   20.0587 C   0  0  0  0  0  0
  -29.1009  -21.3079   20.2742 C   0  0  0  0  0  0
  -28.3404  -25.3276   20.8341 C   0  0  0  0  0  0
  -29.8092  -15.7301   20.5915 N   0  0  0  0  0  0
  -29.6743  -20.2136   21.1529 N   0  3  0  0  0  0
  -31.4570  -12.4943   19.1505 H   0  0  0  0  0  0
  -30.3390  -11.3811   19.8899 H   0  0  0  0  0  0
  -29.7489  -11.7291   17.4849 H   0  0  0  0  0  0
  -29.6399  -13.4514   17.7227 H   0  0  0  0  0  0
  -27.8272  -11.2964   18.8407 H   0  0  0  0  0  0
  -27.3598  -12.6043   17.7914 H   0  0  0  0  0  0
  -27.6562  -14.2516   19.5303 H   0  0  0  0  0  0
  -28.6831  -12.0670   21.4030 H   0  0  0  0  0  0
  -28.4271  -13.7315   21.8293 H   0  0  0  0  0  0
  -25.2748   -9.5743   22.4744 H   0  0  0  0  0  0
  -24.0072   -7.4625   22.7428 H   0  0  0  0  0  0
  -21.0863   -8.8632   19.8906 H   0  0  0  0  0  0
  -22.3621  -10.9608   19.6132 H   0  0  0  0  0  0
  -21.1951   -7.6143   23.9736 H   0  0  0  0  0  0
  -21.1452   -6.0486   25.9084 H   0  0  0  0  0  0
  -22.0621   -2.7598   23.2792 H   0  0  0  0  0  0
  -22.4056  -11.9834   22.4807 H   0  0  0  0  0  0
  -21.1010  -13.1125   22.2638 H   0  0  0  0  0  0
  -24.6635  -15.8486   20.5304 H   0  0  0  0  0  0
  -26.2933  -15.6291   20.1302 H   0  0  0  0  0  0
  -26.7113  -32.5459   23.1087 H   0  0  0  0  0  0
  -25.0204  -33.9762   25.0545 H   0  0  0  0  0  0
  -22.6968  -31.3012   21.4026 H   0  0  0  0  0  0
  -23.3824  -35.9475   23.3250 H   0  0  0  0  0  0
  -24.3595  -36.8898   22.2083 H   0  0  0  0  0  0
  -23.7112  -37.6363   23.6690 H   0  0  0  0  0  0
  -26.0621  -31.5685   20.6006 H   0  0  0  0  0  0
  -26.8291  -30.8602   21.9891 H   0  0  0  0  0  0
  -28.1069  -29.0480   21.1795 H   0  0  0  0  0  0
  -26.0483  -25.9307   19.0263 H   0  0  0  0  0  0
  -23.9774  -27.2839   19.0367 H   0  0  0  0  0  0
  -23.7342  -30.5816   19.4032 H   0  0  0  0  0  0
  -22.7474  -29.2335   19.8611 H   0  0  0  0  0  0
  -25.1282  -36.1902   25.0862 H   0  0  0  0  0  0
  -20.9922  -28.3190   24.1479 H   0  0  0  0  0  0
  -20.5623  -26.2242   23.3679 H   0  0  0  0  0  0
  -21.6651  -26.7379   22.1299 H   0  0  0  0  0  0
  -19.6964  -25.6275   21.1238 H   0  0  0  0  0  0
  -19.6838  -27.3200   20.6816 H   0  0  0  0  0  0
  -17.4286  -26.6837   21.3853 H   0  0  0  0  0  0
  -18.0200  -26.0049   22.8834 H   0  0  0  0  0  0
  -19.7973  -30.7238   24.2275 H   0  0  0  0  0  0
  -17.5044  -31.6268   24.5174 H   0  0  0  0  0  0
  -15.5359  -30.2961   23.7732 H   0  0  0  0  0  0
  -15.8652  -28.0842   22.6995 H   0  0  0  0  0  0
  -24.6124  -30.6734   25.7887 H   0  0  0  0  0  0
  -24.8629  -32.2842   26.4529 H   0  0  0  0  0  0
  -25.8130  -30.9277   27.0387 H   0  0  0  0  0  0
  -26.2803  -29.6789   24.1117 H   0  0  0  0  0  0
  -27.4157  -29.7208   25.4409 H   0  0  0  0  0  0
  -27.8590  -30.4384   23.9101 H   0  0  0  0  0  0
  -27.2740  -33.3593   26.1967 H   0  0  0  0  0  0
  -28.3902  -32.6717   25.0235 H   0  0  0  0  0  0
  -28.0703  -31.8368   26.5374 H   0  0  0  0  0  0
  -28.2571  -38.0048   24.7511 H   0  0  0  0  0  0
  -28.1097  -36.2586   24.6242 H   0  0  0  0  0  0
  -27.2340  -37.1299   25.8871 H   0  0  0  0  0  0
  -20.9345  -29.8668   21.6906 H   0  0  0  0  0  0
  -26.0169  -38.2842   24.1517 H   0  0  0  0  0  0
  -30.8160  -17.8815   22.2431 H   0  0  0  0  0  0
  -29.2955  -18.1816   23.0100 H   0  0  0  0  0  0
  -29.6857  -18.6879   18.7205 H   0  0  0  0  0  0
  -31.0663  -18.2199   19.6586 H   0  0  0  0  0  0
  -28.2479  -16.2319   21.9228 H   0  0  0  0  0  0
  -29.7068  -15.7412   22.7237 H   0  0  0  0  0  0
  -30.1200  -16.2430   18.5311 H   0  0  0  0  0  0
  -28.5403  -16.5546   19.1399 H   0  0  0  0  0  0
  -28.2453  -18.6955   20.7781 H   0  0  0  0  0  0
  -28.1430  -22.6548   21.7066 H   0  0  0  0  0  0
  -29.8505  -22.9298   21.5435 H   0  0  0  0  0  0
  -27.8627  -23.7891   19.3597 H   0  0  0  0  0  0
  -29.5584  -24.1639   19.4396 H   0  0  0  0  0  0
  -29.7456  -21.3987   19.3967 H   0  0  0  0  0  0
  -28.1191  -21.0051   19.9038 H   0  0  0  0  0  0
  -29.0848  -25.4417   21.6223 H   0  0  0  0  0  0
  -27.3826  -25.2133   21.3466 H   0  0  0  0  0  0
  -30.6792  -20.3173   21.1789 H   0  0  0  0  0  0
  -29.3550  -20.4017   22.0910 H   0  0  0  0  0  0
  1 25  1  0  0  0
  1 30  2  0  0  0
  1 80  1  0  0  0
  2  3  1  0  0  0
  2 25  1  0  0  0
  2 82  1  0  0  0
  2 83  1  0  0  0
  3  4  1  0  0  0
  3 84  1  0  0  0
  3 85  1  0  0  0
  4  5  1  0  0  0
  4 86  1  0  0  0
  4 87  1  0  0  0
  5  6  1  0  0  0
  5 26  1  0  0  0
  5 88  1  0  0  0
  6 25  1  0  0  0
  6 89  1  0  0  0
  6 90  1  0  0  0
  7  8  2  0  0  0
  7 26  1  0  0  0
  7 29  1  0  0  0
  8  9  1  0  0  0
  8 22  1  0  0  0
  9 10  1  0  0  0
  9 27  2  0  0  0
 10 11  2  0  0  0
 10 15  1  0  0  0
 11 12  1  0  0  0
 11 91  1  0  0  0
 12 13  2  0  0  0
 12 92  1  0  0  0
 13 14  1  0  0  0
 13 31  1  0  0  0
 14 15  2  0  0  0
 14 93  1  0  0  0
 15 94  1  0  0  0
 16 17  2  0  0  0
 16 21  1  0  0  0
 16 31  1  0  0  0
 17 18  1  0  0  0
 17 95  1  0  0  0
 18 19  2  0  0  0
 18 96  1  0  0  0
 19 20  1  0  0  0
 19 24  1  0  0  0
 20 21  2  0  0  0
 20 97  1  0  0  0
 21 23  1  0  0  0
 22 28  1  0  0  0
 22 32  2  0  0  0
 26 27  1  0  0  0
 28 98  1  0  0  0
 28 99  1  0  0  0
 29100  1  0  0  0
 29101  1  0  0  0
 33 34  1  0  0  0
 33 66  1  0  0  0
 33 70  2  0  0  0
 34 36  1  0  0  0
 34 59  1  0  0  0
 34102  1  0  0  0
 35 44  2  0  0  0
 35 45  1  0  0  0
 35 68  1  0  0  0
 36 56  1  0  0  0
 36103  1  0  0  0
 37 39  1  0  0  0
 37 47  1  0  0  0
 37 66  1  0  0  0
 37104  1  0  0  0
 38 43  2  0  0  0
 38 46  1  0  0  0
 38 47  1  0  0  0
 39 64  1  0  0  0
 39 67  2  0  0  0
 40 52  1  0  0  0
 40 53  2  0  0  0
 40 58  1  0  0  0
 41105  1  0  0  0
 41106  1  0  0  0
 41107  1  0  0  0
 41 48  1  0  0  0
 42 43  1  0  0  0
 42 66  1  0  0  0
 42108  1  0  0  0
 42109  1  0  0  0
 43 44  1  0  0  0
 44110  1  0  0  0
 45 46  2  0  0  0
 45111  1  0  0  0
 46112  1  0  0  0
 47113  1  0  0  0
 47114  1  0  0  0
 48 56  1  0  0  0
 48 65  1  0  0  0
 48115  1  0  0  0
 49 50  1  0  0  0
 49 53  1  0  0  0
 49 64  1  0  0  0
 49116  1  0  0  0
 50 51  1  0  0  0
 50117  1  0  0  0
 50118  1  0  0  0
 51 52  1  0  0  0
 51119  1  0  0  0
 51120  1  0  0  0
 52121  1  0  0  0
 52122  1  0  0  0
 53 54  1  0  0  0
 54 55  2  0  0  0
 54123  1  0  0  0
 55 57  1  0  0  0
 55124  1  0  0  0
 56 69  2  0  0  0
 57 58  2  0  0  0
 57125  1  0  0  0
 58126  1  0  0  0
 59 60  1  0  0  0
 59 61  1  0  0  0
 59 62  1  0  0  0
 60127  1  0  0  0
 60128  1  0  0  0
 60129  1  0  0  0
 61130  1  0  0  0
 61131  1  0  0  0
 61132  1  0  0  0
 62133  1  0  0  0
 62134  1  0  0  0
 62135  1  0  0  0
 63 65  1  0  0  0
 63136  1  0  0  0
 63137  1  0  0  0
 63138  1  0  0  0
 64139  1  0  0  0
 65140  1  0  0  0
 68 79  1  0  0  0
 71 73  1  0  0  0
 71 75  1  0  0  0
 71141  1  0  0  0
 71142  1  0  0  0
 72 74  1  0  0  0
 72 75  1  0  0  0
 72143  1  0  0  0
 72144  1  0  0  0
 73 80  1  0  0  0
 73145  1  0  0  0
 73146  1  0  0  0
 74 80  1  0  0  0
 74147  1  0  0  0
 74148  1  0  0  0
 75 81  1  0  0  0
 75149  1  0  0  0
 76 77  1  0  0  0
 76 78  1  0  0  0
 76150  1  0  0  0
 76151  1  0  0  0
 77 79  1  0  0  0
 77152  1  0  0  0
 77153  1  0  0  0
 78 81  1  0  0  0
 78154  1  0  0  0
 78155  1  0  0  0
 79156  1  0  0  0
 79157  1  0  0  0
 81158  1  0  0  0
 81159  1  0  0  0
M  CHG  1  81   1
M  ISO  4   1 100  68 101  79 101  80 100
M  END
> <chiral flag>
0

> <version>
0

> <s_m_source_file>
/data/baiqing/PycharmProjects/Reinvent-master-3.2/result/LINK_invent/BTK/process_docking_weight1_custom_sum_contain_oxygen_bond_distance_aromatic_linkinvent_7_9_3/rearranged_h_0116.sdf

> <i_m_source_file_index>
90

> <r_mmod_Potential_Energy-OPLS-2005>
98.6081695556641

> <r_mmod_Stretch_Energy-OPLS-2005>
68.0407867431641

> <r_mmod_Bend_Energy-OPLS-2005>
121.608947753906

> <r_mmod_Torsional_Energy-OPLS-2005>
358.252563476562

> <r_mmod_Improper_Torsional_Energy-OPLS-2005>
13.6073894500732

> <r_mmod_Van_der_Waal_Energy-OPLS-2005>
114.559936523438

> <r_mmod_Electrostatic_Energy-OPLS-2005>
-155.015625

> <r_mmod_Solvation_Energy-OPLS-2005>
-457.289703369141

> <b_mmod_Minimization_Converged-OPLS-2005>
0

> <r_mmod_RMS_Derivative-OPLS-2005>
6.78528308868408

$$$$
91
                    3D
 Structure written by MMmdl.
178186  0  0  1  0            999 V2000
  -30.8050  -14.3210   20.7461 C   0  0  0  0  0  0
  -30.4093  -12.3000   19.3828 C   0  0  0  0  0  0
  -29.4756  -12.5455   18.1856 C   0  0  0  0  0  0
  -28.0038  -12.3856   18.6043 C   0  0  0  0  0  0
  -27.6627  -13.2044   19.8749 C   0  0  2  0  0  0
  -28.6986  -12.9571   20.9929 C   0  0  0  0  0  0
  -25.2584  -13.8155   20.5668 C   0  0  0  0  0  0
  -24.1827  -13.0436   20.9161 C   0  0  0  0  0  0
  -24.6375  -11.6900   20.8692 C   0  0  0  0  0  0
  -23.9044  -10.4290   21.0386 C   0  0  0  0  0  0
  -24.3605   -9.4215   21.9177 C   0  0  0  0  0  0
  -23.6283   -8.2244   22.0747 C   0  0  0  0  0  0
  -22.4275   -8.0270   21.3534 C   0  0  0  0  0  0
  -21.9896   -9.0235   20.4640 C   0  0  0  0  0  0
  -22.7211  -10.2128   20.3045 C   0  0  0  0  0  0
  -21.6863   -6.0730   22.5276 C   0  0  0  0  0  0
  -21.4016   -6.5627   23.8216 C   0  0  0  0  0  0
  -21.3661   -5.6787   24.9167 C   0  0  0  0  0  0
  -21.6047   -4.3043   24.7233 C   0  0  0  0  0  0
  -21.8817   -3.8141   23.4342 C   0  0  0  0  0  0
  -21.9194   -4.6952   22.3412 C   0  0  0  0  0  0
  -22.7855  -13.5240   21.1834 C   0  0  0  0  0  0
  -22.1663   -4.2144   21.0983 F   0  0  0  0  0  0
  -21.5630   -3.4536   25.7739 F   0  0  0  0  0  0
  -30.0471  -13.2298   20.4619 N   0  0  0  0  0  0
  -26.3018  -12.9324   20.3339 N   0  0  0  0  0  0
  -25.9300  -11.6478   20.5722 N   0  0  0  0  0  0
  -22.0498  -12.8222   22.0382 N   0  0  0  0  0  0
  -25.4298  -15.1869   20.4111 N   0  0  0  0  0  0
  -31.7640  -14.6775   20.0556 O   0  0  0  0  0  0
  -21.6632   -6.8856   21.4244 O   0  0  0  0  0  0
  -22.3534  -14.5549   20.6676 O   0  0  0  0  0  0
  -24.6094  -31.8701   23.2138 C   0  0  0  0  0  0
  -25.9005  -32.4834   23.8397 C   0  0  1  0  0  0
  -27.2612  -27.4717   20.1012 C   0  0  0  0  0  0
  -25.5916  -33.8628   24.2367 N   0  0  0  0  0  0
  -23.3978  -30.4953   21.5466 C   0  0  2  0  0  0
  -24.8533  -28.9604   20.1157 C   0  0  0  0  0  0
  -22.7375  -29.4686   22.4949 C   0  0  0  0  0  0
  -18.0288  -28.1380   22.8485 C   0  0  0  0  0  0
  -24.1490  -36.7312   23.2632 C   0  0  0  0  0  0
  -25.9196  -30.8509   21.3580 C   0  0  0  0  0  0
  -26.0049  -29.4831   20.7156 C   0  0  0  0  0  0
  -27.2085  -28.7482   20.7149 C   0  0  0  0  0  0
  -26.0973  -26.9697   19.4872 C   0  0  0  0  0  0
  -24.8916  -27.6982   19.4983 C   0  0  0  0  0  0
  -23.6125  -29.8218   20.1616 C   0  0  0  0  0  0
  -25.4108  -36.3116   24.0347 C   0  0  1  0  0  0
  -20.5869  -28.3671   23.1312 C   0  0  2  0  0  0
  -20.6776  -26.9405   22.5410 C   0  0  0  0  0  0
  -19.5755  -26.6397   21.5200 C   0  0  0  0  0  0
  -18.1931  -26.7924   22.1610 C   0  0  0  0  0  0
  -19.1527  -28.8846   23.2913 C   0  0  0  0  0  0
  -18.9472  -30.1455   23.8919 C   0  0  0  0  0  0
  -17.6473  -30.6596   24.0584 C   0  0  0  0  0  0
  -25.9035  -34.9473   23.5154 C   0  0  0  0  0  0
  -16.5366  -29.9095   23.6332 C   0  0  0  0  0  0
  -16.7275  -28.6511   23.0344 C   0  0  0  0  0  0
  -26.4446  -31.6576   25.0681 C   0  0  0  0  0  0
  -25.3759  -31.3674   26.1476 C   0  0  0  0  0  0
  -27.0271  -30.3032   24.5994 C   0  0  0  0  0  0
  -27.6034  -32.4255   25.7445 C   0  0  0  0  0  0
  -27.5593  -37.1823   24.8465 C   0  0  0  0  0  0
  -21.4105  -29.3036   22.3686 N   0  0  0  0  0  0
  -26.4295  -37.3805   23.9420 N   0  0  0  0  0  0
  -24.6599  -31.0855   22.1001 N   0  0  0  0  0  0
  -23.4163  -28.8241   23.2993 O   0  0  0  0  0  0
  -28.3819  -26.6676   20.0440 O   0  0  0  0  0  0
  -26.5565  -34.8912   22.4692 O   0  0  0  0  0  0
  -23.5301  -32.1404   23.7558 O   0  0  0  0  0  0
  -29.7091  -19.1641   23.5057 C   0  0  0  0  0  0
  -30.1053  -17.8186   23.5854 C   0  0  0  0  0  0
  -30.7915  -19.2637   21.3541 C   0  0  0  0  0  0
  -30.0819  -19.9334   22.3777 C   0  0  0  0  0  0
  -30.8513  -17.2692   22.5295 C   0  0  0  0  0  0
  -26.9251  -21.7446   25.5900 C   0  0  0  0  0  0
  -25.1885  -22.2936   23.8585 C   0  0  0  0  0  0
  -27.8952  -26.3573   23.0491 C   0  0  0  0  0  0
  -31.0491  -23.6098   23.6675 C   0  0  0  0  0  0
  -31.3845  -15.8513   22.6157 C   0  0  0  0  0  0
  -29.2367  -24.4015   22.0410 C   0  0  0  0  0  0
  -27.5565  -21.8500   23.1091 C   0  0  0  0  0  0
  -29.4140  -26.7843   21.0268 C   0  0  0  0  0  0
  -26.6699  -22.4252   24.2350 C   0  0  0  0  0  0
  -29.1755  -25.9343   22.3025 C   0  0  1  0  0  0
  -29.5508  -23.5467   23.3031 C   0  0  1  0  0  0
  -29.0831  -22.0643   23.2598 C   0  0  2  0  0  0
  -31.1639  -17.9672   21.4195 N   0  0  0  0  0  0
  -29.8009  -21.3075   22.2364 N   0  0  0  0  0  0
  -30.5406  -14.8770   21.9317 N   0  0  0  0  0  0
  -31.4515  -12.4070   19.0771 H   0  0  0  0  0  0
  -30.3083  -11.2741   19.7389 H   0  0  0  0  0  0
  -29.7119  -11.8569   17.3731 H   0  0  0  0  0  0
  -29.6385  -13.5510   17.7930 H   0  0  0  0  0  0
  -27.8146  -11.3263   18.7785 H   0  0  0  0  0  0
  -27.3487  -12.6793   17.7840 H   0  0  0  0  0  0
  -27.7174  -14.2576   19.5990 H   0  0  0  0  0  0
  -28.6525  -11.9211   21.3300 H   0  0  0  0  0  0
  -28.4363  -13.5616   21.8612 H   0  0  0  0  0  0
  -25.2761   -9.5705   22.4732 H   0  0  0  0  0  0
  -24.0010   -7.4646   22.7465 H   0  0  0  0  0  0
  -21.0830   -8.8737   19.8944 H   0  0  0  0  0  0
  -22.3660  -10.9651   19.6140 H   0  0  0  0  0  0
  -21.2006   -7.6140   23.9710 H   0  0  0  0  0  0
  -21.1487   -6.0515   25.9072 H   0  0  0  0  0  0
  -22.0593   -2.7606   23.2849 H   0  0  0  0  0  0
  -22.4124  -11.9895   22.4788 H   0  0  0  0  0  0
  -21.1112  -13.1229   22.2583 H   0  0  0  0  0  0
  -24.6664  -15.8439   20.5266 H   0  0  0  0  0  0
  -26.2910  -15.6291   20.1161 H   0  0  0  0  0  0
  -26.7073  -32.5621   23.1160 H   0  0  0  0  0  0
  -25.0085  -33.9768   25.0526 H   0  0  0  0  0  0
  -22.6869  -31.3112   21.4014 H   0  0  0  0  0  0
  -23.3757  -35.9651   23.3300 H   0  0  0  0  0  0
  -24.3579  -36.8919   22.2048 H   0  0  0  0  0  0
  -23.7238  -37.6518   23.6623 H   0  0  0  0  0  0
  -26.0219  -31.6136   20.5838 H   0  0  0  0  0  0
  -26.8082  -30.9127   21.9736 H   0  0  0  0  0  0
  -28.0739  -29.1848   21.1881 H   0  0  0  0  0  0
  -26.1271  -26.0000   19.0078 H   0  0  0  0  0  0
  -24.0102  -27.2895   19.0220 H   0  0  0  0  0  0
  -23.7289  -30.5909   19.3979 H   0  0  0  0  0  0
  -22.7373  -29.2395   19.8654 H   0  0  0  0  0  0
  -25.1289  -36.1965   25.0846 H   0  0  0  0  0  0
  -21.0009  -28.3239   24.1412 H   0  0  0  0  0  0
  -20.5660  -26.2275   23.3594 H   0  0  0  0  0  0
  -21.6670  -26.7441   22.1227 H   0  0  0  0  0  0
  -19.6914  -25.6310   21.1217 H   0  0  0  0  0  0
  -19.6718  -27.3219   20.6736 H   0  0  0  0  0  0
  -17.4220  -26.6708   21.3973 H   0  0  0  0  0  0
  -18.0352  -26.0041   22.8999 H   0  0  0  0  0  0
  -19.7956  -30.7285   24.2267 H   0  0  0  0  0  0
  -17.5045  -31.6266   24.5202 H   0  0  0  0  0  0
  -15.5379  -30.3032   23.7642 H   0  0  0  0  0  0
  -15.8675  -28.0869   22.7016 H   0  0  0  0  0  0
  -24.5913  -30.7015   25.7861 H   0  0  0  0  0  0
  -24.8963  -32.2828   26.4955 H   0  0  0  0  0  0
  -25.8173  -30.8843   27.0204 H   0  0  0  0  0  0
  -26.2803  -29.6783   24.1080 H   0  0  0  0  0  0
  -27.4116  -29.7248   25.4403 H   0  0  0  0  0  0
  -27.8587  -30.4376   23.9074 H   0  0  0  0  0  0
  -27.2679  -33.3536   26.2071 H   0  0  0  0  0  0
  -28.3833  -32.6839   25.0276 H   0  0  0  0  0  0
  -28.0694  -31.8330   26.5323 H   0  0  0  0  0  0
  -28.2626  -38.0110   24.7545 H   0  0  0  0  0  0
  -28.1077  -36.2654   24.6259 H   0  0  0  0  0  0
  -27.2315  -37.1466   25.8867 H   0  0  0  0  0  0
  -20.9255  -29.8792   21.6937 H   0  0  0  0  0  0
  -26.0181  -38.2880   24.1431 H   0  0  0  0  0  0
  -29.1533  -19.5844   24.3296 H   0  0  0  0  0  0
  -29.8708  -17.2343   24.4647 H   0  0  0  0  0  0
  -31.0863  -19.7877   20.4565 H   0  0  0  0  0  0
  -26.2623  -22.1395   26.3609 H   0  0  0  0  0  0
  -27.9456  -21.8947   25.9418 H   0  0  0  0  0  0
  -26.7477  -20.6706   25.5239 H   0  0  0  0  0  0
  -24.5467  -22.6996   24.6406 H   0  0  0  0  0  0
  -24.9145  -21.2490   23.7078 H   0  0  0  0  0  0
  -24.9645  -22.8345   22.9377 H   0  0  0  0  0  0
  -27.7813  -25.8472   24.0060 H   0  0  0  0  0  0
  -26.9997  -26.1475   22.4633 H   0  0  0  0  0  0
  -27.9130  -27.4280   23.2577 H   0  0  0  0  0  0
  -31.3722  -24.6221   23.9039 H   0  0  0  0  0  0
  -31.6826  -23.2440   22.8598 H   0  0  0  0  0  0
  -31.2603  -22.9964   24.5438 H   0  0  0  0  0  0
  -31.4542  -15.5615   23.6644 H   0  0  0  0  0  0
  -32.4087  -15.8304   22.2381 H   0  0  0  0  0  0
  -29.9973  -24.1856   21.2900 H   0  0  0  0  0  0
  -28.2948  -24.0984   21.5889 H   0  0  0  0  0  0
  -27.2269  -22.2453   22.1496 H   0  0  0  0  0  0
  -27.3516  -20.7800   23.0559 H   0  0  0  0  0  0
  -30.3308  -26.4268   20.5522 H   0  0  0  0  0  0
  -29.6300  -27.8183   21.2898 H   0  0  0  0  0  0
  -26.8695  -23.4900   24.3420 H   0  0  0  0  0  0
  -30.0107  -26.1829   22.9581 H   0  0  0  0  0  0
  -29.0263  -23.9975   24.1441 H   0  0  0  0  0  0
  -29.3705  -21.6570   24.2288 H   0  0  0  0  0  0
  -30.2195  -21.8285   21.4712 H   0  0  0  0  0  0
  -29.7590  -14.5090   22.4497 H   0  0  0  0  0  0
  1 25  1  0  0  0
  1 30  2  0  0  0
  1 90  1  0  0  0
  2  3  1  0  0  0
  2 25  1  0  0  0
  2 91  1  0  0  0
  2 92  1  0  0  0
  3  4  1  0  0  0
  3 93  1  0  0  0
  3 94  1  0  0  0
  4  5  1  0  0  0
  4 95  1  0  0  0
  4 96  1  0  0  0
  5  6  1  0  0  0
  5 26  1  0  0  0
  5 97  1  0  0  0
  6 25  1  0  0  0
  6 98  1  0  0  0
  6 99  1  0  0  0
  7  8  2  0  0  0
  7 26  1  0  0  0
  7 29  1  0  0  0
  8  9  1  0  0  0
  8 22  1  0  0  0
  9 10  1  0  0  0
  9 27  2  0  0  0
 10 11  2  0  0  0
 10 15  1  0  0  0
 11 12  1  0  0  0
 11100  1  0  0  0
 12 13  2  0  0  0
 12101  1  0  0  0
 13 14  1  0  0  0
 13 31  1  0  0  0
 14 15  2  0  0  0
 14102  1  0  0  0
 15103  1  0  0  0
 16 17  2  0  0  0
 16 21  1  0  0  0
 16 31  1  0  0  0
 17 18  1  0  0  0
 17104  1  0  0  0
 18 19  2  0  0  0
 18105  1  0  0  0
 19 20  1  0  0  0
 19 24  1  0  0  0
 20 21  2  0  0  0
 20106  1  0  0  0
 21 23  1  0  0  0
 22 28  1  0  0  0
 22 32  2  0  0  0
 26 27  1  0  0  0
 28107  1  0  0  0
 28108  1  0  0  0
 29109  1  0  0  0
 29110  1  0  0  0
 33 34  1  0  0  0
 33 66  1  0  0  0
 33 70  2  0  0  0
 34 36  1  0  0  0
 34 59  1  0  0  0
 34111  1  0  0  0
 35 44  2  0  0  0
 35 45  1  0  0  0
 35 68  1  0  0  0
 36 56  1  0  0  0
 36112  1  0  0  0
 37 39  1  0  0  0
 37 47  1  0  0  0
 37 66  1  0  0  0
 37113  1  0  0  0
 38 43  2  0  0  0
 38 46  1  0  0  0
 38 47  1  0  0  0
 39 64  1  0  0  0
 39 67  2  0  0  0
 40 52  1  0  0  0
 40 53  2  0  0  0
 40 58  1  0  0  0
 41114  1  0  0  0
 41115  1  0  0  0
 41116  1  0  0  0
 41 48  1  0  0  0
 42 43  1  0  0  0
 42 66  1  0  0  0
 42117  1  0  0  0
 42118  1  0  0  0
 43 44  1  0  0  0
 44119  1  0  0  0
 45 46  2  0  0  0
 45120  1  0  0  0
 46121  1  0  0  0
 47122  1  0  0  0
 47123  1  0  0  0
 48 56  1  0  0  0
 48 65  1  0  0  0
 48124  1  0  0  0
 49 50  1  0  0  0
 49 53  1  0  0  0
 49 64  1  0  0  0
 49125  1  0  0  0
 50 51  1  0  0  0
 50126  1  0  0  0
 50127  1  0  0  0
 51 52  1  0  0  0
 51128  1  0  0  0
 51129  1  0  0  0
 52130  1  0  0  0
 52131  1  0  0  0
 53 54  1  0  0  0
 54 55  2  0  0  0
 54132  1  0  0  0
 55 57  1  0  0  0
 55133  1  0  0  0
 56 69  2  0  0  0
 57 58  2  0  0  0
 57134  1  0  0  0
 58135  1  0  0  0
 59 60  1  0  0  0
 59 61  1  0  0  0
 59 62  1  0  0  0
 60136  1  0  0  0
 60137  1  0  0  0
 60138  1  0  0  0
 61139  1  0  0  0
 61140  1  0  0  0
 61141  1  0  0  0
 62142  1  0  0  0
 62143  1  0  0  0
 62144  1  0  0  0
 63 65  1  0  0  0
 63145  1  0  0  0
 63146  1  0  0  0
 63147  1  0  0  0
 64148  1  0  0  0
 65149  1  0  0  0
 68 83  1  0  0  0
 71 72  2  0  0  0
 71 74  1  0  0  0
 71150  1  0  0  0
 72 75  1  0  0  0
 72151  1  0  0  0
 73 74  2  0  0  0
 73 88  1  0  0  0
 73152  1  0  0  0
 74 89  1  0  0  0
 75 80  1  0  0  0
 75 88  2  0  0  0
 76153  1  0  0  0
 76154  1  0  0  0
 76155  1  0  0  0
 76 84  1  0  0  0
 77 84  1  0  0  0
 77156  1  0  0  0
 77157  1  0  0  0
 77158  1  0  0  0
 78159  1  0  0  0
 78160  1  0  0  0
 78161  1  0  0  0
 78 85  1  0  0  0
 79162  1  0  0  0
 79163  1  0  0  0
 79164  1  0  0  0
 79 86  1  0  0  0
 80 90  1  0  0  0
 80165  1  0  0  0
 80166  1  0  0  0
 81 85  1  0  0  0
 81 86  1  0  0  0
 81167  1  0  0  0
 81168  1  0  0  0
 82 84  1  0  0  0
 82169  1  0  0  0
 82170  1  0  0  0
 82 87  1  0  0  0
 83 85  1  0  0  0
 83171  1  0  0  0
 83172  1  0  0  0
 84173  1  0  0  0
 85174  1  0  0  0
 86 87  1  0  0  0
 86175  1  0  0  0
 87 89  1  0  0  0
 87176  1  0  0  0
 89177  1  0  0  0
 90178  1  0  0  0
M  ISO  4   1 100  68 101  83 101  90 100
M  END
> <chiral flag>
0

> <version>
0

> <s_m_source_file>
/data/baiqing/PycharmProjects/Reinvent-master-3.2/result/LINK_invent/BTK/process_docking_weight1_custom_sum_contain_oxygen_bond_distance_aromatic_linkinvent_7_9_3/rearranged_h_0116.sdf

> <i_m_source_file_index>
91

> <r_mmod_Potential_Energy-OPLS-2005>
-276.087921142578

> <r_mmod_Stretch_Energy-OPLS-2005>
36.1806716918945

> <r_mmod_Bend_Energy-OPLS-2005>
124.224510192871

> <r_mmod_Torsional_Energy-OPLS-2005>
220.708786010742

> <r_mmod_Improper_Torsional_Energy-OPLS-2005>
3.75597262382507

> <r_mmod_Van_der_Waal_Energy-OPLS-2005>
152.827865600586

> <r_mmod_Electrostatic_Energy-OPLS-2005>
-603.407104492188

> <r_mmod_Solvation_Energy-OPLS-2005>
-217.732345581055

> <b_mmod_Minimization_Converged-OPLS-2005>
0

> <r_mmod_RMS_Derivative-OPLS-2005>
3.6140410900116

$$$$
92
                    3D
 Structure written by MMmdl.
170178  0  0  1  0            999 V2000
  -30.6842  -14.5163   20.5297 C   0  0  0  0  0  0
  -30.4209  -12.3310   19.4057 C   0  0  0  0  0  0
  -29.4903  -12.5242   18.1910 C   0  0  0  0  0  0
  -28.0078  -12.4054   18.5949 C   0  0  0  0  0  0
  -27.6591  -13.2236   19.8686 C   0  0  2  0  0  0
  -28.7106  -13.0072   20.9799 C   0  0  0  0  0  0
  -25.2507  -13.8158   20.5482 C   0  0  0  0  0  0
  -24.1816  -13.0441   20.9023 C   0  0  0  0  0  0
  -24.6411  -11.6908   20.8671 C   0  0  0  0  0  0
  -23.9095  -10.4286   21.0346 C   0  0  0  0  0  0
  -24.3649   -9.4215   21.9154 C   0  0  0  0  0  0
  -23.6318   -8.2252   22.0723 C   0  0  0  0  0  0
  -22.4294   -8.0284   21.3534 C   0  0  0  0  0  0
  -21.9942   -9.0244   20.4618 C   0  0  0  0  0  0
  -22.7254  -10.2116   20.2999 C   0  0  0  0  0  0
  -21.6847   -6.0738   22.5276 C   0  0  0  0  0  0
  -21.4007   -6.5630   23.8213 C   0  0  0  0  0  0
  -21.3682   -5.6780   24.9184 C   0  0  0  0  0  0
  -21.6050   -4.3043   24.7215 C   0  0  0  0  0  0
  -21.8831   -3.8151   23.4331 C   0  0  0  0  0  0
  -21.9197   -4.6979   22.3398 C   0  0  0  0  0  0
  -22.7851  -13.5245   21.1806 C   0  0  0  0  0  0
  -22.1675   -4.2181   21.0971 F   0  0  0  0  0  0
  -21.5643   -3.4508   25.7710 F   0  0  0  0  0  0
  -30.0282  -13.3267   20.4139 N   0  0  0  0  0  0
  -26.3041  -12.9391   20.3337 N   0  0  0  0  0  0
  -25.9371  -11.6535   20.5734 N   0  0  0  0  0  0
  -22.0556  -12.8236   22.0380 N   0  0  0  0  0  0
  -25.4201  -15.1891   20.4008 N   0  0  0  0  0  0
  -31.8480  -14.6792   20.1562 O   0  0  0  0  0  0
  -21.6668   -6.8872   21.4218 O   0  0  0  0  0  0
  -22.3522  -14.5598   20.6724 O   0  0  0  0  0  0
  -24.6227  -31.8636   23.2096 C   0  0  0  0  0  0
  -25.9102  -32.4797   23.8396 C   0  0  1  0  0  0
  -27.2217  -27.3831   20.0889 C   0  0  0  0  0  0
  -25.5930  -33.8612   24.2281 N   0  0  0  0  0  0
  -23.4105  -30.4911   21.5573 C   0  0  2  0  0  0
  -24.8438  -28.9487   20.1214 C   0  0  0  0  0  0
  -22.7445  -29.4662   22.5034 C   0  0  0  0  0  0
  -18.0266  -28.1392   22.8481 C   0  0  0  0  0  0
  -24.1472  -36.7296   23.2648 C   0  0  0  0  0  0
  -25.9503  -30.8099   21.3734 C   0  0  0  0  0  0
  -26.0170  -29.4512   20.6968 C   0  0  0  0  0  0
  -27.2097  -28.6865   20.6537 C   0  0  0  0  0  0
  -26.0175  -26.9025   19.5220 C   0  0  0  0  0  0
  -24.8416  -27.6750   19.5328 C   0  0  0  0  0  0
  -23.6154  -29.8271   20.1723 C   0  0  0  0  0  0
  -25.4124  -36.3109   24.0322 C   0  0  1  0  0  0
  -20.5862  -28.3695   23.1290 C   0  0  2  0  0  0
  -20.6769  -26.9421   22.5427 C   0  0  0  0  0  0
  -19.5752  -26.6375   21.5227 C   0  0  0  0  0  0
  -18.1920  -26.7937   22.1604 C   0  0  0  0  0  0
  -19.1516  -28.8868   23.2860 C   0  0  0  0  0  0
  -18.9465  -30.1476   23.8875 C   0  0  0  0  0  0
  -17.6459  -30.6592   24.0582 C   0  0  0  0  0  0
  -25.9066  -34.9480   23.5098 C   0  0  0  0  0  0
  -16.5337  -29.9104   23.6348 C   0  0  0  0  0  0
  -16.7241  -28.6512   23.0360 C   0  0  0  0  0  0
  -26.4511  -31.6664   25.0809 C   0  0  0  0  0  0
  -25.3760  -31.3783   26.1542 C   0  0  0  0  0  0
  -27.0350  -30.3071   24.6323 C   0  0  0  0  0  0
  -27.6036  -32.4469   25.7579 C   0  0  0  0  0  0
  -27.5575  -37.1825   24.8444 C   0  0  0  0  0  0
  -21.4183  -29.3036   22.3706 N   0  0  0  0  0  0
  -26.4288  -37.3828   23.9393 N   0  0  0  0  0  0
  -24.6810  -31.0705   22.1010 N   0  0  0  0  0  0
  -23.4156  -28.8213   23.3133 O   0  0  0  0  0  0
  -28.3969  -26.6425   20.1159 O   0  0  0  0  0  0
  -26.5652  -34.8943   22.4670 O   0  0  0  0  0  0
  -23.5419  -32.1407   23.7477 O   0  0  0  0  0  0
  -27.2627  -18.7352   22.5694 C   0  0  0  0  0  0
  -27.6419  -20.0640   22.3511 C   0  0  0  0  0  0
  -28.1238  -17.6744   22.2004 C   0  0  0  0  0  0
  -28.8689  -20.3418   21.7390 C   0  0  0  0  0  0
  -29.3182  -18.0275   21.4937 C   0  0  0  0  0  0
  -27.1000  -24.3156   21.7868 C   0  0  0  0  0  0
  -27.8504  -16.3768   25.0205 C   0  0  0  0  0  0
  -26.5660  -14.6026   23.7998 C   0  0  0  0  0  0
  -30.3358  -16.9898   20.9413 C   0  0  0  0  0  0
  -28.7270  -22.7368   20.5882 C   0  0  0  0  0  0
  -28.4331  -25.2271   19.7775 C   0  0  0  0  0  0
  -29.3455  -21.8226   21.7048 C   0  0  2  0  0  0
  -28.4212  -24.2321   20.9880 C   0  0  1  0  0  0
  -27.0334  -16.0640   23.7612 C   0  0  0  0  0  0
  -29.6698  -19.3332   21.2824 N   0  0  0  0  0  0
  -27.8184  -16.3379   22.5547 N   0  0  0  0  0  0
  -29.9225  -15.5688   20.8856 N   0  0  0  0  0  0
  -30.7623  -21.9413   21.6845 O   0  0  0  0  0  0
  -31.4617  -12.4378   19.1015 H   0  0  0  0  0  0
  -30.3300  -11.3206   19.8054 H   0  0  0  0  0  0
  -29.7248  -11.7957   17.4122 H   0  0  0  0  0  0
  -29.6739  -13.5062   17.7512 H   0  0  0  0  0  0
  -27.7861  -11.3486   18.7495 H   0  0  0  0  0  0
  -27.3766  -12.7388   17.7684 H   0  0  0  0  0  0
  -27.6924  -14.2776   19.5895 H   0  0  0  0  0  0
  -28.6994  -11.9717   21.3238 H   0  0  0  0  0  0
  -28.4930  -13.6147   21.8557 H   0  0  0  0  0  0
  -25.2780   -9.5714   22.4758 H   0  0  0  0  0  0
  -24.0027   -7.4644   22.7435 H   0  0  0  0  0  0
  -21.0849   -8.8721   19.8942 H   0  0  0  0  0  0
  -22.3655  -10.9647   19.6116 H   0  0  0  0  0  0
  -21.1967   -7.6134   23.9726 H   0  0  0  0  0  0
  -21.1515   -6.0501   25.9079 H   0  0  0  0  0  0
  -22.0594   -2.7616   23.2810 H   0  0  0  0  0  0
  -22.4138  -11.9816   22.4687 H   0  0  0  0  0  0
  -21.1168  -13.1207   22.2613 H   0  0  0  0  0  0
  -24.6417  -15.7693   20.6855 H   0  0  0  0  0  0
  -26.3009  -15.5749   20.7234 H   0  0  0  0  0  0
  -26.7187  -32.5445   23.1171 H   0  0  0  0  0  0
  -25.0070  -33.9768   25.0415 H   0  0  0  0  0  0
  -22.7021  -31.3118   21.4215 H   0  0  0  0  0  0
  -23.3753  -35.9612   23.3320 H   0  0  0  0  0  0
  -24.3519  -36.8920   22.2047 H   0  0  0  0  0  0
  -23.7184  -37.6495   23.6656 H   0  0  0  0  0  0
  -26.1087  -31.5906   20.6303 H   0  0  0  0  0  0
  -26.8200  -30.8190   22.0202 H   0  0  0  0  0  0
  -28.1237  -29.0925   21.0655 H   0  0  0  0  0  0
  -25.9438  -25.9252   19.0734 H   0  0  0  0  0  0
  -23.9365  -27.2692   19.1022 H   0  0  0  0  0  0
  -23.7362  -30.6037   19.4161 H   0  0  0  0  0  0
  -22.7311  -29.2604   19.8748 H   0  0  0  0  0  0
  -25.1310  -36.1998   25.0828 H   0  0  0  0  0  0
  -20.9903  -28.3265   24.1429 H   0  0  0  0  0  0
  -20.5667  -26.2318   23.3637 H   0  0  0  0  0  0
  -21.6649  -26.7491   22.1213 H   0  0  0  0  0  0
  -19.6916  -25.6273   21.1297 H   0  0  0  0  0  0
  -19.6695  -27.3154   20.6726 H   0  0  0  0  0  0
  -17.4209  -26.6687   21.3985 H   0  0  0  0  0  0
  -18.0284  -26.0093   22.8987 H   0  0  0  0  0  0
  -19.7938  -30.7315   24.2213 H   0  0  0  0  0  0
  -17.5009  -31.6266   24.5187 H   0  0  0  0  0  0
  -15.5339  -30.2999   23.7708 H   0  0  0  0  0  0
  -15.8611  -28.0826   22.7098 H   0  0  0  0  0  0
  -24.5837  -30.7280   25.7810 H   0  0  0  0  0  0
  -24.9109  -32.2957   26.5161 H   0  0  0  0  0  0
  -25.8095  -30.8757   27.0195 H   0  0  0  0  0  0
  -26.2919  -29.6851   24.1326 H   0  0  0  0  0  0
  -27.3919  -29.7357   25.4900 H   0  0  0  0  0  0
  -27.8862  -30.4296   23.9631 H   0  0  0  0  0  0
  -27.2553  -33.3705   26.2245 H   0  0  0  0  0  0
  -28.3808  -32.7203   25.0412 H   0  0  0  0  0  0
  -28.0797  -31.8604   26.5466 H   0  0  0  0  0  0
  -28.2633  -38.0099   24.7555 H   0  0  0  0  0  0
  -28.1054  -36.2649   24.6226 H   0  0  0  0  0  0
  -27.2290  -37.1421   25.8850 H   0  0  0  0  0  0
  -20.9368  -29.8678   21.6855 H   0  0  0  0  0  0
  -26.0171  -38.2907   24.1430 H   0  0  0  0  0  0
  -26.3211  -18.5644   23.0616 H   0  0  0  0  0  0
  -27.0083  -20.8666   22.7006 H   0  0  0  0  0  0
  -27.1969  -23.8475   22.7663 H   0  0  0  0  0  0
  -26.2777  -23.8145   21.2746 H   0  0  0  0  0  0
  -26.7867  -25.3406   21.9658 H   0  0  0  0  0  0
  -27.2823  -16.1419   25.9203 H   0  0  0  0  0  0
  -28.1333  -17.4271   25.0768 H   0  0  0  0  0  0
  -28.7687  -15.7895   25.0546 H   0  0  0  0  0  0
  -25.9618  -14.4060   24.6848 H   0  0  0  0  0  0
  -27.3963  -13.8984   23.8168 H   0  0  0  0  0  0
  -25.9388  -14.3588   22.9498 H   0  0  0  0  0  0
  -31.2628  -17.0653   21.5125 H   0  0  0  0  0  0
  -30.5919  -17.2954   19.9260 H   0  0  0  0  0  0
  -27.7865  -22.2924   20.2557 H   0  0  0  0  0  0
  -29.3738  -22.6994   19.7090 H   0  0  0  0  0  0
  -27.7221  -24.9288   19.0105 H   0  0  0  0  0  0
  -29.3940  -25.0942   19.2822 H   0  0  0  0  0  0
  -29.0316  -22.2350   22.6652 H   0  0  0  0  0  0
  -29.2235  -24.5708   21.6444 H   0  0  0  0  0  0
  -26.1215  -16.6615   23.7690 H   0  0  0  0  0  0
  -28.6499  -15.7572   22.5347 H   0  0  0  0  0  0
  -28.9309  -15.4097   20.9994 H   0  0  0  0  0  0
  -30.9792  -22.8279   21.9495 H   0  0  0  0  0  0
  1 25  1  0  0  0
  1 30  2  0  0  0
  1 87  1  0  0  0
  2  3  1  0  0  0
  2 25  1  0  0  0
  2 89  1  0  0  0
  2 90  1  0  0  0
  3  4  1  0  0  0
  3 91  1  0  0  0
  3 92  1  0  0  0
  4  5  1  0  0  0
  4 93  1  0  0  0
  4 94  1  0  0  0
  5  6  1  0  0  0
  5 26  1  0  0  0
  5 95  1  0  0  0
  6 25  1  0  0  0
  6 96  1  0  0  0
  6 97  1  0  0  0
  7  8  2  0  0  0
  7 26  1  0  0  0
  7 29  1  0  0  0
  8  9  1  0  0  0
  8 22  1  0  0  0
  9 10  1  0  0  0
  9 27  2  0  0  0
 10 11  2  0  0  0
 10 15  1  0  0  0
 11 12  1  0  0  0
 11 98  1  0  0  0
 12 13  2  0  0  0
 12 99  1  0  0  0
 13 14  1  0  0  0
 13 31  1  0  0  0
 14 15  2  0  0  0
 14100  1  0  0  0
 15101  1  0  0  0
 16 17  2  0  0  0
 16 21  1  0  0  0
 16 31  1  0  0  0
 17 18  1  0  0  0
 17102  1  0  0  0
 18 19  2  0  0  0
 18103  1  0  0  0
 19 20  1  0  0  0
 19 24  1  0  0  0
 20 21  2  0  0  0
 20104  1  0  0  0
 21 23  1  0  0  0
 22 28  1  0  0  0
 22 32  2  0  0  0
 26 27  1  0  0  0
 28105  1  0  0  0
 28106  1  0  0  0
 29107  1  0  0  0
 29108  1  0  0  0
 33 34  1  0  0  0
 33 66  1  0  0  0
 33 70  2  0  0  0
 34 36  1  0  0  0
 34 59  1  0  0  0
 34109  1  0  0  0
 35 44  2  0  0  0
 35 45  1  0  0  0
 35 68  1  0  0  0
 36 56  1  0  0  0
 36110  1  0  0  0
 37 39  1  0  0  0
 37 47  1  0  0  0
 37 66  1  0  0  0
 37111  1  0  0  0
 38 43  2  0  0  0
 38 46  1  0  0  0
 38 47  1  0  0  0
 39 64  1  0  0  0
 39 67  2  0  0  0
 40 52  1  0  0  0
 40 53  2  0  0  0
 40 58  1  0  0  0
 41112  1  0  0  0
 41113  1  0  0  0
 41114  1  0  0  0
 41 48  1  0  0  0
 42 43  1  0  0  0
 42 66  1  0  0  0
 42115  1  0  0  0
 42116  1  0  0  0
 43 44  1  0  0  0
 44117  1  0  0  0
 45 46  2  0  0  0
 45118  1  0  0  0
 46119  1  0  0  0
 47120  1  0  0  0
 47121  1  0  0  0
 48 56  1  0  0  0
 48 65  1  0  0  0
 48122  1  0  0  0
 49 50  1  0  0  0
 49 53  1  0  0  0
 49 64  1  0  0  0
 49123  1  0  0  0
 50 51  1  0  0  0
 50124  1  0  0  0
 50125  1  0  0  0
 51 52  1  0  0  0
 51126  1  0  0  0
 51127  1  0  0  0
 52128  1  0  0  0
 52129  1  0  0  0
 53 54  1  0  0  0
 54 55  2  0  0  0
 54130  1  0  0  0
 55 57  1  0  0  0
 55131  1  0  0  0
 56 69  2  0  0  0
 57 58  2  0  0  0
 57132  1  0  0  0
 58133  1  0  0  0
 59 60  1  0  0  0
 59 61  1  0  0  0
 59 62  1  0  0  0
 60134  1  0  0  0
 60135  1  0  0  0
 60136  1  0  0  0
 61137  1  0  0  0
 61138  1  0  0  0
 61139  1  0  0  0
 62140  1  0  0  0
 62141  1  0  0  0
 62142  1  0  0  0
 63 65  1  0  0  0
 63143  1  0  0  0
 63144  1  0  0  0
 63145  1  0  0  0
 64146  1  0  0  0
 65147  1  0  0  0
 68 81  1  0  0  0
 71 72  2  0  0  0
 71 73  1  0  0  0
 71148  1  0  0  0
 72 74  1  0  0  0
 72149  1  0  0  0
 73 75  2  0  0  0
 73 86  1  0  0  0
 74 82  1  0  0  0
 74 85  2  0  0  0
 75 79  1  0  0  0
 75 85  1  0  0  0
 76150  1  0  0  0
 76151  1  0  0  0
 76152  1  0  0  0
 76 83  1  0  0  0
 77153  1  0  0  0
 77154  1  0  0  0
 77155  1  0  0  0
 77 84  1  0  0  0
 78 84  1  0  0  0
 78156  1  0  0  0
 78157  1  0  0  0
 78158  1  0  0  0
 79 87  1  0  0  0
 79159  1  0  0  0
 79160  1  0  0  0
 80 82  1  0  0  0
 80 83  1  0  0  0
 80161  1  0  0  0
 80162  1  0  0  0
 81 83  1  0  0  0
 81163  1  0  0  0
 81164  1  0  0  0
 82 88  1  0  0  0
 82165  1  0  0  0
 83166  1  0  0  0
 84 86  1  0  0  0
 84167  1  0  0  0
 86168  1  0  0  0
 87169  1  0  0  0
 88170  1  0  0  0
M  ISO  4   1 100  68 101  81 101  87 100
M  END
> <chiral flag>
0

> <version>
0

> <s_m_source_file>
/data/baiqing/PycharmProjects/Reinvent-master-3.2/result/LINK_invent/BTK/process_docking_weight1_custom_sum_contain_oxygen_bond_distance_aromatic_linkinvent_7_9_3/rearranged_h_0116.sdf

> <i_m_source_file_index>
92

> <r_mmod_Potential_Energy-OPLS-2005>
-244.972290039062

> <r_mmod_Stretch_Energy-OPLS-2005>
56.475700378418

> <r_mmod_Bend_Energy-OPLS-2005>
128.547729492188

> <r_mmod_Torsional_Energy-OPLS-2005>
214.488052368164

> <r_mmod_Improper_Torsional_Energy-OPLS-2005>
13.9688167572021

> <r_mmod_Van_der_Waal_Energy-OPLS-2005>
149.096221923828

> <r_mmod_Electrostatic_Energy-OPLS-2005>
-598.413879394531

> <r_mmod_Solvation_Energy-OPLS-2005>
-231.719879150391

> <b_mmod_Minimization_Converged-OPLS-2005>
0

> <r_mmod_RMS_Derivative-OPLS-2005>
5.08116912841797

$$$$
93
                    3D
 Structure written by MMmdl.
169176  0  0  1  0            999 V2000
  -30.6771  -14.5312   20.5400 C   0  0  0  0  0  0
  -30.4278  -12.3358   19.4392 C   0  0  0  0  0  0
  -29.5002  -12.4953   18.2163 C   0  0  0  0  0  0
  -28.0209  -12.3531   18.6264 C   0  0  0  0  0  0
  -27.6557  -13.2094   19.8691 C   0  0  2  0  0  0
  -28.6987  -13.0303   20.9953 C   0  0  0  0  0  0
  -25.2549  -13.8151   20.5677 C   0  0  0  0  0  0
  -24.1813  -13.0428   20.9197 C   0  0  0  0  0  0
  -24.6382  -11.6897   20.8742 C   0  0  0  0  0  0
  -23.9053  -10.4290   21.0402 C   0  0  0  0  0  0
  -24.3609   -9.4209   21.9176 C   0  0  0  0  0  0
  -23.6290   -8.2243   22.0750 C   0  0  0  0  0  0
  -22.4274   -8.0284   21.3540 C   0  0  0  0  0  0
  -21.9908   -9.0253   20.4638 C   0  0  0  0  0  0
  -22.7236  -10.2131   20.3047 C   0  0  0  0  0  0
  -21.6856   -6.0733   22.5285 C   0  0  0  0  0  0
  -21.4024   -6.5638   23.8216 C   0  0  0  0  0  0
  -21.3652   -5.6787   24.9175 C   0  0  0  0  0  0
  -21.6049   -4.3051   24.7229 C   0  0  0  0  0  0
  -21.8819   -3.8148   23.4352 C   0  0  0  0  0  0
  -21.9196   -4.6960   22.3403 C   0  0  0  0  0  0
  -22.7842  -13.5217   21.1863 C   0  0  0  0  0  0
  -22.1659   -4.2152   21.0978 F   0  0  0  0  0  0
  -21.5627   -3.4526   25.7736 F   0  0  0  0  0  0
  -30.0230  -13.3410   20.4356 N   0  0  0  0  0  0
  -26.2989  -12.9333   20.3339 N   0  0  0  0  0  0
  -25.9312  -11.6493   20.5777 N   0  0  0  0  0  0
  -22.0486  -12.8210   22.0420 N   0  0  0  0  0  0
  -25.4248  -15.1878   20.4060 N   0  0  0  0  0  0
  -31.8312  -14.6900   20.1324 O   0  0  0  0  0  0
  -21.6638   -6.8879   21.4248 O   0  0  0  0  0  0
  -22.3537  -14.5534   20.6716 O   0  0  0  0  0  0
  -24.6189  -31.8642   23.2071 C   0  0  0  0  0  0
  -25.9066  -32.4805   23.8367 C   0  0  1  0  0  0
  -27.2247  -27.3788   20.1045 C   0  0  0  0  0  0
  -25.5914  -33.8601   24.2305 N   0  0  0  0  0  0
  -23.4084  -30.4886   21.5487 C   0  0  2  0  0  0
  -24.8507  -28.9491   20.1179 C   0  0  0  0  0  0
  -22.7434  -29.4632   22.4969 C   0  0  0  0  0  0
  -18.0285  -28.1375   22.8477 C   0  0  0  0  0  0
  -24.1491  -36.7308   23.2637 C   0  0  0  0  0  0
  -25.9426  -30.8148   21.3663 C   0  0  0  0  0  0
  -26.0162  -29.4460   20.7130 C   0  0  0  0  0  0
  -27.2031  -28.6694   20.6986 C   0  0  0  0  0  0
  -26.0320  -26.9129   19.5017 C   0  0  0  0  0  0
  -24.8569  -27.6856   19.5085 C   0  0  0  0  0  0
  -23.6174  -29.8231   20.1638 C   0  0  0  0  0  0
  -25.4118  -36.3105   24.0331 C   0  0  1  0  0  0
  -20.5874  -28.3665   23.1308 C   0  0  2  0  0  0
  -20.6773  -26.9393   22.5425 C   0  0  0  0  0  0
  -19.5752  -26.6380   21.5214 C   0  0  0  0  0  0
  -18.1927  -26.7921   22.1619 C   0  0  0  0  0  0
  -19.1533  -28.8840   23.2888 C   0  0  0  0  0  0
  -18.9454  -30.1444   23.8901 C   0  0  0  0  0  0
  -17.6455  -30.6577   24.0560 C   0  0  0  0  0  0
  -25.9046  -34.9467   23.5121 C   0  0  0  0  0  0
  -16.5347  -29.9078   23.6320 C   0  0  0  0  0  0
  -16.7273  -28.6496   23.0339 C   0  0  0  0  0  0
  -26.4480  -31.6598   25.0709 C   0  0  0  0  0  0
  -25.3739  -31.3704   26.1456 C   0  0  0  0  0  0
  -27.0314  -30.3036   24.6102 C   0  0  0  0  0  0
  -27.6057  -32.4318   25.7484 C   0  0  0  0  0  0
  -27.5578  -37.1808   24.8461 C   0  0  0  0  0  0
  -21.4159  -29.3031   22.3716 N   0  0  0  0  0  0
  -26.4299  -37.3793   23.9401 N   0  0  0  0  0  0
  -24.6755  -31.0696   22.1000 N   0  0  0  0  0  0
  -23.4189  -28.8170   23.3017 O   0  0  0  0  0  0
  -28.4054  -26.6409   20.1127 O   0  0  0  0  0  0
  -26.5596  -34.8927   22.4676 O   0  0  0  0  0  0
  -23.5369  -32.1427   23.7441 O   0  0  0  0  0  0
  -25.8690  -23.3489   25.1686 C   0  0  0  0  0  0
  -24.9911  -22.9155   21.3753 C   0  0  0  0  0  0
  -25.1696  -22.8674   23.8881 C   0  0  0  0  0  0
  -30.3656  -17.0102   20.9661 C   0  0  0  0  0  0
  -29.0660  -22.0096   20.9646 C   0  0  0  0  0  0
  -28.4456  -24.4012   21.2563 C   0  0  0  0  0  0
  -27.2904  -22.6838   22.4692 C   0  0  0  0  0  0
  -29.2165  -18.0594   20.7745 C   0  0  0  0  0  0
  -28.6192  -20.5323   20.6235 C   0  0  0  0  0  0
  -28.4082  -25.1964   19.9174 C   0  0  0  0  0  0
  -25.8688  -23.2964   22.5803 C   0  0  1  0  0  0
  -29.9333  -15.5880   20.9439 N   0  0  0  0  0  0
  -27.9708  -22.9889   21.1967 N   0  0  0  0  0  0
  -29.6677  -19.4879   20.8645 N   0  3  0  0  0  0
  -31.4725  -12.4415   19.1416 H   0  0  0  0  0  0
  -30.3401  -11.3326   19.8584 H   0  0  0  0  0  0
  -29.7505  -11.7533   17.4557 H   0  0  0  0  0  0
  -29.6630  -13.4707   17.7555 H   0  0  0  0  0  0
  -27.8387  -11.2985   18.8405 H   0  0  0  0  0  0
  -27.3703  -12.6069   17.7887 H   0  0  0  0  0  0
  -27.6843  -14.2512   19.5513 H   0  0  0  0  0  0
  -28.6840  -12.0038   21.3645 H   0  0  0  0  0  0
  -28.4606  -13.6578   21.8554 H   0  0  0  0  0  0
  -25.2756   -9.5679   22.4741 H   0  0  0  0  0  0
  -24.0001   -7.4631   22.7468 H   0  0  0  0  0  0
  -21.0844   -8.8754   19.8943 H   0  0  0  0  0  0
  -22.3688  -10.9653   19.6153 H   0  0  0  0  0  0
  -21.2011   -7.6143   23.9718 H   0  0  0  0  0  0
  -21.1478   -6.0515   25.9071 H   0  0  0  0  0  0
  -22.0608   -2.7613   23.2844 H   0  0  0  0  0  0
  -22.4094  -11.9865   22.4798 H   0  0  0  0  0  0
  -21.1105  -13.1245   22.2608 H   0  0  0  0  0  0
  -24.6511  -15.8376   20.4981 H   0  0  0  0  0  0
  -26.2631  -15.6217   20.0432 H   0  0  0  0  0  0
  -26.7123  -32.5490   23.1114 H   0  0  0  0  0  0
  -25.0085  -33.9765   25.0463 H   0  0  0  0  0  0
  -22.6988  -31.3067   21.4081 H   0  0  0  0  0  0
  -23.3754  -35.9635   23.3313 H   0  0  0  0  0  0
  -24.3579  -36.8921   22.2046 H   0  0  0  0  0  0
  -23.7253  -37.6519   23.6650 H   0  0  0  0  0  0
  -26.0579  -31.5773   20.5952 H   0  0  0  0  0  0
  -26.8304  -30.8684   21.9847 H   0  0  0  0  0  0
  -28.1050  -29.0507   21.1567 H   0  0  0  0  0  0
  -25.9653  -25.9591   19.0057 H   0  0  0  0  0  0
  -23.9616  -27.2982   19.0420 H   0  0  0  0  0  0
  -23.7298  -30.5988   19.4050 H   0  0  0  0  0  0
  -22.7390  -29.2484   19.8648 H   0  0  0  0  0  0
  -25.1297  -36.1959   25.0821 H   0  0  0  0  0  0
  -20.9955  -28.3217   24.1430 H   0  0  0  0  0  0
  -20.5671  -26.2253   23.3605 H   0  0  0  0  0  0
  -21.6637  -26.7421   22.1207 H   0  0  0  0  0  0
  -19.6911  -25.6293   21.1233 H   0  0  0  0  0  0
  -19.6701  -27.3193   20.6743 H   0  0  0  0  0  0
  -17.4196  -26.6666   21.4025 H   0  0  0  0  0  0
  -18.0320  -26.0074   22.9023 H   0  0  0  0  0  0
  -19.7933  -30.7261   24.2258 H   0  0  0  0  0  0
  -17.5015  -31.6256   24.5163 H   0  0  0  0  0  0
  -15.5346  -30.2982   23.7661 H   0  0  0  0  0  0
  -15.8672  -28.0838   22.7036 H   0  0  0  0  0  0
  -24.5920  -30.7044   25.7793 H   0  0  0  0  0  0
  -24.8919  -32.2853   26.4899 H   0  0  0  0  0  0
  -25.8097  -30.8879   27.0215 H   0  0  0  0  0  0
  -26.2857  -29.6797   24.1163 H   0  0  0  0  0  0
  -27.4088  -29.7275   25.4558 H   0  0  0  0  0  0
  -27.8689  -30.4361   23.9255 H   0  0  0  0  0  0
  -27.2677  -33.3616   26.2074 H   0  0  0  0  0  0
  -28.3866  -32.6882   25.0310 H   0  0  0  0  0  0
  -28.0720  -31.8426   26.5394 H   0  0  0  0  0  0
  -28.2599  -38.0102   24.7505 H   0  0  0  0  0  0
  -28.1076  -36.2632   24.6297 H   0  0  0  0  0  0
  -27.2283  -37.1467   25.8861 H   0  0  0  0  0  0
  -20.9307  -29.8771   21.6962 H   0  0  0  0  0  0
  -26.0183  -38.2866   24.1415 H   0  0  0  0  0  0
  -25.2689  -23.1098   26.0476 H   0  0  0  0  0  0
  -26.0210  -24.4291   25.1562 H   0  0  0  0  0  0
  -26.8397  -22.8709   25.3044 H   0  0  0  0  0  0
  -23.9911  -23.3412   21.4648 H   0  0  0  0  0  0
  -24.8879  -21.8341   21.2859 H   0  0  0  0  0  0
  -25.4111  -23.2887   20.4408 H   0  0  0  0  0  0
  -24.1524  -23.2622   23.8916 H   0  0  0  0  0  0
  -25.0665  -21.7814   23.9180 H   0  0  0  0  0  0
  -30.8685  -17.1906   21.9169 H   0  0  0  0  0  0
  -31.1161  -17.1723   20.1899 H   0  0  0  0  0  0
  -29.6912  -22.3691   20.1456 H   0  0  0  0  0  0
  -29.7077  -22.0042   21.8484 H   0  0  0  0  0  0
  -27.8229  -24.9752   21.9413 H   0  0  0  0  0  0
  -29.4435  -24.4490   21.6948 H   0  0  0  0  0  0
  -27.1778  -21.6122   22.6163 H   0  0  0  0  0  0
  -27.9154  -23.0190   23.2998 H   0  0  0  0  0  0
  -28.4448  -17.8931   21.5270 H   0  0  0  0  0  0
  -28.7395  -17.9022   19.8060 H   0  0  0  0  0  0
  -28.2991  -20.4862   19.5823 H   0  0  0  0  0  0
  -27.7463  -20.2395   21.2034 H   0  0  0  0  0  0
  -27.6058  -24.8305   19.2842 H   0  0  0  0  0  0
  -29.3115  -24.9534   19.3573 H   0  0  0  0  0  0
  -25.9276  -24.3848   22.6015 H   0  0  0  0  0  0
  -28.9900  -15.3825   21.2379 H   0  0  0  0  0  0
  -30.4163  -19.6330   20.2061 H   0  0  0  0  0  0
  -30.0454  -19.6303   21.7865 H   0  0  0  0  0  0
  1 25  1  0  0  0
  1 30  2  0  0  0
  1 82  1  0  0  0
  2  3  1  0  0  0
  2 25  1  0  0  0
  2 85  1  0  0  0
  2 86  1  0  0  0
  3  4  1  0  0  0
  3 87  1  0  0  0
  3 88  1  0  0  0
  4  5  1  0  0  0
  4 89  1  0  0  0
  4 90  1  0  0  0
  5  6  1  0  0  0
  5 26  1  0  0  0
  5 91  1  0  0  0
  6 25  1  0  0  0
  6 92  1  0  0  0
  6 93  1  0  0  0
  7  8  2  0  0  0
  7 26  1  0  0  0
  7 29  1  0  0  0
  8  9  1  0  0  0
  8 22  1  0  0  0
  9 10  1  0  0  0
  9 27  2  0  0  0
 10 11  2  0  0  0
 10 15  1  0  0  0
 11 12  1  0  0  0
 11 94  1  0  0  0
 12 13  2  0  0  0
 12 95  1  0  0  0
 13 14  1  0  0  0
 13 31  1  0  0  0
 14 15  2  0  0  0
 14 96  1  0  0  0
 15 97  1  0  0  0
 16 17  2  0  0  0
 16 21  1  0  0  0
 16 31  1  0  0  0
 17 18  1  0  0  0
 17 98  1  0  0  0
 18 19  2  0  0  0
 18 99  1  0  0  0
 19 20  1  0  0  0
 19 24  1  0  0  0
 20 21  2  0  0  0
 20100  1  0  0  0
 21 23  1  0  0  0
 22 28  1  0  0  0
 22 32  2  0  0  0
 26 27  1  0  0  0
 28101  1  0  0  0
 28102  1  0  0  0
 29103  1  0  0  0
 29104  1  0  0  0
 33 34  1  0  0  0
 33 66  1  0  0  0
 33 70  2  0  0  0
 34 36  1  0  0  0
 34 59  1  0  0  0
 34105  1  0  0  0
 35 44  2  0  0  0
 35 45  1  0  0  0
 35 68  1  0  0  0
 36 56  1  0  0  0
 36106  1  0  0  0
 37 39  1  0  0  0
 37 47  1  0  0  0
 37 66  1  0  0  0
 37107  1  0  0  0
 38 43  2  0  0  0
 38 46  1  0  0  0
 38 47  1  0  0  0
 39 64  1  0  0  0
 39 67  2  0  0  0
 40 52  1  0  0  0
 40 53  2  0  0  0
 40 58  1  0  0  0
 41108  1  0  0  0
 41109  1  0  0  0
 41110  1  0  0  0
 41 48  1  0  0  0
 42 43  1  0  0  0
 42 66  1  0  0  0
 42111  1  0  0  0
 42112  1  0  0  0
 43 44  1  0  0  0
 44113  1  0  0  0
 45 46  2  0  0  0
 45114  1  0  0  0
 46115  1  0  0  0
 47116  1  0  0  0
 47117  1  0  0  0
 48 56  1  0  0  0
 48 65  1  0  0  0
 48118  1  0  0  0
 49 50  1  0  0  0
 49 53  1  0  0  0
 49 64  1  0  0  0
 49119  1  0  0  0
 50 51  1  0  0  0
 50120  1  0  0  0
 50121  1  0  0  0
 51 52  1  0  0  0
 51122  1  0  0  0
 51123  1  0  0  0
 52124  1  0  0  0
 52125  1  0  0  0
 53 54  1  0  0  0
 54 55  2  0  0  0
 54126  1  0  0  0
 55 57  1  0  0  0
 55127  1  0  0  0
 56 69  2  0  0  0
 57 58  2  0  0  0
 57128  1  0  0  0
 58129  1  0  0  0
 59 60  1  0  0  0
 59 61  1  0  0  0
 59 62  1  0  0  0
 60130  1  0  0  0
 60131  1  0  0  0
 60132  1  0  0  0
 61133  1  0  0  0
 61134  1  0  0  0
 61135  1  0  0  0
 62136  1  0  0  0
 62137  1  0  0  0
 62138  1  0  0  0
 63 65  1  0  0  0
 63139  1  0  0  0
 63140  1  0  0  0
 63141  1  0  0  0
 64142  1  0  0  0
 65143  1  0  0  0
 68 80  1  0  0  0
 71 73  1  0  0  0
 71144  1  0  0  0
 71145  1  0  0  0
 71146  1  0  0  0
 72147  1  0  0  0
 72148  1  0  0  0
 72149  1  0  0  0
 72 81  1  0  0  0
 73 81  1  0  0  0
 73150  1  0  0  0
 73151  1  0  0  0
 74 78  1  0  0  0
 74 82  1  0  0  0
 74152  1  0  0  0
 74153  1  0  0  0
 75 79  1  0  0  0
 75 83  1  0  0  0
 75154  1  0  0  0
 75155  1  0  0  0
 76 80  1  0  0  0
 76 83  1  0  0  0
 76156  1  0  0  0
 76157  1  0  0  0
 77 81  1  0  0  0
 77 83  1  0  0  0
 77158  1  0  0  0
 77159  1  0  0  0
 78 84  1  0  0  0
 78160  1  0  0  0
 78161  1  0  0  0
 79 84  1  0  0  0
 79162  1  0  0  0
 79163  1  0  0  0
 80164  1  0  0  0
 80165  1  0  0  0
 81166  1  0  0  0
 82167  1  0  0  0
 84168  1  0  0  0
 84169  1  0  0  0
M  CHG  1  84   1
M  ISO  4   1 100  68 101  80 101  82 100
M  END
> <chiral flag>
0

> <version>
0

> <s_m_source_file>
/data/baiqing/PycharmProjects/Reinvent-master-3.2/result/LINK_invent/BTK/process_docking_weight1_custom_sum_contain_oxygen_bond_distance_aromatic_linkinvent_7_9_3/rearranged_h_0116.sdf

> <i_m_source_file_index>
93

> <r_mmod_Potential_Energy-OPLS-2005>
-201.390014648438

> <r_mmod_Stretch_Energy-OPLS-2005>
53.6324424743652

> <r_mmod_Bend_Energy-OPLS-2005>
120.358779907227

> <r_mmod_Torsional_Energy-OPLS-2005>
224.391464233398

> <r_mmod_Improper_Torsional_Energy-OPLS-2005>
4.13743305206299

> <r_mmod_Van_der_Waal_Energy-OPLS-2005>
135.035263061523

> <r_mmod_Electrostatic_Energy-OPLS-2005>
-273.541900634766

> <r_mmod_Solvation_Energy-OPLS-2005>
-487.420074462891

> <b_mmod_Minimization_Converged-OPLS-2005>
0

> <r_mmod_RMS_Derivative-OPLS-2005>
1.9477367401123

$$$$
94
                    3D
 Structure written by MMmdl.
165174  0  0  1  0            999 V2000
  -30.7822  -14.5989   20.5255 C   0  0  0  0  0  0
  -30.4065  -12.3780   19.4882 C   0  0  0  0  0  0
  -29.5033  -12.4873   18.2452 C   0  0  0  0  0  0
  -28.0301  -12.3241   18.6543 C   0  0  0  0  0  0
  -27.6492  -13.2195   19.8580 C   0  0  2  0  0  0
  -28.6967  -13.1516   21.0007 C   0  0  0  0  0  0
  -25.2530  -13.8170   20.5674 C   0  0  0  0  0  0
  -24.1830  -13.0429   20.9212 C   0  0  0  0  0  0
  -24.6404  -11.6888   20.8771 C   0  0  0  0  0  0
  -23.9052  -10.4272   21.0435 C   0  0  0  0  0  0
  -24.3588   -9.4173   21.9199 C   0  0  0  0  0  0
  -23.6264   -8.2202   22.0743 C   0  0  0  0  0  0
  -22.4242   -8.0258   21.3545 C   0  0  0  0  0  0
  -21.9907   -9.0240   20.4635 C   0  0  0  0  0  0
  -22.7220  -10.2126   20.3062 C   0  0  0  0  0  0
  -21.6846   -6.0714   22.5264 C   0  0  0  0  0  0
  -21.3999   -6.5624   23.8196 C   0  0  0  0  0  0
  -21.3661   -5.6781   24.9172 C   0  0  0  0  0  0
  -21.6046   -4.3046   24.7224 C   0  0  0  0  0  0
  -21.8819   -3.8125   23.4333 C   0  0  0  0  0  0
  -21.9186   -4.6938   22.3389 C   0  0  0  0  0  0
  -22.7841  -13.5186   21.1909 C   0  0  0  0  0  0
  -22.1674   -4.2125   21.0975 F   0  0  0  0  0  0
  -21.5646   -3.4534   25.7743 F   0  0  0  0  0  0
  -30.0212  -13.4540   20.4319 N   0  0  0  0  0  0
  -26.2983  -12.9365   20.3348 N   0  0  0  0  0  0
  -25.9336  -11.6505   20.5800 N   0  0  0  0  0  0
  -22.0541  -12.8116   22.0457 N   0  0  0  0  0  0
  -25.4158  -15.1881   20.3967 N   0  0  0  0  0  0
  -31.9085  -14.6093   20.0201 O   0  0  0  0  0  0
  -21.6614   -6.8848   21.4219 O   0  0  0  0  0  0
  -22.3469  -14.5494   20.6779 O   0  0  0  0  0  0
  -24.6168  -31.8690   23.2112 C   0  0  0  0  0  0
  -25.9068  -32.4820   23.8400 C   0  0  1  0  0  0
  -27.2239  -27.4055   20.1073 C   0  0  0  0  0  0
  -25.5935  -33.8620   24.2352 N   0  0  0  0  0  0
  -23.4024  -30.4939   21.5530 C   0  0  2  0  0  0
  -24.8449  -28.9572   20.1161 C   0  0  0  0  0  0
  -22.7418  -29.4665   22.5014 C   0  0  0  0  0  0
  -18.0283  -28.1348   22.8514 C   0  0  0  0  0  0
  -24.1489  -36.7277   23.2646 C   0  0  0  0  0  0
  -25.9342  -30.8251   21.3696 C   0  0  0  0  0  0
  -26.0072  -29.4589   20.7131 C   0  0  0  0  0  0
  -27.2002  -28.6948   20.6980 C   0  0  0  0  0  0
  -26.0389  -26.9258   19.5045 C   0  0  0  0  0  0
  -24.8596  -27.6938   19.5024 C   0  0  0  0  0  0
  -23.6058  -29.8246   20.1679 C   0  0  0  0  0  0
  -25.4124  -36.3108   24.0350 C   0  0  1  0  0  0
  -20.5879  -28.3648   23.1330 C   0  0  2  0  0  0
  -20.6768  -26.9383   22.5435 C   0  0  0  0  0  0
  -19.5749  -26.6367   21.5217 C   0  0  0  0  0  0
  -18.1914  -26.7914   22.1596 C   0  0  0  0  0  0
  -19.1527  -28.8811   23.2925 C   0  0  0  0  0  0
  -18.9439  -30.1417   23.8938 C   0  0  0  0  0  0
  -17.6441  -30.6564   24.0555 C   0  0  0  0  0  0
  -25.9057  -34.9477   23.5154 C   0  0  0  0  0  0
  -16.5342  -29.9057   23.6318 C   0  0  0  0  0  0
  -16.7272  -28.6454   23.0393 C   0  0  0  0  0  0
  -26.4509  -31.6599   25.0719 C   0  0  0  0  0  0
  -25.3767  -31.3696   26.1456 C   0  0  0  0  0  0
  -27.0401  -30.3055   24.6131 C   0  0  0  0  0  0
  -27.6087  -32.4343   25.7465 C   0  0  0  0  0  0
  -27.5609  -37.1801   24.8469 C   0  0  0  0  0  0
  -21.4152  -29.3009   22.3721 N   0  0  0  0  0  0
  -26.4320  -37.3784   23.9410 N   0  0  0  0  0  0
  -24.6680  -31.0785   22.1003 N   0  0  0  0  0  0
  -23.4182  -28.8218   23.3068 O   0  0  0  0  0  0
  -28.4003  -26.6737   20.0946 O   0  0  0  0  0  0
  -26.5599  -34.8935   22.4703 O   0  0  0  0  0  0
  -23.5358  -32.1445   23.7508 O   0  0  0  0  0  0
  -30.2369  -22.6354   21.6679 C   0  0  0  0  0  0
  -30.3276  -21.2615   21.9759 C   0  0  0  0  0  0
  -29.4868  -22.0048   19.4855 C   0  0  0  0  0  0
  -29.8053  -23.0566   20.3858 C   0  0  0  0  0  0
  -29.9833  -20.2922   21.0127 C   0  0  0  0  0  0
  -28.9476  -17.8754   20.8041 C   0  0  0  0  0  0
  -31.4066  -18.0751   21.0684 C   0  0  0  0  0  0
  -29.0283  -16.3614   21.2244 C   0  0  0  0  0  0
  -31.4114  -16.6699   21.7368 C   0  0  0  0  0  0
  -30.0712  -18.7762   21.3658 C   0  0  0  0  0  0
  -30.0850  -24.7808   18.4992 C   0  0  0  0  0  0
  -30.8023  -25.3835   20.7929 C   0  0  0  0  0  0
  -28.3450  -25.2294   20.2420 C   0  0  0  0  0  0
  -29.7465  -24.5772   19.9947 C   0  0  0  0  0  0
  -29.5958  -20.6757   19.7710 N   0  0  0  0  0  0
  -30.3795  -15.7389   21.1939 N   0  0  0  0  0  0
  -31.4564  -12.4102   19.1922 H   0  0  0  0  0  0
  -30.2851  -11.4079   19.9722 H   0  0  0  0  0  0
  -29.7789  -11.7262   17.5149 H   0  0  0  0  0  0
  -29.6565  -13.4501   17.7530 H   0  0  0  0  0  0
  -27.8762  -11.2754   18.9131 H   0  0  0  0  0  0
  -27.3748  -12.5330   17.8095 H   0  0  0  0  0  0
  -27.6369  -14.2260   19.4481 H   0  0  0  0  0  0
  -28.7104  -12.1623   21.4578 H   0  0  0  0  0  0
  -28.4382  -13.8364   21.8071 H   0  0  0  0  0  0
  -25.2763   -9.5630   22.4743 H   0  0  0  0  0  0
  -23.9998   -7.4568   22.7421 H   0  0  0  0  0  0
  -21.0864   -8.8719   19.8910 H   0  0  0  0  0  0
  -22.3694  -10.9645   19.6141 H   0  0  0  0  0  0
  -21.1982   -7.6133   23.9671 H   0  0  0  0  0  0
  -21.1510   -6.0539   25.9078 H   0  0  0  0  0  0
  -22.0605   -2.7579   23.2830 H   0  0  0  0  0  0
  -22.4258  -11.9791   22.4794 H   0  0  0  0  0  0
  -21.1139  -13.1026   22.2742 H   0  0  0  0  0  0
  -24.6335  -15.8277   20.4811 H   0  0  0  0  0  0
  -26.2440  -15.6268   20.0178 H   0  0  0  0  0  0
  -26.7137  -32.5541   23.1158 H   0  0  0  0  0  0
  -25.0155  -33.9763   25.0548 H   0  0  0  0  0  0
  -22.6919  -31.3113   21.4198 H   0  0  0  0  0  0
  -23.3782  -35.9579   23.3310 H   0  0  0  0  0  0
  -24.3565  -36.8891   22.2062 H   0  0  0  0  0  0
  -23.7214  -37.6469   23.6659 H   0  0  0  0  0  0
  -26.0667  -31.5975   20.6088 H   0  0  0  0  0  0
  -26.8147  -30.8627   21.9991 H   0  0  0  0  0  0
  -28.1001  -29.0847   21.1562 H   0  0  0  0  0  0
  -26.0066  -25.9671   19.0139 H   0  0  0  0  0  0
  -23.9695  -27.3107   19.0219 H   0  0  0  0  0  0
  -23.7009  -30.5982   19.4052 H   0  0  0  0  0  0
  -22.7289  -29.2397   19.8817 H   0  0  0  0  0  0
  -25.1311  -36.1982   25.0846 H   0  0  0  0  0  0
  -20.9988  -28.3219   24.1442 H   0  0  0  0  0  0
  -20.5642  -26.2267   23.3621 H   0  0  0  0  0  0
  -21.6652  -26.7393   22.1264 H   0  0  0  0  0  0
  -19.6918  -25.6282   21.1229 H   0  0  0  0  0  0
  -19.6704  -27.3184   20.6762 H   0  0  0  0  0  0
  -17.4230  -26.6751   21.3941 H   0  0  0  0  0  0
  -18.0242  -25.9996   22.8915 H   0  0  0  0  0  0
  -19.7921  -30.7210   24.2343 H   0  0  0  0  0  0
  -17.4997  -31.6244   24.5148 H   0  0  0  0  0  0
  -15.5340  -30.2961   23.7600 H   0  0  0  0  0  0
  -15.8683  -28.0730   22.7154 H   0  0  0  0  0  0
  -24.5876  -30.7143   25.7739 H   0  0  0  0  0  0
  -24.9019  -32.2855   26.4988 H   0  0  0  0  0  0
  -25.8069  -30.8741   27.0167 H   0  0  0  0  0  0
  -26.2971  -29.6732   24.1243 H   0  0  0  0  0  0
  -27.4259  -29.7370   25.4609 H   0  0  0  0  0  0
  -27.8764  -30.4397   23.9262 H   0  0  0  0  0  0
  -27.2695  -33.3590   26.2154 H   0  0  0  0  0  0
  -28.3810  -32.7011   25.0232 H   0  0  0  0  0  0
  -28.0885  -31.8422   26.5275 H   0  0  0  0  0  0
  -28.2652  -38.0080   24.7540 H   0  0  0  0  0  0
  -28.1094  -36.2626   24.6282 H   0  0  0  0  0  0
  -27.2327  -37.1450   25.8870 H   0  0  0  0  0  0
  -20.9322  -29.8678   21.6896 H   0  0  0  0  0  0
  -26.0223  -38.2878   24.1363 H   0  0  0  0  0  0
  -30.5165  -23.3471   22.4305 H   0  0  0  0  0  0
  -30.6710  -20.9625   22.9564 H   0  0  0  0  0  0
  -29.1404  -22.2233   18.4874 H   0  0  0  0  0  0
  -27.9809  -18.2811   21.1118 H   0  0  0  0  0  0
  -28.9608  -17.9458   19.7176 H   0  0  0  0  0  0
  -31.5767  -17.9984   19.9914 H   0  0  0  0  0  0
  -32.2360  -18.6659   21.4661 H   0  0  0  0  0  0
  -28.3584  -15.8322   20.5625 H   0  0  0  0  0  0
  -28.6233  -16.2392   22.2293 H   0  0  0  0  0  0
  -31.2314  -16.7796   22.8089 H   0  0  0  0  0  0
  -32.4224  -16.2634   21.6836 H   0  0  0  0  0  0
  -29.9579  -18.7552   22.4509 H   0  0  0  0  0  0
  -31.0842  -24.4221   18.2525 H   0  0  0  0  0  0
  -30.0487  -25.8377   18.2265 H   0  0  0  0  0  0
  -29.3721  -24.2844   17.8425 H   0  0  0  0  0  0
  -31.7936  -24.9386   20.7175 H   0  0  0  0  0  0
  -30.5457  -25.4712   21.8509 H   0  0  0  0  0  0
  -30.8914  -26.4055   20.4183 H   0  0  0  0  0  0
  -27.9944  -25.0010   21.2494 H   0  0  0  0  0  0
  -27.6386  -24.7727   19.5521 H   0  0  0  0  0  0
  1 25  1  0  0  0
  1 30  2  0  0  0
  1 86  1  0  0  0
  2  3  1  0  0  0
  2 25  1  0  0  0
  2 87  1  0  0  0
  2 88  1  0  0  0
  3  4  1  0  0  0
  3 89  1  0  0  0
  3 90  1  0  0  0
  4  5  1  0  0  0
  4 91  1  0  0  0
  4 92  1  0  0  0
  5  6  1  0  0  0
  5 26  1  0  0  0
  5 93  1  0  0  0
  6 25  1  0  0  0
  6 94  1  0  0  0
  6 95  1  0  0  0
  7  8  2  0  0  0
  7 26  1  0  0  0
  7 29  1  0  0  0
  8  9  1  0  0  0
  8 22  1  0  0  0
  9 10  1  0  0  0
  9 27  2  0  0  0
 10 11  2  0  0  0
 10 15  1  0  0  0
 11 12  1  0  0  0
 11 96  1  0  0  0
 12 13  2  0  0  0
 12 97  1  0  0  0
 13 14  1  0  0  0
 13 31  1  0  0  0
 14 15  2  0  0  0
 14 98  1  0  0  0
 15 99  1  0  0  0
 16 17  2  0  0  0
 16 21  1  0  0  0
 16 31  1  0  0  0
 17 18  1  0  0  0
 17100  1  0  0  0
 18 19  2  0  0  0
 18101  1  0  0  0
 19 20  1  0  0  0
 19 24  1  0  0  0
 20 21  2  0  0  0
 20102  1  0  0  0
 21 23  1  0  0  0
 22 28  1  0  0  0
 22 32  2  0  0  0
 26 27  1  0  0  0
 28103  1  0  0  0
 28104  1  0  0  0
 29105  1  0  0  0
 29106  1  0  0  0
 33 34  1  0  0  0
 33 66  1  0  0  0
 33 70  2  0  0  0
 34 36  1  0  0  0
 34 59  1  0  0  0
 34107  1  0  0  0
 35 44  2  0  0  0
 35 45  1  0  0  0
 35 68  1  0  0  0
 36 56  1  0  0  0
 36108  1  0  0  0
 37 39  1  0  0  0
 37 47  1  0  0  0
 37 66  1  0  0  0
 37109  1  0  0  0
 38 43  2  0  0  0
 38 46  1  0  0  0
 38 47  1  0  0  0
 39 64  1  0  0  0
 39 67  2  0  0  0
 40 52  1  0  0  0
 40 53  2  0  0  0
 40 58  1  0  0  0
 41110  1  0  0  0
 41111  1  0  0  0
 41112  1  0  0  0
 41 48  1  0  0  0
 42 43  1  0  0  0
 42 66  1  0  0  0
 42113  1  0  0  0
 42114  1  0  0  0
 43 44  1  0  0  0
 44115  1  0  0  0
 45 46  2  0  0  0
 45116  1  0  0  0
 46117  1  0  0  0
 47118  1  0  0  0
 47119  1  0  0  0
 48 56  1  0  0  0
 48 65  1  0  0  0
 48120  1  0  0  0
 49 50  1  0  0  0
 49 53  1  0  0  0
 49 64  1  0  0  0
 49121  1  0  0  0
 50 51  1  0  0  0
 50122  1  0  0  0
 50123  1  0  0  0
 51 52  1  0  0  0
 51124  1  0  0  0
 51125  1  0  0  0
 52126  1  0  0  0
 52127  1  0  0  0
 53 54  1  0  0  0
 54 55  2  0  0  0
 54128  1  0  0  0
 55 57  1  0  0  0
 55129  1  0  0  0
 56 69  2  0  0  0
 57 58  2  0  0  0
 57130  1  0  0  0
 58131  1  0  0  0
 59 60  1  0  0  0
 59 61  1  0  0  0
 59 62  1  0  0  0
 60132  1  0  0  0
 60133  1  0  0  0
 60134  1  0  0  0
 61135  1  0  0  0
 61136  1  0  0  0
 61137  1  0  0  0
 62138  1  0  0  0
 62139  1  0  0  0
 62140  1  0  0  0
 63 65  1  0  0  0
 63141  1  0  0  0
 63142  1  0  0  0
 63143  1  0  0  0
 64144  1  0  0  0
 65145  1  0  0  0
 68 83  1  0  0  0
 71 72  2  0  0  0
 71 74  1  0  0  0
 71146  1  0  0  0
 72 75  1  0  0  0
 72147  1  0  0  0
 73 74  2  0  0  0
 73 85  1  0  0  0
 73148  1  0  0  0
 74 84  1  0  0  0
 75 85  2  0  0  0
 75 80  1  0  0  0
 76 78  1  0  0  0
 76 80  1  0  0  0
 76149  1  0  0  0
 76150  1  0  0  0
 77 79  1  0  0  0
 77 80  1  0  0  0
 77151  1  0  0  0
 77152  1  0  0  0
 78 86  1  0  0  0
 78153  1  0  0  0
 78154  1  0  0  0
 79 86  1  0  0  0
 79155  1  0  0  0
 79156  1  0  0  0
 80157  1  0  0  0
 81158  1  0  0  0
 81159  1  0  0  0
 81160  1  0  0  0
 81 84  1  0  0  0
 82 84  1  0  0  0
 82161  1  0  0  0
 82162  1  0  0  0
 82163  1  0  0  0
 83 84  1  0  0  0
 83164  1  0  0  0
 83165  1  0  0  0
M  ISO  4   1 100  68 101  83 101  86 100
M  END
> <chiral flag>
0

> <version>
0

> <s_m_source_file>
/data/baiqing/PycharmProjects/Reinvent-master-3.2/result/LINK_invent/BTK/process_docking_weight1_custom_sum_contain_oxygen_bond_distance_aromatic_linkinvent_7_9_3/rearranged_h_0116.sdf

> <i_m_source_file_index>
94

> <r_mmod_Potential_Energy-OPLS-2005>
90.6246032714844

> <r_mmod_Stretch_Energy-OPLS-2005>
63.4387359619141

> <r_mmod_Bend_Energy-OPLS-2005>
149.87809753418

> <r_mmod_Torsional_Energy-OPLS-2005>
300.660247802734

> <r_mmod_Improper_Torsional_Energy-OPLS-2005>
2.49748158454895

> <r_mmod_Van_der_Waal_Energy-OPLS-2005>
169.737457275391

> <r_mmod_Electrostatic_Energy-OPLS-2005>
-425.665008544922

> <r_mmod_Solvation_Energy-OPLS-2005>
-203.567077636719

> <b_mmod_Minimization_Converged-OPLS-2005>
0

> <r_mmod_RMS_Derivative-OPLS-2005>
4.05221557617188

$$$$
95
                    3D
 Structure written by MMmdl.
166174  0  0  1  0            999 V2000
  -30.6715  -14.5226   20.6061 C   0  0  0  0  0  0
  -30.4337  -12.3549   19.4157 C   0  0  0  0  0  0
  -29.4942  -12.5181   18.2024 C   0  0  0  0  0  0
  -28.0166  -12.3679   18.6154 C   0  0  0  0  0  0
  -27.6589  -13.2069   19.8698 C   0  0  2  0  0  0
  -28.7006  -12.9890   20.9889 C   0  0  0  0  0  0
  -25.2583  -13.8162   20.5665 C   0  0  0  0  0  0
  -24.1848  -13.0424   20.9176 C   0  0  0  0  0  0
  -24.6394  -11.6900   20.8729 C   0  0  0  0  0  0
  -23.9065  -10.4290   21.0404 C   0  0  0  0  0  0
  -24.3628   -9.4209   21.9176 C   0  0  0  0  0  0
  -23.6306   -8.2240   22.0749 C   0  0  0  0  0  0
  -22.4284   -8.0285   21.3546 C   0  0  0  0  0  0
  -21.9919   -9.0253   20.4641 C   0  0  0  0  0  0
  -22.7242  -10.2135   20.3048 C   0  0  0  0  0  0
  -21.6856   -6.0753   22.5284 C   0  0  0  0  0  0
  -21.4008   -6.5652   23.8219 C   0  0  0  0  0  0
  -21.3656   -5.6802   24.9180 C   0  0  0  0  0  0
  -21.6041   -4.3065   24.7226 C   0  0  0  0  0  0
  -21.8819   -3.8159   23.4346 C   0  0  0  0  0  0
  -21.9192   -4.6979   22.3407 C   0  0  0  0  0  0
  -22.7867  -13.5233   21.1839 C   0  0  0  0  0  0
  -22.1668   -4.2170   21.0982 F   0  0  0  0  0  0
  -21.5625   -3.4546   25.7733 F   0  0  0  0  0  0
  -30.0248  -13.3317   20.4391 N   0  0  0  0  0  0
  -26.3011  -12.9316   20.3324 N   0  0  0  0  0  0
  -25.9317  -11.6476   20.5741 N   0  0  0  0  0  0
  -22.0524  -12.8220   22.0404 N   0  0  0  0  0  0
  -25.4291  -15.1877   20.4109 N   0  0  0  0  0  0
  -31.7922  -14.7414   20.1380 O   0  0  0  0  0  0
  -21.6638   -6.8896   21.4250 O   0  0  0  0  0  0
  -22.3556  -14.5536   20.6695 O   0  0  0  0  0  0
  -24.6160  -31.8689   23.2073 C   0  0  0  0  0  0
  -25.9039  -32.4836   23.8392 C   0  0  1  0  0  0
  -27.2267  -27.3967   20.1171 C   0  0  0  0  0  0
  -25.5877  -33.8646   24.2299 N   0  0  0  0  0  0
  -23.4060  -30.4924   21.5522 C   0  0  2  0  0  0
  -24.8546  -28.9543   20.1170 C   0  0  0  0  0  0
  -22.7401  -29.4669   22.4998 C   0  0  0  0  0  0
  -18.0283  -28.1390   22.8476 C   0  0  0  0  0  0
  -24.1495  -36.7376   23.2638 C   0  0  0  0  0  0
  -25.9409  -30.8225   21.3662 C   0  0  0  0  0  0
  -26.0186  -29.4541   20.7149 C   0  0  0  0  0  0
  -27.2110  -28.6834   20.7109 C   0  0  0  0  0  0
  -26.0495  -26.9312   19.4884 C   0  0  0  0  0  0
  -24.8650  -27.6914   19.5030 C   0  0  0  0  0  0
  -23.6181  -29.8274   20.1673 C   0  0  0  0  0  0
  -25.4110  -36.3125   24.0310 C   0  0  1  0  0  0
  -20.5862  -28.3666   23.1328 C   0  0  2  0  0  0
  -20.6771  -26.9407   22.5419 C   0  0  0  0  0  0
  -19.5753  -26.6381   21.5213 C   0  0  0  0  0  0
  -18.1932  -26.7938   22.1618 C   0  0  0  0  0  0
  -19.1524  -28.8836   23.2901 C   0  0  0  0  0  0
  -18.9452  -30.1441   23.8910 C   0  0  0  0  0  0
  -17.6451  -30.6579   24.0565 C   0  0  0  0  0  0
  -25.9019  -34.9490   23.5085 C   0  0  0  0  0  0
  -16.5342  -29.9081   23.6341 C   0  0  0  0  0  0
  -16.7270  -28.6517   23.0328 C   0  0  0  0  0  0
  -26.4442  -31.6640   25.0734 C   0  0  0  0  0  0
  -25.3691  -31.3791   26.1472 C   0  0  0  0  0  0
  -27.0269  -30.3060   24.6146 C   0  0  0  0  0  0
  -27.5974  -32.4410   25.7520 C   0  0  0  0  0  0
  -27.5607  -37.1831   24.8447 C   0  0  0  0  0  0
  -21.4127  -29.3040   22.3731 N   0  0  0  0  0  0
  -26.4325  -37.3772   23.9377 N   0  0  0  0  0  0
  -24.6737  -31.0722   22.1030 N   0  0  0  0  0  0
  -23.4149  -28.8226   23.3059 O   0  0  0  0  0  0
  -28.3539  -26.5877   20.1522 O   0  0  0  0  0  0
  -26.5585  -34.8919   22.4648 O   0  0  0  0  0  0
  -23.5329  -32.1509   23.7393 O   0  0  0  0  0  0
  -29.2608  -20.1409   20.3974 C   0  0  0  0  0  0
  -30.8011  -21.5187   21.2014 C   0  0  0  0  0  0
  -29.5120  -21.5139   20.7364 C   0  0  0  0  0  0
  -30.3574  -19.3571   20.6653 C   0  0  0  0  0  0
  -27.3936  -22.3479   19.6428 C   0  0  0  0  0  0
  -28.9655  -17.3594   22.3969 C   0  0  0  0  0  0
  -31.3916  -16.8536   22.6775 C   0  0  0  0  0  0
  -32.6961  -19.9182   21.5402 C   0  0  0  0  0  0
  -30.5487  -17.8467   20.4585 C   0  0  0  0  0  0
  -29.0943  -24.1203   20.3564 C   0  0  0  0  0  0
  -28.1512  -25.2965   20.7965 C   0  0  0  0  0  0
  -28.5116  -22.6892   20.6464 C   0  0  2  0  0  0
  -30.2329  -16.8750   21.6581 C   0  0  0  0  0  0
  -31.3313  -20.2333   21.1451 N   0  0  0  0  0  0
  -29.9424  -15.4772   21.2341 N   0  0  0  0  0  0
  -31.4718  -12.4892   19.1082 H   0  0  0  0  0  0
  -30.3702  -11.3432   19.8177 H   0  0  0  0  0  0
  -29.7409  -11.7854   17.4331 H   0  0  0  0  0  0
  -29.6487  -13.4984   17.7486 H   0  0  0  0  0  0
  -27.8317  -11.3124   18.8128 H   0  0  0  0  0  0
  -27.3661  -12.6373   17.7819 H   0  0  0  0  0  0
  -27.6991  -14.2540   19.5689 H   0  0  0  0  0  0
  -28.6972  -11.9464   21.3108 H   0  0  0  0  0  0
  -28.4439  -13.5644   21.8798 H   0  0  0  0  0  0
  -25.2784   -9.5690   22.4751 H   0  0  0  0  0  0
  -24.0026   -7.4636   22.7464 H   0  0  0  0  0  0
  -21.0852   -8.8766   19.8944 H   0  0  0  0  0  0
  -22.3700  -10.9676   19.6161 H   0  0  0  0  0  0
  -21.1993   -7.6161   23.9732 H   0  0  0  0  0  0
  -21.1477   -6.0530   25.9089 H   0  0  0  0  0  0
  -22.0599   -2.7623   23.2836 H   0  0  0  0  0  0
  -22.4163  -11.9903   22.4811 H   0  0  0  0  0  0
  -21.1124  -13.1221   22.2587 H   0  0  0  0  0  0
  -24.6583  -15.8384   20.5154 H   0  0  0  0  0  0
  -26.2821  -15.6321   20.0954 H   0  0  0  0  0  0
  -26.7140  -32.5523   23.1189 H   0  0  0  0  0  0
  -24.9952  -33.9835   25.0397 H   0  0  0  0  0  0
  -22.6975  -31.3114   21.4112 H   0  0  0  0  0  0
  -23.3712  -35.9764   23.3284 H   0  0  0  0  0  0
  -24.3576  -36.9031   22.2059 H   0  0  0  0  0  0
  -23.7301  -37.6592   23.6687 H   0  0  0  0  0  0
  -26.0460  -31.5825   20.5907 H   0  0  0  0  0  0
  -26.8351  -30.8860   21.9758 H   0  0  0  0  0  0
  -28.1060  -29.0546   21.1903 H   0  0  0  0  0  0
  -26.0421  -25.9677   18.9967 H   0  0  0  0  0  0
  -23.9697  -27.2976   19.0461 H   0  0  0  0  0  0
  -23.7360  -30.6091   19.4161 H   0  0  0  0  0  0
  -22.7408  -29.2553   19.8591 H   0  0  0  0  0  0
  -25.1279  -36.2008   25.0802 H   0  0  0  0  0  0
  -20.9924  -28.3254   24.1462 H   0  0  0  0  0  0
  -20.5710  -26.2260   23.3597 H   0  0  0  0  0  0
  -21.6648  -26.7497   22.1204 H   0  0  0  0  0  0
  -19.6894  -25.6284   21.1273 H   0  0  0  0  0  0
  -19.6706  -27.3159   20.6721 H   0  0  0  0  0  0
  -17.4195  -26.6665   21.4029 H   0  0  0  0  0  0
  -18.0348  -26.0092   22.9023 H   0  0  0  0  0  0
  -19.7924  -30.7246   24.2288 H   0  0  0  0  0  0
  -17.5015  -31.6266   24.5154 H   0  0  0  0  0  0
  -15.5339  -30.2968   23.7668 H   0  0  0  0  0  0
  -15.8685  -28.0845   22.7008 H   0  0  0  0  0  0
  -24.5806  -30.7201   25.7793 H   0  0  0  0  0  0
  -24.8941  -32.2984   26.4928 H   0  0  0  0  0  0
  -25.8026  -30.8935   27.0214 H   0  0  0  0  0  0
  -26.2821  -29.6822   24.1155 H   0  0  0  0  0  0
  -27.3961  -29.7282   25.4631 H   0  0  0  0  0  0
  -27.8697  -30.4339   23.9343 H   0  0  0  0  0  0
  -27.2536  -33.3684   26.2128 H   0  0  0  0  0  0
  -28.3779  -32.7049   25.0380 H   0  0  0  0  0  0
  -28.0646  -31.8544   26.5437 H   0  0  0  0  0  0
  -28.2574  -38.0170   24.7477 H   0  0  0  0  0  0
  -28.1156  -36.2679   24.6284 H   0  0  0  0  0  0
  -27.2316  -37.1484   25.8850 H   0  0  0  0  0  0
  -20.9259  -29.8765   21.6982 H   0  0  0  0  0  0
  -26.0218  -38.2859   24.1326 H   0  0  0  0  0  0
  -28.3369  -19.7454   19.9942 H   0  0  0  0  0  0
  -31.4058  -22.3362   21.5768 H   0  0  0  0  0  0
  -26.8139  -21.4840   19.9701 H   0  0  0  0  0  0
  -27.8018  -22.1147   18.6591 H   0  0  0  0  0  0
  -26.6879  -23.1662   19.5171 H   0  0  0  0  0  0
  -29.1235  -18.3308   22.8682 H   0  0  0  0  0  0
  -28.6614  -16.6696   23.1861 H   0  0  0  0  0  0
  -28.1217  -17.4676   21.7147 H   0  0  0  0  0  0
  -31.5796  -17.8445   23.0899 H   0  0  0  0  0  0
  -32.3236  -16.5076   22.2317 H   0  0  0  0  0  0
  -31.1682  -16.2003   23.5222 H   0  0  0  0  0  0
  -33.3768  -20.6866   21.1707 H   0  0  0  0  0  0
  -33.0202  -18.9610   21.1369 H   0  0  0  0  0  0
  -32.7731  -19.8928   22.6280 H   0  0  0  0  0  0
  -31.5449  -17.6437   20.0683 H   0  0  0  0  0  0
  -29.8833  -17.5652   19.6407 H   0  0  0  0  0  0
  -30.0363  -24.2433   20.8906 H   0  0  0  0  0  0
  -29.3356  -24.2030   19.2962 H   0  0  0  0  0  0
  -28.2796  -25.4497   21.8685 H   0  0  0  0  0  0
  -27.1150  -24.9707   20.7121 H   0  0  0  0  0  0
  -28.0549  -22.7322   21.6353 H   0  0  0  0  0  0
  -29.0243  -15.1529   21.4988 H   0  0  0  0  0  0
  1 25  1  0  0  0
  1 30  2  0  0  0
  1 85  1  0  0  0
  2  3  1  0  0  0
  2 25  1  0  0  0
  2 86  1  0  0  0
  2 87  1  0  0  0
  3  4  1  0  0  0
  3 88  1  0  0  0
  3 89  1  0  0  0
  4  5  1  0  0  0
  4 90  1  0  0  0
  4 91  1  0  0  0
  5  6  1  0  0  0
  5 26  1  0  0  0
  5 92  1  0  0  0
  6 25  1  0  0  0
  6 93  1  0  0  0
  6 94  1  0  0  0
  7  8  2  0  0  0
  7 26  1  0  0  0
  7 29  1  0  0  0
  8  9  1  0  0  0
  8 22  1  0  0  0
  9 10  1  0  0  0
  9 27  2  0  0  0
 10 11  2  0  0  0
 10 15  1  0  0  0
 11 12  1  0  0  0
 11 95  1  0  0  0
 12 13  2  0  0  0
 12 96  1  0  0  0
 13 14  1  0  0  0
 13 31  1  0  0  0
 14 15  2  0  0  0
 14 97  1  0  0  0
 15 98  1  0  0  0
 16 17  2  0  0  0
 16 21  1  0  0  0
 16 31  1  0  0  0
 17 18  1  0  0  0
 17 99  1  0  0  0
 18 19  2  0  0  0
 18100  1  0  0  0
 19 20  1  0  0  0
 19 24  1  0  0  0
 20 21  2  0  0  0
 20101  1  0  0  0
 21 23  1  0  0  0
 22 28  1  0  0  0
 22 32  2  0  0  0
 26 27  1  0  0  0
 28102  1  0  0  0
 28103  1  0  0  0
 29104  1  0  0  0
 29105  1  0  0  0
 33 34  1  0  0  0
 33 66  1  0  0  0
 33 70  2  0  0  0
 34 36  1  0  0  0
 34 59  1  0  0  0
 34106  1  0  0  0
 35 44  2  0  0  0
 35 45  1  0  0  0
 35 68  1  0  0  0
 36 56  1  0  0  0
 36107  1  0  0  0
 37 39  1  0  0  0
 37 47  1  0  0  0
 37 66  1  0  0  0
 37108  1  0  0  0
 38 43  2  0  0  0
 38 46  1  0  0  0
 38 47  1  0  0  0
 39 64  1  0  0  0
 39 67  2  0  0  0
 40 52  1  0  0  0
 40 53  2  0  0  0
 40 58  1  0  0  0
 41109  1  0  0  0
 41110  1  0  0  0
 41111  1  0  0  0
 41 48  1  0  0  0
 42 43  1  0  0  0
 42 66  1  0  0  0
 42112  1  0  0  0
 42113  1  0  0  0
 43 44  1  0  0  0
 44114  1  0  0  0
 45 46  2  0  0  0
 45115  1  0  0  0
 46116  1  0  0  0
 47117  1  0  0  0
 47118  1  0  0  0
 48 56  1  0  0  0
 48 65  1  0  0  0
 48119  1  0  0  0
 49 50  1  0  0  0
 49 53  1  0  0  0
 49 64  1  0  0  0
 49120  1  0  0  0
 50 51  1  0  0  0
 50121  1  0  0  0
 50122  1  0  0  0
 51 52  1  0  0  0
 51123  1  0  0  0
 51124  1  0  0  0
 52125  1  0  0  0
 52126  1  0  0  0
 53 54  1  0  0  0
 54 55  2  0  0  0
 54127  1  0  0  0
 55 57  1  0  0  0
 55128  1  0  0  0
 56 69  2  0  0  0
 57 58  2  0  0  0
 57129  1  0  0  0
 58130  1  0  0  0
 59 60  1  0  0  0
 59 61  1  0  0  0
 59 62  1  0  0  0
 60131  1  0  0  0
 60132  1  0  0  0
 60133  1  0  0  0
 61134  1  0  0  0
 61135  1  0  0  0
 61136  1  0  0  0
 62137  1  0  0  0
 62138  1  0  0  0
 62139  1  0  0  0
 63 65  1  0  0  0
 63140  1  0  0  0
 63141  1  0  0  0
 63142  1  0  0  0
 64143  1  0  0  0
 65144  1  0  0  0
 68 81  1  0  0  0
 71 73  1  0  0  0
 71 74  2  0  0  0
 71145  1  0  0  0
 72 73  2  0  0  0
 72 84  1  0  0  0
 72146  1  0  0  0
 73 82  1  0  0  0
 74 79  1  0  0  0
 74 84  1  0  0  0
 75147  1  0  0  0
 75148  1  0  0  0
 75149  1  0  0  0
 75 82  1  0  0  0
 76150  1  0  0  0
 76151  1  0  0  0
 76152  1  0  0  0
 76 83  1  0  0  0
 77 83  1  0  0  0
 77153  1  0  0  0
 77154  1  0  0  0
 77155  1  0  0  0
 78 84  1  0  0  0
 78156  1  0  0  0
 78157  1  0  0  0
 78158  1  0  0  0
 79 83  1  0  0  0
 79159  1  0  0  0
 79160  1  0  0  0
 80 81  1  0  0  0
 80 82  1  0  0  0
 80161  1  0  0  0
 80162  1  0  0  0
 81163  1  0  0  0
 81164  1  0  0  0
 82165  1  0  0  0
 83 85  1  0  0  0
 85166  1  0  0  0
M  ISO  4   1 100  68 101  81 101  85 100
M  END
> <chiral flag>
0

> <version>
0

> <s_m_source_file>
/data/baiqing/PycharmProjects/Reinvent-master-3.2/result/LINK_invent/BTK/process_docking_weight1_custom_sum_contain_oxygen_bond_distance_aromatic_linkinvent_7_9_3/rearranged_h_0116.sdf

> <i_m_source_file_index>
95

> <r_mmod_Potential_Energy-OPLS-2005>
-41.096981048584

> <r_mmod_Stretch_Energy-OPLS-2005>
51.1658058166504

> <r_mmod_Bend_Energy-OPLS-2005>
121.80411529541

> <r_mmod_Torsional_Energy-OPLS-2005>
222.642532348633

> <r_mmod_Improper_Torsional_Energy-OPLS-2005>
2.62493991851807

> <r_mmod_Van_der_Waal_Energy-OPLS-2005>
124.536231994629

> <r_mmod_Electrostatic_Energy-OPLS-2005>
-387.474151611328

> <r_mmod_Solvation_Energy-OPLS-2005>
-197.767547607422

> <b_mmod_Minimization_Converged-OPLS-2005>
0

> <r_mmod_RMS_Derivative-OPLS-2005>
2.89810585975647

$$$$
96
                    3D
 Structure written by MMmdl.
168176  0  0  1  0            999 V2000
  -30.7038  -14.5374   20.5203 C   0  0  0  0  0  0
  -30.4149  -12.3331   19.4403 C   0  0  0  0  0  0
  -29.4913  -12.4875   18.2151 C   0  0  0  0  0  0
  -28.0168  -12.3406   18.6351 C   0  0  0  0  0  0
  -27.6522  -13.2154   19.8647 C   0  0  2  0  0  0
  -28.6987  -13.0669   20.9931 C   0  0  0  0  0  0
  -25.2554  -13.8181   20.5695 C   0  0  0  0  0  0
  -24.1825  -13.0446   20.9208 C   0  0  0  0  0  0
  -24.6394  -11.6913   20.8767 C   0  0  0  0  0  0
  -23.9064  -10.4295   21.0419 C   0  0  0  0  0  0
  -24.3614   -9.4207   21.9201 C   0  0  0  0  0  0
  -23.6284   -8.2242   22.0762 C   0  0  0  0  0  0
  -22.4270   -8.0282   21.3547 C   0  0  0  0  0  0
  -21.9913   -9.0263   20.4653 C   0  0  0  0  0  0
  -22.7239  -10.2139   20.3067 C   0  0  0  0  0  0
  -21.6853   -6.0734   22.5275 C   0  0  0  0  0  0
  -21.4014   -6.5638   23.8210 C   0  0  0  0  0  0
  -21.3660   -5.6793   24.9175 C   0  0  0  0  0  0
  -21.6041   -4.3054   24.7226 C   0  0  0  0  0  0
  -21.8822   -3.8146   23.4346 C   0  0  0  0  0  0
  -21.9191   -4.6960   22.3401 C   0  0  0  0  0  0
  -22.7846  -13.5237   21.1854 C   0  0  0  0  0  0
  -22.1661   -4.2144   21.0978 F   0  0  0  0  0  0
  -21.5628   -3.4541   25.7740 F   0  0  0  0  0  0
  -30.0199  -13.3606   20.4201 N   0  0  0  0  0  0
  -26.2984  -12.9368   20.3357 N   0  0  0  0  0  0
  -25.9321  -11.6523   20.5794 N   0  0  0  0  0  0
  -22.0489  -12.8228   22.0408 N   0  0  0  0  0  0
  -25.4273  -15.1902   20.4088 N   0  0  0  0  0  0
  -31.8660  -14.6249   20.1126 O   0  0  0  0  0  0
  -21.6637   -6.8879   21.4237 O   0  0  0  0  0  0
  -22.3549  -14.5548   20.6703 O   0  0  0  0  0  0
  -24.6180  -31.8668   23.2075 C   0  0  0  0  0  0
  -25.9065  -32.4816   23.8373 C   0  0  1  0  0  0
  -27.2240  -27.4073   20.1007 C   0  0  0  0  0  0
  -25.5904  -33.8611   24.2306 N   0  0  0  0  0  0
  -23.4066  -30.4906   21.5492 C   0  0  2  0  0  0
  -24.8521  -28.9528   20.1125 C   0  0  0  0  0  0
  -22.7422  -29.4664   22.4983 C   0  0  0  0  0  0
  -18.0274  -28.1369   22.8491 C   0  0  0  0  0  0
  -24.1487  -36.7310   23.2640 C   0  0  0  0  0  0
  -25.9385  -30.8251   21.3633 C   0  0  0  0  0  0
  -26.0157  -29.4582   20.7068 C   0  0  0  0  0  0
  -27.2104  -28.6944   20.6928 C   0  0  0  0  0  0
  -26.0463  -26.9228   19.4976 C   0  0  0  0  0  0
  -24.8629  -27.6860   19.5030 C   0  0  0  0  0  0
  -23.6151  -29.8234   20.1639 C   0  0  0  0  0  0
  -25.4113  -36.3103   24.0329 C   0  0  1  0  0  0
  -20.5870  -28.3678   23.1300 C   0  0  2  0  0  0
  -20.6781  -26.9418   22.5411 C   0  0  0  0  0  0
  -19.5762  -26.6391   21.5204 C   0  0  0  0  0  0
  -18.1933  -26.7915   22.1609 C   0  0  0  0  0  0
  -19.1528  -28.8835   23.2884 C   0  0  0  0  0  0
  -18.9460  -30.1430   23.8916 C   0  0  0  0  0  0
  -17.6474  -30.6587   24.0562 C   0  0  0  0  0  0
  -25.9049  -34.9475   23.5122 C   0  0  0  0  0  0
  -16.5358  -29.9099   23.6322 C   0  0  0  0  0  0
  -16.7269  -28.6498   23.0369 C   0  0  0  0  0  0
  -26.4488  -31.6602   25.0709 C   0  0  0  0  0  0
  -25.3740  -31.3700   26.1453 C   0  0  0  0  0  0
  -27.0346  -30.3045   24.6105 C   0  0  0  0  0  0
  -27.6057  -32.4337   25.7471 C   0  0  0  0  0  0
  -27.5585  -37.1807   24.8462 C   0  0  0  0  0  0
  -21.4154  -29.3038   22.3703 N   0  0  0  0  0  0
  -26.4301  -37.3791   23.9399 N   0  0  0  0  0  0
  -24.6728  -31.0756   22.0976 N   0  0  0  0  0  0
  -23.4174  -28.8226   23.3055 O   0  0  0  0  0  0
  -28.3557  -26.6144   20.1080 O   0  0  0  0  0  0
  -26.5635  -34.8940   22.4697 O   0  0  0  0  0  0
  -23.5365  -32.1425   23.7457 O   0  0  0  0  0  0
  -29.4649  -18.0458   21.0932 C   0  0  0  0  0  0
  -31.2053  -19.6146   21.7702 C   0  0  0  0  0  0
  -29.8494  -19.3811   21.4003 C   0  0  0  0  0  0
  -32.1164  -18.5454   21.5563 C   0  0  0  0  0  0
  -30.4185  -16.9924   21.0691 C   0  0  0  0  0  0
  -34.2336  -18.6604   20.1775 C   0  0  0  0  0  0
  -30.7562  -21.3497   23.6433 C   0  0  0  0  0  0
  -32.1501  -22.0323   21.5776 C   0  0  0  0  0  0
  -33.6384  -18.6808   21.5932 C   0  0  0  0  0  0
  -28.5573  -24.0581   20.1052 C   0  0  0  0  0  0
  -28.4955  -22.8027   21.0339 C   0  0  0  0  0  0
  -28.2300  -25.3835   20.8627 C   0  0  0  0  0  0
  -28.9212  -21.4182   20.4415 C   0  0  0  0  0  0
  -31.6777  -20.8934   22.4959 C   0  0  0  0  0  0
  -31.7188  -17.2958   21.2485 N   0  0  0  0  0  0
  -29.9772  -15.6325   20.8776 N   0  0  0  0  0  0
  -28.8757  -20.3716   21.4386 O   0  0  0  0  0  0
  -31.4598  -12.4148   19.1355 H   0  0  0  0  0  0
  -30.3124  -11.3383   19.8781 H   0  0  0  0  0  0
  -29.7382  -11.7393   17.4605 H   0  0  0  0  0  0
  -29.6484  -13.4610   17.7475 H   0  0  0  0  0  0
  -27.8488  -11.2892   18.8709 H   0  0  0  0  0  0
  -27.3579  -12.5720   17.7976 H   0  0  0  0  0  0
  -27.6754  -14.2499   19.5235 H   0  0  0  0  0  0
  -28.6883  -12.0540   21.3988 H   0  0  0  0  0  0
  -28.4648  -13.7258   21.8309 H   0  0  0  0  0  0
  -25.2754   -9.5681   22.4783 H   0  0  0  0  0  0
  -23.9988   -7.4639   22.7493 H   0  0  0  0  0  0
  -21.0841   -8.8790   19.8966 H   0  0  0  0  0  0
  -22.3703  -10.9686   19.6180 H   0  0  0  0  0  0
  -21.2012   -7.6148   23.9711 H   0  0  0  0  0  0
  -21.1478   -6.0527   25.9078 H   0  0  0  0  0  0
  -22.0602   -2.7606   23.2852 H   0  0  0  0  0  0
  -22.4082  -11.9856   22.4748 H   0  0  0  0  0  0
  -21.1124  -13.1289   22.2649 H   0  0  0  0  0  0
  -24.6585  -15.8433   20.5121 H   0  0  0  0  0  0
  -26.2682  -15.6258   20.0523 H   0  0  0  0  0  0
  -26.7144  -32.5532   23.1144 H   0  0  0  0  0  0
  -25.0025  -33.9754   25.0433 H   0  0  0  0  0  0
  -22.6966  -31.3089   21.4112 H   0  0  0  0  0  0
  -23.3750  -35.9643   23.3303 H   0  0  0  0  0  0
  -24.3569  -36.8924   22.2053 H   0  0  0  0  0  0
  -23.7241  -37.6509   23.6670 H   0  0  0  0  0  0
  -26.0566  -31.5947   20.5984 H   0  0  0  0  0  0
  -26.8224  -30.8734   21.9872 H   0  0  0  0  0  0
  -28.1096  -29.0760   21.1566 H   0  0  0  0  0  0
  -26.0412  -25.9480   19.0297 H   0  0  0  0  0  0
  -23.9679  -27.2929   19.0392 H   0  0  0  0  0  0
  -23.7234  -30.6000   19.4056 H   0  0  0  0  0  0
  -22.7344  -29.2473   19.8715 H   0  0  0  0  0  0
  -25.1287  -36.1968   25.0823 H   0  0  0  0  0  0
  -20.9949  -28.3279   24.1423 H   0  0  0  0  0  0
  -20.5694  -26.2306   23.3611 H   0  0  0  0  0  0
  -21.6658  -26.7491   22.1200 H   0  0  0  0  0  0
  -19.6946  -25.6305   21.1235 H   0  0  0  0  0  0
  -19.6688  -27.3202   20.6734 H   0  0  0  0  0  0
  -17.4207  -26.6655   21.4005 H   0  0  0  0  0  0
  -18.0322  -26.0040   22.8985 H   0  0  0  0  0  0
  -19.7950  -30.7204   24.2323 H   0  0  0  0  0  0
  -17.5055  -31.6278   24.5153 H   0  0  0  0  0  0
  -15.5366  -30.3028   23.7641 H   0  0  0  0  0  0
  -15.8653  -28.0827   22.7113 H   0  0  0  0  0  0
  -24.5918  -30.7049   25.7768 H   0  0  0  0  0  0
  -24.8935  -32.2856   26.4922 H   0  0  0  0  0  0
  -25.8092  -30.8849   27.0207 H   0  0  0  0  0  0
  -26.2902  -29.6753   24.1218 H   0  0  0  0  0  0
  -27.4167  -29.7332   25.4578 H   0  0  0  0  0  0
  -27.8710  -30.4346   23.9228 H   0  0  0  0  0  0
  -27.2678  -33.3639   26.2062 H   0  0  0  0  0  0
  -28.3867  -32.6898   25.0293 H   0  0  0  0  0  0
  -28.0740  -31.8457   26.5375 H   0  0  0  0  0  0
  -28.2612  -38.0105   24.7544 H   0  0  0  0  0  0
  -28.1081  -36.2640   24.6265 H   0  0  0  0  0  0
  -27.2304  -37.1426   25.8868 H   0  0  0  0  0  0
  -20.9334  -29.8734   21.6891 H   0  0  0  0  0  0
  -26.0188  -38.2866   24.1411 H   0  0  0  0  0  0
  -28.4216  -17.8369   20.9013 H   0  0  0  0  0  0
  -35.3196  -18.7454   20.2060 H   0  0  0  0  0  0
  -33.8468  -19.4870   19.5804 H   0  0  0  0  0  0
  -33.9873  -17.7326   19.6603 H   0  0  0  0  0  0
  -30.6786  -20.5734   24.4051 H   0  0  0  0  0  0
  -29.7435  -21.5866   23.3365 H   0  0  0  0  0  0
  -31.1590  -22.2366   24.1345 H   0  0  0  0  0  0
  -32.8448  -21.6701   20.8195 H   0  0  0  0  0  0
  -32.6793  -22.7897   22.1568 H   0  0  0  0  0  0
  -31.3407  -22.5514   21.0750 H   0  0  0  0  0  0
  -34.0493  -17.8542   22.1743 H   0  0  0  0  0  0
  -33.9928  -19.5799   22.0861 H   0  0  0  0  0  0
  -27.8684  -23.9299   19.2698 H   0  0  0  0  0  0
  -29.5561  -24.1356   19.6743 H   0  0  0  0  0  0
  -27.4841  -22.7093   21.4313 H   0  0  0  0  0  0
  -29.1243  -23.0241   21.8917 H   0  0  0  0  0  0
  -28.9184  -25.4733   21.7037 H   0  0  0  0  0  0
  -27.2423  -25.2945   21.3178 H   0  0  0  0  0  0
  -29.8971  -21.4701   19.9620 H   0  0  0  0  0  0
  -28.2278  -21.1424   19.6467 H   0  0  0  0  0  0
  -32.5575  -20.6168   23.0691 H   0  0  0  0  0  0
  -28.9988  -15.4620   21.0389 H   0  0  0  0  0  0
  1 25  1  0  0  0
  1 30  2  0  0  0
  1 86  1  0  0  0
  2  3  1  0  0  0
  2 25  1  0  0  0
  2 88  1  0  0  0
  2 89  1  0  0  0
  3  4  1  0  0  0
  3 90  1  0  0  0
  3 91  1  0  0  0
  4  5  1  0  0  0
  4 92  1  0  0  0
  4 93  1  0  0  0
  5  6  1  0  0  0
  5 26  1  0  0  0
  5 94  1  0  0  0
  6 25  1  0  0  0
  6 95  1  0  0  0
  6 96  1  0  0  0
  7  8  2  0  0  0
  7 26  1  0  0  0
  7 29  1  0  0  0
  8  9  1  0  0  0
  8 22  1  0  0  0
  9 10  1  0  0  0
  9 27  2  0  0  0
 10 11  2  0  0  0
 10 15  1  0  0  0
 11 12  1  0  0  0
 11 97  1  0  0  0
 12 13  2  0  0  0
 12 98  1  0  0  0
 13 14  1  0  0  0
 13 31  1  0  0  0
 14 15  2  0  0  0
 14 99  1  0  0  0
 15100  1  0  0  0
 16 17  2  0  0  0
 16 21  1  0  0  0
 16 31  1  0  0  0
 17 18  1  0  0  0
 17101  1  0  0  0
 18 19  2  0  0  0
 18102  1  0  0  0
 19 20  1  0  0  0
 19 24  1  0  0  0
 20 21  2  0  0  0
 20103  1  0  0  0
 21 23  1  0  0  0
 22 28  1  0  0  0
 22 32  2  0  0  0
 26 27  1  0  0  0
 28104  1  0  0  0
 28105  1  0  0  0
 29106  1  0  0  0
 29107  1  0  0  0
 33 34  1  0  0  0
 33 66  1  0  0  0
 33 70  2  0  0  0
 34 36  1  0  0  0
 34 59  1  0  0  0
 34108  1  0  0  0
 35 44  2  0  0  0
 35 45  1  0  0  0
 35 68  1  0  0  0
 36 56  1  0  0  0
 36109  1  0  0  0
 37 39  1  0  0  0
 37 47  1  0  0  0
 37 66  1  0  0  0
 37110  1  0  0  0
 38 43  2  0  0  0
 38 46  1  0  0  0
 38 47  1  0  0  0
 39 64  1  0  0  0
 39 67  2  0  0  0
 40 52  1  0  0  0
 40 53  2  0  0  0
 40 58  1  0  0  0
 41111  1  0  0  0
 41112  1  0  0  0
 41113  1  0  0  0
 41 48  1  0  0  0
 42 43  1  0  0  0
 42 66  1  0  0  0
 42114  1  0  0  0
 42115  1  0  0  0
 43 44  1  0  0  0
 44116  1  0  0  0
 45 46  2  0  0  0
 45117  1  0  0  0
 46118  1  0  0  0
 47119  1  0  0  0
 47120  1  0  0  0
 48 56  1  0  0  0
 48 65  1  0  0  0
 48121  1  0  0  0
 49 50  1  0  0  0
 49 53  1  0  0  0
 49 64  1  0  0  0
 49122  1  0  0  0
 50 51  1  0  0  0
 50123  1  0  0  0
 50124  1  0  0  0
 51 52  1  0  0  0
 51125  1  0  0  0
 51126  1  0  0  0
 52127  1  0  0  0
 52128  1  0  0  0
 53 54  1  0  0  0
 54 55  2  0  0  0
 54129  1  0  0  0
 55 57  1  0  0  0
 55130  1  0  0  0
 56 69  2  0  0  0
 57 58  2  0  0  0
 57131  1  0  0  0
 58132  1  0  0  0
 59 60  1  0  0  0
 59 61  1  0  0  0
 59 62  1  0  0  0
 60133  1  0  0  0
 60134  1  0  0  0
 60135  1  0  0  0
 61136  1  0  0  0
 61137  1  0  0  0
 61138  1  0  0  0
 62139  1  0  0  0
 62140  1  0  0  0
 62141  1  0  0  0
 63 65  1  0  0  0
 63142  1  0  0  0
 63143  1  0  0  0
 63144  1  0  0  0
 64145  1  0  0  0
 65146  1  0  0  0
 68 82  1  0  0  0
 71 73  2  0  0  0
 71 75  1  0  0  0
 71147  1  0  0  0
 72 73  1  0  0  0
 72 74  2  0  0  0
 72 84  1  0  0  0
 73 87  1  0  0  0
 74 79  1  0  0  0
 74 85  1  0  0  0
 75 85  2  0  0  0
 75 86  1  0  0  0
 76 79  1  0  0  0
 76148  1  0  0  0
 76149  1  0  0  0
 76150  1  0  0  0
 77151  1  0  0  0
 77152  1  0  0  0
 77153  1  0  0  0
 77 84  1  0  0  0
 78 84  1  0  0  0
 78154  1  0  0  0
 78155  1  0  0  0
 78156  1  0  0  0
 79157  1  0  0  0
 79158  1  0  0  0
 80 81  1  0  0  0
 80 82  1  0  0  0
 80159  1  0  0  0
 80160  1  0  0  0
 81 83  1  0  0  0
 81161  1  0  0  0
 81162  1  0  0  0
 82163  1  0  0  0
 82164  1  0  0  0
 83 87  1  0  0  0
 83165  1  0  0  0
 83166  1  0  0  0
 84167  1  0  0  0
 86168  1  0  0  0
M  ISO  4   1 100  68 101  82 101  86 100
M  END
> <chiral flag>
0

> <version>
0

> <s_m_source_file>
/data/baiqing/PycharmProjects/Reinvent-master-3.2/result/LINK_invent/BTK/process_docking_weight1_custom_sum_contain_oxygen_bond_distance_aromatic_linkinvent_7_9_3/rearranged_h_0116.sdf

> <i_m_source_file_index>
96

> <r_mmod_Potential_Energy-OPLS-2005>
-119.570037841797

> <r_mmod_Stretch_Energy-OPLS-2005>
50.2057609558105

> <r_mmod_Bend_Energy-OPLS-2005>
124.026428222656

> <r_mmod_Torsional_Energy-OPLS-2005>
263.083160400391

> <r_mmod_Improper_Torsional_Energy-OPLS-2005>
5.63353300094604

> <r_mmod_Van_der_Waal_Energy-OPLS-2005>
153.537704467773

> <r_mmod_Electrostatic_Energy-OPLS-2005>
-515.263977050781

> <r_mmod_Solvation_Energy-OPLS-2005>
-224.096084594727

> <b_mmod_Minimization_Converged-OPLS-2005>
0

> <r_mmod_RMS_Derivative-OPLS-2005>
1.74898171424866

$$$$
97
                    3D
 Structure written by MMmdl.
151159  0  0  1  0            999 V2000
  -30.5313  -15.0078   20.4078 C   0  0  0  0  0  0
  -30.4371  -12.6286   19.5049 C   0  0  0  0  0  0
  -29.5242  -12.5328   18.2604 C   0  0  0  0  0  0
  -28.0591  -12.3100   18.6797 C   0  0  0  0  0  0
  -27.6240  -13.2544   19.8315 C   0  0  2  0  0  0
  -28.6644  -13.3181   20.9686 C   0  0  0  0  0  0
  -25.2443  -13.8218   20.5727 C   0  0  0  0  0  0
  -24.1767  -13.0433   20.9236 C   0  0  0  0  0  0
  -24.6390  -11.6921   20.8749 C   0  0  0  0  0  0
  -23.9082  -10.4285   21.0399 C   0  0  0  0  0  0
  -24.3632   -9.4196   21.9174 C   0  0  0  0  0  0
  -23.6303   -8.2236   22.0748 C   0  0  0  0  0  0
  -22.4280   -8.0281   21.3544 C   0  0  0  0  0  0
  -21.9914   -9.0254   20.4645 C   0  0  0  0  0  0
  -22.7250  -10.2130   20.3051 C   0  0  0  0  0  0
  -21.6854   -6.0737   22.5283 C   0  0  0  0  0  0
  -21.4017   -6.5640   23.8218 C   0  0  0  0  0  0
  -21.3661   -5.6792   24.9180 C   0  0  0  0  0  0
  -21.6042   -4.3055   24.7226 C   0  0  0  0  0  0
  -21.8819   -3.8148   23.4349 C   0  0  0  0  0  0
  -21.9192   -4.6965   22.3406 C   0  0  0  0  0  0
  -22.7787  -13.5202   21.1884 C   0  0  0  0  0  0
  -22.1656   -4.2153   21.0981 F   0  0  0  0  0  0
  -21.5623   -3.4537   25.7738 F   0  0  0  0  0  0
  -29.9300  -13.7451   20.3596 N   0  0  0  0  0  0
  -26.2860  -12.9461   20.3222 N   0  0  0  0  0  0
  -25.9322  -11.6584   20.5722 N   0  0  0  0  0  0
  -22.0432  -12.8202   22.0445 N   0  0  0  0  0  0
  -25.4096  -15.1953   20.4176 N   0  0  0  0  0  0
  -31.7443  -15.0399   20.1725 O   0  0  0  0  0  0
  -21.6640   -6.8883   21.4246 O   0  0  0  0  0  0
  -22.3469  -14.5498   20.6713 O   0  0  0  0  0  0
  -24.6493  -31.8389   23.1824 C   0  0  0  0  0  0
  -25.9241  -32.4664   23.8241 C   0  0  1  0  0  0
  -27.2169  -27.0828   20.1526 C   0  0  0  0  0  0
  -25.5961  -33.8471   24.2159 N   0  0  0  0  0  0
  -23.4555  -30.4570   21.5293 C   0  0  2  0  0  0
  -24.9039  -28.8745   20.1091 C   0  0  0  0  0  0
  -22.7601  -29.4524   22.4832 C   0  0  0  0  0  0
  -18.0311  -28.1400   22.8470 C   0  0  0  0  0  0
  -24.1490  -36.7244   23.2645 C   0  0  0  0  0  0
  -26.0157  -30.6952   21.3890 C   0  0  0  0  0  0
  -26.0846  -29.3021   20.7291 C   0  0  0  0  0  0
  -27.2401  -28.4242   20.7297 C   0  0  0  0  0  0
  -26.0026  -26.7666   19.5036 C   0  0  0  0  0  0
  -24.8789  -27.6217   19.4804 C   0  0  0  0  0  0
  -23.6843  -29.7836   20.1502 C   0  0  0  0  0  0
  -25.4125  -36.3011   24.0311 C   0  0  1  0  0  0
  -20.5928  -28.3737   23.1211 C   0  0  2  0  0  0
  -20.6789  -26.9432   22.5400 C   0  0  0  0  0  0
  -19.5763  -26.6379   21.5208 C   0  0  0  0  0  0
  -18.1947  -26.7934   22.1622 C   0  0  0  0  0  0
  -19.1570  -28.8886   23.2829 C   0  0  0  0  0  0
  -18.9485  -30.1476   23.8863 C   0  0  0  0  0  0
  -17.6480  -30.6592   24.0558 C   0  0  0  0  0  0
  -25.9082  -34.9392   23.5051 C   0  0  0  0  0  0
  -16.5371  -29.9087   23.6334 C   0  0  0  0  0  0
  -16.7295  -28.6504   23.0358 C   0  0  0  0  0  0
  -26.4532  -31.6555   25.0713 C   0  0  0  0  0  0
  -25.3698  -31.3767   26.1397 C   0  0  0  0  0  0
  -27.0417  -30.2941   24.6348 C   0  0  0  0  0  0
  -27.6044  -32.4346   25.7507 C   0  0  0  0  0  0
  -27.5572  -37.1778   24.8465 C   0  0  0  0  0  0
  -21.4288  -29.3052   22.3580 N   0  0  0  0  0  0
  -26.4279  -37.3732   23.9409 N   0  0  0  0  0  0
  -24.7270  -31.0204   22.0879 N   0  0  0  0  0  0
  -23.4219  -28.8085   23.3012 O   0  0  0  0  0  0
  -28.2650  -26.0733   20.2347 O   0  0  0  0  0  0
  -26.5681  -34.8899   22.4636 O   0  0  0  0  0  0
  -23.5599  -32.1291   23.7011 O   0  0  0  0  0  0
  -28.0801  -19.5111   19.9159 C   0  0  0  0  0  0
  -27.7967  -20.8787   19.9186 C   0  0  0  0  0  0
  -29.8394  -20.5648   20.6113 C   0  0  0  0  0  0
  -29.4157  -19.2203   20.3627 C   0  0  0  0  0  0
  -28.1889  -24.3819   18.4091 C   0  0  0  0  0  0
  -30.2510  -17.7559   20.4941 C   0  0  0  0  0  0
  -28.9911  -23.2298   20.6055 C   0  0  0  0  0  0
  -28.0882  -24.5235   19.9373 C   0  0  1  0  0  0
  -28.8846  -21.6382   20.3478 N   0  0  0  0  0  0
  -29.7823  -16.2298   20.5133 N   0  0  0  0  0  0
  -31.4702  -12.7897   19.1926 H   0  0  0  0  0  0
  -30.4392  -11.6882   20.0585 H   0  0  0  0  0  0
  -29.8550  -11.7240   17.6075 H   0  0  0  0  0  0
  -29.6054  -13.4515   17.6773 H   0  0  0  0  0  0
  -27.9650  -11.2728   19.0033 H   0  0  0  0  0  0
  -27.3969  -12.4225   17.8201 H   0  0  0  0  0  0
  -27.5766  -14.2489   19.3866 H   0  0  0  0  0  0
  -28.7667  -12.3525   21.4668 H   0  0  0  0  0  0
  -28.3533  -14.0316   21.7339 H   0  0  0  0  0  0
  -25.2775   -9.5670   22.4754 H   0  0  0  0  0  0
  -24.0007   -7.4625   22.7468 H   0  0  0  0  0  0
  -21.0839   -8.8781   19.8962 H   0  0  0  0  0  0
  -22.3701  -10.9673   19.6168 H   0  0  0  0  0  0
  -21.2011   -7.6149   23.9727 H   0  0  0  0  0  0
  -21.1479   -6.0517   25.9084 H   0  0  0  0  0  0
  -22.0593   -2.7610   23.2847 H   0  0  0  0  0  0
  -22.4060  -11.9893   22.4882 H   0  0  0  0  0  0
  -21.1042  -13.1219   22.2629 H   0  0  0  0  0  0
  -24.6380  -15.8435   20.5330 H   0  0  0  0  0  0
  -26.2497  -15.6395   20.0710 H   0  0  0  0  0  0
  -26.7314  -32.5247   23.0973 H   0  0  0  0  0  0
  -25.0060  -33.9568   25.0275 H   0  0  0  0  0  0
  -22.7607  -31.2844   21.3703 H   0  0  0  0  0  0
  -23.3753  -35.9572   23.3289 H   0  0  0  0  0  0
  -24.3576  -36.8902   22.2064 H   0  0  0  0  0  0
  -23.7245  -37.6431   23.6704 H   0  0  0  0  0  0
  -26.1822  -31.4474   20.6167 H   0  0  0  0  0  0
  -26.8818  -30.7439   22.0374 H   0  0  0  0  0  0
  -28.1387  -28.7487   21.2352 H   0  0  0  0  0  0
  -25.8753  -25.8052   19.0322 H   0  0  0  0  0  0
  -23.9766  -27.2849   18.9887 H   0  0  0  0  0  0
  -23.8282  -30.5561   19.3940 H   0  0  0  0  0  0
  -22.7971  -29.2307   19.8366 H   0  0  0  0  0  0
  -25.1314  -36.1828   25.0801 H   0  0  0  0  0  0
  -21.0015  -28.3335   24.1333 H   0  0  0  0  0  0
  -20.5669  -26.2360   23.3632 H   0  0  0  0  0  0
  -21.6656  -26.7420   22.1209 H   0  0  0  0  0  0
  -19.6923  -25.6280   21.1263 H   0  0  0  0  0  0
  -19.6693  -27.3166   20.6719 H   0  0  0  0  0  0
  -17.4213  -26.6669   21.4031 H   0  0  0  0  0  0
  -18.0348  -26.0085   22.9029 H   0  0  0  0  0  0
  -19.7964  -30.7295   24.2220 H   0  0  0  0  0  0
  -17.5039  -31.6267   24.5173 H   0  0  0  0  0  0
  -15.5372  -30.2983   23.7669 H   0  0  0  0  0  0
  -15.8695  -28.0810   22.7095 H   0  0  0  0  0  0
  -24.5860  -30.7140   25.7710 H   0  0  0  0  0  0
  -24.8909  -32.2961   26.4775 H   0  0  0  0  0  0
  -25.7956  -30.8958   27.0211 H   0  0  0  0  0  0
  -26.3057  -29.6644   24.1334 H   0  0  0  0  0  0
  -27.3979  -29.7266   25.4955 H   0  0  0  0  0  0
  -27.8984  -30.4160   23.9718 H   0  0  0  0  0  0
  -27.2607  -33.3655   26.2028 H   0  0  0  0  0  0
  -28.3878  -32.6897   25.0361 H   0  0  0  0  0  0
  -28.0688  -31.8521   26.5473 H   0  0  0  0  0  0
  -28.2576  -38.0086   24.7508 H   0  0  0  0  0  0
  -28.1080  -36.2615   24.6289 H   0  0  0  0  0  0
  -27.2293  -37.1423   25.8868 H   0  0  0  0  0  0
  -20.9513  -29.8772   21.6754 H   0  0  0  0  0  0
  -26.0141  -38.2795   24.1409 H   0  0  0  0  0  0
  -27.3624  -18.7643   19.6034 H   0  0  0  0  0  0
  -26.8780  -21.3846   19.6492 H   0  0  0  0  0  0
  -30.8092  -20.8710   20.9840 H   0  0  0  0  0  0
  -27.8853  -23.3852   18.0880 H   0  0  0  0  0  0
  -29.2164  -24.5322   18.0790 H   0  0  0  0  0  0
  -27.5727  -25.0997   17.8721 H   0  0  0  0  0  0
  -30.8533  -17.8654   21.3965 H   0  0  0  0  0  0
  -30.9819  -17.7996   19.6859 H   0  0  0  0  0  0
  -28.9040  -23.3439   21.6857 H   0  0  0  0  0  0
  -30.0345  -23.4712   20.4018 H   0  0  0  0  0  0
  -27.0609  -24.2981   20.2228 H   0  0  0  0  0  0
  -28.7907  -16.0985   20.6433 H   0  0  0  0  0  0
  1 25  1  0  0  0
  1 30  2  0  0  0
  1 80  1  0  0  0
  2  3  1  0  0  0
  2 25  1  0  0  0
  2 81  1  0  0  0
  2 82  1  0  0  0
  3  4  1  0  0  0
  3 83  1  0  0  0
  3 84  1  0  0  0
  4  5  1  0  0  0
  4 85  1  0  0  0
  4 86  1  0  0  0
  5  6  1  0  0  0
  5 26  1  0  0  0
  5 87  1  0  0  0
  6 25  1  0  0  0
  6 88  1  0  0  0
  6 89  1  0  0  0
  7  8  2  0  0  0
  7 26  1  0  0  0
  7 29  1  0  0  0
  8  9  1  0  0  0
  8 22  1  0  0  0
  9 10  1  0  0  0
  9 27  2  0  0  0
 10 11  2  0  0  0
 10 15  1  0  0  0
 11 12  1  0  0  0
 11 90  1  0  0  0
 12 13  2  0  0  0
 12 91  1  0  0  0
 13 14  1  0  0  0
 13 31  1  0  0  0
 14 15  2  0  0  0
 14 92  1  0  0  0
 15 93  1  0  0  0
 16 17  2  0  0  0
 16 21  1  0  0  0
 16 31  1  0  0  0
 17 18  1  0  0  0
 17 94  1  0  0  0
 18 19  2  0  0  0
 18 95  1  0  0  0
 19 20  1  0  0  0
 19 24  1  0  0  0
 20 21  2  0  0  0
 20 96  1  0  0  0
 21 23  1  0  0  0
 22 28  1  0  0  0
 22 32  2  0  0  0
 26 27  1  0  0  0
 28 97  1  0  0  0
 28 98  1  0  0  0
 29 99  1  0  0  0
 29100  1  0  0  0
 33 34  1  0  0  0
 33 66  1  0  0  0
 33 70  2  0  0  0
 34 36  1  0  0  0
 34 59  1  0  0  0
 34101  1  0  0  0
 35 44  2  0  0  0
 35 45  1  0  0  0
 35 68  1  0  0  0
 36 56  1  0  0  0
 36102  1  0  0  0
 37 39  1  0  0  0
 37 47  1  0  0  0
 37 66  1  0  0  0
 37103  1  0  0  0
 38 43  2  0  0  0
 38 46  1  0  0  0
 38 47  1  0  0  0
 39 64  1  0  0  0
 39 67  2  0  0  0
 40 52  1  0  0  0
 40 53  2  0  0  0
 40 58  1  0  0  0
 41104  1  0  0  0
 41105  1  0  0  0
 41106  1  0  0  0
 41 48  1  0  0  0
 42 43  1  0  0  0
 42 66  1  0  0  0
 42107  1  0  0  0
 42108  1  0  0  0
 43 44  1  0  0  0
 44109  1  0  0  0
 45 46  2  0  0  0
 45110  1  0  0  0
 46111  1  0  0  0
 47112  1  0  0  0
 47113  1  0  0  0
 48 56  1  0  0  0
 48 65  1  0  0  0
 48114  1  0  0  0
 49 50  1  0  0  0
 49 53  1  0  0  0
 49 64  1  0  0  0
 49115  1  0  0  0
 50 51  1  0  0  0
 50116  1  0  0  0
 50117  1  0  0  0
 51 52  1  0  0  0
 51118  1  0  0  0
 51119  1  0  0  0
 52120  1  0  0  0
 52121  1  0  0  0
 53 54  1  0  0  0
 54 55  2  0  0  0
 54122  1  0  0  0
 55 57  1  0  0  0
 55123  1  0  0  0
 56 69  2  0  0  0
 57 58  2  0  0  0
 57124  1  0  0  0
 58125  1  0  0  0
 59 60  1  0  0  0
 59 61  1  0  0  0
 59 62  1  0  0  0
 60126  1  0  0  0
 60127  1  0  0  0
 60128  1  0  0  0
 61129  1  0  0  0
 61130  1  0  0  0
 61131  1  0  0  0
 62132  1  0  0  0
 62133  1  0  0  0
 62134  1  0  0  0
 63 65  1  0  0  0
 63135  1  0  0  0
 63136  1  0  0  0
 63137  1  0  0  0
 64138  1  0  0  0
 65139  1  0  0  0
 68 78  1  0  0  0
 71 72  2  0  0  0
 71 74  1  0  0  0
 71140  1  0  0  0
 72 79  1  0  0  0
 72141  1  0  0  0
 73 74  2  0  0  0
 73 79  1  0  0  0
 73142  1  0  0  0
 74 76  1  0  0  0
 75143  1  0  0  0
 75144  1  0  0  0
 75145  1  0  0  0
 75 78  1  0  0  0
 76 80  1  0  0  0
 76146  1  0  0  0
 76147  1  0  0  0
 77 78  1  0  0  0
 77 79  1  0  0  0
 77148  1  0  0  0
 77149  1  0  0  0
 78150  1  0  0  0
 80151  1  0  0  0
M  ISO  4   1 100  68 101  78 101  80 100
M  END
> <chiral flag>
0

> <version>
0

> <s_m_source_file>
/data/baiqing/PycharmProjects/Reinvent-master-3.2/result/LINK_invent/BTK/process_docking_weight1_custom_sum_contain_oxygen_bond_distance_aromatic_linkinvent_7_9_3/rearranged_h_0116.sdf

> <i_m_source_file_index>
97

> <r_mmod_Potential_Energy-OPLS-2005>
561.266845703125

> <r_mmod_Stretch_Energy-OPLS-2005>
310.528167724609

> <r_mmod_Bend_Energy-OPLS-2005>
295.37890625

> <r_mmod_Torsional_Energy-OPLS-2005>
205.480911254883

> <r_mmod_Improper_Torsional_Energy-OPLS-2005>
4.69187355041504

> <r_mmod_Van_der_Waal_Energy-OPLS-2005>
108.527435302734

> <r_mmod_Electrostatic_Energy-OPLS-2005>
-385.877502441406

> <r_mmod_Solvation_Energy-OPLS-2005>
-216.870208740234

> <b_mmod_Minimization_Converged-OPLS-2005>
0

> <r_mmod_RMS_Derivative-OPLS-2005>
0.979250907897949

$$$$
