0
                    3D
 Structure written by MMmdl.
170178  0  0  1  0            999 V2000
  -30.7242  -14.4298   20.5769 C   0  0  0  0  0  0
  -30.4340  -12.2864   19.4054 C   0  0  0  0  0  0
  -29.4950  -12.4902   18.1977 C   0  0  0  0  0  0
  -28.0184  -12.3576   18.6157 C   0  0  0  0  0  0
  -27.6724  -13.1960   19.8751 C   0  0  2  0  0  0
  -28.7169  -12.9589   20.9929 C   0  0  0  0  0  0
  -25.2686  -13.8149   20.5645 C   0  0  0  0  0  0
  -24.1910  -13.0468   20.9198 C   0  0  0  0  0  0
  -24.6414  -11.6915   20.8743 C   0  0  0  0  0  0
  -23.9061  -10.4301   21.0391 C   0  0  0  0  0  0
  -24.3620   -9.4227   21.9152 C   0  0  0  0  0  0
  -23.6305   -8.2273   22.0729 C   0  0  0  0  0  0
  -22.4282   -8.0298   21.3553 C   0  0  0  0  0  0
  -21.9923   -9.0261   20.4648 C   0  0  0  0  0  0
  -22.7240  -10.2147   20.3048 C   0  0  0  0  0  0
  -21.6862   -6.0740   22.5275 C   0  0  0  0  0  0
  -21.3996   -6.5638   23.8205 C   0  0  0  0  0  0
  -21.3666   -5.6779   24.9160 C   0  0  0  0  0  0
  -21.6056   -4.3047   24.7199 C   0  0  0  0  0  0
  -21.8837   -3.8154   23.4322 C   0  0  0  0  0  0
  -21.9198   -4.6968   22.3383 C   0  0  0  0  0  0
  -22.7929  -13.5276   21.1820 C   0  0  0  0  0  0
  -22.1679   -4.2162   21.0953 F   0  0  0  0  0  0
  -21.5627   -3.4531   25.7711 F   0  0  0  0  0  0
  -30.0555  -13.2561   20.4465 N   0  0  0  0  0  0
  -26.3100  -12.9283   20.3346 N   0  0  0  0  0  0
  -25.9343  -11.6468   20.5779 N   0  0  0  0  0  0
  -22.0552  -12.8286   22.0358 N   0  0  0  0  0  0
  -25.4464  -15.1856   20.3940 N   0  0  0  0  0  0
  -31.8238  -14.6516   20.0610 O   0  0  0  0  0  0
  -21.6668   -6.8892   21.4241 O   0  0  0  0  0  0
  -22.3614  -14.5550   20.6623 O   0  0  0  0  0  0
  -24.6104  -31.8679   23.2138 C   0  0  0  0  0  0
  -25.9005  -32.4837   23.8413 C   0  0  1  0  0  0
  -27.2545  -27.4819   20.0848 C   0  0  0  0  0  0
  -25.5857  -33.8637   24.2338 N   0  0  0  0  0  0
  -23.3980  -30.4930   21.5514 C   0  0  2  0  0  0
  -24.8437  -28.9550   20.1248 C   0  0  0  0  0  0
  -22.7370  -29.4657   22.4989 C   0  0  0  0  0  0
  -18.0259  -28.1354   22.8496 C   0  0  0  0  0  0
  -24.1476  -36.7323   23.2637 C   0  0  0  0  0  0
  -25.9208  -30.8468   21.3562 C   0  0  0  0  0  0
  -25.9980  -29.4821   20.7126 C   0  0  0  0  0  0
  -27.2044  -28.7538   20.6890 C   0  0  0  0  0  0
  -26.0787  -26.9499   19.5043 C   0  0  0  0  0  0
  -24.8751  -27.6829   19.5246 C   0  0  0  0  0  0
  -23.6053  -29.8186   20.1668 C   0  0  0  0  0  0
  -25.4087  -36.3124   24.0342 C   0  0  1  0  0  0
  -20.5851  -28.3635   23.1323 C   0  0  2  0  0  0
  -20.6755  -26.9369   22.5420 C   0  0  0  0  0  0
  -19.5728  -26.6361   21.5216 C   0  0  0  0  0  0
  -18.1901  -26.7914   22.1612 C   0  0  0  0  0  0
  -19.1518  -28.8803   23.2918 C   0  0  0  0  0  0
  -18.9446  -30.1412   23.8919 C   0  0  0  0  0  0
  -17.6461  -30.6577   24.0562 C   0  0  0  0  0  0
  -25.9006  -34.9488   23.5140 C   0  0  0  0  0  0
  -16.5348  -29.9088   23.6316 C   0  0  0  0  0  0
  -16.7250  -28.6493   23.0352 C   0  0  0  0  0  0
  -26.4458  -31.6615   25.0721 C   0  0  0  0  0  0
  -25.3783  -31.3721   26.1532 C   0  0  0  0  0  0
  -27.0260  -30.3066   24.6036 C   0  0  0  0  0  0
  -27.6032  -32.4343   25.7498 C   0  0  0  0  0  0
  -27.5569  -37.1807   24.8465 C   0  0  0  0  0  0
  -21.4099  -29.3034   22.3758 N   0  0  0  0  0  0
  -26.4268  -37.3807   23.9423 N   0  0  0  0  0  0
  -24.6614  -31.0838   22.1000 N   0  0  0  0  0  0
  -23.4172  -28.8185   23.3012 O   0  0  0  0  0  0
  -28.4834  -26.8625   20.0383 O   0  0  0  0  0  0
  -26.5586  -34.8943   22.4711 O   0  0  0  0  0  0
  -23.5307  -32.1378   23.7578 O   0  0  0  0  0  0
  -30.3062  -23.7318   25.2763 C   0  0  0  0  0  0
  -29.5005  -24.3251   24.3814 C   0  0  0  0  0  0
  -28.4495  -24.9849   21.5465 C   0  0  0  0  0  0
  -28.5840  -23.7625   22.1210 C   0  0  0  0  0  0
  -30.4255  -20.3352   21.4813 C   0  0  0  0  0  0
  -29.3225  -21.0865   19.3262 C   0  0  0  0  0  0
  -29.6436  -21.4211   22.2650 C   0  0  0  0  0  0
  -29.4292  -22.4470   20.0509 C   0  0  0  0  0  0
  -29.7796  -19.8650   20.1619 C   0  0  2  0  0  0
  -28.3730  -23.6391   23.6345 C   0  0  0  0  0  0
  -28.5612  -25.4489   20.1083 C   0  0  0  0  0  0
  -30.1884  -16.8387   20.7970 C   0  0  0  0  0  0
  -28.8686  -17.6053   21.0538 C   0  0  0  0  0  0
  -30.0210  -15.4225   21.1387 N   0  0  0  0  0  0
  -28.8865  -22.4196   21.4389 N   0  3  2  0  0  0
  -28.6726  -18.8700   20.2983 N   0  3  0  0  0  0
  -31.4734  -12.3954   19.0941 H   0  0  0  0  0  0
  -30.3452  -11.2703   19.7960 H   0  0  0  0  0  0
  -29.7240  -11.7578   17.4222 H   0  0  0  0  0  0
  -29.6709  -13.4718   17.7542 H   0  0  0  0  0  0
  -27.8283  -11.3014   18.8126 H   0  0  0  0  0  0
  -27.3668  -12.6337   17.7854 H   0  0  0  0  0  0
  -27.7260  -14.2449   19.5805 H   0  0  0  0  0  0
  -28.6864  -11.9183   21.3210 H   0  0  0  0  0  0
  -28.4825  -13.5513   21.8779 H   0  0  0  0  0  0
  -25.2767   -9.5692   22.4726 H   0  0  0  0  0  0
  -24.0024   -7.4642   22.7433 H   0  0  0  0  0  0
  -21.0869   -8.8779   19.8948 H   0  0  0  0  0  0
  -22.3689  -10.9684   19.6174 H   0  0  0  0  0  0
  -21.1979   -7.6148   23.9710 H   0  0  0  0  0  0
  -21.1470   -6.0503   25.9062 H   0  0  0  0  0  0
  -22.0610   -2.7623   23.2815 H   0  0  0  0  0  0
  -22.4150  -11.9994   22.4832 H   0  0  0  0  0  0
  -21.1143  -13.1292   22.2486 H   0  0  0  0  0  0
  -24.6604  -15.8230   20.4319 H   0  0  0  0  0  0
  -26.2491  -15.5788   19.9217 H   0  0  0  0  0  0
  -26.7063  -32.5553   23.1163 H   0  0  0  0  0  0
  -25.0093  -33.9829   25.0544 H   0  0  0  0  0  0
  -22.6868  -31.3087   21.4077 H   0  0  0  0  0  0
  -23.3733  -35.9658   23.3316 H   0  0  0  0  0  0
  -24.3584  -36.8929   22.2049 H   0  0  0  0  0  0
  -23.7227  -37.6532   23.6646 H   0  0  0  0  0  0
  -26.0209  -31.6037   20.5773 H   0  0  0  0  0  0
  -26.8155  -30.9108   21.9636 H   0  0  0  0  0  0
  -28.1025  -29.1707   21.1255 H   0  0  0  0  0  0
  -26.0722  -25.9918   19.0106 H   0  0  0  0  0  0
  -23.9874  -27.2664   19.0669 H   0  0  0  0  0  0
  -23.7199  -30.5895   19.4057 H   0  0  0  0  0  0
  -22.7323  -29.2372   19.8671 H   0  0  0  0  0  0
  -25.1254  -36.1992   25.0825 H   0  0  0  0  0  0
  -20.9943  -28.3180   24.1441 H   0  0  0  0  0  0
  -20.5633  -26.2222   23.3585 H   0  0  0  0  0  0
  -21.6628  -26.7398   22.1211 H   0  0  0  0  0  0
  -19.6908  -25.6277   21.1198 H   0  0  0  0  0  0
  -19.6703  -27.3221   20.6787 H   0  0  0  0  0  0
  -17.4181  -26.6645   21.4008 H   0  0  0  0  0  0
  -18.0306  -26.0054   22.8994 H   0  0  0  0  0  0
  -19.7934  -30.7202   24.2308 H   0  0  0  0  0  0
  -17.5034  -31.6271   24.5144 H   0  0  0  0  0  0
  -15.5350  -30.3015   23.7648 H   0  0  0  0  0  0
  -15.8626  -28.0837   22.7065 H   0  0  0  0  0  0
  -24.5955  -30.7030   25.7959 H   0  0  0  0  0  0
  -24.8974  -32.2873   26.4989 H   0  0  0  0  0  0
  -25.8204  -30.8943   27.0285 H   0  0  0  0  0  0
  -26.2758  -29.6873   24.1107 H   0  0  0  0  0  0
  -27.4101  -29.7261   25.4439 H   0  0  0  0  0  0
  -27.8567  -30.4417   23.9112 H   0  0  0  0  0  0
  -27.2608  -33.3624   26.2098 H   0  0  0  0  0  0
  -28.3832  -32.6945   25.0335 H   0  0  0  0  0  0
  -28.0697  -31.8456   26.5417 H   0  0  0  0  0  0
  -28.2584  -38.0110   24.7540 H   0  0  0  0  0  0
  -28.1059  -36.2649   24.6234 H   0  0  0  0  0  0
  -27.2311  -37.1407   25.8875 H   0  0  0  0  0  0
  -20.9232  -29.8817   21.7056 H   0  0  0  0  0  0
  -26.0160  -38.2874   24.1484 H   0  0  0  0  0  0
  -31.0912  -24.2924   25.7693 H   0  0  0  0  0  0
  -30.2024  -22.6905   25.5357 H   0  0  0  0  0  0
  -29.6479  -25.3755   24.1599 H   0  0  0  0  0  0
  -28.2156  -25.7962   22.2191 H   0  0  0  0  0  0
  -30.6517  -19.4971   22.1372 H   0  0  0  0  0  0
  -31.4032  -20.7470   21.2226 H   0  0  0  0  0  0
  -29.9213  -21.1513   18.4157 H   0  0  0  0  0  0
  -28.2992  -20.9537   18.9633 H   0  0  0  0  0  0
  -30.3635  -21.9453   22.8944 H   0  0  0  0  0  0
  -28.9481  -20.9173   22.9333 H   0  0  0  0  0  0
  -28.8697  -23.1172   19.4145 H   0  0  0  0  0  0
  -30.4614  -22.8057   20.0765 H   0  0  0  0  0  0
  -30.5570  -19.3594   19.5861 H   0  0  0  0  0  0
  -27.4549  -24.1727   23.8862 H   0  0  0  0  0  0
  -28.2049  -22.6296   24.0040 H   0  0  0  0  0  0
  -27.8307  -24.9610   19.4661 H   0  0  0  0  0  0
  -29.5548  -25.1925   19.7388 H   0  0  0  0  0  0
  -30.9951  -17.2638   21.3978 H   0  0  0  0  0  0
  -30.4979  -16.9287   19.7541 H   0  0  0  0  0  0
  -28.7589  -17.8066   22.1199 H   0  0  0  0  0  0
  -28.0238  -16.9684   20.7862 H   0  0  0  0  0  0
  -29.1542  -15.1490   21.5764 H   0  0  0  0  0  0
  -27.9792  -21.9938   21.3274 H   0  0  0  0  0  0
  -28.4258  -18.5906   19.3589 H   0  0  0  0  0  0
  -27.8428  -19.2998   20.6738 H   0  0  0  0  0  0
  1 25  1  0  0  0
  1 30  2  0  0  0
  1 84  1  0  0  0
  2  3  1  0  0  0
  2 25  1  0  0  0
  2 87  1  0  0  0
  2 88  1  0  0  0
  3  4  1  0  0  0
  3 89  1  0  0  0
  3 90  1  0  0  0
  4  5  1  0  0  0
  4 91  1  0  0  0
  4 92  1  0  0  0
  5  6  1  0  0  0
  5 26  1  0  0  0
  5 93  1  0  0  0
  6 25  1  0  0  0
  6 94  1  0  0  0
  6 95  1  0  0  0
  7  8  2  0  0  0
  7 26  1  0  0  0
  7 29  1  0  0  0
  8  9  1  0  0  0
  8 22  1  0  0  0
  9 10  1  0  0  0
  9 27  2  0  0  0
 10 11  2  0  0  0
 10 15  1  0  0  0
 11 12  1  0  0  0
 11 96  1  0  0  0
 12 13  2  0  0  0
 12 97  1  0  0  0
 13 14  1  0  0  0
 13 31  1  0  0  0
 14 15  2  0  0  0
 14 98  1  0  0  0
 15 99  1  0  0  0
 16 17  2  0  0  0
 16 21  1  0  0  0
 16 31  1  0  0  0
 17 18  1  0  0  0
 17100  1  0  0  0
 18 19  2  0  0  0
 18101  1  0  0  0
 19 20  1  0  0  0
 19 24  1  0  0  0
 20 21  2  0  0  0
 20102  1  0  0  0
 21 23  1  0  0  0
 22 28  1  0  0  0
 22 32  2  0  0  0
 26 27  1  0  0  0
 28103  1  0  0  0
 28104  1  0  0  0
 29105  1  0  0  0
 29106  1  0  0  0
 33 34  1  0  0  0
 33 66  1  0  0  0
 33 70  2  0  0  0
 34 36  1  0  0  0
 34 59  1  0  0  0
 34107  1  0  0  0
 35 44  2  0  0  0
 35 45  1  0  0  0
 35 68  1  0  0  0
 36 56  1  0  0  0
 36108  1  0  0  0
 37 39  1  0  0  0
 37 47  1  0  0  0
 37 66  1  0  0  0
 37109  1  0  0  0
 38 43  2  0  0  0
 38 46  1  0  0  0
 38 47  1  0  0  0
 39 64  1  0  0  0
 39 67  2  0  0  0
 40 52  1  0  0  0
 40 53  2  0  0  0
 40 58  1  0  0  0
 41110  1  0  0  0
 41111  1  0  0  0
 41112  1  0  0  0
 41 48  1  0  0  0
 42 43  1  0  0  0
 42 66  1  0  0  0
 42113  1  0  0  0
 42114  1  0  0  0
 43 44  1  0  0  0
 44115  1  0  0  0
 45 46  2  0  0  0
 45116  1  0  0  0
 46117  1  0  0  0
 47118  1  0  0  0
 47119  1  0  0  0
 48 56  1  0  0  0
 48 65  1  0  0  0
 48120  1  0  0  0
 49 50  1  0  0  0
 49 53  1  0  0  0
 49 64  1  0  0  0
 49121  1  0  0  0
 50 51  1  0  0  0
 50122  1  0  0  0
 50123  1  0  0  0
 51 52  1  0  0  0
 51124  1  0  0  0
 51125  1  0  0  0
 52126  1  0  0  0
 52127  1  0  0  0
 53 54  1  0  0  0
 54 55  2  0  0  0
 54128  1  0  0  0
 55 57  1  0  0  0
 55129  1  0  0  0
 56 69  2  0  0  0
 57 58  2  0  0  0
 57130  1  0  0  0
 58131  1  0  0  0
 59 60  1  0  0  0
 59 61  1  0  0  0
 59 62  1  0  0  0
 60132  1  0  0  0
 60133  1  0  0  0
 60134  1  0  0  0
 61135  1  0  0  0
 61136  1  0  0  0
 61137  1  0  0  0
 62138  1  0  0  0
 62139  1  0  0  0
 62140  1  0  0  0
 63 65  1  0  0  0
 63141  1  0  0  0
 63142  1  0  0  0
 63143  1  0  0  0
 64144  1  0  0  0
 65145  1  0  0  0
 68 81  1  0  0  0
 71 72  2  0  0  0
 71146  1  0  0  0
 71147  1  0  0  0
 72 80  1  0  0  0
 72148  1  0  0  0
 73 74  2  0  0  0
 73 81  1  0  0  0
 73149  1  0  0  0
 74 80  1  0  0  0
 74 85  1  0  0  0
 75 77  1  0  0  0
 75 79  1  0  0  0
 75150  1  0  0  0
 75151  1  0  0  0
 76 78  1  0  0  0
 76 79  1  0  0  0
 76152  1  0  0  0
 76153  1  0  0  0
 77 85  1  0  0  0
 77154  1  0  0  0
 77155  1  0  0  0
 78 85  1  0  0  0
 78156  1  0  0  0
 78157  1  0  0  0
 79 86  1  0  0  0
 79158  1  0  0  0
 80159  1  0  0  0
 80160  1  0  0  0
 81161  1  0  0  0
 81162  1  0  0  0
 82 83  1  0  0  0
 82 84  1  0  0  0
 82163  1  0  0  0
 82164  1  0  0  0
 83 86  1  0  0  0
 83165  1  0  0  0
 83166  1  0  0  0
 84167  1  0  0  0
 85168  1  0  0  0
 86169  1  0  0  0
 86170  1  0  0  0
M  CHG  2  85   1  86   1
M  ISO  4   1 100  68 101  81 101  84 100
M  END
> <chiral flag>
0

> <version>
0

> <s_m_source_file>
/data/baiqing/PycharmProjects/Reinvent-master-3.2/result/LINK_invent/BTK/process_docking_weight1_custom_sum_contain_oxygen_bond_distance_aromatic_linkinvent_7_9_3/rearranged_h_0109.sdf

> <i_m_source_file_index>
1

> <r_mmod_Potential_Energy-OPLS-2005>
-249.09358215332

> <r_mmod_Stretch_Energy-OPLS-2005>
41.0652923583984

> <r_mmod_Bend_Energy-OPLS-2005>
148.081665039062

> <r_mmod_Torsional_Energy-OPLS-2005>
285.307830810547

> <r_mmod_Improper_Torsional_Energy-OPLS-2005>
6.82300472259521

> <r_mmod_Van_der_Waal_Energy-OPLS-2005>
154.984252929688

> <r_mmod_Electrostatic_Energy-OPLS-2005>
140.033416748047

> <r_mmod_Solvation_Energy-OPLS-2005>
-1036.013671875

> <b_mmod_Minimization_Converged-OPLS-2005>
0

> <r_mmod_RMS_Derivative-OPLS-2005>
4.8735523223877

$$$$
1
                    3D
 Structure written by MMmdl.
168176  0  0  1  0            999 V2000
  -30.5086  -15.0370   20.4213 C   0  0  0  0  0  0
  -30.4430  -12.6622   19.4677 C   0  0  0  0  0  0
  -29.5136  -12.5291   18.2387 C   0  0  0  0  0  0
  -28.0520  -12.2999   18.6730 C   0  0  0  0  0  0
  -27.6160  -13.2487   19.8186 C   0  0  2  0  0  0
  -28.6704  -13.3238   20.9395 C   0  0  0  0  0  0
  -25.2391  -13.8163   20.5641 C   0  0  0  0  0  0
  -24.1762  -13.0414   20.9331 C   0  0  0  0  0  0
  -24.6382  -11.6906   20.8833 C   0  0  0  0  0  0
  -23.9067  -10.4283   21.0426 C   0  0  0  0  0  0
  -24.3616   -9.4195   21.9191 C   0  0  0  0  0  0
  -23.6298   -8.2230   22.0745 C   0  0  0  0  0  0
  -22.4277   -8.0269   21.3546 C   0  0  0  0  0  0
  -21.9916   -9.0237   20.4647 C   0  0  0  0  0  0
  -22.7242  -10.2121   20.3060 C   0  0  0  0  0  0
  -21.6848   -6.0725   22.5267 C   0  0  0  0  0  0
  -21.4017   -6.5630   23.8202 C   0  0  0  0  0  0
  -21.3670   -5.6782   24.9164 C   0  0  0  0  0  0
  -21.6043   -4.3043   24.7219 C   0  0  0  0  0  0
  -21.8823   -3.8141   23.4342 C   0  0  0  0  0  0
  -21.9200   -4.6955   22.3399 C   0  0  0  0  0  0
  -22.7790  -13.5195   21.1954 C   0  0  0  0  0  0
  -22.1657   -4.2140   21.0975 F   0  0  0  0  0  0
  -21.5635   -3.4535   25.7742 F   0  0  0  0  0  0
  -29.9106  -13.7793   20.2993 N   0  0  0  0  0  0
  -26.2825  -12.9417   20.3186 N   0  0  0  0  0  0
  -25.9312  -11.6560   20.5773 N   0  0  0  0  0  0
  -22.0422  -12.8174   22.0481 N   0  0  0  0  0  0
  -25.3952  -15.1851   20.3710 N   0  0  0  0  0  0
  -31.7411  -15.0600   20.3509 O   0  0  0  0  0  0
  -21.6648   -6.8861   21.4225 O   0  0  0  0  0  0
  -22.3524  -14.5508   20.6771 O   0  0  0  0  0  0
  -24.6525  -31.8377   23.1847 C   0  0  0  0  0  0
  -25.9265  -32.4668   23.8250 C   0  0  1  0  0  0
  -27.2139  -27.0695   20.1481 C   0  0  0  0  0  0
  -25.5985  -33.8475   24.2161 N   0  0  0  0  0  0
  -23.4579  -30.4592   21.5341 C   0  0  2  0  0  0
  -24.9036  -28.8785   20.1113 C   0  0  0  0  0  0
  -22.7594  -29.4529   22.4843 C   0  0  0  0  0  0
  -18.0312  -28.1408   22.8480 C   0  0  0  0  0  0
  -24.1489  -36.7227   23.2652 C   0  0  0  0  0  0
  -26.0210  -30.6921   21.3904 C   0  0  0  0  0  0
  -26.0889  -29.3007   20.7246 C   0  0  0  0  0  0
  -27.2453  -28.4189   20.7132 C   0  0  0  0  0  0
  -25.9812  -26.7528   19.5345 C   0  0  0  0  0  0
  -24.8670  -27.6193   19.4982 C   0  0  0  0  0  0
  -23.6869  -29.7926   20.1530 C   0  0  0  0  0  0
  -25.4125  -36.3002   24.0311 C   0  0  1  0  0  0
  -20.5926  -28.3733   23.1226 C   0  0  2  0  0  0
  -20.6803  -26.9432   22.5408 C   0  0  0  0  0  0
  -19.5773  -26.6377   21.5228 C   0  0  0  0  0  0
  -18.1950  -26.7942   22.1628 C   0  0  0  0  0  0
  -19.1565  -28.8888   23.2844 C   0  0  0  0  0  0
  -18.9481  -30.1491   23.8866 C   0  0  0  0  0  0
  -17.6476  -30.6605   24.0564 C   0  0  0  0  0  0
  -25.9079  -34.9393   23.5035 C   0  0  0  0  0  0
  -16.5371  -29.9094   23.6350 C   0  0  0  0  0  0
  -16.7292  -28.6517   23.0354 C   0  0  0  0  0  0
  -26.4557  -31.6566   25.0730 C   0  0  0  0  0  0
  -25.3718  -31.3779   26.1405 C   0  0  0  0  0  0
  -27.0449  -30.2954   24.6378 C   0  0  0  0  0  0
  -27.6058  -32.4368   25.7514 C   0  0  0  0  0  0
  -27.5561  -37.1769   24.8464 C   0  0  0  0  0  0
  -21.4277  -29.3049   22.3580 N   0  0  0  0  0  0
  -26.4270  -37.3734   23.9416 N   0  0  0  0  0  0
  -24.7319  -31.0176   22.0915 N   0  0  0  0  0  0
  -23.4205  -28.8073   23.3012 O   0  0  0  0  0  0
  -28.2705  -26.0597   20.2018 O   0  0  0  0  0  0
  -26.5659  -34.8903   22.4611 O   0  0  0  0  0  0
  -23.5627  -32.1283   23.7014 O   0  0  0  0  0  0
  -29.0085  -20.3625   20.0849 C   0  0  0  0  0  0
  -29.4602  -19.2269   20.8649 C   0  0  0  0  0  0
  -30.0612  -20.0046   21.9207 C   0  0  0  0  0  0
  -29.8584  -19.7479   24.4211 C   0  0  0  0  0  0
  -32.1431  -20.1400   23.3595 C   0  0  0  0  0  0
  -27.9881  -24.2910   18.4450 C   0  0  0  0  0  0
  -25.6799  -17.9252   22.3530 C   0  0  0  0  0  0
  -29.2418  -23.2979   20.4369 C   0  0  0  0  0  0
  -27.7727  -17.2726   21.2006 C   0  0  0  0  0  0
  -29.2883  -17.5279   21.0115 C   0  0  1  0  0  0
  -30.7476  -19.5194   23.1877 C   0  0  0  0  0  0
  -28.1027  -24.4885   19.9695 C   0  0  1  0  0  0
  -29.9003  -21.3345   21.8196 N   0  0  0  0  0  0
  -29.2276  -21.6891   20.6980 N   0  0  0  0  0  0
  -29.7657  -16.2491   20.1787 N   0  0  0  0  0  0
  -27.1264  -18.1697   22.1824 N   0  3  0  0  0  0
  -31.4631  -12.8647   19.1374 H   0  0  0  0  0  0
  -30.4842  -11.7302   20.0355 H   0  0  0  0  0  0
  -29.8443  -11.7137   17.5947 H   0  0  0  0  0  0
  -29.5731  -13.4398   17.6398 H   0  0  0  0  0  0
  -27.9687  -11.2649   19.0047 H   0  0  0  0  0  0
  -27.3809  -12.4023   17.8191 H   0  0  0  0  0  0
  -27.5568  -14.2383   19.3660 H   0  0  0  0  0  0
  -28.8039  -12.3579   21.4272 H   0  0  0  0  0  0
  -28.3659  -14.0255   21.7157 H   0  0  0  0  0  0
  -25.2761   -9.5676   22.4762 H   0  0  0  0  0  0
  -24.0013   -7.4617   22.7460 H   0  0  0  0  0  0
  -21.0850   -8.8741   19.8955 H   0  0  0  0  0  0
  -22.3680  -10.9651   19.6175 H   0  0  0  0  0  0
  -21.1998   -7.6138   23.9697 H   0  0  0  0  0  0
  -21.1490   -6.0518   25.9063 H   0  0  0  0  0  0
  -22.0604   -2.7603   23.2842 H   0  0  0  0  0  0
  -22.4033  -11.9831   22.4865 H   0  0  0  0  0  0
  -21.1029  -13.1174   22.2671 H   0  0  0  0  0  0
  -24.5164  -15.6871   20.3050 H   0  0  0  0  0  0
  -26.0093  -15.4342   19.6076 H   0  0  0  0  0  0
  -26.7328  -32.5233   23.0964 H   0  0  0  0  0  0
  -25.0133  -33.9597   25.0306 H   0  0  0  0  0  0
  -22.7665  -31.2895   21.3782 H   0  0  0  0  0  0
  -23.3762  -35.9543   23.3292 H   0  0  0  0  0  0
  -24.3572  -36.8882   22.2069 H   0  0  0  0  0  0
  -23.7228  -37.6409   23.6709 H   0  0  0  0  0  0
  -26.1903  -31.4487   20.6224 H   0  0  0  0  0  0
  -26.8867  -30.7356   22.0399 H   0  0  0  0  0  0
  -28.1508  -28.7489   21.2021 H   0  0  0  0  0  0
  -25.8180  -25.7775   19.1095 H   0  0  0  0  0  0
  -23.9568  -27.2805   19.0240 H   0  0  0  0  0  0
  -23.8376  -30.5737   19.4062 H   0  0  0  0  0  0
  -22.7965  -29.2486   19.8338 H   0  0  0  0  0  0
  -25.1317  -36.1807   25.0799 H   0  0  0  0  0  0
  -21.0030  -28.3334   24.1340 H   0  0  0  0  0  0
  -20.5723  -26.2348   23.3630 H   0  0  0  0  0  0
  -21.6664  -26.7450   22.1187 H   0  0  0  0  0  0
  -19.6944  -25.6277   21.1285 H   0  0  0  0  0  0
  -19.6720  -27.3173   20.6747 H   0  0  0  0  0  0
  -17.4225  -26.6698   21.4025 H   0  0  0  0  0  0
  -18.0333  -26.0091   22.9025 H   0  0  0  0  0  0
  -19.7954  -30.7324   24.2211 H   0  0  0  0  0  0
  -17.5028  -31.6284   24.5164 H   0  0  0  0  0  0
  -15.5373  -30.2988   23.7694 H   0  0  0  0  0  0
  -15.8685  -28.0844   22.7069 H   0  0  0  0  0  0
  -24.5884  -30.7153   25.7713 H   0  0  0  0  0  0
  -24.8933  -32.2973   26.4786 H   0  0  0  0  0  0
  -25.7971  -30.8962   27.0215 H   0  0  0  0  0  0
  -26.3111  -29.6641   24.1361 H   0  0  0  0  0  0
  -27.4009  -29.7295   25.4995 H   0  0  0  0  0  0
  -27.9025  -30.4178   23.9762 H   0  0  0  0  0  0
  -27.2631  -33.3686   26.2019 H   0  0  0  0  0  0
  -28.3895  -32.6910   25.0371 H   0  0  0  0  0  0
  -28.0703  -31.8560   26.5486 H   0  0  0  0  0  0
  -28.2562  -38.0084   24.7511 H   0  0  0  0  0  0
  -28.1065  -36.2603   24.6274 H   0  0  0  0  0  0
  -27.2279  -37.1400   25.8870 H   0  0  0  0  0  0
  -20.9492  -29.8740   21.6731 H   0  0  0  0  0  0
  -26.0111  -38.2781   24.1457 H   0  0  0  0  0  0
  -28.4940  -20.3368   19.1329 H   0  0  0  0  0  0
  -28.8995  -19.2442   24.3156 H   0  0  0  0  0  0
  -29.6538  -20.8079   24.5719 H   0  0  0  0  0  0
  -30.3261  -19.3681   25.3290 H   0  0  0  0  0  0
  -32.7753  -19.9104   22.5020 H   0  0  0  0  0  0
  -32.6412  -19.7519   24.2487 H   0  0  0  0  0  0
  -32.0927  -21.2251   23.4541 H   0  0  0  0  0  0
  -27.6958  -23.2673   18.2104 H   0  0  0  0  0  0
  -28.9530  -24.4673   17.9696 H   0  0  0  0  0  0
  -27.2841  -24.9514   17.9484 H   0  0  0  0  0  0
  -25.2413  -18.6637   23.0248 H   0  0  0  0  0  0
  -25.5047  -16.9345   22.7758 H   0  0  0  0  0  0
  -25.1547  -17.9822   21.3993 H   0  0  0  0  0  0
  -29.5811  -23.7029   21.3912 H   0  0  0  0  0  0
  -30.1047  -23.4594   19.7910 H   0  0  0  0  0  0
  -27.6027  -16.2440   21.5178 H   0  0  0  0  0  0
  -27.2687  -17.4009   20.2406 H   0  0  0  0  0  0
  -29.7095  -17.2563   21.9745 H   0  0  0  0  0  0
  -30.9350  -18.4501   23.1292 H   0  0  0  0  0  0
  -27.1541  -24.2205   20.4362 H   0  0  0  0  0  0
  -29.0298  -16.0136   19.5303 H   0  0  0  0  0  0
  -27.5673  -18.0575   23.0806 H   0  0  0  0  0  0
  -27.2587  -19.1216   21.8810 H   0  0  0  0  0  0
  1 25  1  0  0  0
  1 30  2  0  0  0
  1 85  1  0  0  0
  2  3  1  0  0  0
  2 25  1  0  0  0
  2 87  1  0  0  0
  2 88  1  0  0  0
  3  4  1  0  0  0
  3 89  1  0  0  0
  3 90  1  0  0  0
  4  5  1  0  0  0
  4 91  1  0  0  0
  4 92  1  0  0  0
  5  6  1  0  0  0
  5 26  1  0  0  0
  5 93  1  0  0  0
  6 25  1  0  0  0
  6 94  1  0  0  0
  6 95  1  0  0  0
  7  8  2  0  0  0
  7 26  1  0  0  0
  7 29  1  0  0  0
  8  9  1  0  0  0
  8 22  1  0  0  0
  9 10  1  0  0  0
  9 27  2  0  0  0
 10 11  2  0  0  0
 10 15  1  0  0  0
 11 12  1  0  0  0
 11 96  1  0  0  0
 12 13  2  0  0  0
 12 97  1  0  0  0
 13 14  1  0  0  0
 13 31  1  0  0  0
 14 15  2  0  0  0
 14 98  1  0  0  0
 15 99  1  0  0  0
 16 17  2  0  0  0
 16 21  1  0  0  0
 16 31  1  0  0  0
 17 18  1  0  0  0
 17100  1  0  0  0
 18 19  2  0  0  0
 18101  1  0  0  0
 19 20  1  0  0  0
 19 24  1  0  0  0
 20 21  2  0  0  0
 20102  1  0  0  0
 21 23  1  0  0  0
 22 28  1  0  0  0
 22 32  2  0  0  0
 26 27  1  0  0  0
 28103  1  0  0  0
 28104  1  0  0  0
 29105  1  0  0  0
 29106  1  0  0  0
 33 34  1  0  0  0
 33 66  1  0  0  0
 33 70  2  0  0  0
 34 36  1  0  0  0
 34 59  1  0  0  0
 34107  1  0  0  0
 35 44  2  0  0  0
 35 45  1  0  0  0
 35 68  1  0  0  0
 36 56  1  0  0  0
 36108  1  0  0  0
 37 39  1  0  0  0
 37 47  1  0  0  0
 37 66  1  0  0  0
 37109  1  0  0  0
 38 43  2  0  0  0
 38 46  1  0  0  0
 38 47  1  0  0  0
 39 64  1  0  0  0
 39 67  2  0  0  0
 40 52  1  0  0  0
 40 53  2  0  0  0
 40 58  1  0  0  0
 41110  1  0  0  0
 41111  1  0  0  0
 41112  1  0  0  0
 41 48  1  0  0  0
 42 43  1  0  0  0
 42 66  1  0  0  0
 42113  1  0  0  0
 42114  1  0  0  0
 43 44  1  0  0  0
 44115  1  0  0  0
 45 46  2  0  0  0
 45116  1  0  0  0
 46117  1  0  0  0
 47118  1  0  0  0
 47119  1  0  0  0
 48 56  1  0  0  0
 48 65  1  0  0  0
 48120  1  0  0  0
 49 50  1  0  0  0
 49 53  1  0  0  0
 49 64  1  0  0  0
 49121  1  0  0  0
 50 51  1  0  0  0
 50122  1  0  0  0
 50123  1  0  0  0
 51 52  1  0  0  0
 51124  1  0  0  0
 51125  1  0  0  0
 52126  1  0  0  0
 52127  1  0  0  0
 53 54  1  0  0  0
 54 55  2  0  0  0
 54128  1  0  0  0
 55 57  1  0  0  0
 55129  1  0  0  0
 56 69  2  0  0  0
 57 58  2  0  0  0
 57130  1  0  0  0
 58131  1  0  0  0
 59 60  1  0  0  0
 59 61  1  0  0  0
 59 62  1  0  0  0
 60132  1  0  0  0
 60133  1  0  0  0
 60134  1  0  0  0
 61135  1  0  0  0
 61136  1  0  0  0
 61137  1  0  0  0
 62138  1  0  0  0
 62139  1  0  0  0
 62140  1  0  0  0
 63 65  1  0  0  0
 63141  1  0  0  0
 63142  1  0  0  0
 63143  1  0  0  0
 64144  1  0  0  0
 65145  1  0  0  0
 68 82  1  0  0  0
 71 72  2  0  0  0
 71 84  1  0  0  0
 71146  1  0  0  0
 72 73  1  0  0  0
 72 80  1  0  0  0
 73 81  1  0  0  0
 73 83  2  0  0  0
 74147  1  0  0  0
 74148  1  0  0  0
 74149  1  0  0  0
 74 81  1  0  0  0
 75 81  1  0  0  0
 75150  1  0  0  0
 75151  1  0  0  0
 75152  1  0  0  0
 76153  1  0  0  0
 76154  1  0  0  0
 76155  1  0  0  0
 76 82  1  0  0  0
 77 86  1  0  0  0
 77156  1  0  0  0
 77157  1  0  0  0
 77158  1  0  0  0
 78 82  1  0  0  0
 78 84  1  0  0  0
 78159  1  0  0  0
 78160  1  0  0  0
 79 86  1  0  0  0
 79161  1  0  0  0
 79162  1  0  0  0
 79 80  1  0  0  0
 80 85  1  0  0  0
 80163  1  0  0  0
 81164  1  0  0  0
 82165  1  0  0  0
 83 84  1  0  0  0
 85166  1  0  0  0
 86167  1  0  0  0
 86168  1  0  0  0
M  CHG  1  86   1
M  ISO  4   1 100  68 101  82 101  85 100
M  END
> <chiral flag>
0

> <version>
0

> <s_m_source_file>
/data/baiqing/PycharmProjects/Reinvent-master-3.2/result/LINK_invent/BTK/process_docking_weight1_custom_sum_contain_oxygen_bond_distance_aromatic_linkinvent_7_9_3/rearranged_h_0109.sdf

> <i_m_source_file_index>
2

> <r_mmod_Potential_Energy-OPLS-2005>
594.25048828125

> <r_mmod_Stretch_Energy-OPLS-2005>
351.224151611328

> <r_mmod_Bend_Energy-OPLS-2005>
410.860748291016

> <r_mmod_Torsional_Energy-OPLS-2005>
293.948059082031

> <r_mmod_Improper_Torsional_Energy-OPLS-2005>
24.7878246307373

> <r_mmod_Van_der_Waal_Energy-OPLS-2005>
107.218673706055

> <r_mmod_Electrostatic_Energy-OPLS-2005>
-367.545684814453

> <r_mmod_Solvation_Energy-OPLS-2005>
-490.968078613281

> <b_mmod_Minimization_Converged-OPLS-2005>
0

> <r_mmod_RMS_Derivative-OPLS-2005>
2.35256457328796

$$$$
2
                    3D
 Structure written by MMmdl.
173181  0  0  1  0            999 V2000
  -30.6914  -14.6826   20.5281 C   0  0  0  0  0  0
  -30.4098  -12.4378   19.4775 C   0  0  0  0  0  0
  -29.4996  -12.5215   18.2363 C   0  0  0  0  0  0
  -28.0258  -12.3495   18.6472 C   0  0  0  0  0  0
  -27.6401  -13.2417   19.8579 C   0  0  2  0  0  0
  -28.6835  -13.1594   20.9939 C   0  0  0  0  0  0
  -25.2454  -13.8238   20.5699 C   0  0  0  0  0  0
  -24.1765  -13.0472   20.9241 C   0  0  0  0  0  0
  -24.6379  -11.6956   20.8771 C   0  0  0  0  0  0
  -23.9074  -10.4313   21.0402 C   0  0  0  0  0  0
  -24.3629   -9.4240   21.9184 C   0  0  0  0  0  0
  -23.6301   -8.2277   22.0762 C   0  0  0  0  0  0
  -22.4289   -8.0295   21.3551 C   0  0  0  0  0  0
  -21.9920   -9.0274   20.4668 C   0  0  0  0  0  0
  -22.7241  -10.2150   20.3056 C   0  0  0  0  0  0
  -21.6873   -6.0733   22.5281 C   0  0  0  0  0  0
  -21.4028   -6.5641   23.8209 C   0  0  0  0  0  0
  -21.3666   -5.6798   24.9179 C   0  0  0  0  0  0
  -21.6038   -4.3055   24.7234 C   0  0  0  0  0  0
  -21.8828   -3.8141   23.4360 C   0  0  0  0  0  0
  -21.9208   -4.6960   22.3413 C   0  0  0  0  0  0
  -22.7773  -13.5220   21.1874 C   0  0  0  0  0  0
  -22.1655   -4.2134   21.0990 F   0  0  0  0  0  0
  -21.5621   -3.4545   25.7746 F   0  0  0  0  0  0
  -29.9920  -13.5001   20.4272 N   0  0  0  0  0  0
  -26.2916  -12.9474   20.3334 N   0  0  0  0  0  0
  -25.9316  -11.6613   20.5803 N   0  0  0  0  0  0
  -22.0413  -12.8203   22.0422 N   0  0  0  0  0  0
  -25.4125  -15.1951   20.4016 N   0  0  0  0  0  0
  -31.8297  -14.7495   20.0644 O   0  0  0  0  0  0
  -21.6668   -6.8874   21.4237 O   0  0  0  0  0  0
  -22.3452  -14.5519   20.6719 O   0  0  0  0  0  0
  -24.6311  -31.8564   23.1994 C   0  0  0  0  0  0
  -25.9142  -32.4757   23.8340 C   0  0  1  0  0  0
  -27.2094  -27.2645   20.1246 C   0  0  0  0  0  0
  -25.5938  -33.8563   24.2253 N   0  0  0  0  0  0
  -23.4262  -30.4820   21.5435 C   0  0  2  0  0  0
  -24.8699  -28.9357   20.1071 C   0  0  0  0  0  0
  -22.7496  -29.4615   22.4909 C   0  0  0  0  0  0
  -18.0294  -28.1395   22.8484 C   0  0  0  0  0  0
  -24.1485  -36.7287   23.2637 C   0  0  0  0  0  0
  -25.9737  -30.7694   21.3805 C   0  0  0  0  0  0
  -26.0431  -29.3949   20.7187 C   0  0  0  0  0  0
  -27.2164  -28.5726   20.7177 C   0  0  0  0  0  0
  -26.0133  -26.8821   19.4734 C   0  0  0  0  0  0
  -24.8599  -27.6872   19.4725 C   0  0  0  0  0  0
  -23.6419  -29.8223   20.1577 C   0  0  0  0  0  0
  -25.4115  -36.3075   24.0321 C   0  0  1  0  0  0
  -20.5897  -28.3709   23.1260 C   0  0  2  0  0  0
  -20.6787  -26.9425   22.5393 C   0  0  0  0  0  0
  -19.5756  -26.6374   21.5209 C   0  0  0  0  0  0
  -18.1939  -26.7925   22.1623 C   0  0  0  0  0  0
  -19.1549  -28.8870   23.2865 C   0  0  0  0  0  0
  -18.9466  -30.1464   23.8902 C   0  0  0  0  0  0
  -17.6470  -30.6586   24.0589 C   0  0  0  0  0  0
  -25.9063  -34.9440   23.5090 C   0  0  0  0  0  0
  -16.5358  -29.9095   23.6344 C   0  0  0  0  0  0
  -16.7282  -28.6516   23.0350 C   0  0  0  0  0  0
  -26.4511  -31.6583   25.0735 C   0  0  0  0  0  0
  -25.3714  -31.3748   26.1447 C   0  0  0  0  0  0
  -27.0345  -30.2987   24.6234 C   0  0  0  0  0  0
  -27.6049  -32.4329   25.7508 C   0  0  0  0  0  0
  -27.5579  -37.1799   24.8463 C   0  0  0  0  0  0
  -21.4203  -29.3059   22.3654 N   0  0  0  0  0  0
  -26.4288  -37.3775   23.9410 N   0  0  0  0  0  0
  -24.6959  -31.0542   22.0967 N   0  0  0  0  0  0
  -23.4203  -28.8138   23.2992 O   0  0  0  0  0  0
  -28.2888  -26.3497   20.2001 O   0  0  0  0  0  0
  -26.5634  -34.8912   22.4659 O   0  0  0  0  0  0
  -23.5463  -32.1382   23.7290 O   0  0  0  0  0  0
  -30.9782  -18.6589   20.8877 C   0  0  0  0  0  0
  -31.4130  -19.9914   20.7521 C   0  0  0  0  0  0
  -29.6069  -18.3420   20.8217 C   0  0  0  0  0  0
  -28.7296  -19.4865   20.5787 C   0  0  0  0  0  0
  -29.2596  -20.8450   20.4981 C   0  0  0  0  0  0
  -28.4381  -16.7780   22.4544 C   0  0  0  0  0  0
  -25.3184  -19.8247   16.3377 C   0  0  0  0  0  0
  -24.8000  -17.5367   17.3387 C   0  0  0  0  0  0
  -27.2155  -19.2868   20.4216 C   0  0  0  0  0  0
  -28.4030  -22.1628   20.2138 C   0  0  0  0  0  0
  -28.9665  -23.6676   20.4275 C   0  0  0  0  0  0
  -25.2949  -19.5155   18.8944 C   0  0  0  0  0  0
  -27.9795  -24.8863   20.0393 C   0  0  0  0  0  0
  -29.1662  -16.8265   21.0924 C   0  0  2  0  0  0
  -24.7245  -19.0614   17.5334 C   0  0  0  0  0  0
  -30.5900  -21.0491   20.5673 N   0  0  0  0  0  0
  -30.2502  -15.7776   21.2331 N   0  0  0  0  0  0
  -26.7547  -19.3077   19.0163 N   0  3  0  0  0  0
  -31.4557  -12.5214   19.1780 H   0  0  0  0  0  0
  -30.3202  -11.4561   19.9448 H   0  0  0  0  0  0
  -29.7773  -11.7574   17.5097 H   0  0  0  0  0  0
  -29.6402  -13.4829   17.7398 H   0  0  0  0  0  0
  -27.8728  -11.2994   18.8985 H   0  0  0  0  0  0
  -27.3684  -12.5542   17.8006 H   0  0  0  0  0  0
  -27.6396  -14.2685   19.4924 H   0  0  0  0  0  0
  -28.7054  -12.1561   21.4204 H   0  0  0  0  0  0
  -28.4242  -13.8267   21.8129 H   0  0  0  0  0  0
  -25.2780   -9.5713   22.4758 H   0  0  0  0  0  0
  -24.0035   -7.4681   22.7482 H   0  0  0  0  0  0
  -21.0853   -8.8803   19.8959 H   0  0  0  0  0  0
  -22.3705  -10.9679   19.6158 H   0  0  0  0  0  0
  -21.2011   -7.6152   23.9694 H   0  0  0  0  0  0
  -21.1475   -6.0537   25.9070 H   0  0  0  0  0  0
  -22.0598   -2.7600   23.2887 H   0  0  0  0  0  0
  -22.4025  -11.9874   22.4827 H   0  0  0  0  0  0
  -21.1006  -13.1188   22.2578 H   0  0  0  0  0  0
  -24.6236  -15.8280   20.4638 H   0  0  0  0  0  0
  -26.2341  -15.6031   19.9829 H   0  0  0  0  0  0
  -26.7212  -32.5401   23.1085 H   0  0  0  0  0  0
  -25.0083  -33.9700   25.0395 H   0  0  0  0  0  0
  -22.7233  -31.3048   21.4014 H   0  0  0  0  0  0
  -23.3745  -35.9621   23.3293 H   0  0  0  0  0  0
  -24.3575  -36.8913   22.2051 H   0  0  0  0  0  0
  -23.7227  -37.6484   23.6666 H   0  0  0  0  0  0
  -26.1160  -31.5309   20.6130 H   0  0  0  0  0  0
  -26.8503  -30.8140   22.0144 H   0  0  0  0  0  0
  -28.1110  -28.9172   21.2155 H   0  0  0  0  0  0
  -25.9254  -25.9340   18.9660 H   0  0  0  0  0  0
  -23.9637  -27.3317   18.9821 H   0  0  0  0  0  0
  -23.7649  -30.6010   19.4042 H   0  0  0  0  0  0
  -22.7598  -29.2560   19.8536 H   0  0  0  0  0  0
  -25.1291  -36.1931   25.0813 H   0  0  0  0  0  0
  -21.0001  -28.3293   24.1380 H   0  0  0  0  0  0
  -20.5703  -26.2323   23.3600 H   0  0  0  0  0  0
  -21.6658  -26.7452   22.1194 H   0  0  0  0  0  0
  -19.6909  -25.6284   21.1254 H   0  0  0  0  0  0
  -19.6673  -27.3164   20.6720 H   0  0  0  0  0  0
  -17.4194  -26.6672   21.4030 H   0  0  0  0  0  0
  -18.0337  -26.0078   22.9035 H   0  0  0  0  0  0
  -19.7946  -30.7278   24.2269 H   0  0  0  0  0  0
  -17.5023  -31.6255   24.5217 H   0  0  0  0  0  0
  -15.5361  -30.2999   23.7662 H   0  0  0  0  0  0
  -15.8676  -28.0839   22.7064 H   0  0  0  0  0  0
  -24.5910  -30.7078   25.7785 H   0  0  0  0  0  0
  -24.8900  -32.2926   26.4827 H   0  0  0  0  0  0
  -25.8034  -30.8967   27.0249 H   0  0  0  0  0  0
  -26.2940  -29.6741   24.1235 H   0  0  0  0  0  0
  -27.3979  -29.7256   25.4776 H   0  0  0  0  0  0
  -27.8843  -30.4239   23.9515 H   0  0  0  0  0  0
  -27.2655  -33.3638   26.2059 H   0  0  0  0  0  0
  -28.3887  -32.6868   25.0357 H   0  0  0  0  0  0
  -28.0697  -31.8472   26.5452 H   0  0  0  0  0  0
  -28.2593  -38.0098   24.7521 H   0  0  0  0  0  0
  -28.1077  -36.2632   24.6282 H   0  0  0  0  0  0
  -27.2301  -37.1438   25.8865 H   0  0  0  0  0  0
  -20.9372  -29.8828   21.6914 H   0  0  0  0  0  0
  -26.0164  -38.2846   24.1417 H   0  0  0  0  0  0
  -31.7236  -17.8963   21.0581 H   0  0  0  0  0  0
  -32.4672  -20.2197   20.8096 H   0  0  0  0  0  0
  -27.6304  -17.4968   22.5629 H   0  0  0  0  0  0
  -29.1371  -16.9948   23.2633 H   0  0  0  0  0  0
  -28.0079  -15.7987   22.6541 H   0  0  0  0  0  0
  -24.7836  -19.5754   15.4193 H   0  0  0  0  0  0
  -26.3697  -19.5850   16.1756 H   0  0  0  0  0  0
  -25.2362  -20.9042   16.4753 H   0  0  0  0  0  0
  -24.2525  -17.2304   16.4460 H   0  0  0  0  0  0
  -24.3554  -17.0061   18.1815 H   0  0  0  0  0  0
  -25.8263  -17.1843   17.2281 H   0  0  0  0  0  0
  -26.6943  -20.0452   21.0067 H   0  0  0  0  0  0
  -26.8835  -18.3376   20.8285 H   0  0  0  0  0  0
  -27.5005  -22.0940   20.8201 H   0  0  0  0  0  0
  -28.0636  -22.0889   19.1807 H   0  0  0  0  0  0
  -29.8807  -23.7727   19.8420 H   0  0  0  0  0  0
  -29.2697  -23.7789   21.4688 H   0  0  0  0  0  0
  -24.7782  -18.9705   19.6876 H   0  0  0  0  0  0
  -25.0785  -20.5714   19.0668 H   0  0  0  0  0  0
  -27.0585  -24.6934   20.5901 H   0  0  0  0  0  0
  -27.7332  -24.7362   18.9889 H   0  0  0  0  0  0
  -28.4886  -16.5151   20.2977 H   0  0  0  0  0  0
  -23.6625  -19.3116   17.5629 H   0  0  0  0  0  0
  -31.0758  -16.2596   21.5525 H   0  0  0  0  0  0
  -26.9968  -18.4316   18.5835 H   0  0  0  0  0  0
  -27.2226  -20.0370   18.5053 H   0  0  0  0  0  0
  1 25  1  0  0  0
  1 30  2  0  0  0
  1 87  1  0  0  0
  2  3  1  0  0  0
  2 25  1  0  0  0
  2 89  1  0  0  0
  2 90  1  0  0  0
  3  4  1  0  0  0
  3 91  1  0  0  0
  3 92  1  0  0  0
  4  5  1  0  0  0
  4 93  1  0  0  0
  4 94  1  0  0  0
  5  6  1  0  0  0
  5 26  1  0  0  0
  5 95  1  0  0  0
  6 25  1  0  0  0
  6 96  1  0  0  0
  6 97  1  0  0  0
  7  8  2  0  0  0
  7 26  1  0  0  0
  7 29  1  0  0  0
  8  9  1  0  0  0
  8 22  1  0  0  0
  9 10  1  0  0  0
  9 27  2  0  0  0
 10 11  2  0  0  0
 10 15  1  0  0  0
 11 12  1  0  0  0
 11 98  1  0  0  0
 12 13  2  0  0  0
 12 99  1  0  0  0
 13 14  1  0  0  0
 13 31  1  0  0  0
 14 15  2  0  0  0
 14100  1  0  0  0
 15101  1  0  0  0
 16 17  2  0  0  0
 16 21  1  0  0  0
 16 31  1  0  0  0
 17 18  1  0  0  0
 17102  1  0  0  0
 18 19  2  0  0  0
 18103  1  0  0  0
 19 20  1  0  0  0
 19 24  1  0  0  0
 20 21  2  0  0  0
 20104  1  0  0  0
 21 23  1  0  0  0
 22 28  1  0  0  0
 22 32  2  0  0  0
 26 27  1  0  0  0
 28105  1  0  0  0
 28106  1  0  0  0
 29107  1  0  0  0
 29108  1  0  0  0
 33 34  1  0  0  0
 33 66  1  0  0  0
 33 70  2  0  0  0
 34 36  1  0  0  0
 34 59  1  0  0  0
 34109  1  0  0  0
 35 44  2  0  0  0
 35 45  1  0  0  0
 35 68  1  0  0  0
 36 56  1  0  0  0
 36110  1  0  0  0
 37 39  1  0  0  0
 37 47  1  0  0  0
 37 66  1  0  0  0
 37111  1  0  0  0
 38 43  2  0  0  0
 38 46  1  0  0  0
 38 47  1  0  0  0
 39 64  1  0  0  0
 39 67  2  0  0  0
 40 52  1  0  0  0
 40 53  2  0  0  0
 40 58  1  0  0  0
 41112  1  0  0  0
 41113  1  0  0  0
 41114  1  0  0  0
 41 48  1  0  0  0
 42 43  1  0  0  0
 42 66  1  0  0  0
 42115  1  0  0  0
 42116  1  0  0  0
 43 44  1  0  0  0
 44117  1  0  0  0
 45 46  2  0  0  0
 45118  1  0  0  0
 46119  1  0  0  0
 47120  1  0  0  0
 47121  1  0  0  0
 48 56  1  0  0  0
 48 65  1  0  0  0
 48122  1  0  0  0
 49 50  1  0  0  0
 49 53  1  0  0  0
 49 64  1  0  0  0
 49123  1  0  0  0
 50 51  1  0  0  0
 50124  1  0  0  0
 50125  1  0  0  0
 51 52  1  0  0  0
 51126  1  0  0  0
 51127  1  0  0  0
 52128  1  0  0  0
 52129  1  0  0  0
 53 54  1  0  0  0
 54 55  2  0  0  0
 54130  1  0  0  0
 55 57  1  0  0  0
 55131  1  0  0  0
 56 69  2  0  0  0
 57 58  2  0  0  0
 57132  1  0  0  0
 58133  1  0  0  0
 59 60  1  0  0  0
 59 61  1  0  0  0
 59 62  1  0  0  0
 60134  1  0  0  0
 60135  1  0  0  0
 60136  1  0  0  0
 61137  1  0  0  0
 61138  1  0  0  0
 61139  1  0  0  0
 62140  1  0  0  0
 62141  1  0  0  0
 62142  1  0  0  0
 63 65  1  0  0  0
 63143  1  0  0  0
 63144  1  0  0  0
 63145  1  0  0  0
 64146  1  0  0  0
 65147  1  0  0  0
 68 83  1  0  0  0
 71 72  2  0  0  0
 71 73  1  0  0  0
 71148  1  0  0  0
 72 86  1  0  0  0
 72149  1  0  0  0
 73 74  2  0  0  0
 73 84  1  0  0  0
 74 75  1  0  0  0
 74 79  1  0  0  0
 75 80  1  0  0  0
 75 86  2  0  0  0
 76150  1  0  0  0
 76151  1  0  0  0
 76152  1  0  0  0
 76 84  1  0  0  0
 77153  1  0  0  0
 77154  1  0  0  0
 77155  1  0  0  0
 77 85  1  0  0  0
 78 85  1  0  0  0
 78156  1  0  0  0
 78157  1  0  0  0
 78158  1  0  0  0
 79 88  1  0  0  0
 79159  1  0  0  0
 79160  1  0  0  0
 80 81  1  0  0  0
 80161  1  0  0  0
 80162  1  0  0  0
 81 83  1  0  0  0
 81163  1  0  0  0
 81164  1  0  0  0
 82 85  1  0  0  0
 82 88  1  0  0  0
 82165  1  0  0  0
 82166  1  0  0  0
 83167  1  0  0  0
 83168  1  0  0  0
 84 87  1  0  0  0
 84169  1  0  0  0
 85170  1  0  0  0
 87171  1  0  0  0
 88172  1  0  0  0
 88173  1  0  0  0
M  CHG  1  88   1
M  ISO  4   1 100  68 101  83 101  87 100
M  END
> <chiral flag>
0

> <version>
0

> <s_m_source_file>
/data/baiqing/PycharmProjects/Reinvent-master-3.2/result/LINK_invent/BTK/process_docking_weight1_custom_sum_contain_oxygen_bond_distance_aromatic_linkinvent_7_9_3/rearranged_h_0109.sdf

> <i_m_source_file_index>
3

> <r_mmod_Potential_Energy-OPLS-2005>
-189.127975463867

> <r_mmod_Stretch_Energy-OPLS-2005>
121.204528808594

> <r_mmod_Bend_Energy-OPLS-2005>
206.651870727539

> <r_mmod_Torsional_Energy-OPLS-2005>
262.674407958984

> <r_mmod_Improper_Torsional_Energy-OPLS-2005>
7.29968166351318

> <r_mmod_Van_der_Waal_Energy-OPLS-2005>
133.36393737793

> <r_mmod_Electrostatic_Energy-OPLS-2005>
-505.743530273438

> <r_mmod_Solvation_Energy-OPLS-2005>
-488.146820068359

> <b_mmod_Minimization_Converged-OPLS-2005>
0

> <r_mmod_RMS_Derivative-OPLS-2005>
2.32513451576233

$$$$
3
                    3D
 Structure written by MMmdl.
175183  0  0  1  0            999 V2000
  -30.6537  -14.9201   20.4692 C   0  0  0  0  0  0
  -30.4073  -12.6021   19.4749 C   0  0  0  0  0  0
  -29.4941  -12.5254   18.2359 C   0  0  0  0  0  0
  -28.0332  -12.3178   18.6683 C   0  0  0  0  0  0
  -27.6162  -13.2624   19.8269 C   0  0  2  0  0  0
  -28.6669  -13.3431   20.9543 C   0  0  0  0  0  0
  -25.2418  -13.8251   20.5757 C   0  0  0  0  0  0
  -24.1757  -13.0450   20.9252 C   0  0  0  0  0  0
  -24.6399  -11.6945   20.8783 C   0  0  0  0  0  0
  -23.9094  -10.4299   21.0420 C   0  0  0  0  0  0
  -24.3640   -9.4204   21.9194 C   0  0  0  0  0  0
  -23.6306   -8.2244   22.0756 C   0  0  0  0  0  0
  -22.4292   -8.0283   21.3544 C   0  0  0  0  0  0
  -21.9937   -9.0264   20.4649 C   0  0  0  0  0  0
  -22.7271  -10.2142   20.3059 C   0  0  0  0  0  0
  -21.6859   -6.0746   22.5280 C   0  0  0  0  0  0
  -21.4016   -6.5648   23.8213 C   0  0  0  0  0  0
  -21.3649   -5.6801   24.9175 C   0  0  0  0  0  0
  -21.6044   -4.3069   24.7227 C   0  0  0  0  0  0
  -21.8815   -3.8156   23.4350 C   0  0  0  0  0  0
  -21.9192   -4.6973   22.3409 C   0  0  0  0  0  0
  -22.7770  -13.5195   21.1899 C   0  0  0  0  0  0
  -22.1662   -4.2160   21.0987 F   0  0  0  0  0  0
  -21.5621   -3.4551   25.7736 F   0  0  0  0  0  0
  -29.9256  -13.7418   20.3157 N   0  0  0  0  0  0
  -26.2843  -12.9513   20.3269 N   0  0  0  0  0  0
  -25.9332  -11.6623   20.5776 N   0  0  0  0  0  0
  -22.0438  -12.8161   22.0444 N   0  0  0  0  0  0
  -25.4098  -15.1978   20.4188 N   0  0  0  0  0  0
  -31.8721  -14.7876   20.3113 O   0  0  0  0  0  0
  -21.6643   -6.8889   21.4243 O   0  0  0  0  0  0
  -22.3447  -14.5510   20.6760 O   0  0  0  0  0  0
  -24.6420  -31.8456   23.1877 C   0  0  0  0  0  0
  -25.9191  -32.4700   23.8269 C   0  0  1  0  0  0
  -27.2091  -27.1418   20.1774 C   0  0  0  0  0  0
  -25.5933  -33.8505   24.2183 N   0  0  0  0  0  0
  -23.4446  -30.4619   21.5347 C   0  0  2  0  0  0
  -24.8931  -28.8814   20.1191 C   0  0  0  0  0  0
  -22.7563  -29.4536   22.4883 C   0  0  0  0  0  0
  -18.0298  -28.1410   22.8471 C   0  0  0  0  0  0
  -24.1489  -36.7261   23.2640 C   0  0  0  0  0  0
  -25.9979  -30.7224   21.3821 C   0  0  0  0  0  0
  -26.0684  -29.3309   20.7339 C   0  0  0  0  0  0
  -27.2319  -28.4759   20.7428 C   0  0  0  0  0  0
  -26.0105  -26.7787   19.5343 C   0  0  0  0  0  0
  -24.8740  -27.6178   19.5051 C   0  0  0  0  0  0
  -23.6722  -29.7878   20.1553 C   0  0  0  0  0  0
  -25.4120  -36.3037   24.0310 C   0  0  1  0  0  0
  -20.5917  -28.3722   23.1262 C   0  0  2  0  0  0
  -20.6796  -26.9429   22.5420 C   0  0  0  0  0  0
  -19.5767  -26.6402   21.5229 C   0  0  0  0  0  0
  -18.1941  -26.7943   22.1628 C   0  0  0  0  0  0
  -19.1560  -28.8887   23.2850 C   0  0  0  0  0  0
  -18.9477  -30.1475   23.8873 C   0  0  0  0  0  0
  -17.6472  -30.6602   24.0563 C   0  0  0  0  0  0
  -25.9074  -34.9406   23.5065 C   0  0  0  0  0  0
  -16.5367  -29.9089   23.6349 C   0  0  0  0  0  0
  -16.7284  -28.6519   23.0354 C   0  0  0  0  0  0
  -26.4505  -31.6568   25.0706 C   0  0  0  0  0  0
  -25.3675  -31.3765   26.1403 C   0  0  0  0  0  0
  -27.0377  -30.2977   24.6260 C   0  0  0  0  0  0
  -27.6065  -32.4327   25.7475 C   0  0  0  0  0  0
  -27.5570  -37.1774   24.8453 C   0  0  0  0  0  0
  -21.4264  -29.3037   22.3631 N   0  0  0  0  0  0
  -26.4278  -37.3746   23.9411 N   0  0  0  0  0  0
  -24.7148  -31.0323   22.0902 N   0  0  0  0  0  0
  -23.4215  -28.8078   23.3024 O   0  0  0  0  0  0
  -28.2853  -26.1946   20.1543 O   0  0  0  0  0  0
  -26.5675  -34.8896   22.4645 O   0  0  0  0  0  0
  -23.5542  -32.1339   23.7107 O   0  0  0  0  0  0
  -28.7747  -17.6798   15.9021 C   0  0  0  0  0  0
  -29.1939  -17.2887   20.8955 C   0  0  0  0  0  0
  -31.0489  -17.1890   19.5338 C   0  0  0  0  0  0
  -29.5787  -18.8695   20.5296 C   0  0  1  0  0  0
  -30.3483  -18.5520   19.2363 C   0  0  2  0  0  0
  -27.3326  -20.0574   19.6778 C   0  0  0  0  0  0
  -28.5949  -16.6850   12.4093 C   0  0  0  0  0  0
  -27.0932  -18.5974   13.1437 C   0  0  0  0  0  0
  -29.9371  -18.1492   16.7668 C   0  0  0  0  0  0
  -28.1480  -23.2339   20.1136 C   0  0  0  0  0  0
  -29.0668  -21.8693   20.5244 C   0  0  0  0  0  0
  -28.2228  -24.7791   20.7867 C   0  0  0  0  0  0
  -28.5722  -20.2481   20.5684 C   0  0  2  0  0  0
  -27.9083  -17.3757   13.5920 C   0  0  0  0  0  0
  -30.1379  -16.2483   20.2337 N   0  0  0  0  0  0
  -28.9125  -17.7712   14.5751 N   0  0  0  0  0  0
  -29.4017  -18.4343   18.1087 N   0  3  0  0  0  0
  -27.7604  -17.2331   16.4456 O   0  0  0  0  0  0
  -31.4409  -12.7205   19.1469 H   0  0  0  0  0  0
  -30.3801  -11.6673   20.0349 H   0  0  0  0  0  0
  -29.8085  -11.7152   17.5767 H   0  0  0  0  0  0
  -29.5786  -13.4449   17.6542 H   0  0  0  0  0  0
  -27.9300  -11.2790   18.9830 H   0  0  0  0  0  0
  -27.3640  -12.4450   17.8167 H   0  0  0  0  0  0
  -27.5618  -14.2556   19.3786 H   0  0  0  0  0  0
  -28.7689  -12.3905   21.4754 H   0  0  0  0  0  0
  -28.3732  -14.0850   21.6992 H   0  0  0  0  0  0
  -25.2788   -9.5673   22.4774 H   0  0  0  0  0  0
  -24.0016   -7.4628   22.7477 H   0  0  0  0  0  0
  -21.0869   -8.8789   19.8950 H   0  0  0  0  0  0
  -22.3740  -10.9684   19.6167 H   0  0  0  0  0  0
  -21.2015   -7.6155   23.9719 H   0  0  0  0  0  0
  -21.1470   -6.0535   25.9078 H   0  0  0  0  0  0
  -22.0603   -2.7620   23.2851 H   0  0  0  0  0  0
  -22.4084  -11.9813   22.4787 H   0  0  0  0  0  0
  -21.1044  -13.1145   22.2662 H   0  0  0  0  0  0
  -24.6450  -15.8534   20.5315 H   0  0  0  0  0  0
  -26.2626  -15.6340   20.0954 H   0  0  0  0  0  0
  -26.7246  -32.5330   23.0998 H   0  0  0  0  0  0
  -25.0049  -33.9620   25.0311 H   0  0  0  0  0  0
  -22.7464  -31.2855   21.3776 H   0  0  0  0  0  0
  -23.3751  -35.9585   23.3295 H   0  0  0  0  0  0
  -24.3589  -36.8933   22.2055 H   0  0  0  0  0  0
  -23.7244  -37.6442   23.6713 H   0  0  0  0  0  0
  -26.1443  -31.4704   20.6016 H   0  0  0  0  0  0
  -26.8704  -30.7849   22.0198 H   0  0  0  0  0  0
  -28.1340  -28.8145   21.2321 H   0  0  0  0  0  0
  -25.9434  -25.8073   19.0638 H   0  0  0  0  0  0
  -23.9732  -27.2712   19.0167 H   0  0  0  0  0  0
  -23.8121  -30.5609   19.3990 H   0  0  0  0  0  0
  -22.7864  -29.2310   19.8440 H   0  0  0  0  0  0
  -25.1301  -36.1867   25.0797 H   0  0  0  0  0  0
  -20.9993  -28.3318   24.1388 H   0  0  0  0  0  0
  -20.5757  -26.2303   23.3621 H   0  0  0  0  0  0
  -21.6653  -26.7483   22.1171 H   0  0  0  0  0  0
  -19.6942  -25.6314   21.1257 H   0  0  0  0  0  0
  -19.6733  -27.3216   20.6765 H   0  0  0  0  0  0
  -17.4220  -26.6718   21.4011 H   0  0  0  0  0  0
  -18.0307  -26.0091   22.9025 H   0  0  0  0  0  0
  -19.7952  -30.7303   24.2241 H   0  0  0  0  0  0
  -17.5021  -31.6279   24.5179 H   0  0  0  0  0  0
  -15.5355  -30.2976   23.7701 H   0  0  0  0  0  0
  -15.8689  -28.0840   22.7067 H   0  0  0  0  0  0
  -24.5894  -30.7078   25.7716 H   0  0  0  0  0  0
  -24.8798  -32.2926   26.4744 H   0  0  0  0  0  0
  -25.7920  -30.9008   27.0253 H   0  0  0  0  0  0
  -26.2993  -29.6693   24.1273 H   0  0  0  0  0  0
  -27.4008  -29.7291   25.4831 H   0  0  0  0  0  0
  -27.8876  -30.4242   23.9554 H   0  0  0  0  0  0
  -27.2725  -33.3703   26.1936 H   0  0  0  0  0  0
  -28.3899  -32.6780   25.0289 H   0  0  0  0  0  0
  -28.0677  -31.8514   26.5473 H   0  0  0  0  0  0
  -28.2555  -38.0100   24.7521 H   0  0  0  0  0  0
  -28.1094  -36.2625   24.6250 H   0  0  0  0  0  0
  -27.2284  -37.1376   25.8853 H   0  0  0  0  0  0
  -20.9483  -29.8720   21.6783 H   0  0  0  0  0  0
  -26.0150  -38.2810   24.1442 H   0  0  0  0  0  0
  -28.1779  -17.0663   20.5696 H   0  0  0  0  0  0
  -29.1999  -17.1418   21.9764 H   0  0  0  0  0  0
  -31.8923  -17.3878   20.1992 H   0  0  0  0  0  0
  -31.4923  -16.7385   18.6469 H   0  0  0  0  0  0
  -30.3496  -19.1210   21.2602 H   0  0  0  0  0  0
  -31.0787  -19.3327   19.0138 H   0  0  0  0  0  0
  -26.8790  -19.0775   19.8362 H   0  0  0  0  0  0
  -27.5518  -20.1782   18.6190 H   0  0  0  0  0  0
  -26.5617  -20.7885   19.9176 H   0  0  0  0  0  0
  -27.8611  -16.3437   11.6784 H   0  0  0  0  0  0
  -29.1562  -15.8101   12.7395 H   0  0  0  0  0  0
  -29.2870  -17.3553   11.8988 H   0  0  0  0  0  0
  -26.3535  -18.3216   12.3915 H   0  0  0  0  0  0
  -27.7303  -19.3695   12.7124 H   0  0  0  0  0  0
  -26.5530  -19.0411   13.9802 H   0  0  0  0  0  0
  -30.4172  -19.0354   16.3486 H   0  0  0  0  0  0
  -30.6715  -17.3455   16.7774 H   0  0  0  0  0  0
  -27.1107  -22.9398   20.2679 H   0  0  0  0  0  0
  -28.2102  -23.3497   19.0305 H   0  0  0  0  0  0
  -29.4810  -22.0765   21.5120 H   0  0  0  0  0  0
  -29.9419  -21.9050   19.8765 H   0  0  0  0  0  0
  -29.0967  -24.7562   21.4368 H   0  0  0  0  0  0
  -27.3965  -24.8281   21.4977 H   0  0  0  0  0  0
  -28.1581  -20.1850   21.5772 H   0  0  0  0  0  0
  -27.2196  -16.6526   14.0348 H   0  0  0  0  0  0
  -29.7883  -18.1342   14.2190 H   0  0  0  0  0  0
  -28.8719  -19.2890   18.0496 H   0  0  0  0  0  0
  -28.7315  -17.7001   18.2850 H   0  0  0  0  0  0
  1 25  1  0  0  0
  1 30  2  0  0  0
  1 85  1  0  0  0
  2  3  1  0  0  0
  2 25  1  0  0  0
  2 89  1  0  0  0
  2 90  1  0  0  0
  3  4  1  0  0  0
  3 91  1  0  0  0
  3 92  1  0  0  0
  4  5  1  0  0  0
  4 93  1  0  0  0
  4 94  1  0  0  0
  5  6  1  0  0  0
  5 26  1  0  0  0
  5 95  1  0  0  0
  6 25  1  0  0  0
  6 96  1  0  0  0
  6 97  1  0  0  0
  7  8  2  0  0  0
  7 26  1  0  0  0
  7 29  1  0  0  0
  8  9  1  0  0  0
  8 22  1  0  0  0
  9 10  1  0  0  0
  9 27  2  0  0  0
 10 11  2  0  0  0
 10 15  1  0  0  0
 11 12  1  0  0  0
 11 98  1  0  0  0
 12 13  2  0  0  0
 12 99  1  0  0  0
 13 14  1  0  0  0
 13 31  1  0  0  0
 14 15  2  0  0  0
 14100  1  0  0  0
 15101  1  0  0  0
 16 17  2  0  0  0
 16 21  1  0  0  0
 16 31  1  0  0  0
 17 18  1  0  0  0
 17102  1  0  0  0
 18 19  2  0  0  0
 18103  1  0  0  0
 19 20  1  0  0  0
 19 24  1  0  0  0
 20 21  2  0  0  0
 20104  1  0  0  0
 21 23  1  0  0  0
 22 28  1  0  0  0
 22 32  2  0  0  0
 26 27  1  0  0  0
 28105  1  0  0  0
 28106  1  0  0  0
 29107  1  0  0  0
 29108  1  0  0  0
 33 34  1  0  0  0
 33 66  1  0  0  0
 33 70  2  0  0  0
 34 36  1  0  0  0
 34 59  1  0  0  0
 34109  1  0  0  0
 35 44  2  0  0  0
 35 45  1  0  0  0
 35 68  1  0  0  0
 36 56  1  0  0  0
 36110  1  0  0  0
 37 39  1  0  0  0
 37 47  1  0  0  0
 37 66  1  0  0  0
 37111  1  0  0  0
 38 43  2  0  0  0
 38 46  1  0  0  0
 38 47  1  0  0  0
 39 64  1  0  0  0
 39 67  2  0  0  0
 40 52  1  0  0  0
 40 53  2  0  0  0
 40 58  1  0  0  0
 41112  1  0  0  0
 41113  1  0  0  0
 41114  1  0  0  0
 41 48  1  0  0  0
 42 43  1  0  0  0
 42 66  1  0  0  0
 42115  1  0  0  0
 42116  1  0  0  0
 43 44  1  0  0  0
 44117  1  0  0  0
 45 46  2  0  0  0
 45118  1  0  0  0
 46119  1  0  0  0
 47120  1  0  0  0
 47121  1  0  0  0
 48 56  1  0  0  0
 48 65  1  0  0  0
 48122  1  0  0  0
 49 50  1  0  0  0
 49 53  1  0  0  0
 49 64  1  0  0  0
 49123  1  0  0  0
 50 51  1  0  0  0
 50124  1  0  0  0
 50125  1  0  0  0
 51 52  1  0  0  0
 51126  1  0  0  0
 51127  1  0  0  0
 52128  1  0  0  0
 52129  1  0  0  0
 53 54  1  0  0  0
 54 55  2  0  0  0
 54130  1  0  0  0
 55 57  1  0  0  0
 55131  1  0  0  0
 56 69  2  0  0  0
 57 58  2  0  0  0
 57132  1  0  0  0
 58133  1  0  0  0
 59 60  1  0  0  0
 59 61  1  0  0  0
 59 62  1  0  0  0
 60134  1  0  0  0
 60135  1  0  0  0
 60136  1  0  0  0
 61137  1  0  0  0
 61138  1  0  0  0
 61139  1  0  0  0
 62140  1  0  0  0
 62141  1  0  0  0
 62142  1  0  0  0
 63 65  1  0  0  0
 63143  1  0  0  0
 63144  1  0  0  0
 63145  1  0  0  0
 64146  1  0  0  0
 65147  1  0  0  0
 68 82  1  0  0  0
 71 79  1  0  0  0
 71 86  1  0  0  0
 71 88  2  0  0  0
 72 85  1  0  0  0
 72148  1  0  0  0
 72149  1  0  0  0
 72 74  1  0  0  0
 73 75  1  0  0  0
 73 85  1  0  0  0
 73150  1  0  0  0
 73151  1  0  0  0
 74 75  1  0  0  0
 74 83  1  0  0  0
 74152  1  0  0  0
 75 87  1  0  0  0
 75153  1  0  0  0
 76154  1  0  0  0
 76155  1  0  0  0
 76156  1  0  0  0
 76 83  1  0  0  0
 77157  1  0  0  0
 77158  1  0  0  0
 77159  1  0  0  0
 77 84  1  0  0  0
 78 84  1  0  0  0
 78160  1  0  0  0
 78161  1  0  0  0
 78162  1  0  0  0
 79 87  1  0  0  0
 79163  1  0  0  0
 79164  1  0  0  0
 80 81  1  0  0  0
 80 82  1  0  0  0
 80165  1  0  0  0
 80166  1  0  0  0
 81 83  1  0  0  0
 81167  1  0  0  0
 81168  1  0  0  0
 82169  1  0  0  0
 82170  1  0  0  0
 83171  1  0  0  0
 84 86  1  0  0  0
 84172  1  0  0  0
 86173  1  0  0  0
 87174  1  0  0  0
 87175  1  0  0  0
M  CHG  1  87   1
M  ISO  4   1 100  68 101  82 101  85 100
M  END
> <chiral flag>
0

> <version>
0

> <s_m_source_file>
/data/baiqing/PycharmProjects/Reinvent-master-3.2/result/LINK_invent/BTK/process_docking_weight1_custom_sum_contain_oxygen_bond_distance_aromatic_linkinvent_7_9_3/rearranged_h_0109.sdf

> <i_m_source_file_index>
4

> <r_mmod_Potential_Energy-OPLS-2005>
533.959045410156

> <r_mmod_Stretch_Energy-OPLS-2005>
275.030670166016

> <r_mmod_Bend_Energy-OPLS-2005>
370.521575927734

> <r_mmod_Torsional_Energy-OPLS-2005>
416.870849609375

> <r_mmod_Improper_Torsional_Energy-OPLS-2005>
22.5284595489502

> <r_mmod_Van_der_Waal_Energy-OPLS-2005>
116.695617675781

> <r_mmod_Electrostatic_Energy-OPLS-2005>
-409.285949707031

> <r_mmod_Solvation_Energy-OPLS-2005>
-442.799377441406

> <b_mmod_Minimization_Converged-OPLS-2005>
0

> <r_mmod_RMS_Derivative-OPLS-2005>
2.76852607727051

$$$$
4
                    3D
 Structure written by MMmdl.
164172  0  0  1  0            999 V2000
  -30.5219  -15.0414   20.4986 C   0  0  0  0  0  0
  -30.4324  -12.6529   19.5602 C   0  0  0  0  0  0
  -29.5473  -12.5572   18.2955 C   0  0  0  0  0  0
  -28.0776  -12.3341   18.6864 C   0  0  0  0  0  0
  -27.6260  -13.2674   19.8370 C   0  0  2  0  0  0
  -28.6402  -13.3331   20.9951 C   0  0  0  0  0  0
  -25.2346  -13.8101   20.5682 C   0  0  0  0  0  0
  -24.1711  -13.0328   20.9187 C   0  0  0  0  0  0
  -24.6398  -11.6855   20.8678 C   0  0  0  0  0  0
  -23.9091  -10.4268   21.0390 C   0  0  0  0  0  0
  -24.3658   -9.4210   21.9165 C   0  0  0  0  0  0
  -23.6324   -8.2248   22.0718 C   0  0  0  0  0  0
  -22.4281   -8.0292   21.3537 C   0  0  0  0  0  0
  -21.9923   -9.0280   20.4644 C   0  0  0  0  0  0
  -22.7250  -10.2156   20.3064 C   0  0  0  0  0  0
  -21.6875   -6.0753   22.5298 C   0  0  0  0  0  0
  -21.4014   -6.5652   23.8238 C   0  0  0  0  0  0
  -21.3623   -5.6786   24.9181 C   0  0  0  0  0  0
  -21.6048   -4.3059   24.7221 C   0  0  0  0  0  0
  -21.8845   -3.8158   23.4345 C   0  0  0  0  0  0
  -21.9234   -4.6982   22.3412 C   0  0  0  0  0  0
  -22.7756  -13.5113   21.1875 C   0  0  0  0  0  0
  -22.1709   -4.2157   21.0999 F   0  0  0  0  0  0
  -21.5626   -3.4552   25.7744 F   0  0  0  0  0  0
  -29.9320  -13.7606   20.4362 N   0  0  0  0  0  0
  -26.2852  -12.9454   20.3196 N   0  0  0  0  0  0
  -25.9345  -11.6558   20.5662 N   0  0  0  0  0  0
  -22.0512  -12.8131   22.0532 N   0  0  0  0  0  0
  -25.3841  -15.1769   20.4149 N   0  0  0  0  0  0
  -31.6505  -15.1335   20.0038 O   0  0  0  0  0  0
  -21.6647   -6.8885   21.4247 O   0  0  0  0  0  0
  -22.3424  -14.5411   20.6716 O   0  0  0  0  0  0
  -24.6476  -31.8444   23.1828 C   0  0  0  0  0  0
  -25.9217  -32.4698   23.8281 C   0  0  1  0  0  0
  -27.2550  -27.1180   20.1885 C   0  0  0  0  0  0
  -25.5944  -33.8499   24.2207 N   0  0  0  0  0  0
  -23.4574  -30.4588   21.5264 C   0  0  2  0  0  0
  -24.9149  -28.8652   20.1272 C   0  0  0  0  0  0
  -22.7567  -29.4629   22.4867 C   0  0  0  0  0  0
  -18.0283  -28.1548   22.8359 C   0  0  0  0  0  0
  -24.1477  -36.7254   23.2644 C   0  0  0  0  0  0
  -26.0129  -30.7198   21.3788 C   0  0  0  0  0  0
  -26.0933  -29.3207   20.7342 C   0  0  0  0  0  0
  -27.2643  -28.4681   20.7358 C   0  0  0  0  0  0
  -26.0436  -26.7548   19.5566 C   0  0  0  0  0  0
  -24.9031  -27.5932   19.5259 C   0  0  0  0  0  0
  -23.6905  -29.7660   20.1580 C   0  0  0  0  0  0
  -25.4108  -36.3033   24.0315 C   0  0  1  0  0  0
  -20.5906  -28.3765   23.1086 C   0  0  2  0  0  0
  -20.6878  -26.9526   22.5033 C   0  0  0  0  0  0
  -19.5602  -26.5955   21.5235 C   0  0  0  0  0  0
  -18.1737  -26.8069   22.1464 C   0  0  0  0  0  0
  -19.1574  -28.8873   23.2817 C   0  0  0  0  0  0
  -18.9567  -30.1432   23.9051 C   0  0  0  0  0  0
  -17.6638  -30.6592   24.0811 C   0  0  0  0  0  0
  -25.9045  -34.9398   23.5067 C   0  0  0  0  0  0
  -16.5551  -29.9262   23.6408 C   0  0  0  0  0  0
  -16.7316  -28.6767   23.0216 C   0  0  0  0  0  0
  -26.4578  -31.6550   25.0705 C   0  0  0  0  0  0
  -25.3791  -31.3709   26.1411 C   0  0  0  0  0  0
  -27.0456  -30.2959   24.6241 C   0  0  0  0  0  0
  -27.6142  -32.4301   25.7499 C   0  0  0  0  0  0
  -27.5561  -37.1789   24.8462 C   0  0  0  0  0  0
  -21.4220  -29.3271   22.3687 N   0  0  0  0  0  0
  -26.4272  -37.3746   23.9396 N   0  0  0  0  0  0
  -24.7267  -31.0305   22.0870 N   0  0  0  0  0  0
  -23.4225  -28.8060   23.2901 O   0  0  0  0  0  0
  -28.3454  -26.1629   20.1785 O   0  0  0  0  0  0
  -26.5656  -34.8928   22.4655 O   0  0  0  0  0  0
  -23.5600  -32.1280   23.7078 O   0  0  0  0  0  0
  -27.3230  -17.5313   20.0878 C   0  0  0  0  0  0
  -28.0213  -17.5610   18.8541 C   0  0  0  0  0  0
  -28.0880  -17.7679   21.2579 C   0  0  0  0  0  0
  -29.4777  -17.6406   21.0145 C   0  0  0  0  0  0
  -29.7222  -18.6401   19.9461 C   0  0  0  0  0  0
  -27.4989  -17.8429   23.7991 C   0  0  0  0  0  0
  -26.1472  -19.1961   22.1566 C   0  0  0  0  0  0
  -29.9921  -15.8400   22.6516 C   0  0  0  0  0  0
  -29.3119  -20.2762   19.7407 C   0  0  0  0  0  0
  -29.1440  -21.6959   20.6602 C   0  0  0  0  0  0
  -28.9370  -23.2583   19.9716 C   0  0  0  0  0  0
  -28.2437  -24.6637   20.6414 C   0  0  0  0  0  0
  -27.5207  -18.5703   22.4437 C   0  0  0  0  0  0
  -29.2827  -18.0813   18.7855 N   0  0  0  0  0  0
  -29.9269  -16.1413   21.2159 N   0  0  0  0  0  0
  -31.4756  -12.7969   19.2774 H   0  0  0  0  0  0
  -30.3983  -11.7133   20.1151 H   0  0  0  0  0  0
  -29.8918  -11.7459   17.6529 H   0  0  0  0  0  0
  -29.6390  -13.4755   17.7169 H   0  0  0  0  0  0
  -27.9784  -11.2940   19.0013 H   0  0  0  0  0  0
  -27.4236  -12.4553   17.8234 H   0  0  0  0  0  0
  -27.5824  -14.2653   19.3982 H   0  0  0  0  0  0
  -28.7142  -12.3824   21.5216 H   0  0  0  0  0  0
  -28.2716  -14.0517   21.7263 H   0  0  0  0  0  0
  -25.2821   -9.5713   22.4699 H   0  0  0  0  0  0
  -24.0069   -7.4644   22.7415 H   0  0  0  0  0  0
  -21.0844   -8.8821   19.8947 H   0  0  0  0  0  0
  -22.3703  -10.9713   19.6185 H   0  0  0  0  0  0
  -21.1980   -7.6166   23.9728 H   0  0  0  0  0  0
  -21.1377   -6.0516   25.9074 H   0  0  0  0  0  0
  -22.0634   -2.7620   23.2876 H   0  0  0  0  0  0
  -22.4225  -11.9775   22.4815 H   0  0  0  0  0  0
  -21.1158  -13.1130   22.2848 H   0  0  0  0  0  0
  -24.5991  -15.8133   20.5039 H   0  0  0  0  0  0
  -26.2580  -15.6429   20.1977 H   0  0  0  0  0  0
  -26.7326  -32.5350   23.1068 H   0  0  0  0  0  0
  -25.0079  -33.9592   25.0358 H   0  0  0  0  0  0
  -22.7726  -31.2880   21.3504 H   0  0  0  0  0  0
  -23.3743  -35.9581   23.3310 H   0  0  0  0  0  0
  -24.3561  -36.8894   22.2057 H   0  0  0  0  0  0
  -23.7202  -37.6442   23.6683 H   0  0  0  0  0  0
  -26.1490  -31.4662   20.5933 H   0  0  0  0  0  0
  -26.8873  -30.7906   22.0108 H   0  0  0  0  0  0
  -28.1674  -28.8251   21.2149 H   0  0  0  0  0  0
  -25.9717  -25.7757   19.0966 H   0  0  0  0  0  0
  -23.9998  -27.2303   19.0553 H   0  0  0  0  0  0
  -23.8354  -30.5258   19.3877 H   0  0  0  0  0  0
  -22.8133  -29.1988   19.8475 H   0  0  0  0  0  0
  -25.1297  -36.1911   25.0814 H   0  0  0  0  0  0
  -21.0002  -28.3129   24.1177 H   0  0  0  0  0  0
  -20.6549  -26.2389   23.3221 H   0  0  0  0  0  0
  -21.6522  -26.7932   22.0169 H   0  0  0  0  0  0
  -19.6619  -25.5615   21.1903 H   0  0  0  0  0  0
  -19.6465  -27.2033   20.6153 H   0  0  0  0  0  0
  -17.4164  -26.7118   21.3651 H   0  0  0  0  0  0
  -17.9542  -26.0229   22.8717 H   0  0  0  0  0  0
  -19.8030  -30.7112   24.2712 H   0  0  0  0  0  0
  -17.5300  -31.6135   24.5780 H   0  0  0  0  0  0
  -15.5674  -30.3311   23.7829 H   0  0  0  0  0  0
  -15.8627  -28.1329   22.6892 H   0  0  0  0  0  0
  -24.6007  -30.6997   25.7771 H   0  0  0  0  0  0
  -24.8950  -32.2863   26.4814 H   0  0  0  0  0  0
  -25.8112  -30.8949   27.0209 H   0  0  0  0  0  0
  -26.3079  -29.6709   24.1198 H   0  0  0  0  0  0
  -27.4032  -29.7211   25.4802 H   0  0  0  0  0  0
  -27.8983  -30.4232   23.9561 H   0  0  0  0  0  0
  -27.2755  -33.3614   26.2033 H   0  0  0  0  0  0
  -28.3971  -32.6825   25.0342 H   0  0  0  0  0  0
  -28.0765  -31.8438   26.5444 H   0  0  0  0  0  0
  -28.2593  -38.0086   24.7510 H   0  0  0  0  0  0
  -28.1043  -36.2606   24.6300 H   0  0  0  0  0  0
  -27.2260  -37.1435   25.8866 H   0  0  0  0  0  0
  -20.9371  -29.9356   21.7238 H   0  0  0  0  0  0
  -26.0152  -38.2816   24.1443 H   0  0  0  0  0  0
  -26.2451  -17.4876   20.0862 H   0  0  0  0  0  0
  -27.5171  -17.3408   17.9273 H   0  0  0  0  0  0
  -28.5040  -17.6086   24.1500 H   0  0  0  0  0  0
  -26.9198  -16.9200   23.7509 H   0  0  0  0  0  0
  -27.0594  -18.4769   24.5671 H   0  0  0  0  0  0
  -26.1949  -19.8561   21.2925 H   0  0  0  0  0  0
  -25.8025  -19.8044   22.9936 H   0  0  0  0  0  0
  -25.3871  -18.4364   21.9636 H   0  0  0  0  0  0
  -28.9850  -15.7836   23.0507 H   0  0  0  0  0  0
  -30.5485  -16.6166   23.1815 H   0  0  0  0  0  0
  -30.4665  -14.8921   22.9203 H   0  0  0  0  0  0
  -28.3545  -20.2554   19.2183 H   0  0  0  0  0  0
  -30.0203  -20.5741   18.9670 H   0  0  0  0  0  0
  -30.0270  -21.7566   21.3013 H   0  0  0  0  0  0
  -28.3135  -21.5313   21.3484 H   0  0  0  0  0  0
  -28.4150  -23.1076   19.0290 H   0  0  0  0  0  0
  -29.9401  -23.5573   19.6616 H   0  0  0  0  0  0
  -28.6459  -24.7088   21.6559 H   0  0  0  0  0  0
  -27.1940  -24.4448   20.8076 H   0  0  0  0  0  0
  -28.2030  -19.4089   22.5745 H   0  0  0  0  0  0
  1 25  1  0  0  0
  1 30  2  0  0  0
  1 85  1  0  0  0
  2  3  1  0  0  0
  2 25  1  0  0  0
  2 86  1  0  0  0
  2 87  1  0  0  0
  3  4  1  0  0  0
  3 88  1  0  0  0
  3 89  1  0  0  0
  4  5  1  0  0  0
  4 90  1  0  0  0
  4 91  1  0  0  0
  5  6  1  0  0  0
  5 26  1  0  0  0
  5 92  1  0  0  0
  6 25  1  0  0  0
  6 93  1  0  0  0
  6 94  1  0  0  0
  7  8  2  0  0  0
  7 26  1  0  0  0
  7 29  1  0  0  0
  8  9  1  0  0  0
  8 22  1  0  0  0
  9 10  1  0  0  0
  9 27  2  0  0  0
 10 11  2  0  0  0
 10 15  1  0  0  0
 11 12  1  0  0  0
 11 95  1  0  0  0
 12 13  2  0  0  0
 12 96  1  0  0  0
 13 14  1  0  0  0
 13 31  1  0  0  0
 14 15  2  0  0  0
 14 97  1  0  0  0
 15 98  1  0  0  0
 16 17  2  0  0  0
 16 21  1  0  0  0
 16 31  1  0  0  0
 17 18  1  0  0  0
 17 99  1  0  0  0
 18 19  2  0  0  0
 18100  1  0  0  0
 19 20  1  0  0  0
 19 24  1  0  0  0
 20 21  2  0  0  0
 20101  1  0  0  0
 21 23  1  0  0  0
 22 28  1  0  0  0
 22 32  2  0  0  0
 26 27  1  0  0  0
 28102  1  0  0  0
 28103  1  0  0  0
 29104  1  0  0  0
 29105  1  0  0  0
 33 34  1  0  0  0
 33 66  1  0  0  0
 33 70  2  0  0  0
 34 36  1  0  0  0
 34 59  1  0  0  0
 34106  1  0  0  0
 35 44  2  0  0  0
 35 45  1  0  0  0
 35 68  1  0  0  0
 36 56  1  0  0  0
 36107  1  0  0  0
 37 39  1  0  0  0
 37 47  1  0  0  0
 37 66  1  0  0  0
 37108  1  0  0  0
 38 43  2  0  0  0
 38 46  1  0  0  0
 38 47  1  0  0  0
 39 64  1  0  0  0
 39 67  2  0  0  0
 40 52  1  0  0  0
 40 53  2  0  0  0
 40 58  1  0  0  0
 41109  1  0  0  0
 41110  1  0  0  0
 41111  1  0  0  0
 41 48  1  0  0  0
 42 43  1  0  0  0
 42 66  1  0  0  0
 42112  1  0  0  0
 42113  1  0  0  0
 43 44  1  0  0  0
 44114  1  0  0  0
 45 46  2  0  0  0
 45115  1  0  0  0
 46116  1  0  0  0
 47117  1  0  0  0
 47118  1  0  0  0
 48 56  1  0  0  0
 48 65  1  0  0  0
 48119  1  0  0  0
 49 50  1  0  0  0
 49 53  1  0  0  0
 49 64  1  0  0  0
 49120  1  0  0  0
 50 51  1  0  0  0
 50121  1  0  0  0
 50122  1  0  0  0
 51 52  1  0  0  0
 51123  1  0  0  0
 51124  1  0  0  0
 52125  1  0  0  0
 52126  1  0  0  0
 53 54  1  0  0  0
 54 55  2  0  0  0
 54127  1  0  0  0
 55 57  1  0  0  0
 55128  1  0  0  0
 56 69  2  0  0  0
 57 58  2  0  0  0
 57129  1  0  0  0
 58130  1  0  0  0
 59 60  1  0  0  0
 59 61  1  0  0  0
 59 62  1  0  0  0
 60131  1  0  0  0
 60132  1  0  0  0
 60133  1  0  0  0
 61134  1  0  0  0
 61135  1  0  0  0
 61136  1  0  0  0
 62137  1  0  0  0
 62138  1  0  0  0
 62139  1  0  0  0
 63 65  1  0  0  0
 63140  1  0  0  0
 63141  1  0  0  0
 63142  1  0  0  0
 64143  1  0  0  0
 65144  1  0  0  0
 68 82  1  0  0  0
 71 72  2  0  0  0
 71 73  1  0  0  0
 71145  1  0  0  0
 72 84  1  0  0  0
 72146  1  0  0  0
 73 74  2  0  0  0
 73 83  1  0  0  0
 74 75  1  0  0  0
 74 85  1  0  0  0
 75 79  1  0  0  0
 75 84  2  0  0  0
 76147  1  0  0  0
 76148  1  0  0  0
 76149  1  0  0  0
 76 83  1  0  0  0
 77 83  1  0  0  0
 77150  1  0  0  0
 77151  1  0  0  0
 77152  1  0  0  0
 78 85  1  0  0  0
 78153  1  0  0  0
 78154  1  0  0  0
 78155  1  0  0  0
 79 80  1  0  0  0
 79156  1  0  0  0
 79157  1  0  0  0
 80 81  1  0  0  0
 80158  1  0  0  0
 80159  1  0  0  0
 81 82  1  0  0  0
 81160  1  0  0  0
 81161  1  0  0  0
 82162  1  0  0  0
 82163  1  0  0  0
 83164  1  0  0  0
M  ISO  4   1 100  68 101  82 101  85 100
M  END
> <chiral flag>
0

> <version>
0

> <s_m_source_file>
/data/baiqing/PycharmProjects/Reinvent-master-3.2/result/LINK_invent/BTK/process_docking_weight1_custom_sum_contain_oxygen_bond_distance_aromatic_linkinvent_7_9_3/rearranged_h_0109.sdf

> <i_m_source_file_index>
5

> <r_mmod_Potential_Energy-OPLS-2005>
1145.23962402344

> <r_mmod_Stretch_Energy-OPLS-2005>
351.837310791016

> <r_mmod_Bend_Energy-OPLS-2005>
470.279693603516

> <r_mmod_Torsional_Energy-OPLS-2005>
568.289306640625

> <r_mmod_Improper_Torsional_Energy-OPLS-2005>
39.5609321594238

> <r_mmod_Van_der_Waal_Energy-OPLS-2005>
156.404037475586

> <r_mmod_Electrostatic_Energy-OPLS-2005>
-471.472015380859

> <r_mmod_Solvation_Energy-OPLS-2005>
-204.882690429688

> <b_mmod_Minimization_Converged-OPLS-2005>
0

> <r_mmod_RMS_Derivative-OPLS-2005>
9.00148010253906

$$$$
5
                    3D
 Structure written by MMmdl.
159167  0  0  1  0            999 V2000
  -30.5461  -15.1399   20.3973 C   0  0  0  0  0  0
  -30.4320  -12.7419   19.4991 C   0  0  0  0  0  0
  -29.5132  -12.5469   18.2719 C   0  0  0  0  0  0
  -28.0695  -12.2757   18.7201 C   0  0  0  0  0  0
  -27.6143  -13.2622   19.8246 C   0  0  2  0  0  0
  -28.6574  -13.4257   20.9526 C   0  0  0  0  0  0
  -25.2395  -13.8250   20.5667 C   0  0  0  0  0  0
  -24.1704  -13.0431   20.9255 C   0  0  0  0  0  0
  -24.6350  -11.6942   20.8784 C   0  0  0  0  0  0
  -23.9035  -10.4294   21.0403 C   0  0  0  0  0  0
  -24.3586   -9.4209   21.9169 C   0  0  0  0  0  0
  -23.6280   -8.2231   22.0737 C   0  0  0  0  0  0
  -22.4275   -8.0239   21.3530 C   0  0  0  0  0  0
  -21.9893   -9.0196   20.4627 C   0  0  0  0  0  0
  -22.7203  -10.2102   20.3044 C   0  0  0  0  0  0
  -21.6839   -6.0709   22.5251 C   0  0  0  0  0  0
  -21.4011   -6.5627   23.8179 C   0  0  0  0  0  0
  -21.3666   -5.6797   24.9161 C   0  0  0  0  0  0
  -21.6049   -4.3052   24.7233 C   0  0  0  0  0  0
  -21.8815   -3.8125   23.4353 C   0  0  0  0  0  0
  -21.9193   -4.6936   22.3401 C   0  0  0  0  0  0
  -22.7741  -13.5182   21.1867 C   0  0  0  0  0  0
  -22.1657   -4.2109   21.0991 F   0  0  0  0  0  0
  -21.5636   -3.4542   25.7763 F   0  0  0  0  0  0
  -29.8947  -13.8896   20.3085 N   0  0  0  0  0  0
  -26.2827  -12.9467   20.3285 N   0  0  0  0  0  0
  -25.9308  -11.6595   20.5793 N   0  0  0  0  0  0
  -22.0417  -12.8154   22.0458 N   0  0  0  0  0  0
  -25.4144  -15.1951   20.3947 N   0  0  0  0  0  0
  -31.7660  -15.0619   20.1978 O   0  0  0  0  0  0
  -21.6636   -6.8842   21.4216 O   0  0  0  0  0  0
  -22.3419  -14.5474   20.6711 O   0  0  0  0  0  0
  -24.6555  -31.8262   23.1869 C   0  0  0  0  0  0
  -25.9277  -32.4578   23.8287 C   0  0  1  0  0  0
  -27.1333  -26.9803   20.1377 C   0  0  0  0  0  0
  -25.5997  -33.8395   24.2219 N   0  0  0  0  0  0
  -23.4618  -30.4626   21.5296 C   0  0  2  0  0  0
  -24.8951  -28.8790   20.0786 C   0  0  0  0  0  0
  -22.7598  -29.4482   22.4707 C   0  0  0  0  0  0
  -18.0335  -28.1347   22.8402 C   0  0  0  0  0  0
  -24.1529  -36.7262   23.2654 C   0  0  0  0  0  0
  -26.0221  -30.6405   21.4082 C   0  0  0  0  0  0
  -26.0738  -29.2424   20.7447 C   0  0  0  0  0  0
  -27.1900  -28.3092   20.7637 C   0  0  0  0  0  0
  -25.9579  -26.7805   19.3791 C   0  0  0  0  0  0
  -24.8671  -27.6755   19.3633 C   0  0  0  0  0  0
  -23.6938  -29.8186   20.1357 C   0  0  0  0  0  0
  -25.4139  -36.2988   24.0349 C   0  0  1  0  0  0
  -20.5967  -28.3706   23.1080 C   0  0  2  0  0  0
  -20.6834  -26.9406   22.5291 C   0  0  0  0  0  0
  -19.5833  -26.6347   21.5058 C   0  0  0  0  0  0
  -18.2009  -26.7914   22.1483 C   0  0  0  0  0  0
  -19.1608  -28.8826   23.2748 C   0  0  0  0  0  0
  -18.9526  -30.1390   23.8825 C   0  0  0  0  0  0
  -17.6539  -30.6542   24.0501 C   0  0  0  0  0  0
  -25.9058  -34.9342   23.5091 C   0  0  0  0  0  0
  -16.5414  -29.9055   23.6270 C   0  0  0  0  0  0
  -16.7321  -28.6459   23.0302 C   0  0  0  0  0  0
  -26.4560  -31.6499   25.0775 C   0  0  0  0  0  0
  -25.3733  -31.3597   26.1461 C   0  0  0  0  0  0
  -27.0468  -30.2934   24.6367 C   0  0  0  0  0  0
  -27.6168  -32.4250   25.7487 C   0  0  0  0  0  0
  -27.5595  -37.1779   24.8469 C   0  0  0  0  0  0
  -21.4281  -29.3076   22.3449 N   0  0  0  0  0  0
  -26.4295  -37.3705   23.9426 N   0  0  0  0  0  0
  -24.7359  -31.0032   22.0966 N   0  0  0  0  0  0
  -23.4166  -28.7960   23.2864 O   0  0  0  0  0  0
  -28.0804  -25.8616   20.2383 O   0  0  0  0  0  0
  -26.5627  -34.8828   22.4653 O   0  0  0  0  0  0
  -23.5669  -32.1254   23.6980 O   0  0  0  0  0  0
  -29.9651  -19.0472   19.2812 C   0  0  0  0  0  0
  -28.2794  -18.6793   20.8287 C   0  0  0  0  0  0
  -30.7190  -17.7080   19.8314 C   0  0  0  0  0  0
  -28.9172  -17.1925   21.1996 C   0  0  0  0  0  0
  -29.1509  -19.9527   20.3134 C   0  0  0  0  0  0
  -26.4503  -24.0362   20.9490 C   0  0  0  0  0  0
  -27.0463  -21.0695   19.3341 C   0  0  0  0  0  0
  -28.7013  -22.8588   20.3051 C   0  0  0  0  0  0
  -27.7071  -24.2904   20.0734 C   0  0  2  0  0  0
  -29.9344  -16.4787   20.3091 N   0  0  0  0  0  0
  -28.4388  -21.3308   19.7820 N   0  3  1  0  0  0
  -31.4467  -12.9258   19.1446 H   0  0  0  0  0  0
  -30.4926  -11.8360   20.1040 H   0  0  0  0  0  0
  -29.8771  -11.7327   17.6437 H   0  0  0  0  0  0
  -29.5380  -13.4503   17.6603 H   0  0  0  0  0  0
  -28.0284  -11.2563   19.1039 H   0  0  0  0  0  0
  -27.3920  -12.3084   17.8661 H   0  0  0  0  0  0
  -27.5408  -14.2291   19.3225 H   0  0  0  0  0  0
  -28.8133  -12.4954   21.5004 H   0  0  0  0  0  0
  -28.3223  -14.1646   21.6812 H   0  0  0  0  0  0
  -25.2708   -9.5692   22.4760 H   0  0  0  0  0  0
  -23.9975   -7.4635   22.7451 H   0  0  0  0  0  0
  -21.0823   -8.8681   19.8934 H   0  0  0  0  0  0
  -22.3599  -10.9624   19.6156 H   0  0  0  0  0  0
  -21.1991   -7.6134   23.9666 H   0  0  0  0  0  0
  -21.1499   -6.0547   25.9070 H   0  0  0  0  0  0
  -22.0599   -2.7578   23.2878 H   0  0  0  0  0  0
  -22.4052  -11.9842   22.4853 H   0  0  0  0  0  0
  -21.1004  -13.1114   22.2621 H   0  0  0  0  0  0
  -24.6417  -15.8522   20.4093 H   0  0  0  0  0  0
  -26.2649  -15.5877   20.0133 H   0  0  0  0  0  0
  -26.7308  -32.5106   23.0956 H   0  0  0  0  0  0
  -25.0237  -33.9491   25.0429 H   0  0  0  0  0  0
  -22.7740  -31.2993   21.3881 H   0  0  0  0  0  0
  -23.3749  -35.9609   23.3246 H   0  0  0  0  0  0
  -24.3685  -36.8973   22.2077 H   0  0  0  0  0  0
  -23.7288  -37.6449   23.6707 H   0  0  0  0  0  0
  -26.1883  -31.3646   20.6142 H   0  0  0  0  0  0
  -26.8927  -30.7019   22.0483 H   0  0  0  0  0  0
  -28.0699  -28.5592   21.3428 H   0  0  0  0  0  0
  -25.8360  -25.8753   18.8017 H   0  0  0  0  0  0
  -23.9939  -27.4350   18.7714 H   0  0  0  0  0  0
  -23.8616  -30.6118   19.4061 H   0  0  0  0  0  0
  -22.7878  -29.3101   19.7988 H   0  0  0  0  0  0
  -25.1281  -36.1825   25.0822 H   0  0  0  0  0  0
  -21.0047  -28.3342   24.1176 H   0  0  0  0  0  0
  -20.5592  -26.2359   23.3540 H   0  0  0  0  0  0
  -21.6731  -26.7348   22.1167 H   0  0  0  0  0  0
  -19.7011  -25.6200   21.1210 H   0  0  0  0  0  0
  -19.6792  -27.3016   20.6495 H   0  0  0  0  0  0
  -17.4257  -26.6500   21.3921 H   0  0  0  0  0  0
  -18.0502  -26.0036   22.8886 H   0  0  0  0  0  0
  -19.8012  -30.7142   24.2229 H   0  0  0  0  0  0
  -17.5131  -31.6226   24.5104 H   0  0  0  0  0  0
  -15.5423  -30.2938   23.7662 H   0  0  0  0  0  0
  -15.8717  -28.0759   22.7064 H   0  0  0  0  0  0
  -24.6075  -30.6733   25.7811 H   0  0  0  0  0  0
  -24.8672  -32.2687   26.4715 H   0  0  0  0  0  0
  -25.8087  -30.8958   27.0335 H   0  0  0  0  0  0
  -26.3078  -29.6575   24.1490 H   0  0  0  0  0  0
  -27.4233  -29.7315   25.4906 H   0  0  0  0  0  0
  -27.8948  -30.4198   23.9649 H   0  0  0  0  0  0
  -27.2951  -33.3722   26.1783 H   0  0  0  0  0  0
  -28.4112  -32.6466   25.0358 H   0  0  0  0  0  0
  -28.0660  -31.8484   26.5555 H   0  0  0  0  0  0
  -28.2516  -38.0152   24.7549 H   0  0  0  0  0  0
  -28.1184  -36.2674   24.6262 H   0  0  0  0  0  0
  -27.2328  -37.1438   25.8871 H   0  0  0  0  0  0
  -20.9427  -29.9011   21.6828 H   0  0  0  0  0  0
  -26.0145  -38.2771   24.1404 H   0  0  0  0  0  0
  -29.2857  -18.7271   18.4858 H   0  0  0  0  0  0
  -30.7049  -19.6771   18.7856 H   0  0  0  0  0  0
  -27.7411  -19.0025   21.7194 H   0  0  0  0  0  0
  -27.5048  -18.4731   20.0862 H   0  0  0  0  0  0
  -31.3655  -18.0295   20.6572 H   0  0  0  0  0  0
  -31.4066  -17.3894   19.0497 H   0  0  0  0  0  0
  -28.0842  -16.5122   21.3574 H   0  0  0  0  0  0
  -29.3792  -17.3032   22.1834 H   0  0  0  0  0  0
  -29.8434  -20.2701   21.0936 H   0  0  0  0  0  0
  -26.1648  -22.9875   20.9625 H   0  0  0  0  0  0
  -25.5589  -24.5602   20.6136 H   0  0  0  0  0  0
  -26.6245  -24.3150   21.9894 H   0  0  0  0  0  0
  -27.0454  -20.3385   18.5252 H   0  0  0  0  0  0
  -26.5481  -21.9503   18.9322 H   0  0  0  0  0  0
  -26.4394  -20.6655   20.1422 H   0  0  0  0  0  0
  -28.9174  -22.7630   21.3677 H   0  0  0  0  0  0
  -29.6670  -23.1008   19.8587 H   0  0  0  0  0  0
  -27.3878  -24.2036   19.0333 H   0  0  0  0  0  0
  -28.8903  -21.4294   18.8848 H   0  0  0  0  0  0
  1 25  1  0  0  0
  1 30  2  0  0  0
  1 80  1  0  0  0
  2  3  1  0  0  0
  2 25  1  0  0  0
  2 82  1  0  0  0
  2 83  1  0  0  0
  3  4  1  0  0  0
  3 84  1  0  0  0
  3 85  1  0  0  0
  4  5  1  0  0  0
  4 86  1  0  0  0
  4 87  1  0  0  0
  5  6  1  0  0  0
  5 26  1  0  0  0
  5 88  1  0  0  0
  6 25  1  0  0  0
  6 89  1  0  0  0
  6 90  1  0  0  0
  7  8  2  0  0  0
  7 26  1  0  0  0
  7 29  1  0  0  0
  8  9  1  0  0  0
  8 22  1  0  0  0
  9 10  1  0  0  0
  9 27  2  0  0  0
 10 11  2  0  0  0
 10 15  1  0  0  0
 11 12  1  0  0  0
 11 91  1  0  0  0
 12 13  2  0  0  0
 12 92  1  0  0  0
 13 14  1  0  0  0
 13 31  1  0  0  0
 14 15  2  0  0  0
 14 93  1  0  0  0
 15 94  1  0  0  0
 16 17  2  0  0  0
 16 21  1  0  0  0
 16 31  1  0  0  0
 17 18  1  0  0  0
 17 95  1  0  0  0
 18 19  2  0  0  0
 18 96  1  0  0  0
 19 20  1  0  0  0
 19 24  1  0  0  0
 20 21  2  0  0  0
 20 97  1  0  0  0
 21 23  1  0  0  0
 22 28  1  0  0  0
 22 32  2  0  0  0
 26 27  1  0  0  0
 28 98  1  0  0  0
 28 99  1  0  0  0
 29100  1  0  0  0
 29101  1  0  0  0
 33 34  1  0  0  0
 33 66  1  0  0  0
 33 70  2  0  0  0
 34 36  1  0  0  0
 34 59  1  0  0  0
 34102  1  0  0  0
 35 44  2  0  0  0
 35 45  1  0  0  0
 35 68  1  0  0  0
 36 56  1  0  0  0
 36103  1  0  0  0
 37 39  1  0  0  0
 37 47  1  0  0  0
 37 66  1  0  0  0
 37104  1  0  0  0
 38 43  2  0  0  0
 38 46  1  0  0  0
 38 47  1  0  0  0
 39 64  1  0  0  0
 39 67  2  0  0  0
 40 52  1  0  0  0
 40 53  2  0  0  0
 40 58  1  0  0  0
 41105  1  0  0  0
 41106  1  0  0  0
 41107  1  0  0  0
 41 48  1  0  0  0
 42 43  1  0  0  0
 42 66  1  0  0  0
 42108  1  0  0  0
 42109  1  0  0  0
 43 44  1  0  0  0
 44110  1  0  0  0
 45 46  2  0  0  0
 45111  1  0  0  0
 46112  1  0  0  0
 47113  1  0  0  0
 47114  1  0  0  0
 48 56  1  0  0  0
 48 65  1  0  0  0
 48115  1  0  0  0
 49 50  1  0  0  0
 49 53  1  0  0  0
 49 64  1  0  0  0
 49116  1  0  0  0
 50 51  1  0  0  0
 50117  1  0  0  0
 50118  1  0  0  0
 51 52  1  0  0  0
 51119  1  0  0  0
 51120  1  0  0  0
 52121  1  0  0  0
 52122  1  0  0  0
 53 54  1  0  0  0
 54 55  2  0  0  0
 54123  1  0  0  0
 55 57  1  0  0  0
 55124  1  0  0  0
 56 69  2  0  0  0
 57 58  2  0  0  0
 57125  1  0  0  0
 58126  1  0  0  0
 59 60  1  0  0  0
 59 61  1  0  0  0
 59 62  1  0  0  0
 60127  1  0  0  0
 60128  1  0  0  0
 60129  1  0  0  0
 61130  1  0  0  0
 61131  1  0  0  0
 61132  1  0  0  0
 62133  1  0  0  0
 62134  1  0  0  0
 62135  1  0  0  0
 63 65  1  0  0  0
 63136  1  0  0  0
 63137  1  0  0  0
 63138  1  0  0  0
 64139  1  0  0  0
 65140  1  0  0  0
 68 79  1  0  0  0
 71 73  1  0  0  0
 71141  1  0  0  0
 71142  1  0  0  0
 71 75  1  0  0  0
 72 74  1  0  0  0
 72 75  1  0  0  0
 72143  1  0  0  0
 72144  1  0  0  0
 73 80  1  0  0  0
 73145  1  0  0  0
 73146  1  0  0  0
 74 80  1  0  0  0
 74147  1  0  0  0
 74148  1  0  0  0
 75 81  1  0  0  0
 75149  1  0  0  0
 76150  1  0  0  0
 76151  1  0  0  0
 76152  1  0  0  0
 76 79  1  0  0  0
 77153  1  0  0  0
 77154  1  0  0  0
 77155  1  0  0  0
 77 81  1  0  0  0
 78 79  1  0  0  0
 78 81  1  0  0  0
 78156  1  0  0  0
 78157  1  0  0  0
 79158  1  0  0  0
 81159  1  0  0  0
M  CHG  1  81   1
M  ISO  4   1 100  68 101  79 101  80 100
M  END
> <chiral flag>
0

> <version>
0

> <s_m_source_file>
/data/baiqing/PycharmProjects/Reinvent-master-3.2/result/LINK_invent/BTK/process_docking_weight1_custom_sum_contain_oxygen_bond_distance_aromatic_linkinvent_7_9_3/rearranged_h_0109.sdf

> <i_m_source_file_index>
6

> <r_mmod_Potential_Energy-OPLS-2005>
1083.18237304688

> <r_mmod_Stretch_Energy-OPLS-2005>
398.169342041016

> <r_mmod_Bend_Energy-OPLS-2005>
410.87451171875

> <r_mmod_Torsional_Energy-OPLS-2005>
338.815734863281

> <r_mmod_Improper_Torsional_Energy-OPLS-2005>
14.8336725234985

> <r_mmod_Van_der_Waal_Energy-OPLS-2005>
123.181465148926

> <r_mmod_Electrostatic_Energy-OPLS-2005>
-150.104385375977

> <r_mmod_Solvation_Energy-OPLS-2005>
-425.640869140625

> <b_mmod_Minimization_Converged-OPLS-2005>
0

> <r_mmod_RMS_Derivative-OPLS-2005>
8.09852504730225

$$$$
6
                    3D
 Structure written by MMmdl.
152160  0  0  1  0            999 V2000
  -30.3936  -15.3568   20.3221 C   0  0  0  0  0  0
  -30.4285  -12.8690   19.5178 C   0  0  0  0  0  0
  -29.5285  -12.5865   18.2839 C   0  0  0  0  0  0
  -28.0826  -12.2866   18.7194 C   0  0  0  0  0  0
  -27.5981  -13.2748   19.8071 C   0  0  2  0  0  0
  -28.6331  -13.5030   20.9302 C   0  0  0  0  0  0
  -25.2345  -13.8187   20.5731 C   0  0  0  0  0  0
  -24.1715  -13.0434   20.9277 C   0  0  0  0  0  0
  -24.6359  -11.6899   20.8770 C   0  0  0  0  0  0
  -23.9076  -10.4292   21.0403 C   0  0  0  0  0  0
  -24.3614   -9.4212   21.9176 C   0  0  0  0  0  0
  -23.6286   -8.2245   22.0750 C   0  0  0  0  0  0
  -22.4278   -8.0285   21.3554 C   0  0  0  0  0  0
  -21.9917   -9.0241   20.4654 C   0  0  0  0  0  0
  -22.7239  -10.2113   20.3058 C   0  0  0  0  0  0
  -21.6838   -6.0737   22.5275 C   0  0  0  0  0  0
  -21.4015   -6.5645   23.8217 C   0  0  0  0  0  0
  -21.3673   -5.6790   24.9176 C   0  0  0  0  0  0
  -21.6035   -4.3060   24.7208 C   0  0  0  0  0  0
  -21.8831   -3.8152   23.4341 C   0  0  0  0  0  0
  -21.9197   -4.6970   22.3395 C   0  0  0  0  0  0
  -22.7755  -13.5208   21.1910 C   0  0  0  0  0  0
  -22.1667   -4.2153   21.0978 F   0  0  0  0  0  0
  -21.5626   -3.4548   25.7734 F   0  0  0  0  0  0
  -29.8463  -14.0346   20.2887 N   0  0  0  0  0  0
  -26.2782  -12.9452   20.3200 N   0  0  0  0  0  0
  -25.9297  -11.6590   20.5691 N   0  0  0  0  0  0
  -22.0392  -12.8177   22.0429 N   0  0  0  0  0  0
  -25.4001  -15.1887   20.4117 N   0  0  0  0  0  0
  -31.6248  -15.3464   20.1526 O   0  0  0  0  0  0
  -21.6662   -6.8857   21.4235 O   0  0  0  0  0  0
  -22.3445  -14.5511   20.6740 O   0  0  0  0  0  0
  -24.6686  -31.8114   23.1611 C   0  0  0  0  0  0
  -25.9348  -32.4503   23.8106 C   0  0  1  0  0  0
  -27.2165  -26.8437   20.1996 C   0  0  0  0  0  0
  -25.5997  -33.8333   24.1987 N   0  0  0  0  0  0
  -23.4849  -30.4239   21.5122 C   0  0  2  0  0  0
  -24.9350  -28.7897   20.0970 C   0  0  0  0  0  0
  -22.7704  -29.4421   22.4791 C   0  0  0  0  0  0
  -18.0328  -28.1420   22.8459 C   0  0  0  0  0  0
  -24.1494  -36.7209   23.2665 C   0  0  0  0  0  0
  -26.0539  -30.5912   21.4047 C   0  0  0  0  0  0
  -26.1089  -29.1708   20.7494 C   0  0  0  0  0  0
  -27.2292  -28.2183   20.7747 C   0  0  0  0  0  0
  -26.0183  -26.6286   19.4761 C   0  0  0  0  0  0
  -24.9234  -27.5473   19.4348 C   0  0  0  0  0  0
  -23.7201  -29.7262   20.1376 C   0  0  0  0  0  0
  -25.4151  -36.2968   24.0289 C   0  0  1  0  0  0
  -20.5973  -28.3788   23.1225 C   0  0  2  0  0  0
  -20.6810  -26.9459   22.5448 C   0  0  0  0  0  0
  -19.5788  -26.6374   21.5250 C   0  0  0  0  0  0
  -18.1960  -26.7945   22.1612 C   0  0  0  0  0  0
  -19.1589  -28.8924   23.2818 C   0  0  0  0  0  0
  -18.9474  -30.1517   23.8855 C   0  0  0  0  0  0
  -17.6456  -30.6611   24.0559 C   0  0  0  0  0  0
  -25.9104  -34.9336   23.4970 C   0  0  0  0  0  0
  -16.5364  -29.9074   23.6345 C   0  0  0  0  0  0
  -16.7292  -28.6507   23.0323 C   0  0  0  0  0  0
  -26.4529  -31.6499   25.0671 C   0  0  0  0  0  0
  -25.3598  -31.3772   26.1294 C   0  0  0  0  0  0
  -27.0427  -30.2871   24.6480 C   0  0  0  0  0  0
  -27.6031  -32.4302   25.7460 C   0  0  0  0  0  0
  -27.5588  -37.1789   24.8467 C   0  0  0  0  0  0
  -21.4372  -29.3035   22.3508 N   0  0  0  0  0  0
  -26.4309  -37.3688   23.9370 N   0  0  0  0  0  0
  -24.7592  -30.9744   22.0778 N   0  0  0  0  0  0
  -23.4251  -28.7992   23.3062 O   0  0  0  0  0  0
  -28.2199  -25.7419   20.4462 O   0  0  0  0  0  0
  -26.5701  -34.8864   22.4566 O   0  0  0  0  0  0
  -23.5743  -32.1137   23.6688 O   0  0  0  0  0  0
  -26.5671  -20.7277   20.1347 C   0  0  0  0  0  0
  -26.9748  -22.0800   20.2505 C   0  0  0  0  0  0
  -27.4534  -19.6161   20.0523 C   0  0  0  0  0  0
  -28.3262  -22.4564   20.2494 C   0  0  0  0  0  0
  -28.8553  -19.7878   20.2047 C   0  0  0  0  0  0
  -26.8481  -18.2506   19.7498 C   0  0  0  0  0  0
  -29.1387  -24.3535   18.5264 C   0  0  0  0  0  0
  -29.8749  -18.3265   20.2720 C   0  0  0  0  0  0
  -28.6898  -24.1821   19.9714 C   0  0  1  0  0  0
  -29.2122  -21.2430   20.2484 N   0  0  0  0  0  0
  -29.6202  -16.6453   20.3420 N   0  0  0  0  0  0
  -31.4450  -13.0820   19.1897 H   0  0  0  0  0  0
  -30.5076  -11.9827   20.1577 H   0  0  0  0  0  0
  -29.9294  -11.7536   17.7068 H   0  0  0  0  0  0
  -29.5355  -13.4523   17.6149 H   0  0  0  0  0  0
  -28.0539  -11.2685   19.1086 H   0  0  0  0  0  0
  -27.4125  -12.3006   17.8602 H   0  0  0  0  0  0
  -27.4927  -14.2248   19.2810 H   0  0  0  0  0  0
  -28.8275  -12.5832   21.4865 H   0  0  0  0  0  0
  -28.2533  -14.2207   21.6583 H   0  0  0  0  0  0
  -25.2739   -9.5710   22.4780 H   0  0  0  0  0  0
  -24.0015   -7.4635   22.7479 H   0  0  0  0  0  0
  -21.0843   -8.8746   19.8941 H   0  0  0  0  0  0
  -22.3673  -10.9662   19.6190 H   0  0  0  0  0  0
  -21.2012   -7.6157   23.9707 H   0  0  0  0  0  0
  -21.1478   -6.0534   25.9069 H   0  0  0  0  0  0
  -22.0592   -2.7619   23.2838 H   0  0  0  0  0  0
  -22.4024  -11.9832   22.4823 H   0  0  0  0  0  0
  -21.1009  -13.1160   22.2672 H   0  0  0  0  0  0
  -24.6163  -15.8288   20.4951 H   0  0  0  0  0  0
  -26.2196  -15.6066   19.9969 H   0  0  0  0  0  0
  -26.7375  -32.4916   23.0777 H   0  0  0  0  0  0
  -25.0103  -33.9343   25.0110 H   0  0  0  0  0  0
  -22.8061  -31.2615   21.3394 H   0  0  0  0  0  0
  -23.3756  -35.9546   23.3321 H   0  0  0  0  0  0
  -24.3632  -36.8850   22.2089 H   0  0  0  0  0  0
  -23.7221  -37.6390   23.6731 H   0  0  0  0  0  0
  -26.2466  -31.3271   20.6240 H   0  0  0  0  0  0
  -26.9112  -30.6538   22.0629 H   0  0  0  0  0  0
  -28.1001  -28.5037   21.3431 H   0  0  0  0  0  0
  -25.8768  -25.6820   18.9762 H   0  0  0  0  0  0
  -24.0342  -27.2637   18.8913 H   0  0  0  0  0  0
  -23.8734  -30.4923   19.3736 H   0  0  0  0  0  0
  -22.8239  -29.1928   19.8192 H   0  0  0  0  0  0
  -25.1366  -36.1801   25.0789 H   0  0  0  0  0  0
  -21.0035  -28.3360   24.1371 H   0  0  0  0  0  0
  -20.5733  -26.2374   23.3672 H   0  0  0  0  0  0
  -21.6662  -26.7412   22.1258 H   0  0  0  0  0  0
  -19.6954  -25.6268   21.1317 H   0  0  0  0  0  0
  -19.6762  -27.3159   20.6755 H   0  0  0  0  0  0
  -17.4257  -26.6719   21.3976 H   0  0  0  0  0  0
  -18.0303  -26.0113   22.9003 H   0  0  0  0  0  0
  -19.7961  -30.7353   24.2206 H   0  0  0  0  0  0
  -17.4993  -31.6281   24.5171 H   0  0  0  0  0  0
  -15.5353  -30.2921   23.7736 H   0  0  0  0  0  0
  -15.8694  -28.0817   22.7020 H   0  0  0  0  0  0
  -24.5859  -30.7010   25.7596 H   0  0  0  0  0  0
  -24.8662  -32.2944   26.4539 H   0  0  0  0  0  0
  -25.7796  -30.9087   27.0183 H   0  0  0  0  0  0
  -26.3075  -29.6524   24.1498 H   0  0  0  0  0  0
  -27.3926  -29.7342   25.5194 H   0  0  0  0  0  0
  -27.9022  -30.4044   23.9865 H   0  0  0  0  0  0
  -27.2658  -33.3677   26.1868 H   0  0  0  0  0  0
  -28.3932  -32.6687   25.0308 H   0  0  0  0  0  0
  -28.0581  -31.8502   26.5501 H   0  0  0  0  0  0
  -28.2599  -38.0072   24.7512 H   0  0  0  0  0  0
  -28.1083  -36.2624   24.6339 H   0  0  0  0  0  0
  -27.2335  -37.1474   25.8868 H   0  0  0  0  0  0
  -20.9647  -29.8723   21.6615 H   0  0  0  0  0  0
  -26.0183  -38.2776   24.1309 H   0  0  0  0  0  0
  -25.5083  -20.5453   20.0351 H   0  0  0  0  0  0
  -26.2155  -22.8460   20.2518 H   0  0  0  0  0  0
  -25.8818  -18.3695   19.2527 H   0  0  0  0  0  0
  -26.6852  -17.6498   20.6463 H   0  0  0  0  0  0
  -27.4568  -17.6696   19.0557 H   0  0  0  0  0  0
  -29.9305  -23.6447   18.2780 H   0  0  0  0  0  0
  -29.5608  -25.3480   18.3785 H   0  0  0  0  0  0
  -28.3134  -24.2040   17.8310 H   0  0  0  0  0  0
  -30.5081  -18.5041   21.1407 H   0  0  0  0  0  0
  -30.5535  -18.4537   19.4268 H   0  0  0  0  0  0
  -29.6232  -24.1859   20.5415 H   0  0  0  0  0  0
  -28.6374  -16.4458   20.4228 H   0  0  0  0  0  0
  1 25  1  0  0  0
  1 30  2  0  0  0
  1 81  1  0  0  0
  2  3  1  0  0  0
  2 25  1  0  0  0
  2 82  1  0  0  0
  2 83  1  0  0  0
  3  4  1  0  0  0
  3 84  1  0  0  0
  3 85  1  0  0  0
  4  5  1  0  0  0
  4 86  1  0  0  0
  4 87  1  0  0  0
  5  6  1  0  0  0
  5 26  1  0  0  0
  5 88  1  0  0  0
  6 25  1  0  0  0
  6 89  1  0  0  0
  6 90  1  0  0  0
  7  8  2  0  0  0
  7 26  1  0  0  0
  7 29  1  0  0  0
  8  9  1  0  0  0
  8 22  1  0  0  0
  9 10  1  0  0  0
  9 27  2  0  0  0
 10 11  2  0  0  0
 10 15  1  0  0  0
 11 12  1  0  0  0
 11 91  1  0  0  0
 12 13  2  0  0  0
 12 92  1  0  0  0
 13 14  1  0  0  0
 13 31  1  0  0  0
 14 15  2  0  0  0
 14 93  1  0  0  0
 15 94  1  0  0  0
 16 17  2  0  0  0
 16 21  1  0  0  0
 16 31  1  0  0  0
 17 18  1  0  0  0
 17 95  1  0  0  0
 18 19  2  0  0  0
 18 96  1  0  0  0
 19 20  1  0  0  0
 19 24  1  0  0  0
 20 21  2  0  0  0
 20 97  1  0  0  0
 21 23  1  0  0  0
 22 28  1  0  0  0
 22 32  2  0  0  0
 26 27  1  0  0  0
 28 98  1  0  0  0
 28 99  1  0  0  0
 29100  1  0  0  0
 29101  1  0  0  0
 33 34  1  0  0  0
 33 66  1  0  0  0
 33 70  2  0  0  0
 34 36  1  0  0  0
 34 59  1  0  0  0
 34102  1  0  0  0
 35 44  2  0  0  0
 35 45  1  0  0  0
 35 68  1  0  0  0
 36 56  1  0  0  0
 36103  1  0  0  0
 37 39  1  0  0  0
 37 47  1  0  0  0
 37 66  1  0  0  0
 37104  1  0  0  0
 38 43  2  0  0  0
 38 46  1  0  0  0
 38 47  1  0  0  0
 39 64  1  0  0  0
 39 67  2  0  0  0
 40 52  1  0  0  0
 40 53  2  0  0  0
 40 58  1  0  0  0
 41105  1  0  0  0
 41106  1  0  0  0
 41107  1  0  0  0
 41 48  1  0  0  0
 42 43  1  0  0  0
 42 66  1  0  0  0
 42108  1  0  0  0
 42109  1  0  0  0
 43 44  1  0  0  0
 44110  1  0  0  0
 45 46  2  0  0  0
 45111  1  0  0  0
 46112  1  0  0  0
 47113  1  0  0  0
 47114  1  0  0  0
 48 56  1  0  0  0
 48 65  1  0  0  0
 48115  1  0  0  0
 49 50  1  0  0  0
 49 53  1  0  0  0
 49 64  1  0  0  0
 49116  1  0  0  0
 50 51  1  0  0  0
 50117  1  0  0  0
 50118  1  0  0  0
 51 52  1  0  0  0
 51119  1  0  0  0
 51120  1  0  0  0
 52121  1  0  0  0
 52122  1  0  0  0
 53 54  1  0  0  0
 54 55  2  0  0  0
 54123  1  0  0  0
 55 57  1  0  0  0
 55124  1  0  0  0
 56 69  2  0  0  0
 57 58  2  0  0  0
 57125  1  0  0  0
 58126  1  0  0  0
 59 60  1  0  0  0
 59 61  1  0  0  0
 59 62  1  0  0  0
 60127  1  0  0  0
 60128  1  0  0  0
 60129  1  0  0  0
 61130  1  0  0  0
 61131  1  0  0  0
 61132  1  0  0  0
 62133  1  0  0  0
 62134  1  0  0  0
 62135  1  0  0  0
 63 65  1  0  0  0
 63136  1  0  0  0
 63137  1  0  0  0
 63138  1  0  0  0
 64139  1  0  0  0
 65140  1  0  0  0
 68 79  1  0  0  0
 71 72  2  0  0  0
 71 73  1  0  0  0
 71141  1  0  0  0
 72 74  1  0  0  0
 72142  1  0  0  0
 73 75  2  0  0  0
 73 76  1  0  0  0
 74 79  1  0  0  0
 74 80  2  0  0  0
 75 78  1  0  0  0
 75 80  1  0  0  0
 76143  1  0  0  0
 76144  1  0  0  0
 76145  1  0  0  0
 77146  1  0  0  0
 77147  1  0  0  0
 77148  1  0  0  0
 77 79  1  0  0  0
 78 81  1  0  0  0
 78149  1  0  0  0
 78150  1  0  0  0
 79151  1  0  0  0
 81152  1  0  0  0
M  ISO  4   1 100  68 101  79 101  81 100
M  END
> <chiral flag>
0

> <version>
0

> <s_m_source_file>
/data/baiqing/PycharmProjects/Reinvent-master-3.2/result/LINK_invent/BTK/process_docking_weight1_custom_sum_contain_oxygen_bond_distance_aromatic_linkinvent_7_9_3/rearranged_h_0109.sdf

> <i_m_source_file_index>
7

> <r_mmod_Potential_Energy-OPLS-2005>
1359.14978027344

> <r_mmod_Stretch_Energy-OPLS-2005>
697.694274902344

> <r_mmod_Bend_Energy-OPLS-2005>
572.368835449219

> <r_mmod_Torsional_Energy-OPLS-2005>
208.687255859375

> <r_mmod_Improper_Torsional_Energy-OPLS-2005>
6.65172863006592

> <r_mmod_Van_der_Waal_Energy-OPLS-2005>
118.679718017578

> <r_mmod_Electrostatic_Energy-OPLS-2005>
-590.692138671875

> <r_mmod_Solvation_Energy-OPLS-2005>
-234.887390136719

> <b_mmod_Minimization_Converged-OPLS-2005>
0

> <r_mmod_RMS_Derivative-OPLS-2005>
8.23918724060059

$$$$
7
                    3D
 Structure written by MMmdl.
158165  0  0  1  0            999 V2000
  -30.4273  -15.2713   20.3707 C   0  0  0  0  0  0
  -30.4385  -12.8197   19.5076 C   0  0  0  0  0  0
  -29.5299  -12.5660   18.2792 C   0  0  0  0  0  0
  -28.0815  -12.2862   18.7168 C   0  0  0  0  0  0
  -27.6077  -13.2696   19.8150 C   0  0  2  0  0  0
  -28.6444  -13.4524   20.9423 C   0  0  0  0  0  0
  -25.2378  -13.8229   20.5760 C   0  0  0  0  0  0
  -24.1732  -13.0423   20.9278 C   0  0  0  0  0  0
  -24.6389  -11.6928   20.8767 C   0  0  0  0  0  0
  -23.9083  -10.4294   21.0409 C   0  0  0  0  0  0
  -24.3630   -9.4206   21.9190 C   0  0  0  0  0  0
  -23.6305   -8.2240   22.0758 C   0  0  0  0  0  0
  -22.4283   -8.0282   21.3547 C   0  0  0  0  0  0
  -21.9924   -9.0249   20.4643 C   0  0  0  0  0  0
  -22.7253  -10.2134   20.3056 C   0  0  0  0  0  0
  -21.6853   -6.0749   22.5283 C   0  0  0  0  0  0
  -21.4009   -6.5649   23.8213 C   0  0  0  0  0  0
  -21.3654   -5.6801   24.9175 C   0  0  0  0  0  0
  -21.6049   -4.3064   24.7226 C   0  0  0  0  0  0
  -21.8811   -3.8156   23.4342 C   0  0  0  0  0  0
  -21.9193   -4.6976   22.3398 C   0  0  0  0  0  0
  -22.7755  -13.5185   21.1922 C   0  0  0  0  0  0
  -22.1662   -4.2165   21.0976 F   0  0  0  0  0  0
  -21.5631   -3.4541   25.7734 F   0  0  0  0  0  0
  -29.8667  -13.9655   20.3026 N   0  0  0  0  0  0
  -26.2799  -12.9501   20.3202 N   0  0  0  0  0  0
  -25.9318  -11.6616   20.5721 N   0  0  0  0  0  0
  -22.0411  -12.8162   22.0471 N   0  0  0  0  0  0
  -25.4001  -15.1973   20.4209 N   0  0  0  0  0  0
  -31.6582  -15.2734   20.2249 O   0  0  0  0  0  0
  -21.6644   -6.8886   21.4243 O   0  0  0  0  0  0
  -22.3441  -14.5488   20.6772 O   0  0  0  0  0  0
  -24.6605  -31.8239   23.1704 C   0  0  0  0  0  0
  -25.9296  -32.4580   23.8148 C   0  0  1  0  0  0
  -27.2045  -26.9262   20.1975 C   0  0  0  0  0  0
  -25.5988  -33.8390   24.2059 N   0  0  0  0  0  0
  -23.4746  -30.4409   21.5181 C   0  0  2  0  0  0
  -24.9259  -28.8250   20.1155 C   0  0  0  0  0  0
  -22.7651  -29.4471   22.4751 C   0  0  0  0  0  0
  -18.0330  -28.1419   22.8473 C   0  0  0  0  0  0
  -24.1501  -36.7204   23.2660 C   0  0  0  0  0  0
  -26.0451  -30.6288   21.4037 C   0  0  0  0  0  0
  -26.1081  -29.2183   20.7529 C   0  0  0  0  0  0
  -27.2455  -28.2915   20.7671 C   0  0  0  0  0  0
  -25.9986  -26.6911   19.5003 C   0  0  0  0  0  0
  -24.8937  -27.5796   19.4697 C   0  0  0  0  0  0
  -23.7150  -29.7563   20.1442 C   0  0  0  0  0  0
  -25.4136  -36.2937   24.0299 C   0  0  1  0  0  0
  -20.5962  -28.3753   23.1185 C   0  0  2  0  0  0
  -20.6818  -26.9439   22.5393 C   0  0  0  0  0  0
  -19.5787  -26.6373   21.5225 C   0  0  0  0  0  0
  -18.1965  -26.7962   22.1618 C   0  0  0  0  0  0
  -19.1597  -28.8903   23.2824 C   0  0  0  0  0  0
  -18.9509  -30.1503   23.8849 C   0  0  0  0  0  0
  -17.6506  -30.6610   24.0563 C   0  0  0  0  0  0
  -25.9098  -34.9329   23.4985 C   0  0  0  0  0  0
  -16.5392  -29.9091   23.6347 C   0  0  0  0  0  0
  -16.7311  -28.6518   23.0365 C   0  0  0  0  0  0
  -26.4536  -31.6533   25.0679 C   0  0  0  0  0  0
  -25.3625  -31.3783   26.1307 C   0  0  0  0  0  0
  -27.0452  -30.2910   24.6422 C   0  0  0  0  0  0
  -27.6044  -32.4343   25.7454 C   0  0  0  0  0  0
  -27.5556  -37.1760   24.8463 C   0  0  0  0  0  0
  -21.4330  -29.3066   22.3530 N   0  0  0  0  0  0
  -26.4260  -37.3692   23.9419 N   0  0  0  0  0  0
  -24.7483  -30.9908   22.0843 N   0  0  0  0  0  0
  -23.4224  -28.8039   23.2971 O   0  0  0  0  0  0
  -28.2207  -25.8304   20.1855 O   0  0  0  0  0  0
  -26.5694  -34.8878   22.4570 O   0  0  0  0  0  0
  -23.5673  -32.1205   23.6784 O   0  0  0  0  0  0
  -26.4590  -22.9408   22.2524 C   0  0  0  0  0  0
  -29.9929  -18.3395   22.1725 C   0  0  0  0  0  0
  -29.1538  -24.3773   21.8535 C   0  0  0  0  0  0
  -26.7135  -24.0951   21.2648 C   0  0  0  0  0  0
  -28.9745  -19.6417   20.0844 C   0  0  0  0  0  0
  -28.5639  -22.6642   19.9324 C   0  0  0  0  0  0
  -29.8706  -18.1798   20.6513 C   0  0  2  0  0  0
  -28.1536  -24.2490   20.6941 C   0  0  1  0  0  0
  -29.6456  -16.5355   20.4049 N   0  0  0  0  0  0
  -29.0718  -21.2227   20.6173 N   0  3  0  0  0  0
  -31.4510  -13.0413   19.1669 H   0  0  0  0  0  0
  -30.5263  -11.9241   20.1234 H   0  0  0  0  0  0
  -29.9136  -11.7332   17.6879 H   0  0  0  0  0  0
  -29.5503  -13.4397   17.6265 H   0  0  0  0  0  0
  -28.0465  -11.2666   19.1015 H   0  0  0  0  0  0
  -27.4081  -12.3138   17.8588 H   0  0  0  0  0  0
  -27.5172  -14.2316   19.3089 H   0  0  0  0  0  0
  -28.8231  -12.5211   21.4811 H   0  0  0  0  0  0
  -28.2833  -14.1755   21.6753 H   0  0  0  0  0  0
  -25.2770   -9.5697   22.4766 H   0  0  0  0  0  0
  -24.0020   -7.4636   22.7471 H   0  0  0  0  0  0
  -21.0867   -8.8764   19.8937 H   0  0  0  0  0  0
  -22.3707  -10.9675   19.6167 H   0  0  0  0  0  0
  -21.1989   -7.6157   23.9724 H   0  0  0  0  0  0
  -21.1485   -6.0528   25.9082 H   0  0  0  0  0  0
  -22.0590   -2.7620   23.2831 H   0  0  0  0  0  0
  -22.4050  -11.9824   22.4843 H   0  0  0  0  0  0
  -21.1014  -13.1156   22.2668 H   0  0  0  0  0  0
  -24.6242  -15.8400   20.5350 H   0  0  0  0  0  0
  -26.2347  -15.6448   20.0670 H   0  0  0  0  0  0
  -26.7341  -32.5091   23.0837 H   0  0  0  0  0  0
  -25.0118  -33.9468   25.0199 H   0  0  0  0  0  0
  -22.7890  -31.2736   21.3458 H   0  0  0  0  0  0
  -23.3754  -35.9545   23.3270 H   0  0  0  0  0  0
  -24.3593  -36.8883   22.2086 H   0  0  0  0  0  0
  -23.7280  -37.6395   23.6730 H   0  0  0  0  0  0
  -26.2294  -31.3662   20.6223 H   0  0  0  0  0  0
  -26.9070  -30.6811   22.0565 H   0  0  0  0  0  0
  -28.1433  -28.6002   21.2830 H   0  0  0  0  0  0
  -25.8851  -25.7491   18.9839 H   0  0  0  0  0  0
  -23.9978  -27.2743   18.9484 H   0  0  0  0  0  0
  -23.8715  -30.5245   19.3848 H   0  0  0  0  0  0
  -22.8241  -29.2108   19.8261 H   0  0  0  0  0  0
  -25.1348  -36.1695   25.0790 H   0  0  0  0  0  0
  -21.0066  -28.3331   24.1298 H   0  0  0  0  0  0
  -20.5750  -26.2354   23.3626 H   0  0  0  0  0  0
  -21.6670  -26.7431   22.1181 H   0  0  0  0  0  0
  -19.6947  -25.6275   21.1273 H   0  0  0  0  0  0
  -19.6738  -27.3168   20.6754 H   0  0  0  0  0  0
  -17.4254  -26.6723   21.4005 H   0  0  0  0  0  0
  -18.0317  -26.0136   22.9026 H   0  0  0  0  0  0
  -19.7990  -30.7343   24.2172 H   0  0  0  0  0  0
  -17.5058  -31.6285   24.5174 H   0  0  0  0  0  0
  -15.5400  -30.2985   23.7722 H   0  0  0  0  0  0
  -15.8707  -28.0832   22.7098 H   0  0  0  0  0  0
  -24.5859  -30.7093   25.7590 H   0  0  0  0  0  0
  -24.8756  -32.2982   26.4557 H   0  0  0  0  0  0
  -25.7828  -30.9052   27.0191 H   0  0  0  0  0  0
  -26.3136  -29.6570   24.1413 H   0  0  0  0  0  0
  -27.4012  -29.7291   25.5074 H   0  0  0  0  0  0
  -27.9040  -30.4137   23.9825 H   0  0  0  0  0  0
  -27.2656  -33.3730   26.1837 H   0  0  0  0  0  0
  -28.3925  -32.6770   25.0305 H   0  0  0  0  0  0
  -28.0612  -31.8577   26.5502 H   0  0  0  0  0  0
  -28.2547  -38.0081   24.7516 H   0  0  0  0  0  0
  -28.1069  -36.2615   24.6259 H   0  0  0  0  0  0
  -27.2262  -37.1351   25.8858 H   0  0  0  0  0  0
  -20.9542  -29.8749   21.6682 H   0  0  0  0  0  0
  -26.0070  -38.2730   24.1445 H   0  0  0  0  0  0
  -26.6840  -21.9646   21.8282 H   0  0  0  0  0  0
  -25.4084  -22.9234   22.5426 H   0  0  0  0  0  0
  -27.0321  -23.0647   23.1720 H   0  0  0  0  0  0
  -30.4138  -19.3092   22.4381 H   0  0  0  0  0  0
  -30.6477  -17.5816   22.6039 H   0  0  0  0  0  0
  -29.0189  -18.2566   22.6540 H   0  0  0  0  0  0
  -29.2154  -23.4676   22.4490 H   0  0  0  0  0  0
  -28.8830  -25.1879   22.5300 H   0  0  0  0  0  0
  -30.1526  -24.5827   21.4741 H   0  0  0  0  0  0
  -26.4223  -25.0057   21.7859 H   0  0  0  0  0  0
  -26.0183  -23.9869   20.4324 H   0  0  0  0  0  0
  -27.9141  -19.3972   20.1569 H   0  0  0  0  0  0
  -29.1557  -19.7037   19.0113 H   0  0  0  0  0  0
  -29.3354  -22.8892   19.1967 H   0  0  0  0  0  0
  -27.7002  -22.3964   19.3226 H   0  0  0  0  0  0
  -30.8769  -18.3340   20.2587 H   0  0  0  0  0  0
  -28.6605  -16.3167   20.3600 H   0  0  0  0  0  0
  -30.0533  -21.3699   20.7933 H   0  0  0  0  0  0
  -28.6437  -21.1966   21.5286 H   0  0  0  0  0  0
  1 25  1  0  0  0
  1 30  2  0  0  0
  1 79  1  0  0  0
  2  3  1  0  0  0
  2 25  1  0  0  0
  2 81  1  0  0  0
  2 82  1  0  0  0
  3  4  1  0  0  0
  3 83  1  0  0  0
  3 84  1  0  0  0
  4  5  1  0  0  0
  4 85  1  0  0  0
  4 86  1  0  0  0
  5  6  1  0  0  0
  5 26  1  0  0  0
  5 87  1  0  0  0
  6 25  1  0  0  0
  6 88  1  0  0  0
  6 89  1  0  0  0
  7  8  2  0  0  0
  7 26  1  0  0  0
  7 29  1  0  0  0
  8  9  1  0  0  0
  8 22  1  0  0  0
  9 10  1  0  0  0
  9 27  2  0  0  0
 10 11  2  0  0  0
 10 15  1  0  0  0
 11 12  1  0  0  0
 11 90  1  0  0  0
 12 13  2  0  0  0
 12 91  1  0  0  0
 13 14  1  0  0  0
 13 31  1  0  0  0
 14 15  2  0  0  0
 14 92  1  0  0  0
 15 93  1  0  0  0
 16 17  2  0  0  0
 16 21  1  0  0  0
 16 31  1  0  0  0
 17 18  1  0  0  0
 17 94  1  0  0  0
 18 19  2  0  0  0
 18 95  1  0  0  0
 19 20  1  0  0  0
 19 24  1  0  0  0
 20 21  2  0  0  0
 20 96  1  0  0  0
 21 23  1  0  0  0
 22 28  1  0  0  0
 22 32  2  0  0  0
 26 27  1  0  0  0
 28 97  1  0  0  0
 28 98  1  0  0  0
 29 99  1  0  0  0
 29100  1  0  0  0
 33 34  1  0  0  0
 33 66  1  0  0  0
 33 70  2  0  0  0
 34 36  1  0  0  0
 34 59  1  0  0  0
 34101  1  0  0  0
 35 44  2  0  0  0
 35 45  1  0  0  0
 35 68  1  0  0  0
 36 56  1  0  0  0
 36102  1  0  0  0
 37 39  1  0  0  0
 37 47  1  0  0  0
 37 66  1  0  0  0
 37103  1  0  0  0
 38 43  2  0  0  0
 38 46  1  0  0  0
 38 47  1  0  0  0
 39 64  1  0  0  0
 39 67  2  0  0  0
 40 52  1  0  0  0
 40 53  2  0  0  0
 40 58  1  0  0  0
 41104  1  0  0  0
 41105  1  0  0  0
 41106  1  0  0  0
 41 48  1  0  0  0
 42 43  1  0  0  0
 42 66  1  0  0  0
 42107  1  0  0  0
 42108  1  0  0  0
 43 44  1  0  0  0
 44109  1  0  0  0
 45 46  2  0  0  0
 45110  1  0  0  0
 46111  1  0  0  0
 47112  1  0  0  0
 47113  1  0  0  0
 48 56  1  0  0  0
 48 65  1  0  0  0
 48114  1  0  0  0
 49 50  1  0  0  0
 49 53  1  0  0  0
 49 64  1  0  0  0
 49115  1  0  0  0
 50 51  1  0  0  0
 50116  1  0  0  0
 50117  1  0  0  0
 51 52  1  0  0  0
 51118  1  0  0  0
 51119  1  0  0  0
 52120  1  0  0  0
 52121  1  0  0  0
 53 54  1  0  0  0
 54 55  2  0  0  0
 54122  1  0  0  0
 55 57  1  0  0  0
 55123  1  0  0  0
 56 69  2  0  0  0
 57 58  2  0  0  0
 57124  1  0  0  0
 58125  1  0  0  0
 59 60  1  0  0  0
 59 61  1  0  0  0
 59 62  1  0  0  0
 60126  1  0  0  0
 60127  1  0  0  0
 60128  1  0  0  0
 61129  1  0  0  0
 61130  1  0  0  0
 61131  1  0  0  0
 62132  1  0  0  0
 62133  1  0  0  0
 62134  1  0  0  0
 63 65  1  0  0  0
 63135  1  0  0  0
 63136  1  0  0  0
 63137  1  0  0  0
 64138  1  0  0  0
 65139  1  0  0  0
 68 78  1  0  0  0
 71 74  1  0  0  0
 71140  1  0  0  0
 71141  1  0  0  0
 71142  1  0  0  0
 72143  1  0  0  0
 72144  1  0  0  0
 72145  1  0  0  0
 72 77  1  0  0  0
 73146  1  0  0  0
 73147  1  0  0  0
 73148  1  0  0  0
 73 78  1  0  0  0
 74 78  1  0  0  0
 74149  1  0  0  0
 74150  1  0  0  0
 75 77  1  0  0  0
 75 80  1  0  0  0
 75151  1  0  0  0
 75152  1  0  0  0
 76 78  1  0  0  0
 76 80  1  0  0  0
 76153  1  0  0  0
 76154  1  0  0  0
 77 79  1  0  0  0
 77155  1  0  0  0
 79156  1  0  0  0
 80157  1  0  0  0
 80158  1  0  0  0
M  CHG  1  80   1
M  ISO  4   1 100  68 101  78 101  79 100
M  END
> <chiral flag>
0

> <version>
0

> <s_m_source_file>
/data/baiqing/PycharmProjects/Reinvent-master-3.2/result/LINK_invent/BTK/process_docking_weight1_custom_sum_contain_oxygen_bond_distance_aromatic_linkinvent_7_9_3/rearranged_h_0109.sdf

> <i_m_source_file_index>
8

> <r_mmod_Potential_Energy-OPLS-2005>
1164.36962890625

> <r_mmod_Stretch_Energy-OPLS-2005>
614.137878417969

> <r_mmod_Bend_Energy-OPLS-2005>
457.6044921875

> <r_mmod_Torsional_Energy-OPLS-2005>
269.670043945312

> <r_mmod_Improper_Torsional_Energy-OPLS-2005>
4.11542367935181

> <r_mmod_Van_der_Waal_Energy-OPLS-2005>
108.623657226562

> <r_mmod_Electrostatic_Energy-OPLS-2005>
-292.470855712891

> <r_mmod_Solvation_Energy-OPLS-2005>
-458.987670898438

> <b_mmod_Minimization_Converged-OPLS-2005>
0

> <r_mmod_RMS_Derivative-OPLS-2005>
2.69125962257385

$$$$
8
                    3D
 Structure written by MMmdl.
167174  0  0  1  0            999 V2000
  -30.5680  -14.9117   20.3968 C   0  0  0  0  0  0
  -30.4464  -12.5656   19.4686 C   0  0  0  0  0  0
  -29.5113  -12.5063   18.2388 C   0  0  0  0  0  0
  -28.0446  -12.3124   18.6689 C   0  0  0  0  0  0
  -27.6354  -13.2448   19.8391 C   0  0  2  0  0  0
  -28.6900  -13.2598   20.9655 C   0  0  0  0  0  0
  -25.2506  -13.8229   20.5729 C   0  0  0  0  0  0
  -24.1805  -13.0445   20.9231 C   0  0  0  0  0  0
  -24.6406  -11.6929   20.8761 C   0  0  0  0  0  0
  -23.9074  -10.4299   21.0402 C   0  0  0  0  0  0
  -24.3618   -9.4214   21.9178 C   0  0  0  0  0  0
  -23.6293   -8.2249   22.0756 C   0  0  0  0  0  0
  -22.4273   -8.0284   21.3542 C   0  0  0  0  0  0
  -21.9908   -9.0258   20.4646 C   0  0  0  0  0  0
  -22.7237  -10.2141   20.3055 C   0  0  0  0  0  0
  -21.6855   -6.0722   22.5269 C   0  0  0  0  0  0
  -21.4008   -6.5631   23.8200 C   0  0  0  0  0  0
  -21.3659   -5.6790   24.9164 C   0  0  0  0  0  0
  -21.6046   -4.3054   24.7225 C   0  0  0  0  0  0
  -21.8821   -3.8137   23.4346 C   0  0  0  0  0  0
  -21.9198   -4.6953   22.3401 C   0  0  0  0  0  0
  -22.7832  -13.5227   21.1863 C   0  0  0  0  0  0
  -22.1666   -4.2130   21.0984 F   0  0  0  0  0  0
  -21.5636   -3.4546   25.7742 F   0  0  0  0  0  0
  -29.9615  -13.6617   20.3511 N   0  0  0  0  0  0
  -26.2940  -12.9445   20.3301 N   0  0  0  0  0  0
  -25.9353  -11.6572   20.5781 N   0  0  0  0  0  0
  -22.0482  -12.8213   22.0429 N   0  0  0  0  0  0
  -25.4178  -15.1947   20.4126 N   0  0  0  0  0  0
  -31.7771  -14.9728   20.1540 O   0  0  0  0  0  0
  -21.6648   -6.8870   21.4230 O   0  0  0  0  0  0
  -22.3503  -14.5515   20.6697 O   0  0  0  0  0  0
  -24.6448  -31.8414   23.1903 C   0  0  0  0  0  0
  -25.9219  -32.4676   23.8288 C   0  0  1  0  0  0
  -27.2054  -27.1322   20.1565 C   0  0  0  0  0  0
  -25.5948  -33.8478   24.2175 N   0  0  0  0  0  0
  -23.4505  -30.4606   21.5357 C   0  0  2  0  0  0
  -24.9002  -28.8958   20.1058 C   0  0  0  0  0  0
  -22.7603  -29.4488   22.4844 C   0  0  0  0  0  0
  -18.0289  -28.1420   22.8424 C   0  0  0  0  0  0
  -24.1480  -36.7245   23.2641 C   0  0  0  0  0  0
  -26.0070  -30.7179   21.3917 C   0  0  0  0  0  0
  -26.0770  -29.3299   20.7302 C   0  0  0  0  0  0
  -27.2341  -28.4639   20.7356 C   0  0  0  0  0  0
  -26.0204  -26.8187   19.4592 C   0  0  0  0  0  0
  -24.8852  -27.6558   19.4506 C   0  0  0  0  0  0
  -23.6804  -29.8021   20.1513 C   0  0  0  0  0  0
  -25.4107  -36.3006   24.0309 C   0  0  1  0  0  0
  -20.5899  -28.3713   23.1218 C   0  0  2  0  0  0
  -20.6776  -26.9409   22.5405 C   0  0  0  0  0  0
  -19.5759  -26.6371   21.5199 C   0  0  0  0  0  0
  -18.1928  -26.7945   22.1597 C   0  0  0  0  0  0
  -19.1552  -28.8887   23.2795 C   0  0  0  0  0  0
  -18.9485  -30.1480   23.8818 C   0  0  0  0  0  0
  -17.6488  -30.6602   24.0545 C   0  0  0  0  0  0
  -25.9069  -34.9383   23.5044 C   0  0  0  0  0  0
  -16.5363  -29.9098   23.6357 C   0  0  0  0  0  0
  -16.7274  -28.6540   23.0323 C   0  0  0  0  0  0
  -26.4531  -31.6564   25.0741 C   0  0  0  0  0  0
  -25.3712  -31.3773   26.1440 C   0  0  0  0  0  0
  -27.0421  -30.2970   24.6341 C   0  0  0  0  0  0
  -27.6041  -32.4367   25.7527 C   0  0  0  0  0  0
  -27.5544  -37.1767   24.8460 C   0  0  0  0  0  0
  -21.4287  -29.3027   22.3601 N   0  0  0  0  0  0
  -26.4257  -37.3729   23.9410 N   0  0  0  0  0  0
  -24.7206  -31.0280   22.0950 N   0  0  0  0  0  0
  -23.4243  -28.7991   23.2957 O   0  0  0  0  0  0
  -28.2434  -26.1303   20.2021 O   0  0  0  0  0  0
  -26.5673  -34.8896   22.4638 O   0  0  0  0  0  0
  -23.5566  -32.1281   23.7131 O   0  0  0  0  0  0
  -24.9032  -19.9397   23.3934 C   0  0  0  0  0  0
  -25.0021  -18.8867   21.1272 C   0  0  0  0  0  0
  -26.6093  -24.3975   21.1874 C   0  0  0  0  0  0
  -29.1550  -18.8959   20.1851 C   0  0  0  0  0  0
  -26.6603  -20.7563   21.7595 C   0  0  0  0  0  0
  -30.1951  -17.6218   20.5207 C   0  0  0  0  0  0
  -29.4521  -20.5375   20.4888 C   0  0  0  0  0  0
  -27.0017  -21.2798   20.3359 C   0  0  0  0  0  0
  -28.7802  -23.2612   20.0045 C   0  0  0  0  0  0
  -25.2253  -20.1940   21.9127 C   0  0  0  0  0  0
  -28.0420  -24.6408   20.6761 C   0  0  1  0  0  0
  -29.7994  -16.0974   20.4991 N   0  0  0  0  0  0
  -28.4214  -21.6925   20.1290 N   0  3  1  0  0  0
  -31.4718  -12.7333   19.1337 H   0  0  0  0  0  0
  -30.4568  -11.6148   20.0030 H   0  0  0  0  0  0
  -29.8133  -11.6947   17.5744 H   0  0  0  0  0  0
  -29.6039  -13.4262   17.6591 H   0  0  0  0  0  0
  -27.9267  -11.2721   18.9708 H   0  0  0  0  0  0
  -27.3772  -12.4564   17.8183 H   0  0  0  0  0  0
  -27.6014  -14.2486   19.4154 H   0  0  0  0  0  0
  -28.7794  -12.2795   21.4349 H   0  0  0  0  0  0
  -28.4095  -13.9617   21.7526 H   0  0  0  0  0  0
  -25.2756   -9.5697   22.4756 H   0  0  0  0  0  0
  -23.9997   -7.4646   22.7487 H   0  0  0  0  0  0
  -21.0833   -8.8767   19.8962 H   0  0  0  0  0  0
  -22.3673  -10.9676   19.6173 H   0  0  0  0  0  0
  -21.1984   -7.6133   23.9684 H   0  0  0  0  0  0
  -21.1484   -6.0529   25.9065 H   0  0  0  0  0  0
  -22.0599   -2.7597   23.2860 H   0  0  0  0  0  0
  -22.4114  -11.9886   22.4807 H   0  0  0  0  0  0
  -21.1100  -13.1233   22.2639 H   0  0  0  0  0  0
  -24.6450  -15.8435   20.5120 H   0  0  0  0  0  0
  -26.2581  -15.6310   20.0568 H   0  0  0  0  0  0
  -26.7273  -32.5282   23.1013 H   0  0  0  0  0  0
  -25.0019  -33.9589   25.0266 H   0  0  0  0  0  0
  -22.7513  -31.2852   21.3844 H   0  0  0  0  0  0
  -23.3738  -35.9583   23.3312 H   0  0  0  0  0  0
  -24.3550  -36.8906   22.2055 H   0  0  0  0  0  0
  -23.7277  -37.6443   23.6714 H   0  0  0  0  0  0
  -26.1656  -31.4771   20.6252 H   0  0  0  0  0  0
  -26.8770  -30.7642   22.0348 H   0  0  0  0  0  0
  -28.1353  -28.7927   21.2321 H   0  0  0  0  0  0
  -25.9541  -25.8789   18.9322 H   0  0  0  0  0  0
  -23.9974  -27.3280   18.9270 H   0  0  0  0  0  0
  -23.8348  -30.5874   19.4097 H   0  0  0  0  0  0
  -22.7965  -29.2555   19.8206 H   0  0  0  0  0  0
  -25.1304  -36.1801   25.0803 H   0  0  0  0  0  0
  -20.9939  -28.3313   24.1359 H   0  0  0  0  0  0
  -20.5671  -26.2315   23.3618 H   0  0  0  0  0  0
  -21.6639  -26.7420   22.1184 H   0  0  0  0  0  0
  -19.6926  -25.6270   21.1264 H   0  0  0  0  0  0
  -19.6733  -27.3154   20.6697 H   0  0  0  0  0  0
  -17.4188  -26.6635   21.4015 H   0  0  0  0  0  0
  -18.0332  -26.0140   22.9044 H   0  0  0  0  0  0
  -19.7971  -30.7291   24.2165 H   0  0  0  0  0  0
  -17.5057  -31.6279   24.5161 H   0  0  0  0  0  0
  -15.5368  -30.2977   23.7760 H   0  0  0  0  0  0
  -15.8659  -28.0872   22.7047 H   0  0  0  0  0  0
  -24.5885  -30.7128   25.7758 H   0  0  0  0  0  0
  -24.8901  -32.2963   26.4795 H   0  0  0  0  0  0
  -25.7975  -30.8982   27.0264 H   0  0  0  0  0  0
  -26.3046  -29.6673   24.1346 H   0  0  0  0  0  0
  -27.4032  -29.7289   25.4920 H   0  0  0  0  0  0
  -27.8957  -30.4220   23.9671 H   0  0  0  0  0  0
  -27.2608  -33.3702   26.2005 H   0  0  0  0  0  0
  -28.3887  -32.6899   25.0380 H   0  0  0  0  0  0
  -28.0682  -31.8588   26.5529 H   0  0  0  0  0  0
  -28.2531  -38.0078   24.7481 H   0  0  0  0  0  0
  -28.1064  -36.2604   24.6312 H   0  0  0  0  0  0
  -27.2258  -37.1433   25.8860 H   0  0  0  0  0  0
  -20.9519  -29.8791   21.6810 H   0  0  0  0  0  0
  -26.0111  -38.2774   24.1492 H   0  0  0  0  0  0
  -23.8665  -19.6262   23.5249 H   0  0  0  0  0  0
  -25.0494  -20.8346   23.9987 H   0  0  0  0  0  0
  -25.5394  -19.1532   23.8038 H   0  0  0  0  0  0
  -24.0041  -18.4843   21.3099 H   0  0  0  0  0  0
  -25.7172  -18.1208   21.4303 H   0  0  0  0  0  0
  -25.0914  -19.0194   20.0495 H   0  0  0  0  0  0
  -26.5854  -23.5766   21.8950 H   0  0  0  0  0  0
  -25.9090  -24.1751   20.3856 H   0  0  0  0  0  0
  -26.2251  -25.2547   21.7397 H   0  0  0  0  0  0
  -28.2226  -18.6280   20.6713 H   0  0  0  0  0  0
  -28.9238  -18.8196   19.1227 H   0  0  0  0  0  0
  -26.8170  -21.5471   22.4876 H   0  0  0  0  0  0
  -27.3457  -19.9764   22.0776 H   0  0  0  0  0  0
  -30.5876  -17.7956   21.5234 H   0  0  0  0  0  0
  -31.0614  -17.7293   19.8644 H   0  0  0  0  0  0
  -30.3922  -20.7937   19.9998 H   0  0  0  0  0  0
  -29.6585  -20.6391   21.5540 H   0  0  0  0  0  0
  -26.3076  -22.0485   20.0064 H   0  0  0  0  0  0
  -26.8311  -20.4667   19.6319 H   0  0  0  0  0  0
  -29.8443  -23.3429   20.2228 H   0  0  0  0  0  0
  -28.7238  -23.4309   18.9294 H   0  0  0  0  0  0
  -24.5198  -20.9404   21.5438 H   0  0  0  0  0  0
  -28.5972  -24.7142   21.6115 H   0  0  0  0  0  0
  -28.8144  -15.9233   20.6306 H   0  0  0  0  0  0
  -28.4388  -21.5457   19.1280 H   0  0  0  0  0  0
  1 25  1  0  0  0
  1 30  2  0  0  0
  1 82  1  0  0  0
  2  3  1  0  0  0
  2 25  1  0  0  0
  2 84  1  0  0  0
  2 85  1  0  0  0
  3  4  1  0  0  0
  3 86  1  0  0  0
  3 87  1  0  0  0
  4  5  1  0  0  0
  4 88  1  0  0  0
  4 89  1  0  0  0
  5  6  1  0  0  0
  5 26  1  0  0  0
  5 90  1  0  0  0
  6 25  1  0  0  0
  6 91  1  0  0  0
  6 92  1  0  0  0
  7  8  2  0  0  0
  7 26  1  0  0  0
  7 29  1  0  0  0
  8  9  1  0  0  0
  8 22  1  0  0  0
  9 10  1  0  0  0
  9 27  2  0  0  0
 10 11  2  0  0  0
 10 15  1  0  0  0
 11 12  1  0  0  0
 11 93  1  0  0  0
 12 13  2  0  0  0
 12 94  1  0  0  0
 13 14  1  0  0  0
 13 31  1  0  0  0
 14 15  2  0  0  0
 14 95  1  0  0  0
 15 96  1  0  0  0
 16 17  2  0  0  0
 16 21  1  0  0  0
 16 31  1  0  0  0
 17 18  1  0  0  0
 17 97  1  0  0  0
 18 19  2  0  0  0
 18 98  1  0  0  0
 19 20  1  0  0  0
 19 24  1  0  0  0
 20 21  2  0  0  0
 20 99  1  0  0  0
 21 23  1  0  0  0
 22 28  1  0  0  0
 22 32  2  0  0  0
 26 27  1  0  0  0
 28100  1  0  0  0
 28101  1  0  0  0
 29102  1  0  0  0
 29103  1  0  0  0
 33 34  1  0  0  0
 33 66  1  0  0  0
 33 70  2  0  0  0
 34 36  1  0  0  0
 34 59  1  0  0  0
 34104  1  0  0  0
 35 44  2  0  0  0
 35 45  1  0  0  0
 35 68  1  0  0  0
 36 56  1  0  0  0
 36105  1  0  0  0
 37 39  1  0  0  0
 37 47  1  0  0  0
 37 66  1  0  0  0
 37106  1  0  0  0
 38 43  2  0  0  0
 38 46  1  0  0  0
 38 47  1  0  0  0
 39 64  1  0  0  0
 39 67  2  0  0  0
 40 52  1  0  0  0
 40 53  2  0  0  0
 40 58  1  0  0  0
 41107  1  0  0  0
 41108  1  0  0  0
 41109  1  0  0  0
 41 48  1  0  0  0
 42 43  1  0  0  0
 42 66  1  0  0  0
 42110  1  0  0  0
 42111  1  0  0  0
 43 44  1  0  0  0
 44112  1  0  0  0
 45 46  2  0  0  0
 45113  1  0  0  0
 46114  1  0  0  0
 47115  1  0  0  0
 47116  1  0  0  0
 48 56  1  0  0  0
 48 65  1  0  0  0
 48117  1  0  0  0
 49 50  1  0  0  0
 49 53  1  0  0  0
 49 64  1  0  0  0
 49118  1  0  0  0
 50 51  1  0  0  0
 50119  1  0  0  0
 50120  1  0  0  0
 51 52  1  0  0  0
 51121  1  0  0  0
 51122  1  0  0  0
 52123  1  0  0  0
 52124  1  0  0  0
 53 54  1  0  0  0
 54 55  2  0  0  0
 54125  1  0  0  0
 55 57  1  0  0  0
 55126  1  0  0  0
 56 69  2  0  0  0
 57 58  2  0  0  0
 57127  1  0  0  0
 58128  1  0  0  0
 59 60  1  0  0  0
 59 61  1  0  0  0
 59 62  1  0  0  0
 60129  1  0  0  0
 60130  1  0  0  0
 60131  1  0  0  0
 61132  1  0  0  0
 61133  1  0  0  0
 61134  1  0  0  0
 62135  1  0  0  0
 62136  1  0  0  0
 62137  1  0  0  0
 63 65  1  0  0  0
 63138  1  0  0  0
 63139  1  0  0  0
 63140  1  0  0  0
 64141  1  0  0  0
 65142  1  0  0  0
 68 81  1  0  0  0
 71143  1  0  0  0
 71144  1  0  0  0
 71145  1  0  0  0
 71 80  1  0  0  0
 72 80  1  0  0  0
 72146  1  0  0  0
 72147  1  0  0  0
 72148  1  0  0  0
 73149  1  0  0  0
 73150  1  0  0  0
 73151  1  0  0  0
 73 81  1  0  0  0
 74 76  1  0  0  0
 74 77  1  0  0  0
 74152  1  0  0  0
 74153  1  0  0  0
 75 78  1  0  0  0
 75 80  1  0  0  0
 75154  1  0  0  0
 75155  1  0  0  0
 76 82  1  0  0  0
 76156  1  0  0  0
 76157  1  0  0  0
 77158  1  0  0  0
 77159  1  0  0  0
 77 83  1  0  0  0
 78 83  1  0  0  0
 78160  1  0  0  0
 78161  1  0  0  0
 79 81  1  0  0  0
 79 83  1  0  0  0
 79162  1  0  0  0
 79163  1  0  0  0
 80164  1  0  0  0
 81165  1  0  0  0
 82166  1  0  0  0
 83167  1  0  0  0
M  CHG  1  83   1
M  ISO  4   1 100  68 101  81 101  82 100
M  END
> <chiral flag>
0

> <version>
0

> <s_m_source_file>
/data/baiqing/PycharmProjects/Reinvent-master-3.2/result/LINK_invent/BTK/process_docking_weight1_custom_sum_contain_oxygen_bond_distance_aromatic_linkinvent_7_9_3/rearranged_h_0109.sdf

> <i_m_source_file_index>
9

> <r_mmod_Potential_Energy-OPLS-2005>
524.797241210938

> <r_mmod_Stretch_Energy-OPLS-2005>
278.227783203125

> <r_mmod_Bend_Energy-OPLS-2005>
326.352813720703

> <r_mmod_Torsional_Energy-OPLS-2005>
266.594268798828

> <r_mmod_Improper_Torsional_Energy-OPLS-2005>
4.53083801269531

> <r_mmod_Van_der_Waal_Energy-OPLS-2005>
114.757804870605

> <r_mmod_Electrostatic_Energy-OPLS-2005>
-215.93977355957

> <r_mmod_Solvation_Energy-OPLS-2005>
-433.274810791016

> <b_mmod_Minimization_Converged-OPLS-2005>
0

> <r_mmod_RMS_Derivative-OPLS-2005>
3.06873631477356

$$$$
9
                    3D
 Structure written by MMmdl.
174182  0  0  1  0            999 V2000
  -30.6293  -14.4438   20.3874 C   0  0  0  0  0  0
  -30.4258  -12.2642   19.3830 C   0  0  0  0  0  0
  -29.4762  -12.4765   18.1799 C   0  0  0  0  0  0
  -27.9801  -12.3784   18.5840 C   0  0  0  0  0  0
  -27.6370  -13.1942   19.8646 C   0  0  2  0  0  0
  -28.7090  -12.9820   20.9700 C   0  0  0  0  0  0
  -25.2461  -13.8032   20.5899 C   0  0  0  0  0  0
  -24.1799  -13.0438   20.9381 C   0  0  0  0  0  0
  -24.6244  -11.6785   20.8891 C   0  0  0  0  0  0
  -23.8904  -10.4200   21.0526 C   0  0  0  0  0  0
  -24.3477   -9.4107   21.9204 C   0  0  0  0  0  0
  -23.6221   -8.2108   22.0713 C   0  0  0  0  0  0
  -22.4214   -8.0108   21.3516 C   0  0  0  0  0  0
  -21.9847   -9.0141   20.4620 C   0  0  0  0  0  0
  -22.7141  -10.2013   20.3085 C   0  0  0  0  0  0
  -21.6792   -6.0630   22.5327 C   0  0  0  0  0  0
  -21.3997   -6.5572   23.8252 C   0  0  0  0  0  0
  -21.3673   -5.6758   24.9248 C   0  0  0  0  0  0
  -21.6087   -4.3006   24.7350 C   0  0  0  0  0  0
  -21.8807   -3.8066   23.4444 C   0  0  0  0  0  0
  -21.9153   -4.6879   22.3496 C   0  0  0  0  0  0
  -22.7827  -13.5240   21.2110 C   0  0  0  0  0  0
  -22.1586   -4.2042   21.1080 F   0  0  0  0  0  0
  -21.5638   -3.4517   25.7835 F   0  0  0  0  0  0
  -30.0509  -13.2254   20.4136 N   0  0  0  0  0  0
  -26.2871  -12.9234   20.3370 N   0  0  0  0  0  0
  -25.9125  -11.6428   20.5731 N   0  0  0  0  0  0
  -22.0270  -12.8342   22.0471 N   0  0  0  0  0  0
  -25.4229  -15.1806   20.4053 N   0  0  0  0  0  0
  -31.8321  -14.6698   20.3542 O   0  0  0  0  0  0
  -21.6598   -6.8725   21.4176 O   0  0  0  0  0  0
  -22.3750  -14.5703   20.6913 O   0  0  0  0  0  0
  -24.6233  -31.8906   23.2340 C   0  0  0  0  0  0
  -25.9163  -32.4789   23.8660 C   0  0  1  0  0  0
  -26.9035  -27.4200   19.8586 C   0  0  0  0  0  0
  -25.6123  -33.8667   24.2464 N   0  0  0  0  0  0
  -23.3960  -30.5819   21.5648 C   0  0  2  0  0  0
  -24.7943  -29.1416   20.0288 C   0  0  0  0  0  0
  -22.7545  -29.5023   22.4496 C   0  0  0  0  0  0
  -18.0162  -28.1307   22.8859 C   0  0  0  0  0  0
  -24.1543  -36.7277   23.2633 C   0  0  0  0  0  0
  -25.9501  -30.7721   21.4751 C   0  0  0  0  0  0
  -25.9556  -29.4613   20.7292 C   0  0  0  0  0  0
  -26.9896  -28.4771   20.8095 C   0  0  0  0  0  0
  -26.0446  -27.5844   18.8049 C   0  0  0  0  0  0
  -24.8013  -28.1138   19.1049 C   0  0  0  0  0  0
  -23.6109  -30.0640   20.1285 C   0  0  0  0  0  0
  -25.4158  -36.3057   24.0349 C   0  0  1  0  0  0
  -20.5879  -28.4194   23.1014 C   0  0  2  0  0  0
  -20.6921  -27.0053   22.4607 C   0  0  0  0  0  0
  -19.5235  -26.6570   21.5132 C   0  0  0  0  0  0
  -18.2129  -26.7342   22.3274 C   0  0  0  0  0  0
  -19.1419  -28.9113   23.2883 C   0  0  0  0  0  0
  -18.9154  -30.2057   23.8340 C   0  0  0  0  0  0
  -17.6141  -30.6977   24.0033 C   0  0  0  0  0  0
  -25.9158  -34.9412   23.5151 C   0  0  0  0  0  0
  -16.5076  -29.9120   23.6371 C   0  0  0  0  0  0
  -16.7067  -28.6440   23.0812 C   0  0  0  0  0  0
  -26.4614  -31.6602   25.0983 C   0  0  0  0  0  0
  -25.3840  -31.3765   26.1644 C   0  0  0  0  0  0
  -27.0568  -30.2992   24.6666 C   0  0  0  0  0  0
  -27.6191  -32.4274   25.7657 C   0  0  0  0  0  0
  -27.5582  -37.1847   24.8512 C   0  0  0  0  0  0
  -21.4155  -29.3638   22.3427 N   0  0  0  0  0  0
  -26.4293  -37.3733   23.9403 N   0  0  0  0  0  0
  -24.6687  -31.0937   22.1416 N   0  0  0  0  0  0
  -23.4547  -28.8223   23.2131 O   0  0  0  0  0  0
  -27.3218  -26.1198   19.9063 O   0  0  0  0  0  0
  -26.5422  -34.8900   22.4500 O   0  0  0  0  0  0
  -23.5482  -32.1718   23.7726 O   0  0  0  0  0  0
  -29.3969  -17.0162   21.4475 C   0  0  0  0  0  0
  -28.2117  -16.9393   19.3516 C   0  0  0  0  0  0
  -28.5634  -18.0615   21.8550 C   0  0  0  0  0  0
  -29.2069  -16.4288   20.1924 C   0  0  0  0  0  0
  -27.5074  -18.4261   20.9682 C   0  0  0  0  0  0
  -28.8623  -18.6906   23.2258 C   0  0  0  0  0  0
  -22.6448  -24.3920   17.4107 C   0  0  0  0  0  0
  -22.5301  -25.9974   19.2498 C   0  0  0  0  0  0
  -25.7468  -21.4237   21.7911 C   0  0  0  0  0  0
  -24.9972  -24.8961   18.5612 C   0  0  0  0  0  0
  -26.0818  -22.6476   22.6667 C   0  0  0  0  0  0
  -26.3236  -23.9193   20.5425 C   0  0  0  0  0  0
  -26.5625  -20.2599   22.2364 C   0  0  0  0  0  0
  -23.3882  -24.7912   18.7408 C   0  0  0  0  0  0
  -26.0373  -25.2326   19.8331 C   0  0  1  0  0  0
  -27.3580  -17.8878   19.7320 N   0  0  0  0  0  0
  -29.8416  -15.2756   19.7251 N   0  0  0  0  0  0
  -26.0768  -23.9793   22.0021 N   0  3  0  0  0  0
  -26.4772  -19.2928   21.2285 O   0  0  0  0  0  0
  -31.4550  -12.4163   19.0615 H   0  0  0  0  0  0
  -30.3789  -11.2507   19.7650 H   0  0  0  0  0  0
  -29.7022  -11.7799   17.3634 H   0  0  0  0  0  0
  -29.6643  -13.4699   17.7601 H   0  0  0  0  0  0
  -27.7175  -11.3186   18.7030 H   0  0  0  0  0  0
  -27.3659  -12.7297   17.7467 H   0  0  0  0  0  0
  -27.6341  -14.2326   19.5435 H   0  0  0  0  0  0
  -28.6464  -11.9687   21.3723 H   0  0  0  0  0  0
  -28.5013  -13.6529   21.8006 H   0  0  0  0  0  0
  -25.2583   -9.5573   22.4844 H   0  0  0  0  0  0
  -23.9901   -7.4551   22.7430 H   0  0  0  0  0  0
  -21.0797   -8.8764   19.8947 H   0  0  0  0  0  0
  -22.3716  -10.9610   19.6246 H   0  0  0  0  0  0
  -21.1956   -7.6078   23.9844 H   0  0  0  0  0  0
  -21.1514   -6.0414   25.9189 H   0  0  0  0  0  0
  -22.0546   -2.7508   23.3085 H   0  0  0  0  0  0
  -22.3670  -11.9869   22.4806 H   0  0  0  0  0  0
  -21.0814  -13.1150   22.2704 H   0  0  0  0  0  0
  -24.5966  -15.7680   20.3860 H   0  0  0  0  0  0
  -26.2264  -15.6525   20.0184 H   0  0  0  0  0  0
  -26.7057  -32.5367   23.1318 H   0  0  0  0  0  0
  -25.0555  -34.0056   25.0803 H   0  0  0  0  0  0
  -22.7129  -31.4498   21.5459 H   0  0  0  0  0  0
  -23.3763  -35.9649   23.3286 H   0  0  0  0  0  0
  -24.3685  -36.8817   22.2050 H   0  0  0  0  0  0
  -23.7387  -37.6590   23.6529 H   0  0  0  0  0  0
  -26.1807  -31.6077   20.8206 H   0  0  0  0  0  0
  -26.8162  -30.7144   22.1269 H   0  0  0  0  0  0
  -27.6577  -28.4457   21.6719 H   0  0  0  0  0  0
  -26.2438  -27.0778   17.8779 H   0  0  0  0  0  0
  -23.9614  -27.8910   18.4653 H   0  0  0  0  0  0
  -23.7877  -30.9462   19.5077 H   0  0  0  0  0  0
  -22.7451  -29.6083   19.6516 H   0  0  0  0  0  0
  -25.1318  -36.2003   25.0835 H   0  0  0  0  0  0
  -20.9984  -28.3434   24.1137 H   0  0  0  0  0  0
  -20.6883  -26.2833   23.2737 H   0  0  0  0  0  0
  -21.6609  -26.8760   21.9874 H   0  0  0  0  0  0
  -19.6222  -25.6872   21.0286 H   0  0  0  0  0  0
  -19.5126  -27.4017   20.7053 H   0  0  0  0  0  0
  -17.3443  -26.3777   21.7618 H   0  0  0  0  0  0
  -18.3053  -26.1022   23.2186 H   0  0  0  0  0  0
  -19.7380  -30.8507   24.0908 H   0  0  0  0  0  0
  -17.4491  -31.6957   24.3593 H   0  0  0  0  0  0
  -15.5103  -30.3112   23.7551 H   0  0  0  0  0  0
  -15.8510  -28.0526   22.7927 H   0  0  0  0  0  0
  -24.6130  -30.6987   25.7919 H   0  0  0  0  0  0
  -24.9038  -32.3012   26.4853 H   0  0  0  0  0  0
  -25.8241  -30.9133   27.0527 H   0  0  0  0  0  0
  -26.3359  -29.6570   24.1600 H   0  0  0  0  0  0
  -27.4056  -29.7364   25.5377 H   0  0  0  0  0  0
  -27.9305  -30.4158   24.0213 H   0  0  0  0  0  0
  -27.2853  -33.3570   26.2286 H   0  0  0  0  0  0
  -28.3991  -32.6774   25.0408 H   0  0  0  0  0  0
  -28.0804  -31.8303   26.5568 H   0  0  0  0  0  0
  -28.2653  -38.0109   24.7398 H   0  0  0  0  0  0
  -28.1049  -36.2613   24.6478 H   0  0  0  0  0  0
  -27.2287  -37.1630   25.8941 H   0  0  0  0  0  0
  -20.9283  -30.0123   21.7345 H   0  0  0  0  0  0
  -26.0177  -38.2817   24.1384 H   0  0  0  0  0  0
  -30.1860  -16.6677   22.0829 H   0  0  0  0  0  0
  -28.0205  -16.5314   18.3732 H   0  0  0  0  0  0
  -29.4314  -18.0547   23.9090 H   0  0  0  0  0  0
  -27.9346  -18.9079   23.7632 H   0  0  0  0  0  0
  -29.4076  -19.6315   23.0522 H   0  0  0  0  0  0
  -21.6269  -24.0383   17.5950 H   0  0  0  0  0  0
  -23.1905  -23.5881   16.9079 H   0  0  0  0  0  0
  -22.5577  -25.1987   16.6707 H   0  0  0  0  0  0
  -21.5732  -25.6353   19.6157 H   0  0  0  0  0  0
  -22.2422  -26.7315   18.4568 H   0  0  0  0  0  0
  -22.9793  -26.5573   20.0682 H   0  0  0  0  0  0
  -26.1154  -21.4706   20.7758 H   0  0  0  0  0  0
  -24.6771  -21.2385   21.7762 H   0  0  0  0  0  0
  -25.1703  -25.4455   17.6360 H   0  0  0  0  0  0
  -25.2350  -23.9091   18.1582 H   0  0  0  0  0  0
  -27.0333  -22.5331   23.1603 H   0  0  0  0  0  0
  -25.3888  -22.6742   23.4953 H   0  0  0  0  0  0
  -27.3295  -23.5624   20.2845 H   0  0  0  0  0  0
  -25.5622  -23.2440   20.1643 H   0  0  0  0  0  0
  -26.1454  -19.9510   23.1990 H   0  0  0  0  0  0
  -27.5758  -20.6576   22.2391 H   0  0  0  0  0  0
  -23.2358  -23.9709   19.4839 H   0  0  0  0  0  0
  -25.3545  -25.7560   20.5148 H   0  0  0  0  0  0
  -29.2190  -14.7552   19.1208 H   0  0  0  0  0  0
  -26.7226  -24.5755   22.5051 H   0  0  0  0  0  0
  -25.1516  -24.3477   22.1458 H   0  0  0  0  0  0
  1 25  1  0  0  0
  1 30  2  0  0  0
  1 87  1  0  0  0
  2  3  1  0  0  0
  2 25  1  0  0  0
  2 90  1  0  0  0
  2 91  1  0  0  0
  3  4  1  0  0  0
  3 92  1  0  0  0
  3 93  1  0  0  0
  4  5  1  0  0  0
  4 94  1  0  0  0
  4 95  1  0  0  0
  5  6  1  0  0  0
  5 26  1  0  0  0
  5 96  1  0  0  0
  6 25  1  0  0  0
  6 97  1  0  0  0
  6 98  1  0  0  0
  7  8  2  0  0  0
  7 26  1  0  0  0
  7 29  1  0  0  0
  8  9  1  0  0  0
  8 22  1  0  0  0
  9 10  1  0  0  0
  9 27  2  0  0  0
 10 11  2  0  0  0
 10 15  1  0  0  0
 11 12  1  0  0  0
 11 99  1  0  0  0
 12 13  2  0  0  0
 12100  1  0  0  0
 13 14  1  0  0  0
 13 31  1  0  0  0
 14 15  2  0  0  0
 14101  1  0  0  0
 15102  1  0  0  0
 16 17  2  0  0  0
 16 21  1  0  0  0
 16 31  1  0  0  0
 17 18  1  0  0  0
 17103  1  0  0  0
 18 19  2  0  0  0
 18104  1  0  0  0
 19 20  1  0  0  0
 19 24  1  0  0  0
 20 21  2  0  0  0
 20105  1  0  0  0
 21 23  1  0  0  0
 22 28  1  0  0  0
 22 32  2  0  0  0
 26 27  1  0  0  0
 28106  1  0  0  0
 28107  1  0  0  0
 29108  1  0  0  0
 29109  1  0  0  0
 33 34  1  0  0  0
 33 66  1  0  0  0
 33 70  2  0  0  0
 34 36  1  0  0  0
 34 59  1  0  0  0
 34110  1  0  0  0
 35 44  2  0  0  0
 35 45  1  0  0  0
 35 68  1  0  0  0
 36 56  1  0  0  0
 36111  1  0  0  0
 37 39  1  0  0  0
 37 47  1  0  0  0
 37 66  1  0  0  0
 37112  1  0  0  0
 38 43  2  0  0  0
 38 46  1  0  0  0
 38 47  1  0  0  0
 39 64  1  0  0  0
 39 67  2  0  0  0
 40 52  1  0  0  0
 40 53  2  0  0  0
 40 58  1  0  0  0
 41113  1  0  0  0
 41114  1  0  0  0
 41115  1  0  0  0
 41 48  1  0  0  0
 42 43  1  0  0  0
 42 66  1  0  0  0
 42116  1  0  0  0
 42117  1  0  0  0
 43 44  1  0  0  0
 44118  1  0  0  0
 45 46  2  0  0  0
 45119  1  0  0  0
 46120  1  0  0  0
 47121  1  0  0  0
 47122  1  0  0  0
 48 56  1  0  0  0
 48 65  1  0  0  0
 48123  1  0  0  0
 49 50  1  0  0  0
 49 53  1  0  0  0
 49 64  1  0  0  0
 49124  1  0  0  0
 50 51  1  0  0  0
 50125  1  0  0  0
 50126  1  0  0  0
 51 52  1  0  0  0
 51127  1  0  0  0
 51128  1  0  0  0
 52129  1  0  0  0
 52130  1  0  0  0
 53 54  1  0  0  0
 54 55  2  0  0  0
 54131  1  0  0  0
 55 57  1  0  0  0
 55132  1  0  0  0
 56 69  2  0  0  0
 57 58  2  0  0  0
 57133  1  0  0  0
 58134  1  0  0  0
 59 60  1  0  0  0
 59 61  1  0  0  0
 59 62  1  0  0  0
 60135  1  0  0  0
 60136  1  0  0  0
 60137  1  0  0  0
 61138  1  0  0  0
 61139  1  0  0  0
 61140  1  0  0  0
 62141  1  0  0  0
 62142  1  0  0  0
 62143  1  0  0  0
 63 65  1  0  0  0
 63144  1  0  0  0
 63145  1  0  0  0
 63146  1  0  0  0
 64147  1  0  0  0
 65148  1  0  0  0
 68 85  1  0  0  0
 71 73  2  0  0  0
 71 74  1  0  0  0
 71149  1  0  0  0
 72 74  2  0  0  0
 72 86  1  0  0  0
 72150  1  0  0  0
 73 75  1  0  0  0
 73 76  1  0  0  0
 74 87  1  0  0  0
 75 86  2  0  0  0
 75 89  1  0  0  0
 76151  1  0  0  0
 76152  1  0  0  0
 76153  1  0  0  0
 77154  1  0  0  0
 77155  1  0  0  0
 77156  1  0  0  0
 77 84  1  0  0  0
 78 84  1  0  0  0
 78157  1  0  0  0
 78158  1  0  0  0
 78159  1  0  0  0
 79 81  1  0  0  0
 79 83  1  0  0  0
 79160  1  0  0  0
 79161  1  0  0  0
 80 84  1  0  0  0
 80162  1  0  0  0
 80163  1  0  0  0
 80 85  1  0  0  0
 81 88  1  0  0  0
 81164  1  0  0  0
 81165  1  0  0  0
 82 85  1  0  0  0
 82 88  1  0  0  0
 82166  1  0  0  0
 82167  1  0  0  0
 83 89  1  0  0  0
 83168  1  0  0  0
 83169  1  0  0  0
 84170  1  0  0  0
 85171  1  0  0  0
 87172  1  0  0  0
 88173  1  0  0  0
 88174  1  0  0  0
M  CHG  1  88   1
M  ISO  4   1 100  68 101  85 101  87 100
M  END
> <chiral flag>
0

> <version>
0

> <s_m_source_file>
/data/baiqing/PycharmProjects/Reinvent-master-3.2/result/LINK_invent/BTK/process_docking_weight1_custom_sum_contain_oxygen_bond_distance_aromatic_linkinvent_7_9_3/rearranged_h_0109.sdf

> <i_m_source_file_index>
10

> <r_mmod_Potential_Energy-OPLS-2005>
581.331115722656

> <r_mmod_Stretch_Energy-OPLS-2005>
115.125831604004

> <r_mmod_Bend_Energy-OPLS-2005>
281.421081542969

> <r_mmod_Torsional_Energy-OPLS-2005>
456.443969726562

> <r_mmod_Improper_Torsional_Energy-OPLS-2005>
34.8239364624023

> <r_mmod_Van_der_Waal_Energy-OPLS-2005>
248.438232421875

> <r_mmod_Electrostatic_Energy-OPLS-2005>
-477.441009521484

> <r_mmod_Solvation_Energy-OPLS-2005>
-438.492401123047

> <b_mmod_Minimization_Converged-OPLS-2005>
0

> <r_mmod_RMS_Derivative-OPLS-2005>
39.7713470458984

$$$$
10
                    3D
 Structure written by MMmdl.
164172  0  0  1  0            999 V2000
  -30.6216  -14.7255   20.4634 C   0  0  0  0  0  0
  -30.4335  -12.4434   19.4687 C   0  0  0  0  0  0
  -29.5090  -12.5105   18.2329 C   0  0  0  0  0  0
  -28.0331  -12.3444   18.6442 C   0  0  0  0  0  0
  -27.6458  -13.2341   19.8566 C   0  0  2  0  0  0
  -28.6923  -13.1523   20.9906 C   0  0  0  0  0  0
  -25.2536  -13.8193   20.5715 C   0  0  0  0  0  0
  -24.1822  -13.0437   20.9220 C   0  0  0  0  0  0
  -24.6409  -11.6919   20.8745 C   0  0  0  0  0  0
  -23.9068  -10.4296   21.0411 C   0  0  0  0  0  0
  -24.3620   -9.4207   21.9182 C   0  0  0  0  0  0
  -23.6303   -8.2233   22.0751 C   0  0  0  0  0  0
  -22.4279   -8.0279   21.3545 C   0  0  0  0  0  0
  -21.9909   -9.0250   20.4642 C   0  0  0  0  0  0
  -22.7236  -10.2134   20.3064 C   0  0  0  0  0  0
  -21.6859   -6.0732   22.5275 C   0  0  0  0  0  0
  -21.4010   -6.5632   23.8208 C   0  0  0  0  0  0
  -21.3669   -5.6792   24.9170 C   0  0  0  0  0  0
  -21.6053   -4.3053   24.7220 C   0  0  0  0  0  0
  -21.8819   -3.8145   23.4338 C   0  0  0  0  0  0
  -21.9200   -4.6964   22.3400 C   0  0  0  0  0  0
  -22.7841  -13.5215   21.1879 C   0  0  0  0  0  0
  -22.1670   -4.2157   21.0975 F   0  0  0  0  0  0
  -21.5636   -3.4528   25.7724 F   0  0  0  0  0  0
  -29.9963  -13.5000   20.4107 N   0  0  0  0  0  0
  -26.2969  -12.9411   20.3319 N   0  0  0  0  0  0
  -25.9351  -11.6546   20.5771 N   0  0  0  0  0  0
  -22.0491  -12.8198   22.0428 N   0  0  0  0  0  0
  -25.4216  -15.1914   20.4101 N   0  0  0  0  0  0
  -31.8010  -14.8351   20.1184 O   0  0  0  0  0  0
  -21.6654   -6.8870   21.4230 O   0  0  0  0  0  0
  -22.3515  -14.5524   20.6723 O   0  0  0  0  0  0
  -24.6300  -31.8560   23.1981 C   0  0  0  0  0  0
  -25.9124  -32.4760   23.8332 C   0  0  1  0  0  0
  -27.2240  -27.2663   20.1224 C   0  0  0  0  0  0
  -25.5924  -33.8567   24.2253 N   0  0  0  0  0  0
  -23.4277  -30.4774   21.5419 C   0  0  2  0  0  0
  -24.8758  -28.9253   20.1086 C   0  0  0  0  0  0
  -22.7500  -29.4592   22.4914 C   0  0  0  0  0  0
  -18.0287  -28.1388   22.8484 C   0  0  0  0  0  0
  -24.1494  -36.7282   23.2640 C   0  0  0  0  0  0
  -25.9736  -30.7683   21.3795 C   0  0  0  0  0  0
  -26.0473  -29.3923   20.7180 C   0  0  0  0  0  0
  -27.2235  -28.5765   20.7112 C   0  0  0  0  0  0
  -26.0284  -26.8667   19.4840 C   0  0  0  0  0  0
  -24.8715  -27.6711   19.4805 C   0  0  0  0  0  0
  -23.6460  -29.8113   20.1584 C   0  0  0  0  0  0
  -25.4122  -36.3075   24.0325 C   0  0  1  0  0  0
  -20.5890  -28.3692   23.1277 C   0  0  2  0  0  0
  -20.6780  -26.9413   22.5411 C   0  0  0  0  0  0
  -19.5759  -26.6381   21.5215 C   0  0  0  0  0  0
  -18.1933  -26.7928   22.1622 C   0  0  0  0  0  0
  -19.1540  -28.8859   23.2874 C   0  0  0  0  0  0
  -18.9460  -30.1462   23.8891 C   0  0  0  0  0  0
  -17.6460  -30.6590   24.0558 C   0  0  0  0  0  0
  -25.9058  -34.9444   23.5089 C   0  0  0  0  0  0
  -16.5352  -29.9086   23.6330 C   0  0  0  0  0  0
  -16.7273  -28.6505   23.0350 C   0  0  0  0  0  0
  -26.4485  -31.6590   25.0727 C   0  0  0  0  0  0
  -25.3691  -31.3748   26.1433 C   0  0  0  0  0  0
  -27.0335  -30.3004   24.6227 C   0  0  0  0  0  0
  -27.6040  -32.4335   25.7493 C   0  0  0  0  0  0
  -27.5583  -37.1798   24.8459 C   0  0  0  0  0  0
  -21.4203  -29.3041   22.3665 N   0  0  0  0  0  0
  -26.4299  -37.3774   23.9397 N   0  0  0  0  0  0
  -24.6961  -31.0523   22.0956 N   0  0  0  0  0  0
  -23.4201  -28.8142   23.3024 O   0  0  0  0  0  0
  -28.3258  -26.3807   20.1825 O   0  0  0  0  0  0
  -26.5638  -34.8915   22.4664 O   0  0  0  0  0  0
  -23.5448  -32.1386   23.7269 O   0  0  0  0  0  0
  -29.2562  -21.7203   18.8513 C   0  0  0  0  0  0
  -29.1448  -21.1340   20.9663 C   0  0  0  0  0  0
  -29.1746  -22.2846   20.1628 C   0  0  0  0  0  0
  -29.2703  -20.3409   18.8984 C   0  0  0  0  0  0
  -29.2775  -19.3860   17.7676 C   0  0  0  0  0  0
  -31.7598  -22.7920   22.3223 C   0  0  0  0  0  0
  -31.0260  -24.1361   22.4080 C   0  0  0  0  0  0
  -29.5305  -24.0847   22.0265 C   0  0  0  0  0  0
  -29.1227  -18.4752   20.7610 C   0  0  0  0  0  0
  -30.2031  -17.3188   20.4030 C   0  0  0  0  0  0
  -28.1146  -24.8968   20.0138 C   0  0  0  0  0  0
  -29.2433  -23.8527   20.5217 C   0  0  2  0  0  0
  -29.2245  -19.9155   20.2283 N   0  0  0  0  0  0
  -30.1062  -19.6785   16.7769 N   0  0  0  0  0  0
  -29.8526  -15.8533   20.6866 N   0  0  0  0  0  0
  -28.5996  -18.3608   17.7616 O   0  0  0  0  0  0
  -31.4737  -12.5646   19.1635 H   0  0  0  0  0  0
  -30.3753  -11.4616   19.9421 H   0  0  0  0  0  0
  -29.7838  -11.7390   17.5120 H   0  0  0  0  0  0
  -29.6439  -13.4665   17.7233 H   0  0  0  0  0  0
  -27.8809  -11.2932   18.8929 H   0  0  0  0  0  0
  -27.3781  -12.5567   17.7978 H   0  0  0  0  0  0
  -27.6434  -14.2596   19.4866 H   0  0  0  0  0  0
  -28.7248  -12.1488   21.4176 H   0  0  0  0  0  0
  -28.4328  -13.8227   21.8114 H   0  0  0  0  0  0
  -25.2765   -9.5693   22.4751 H   0  0  0  0  0  0
  -24.0031   -7.4622   22.7464 H   0  0  0  0  0  0
  -21.0845   -8.8766   19.8930 H   0  0  0  0  0  0
  -22.3699  -10.9680   19.6179 H   0  0  0  0  0  0
  -21.1993   -7.6143   23.9711 H   0  0  0  0  0  0
  -21.1497   -6.0519   25.9082 H   0  0  0  0  0  0
  -22.0597   -2.7607   23.2830 H   0  0  0  0  0  0
  -22.4128  -11.9866   22.4812 H   0  0  0  0  0  0
  -21.1114  -13.1223   22.2651 H   0  0  0  0  0  0
  -24.6449  -15.8383   20.4990 H   0  0  0  0  0  0
  -26.2560  -15.6258   20.0354 H   0  0  0  0  0  0
  -26.7188  -32.5409   23.1070 H   0  0  0  0  0  0
  -25.0050  -33.9711   25.0382 H   0  0  0  0  0  0
  -22.7230  -31.2988   21.3959 H   0  0  0  0  0  0
  -23.3767  -35.9604   23.3299 H   0  0  0  0  0  0
  -24.3578  -36.8912   22.2054 H   0  0  0  0  0  0
  -23.7241  -37.6477   23.6670 H   0  0  0  0  0  0
  -26.1165  -31.5331   20.6151 H   0  0  0  0  0  0
  -26.8489  -30.8136   22.0161 H   0  0  0  0  0  0
  -28.1212  -28.9290   21.1986 H   0  0  0  0  0  0
  -25.9594  -25.9082   18.9908 H   0  0  0  0  0  0
  -23.9749  -27.3106   18.9955 H   0  0  0  0  0  0
  -23.7691  -30.5882   19.4035 H   0  0  0  0  0  0
  -22.7650  -29.2440   19.8529 H   0  0  0  0  0  0
  -25.1309  -36.1923   25.0823 H   0  0  0  0  0  0
  -20.9976  -28.3270   24.1399 H   0  0  0  0  0  0
  -20.5687  -26.2299   23.3609 H   0  0  0  0  0  0
  -21.6647  -26.7445   22.1201 H   0  0  0  0  0  0
  -19.6920  -25.6287   21.1253 H   0  0  0  0  0  0
  -19.6703  -27.3185   20.6739 H   0  0  0  0  0  0
  -17.4202  -26.6669   21.4023 H   0  0  0  0  0  0
  -18.0338  -26.0076   22.9027 H   0  0  0  0  0  0
  -19.7937  -30.7280   24.2260 H   0  0  0  0  0  0
  -17.5012  -31.6270   24.5163 H   0  0  0  0  0  0
  -15.5351  -30.2985   23.7663 H   0  0  0  0  0  0
  -15.8669  -28.0823   22.7066 H   0  0  0  0  0  0
  -24.5868  -30.7106   25.7740 H   0  0  0  0  0  0
  -24.8880  -32.2922   26.4836 H   0  0  0  0  0  0
  -25.7985  -30.8924   27.0222 H   0  0  0  0  0  0
  -26.2928  -29.6754   24.1227 H   0  0  0  0  0  0
  -27.3974  -29.7272   25.4763 H   0  0  0  0  0  0
  -27.8823  -30.4270   23.9505 H   0  0  0  0  0  0
  -27.2648  -33.3633   26.2070 H   0  0  0  0  0  0
  -28.3842  -32.6902   25.0315 H   0  0  0  0  0  0
  -28.0718  -31.8465   26.5405 H   0  0  0  0  0  0
  -28.2596  -38.0100   24.7518 H   0  0  0  0  0  0
  -28.1090  -36.2633   24.6280 H   0  0  0  0  0  0
  -27.2297  -37.1435   25.8862 H   0  0  0  0  0  0
  -20.9384  -29.8750   21.6858 H   0  0  0  0  0  0
  -26.0179  -38.2848   24.1403 H   0  0  0  0  0  0
  -29.3007  -22.2843   17.9290 H   0  0  0  0  0  0
  -29.0890  -21.0677   22.0451 H   0  0  0  0  0  0
  -32.7848  -22.8881   22.6829 H   0  0  0  0  0  0
  -31.8071  -22.4249   21.2964 H   0  0  0  0  0  0
  -31.2660  -22.0352   22.9317 H   0  0  0  0  0  0
  -31.5400  -24.8718   21.7874 H   0  0  0  0  0  0
  -31.1099  -24.5068   23.4306 H   0  0  0  0  0  0
  -29.1239  -25.0585   22.3046 H   0  0  0  0  0  0
  -28.9844  -23.3738   22.6471 H   0  0  0  0  0  0
  -29.0524  -18.5416   21.8471 H   0  0  0  0  0  0
  -28.1455  -18.1104   20.4451 H   0  0  0  0  0  0
  -31.1314  -17.5506   20.9266 H   0  0  0  0  0  0
  -30.4563  -17.3751   19.3459 H   0  0  0  0  0  0
  -27.1798  -24.6192   20.5026 H   0  0  0  0  0  0
  -27.9606  -24.7196   18.9488 H   0  0  0  0  0  0
  -30.1351  -24.1823   19.9874 H   0  0  0  0  0  0
  -30.6814  -20.5055   16.8357 H   0  0  0  0  0  0
  -30.1945  -19.0614   15.9839 H   0  0  0  0  0  0
  -28.8979  -15.6726   20.9591 H   0  0  0  0  0  0
  1 25  1  0  0  0
  1 30  2  0  0  0
  1 85  1  0  0  0
  2  3  1  0  0  0
  2 25  1  0  0  0
  2 87  1  0  0  0
  2 88  1  0  0  0
  3  4  1  0  0  0
  3 89  1  0  0  0
  3 90  1  0  0  0
  4  5  1  0  0  0
  4 91  1  0  0  0
  4 92  1  0  0  0
  5  6  1  0  0  0
  5 26  1  0  0  0
  5 93  1  0  0  0
  6 25  1  0  0  0
  6 94  1  0  0  0
  6 95  1  0  0  0
  7  8  2  0  0  0
  7 26  1  0  0  0
  7 29  1  0  0  0
  8  9  1  0  0  0
  8 22  1  0  0  0
  9 10  1  0  0  0
  9 27  2  0  0  0
 10 11  2  0  0  0
 10 15  1  0  0  0
 11 12  1  0  0  0
 11 96  1  0  0  0
 12 13  2  0  0  0
 12 97  1  0  0  0
 13 14  1  0  0  0
 13 31  1  0  0  0
 14 15  2  0  0  0
 14 98  1  0  0  0
 15 99  1  0  0  0
 16 17  2  0  0  0
 16 21  1  0  0  0
 16 31  1  0  0  0
 17 18  1  0  0  0
 17100  1  0  0  0
 18 19  2  0  0  0
 18101  1  0  0  0
 19 20  1  0  0  0
 19 24  1  0  0  0
 20 21  2  0  0  0
 20102  1  0  0  0
 21 23  1  0  0  0
 22 28  1  0  0  0
 22 32  2  0  0  0
 26 27  1  0  0  0
 28103  1  0  0  0
 28104  1  0  0  0
 29105  1  0  0  0
 29106  1  0  0  0
 33 34  1  0  0  0
 33 66  1  0  0  0
 33 70  2  0  0  0
 34 36  1  0  0  0
 34 59  1  0  0  0
 34107  1  0  0  0
 35 44  2  0  0  0
 35 45  1  0  0  0
 35 68  1  0  0  0
 36 56  1  0  0  0
 36108  1  0  0  0
 37 39  1  0  0  0
 37 47  1  0  0  0
 37 66  1  0  0  0
 37109  1  0  0  0
 38 43  2  0  0  0
 38 46  1  0  0  0
 38 47  1  0  0  0
 39 64  1  0  0  0
 39 67  2  0  0  0
 40 52  1  0  0  0
 40 53  2  0  0  0
 40 58  1  0  0  0
 41110  1  0  0  0
 41111  1  0  0  0
 41112  1  0  0  0
 41 48  1  0  0  0
 42 43  1  0  0  0
 42 66  1  0  0  0
 42113  1  0  0  0
 42114  1  0  0  0
 43 44  1  0  0  0
 44115  1  0  0  0
 45 46  2  0  0  0
 45116  1  0  0  0
 46117  1  0  0  0
 47118  1  0  0  0
 47119  1  0  0  0
 48 56  1  0  0  0
 48 65  1  0  0  0
 48120  1  0  0  0
 49 50  1  0  0  0
 49 53  1  0  0  0
 49 64  1  0  0  0
 49121  1  0  0  0
 50 51  1  0  0  0
 50122  1  0  0  0
 50123  1  0  0  0
 51 52  1  0  0  0
 51124  1  0  0  0
 51125  1  0  0  0
 52126  1  0  0  0
 52127  1  0  0  0
 53 54  1  0  0  0
 54 55  2  0  0  0
 54128  1  0  0  0
 55 57  1  0  0  0
 55129  1  0  0  0
 56 69  2  0  0  0
 57 58  2  0  0  0
 57130  1  0  0  0
 58131  1  0  0  0
 59 60  1  0  0  0
 59 61  1  0  0  0
 59 62  1  0  0  0
 60132  1  0  0  0
 60133  1  0  0  0
 60134  1  0  0  0
 61135  1  0  0  0
 61136  1  0  0  0
 61137  1  0  0  0
 62138  1  0  0  0
 62139  1  0  0  0
 62140  1  0  0  0
 63 65  1  0  0  0
 63141  1  0  0  0
 63142  1  0  0  0
 63143  1  0  0  0
 64144  1  0  0  0
 65145  1  0  0  0
 68 81  1  0  0  0
 71 73  1  0  0  0
 71 74  2  0  0  0
 71146  1  0  0  0
 72 73  2  0  0  0
 72 83  1  0  0  0
 72147  1  0  0  0
 73 82  1  0  0  0
 74 75  1  0  0  0
 74 83  1  0  0  0
 75 84  1  0  0  0
 75 86  2  0  0  0
 76 77  1  0  0  0
 76148  1  0  0  0
 76149  1  0  0  0
 76150  1  0  0  0
 77 78  1  0  0  0
 77151  1  0  0  0
 77152  1  0  0  0
 78153  1  0  0  0
 78154  1  0  0  0
 78 82  1  0  0  0
 79 80  1  0  0  0
 79 83  1  0  0  0
 79155  1  0  0  0
 79156  1  0  0  0
 80 85  1  0  0  0
 80157  1  0  0  0
 80158  1  0  0  0
 81 82  1  0  0  0
 81159  1  0  0  0
 81160  1  0  0  0
 82161  1  0  0  0
 84162  1  0  0  0
 84163  1  0  0  0
 85164  1  0  0  0
M  ISO  4   1 100  68 101  81 101  85 100
M  END
> <chiral flag>
0

> <version>
0

> <s_m_source_file>
/data/baiqing/PycharmProjects/Reinvent-master-3.2/result/LINK_invent/BTK/process_docking_weight1_custom_sum_contain_oxygen_bond_distance_aromatic_linkinvent_7_9_3/rearranged_h_0109.sdf

> <i_m_source_file_index>
11

> <r_mmod_Potential_Energy-OPLS-2005>
15.4637393951416

> <r_mmod_Stretch_Energy-OPLS-2005>
124.847663879395

> <r_mmod_Bend_Energy-OPLS-2005>
165.577392578125

> <r_mmod_Torsional_Energy-OPLS-2005>
247.727951049805

> <r_mmod_Improper_Torsional_Energy-OPLS-2005>
6.59094381332397

> <r_mmod_Van_der_Waal_Energy-OPLS-2005>
113.884811401367

> <r_mmod_Electrostatic_Energy-OPLS-2005>
-484.872161865234

> <r_mmod_Solvation_Energy-OPLS-2005>
-236.786117553711

> <b_mmod_Minimization_Converged-OPLS-2005>
0

> <r_mmod_RMS_Derivative-OPLS-2005>
1.78017926216125

$$$$
11
                    3D
 Structure written by MMmdl.
164172  0  0  1  0            999 V2000
  -30.7058  -14.4695   20.5334 C   0  0  0  0  0  0
  -30.4251  -12.2892   19.4346 C   0  0  0  0  0  0
  -29.5021  -12.5074   18.2152 C   0  0  0  0  0  0
  -28.0207  -12.3776   18.6196 C   0  0  0  0  0  0
  -27.6698  -13.2092   19.8826 C   0  0  2  0  0  0
  -28.7131  -12.9932   21.0084 C   0  0  0  0  0  0
  -25.2637  -13.8175   20.5686 C   0  0  0  0  0  0
  -24.1869  -13.0455   20.9159 C   0  0  0  0  0  0
  -24.6423  -11.6919   20.8704 C   0  0  0  0  0  0
  -23.9071  -10.4307   21.0376 C   0  0  0  0  0  0
  -24.3626   -9.4221   21.9148 C   0  0  0  0  0  0
  -23.6312   -8.2255   22.0720 C   0  0  0  0  0  0
  -22.4288   -8.0288   21.3521 C   0  0  0  0  0  0
  -21.9921   -9.0254   20.4618 C   0  0  0  0  0  0
  -22.7242  -10.2138   20.3021 C   0  0  0  0  0  0
  -21.6857   -6.0750   22.5276 C   0  0  0  0  0  0
  -21.4013   -6.5644   23.8211 C   0  0  0  0  0  0
  -21.3651   -5.6789   24.9170 C   0  0  0  0  0  0
  -21.6045   -4.3053   24.7212 C   0  0  0  0  0  0
  -21.8816   -3.8154   23.4331 C   0  0  0  0  0  0
  -21.9194   -4.6977   22.3394 C   0  0  0  0  0  0
  -22.7883  -13.5244   21.1827 C   0  0  0  0  0  0
  -22.1665   -4.2162   21.0972 F   0  0  0  0  0  0
  -21.5626   -3.4532   25.7722 F   0  0  0  0  0  0
  -30.0521  -13.2770   20.4609 N   0  0  0  0  0  0
  -26.3086  -12.9349   20.3407 N   0  0  0  0  0  0
  -25.9360  -11.6508   20.5759 N   0  0  0  0  0  0
  -22.0538  -12.8215   22.0389 N   0  0  0  0  0  0
  -25.4387  -15.1887   20.4074 N   0  0  0  0  0  0
  -31.8246  -14.6577   20.0496 O   0  0  0  0  0  0
  -21.6647   -6.8893   21.4235 O   0  0  0  0  0  0
  -22.3545  -14.5552   20.6683 O   0  0  0  0  0  0
  -24.6146  -31.8671   23.2108 C   0  0  0  0  0  0
  -25.9029  -32.4816   23.8416 C   0  0  1  0  0  0
  -27.2355  -27.4270   20.0933 C   0  0  0  0  0  0
  -25.5886  -33.8619   24.2343 N   0  0  0  0  0  0
  -23.4041  -30.4912   21.5513 C   0  0  2  0  0  0
  -24.8496  -28.9597   20.1103 C   0  0  0  0  0  0
  -22.7407  -29.4644   22.4983 C   0  0  0  0  0  0
  -18.0263  -28.1365   22.8491 C   0  0  0  0  0  0
  -24.1480  -36.7318   23.2644 C   0  0  0  0  0  0
  -25.9339  -30.8325   21.3631 C   0  0  0  0  0  0
  -26.0104  -29.4671   20.7071 C   0  0  0  0  0  0
  -27.2043  -28.7094   20.6912 C   0  0  0  0  0  0
  -26.0563  -26.9440   19.4767 C   0  0  0  0  0  0
  -24.8690  -27.6995   19.4905 C   0  0  0  0  0  0
  -23.6121  -29.8263   20.1644 C   0  0  0  0  0  0
  -25.4097  -36.3112   24.0346 C   0  0  1  0  0  0
  -20.5858  -28.3646   23.1309 C   0  0  2  0  0  0
  -20.6735  -26.9375   22.5413 C   0  0  0  0  0  0
  -19.5721  -26.6367   21.5197 C   0  0  0  0  0  0
  -18.1903  -26.7910   22.1615 C   0  0  0  0  0  0
  -19.1513  -28.8817   23.2896 C   0  0  0  0  0  0
  -18.9440  -30.1426   23.8910 C   0  0  0  0  0  0
  -17.6440  -30.6567   24.0554 C   0  0  0  0  0  0
  -25.9024  -34.9473   23.5140 C   0  0  0  0  0  0
  -16.5333  -29.9075   23.6313 C   0  0  0  0  0  0
  -16.7246  -28.6489   23.0340 C   0  0  0  0  0  0
  -26.4462  -31.6595   25.0750 C   0  0  0  0  0  0
  -25.3743  -31.3693   26.1516 C   0  0  0  0  0  0
  -27.0280  -30.3038   24.6105 C   0  0  0  0  0  0
  -27.6044  -32.4318   25.7501 C   0  0  0  0  0  0
  -27.5573  -37.1810   24.8460 C   0  0  0  0  0  0
  -21.4135  -29.3022   22.3728 N   0  0  0  0  0  0
  -26.4284  -37.3791   23.9412 N   0  0  0  0  0  0
  -24.6695  -31.0779   22.0996 N   0  0  0  0  0  0
  -23.4186  -28.8164   23.3010 O   0  0  0  0  0  0
  -28.4106  -26.6973   20.1339 O   0  0  0  0  0  0
  -26.5582  -34.8914   22.4700 O   0  0  0  0  0  0
  -23.5328  -32.1418   23.7494 O   0  0  0  0  0  0
  -29.0352  -20.9405   19.3796 C   0  0  0  0  0  0
  -28.7202  -22.2672   19.7270 C   0  0  0  0  0  0
  -30.3189  -20.3955   19.6550 C   0  0  0  0  0  0
  -29.6912  -23.0555   20.3632 C   0  0  0  0  0  0
  -31.1870  -21.2437   20.4075 C   0  0  0  0  0  0
  -32.5524  -20.8261   20.9285 C   0  0  0  0  0  0
  -29.7744  -18.5971   17.9082 C   0  0  0  0  0  0
  -32.0980  -19.0572   18.3738 C   0  0  0  0  0  0
  -29.4915  -24.5460   20.6821 C   0  0  0  0  0  0
  -30.7804  -17.8633   20.1934 C   0  0  0  0  0  0
  -29.7467  -16.7011   20.0789 C   0  0  0  0  0  0
  -28.3529  -25.2722   19.9209 C   0  0  0  0  0  0
  -30.7194  -18.9906   19.0821 C   0  0  0  0  0  0
  -30.8785  -22.5254   20.7283 N   0  0  0  0  0  0
  -29.9471  -15.5083   20.9251 N   0  0  0  0  0  0
  -31.4716  -12.3709   19.1346 H   0  0  0  0  0  0
  -30.3095  -11.2764   19.8254 H   0  0  0  0  0  0
  -29.7409  -11.7874   17.4320 H   0  0  0  0  0  0
  -29.6803  -13.4949   17.7863 H   0  0  0  0  0  0
  -27.8171  -11.3217   18.8015 H   0  0  0  0  0  0
  -27.3764  -12.6689   17.7888 H   0  0  0  0  0  0
  -27.7159  -14.2570   19.5877 H   0  0  0  0  0  0
  -28.6747  -11.9652   21.3720 H   0  0  0  0  0  0
  -28.4827  -13.6150   21.8747 H   0  0  0  0  0  0
  -25.2780   -9.5707   22.4708 H   0  0  0  0  0  0
  -24.0029   -7.4641   22.7425 H   0  0  0  0  0  0
  -21.0852   -8.8765   19.8917 H   0  0  0  0  0  0
  -22.3698  -10.9667   19.6123 H   0  0  0  0  0  0
  -21.2005   -7.6155   23.9720 H   0  0  0  0  0  0
  -21.1472   -6.0517   25.9073 H   0  0  0  0  0  0
  -22.0606   -2.7619   23.2819 H   0  0  0  0  0  0
  -22.4185  -11.9909   22.4816 H   0  0  0  0  0  0
  -21.1125  -13.1171   22.2540 H   0  0  0  0  0  0
  -24.6791  -15.8515   20.5136 H   0  0  0  0  0  0
  -26.2977  -15.6192   20.0878 H   0  0  0  0  0  0
  -26.7104  -32.5525   23.1188 H   0  0  0  0  0  0
  -25.0044  -33.9791   25.0489 H   0  0  0  0  0  0
  -22.6925  -31.3075   21.4126 H   0  0  0  0  0  0
  -23.3733  -35.9660   23.3310 H   0  0  0  0  0  0
  -24.3586  -36.8922   22.2058 H   0  0  0  0  0  0
  -23.7230  -37.6526   23.6647 H   0  0  0  0  0  0
  -26.0477  -31.6014   20.5971 H   0  0  0  0  0  0
  -26.8212  -30.8852   21.9814 H   0  0  0  0  0  0
  -28.1019  -29.1022   21.1483 H   0  0  0  0  0  0
  -26.0362  -25.9893   18.9728 H   0  0  0  0  0  0
  -23.9794  -27.3090   19.0157 H   0  0  0  0  0  0
  -23.7182  -30.6027   19.4062 H   0  0  0  0  0  0
  -22.7362  -29.2469   19.8681 H   0  0  0  0  0  0
  -25.1265  -36.1997   25.0837 H   0  0  0  0  0  0
  -20.9948  -28.3194   24.1427 H   0  0  0  0  0  0
  -20.5587  -26.2252   23.3604 H   0  0  0  0  0  0
  -21.6610  -26.7377   22.1237 H   0  0  0  0  0  0
  -19.6875  -25.6279   21.1221 H   0  0  0  0  0  0
  -19.6661  -27.3175   20.6727 H   0  0  0  0  0  0
  -17.4165  -26.6643   21.4026 H   0  0  0  0  0  0
  -18.0311  -26.0057   22.9016 H   0  0  0  0  0  0
  -19.7914  -30.7230   24.2296 H   0  0  0  0  0  0
  -17.4993  -31.6252   24.5150 H   0  0  0  0  0  0
  -15.5332  -30.2973   23.7631 H   0  0  0  0  0  0
  -15.8649  -28.0810   22.7048 H   0  0  0  0  0  0
  -24.5918  -30.7024   25.7873 H   0  0  0  0  0  0
  -24.8934  -32.2838   26.4992 H   0  0  0  0  0  0
  -25.8133  -30.8864   27.0253 H   0  0  0  0  0  0
  -26.2810  -29.6825   24.1146 H   0  0  0  0  0  0
  -27.4031  -29.7253   25.4552 H   0  0  0  0  0  0
  -27.8656  -30.4360   23.9254 H   0  0  0  0  0  0
  -27.2665  -33.3611   26.2097 H   0  0  0  0  0  0
  -28.3838  -32.6884   25.0318 H   0  0  0  0  0  0
  -28.0720  -31.8433   26.5400 H   0  0  0  0  0  0
  -28.2592  -38.0103   24.7500 H   0  0  0  0  0  0
  -28.1062  -36.2635   24.6287 H   0  0  0  0  0  0
  -27.2301  -37.1464   25.8865 H   0  0  0  0  0  0
  -20.9280  -29.8811   21.7019 H   0  0  0  0  0  0
  -26.0177  -38.2871   24.1407 H   0  0  0  0  0  0
  -28.2727  -20.3850   18.8581 H   0  0  0  0  0  0
  -27.7503  -22.6660   19.4665 H   0  0  0  0  0  0
  -32.5844  -19.7725   21.1989 H   0  0  0  0  0  0
  -32.8126  -21.3855   21.8270 H   0  0  0  0  0  0
  -33.3259  -21.0333   20.1891 H   0  0  0  0  0  0
  -29.7254  -19.3841   17.1538 H   0  0  0  0  0  0
  -28.7533  -18.3923   18.2297 H   0  0  0  0  0  0
  -30.1175  -17.7056   17.3810 H   0  0  0  0  0  0
  -32.1331  -19.8569   17.6340 H   0  0  0  0  0  0
  -32.3140  -18.1276   17.8439 H   0  0  0  0  0  0
  -32.9407  -19.1854   19.0448 H   0  0  0  0  0  0
  -30.4290  -25.0626   20.4769 H   0  0  0  0  0  0
  -29.3193  -24.6441   21.7549 H   0  0  0  0  0  0
  -31.7747  -17.4142   20.1813 H   0  0  0  0  0  0
  -30.7014  -18.3107   21.1847 H   0  0  0  0  0  0
  -29.7059  -16.3246   19.0565 H   0  0  0  0  0  0
  -28.7517  -17.0939   20.2896 H   0  0  0  0  0  0
  -27.4086  -24.8490   20.2667 H   0  0  0  0  0  0
  -28.4314  -25.0785   18.8502 H   0  0  0  0  0  0
  -29.1354  -15.2388   21.4620 H   0  0  0  0  0  0
  1 25  1  0  0  0
  1 30  2  0  0  0
  1 85  1  0  0  0
  2  3  1  0  0  0
  2 25  1  0  0  0
  2 86  1  0  0  0
  2 87  1  0  0  0
  3  4  1  0  0  0
  3 88  1  0  0  0
  3 89  1  0  0  0
  4  5  1  0  0  0
  4 90  1  0  0  0
  4 91  1  0  0  0
  5  6  1  0  0  0
  5 26  1  0  0  0
  5 92  1  0  0  0
  6 25  1  0  0  0
  6 93  1  0  0  0
  6 94  1  0  0  0
  7  8  2  0  0  0
  7 26  1  0  0  0
  7 29  1  0  0  0
  8  9  1  0  0  0
  8 22  1  0  0  0
  9 10  1  0  0  0
  9 27  2  0  0  0
 10 11  2  0  0  0
 10 15  1  0  0  0
 11 12  1  0  0  0
 11 95  1  0  0  0
 12 13  2  0  0  0
 12 96  1  0  0  0
 13 14  1  0  0  0
 13 31  1  0  0  0
 14 15  2  0  0  0
 14 97  1  0  0  0
 15 98  1  0  0  0
 16 17  2  0  0  0
 16 21  1  0  0  0
 16 31  1  0  0  0
 17 18  1  0  0  0
 17 99  1  0  0  0
 18 19  2  0  0  0
 18100  1  0  0  0
 19 20  1  0  0  0
 19 24  1  0  0  0
 20 21  2  0  0  0
 20101  1  0  0  0
 21 23  1  0  0  0
 22 28  1  0  0  0
 22 32  2  0  0  0
 26 27  1  0  0  0
 28102  1  0  0  0
 28103  1  0  0  0
 29104  1  0  0  0
 29105  1  0  0  0
 33 34  1  0  0  0
 33 66  1  0  0  0
 33 70  2  0  0  0
 34 36  1  0  0  0
 34 59  1  0  0  0
 34106  1  0  0  0
 35 44  2  0  0  0
 35 45  1  0  0  0
 35 68  1  0  0  0
 36 56  1  0  0  0
 36107  1  0  0  0
 37 39  1  0  0  0
 37 47  1  0  0  0
 37 66  1  0  0  0
 37108  1  0  0  0
 38 43  2  0  0  0
 38 46  1  0  0  0
 38 47  1  0  0  0
 39 64  1  0  0  0
 39 67  2  0  0  0
 40 52  1  0  0  0
 40 53  2  0  0  0
 40 58  1  0  0  0
 41109  1  0  0  0
 41110  1  0  0  0
 41111  1  0  0  0
 41 48  1  0  0  0
 42 43  1  0  0  0
 42 66  1  0  0  0
 42112  1  0  0  0
 42113  1  0  0  0
 43 44  1  0  0  0
 44114  1  0  0  0
 45 46  2  0  0  0
 45115  1  0  0  0
 46116  1  0  0  0
 47117  1  0  0  0
 47118  1  0  0  0
 48 56  1  0  0  0
 48 65  1  0  0  0
 48119  1  0  0  0
 49 50  1  0  0  0
 49 53  1  0  0  0
 49 64  1  0  0  0
 49120  1  0  0  0
 50 51  1  0  0  0
 50121  1  0  0  0
 50122  1  0  0  0
 51 52  1  0  0  0
 51123  1  0  0  0
 51124  1  0  0  0
 52125  1  0  0  0
 52126  1  0  0  0
 53 54  1  0  0  0
 54 55  2  0  0  0
 54127  1  0  0  0
 55 57  1  0  0  0
 55128  1  0  0  0
 56 69  2  0  0  0
 57 58  2  0  0  0
 57129  1  0  0  0
 58130  1  0  0  0
 59 60  1  0  0  0
 59 61  1  0  0  0
 59 62  1  0  0  0
 60131  1  0  0  0
 60132  1  0  0  0
 60133  1  0  0  0
 61134  1  0  0  0
 61135  1  0  0  0
 61136  1  0  0  0
 62137  1  0  0  0
 62138  1  0  0  0
 62139  1  0  0  0
 63 65  1  0  0  0
 63140  1  0  0  0
 63141  1  0  0  0
 63142  1  0  0  0
 64143  1  0  0  0
 65144  1  0  0  0
 68 82  1  0  0  0
 71 72  2  0  0  0
 71 73  1  0  0  0
 71145  1  0  0  0
 72 74  1  0  0  0
 72146  1  0  0  0
 73 75  2  0  0  0
 73 83  1  0  0  0
 74 79  1  0  0  0
 74 84  2  0  0  0
 75 76  1  0  0  0
 75 84  1  0  0  0
 76147  1  0  0  0
 76148  1  0  0  0
 76149  1  0  0  0
 77150  1  0  0  0
 77151  1  0  0  0
 77152  1  0  0  0
 77 83  1  0  0  0
 78 83  1  0  0  0
 78153  1  0  0  0
 78154  1  0  0  0
 78155  1  0  0  0
 79 82  1  0  0  0
 79156  1  0  0  0
 79157  1  0  0  0
 80 81  1  0  0  0
 80 83  1  0  0  0
 80158  1  0  0  0
 80159  1  0  0  0
 81 85  1  0  0  0
 81160  1  0  0  0
 81161  1  0  0  0
 82162  1  0  0  0
 82163  1  0  0  0
 85164  1  0  0  0
M  ISO  4   1 100  68 101  82 101  85 100
M  END
> <chiral flag>
0

> <version>
0

> <s_m_source_file>
/data/baiqing/PycharmProjects/Reinvent-master-3.2/result/LINK_invent/BTK/process_docking_weight1_custom_sum_contain_oxygen_bond_distance_aromatic_linkinvent_7_9_3/rearranged_h_0109.sdf

> <i_m_source_file_index>
12

> <r_mmod_Potential_Energy-OPLS-2005>
-102.379257202148

> <r_mmod_Stretch_Energy-OPLS-2005>
49.3749580383301

> <r_mmod_Bend_Energy-OPLS-2005>
121.861503601074

> <r_mmod_Torsional_Energy-OPLS-2005>
246.713577270508

> <r_mmod_Improper_Torsional_Energy-OPLS-2005>
9.5184497833252

> <r_mmod_Van_der_Waal_Energy-OPLS-2005>
176.116882324219

> <r_mmod_Electrostatic_Energy-OPLS-2005>
-497.705047607422

> <r_mmod_Solvation_Energy-OPLS-2005>
-222.105819702148

> <b_mmod_Minimization_Converged-OPLS-2005>
0

> <r_mmod_RMS_Derivative-OPLS-2005>
2.18450117111206

$$$$
12
                    3D
 Structure written by MMmdl.
161168  0  0  1  0            999 V2000
  -30.6139  -14.6733   20.5045 C   0  0  0  0  0  0
  -30.4357  -12.4206   19.4532 C   0  0  0  0  0  0
  -29.5066  -12.5062   18.2224 C   0  0  0  0  0  0
  -28.0298  -12.3398   18.6360 C   0  0  0  0  0  0
  -27.6452  -13.2211   19.8536 C   0  0  2  0  0  0
  -28.6886  -13.1026   20.9848 C   0  0  0  0  0  0
  -25.2525  -13.8180   20.5681 C   0  0  0  0  0  0
  -24.1806  -13.0443   20.9209 C   0  0  0  0  0  0
  -24.6383  -11.6913   20.8752 C   0  0  0  0  0  0
  -23.9055  -10.4296   21.0403 C   0  0  0  0  0  0
  -24.3604   -9.4215   21.9178 C   0  0  0  0  0  0
  -23.6286   -8.2246   22.0749 C   0  0  0  0  0  0
  -22.4273   -8.0274   21.3532 C   0  0  0  0  0  0
  -21.9903   -9.0250   20.4648 C   0  0  0  0  0  0
  -22.7227  -10.2133   20.3054 C   0  0  0  0  0  0
  -21.6862   -6.0732   22.5270 C   0  0  0  0  0  0
  -21.4027   -6.5640   23.8203 C   0  0  0  0  0  0
  -21.3663   -5.6790   24.9163 C   0  0  0  0  0  0
  -21.6040   -4.3049   24.7215 C   0  0  0  0  0  0
  -21.8824   -3.8143   23.4338 C   0  0  0  0  0  0
  -21.9202   -4.6961   22.3394 C   0  0  0  0  0  0
  -22.7827  -13.5232   21.1861 C   0  0  0  0  0  0
  -22.1662   -4.2147   21.0969 F   0  0  0  0  0  0
  -21.5622   -3.4531   25.7725 F   0  0  0  0  0  0
  -29.9939  -13.4546   20.4111 N   0  0  0  0  0  0
  -26.2939  -12.9365   20.3268 N   0  0  0  0  0  0
  -25.9309  -11.6524   20.5747 N   0  0  0  0  0  0
  -22.0468  -12.8223   22.0420 N   0  0  0  0  0  0
  -25.4245  -15.1897   20.4093 N   0  0  0  0  0  0
  -31.7950  -14.8113   20.1775 O   0  0  0  0  0  0
  -21.6641   -6.8866   21.4229 O   0  0  0  0  0  0
  -22.3523  -14.5537   20.6698 O   0  0  0  0  0  0
  -24.6262  -31.8571   23.2001 C   0  0  0  0  0  0
  -25.9104  -32.4758   23.8340 C   0  0  1  0  0  0
  -27.2225  -27.3070   20.1340 C   0  0  0  0  0  0
  -25.5916  -33.8555   24.2268 N   0  0  0  0  0  0
  -23.4211  -30.4796   21.5408 C   0  0  2  0  0  0
  -24.8703  -28.9267   20.1131 C   0  0  0  0  0  0
  -22.7471  -29.4613   22.4915 C   0  0  0  0  0  0
  -18.0285  -28.1392   22.8473 C   0  0  0  0  0  0
  -24.1489  -36.7300   23.2639 C   0  0  0  0  0  0
  -25.9610  -30.7868   21.3697 C   0  0  0  0  0  0
  -26.0379  -29.4101   20.7182 C   0  0  0  0  0  0
  -27.2208  -28.6122   20.7156 C   0  0  0  0  0  0
  -26.0378  -26.8733   19.5053 C   0  0  0  0  0  0
  -24.8718  -27.6650   19.4949 C   0  0  0  0  0  0
  -23.6384  -29.8089   20.1576 C   0  0  0  0  0  0
  -25.4108  -36.3064   24.0325 C   0  0  1  0  0  0
  -20.5883  -28.3692   23.1275 C   0  0  2  0  0  0
  -20.6772  -26.9415   22.5408 C   0  0  0  0  0  0
  -19.5755  -26.6385   21.5206 C   0  0  0  0  0  0
  -18.1934  -26.7935   22.1618 C   0  0  0  0  0  0
  -19.1537  -28.8857   23.2873 C   0  0  0  0  0  0
  -18.9462  -30.1460   23.8890 C   0  0  0  0  0  0
  -17.6460  -30.6592   24.0561 C   0  0  0  0  0  0
  -25.9040  -34.9436   23.5095 C   0  0  0  0  0  0
  -16.5349  -29.9094   23.6324 C   0  0  0  0  0  0
  -16.7272  -28.6517   23.0335 C   0  0  0  0  0  0
  -26.4496  -31.6568   25.0713 C   0  0  0  0  0  0
  -25.3743  -31.3706   26.1452 C   0  0  0  0  0  0
  -27.0338  -30.2995   24.6159 C   0  0  0  0  0  0
  -27.6052  -32.4301   25.7494 C   0  0  0  0  0  0
  -27.5572  -37.1802   24.8458 C   0  0  0  0  0  0
  -21.4182  -29.3048   22.3668 N   0  0  0  0  0  0
  -26.4282  -37.3762   23.9405 N   0  0  0  0  0  0
  -24.6882  -31.0579   22.0949 N   0  0  0  0  0  0
  -23.4194  -28.8138   23.2987 O   0  0  0  0  0  0
  -28.3315  -26.4508   20.1428 O   0  0  0  0  0  0
  -26.5612  -34.8908   22.4664 O   0  0  0  0  0  0
  -23.5421  -32.1359   23.7337 O   0  0  0  0  0  0
  -31.6357  -21.3409   21.9200 C   0  0  0  0  0  0
  -32.1591  -19.8762   19.9300 C   0  0  0  0  0  0
  -28.7496  -22.4032   20.8154 C   0  0  0  0  0  0
  -28.6882  -23.7854   19.9935 C   0  0  0  0  0  0
  -30.2235  -17.1922   21.1114 C   0  0  0  0  0  0
  -29.1973  -21.0377   20.0767 C   0  0  0  0  0  0
  -29.4647  -18.4432   20.4196 C   0  0  0  0  0  0
  -28.1670  -25.1014   20.7438 C   0  0  0  0  0  0
  -31.2686  -20.0427   21.1802 C   0  0  0  0  0  0
  -29.8241  -15.7621   20.8034 N   0  0  0  0  0  0
  -29.8006  -19.8764   20.8939 N   0  3  1  0  0  0
  -31.4762  -12.5546   19.1521 H   0  0  0  0  0  0
  -30.3811  -11.4318   19.9109 H   0  0  0  0  0  0
  -29.7784  -11.7422   17.4927 H   0  0  0  0  0  0
  -29.6416  -13.4680   17.7247 H   0  0  0  0  0  0
  -27.8730  -11.2886   18.8779 H   0  0  0  0  0  0
  -27.3769  -12.5573   17.7898 H   0  0  0  0  0  0
  -27.6541  -14.2516   19.4982 H   0  0  0  0  0  0
  -28.7132  -12.0876   21.3838 H   0  0  0  0  0  0
  -28.4283  -13.7500   21.8242 H   0  0  0  0  0  0
  -25.2753   -9.5699   22.4746 H   0  0  0  0  0  0
  -24.0007   -7.4644   22.7470 H   0  0  0  0  0  0
  -21.0832   -8.8758   19.8962 H   0  0  0  0  0  0
  -22.3672  -10.9656   19.6156 H   0  0  0  0  0  0
  -21.2019   -7.6146   23.9703 H   0  0  0  0  0  0
  -21.1481   -6.0516   25.9060 H   0  0  0  0  0  0
  -22.0604   -2.7608   23.2831 H   0  0  0  0  0  0
  -22.4095  -11.9892   22.4810 H   0  0  0  0  0  0
  -21.1081  -13.1241   22.2620 H   0  0  0  0  0  0
  -24.6520  -15.8393   20.5083 H   0  0  0  0  0  0
  -26.2591  -15.6232   20.0369 H   0  0  0  0  0  0
  -26.7171  -32.5431   23.1088 H   0  0  0  0  0  0
  -25.0050  -33.9696   25.0404 H   0  0  0  0  0  0
  -22.7155  -31.3000   21.3937 H   0  0  0  0  0  0
  -23.3732  -35.9652   23.3291 H   0  0  0  0  0  0
  -24.3579  -36.8935   22.2054 H   0  0  0  0  0  0
  -23.7270  -37.6511   23.6673 H   0  0  0  0  0  0
  -26.0851  -31.5446   20.5950 H   0  0  0  0  0  0
  -26.8444  -30.8439   21.9938 H   0  0  0  0  0  0
  -28.1183  -28.9776   21.1945 H   0  0  0  0  0  0
  -26.0115  -25.9030   19.0296 H   0  0  0  0  0  0
  -23.9777  -27.2901   19.0159 H   0  0  0  0  0  0
  -23.7614  -30.5828   19.3989 H   0  0  0  0  0  0
  -22.7587  -29.2386   19.8535 H   0  0  0  0  0  0
  -25.1293  -36.1905   25.0819 H   0  0  0  0  0  0
  -20.9983  -28.3274   24.1392 H   0  0  0  0  0  0
  -20.5660  -26.2305   23.3606 H   0  0  0  0  0  0
  -21.6641  -26.7436   22.1207 H   0  0  0  0  0  0
  -19.6912  -25.6293   21.1241 H   0  0  0  0  0  0
  -19.6700  -27.3187   20.6730 H   0  0  0  0  0  0
  -17.4200  -26.6663   21.4029 H   0  0  0  0  0  0
  -18.0348  -26.0088   22.9028 H   0  0  0  0  0  0
  -19.7937  -30.7276   24.2260 H   0  0  0  0  0  0
  -17.5015  -31.6268   24.5172 H   0  0  0  0  0  0
  -15.5351  -30.2992   23.7658 H   0  0  0  0  0  0
  -15.8672  -28.0843   22.7036 H   0  0  0  0  0  0
  -24.5917  -30.7048   25.7798 H   0  0  0  0  0  0
  -24.8938  -32.2871   26.4886 H   0  0  0  0  0  0
  -25.8090  -30.8887   27.0221 H   0  0  0  0  0  0
  -26.2909  -29.6741   24.1195 H   0  0  0  0  0  0
  -27.4054  -29.7253   25.4657 H   0  0  0  0  0  0
  -27.8768  -30.4284   23.9366 H   0  0  0  0  0  0
  -27.2659  -33.3596   26.2080 H   0  0  0  0  0  0
  -28.3875  -32.6865   25.0337 H   0  0  0  0  0  0
  -28.0707  -31.8414   26.5412 H   0  0  0  0  0  0
  -28.2578  -38.0106   24.7488 H   0  0  0  0  0  0
  -28.1076  -36.2633   24.6295 H   0  0  0  0  0  0
  -27.2289  -37.1465   25.8861 H   0  0  0  0  0  0
  -20.9350  -29.8791   21.6898 H   0  0  0  0  0  0
  -26.0154  -38.2833   24.1406 H   0  0  0  0  0  0
  -32.6736  -21.3052   22.2510 H   0  0  0  0  0  0
  -31.0264  -21.4854   22.8126 H   0  0  0  0  0  0
  -31.5462  -22.2196   21.2804 H   0  0  0  0  0  0
  -33.2101  -19.8425   20.2168 H   0  0  0  0  0  0
  -32.0495  -20.7091   19.2369 H   0  0  0  0  0  0
  -31.9534  -18.9576   19.3818 H   0  0  0  0  0  0
  -27.7614  -22.2281   21.2409 H   0  0  0  0  0  0
  -29.3734  -22.5885   21.6852 H   0  0  0  0  0  0
  -28.0689  -23.6368   19.1090 H   0  0  0  0  0  0
  -29.6905  -23.9902   19.6159 H   0  0  0  0  0  0
  -30.1162  -17.2922   22.1918 H   0  0  0  0  0  0
  -31.2927  -17.2671   20.9164 H   0  0  0  0  0  0
  -29.8828  -21.2884   19.2691 H   0  0  0  0  0  0
  -28.3128  -20.6548   19.5662 H   0  0  0  0  0  0
  -28.3889  -18.3102   20.5354 H   0  0  0  0  0  0
  -29.6460  -18.3925   19.3464 H   0  0  0  0  0  0
  -28.7019  -25.1542   21.6925 H   0  0  0  0  0  0
  -27.1267  -24.9387   21.0281 H   0  0  0  0  0  0
  -31.5453  -19.2610   21.8864 H   0  0  0  0  0  0
  -28.8540  -15.5388   20.9661 H   0  0  0  0  0  0
  -29.3436  -19.9328   21.7932 H   0  0  0  0  0  0
  1 25  1  0  0  0
  1 30  2  0  0  0
  1 80  1  0  0  0
  2  3  1  0  0  0
  2 25  1  0  0  0
  2 82  1  0  0  0
  2 83  1  0  0  0
  3  4  1  0  0  0
  3 84  1  0  0  0
  3 85  1  0  0  0
  4  5  1  0  0  0
  4 86  1  0  0  0
  4 87  1  0  0  0
  5  6  1  0  0  0
  5 26  1  0  0  0
  5 88  1  0  0  0
  6 25  1  0  0  0
  6 89  1  0  0  0
  6 90  1  0  0  0
  7  8  2  0  0  0
  7 26  1  0  0  0
  7 29  1  0  0  0
  8  9  1  0  0  0
  8 22  1  0  0  0
  9 10  1  0  0  0
  9 27  2  0  0  0
 10 11  2  0  0  0
 10 15  1  0  0  0
 11 12  1  0  0  0
 11 91  1  0  0  0
 12 13  2  0  0  0
 12 92  1  0  0  0
 13 14  1  0  0  0
 13 31  1  0  0  0
 14 15  2  0  0  0
 14 93  1  0  0  0
 15 94  1  0  0  0
 16 17  2  0  0  0
 16 21  1  0  0  0
 16 31  1  0  0  0
 17 18  1  0  0  0
 17 95  1  0  0  0
 18 19  2  0  0  0
 18 96  1  0  0  0
 19 20  1  0  0  0
 19 24  1  0  0  0
 20 21  2  0  0  0
 20 97  1  0  0  0
 21 23  1  0  0  0
 22 28  1  0  0  0
 22 32  2  0  0  0
 26 27  1  0  0  0
 28 98  1  0  0  0
 28 99  1  0  0  0
 29100  1  0  0  0
 29101  1  0  0  0
 33 34  1  0  0  0
 33 66  1  0  0  0
 33 70  2  0  0  0
 34 36  1  0  0  0
 34 59  1  0  0  0
 34102  1  0  0  0
 35 44  2  0  0  0
 35 45  1  0  0  0
 35 68  1  0  0  0
 36 56  1  0  0  0
 36103  1  0  0  0
 37 39  1  0  0  0
 37 47  1  0  0  0
 37 66  1  0  0  0
 37104  1  0  0  0
 38 43  2  0  0  0
 38 46  1  0  0  0
 38 47  1  0  0  0
 39 64  1  0  0  0
 39 67  2  0  0  0
 40 52  1  0  0  0
 40 53  2  0  0  0
 40 58  1  0  0  0
 41105  1  0  0  0
 41106  1  0  0  0
 41107  1  0  0  0
 41 48  1  0  0  0
 42 43  1  0  0  0
 42 66  1  0  0  0
 42108  1  0  0  0
 42109  1  0  0  0
 43 44  1  0  0  0
 44110  1  0  0  0
 45 46  2  0  0  0
 45111  1  0  0  0
 46112  1  0  0  0
 47113  1  0  0  0
 47114  1  0  0  0
 48 56  1  0  0  0
 48 65  1  0  0  0
 48115  1  0  0  0
 49 50  1  0  0  0
 49 53  1  0  0  0
 49 64  1  0  0  0
 49116  1  0  0  0
 50 51  1  0  0  0
 50117  1  0  0  0
 50118  1  0  0  0
 51 52  1  0  0  0
 51119  1  0  0  0
 51120  1  0  0  0
 52121  1  0  0  0
 52122  1  0  0  0
 53 54  1  0  0  0
 54 55  2  0  0  0
 54123  1  0  0  0
 55 57  1  0  0  0
 55124  1  0  0  0
 56 69  2  0  0  0
 57 58  2  0  0  0
 57125  1  0  0  0
 58126  1  0  0  0
 59 60  1  0  0  0
 59 61  1  0  0  0
 59 62  1  0  0  0
 60127  1  0  0  0
 60128  1  0  0  0
 60129  1  0  0  0
 61130  1  0  0  0
 61131  1  0  0  0
 61132  1  0  0  0
 62133  1  0  0  0
 62134  1  0  0  0
 62135  1  0  0  0
 63 65  1  0  0  0
 63136  1  0  0  0
 63137  1  0  0  0
 63138  1  0  0  0
 64139  1  0  0  0
 65140  1  0  0  0
 68 78  1  0  0  0
 71141  1  0  0  0
 71142  1  0  0  0
 71143  1  0  0  0
 71 79  1  0  0  0
 72 79  1  0  0  0
 72144  1  0  0  0
 72145  1  0  0  0
 72146  1  0  0  0
 73 74  1  0  0  0
 73 76  1  0  0  0
 73147  1  0  0  0
 73148  1  0  0  0
 74 78  1  0  0  0
 74149  1  0  0  0
 74150  1  0  0  0
 75 77  1  0  0  0
 75 80  1  0  0  0
 75151  1  0  0  0
 75152  1  0  0  0
 76153  1  0  0  0
 76154  1  0  0  0
 76 81  1  0  0  0
 77 81  1  0  0  0
 77155  1  0  0  0
 77156  1  0  0  0
 78157  1  0  0  0
 78158  1  0  0  0
 79 81  1  0  0  0
 79159  1  0  0  0
 80160  1  0  0  0
 81161  1  0  0  0
M  CHG  1  81   1
M  ISO  4   1 100  68 101  78 101  80 100
M  END
> <chiral flag>
0

> <version>
0

> <s_m_source_file>
/data/baiqing/PycharmProjects/Reinvent-master-3.2/result/LINK_invent/BTK/process_docking_weight1_custom_sum_contain_oxygen_bond_distance_aromatic_linkinvent_7_9_3/rearranged_h_0109.sdf

> <i_m_source_file_index>
13

> <r_mmod_Potential_Energy-OPLS-2005>
-5.68442726135254

> <r_mmod_Stretch_Energy-OPLS-2005>
104.231666564941

> <r_mmod_Bend_Energy-OPLS-2005>
154.65837097168

> <r_mmod_Torsional_Energy-OPLS-2005>
243.811264038086

> <r_mmod_Improper_Torsional_Energy-OPLS-2005>
4.07606363296509

> <r_mmod_Van_der_Waal_Energy-OPLS-2005>
127.071495056152

> <r_mmod_Electrostatic_Energy-OPLS-2005>
-246.69873046875

> <r_mmod_Solvation_Energy-OPLS-2005>
-450.803009033203

> <b_mmod_Minimization_Converged-OPLS-2005>
0

> <r_mmod_RMS_Derivative-OPLS-2005>
1.55802524089813

$$$$
13
                    3D
 Structure written by MMmdl.
164172  0  0  1  0            999 V2000
  -30.6701  -14.6087   20.5264 C   0  0  0  0  0  0
  -30.4199  -12.3854   19.4461 C   0  0  0  0  0  0
  -29.4947  -12.4886   18.2154 C   0  0  0  0  0  0
  -28.0184  -12.3363   18.6302 C   0  0  0  0  0  0
  -27.6434  -13.2217   19.8485 C   0  0  2  0  0  0
  -28.6871  -13.0977   20.9800 C   0  0  0  0  0  0
  -25.2515  -13.8178   20.5670 C   0  0  0  0  0  0
  -24.1789  -13.0434   20.9174 C   0  0  0  0  0  0
  -24.6363  -11.6911   20.8707 C   0  0  0  0  0  0
  -23.9026  -10.4285   21.0381 C   0  0  0  0  0  0
  -24.3585   -9.4210   21.9165 C   0  0  0  0  0  0
  -23.6274   -8.2236   22.0744 C   0  0  0  0  0  0
  -22.4259   -8.0255   21.3541 C   0  0  0  0  0  0
  -21.9882   -9.0214   20.4635 C   0  0  0  0  0  0
  -22.7191  -10.2107   20.3031 C   0  0  0  0  0  0
  -21.6857   -6.0706   22.5262 C   0  0  0  0  0  0
  -21.4017   -6.5621   23.8184 C   0  0  0  0  0  0
  -21.3658   -5.6785   24.9158 C   0  0  0  0  0  0
  -21.6043   -4.3040   24.7224 C   0  0  0  0  0  0
  -21.8827   -3.8124   23.4343 C   0  0  0  0  0  0
  -21.9199   -4.6935   22.3396 C   0  0  0  0  0  0
  -22.7816  -13.5216   21.1846 C   0  0  0  0  0  0
  -22.1667   -4.2115   21.0973 F   0  0  0  0  0  0
  -21.5631   -3.4527   25.7739 F   0  0  0  0  0  0
  -29.9994  -13.4222   20.4090 N   0  0  0  0  0  0
  -26.2930  -12.9374   20.3239 N   0  0  0  0  0  0
  -25.9290  -11.6526   20.5711 N   0  0  0  0  0  0
  -22.0479  -12.8196   22.0412 N   0  0  0  0  0  0
  -25.4290  -15.1884   20.4135 N   0  0  0  0  0  0
  -31.8378  -14.7148   20.1443 O   0  0  0  0  0  0
  -21.6641   -6.8845   21.4225 O   0  0  0  0  0  0
  -22.3481  -14.5517   20.6685 O   0  0  0  0  0  0
  -24.6239  -31.8626   23.2058 C   0  0  0  0  0  0
  -25.9098  -32.4795   23.8365 C   0  0  1  0  0  0
  -27.2112  -27.3260   20.1224 C   0  0  0  0  0  0
  -25.5959  -33.8593   24.2283 N   0  0  0  0  0  0
  -23.4179  -30.4900   21.5456 C   0  0  2  0  0  0
  -24.8616  -28.9582   20.0993 C   0  0  0  0  0  0
  -22.7492  -29.4623   22.4908 C   0  0  0  0  0  0
  -18.0307  -28.1362   22.8483 C   0  0  0  0  0  0
  -24.1501  -36.7281   23.2629 C   0  0  0  0  0  0
  -25.9583  -30.7992   21.3746 C   0  0  0  0  0  0
  -26.0310  -29.4291   20.7119 C   0  0  0  0  0  0
  -27.2055  -28.6250   20.7169 C   0  0  0  0  0  0
  -26.0235  -26.9237   19.4607 C   0  0  0  0  0  0
  -24.8615  -27.7114   19.4620 C   0  0  0  0  0  0
  -23.6308  -29.8360   20.1561 C   0  0  0  0  0  0
  -25.4125  -36.3076   24.0332 C   0  0  1  0  0  0
  -20.5901  -28.3660   23.1263 C   0  0  2  0  0  0
  -20.6774  -26.9382   22.5388 C   0  0  0  0  0  0
  -19.5750  -26.6352   21.5198 C   0  0  0  0  0  0
  -18.1937  -26.7897   22.1623 C   0  0  0  0  0  0
  -19.1557  -28.8830   23.2860 C   0  0  0  0  0  0
  -18.9496  -30.1445   23.8855 C   0  0  0  0  0  0
  -17.6491  -30.6553   24.0574 C   0  0  0  0  0  0
  -25.9074  -34.9460   23.5090 C   0  0  0  0  0  0
  -16.5379  -29.9074   23.6328 C   0  0  0  0  0  0
  -16.7300  -28.6495   23.0323 C   0  0  0  0  0  0
  -26.4487  -31.6586   25.0727 C   0  0  0  0  0  0
  -25.3749  -31.3753   26.1490 C   0  0  0  0  0  0
  -27.0302  -30.3005   24.6152 C   0  0  0  0  0  0
  -27.6047  -32.4323   25.7493 C   0  0  0  0  0  0
  -27.5587  -37.1795   24.8473 C   0  0  0  0  0  0
  -21.4200  -29.3046   22.3676 N   0  0  0  0  0  0
  -26.4286  -37.3783   23.9433 N   0  0  0  0  0  0
  -24.6854  -31.0652   22.1003 N   0  0  0  0  0  0
  -23.4240  -28.8141   23.2926 O   0  0  0  0  0  0
  -28.3102  -26.4565   20.2231 O   0  0  0  0  0  0
  -26.5610  -34.8926   22.4647 O   0  0  0  0  0  0
  -23.5401  -32.1414   23.7398 O   0  0  0  0  0  0
  -28.6458  -18.8130   21.2276 C   0  0  0  0  0  0
  -30.7956  -19.4456   20.4089 C   0  0  0  0  0  0
  -29.9686  -18.4194   20.9262 C   0  0  0  0  0  0
  -28.2002  -20.1456   20.9669 C   0  0  0  0  0  0
  -29.1052  -21.0845   20.3798 C   0  0  0  0  0  0
  -26.4969  -20.5046   22.8306 C   0  0  0  0  0  0
  -26.0475  -19.3556   19.0732 C   0  0  0  0  0  0
  -30.5896  -17.0305   21.3117 C   0  0  0  0  0  0
  -28.6922  -22.4724   19.7769 C   0  0  0  0  0  0
  -28.9370  -23.8449   20.5307 C   0  0  0  0  0  0
  -28.0775  -25.0292   19.9188 C   0  0  0  0  0  0
  -26.7450  -20.5019   21.3084 C   0  0  2  0  0  0
  -25.7033  -19.6370   20.5457 C   0  0  2  0  0  0
  -30.3856  -20.7132   20.1376 N   0  0  0  0  0  0
  -29.9750  -15.7110   20.9450 N   0  0  0  0  0  0
  -25.5535  -18.4524   21.1444 F   0  0  0  0  0  0
  -31.4628  -12.4923   19.1429 H   0  0  0  0  0  0
  -30.3454  -11.3984   19.9033 H   0  0  0  0  0  0
  -29.7548  -11.7207   17.4855 H   0  0  0  0  0  0
  -29.6434  -13.4484   17.7186 H   0  0  0  0  0  0
  -27.8538  -11.2867   18.8733 H   0  0  0  0  0  0
  -27.3632  -12.5529   17.7860 H   0  0  0  0  0  0
  -27.6549  -14.2521   19.4918 H   0  0  0  0  0  0
  -28.6964  -12.0833   21.3800 H   0  0  0  0  0  0
  -28.4355  -13.7529   21.8145 H   0  0  0  0  0  0
  -25.2731   -9.5695   22.4735 H   0  0  0  0  0  0
  -23.9974   -7.4637   22.7471 H   0  0  0  0  0  0
  -21.0805   -8.8703   19.8950 H   0  0  0  0  0  0
  -22.3618  -10.9626   19.6121 H   0  0  0  0  0  0
  -21.2006   -7.6132   23.9677 H   0  0  0  0  0  0
  -21.1479   -6.0520   25.9058 H   0  0  0  0  0  0
  -22.0615   -2.7586   23.2853 H   0  0  0  0  0  0
  -22.4122  -11.9850   22.4769 H   0  0  0  0  0  0
  -21.1089  -13.1189   22.2618 H   0  0  0  0  0  0
  -24.6871  -15.8619   20.5677 H   0  0  0  0  0  0
  -26.2911  -15.6251   20.1161 H   0  0  0  0  0  0
  -26.7156  -32.5452   23.1098 H   0  0  0  0  0  0
  -25.0250  -33.9756   25.0524 H   0  0  0  0  0  0
  -22.7093  -31.3076   21.4026 H   0  0  0  0  0  0
  -23.3770  -35.9606   23.3303 H   0  0  0  0  0  0
  -24.3620  -36.8882   22.2039 H   0  0  0  0  0  0
  -23.7231  -37.6481   23.6645 H   0  0  0  0  0  0
  -26.0856  -31.5661   20.6083 H   0  0  0  0  0  0
  -26.8393  -30.8416   22.0028 H   0  0  0  0  0  0
  -28.0969  -28.9790   21.2150 H   0  0  0  0  0  0
  -25.9432  -25.9786   18.9472 H   0  0  0  0  0  0
  -23.9713  -27.3487   18.9662 H   0  0  0  0  0  0
  -23.7529  -30.6187   19.4062 H   0  0  0  0  0  0
  -22.7500  -29.2696   19.8469 H   0  0  0  0  0  0
  -25.1290  -36.1896   25.0818 H   0  0  0  0  0  0
  -21.0030  -28.3197   24.1357 H   0  0  0  0  0  0
  -20.5636  -26.2283   23.3593 H   0  0  0  0  0  0
  -21.6649  -26.7367   22.1196 H   0  0  0  0  0  0
  -19.6938  -25.6272   21.1209 H   0  0  0  0  0  0
  -19.6678  -27.3178   20.6739 H   0  0  0  0  0  0
  -17.4211  -26.6661   21.4016 H   0  0  0  0  0  0
  -18.0333  -26.0010   22.8986 H   0  0  0  0  0  0
  -19.7982  -30.7289   24.2145 H   0  0  0  0  0  0
  -17.5054  -31.6219   24.5214 H   0  0  0  0  0  0
  -15.5381  -30.2969   23.7650 H   0  0  0  0  0  0
  -15.8701  -28.0837   22.6994 H   0  0  0  0  0  0
  -24.5944  -30.7046   25.7880 H   0  0  0  0  0  0
  -24.8927  -32.2928   26.4867 H   0  0  0  0  0  0
  -25.8101  -30.9016   27.0295 H   0  0  0  0  0  0
  -26.2858  -29.6772   24.1184 H   0  0  0  0  0  0
  -27.3991  -29.7237   25.4634 H   0  0  0  0  0  0
  -27.8739  -30.4268   23.9370 H   0  0  0  0  0  0
  -27.2663  -33.3665   26.1982 H   0  0  0  0  0  0
  -28.3900  -32.6794   25.0342 H   0  0  0  0  0  0
  -28.0663  -31.8510   26.5476 H   0  0  0  0  0  0
  -28.2569  -38.0122   24.7543 H   0  0  0  0  0  0
  -28.1082  -36.2640   24.6226 H   0  0  0  0  0  0
  -27.2328  -37.1381   25.8881 H   0  0  0  0  0  0
  -20.9331  -29.8852   21.6989 H   0  0  0  0  0  0
  -26.0147  -38.2839   24.1460 H   0  0  0  0  0  0
  -27.9738  -18.0999   21.6801 H   0  0  0  0  0  0
  -31.8403  -19.2505   20.2200 H   0  0  0  0  0  0
  -27.2053  -21.1527   23.3483 H   0  0  0  0  0  0
  -26.5834  -19.5076   23.2652 H   0  0  0  0  0  0
  -25.4981  -20.8761   23.0620 H   0  0  0  0  0  0
  -26.3090  -20.2707   18.5440 H   0  0  0  0  0  0
  -25.2029  -18.9018   18.5532 H   0  0  0  0  0  0
  -26.8866  -18.6649   18.9849 H   0  0  0  0  0  0
  -30.6632  -17.0301   22.3997 H   0  0  0  0  0  0
  -31.6251  -17.0477   20.9693 H   0  0  0  0  0  0
  -27.6566  -22.4160   19.4457 H   0  0  0  0  0  0
  -29.2316  -22.5592   18.8323 H   0  0  0  0  0  0
  -29.9997  -24.0867   20.5132 H   0  0  0  0  0  0
  -28.6712  -23.7235   21.5808 H   0  0  0  0  0  0
  -27.0675  -24.7578   20.2282 H   0  0  0  0  0  0
  -28.1063  -24.9449   18.8315 H   0  0  0  0  0  0
  -26.5569  -21.5288   21.0044 H   0  0  0  0  0  0
  -24.7244  -20.1177   20.6072 H   0  0  0  0  0  0
  -29.0039  -15.5679   21.1811 H   0  0  0  0  0  0
  1 25  1  0  0  0
  1 30  2  0  0  0
  1 85  1  0  0  0
  2  3  1  0  0  0
  2 25  1  0  0  0
  2 87  1  0  0  0
  2 88  1  0  0  0
  3  4  1  0  0  0
  3 89  1  0  0  0
  3 90  1  0  0  0
  4  5  1  0  0  0
  4 91  1  0  0  0
  4 92  1  0  0  0
  5  6  1  0  0  0
  5 26  1  0  0  0
  5 93  1  0  0  0
  6 25  1  0  0  0
  6 94  1  0  0  0
  6 95  1  0  0  0
  7  8  2  0  0  0
  7 26  1  0  0  0
  7 29  1  0  0  0
  8  9  1  0  0  0
  8 22  1  0  0  0
  9 10  1  0  0  0
  9 27  2  0  0  0
 10 11  2  0  0  0
 10 15  1  0  0  0
 11 12  1  0  0  0
 11 96  1  0  0  0
 12 13  2  0  0  0
 12 97  1  0  0  0
 13 14  1  0  0  0
 13 31  1  0  0  0
 14 15  2  0  0  0
 14 98  1  0  0  0
 15 99  1  0  0  0
 16 17  2  0  0  0
 16 21  1  0  0  0
 16 31  1  0  0  0
 17 18  1  0  0  0
 17100  1  0  0  0
 18 19  2  0  0  0
 18101  1  0  0  0
 19 20  1  0  0  0
 19 24  1  0  0  0
 20 21  2  0  0  0
 20102  1  0  0  0
 21 23  1  0  0  0
 22 28  1  0  0  0
 22 32  2  0  0  0
 26 27  1  0  0  0
 28103  1  0  0  0
 28104  1  0  0  0
 29105  1  0  0  0
 29106  1  0  0  0
 33 34  1  0  0  0
 33 66  1  0  0  0
 33 70  2  0  0  0
 34 36  1  0  0  0
 34 59  1  0  0  0
 34107  1  0  0  0
 35 44  2  0  0  0
 35 45  1  0  0  0
 35 68  1  0  0  0
 36 56  1  0  0  0
 36108  1  0  0  0
 37 39  1  0  0  0
 37 47  1  0  0  0
 37 66  1  0  0  0
 37109  1  0  0  0
 38 43  2  0  0  0
 38 46  1  0  0  0
 38 47  1  0  0  0
 39 64  1  0  0  0
 39 67  2  0  0  0
 40 52  1  0  0  0
 40 53  2  0  0  0
 40 58  1  0  0  0
 41110  1  0  0  0
 41111  1  0  0  0
 41112  1  0  0  0
 41 48  1  0  0  0
 42 43  1  0  0  0
 42 66  1  0  0  0
 42113  1  0  0  0
 42114  1  0  0  0
 43 44  1  0  0  0
 44115  1  0  0  0
 45 46  2  0  0  0
 45116  1  0  0  0
 46117  1  0  0  0
 47118  1  0  0  0
 47119  1  0  0  0
 48 56  1  0  0  0
 48 65  1  0  0  0
 48120  1  0  0  0
 49 50  1  0  0  0
 49 53  1  0  0  0
 49 64  1  0  0  0
 49121  1  0  0  0
 50 51  1  0  0  0
 50122  1  0  0  0
 50123  1  0  0  0
 51 52  1  0  0  0
 51124  1  0  0  0
 51125  1  0  0  0
 52126  1  0  0  0
 52127  1  0  0  0
 53 54  1  0  0  0
 54 55  2  0  0  0
 54128  1  0  0  0
 55 57  1  0  0  0
 55129  1  0  0  0
 56 69  2  0  0  0
 57 58  2  0  0  0
 57130  1  0  0  0
 58131  1  0  0  0
 59 60  1  0  0  0
 59 61  1  0  0  0
 59 62  1  0  0  0
 60132  1  0  0  0
 60133  1  0  0  0
 60134  1  0  0  0
 61135  1  0  0  0
 61136  1  0  0  0
 61137  1  0  0  0
 62138  1  0  0  0
 62139  1  0  0  0
 62140  1  0  0  0
 63 65  1  0  0  0
 63141  1  0  0  0
 63142  1  0  0  0
 63143  1  0  0  0
 64144  1  0  0  0
 65145  1  0  0  0
 68 81  1  0  0  0
 71 73  2  0  0  0
 71 74  1  0  0  0
 71146  1  0  0  0
 72 73  1  0  0  0
 72 84  2  0  0  0
 72147  1  0  0  0
 73 78  1  0  0  0
 74 75  2  0  0  0
 74 82  1  0  0  0
 75 79  1  0  0  0
 75 84  1  0  0  0
 76148  1  0  0  0
 76149  1  0  0  0
 76150  1  0  0  0
 76 82  1  0  0  0
 77151  1  0  0  0
 77152  1  0  0  0
 77153  1  0  0  0
 77 83  1  0  0  0
 78 85  1  0  0  0
 78154  1  0  0  0
 78155  1  0  0  0
 79 80  1  0  0  0
 79156  1  0  0  0
 79157  1  0  0  0
 80 81  1  0  0  0
 80158  1  0  0  0
 80159  1  0  0  0
 81160  1  0  0  0
 81161  1  0  0  0
 82 83  1  0  0  0
 82162  1  0  0  0
 83 86  1  0  0  0
 83163  1  0  0  0
 85164  1  0  0  0
M  ISO  4   1 100  68 101  81 101  85 100
M  END
> <chiral flag>
0

> <version>
0

> <s_m_source_file>
/data/baiqing/PycharmProjects/Reinvent-master-3.2/result/LINK_invent/BTK/process_docking_weight1_custom_sum_contain_oxygen_bond_distance_aromatic_linkinvent_7_9_3/rearranged_h_0109.sdf

> <i_m_source_file_index>
14

> <r_mmod_Potential_Energy-OPLS-2005>
-117.672714233398

> <r_mmod_Stretch_Energy-OPLS-2005>
72.4713897705078

> <r_mmod_Bend_Energy-OPLS-2005>
150.856155395508

> <r_mmod_Torsional_Energy-OPLS-2005>
208.536804199219

> <r_mmod_Improper_Torsional_Energy-OPLS-2005>
4.79656171798706

> <r_mmod_Van_der_Waal_Energy-OPLS-2005>
153.557266235352

> <r_mmod_Electrostatic_Energy-OPLS-2005>
-537.501647949219

> <r_mmod_Solvation_Energy-OPLS-2005>
-218.78532409668

> <b_mmod_Minimization_Converged-OPLS-2005>
0

> <r_mmod_RMS_Derivative-OPLS-2005>
3.43890404701233

$$$$
14
                    3D
 Structure written by MMmdl.
161169  0  0  1  0            999 V2000
  -30.6156  -14.8196   20.4012 C   0  0  0  0  0  0
  -30.4412  -12.5094   19.4551 C   0  0  0  0  0  0
  -29.5144  -12.5086   18.2228 C   0  0  0  0  0  0
  -28.0474  -12.2980   18.6460 C   0  0  0  0  0  0
  -27.6306  -13.2316   19.8168 C   0  0  2  0  0  0
  -28.6825  -13.2559   20.9444 C   0  0  0  0  0  0
  -25.2532  -13.8176   20.5631 C   0  0  0  0  0  0
  -24.1804  -13.0427   20.9209 C   0  0  0  0  0  0
  -24.6364  -11.6904   20.8710 C   0  0  0  0  0  0
  -23.9041  -10.4290   21.0374 C   0  0  0  0  0  0
  -24.3590   -9.4222   21.9164 C   0  0  0  0  0  0
  -23.6270   -8.2255   22.0742 C   0  0  0  0  0  0
  -22.4262   -8.0253   21.3531 C   0  0  0  0  0  0
  -21.9886   -9.0220   20.4633 C   0  0  0  0  0  0
  -22.7204  -10.2110   20.3022 C   0  0  0  0  0  0
  -21.6865   -6.0706   22.5249 C   0  0  0  0  0  0
  -21.4048   -6.5618   23.8182 C   0  0  0  0  0  0
  -21.3677   -5.6779   24.9149 C   0  0  0  0  0  0
  -21.6070   -4.3039   24.7222 C   0  0  0  0  0  0
  -21.8839   -3.8115   23.4345 C   0  0  0  0  0  0
  -21.9212   -4.6932   22.3394 C   0  0  0  0  0  0
  -22.7840  -13.5263   21.1852 C   0  0  0  0  0  0
  -22.1669   -4.2107   21.0977 F   0  0  0  0  0  0
  -21.5617   -3.4524   25.7748 F   0  0  0  0  0  0
  -29.9749  -13.5982   20.3374 N   0  0  0  0  0  0
  -26.2887  -12.9340   20.3123 N   0  0  0  0  0  0
  -25.9290  -11.6509   20.5688 N   0  0  0  0  0  0
  -22.0452  -12.8262   22.0381 N   0  0  0  0  0  0
  -25.4322  -15.1882   20.4028 N   0  0  0  0  0  0
  -31.8371  -14.8563   20.2007 O   0  0  0  0  0  0
  -21.6655   -6.8815   21.4194 O   0  0  0  0  0  0
  -22.3538  -14.5544   20.6639 O   0  0  0  0  0  0
  -24.6344  -31.8477   23.1978 C   0  0  0  0  0  0
  -25.9173  -32.4728   23.8310 C   0  0  1  0  0  0
  -27.2109  -27.2681   20.1190 C   0  0  0  0  0  0
  -25.6023  -33.8548   24.2233 N   0  0  0  0  0  0
  -23.4260  -30.4628   21.5517 C   0  0  2  0  0  0
  -24.8605  -28.9021   20.1324 C   0  0  0  0  0  0
  -22.7508  -29.4515   22.5088 C   0  0  0  0  0  0
  -18.0245  -28.1363   22.8527 C   0  0  0  0  0  0
  -24.1469  -36.7233   23.2639 C   0  0  0  0  0  0
  -25.9654  -30.7690   21.3618 C   0  0  0  0  0  0
  -26.0408  -29.3923   20.7064 C   0  0  0  0  0  0
  -27.2248  -28.5907   20.6719 C   0  0  0  0  0  0
  -25.9938  -26.8399   19.5368 C   0  0  0  0  0  0
  -24.8365  -27.6299   19.5477 C   0  0  0  0  0  0
  -23.6374  -29.7819   20.1753 C   0  0  0  0  0  0
  -25.4104  -36.3029   24.0287 C   0  0  1  0  0  0
  -20.5843  -28.3613   23.1350 C   0  0  2  0  0  0
  -20.6750  -26.9359   22.5426 C   0  0  0  0  0  0
  -19.5724  -26.6375   21.5230 C   0  0  0  0  0  0
  -18.1898  -26.7916   22.1643 C   0  0  0  0  0  0
  -19.1515  -28.8831   23.2905 C   0  0  0  0  0  0
  -18.9441  -30.1481   23.8852 C   0  0  0  0  0  0
  -17.6436  -30.6581   24.0559 C   0  0  0  0  0  0
  -25.9053  -34.9421   23.5022 C   0  0  0  0  0  0
  -16.5327  -29.9048   23.6371 C   0  0  0  0  0  0
  -16.7241  -28.6465   23.0391 C   0  0  0  0  0  0
  -26.4573  -31.6639   25.0750 C   0  0  0  0  0  0
  -25.3816  -31.3851   26.1509 C   0  0  0  0  0  0
  -27.0499  -30.3076   24.6269 C   0  0  0  0  0  0
  -27.6012  -32.4512   25.7547 C   0  0  0  0  0  0
  -27.5542  -37.1733   24.8458 C   0  0  0  0  0  0
  -21.4202  -29.2976   22.3828 N   0  0  0  0  0  0
  -26.4258  -37.3729   23.9407 N   0  0  0  0  0  0
  -24.6956  -31.0437   22.0962 N   0  0  0  0  0  0
  -23.4205  -28.8058   23.3177 O   0  0  0  0  0  0
  -28.3187  -26.4005   20.1765 O   0  0  0  0  0  0
  -26.5550  -34.8909   22.4549 O   0  0  0  0  0  0
  -23.5497  -32.1289   23.7312 O   0  0  0  0  0  0
  -30.8807  -20.0389   21.4563 C   0  0  0  0  0  0
  -29.6317  -18.5848   20.0054 C   0  0  0  0  0  0
  -29.9583  -19.9568   20.4042 C   0  0  0  0  0  0
  -31.3653  -18.8840   22.0822 C   0  0  0  0  0  0
  -30.1928  -17.4038   20.6680 C   0  0  0  0  0  0
  -32.3109  -19.0510   23.2537 C   0  0  0  0  0  0
  -30.6911  -24.4446   20.3400 C   0  0  0  0  0  0
  -28.3379  -24.7211   18.4057 C   0  0  0  0  0  0
  -29.5243  -21.3734   19.7849 C   0  0  0  0  0  0
  -29.2507  -23.9890   20.6646 C   0  0  1  0  0  0
  -28.1868  -24.9253   19.9166 C   0  0  1  0  0  0
  -31.0287  -17.6261   21.7137 N   0  0  0  0  0  0
  -29.8563  -15.9894   20.3324 N   0  0  0  0  0  0
  -29.0348  -22.4472   20.7710 N   0  3  0  0  0  0
  -31.4737  -12.6630   19.1316 H   0  0  0  0  0  0
  -30.4228  -11.5497   19.9759 H   0  0  0  0  0  0
  -29.8212  -11.7320   17.5238 H   0  0  0  0  0  0
  -29.6081  -13.4555   17.6887 H   0  0  0  0  0  0
  -27.9482  -11.2552   18.9520 H   0  0  0  0  0  0
  -27.3840  -12.4324   17.7893 H   0  0  0  0  0  0
  -27.5924  -14.2317   19.3813 H   0  0  0  0  0  0
  -28.7341  -12.2977   21.4658 H   0  0  0  0  0  0
  -28.4050  -14.0063   21.6857 H   0  0  0  0  0  0
  -25.2716   -9.5746   22.4755 H   0  0  0  0  0  0
  -24.0000   -7.4684   22.7472 H   0  0  0  0  0  0
  -21.0810   -8.8698   19.8974 H   0  0  0  0  0  0
  -22.3585  -10.9630   19.6142 H   0  0  0  0  0  0
  -21.2032   -7.6112   23.9668 H   0  0  0  0  0  0
  -21.1500   -6.0509   25.9063 H   0  0  0  0  0  0
  -22.0608   -2.7566   23.2857 H   0  0  0  0  0  0
  -22.4029  -11.9924   22.4789 H   0  0  0  0  0  0
  -21.1071  -13.1307   22.2531 H   0  0  0  0  0  0
  -24.6747  -15.8604   20.4941 H   0  0  0  0  0  0
  -26.2828  -15.6051   20.0467 H   0  0  0  0  0  0
  -26.7226  -32.5351   23.1037 H   0  0  0  0  0  0
  -25.0406  -33.9739   25.0540 H   0  0  0  0  0  0
  -22.7198  -31.2818   21.3983 H   0  0  0  0  0  0
  -23.3761  -35.9545   23.3287 H   0  0  0  0  0  0
  -24.3526  -36.8895   22.2048 H   0  0  0  0  0  0
  -23.7227  -37.6409   23.6714 H   0  0  0  0  0  0
  -26.0825  -31.5272   20.5895 H   0  0  0  0  0  0
  -26.8519  -30.8297   21.9805 H   0  0  0  0  0  0
  -28.1474  -28.9643   21.0951 H   0  0  0  0  0  0
  -25.8953  -25.8603   19.1035 H   0  0  0  0  0  0
  -23.9146  -27.2316   19.1440 H   0  0  0  0  0  0
  -23.7686  -30.5441   19.4079 H   0  0  0  0  0  0
  -22.7626  -29.1999   19.8780 H   0  0  0  0  0  0
  -25.1328  -36.1803   25.0783 H   0  0  0  0  0  0
  -20.9843  -28.3116   24.1489 H   0  0  0  0  0  0
  -20.5660  -26.2208   23.3595 H   0  0  0  0  0  0
  -21.6620  -26.7441   22.1195 H   0  0  0  0  0  0
  -19.6855  -25.6284   21.1235 H   0  0  0  0  0  0
  -19.6633  -27.3197   20.6771 H   0  0  0  0  0  0
  -17.4183  -26.6730   21.4018 H   0  0  0  0  0  0
  -18.0265  -26.0015   22.8982 H   0  0  0  0  0  0
  -19.7937  -30.7354   24.2106 H   0  0  0  0  0  0
  -17.4985  -31.6222   24.5225 H   0  0  0  0  0  0
  -15.5347  -30.2921   23.7691 H   0  0  0  0  0  0
  -15.8661  -28.0748   22.7101 H   0  0  0  0  0  0
  -24.5847  -30.7378   25.7866 H   0  0  0  0  0  0
  -24.9234  -32.3102   26.5020 H   0  0  0  0  0  0
  -25.8131  -30.8929   27.0246 H   0  0  0  0  0  0
  -26.3122  -29.6739   24.1341 H   0  0  0  0  0  0
  -27.4273  -29.7453   25.4828 H   0  0  0  0  0  0
  -27.8942  -30.4389   23.9496 H   0  0  0  0  0  0
  -27.2444  -33.3787   26.2049 H   0  0  0  0  0  0
  -28.3831  -32.7163   25.0430 H   0  0  0  0  0  0
  -28.0702  -31.8780   26.5560 H   0  0  0  0  0  0
  -28.2542  -38.0038   24.7555 H   0  0  0  0  0  0
  -28.1069  -36.2579   24.6256 H   0  0  0  0  0  0
  -27.2277  -37.1325   25.8867 H   0  0  0  0  0  0
  -20.9405  -29.8697   21.7035 H   0  0  0  0  0  0
  -26.0121  -38.2784   24.1513 H   0  0  0  0  0  0
  -31.2560  -20.9989   21.7790 H   0  0  0  0  0  0
  -28.9827  -18.4405   19.1520 H   0  0  0  0  0  0
  -33.2160  -19.5722   22.9366 H   0  0  0  0  0  0
  -32.5976  -18.1065   23.7169 H   0  0  0  0  0  0
  -31.8230  -19.6726   24.0043 H   0  0  0  0  0  0
  -30.6803  -25.5354   20.2830 H   0  0  0  0  0  0
  -31.0831  -24.0951   19.3794 H   0  0  0  0  0  0
  -31.3924  -24.1973   21.1405 H   0  0  0  0  0  0
  -28.3448  -23.6612   18.1527 H   0  0  0  0  0  0
  -29.2821  -25.1528   18.0781 H   0  0  0  0  0  0
  -27.5645  -25.2072   17.8210 H   0  0  0  0  0  0
  -28.8075  -21.2604   18.9702 H   0  0  0  0  0  0
  -30.4244  -21.7767   19.3196 H   0  0  0  0  0  0
  -29.1090  -24.3058   21.7009 H   0  0  0  0  0  0
  -27.2030  -24.5825   20.2417 H   0  0  0  0  0  0
  -28.8928  -15.8381   20.0877 H   0  0  0  0  0  0
  -29.5393  -22.1935   21.6054 H   0  0  0  0  0  0
  -28.0739  -22.2478   20.9984 H   0  0  0  0  0  0
  1 25  1  0  0  0
  1 30  2  0  0  0
  1 83  1  0  0  0
  2  3  1  0  0  0
  2 25  1  0  0  0
  2 85  1  0  0  0
  2 86  1  0  0  0
  3  4  1  0  0  0
  3 87  1  0  0  0
  3 88  1  0  0  0
  4  5  1  0  0  0
  4 89  1  0  0  0
  4 90  1  0  0  0
  5  6  1  0  0  0
  5 26  1  0  0  0
  5 91  1  0  0  0
  6 25  1  0  0  0
  6 92  1  0  0  0
  6 93  1  0  0  0
  7  8  2  0  0  0
  7 26  1  0  0  0
  7 29  1  0  0  0
  8  9  1  0  0  0
  8 22  1  0  0  0
  9 10  1  0  0  0
  9 27  2  0  0  0
 10 11  2  0  0  0
 10 15  1  0  0  0
 11 12  1  0  0  0
 11 94  1  0  0  0
 12 13  2  0  0  0
 12 95  1  0  0  0
 13 14  1  0  0  0
 13 31  1  0  0  0
 14 15  2  0  0  0
 14 96  1  0  0  0
 15 97  1  0  0  0
 16 17  2  0  0  0
 16 21  1  0  0  0
 16 31  1  0  0  0
 17 18  1  0  0  0
 17 98  1  0  0  0
 18 19  2  0  0  0
 18 99  1  0  0  0
 19 20  1  0  0  0
 19 24  1  0  0  0
 20 21  2  0  0  0
 20100  1  0  0  0
 21 23  1  0  0  0
 22 28  1  0  0  0
 22 32  2  0  0  0
 26 27  1  0  0  0
 28101  1  0  0  0
 28102  1  0  0  0
 29103  1  0  0  0
 29104  1  0  0  0
 33 34  1  0  0  0
 33 66  1  0  0  0
 33 70  2  0  0  0
 34 36  1  0  0  0
 34 59  1  0  0  0
 34105  1  0  0  0
 35 44  2  0  0  0
 35 45  1  0  0  0
 35 68  1  0  0  0
 36 56  1  0  0  0
 36106  1  0  0  0
 37 39  1  0  0  0
 37 47  1  0  0  0
 37 66  1  0  0  0
 37107  1  0  0  0
 38 43  2  0  0  0
 38 46  1  0  0  0
 38 47  1  0  0  0
 39 64  1  0  0  0
 39 67  2  0  0  0
 40 52  1  0  0  0
 40 53  2  0  0  0
 40 58  1  0  0  0
 41108  1  0  0  0
 41109  1  0  0  0
 41110  1  0  0  0
 41 48  1  0  0  0
 42 43  1  0  0  0
 42 66  1  0  0  0
 42111  1  0  0  0
 42112  1  0  0  0
 43 44  1  0  0  0
 44113  1  0  0  0
 45 46  2  0  0  0
 45114  1  0  0  0
 46115  1  0  0  0
 47116  1  0  0  0
 47117  1  0  0  0
 48 56  1  0  0  0
 48 65  1  0  0  0
 48118  1  0  0  0
 49 50  1  0  0  0
 49 53  1  0  0  0
 49 64  1  0  0  0
 49119  1  0  0  0
 50 51  1  0  0  0
 50120  1  0  0  0
 50121  1  0  0  0
 51 52  1  0  0  0
 51122  1  0  0  0
 51123  1  0  0  0
 52124  1  0  0  0
 52125  1  0  0  0
 53 54  1  0  0  0
 54 55  2  0  0  0
 54126  1  0  0  0
 55 57  1  0  0  0
 55127  1  0  0  0
 56 69  2  0  0  0
 57 58  2  0  0  0
 57128  1  0  0  0
 58129  1  0  0  0
 59 60  1  0  0  0
 59 61  1  0  0  0
 59 62  1  0  0  0
 60130  1  0  0  0
 60131  1  0  0  0
 60132  1  0  0  0
 61133  1  0  0  0
 61134  1  0  0  0
 61135  1  0  0  0
 62136  1  0  0  0
 62137  1  0  0  0
 62138  1  0  0  0
 63 65  1  0  0  0
 63139  1  0  0  0
 63140  1  0  0  0
 63141  1  0  0  0
 64142  1  0  0  0
 65143  1  0  0  0
 68 81  1  0  0  0
 71 73  2  0  0  0
 71 74  1  0  0  0
 71144  1  0  0  0
 72 73  1  0  0  0
 72 75  2  0  0  0
 72145  1  0  0  0
 73 79  1  0  0  0
 74 76  1  0  0  0
 74 82  2  0  0  0
 75 82  1  0  0  0
 75 83  1  0  0  0
 76146  1  0  0  0
 76147  1  0  0  0
 76148  1  0  0  0
 77149  1  0  0  0
 77150  1  0  0  0
 77151  1  0  0  0
 77 80  1  0  0  0
 78152  1  0  0  0
 78153  1  0  0  0
 78154  1  0  0  0
 78 81  1  0  0  0
 79 84  1  0  0  0
 79155  1  0  0  0
 79156  1  0  0  0
 80 81  1  0  0  0
 80 84  1  0  0  0
 80157  1  0  0  0
 81158  1  0  0  0
 83159  1  0  0  0
 84160  1  0  0  0
 84161  1  0  0  0
M  CHG  1  84   1
M  ISO  4   1 100  68 101  81 101  83 100
M  END
> <chiral flag>
0

> <version>
0

> <s_m_source_file>
/data/baiqing/PycharmProjects/Reinvent-master-3.2/result/LINK_invent/BTK/process_docking_weight1_custom_sum_contain_oxygen_bond_distance_aromatic_linkinvent_7_9_3/rearranged_h_0109.sdf

> <i_m_source_file_index>
15

> <r_mmod_Potential_Energy-OPLS-2005>
-127.669639587402

> <r_mmod_Stretch_Energy-OPLS-2005>
128.440933227539

> <r_mmod_Bend_Energy-OPLS-2005>
202.329818725586

> <r_mmod_Torsional_Energy-OPLS-2005>
235.912826538086

> <r_mmod_Improper_Torsional_Energy-OPLS-2005>
9.76288318634033

> <r_mmod_Van_der_Waal_Energy-OPLS-2005>
138.933639526367

> <r_mmod_Electrostatic_Energy-OPLS-2005>
-460.078369140625

> <r_mmod_Solvation_Energy-OPLS-2005>
-493.611022949219

> <b_mmod_Minimization_Converged-OPLS-2005>
0

> <r_mmod_RMS_Derivative-OPLS-2005>
9.34942722320557

$$$$
15
                    3D
 Structure written by MMmdl.
191200  0  0  1  0            999 V2000
  -30.6944  -14.5395   20.4941 C   0  0  0  0  0  0
  -30.4323  -12.3264   19.4375 C   0  0  0  0  0  0
  -29.4998  -12.4761   18.2167 C   0  0  0  0  0  0
  -28.0204  -12.3456   18.6320 C   0  0  0  0  0  0
  -27.6563  -13.2031   19.8723 C   0  0  2  0  0  0
  -28.7103  -13.0447   20.9949 C   0  0  0  0  0  0
  -25.2444  -13.8007   20.5661 C   0  0  0  0  0  0
  -24.1768  -13.0296   20.9235 C   0  0  0  0  0  0
  -24.6392  -11.6805   20.8804 C   0  0  0  0  0  0
  -23.9068  -10.4218   21.0436 C   0  0  0  0  0  0
  -24.3604   -9.4140   21.9214 C   0  0  0  0  0  0
  -23.6276   -8.2184   22.0762 C   0  0  0  0  0  0
  -22.4263   -8.0250   21.3538 C   0  0  0  0  0  0
  -21.9903   -9.0224   20.4633 C   0  0  0  0  0  0
  -22.7248  -10.2092   20.3065 C   0  0  0  0  0  0
  -21.6826   -6.0741   22.5288 C   0  0  0  0  0  0
  -21.3991   -6.5654   23.8226 C   0  0  0  0  0  0
  -21.3632   -5.6796   24.9183 C   0  0  0  0  0  0
  -21.6037   -4.3064   24.7227 C   0  0  0  0  0  0
  -21.8815   -3.8153   23.4348 C   0  0  0  0  0  0
  -21.9184   -4.6971   22.3406 C   0  0  0  0  0  0
  -22.7794  -13.5117   21.1871 C   0  0  0  0  0  0
  -22.1669   -4.2160   21.0985 F   0  0  0  0  0  0
  -21.5607   -3.4542   25.7738 F   0  0  0  0  0  0
  -30.0359  -13.3460   20.4232 N   0  0  0  0  0  0
  -26.2985  -12.9270   20.3390 N   0  0  0  0  0  0
  -25.9330  -11.6436   20.5856 N   0  0  0  0  0  0
  -22.0435  -12.8142   22.0435 N   0  0  0  0  0  0
  -25.3783  -15.1680   20.3908 N   0  0  0  0  0  0
  -31.8604  -14.6757   20.1172 O   0  0  0  0  0  0
  -21.6597   -6.8876   21.4251 O   0  0  0  0  0  0
  -22.3510  -14.5453   20.6731 O   0  0  0  0  0  0
  -24.6153  -31.8660   23.2063 C   0  0  0  0  0  0
  -25.9042  -32.4812   23.8371 C   0  0  1  0  0  0
  -27.2534  -27.4276   20.0959 C   0  0  0  0  0  0
  -25.5901  -33.8609   24.2313 N   0  0  0  0  0  0
  -23.4044  -30.4852   21.5483 C   0  0  2  0  0  0
  -24.8535  -28.9434   20.1169 C   0  0  0  0  0  0
  -22.7413  -29.4643   22.5002 C   0  0  0  0  0  0
  -18.0273  -28.1373   22.8500 C   0  0  0  0  0  0
  -24.1491  -36.7313   23.2642 C   0  0  0  0  0  0
  -25.9323  -30.8297   21.3574 C   0  0  0  0  0  0
  -26.0123  -29.4614   20.7068 C   0  0  0  0  0  0
  -27.2121  -28.7132   20.6863 C   0  0  0  0  0  0
  -26.0731  -26.9197   19.5070 C   0  0  0  0  0  0
  -24.8794  -27.6724   19.5136 C   0  0  0  0  0  0
  -23.6124  -29.8084   20.1659 C   0  0  0  0  0  0
  -25.4112  -36.3108   24.0343 C   0  0  1  0  0  0
  -20.5861  -28.3661   23.1325 C   0  0  2  0  0  0
  -20.6760  -26.9397   22.5421 C   0  0  0  0  0  0
  -19.5737  -26.6378   21.5215 C   0  0  0  0  0  0
  -18.1914  -26.7922   22.1624 C   0  0  0  0  0  0
  -19.1520  -28.8835   23.2905 C   0  0  0  0  0  0
  -18.9447  -30.1446   23.8904 C   0  0  0  0  0  0
  -17.6449  -30.6583   24.0562 C   0  0  0  0  0  0
  -25.9040  -34.9471   23.5125 C   0  0  0  0  0  0
  -16.5341  -29.9083   23.6325 C   0  0  0  0  0  0
  -16.7263  -28.6497   23.0352 C   0  0  0  0  0  0
  -26.4460  -31.6592   25.0705 C   0  0  0  0  0  0
  -25.3720  -31.3680   26.1447 C   0  0  0  0  0  0
  -27.0299  -30.3041   24.6073 C   0  0  0  0  0  0
  -27.6035  -32.4303   25.7476 C   0  0  0  0  0  0
  -27.5584  -37.1809   24.8468 C   0  0  0  0  0  0
  -21.4139  -29.3027   22.3740 N   0  0  0  0  0  0
  -26.4299  -37.3792   23.9408 N   0  0  0  0  0  0
  -24.6692  -31.0749   22.0963 N   0  0  0  0  0  0
  -23.4178  -28.8196   23.3059 O   0  0  0  0  0  0
  -28.4501  -26.7321   20.0957 O   0  0  0  0  0  0
  -26.5603  -34.8926   22.4689 O   0  0  0  0  0  0
  -23.5345  -32.1410   23.7458 O   0  0  0  0  0  0
  -29.5877  -18.9816   19.5587 C   0  0  0  0  0  0
  -31.2188  -17.7589   20.5048 C   0  0  0  0  0  0
  -29.0462  -17.7590   19.8363 C   0  0  0  0  0  0
  -30.0954  -16.9727   20.4090 C   0  0  0  0  0  0
  -27.1063  -23.4816   24.0911 C   0  0  0  0  0  0
  -28.3120  -23.9204   23.2469 C   0  0  0  0  0  0
  -27.3370  -22.0925   24.7055 C   0  0  0  0  0  0
  -28.8137  -21.4940   22.8228 C   0  0  0  0  0  0
  -28.6426  -22.8836   22.1404 C   0  0  2  0  0  0
  -28.3348  -16.3326   17.2636 C   0  0  0  0  0  0
  -26.6282  -18.3298   20.1923 C   0  0  0  0  0  0
  -30.9829  -25.1110   19.7579 C   0  0  0  0  0  0
  -27.7993  -19.7282   24.2016 C   0  0  0  0  0  0
  -27.3624  -17.2549   18.0141 C   0  0  0  0  0  0
  -31.7802  -20.1785   19.8283 C   0  0  0  0  0  0
  -31.4383  -21.3922   20.7432 C   0  0  0  0  0  0
  -28.4486  -25.2909   20.0708 C   0  0  0  0  0  0
  -27.6276  -17.3670   19.5288 C   0  0  1  0  0  0
  -29.8866  -23.3230   21.2847 C   0  0  2  0  0  0
  -29.7961  -24.7846   20.6868 C   0  0  1  0  0  0
  -30.8990  -19.0170   19.9839 N   0  0  0  0  0  0
  -29.9275  -15.6045   20.8257 N   0  0  0  0  0  0
  -27.6452  -21.0947   23.6514 N   0  3  1  0  0  0
  -30.3239  -22.2898   20.2845 N   0  3  0  0  0  0
  -31.4736  -12.4229   19.1275 H   0  0  0  0  0  0
  -30.3432  -11.3297   19.8718 H   0  0  0  0  0  0
  -29.7394  -11.7180   17.4698 H   0  0  0  0  0  0
  -29.6676  -13.4405   17.7365 H   0  0  0  0  0  0
  -27.8321  -11.2928   18.8477 H   0  0  0  0  0  0
  -27.3709  -12.6041   17.7948 H   0  0  0  0  0  0
  -27.6777  -14.2373   19.5450 H   0  0  0  0  0  0
  -28.7002  -12.0262   21.3880 H   0  0  0  0  0  0
  -28.4772  -13.6896   21.8429 H   0  0  0  0  0  0
  -25.2740   -9.5600   22.4800 H   0  0  0  0  0  0
  -23.9968   -7.4563   22.7476 H   0  0  0  0  0  0
  -21.0839   -8.8766   19.8921 H   0  0  0  0  0  0
  -22.3748  -10.9649   19.6176 H   0  0  0  0  0  0
  -21.2005   -7.6169   23.9749 H   0  0  0  0  0  0
  -21.1440   -6.0518   25.9090 H   0  0  0  0  0  0
  -22.0620   -2.7613   23.2846 H   0  0  0  0  0  0
  -22.4060  -11.9817   22.4837 H   0  0  0  0  0  0
  -21.1062  -13.1194   22.2653 H   0  0  0  0  0  0
  -24.5660  -15.7729   20.4496 H   0  0  0  0  0  0
  -26.1535  -15.5935   19.9049 H   0  0  0  0  0  0
  -26.7117  -32.5528   23.1141 H   0  0  0  0  0  0
  -25.0055  -33.9765   25.0462 H   0  0  0  0  0  0
  -22.6932  -31.3013   21.4048 H   0  0  0  0  0  0
  -23.3756  -35.9643   23.3303 H   0  0  0  0  0  0
  -24.3579  -36.8927   22.2055 H   0  0  0  0  0  0
  -23.7236  -37.6514   23.6658 H   0  0  0  0  0  0
  -26.0404  -31.5947   20.5870 H   0  0  0  0  0  0
  -26.8216  -30.8875   21.9738 H   0  0  0  0  0  0
  -28.1093  -29.1176   21.1334 H   0  0  0  0  0  0
  -26.0691  -25.9506   19.0297 H   0  0  0  0  0  0
  -23.9895  -27.2662   19.0523 H   0  0  0  0  0  0
  -23.7137  -30.5773   19.3996 H   0  0  0  0  0  0
  -22.7380  -29.2220   19.8776 H   0  0  0  0  0  0
  -25.1283  -36.1976   25.0837 H   0  0  0  0  0  0
  -20.9949  -28.3221   24.1447 H   0  0  0  0  0  0
  -20.5661  -26.2265   23.3603 H   0  0  0  0  0  0
  -21.6632  -26.7432   22.1220 H   0  0  0  0  0  0
  -19.6894  -25.6290   21.1242 H   0  0  0  0  0  0
  -19.6674  -27.3194   20.6748 H   0  0  0  0  0  0
  -17.4187  -26.6689   21.4019 H   0  0  0  0  0  0
  -18.0297  -26.0056   22.9006 H   0  0  0  0  0  0
  -19.7918  -30.7266   24.2269 H   0  0  0  0  0  0
  -17.5000  -31.6264   24.5164 H   0  0  0  0  0  0
  -15.5342  -30.2987   23.7634 H   0  0  0  0  0  0
  -15.8666  -28.0822   22.7056 H   0  0  0  0  0  0
  -24.5906  -30.7019   25.7767 H   0  0  0  0  0  0
  -24.8899  -32.2829   26.4900 H   0  0  0  0  0  0
  -25.8076  -30.8838   27.0197 H   0  0  0  0  0  0
  -26.2843  -29.6798   24.1138 H   0  0  0  0  0  0
  -27.4089  -29.7273   25.4518 H   0  0  0  0  0  0
  -27.8661  -30.4368   23.9205 H   0  0  0  0  0  0
  -27.2657  -33.3586   26.2091 H   0  0  0  0  0  0
  -28.3833  -32.6883   25.0299 H   0  0  0  0  0  0
  -28.0721  -31.8402   26.5362 H   0  0  0  0  0  0
  -28.2605  -38.0105   24.7525 H   0  0  0  0  0  0
  -28.1078  -36.2636   24.6294 H   0  0  0  0  0  0
  -27.2299  -37.1460   25.8869 H   0  0  0  0  0  0
  -20.9305  -29.8753   21.6964 H   0  0  0  0  0  0
  -26.0193  -38.2876   24.1397 H   0  0  0  0  0  0
  -29.1354  -19.8344   19.0732 H   0  0  0  0  0  0
  -32.2099  -17.5431   20.8842 H   0  0  0  0  0  0
  -26.2047  -23.4732   23.4761 H   0  0  0  0  0  0
  -26.9250  -24.2086   24.8844 H   0  0  0  0  0  0
  -29.1781  -24.0578   23.8973 H   0  0  0  0  0  0
  -28.0924  -24.9039   22.8335 H   0  0  0  0  0  0
  -26.4500  -21.7851   25.2622 H   0  0  0  0  0  0
  -28.1570  -22.1360   25.4249 H   0  0  0  0  0  0
  -29.7058  -21.4937   23.4519 H   0  0  0  0  0  0
  -28.9564  -20.7209   22.0675 H   0  0  0  0  0  0
  -27.7826  -22.8107   21.4724 H   0  0  0  0  0  0
  -28.0838  -16.2822   16.2046 H   0  0  0  0  0  0
  -28.3045  -15.3176   17.6527 H   0  0  0  0  0  0
  -29.3626  -16.6887   17.3379 H   0  0  0  0  0  0
  -26.7681  -18.3603   21.2720 H   0  0  0  0  0  0
  -25.5987  -18.0229   20.0044 H   0  0  0  0  0  0
  -26.7362  -19.3476   19.8160 H   0  0  0  0  0  0
  -31.0258  -26.1801   19.5489 H   0  0  0  0  0  0
  -30.9037  -24.6032   18.7967 H   0  0  0  0  0  0
  -31.9373  -24.8409   20.2106 H   0  0  0  0  0  0
  -26.9112  -19.4247   24.7562 H   0  0  0  0  0  0
  -28.6541  -19.6696   24.8762 H   0  0  0  0  0  0
  -27.9537  -19.0012   23.4037 H   0  0  0  0  0  0
  -26.3419  -16.9050   17.8523 H   0  0  0  0  0  0
  -27.4115  -18.2472   17.5636 H   0  0  0  0  0  0
  -32.7935  -19.8491   20.0581 H   0  0  0  0  0  0
  -31.7978  -20.4709   18.7782 H   0  0  0  0  0  0
  -32.3333  -22.0099   20.8230 H   0  0  0  0  0  0
  -31.2627  -21.0185   21.7502 H   0  0  0  0  0  0
  -27.5945  -24.9204   20.6364 H   0  0  0  0  0  0
  -28.3301  -24.9335   19.0470 H   0  0  0  0  0  0
  -27.5086  -16.3924   19.9818 H   0  0  0  0  0  0
  -30.7158  -23.3914   21.9925 H   0  0  0  0  0  0
  -29.9439  -25.4262   21.5574 H   0  0  0  0  0  0
  -28.9905  -15.3429   21.0888 H   0  0  0  0  0  0
  -26.8392  -21.0586   23.0445 H   0  0  0  0  0  0
  -29.5343  -21.7536   19.9646 H   0  0  0  0  0  0
  -30.6732  -22.7911   19.4817 H   0  0  0  0  0  0
  1 25  1  0  0  0
  1 30  2  0  0  0
  1 92  1  0  0  0
  2  3  1  0  0  0
  2 25  1  0  0  0
  2 95  1  0  0  0
  2 96  1  0  0  0
  3  4  1  0  0  0
  3 97  1  0  0  0
  3 98  1  0  0  0
  4  5  1  0  0  0
  4 99  1  0  0  0
  4100  1  0  0  0
  5  6  1  0  0  0
  5 26  1  0  0  0
  5101  1  0  0  0
  6 25  1  0  0  0
  6102  1  0  0  0
  6103  1  0  0  0
  7  8  2  0  0  0
  7 26  1  0  0  0
  7 29  1  0  0  0
  8  9  1  0  0  0
  8 22  1  0  0  0
  9 10  1  0  0  0
  9 27  2  0  0  0
 10 11  2  0  0  0
 10 15  1  0  0  0
 11 12  1  0  0  0
 11104  1  0  0  0
 12 13  2  0  0  0
 12105  1  0  0  0
 13 14  1  0  0  0
 13 31  1  0  0  0
 14 15  2  0  0  0
 14106  1  0  0  0
 15107  1  0  0  0
 16 17  2  0  0  0
 16 21  1  0  0  0
 16 31  1  0  0  0
 17 18  1  0  0  0
 17108  1  0  0  0
 18 19  2  0  0  0
 18109  1  0  0  0
 19 20  1  0  0  0
 19 24  1  0  0  0
 20 21  2  0  0  0
 20110  1  0  0  0
 21 23  1  0  0  0
 22 28  1  0  0  0
 22 32  2  0  0  0
 26 27  1  0  0  0
 28111  1  0  0  0
 28112  1  0  0  0
 29113  1  0  0  0
 29114  1  0  0  0
 33 34  1  0  0  0
 33 66  1  0  0  0
 33 70  2  0  0  0
 34 36  1  0  0  0
 34 59  1  0  0  0
 34115  1  0  0  0
 35 44  2  0  0  0
 35 45  1  0  0  0
 35 68  1  0  0  0
 36 56  1  0  0  0
 36116  1  0  0  0
 37 39  1  0  0  0
 37 47  1  0  0  0
 37 66  1  0  0  0
 37117  1  0  0  0
 38 43  2  0  0  0
 38 46  1  0  0  0
 38 47  1  0  0  0
 39 64  1  0  0  0
 39 67  2  0  0  0
 40 52  1  0  0  0
 40 53  2  0  0  0
 40 58  1  0  0  0
 41118  1  0  0  0
 41119  1  0  0  0
 41120  1  0  0  0
 41 48  1  0  0  0
 42 43  1  0  0  0
 42 66  1  0  0  0
 42121  1  0  0  0
 42122  1  0  0  0
 43 44  1  0  0  0
 44123  1  0  0  0
 45 46  2  0  0  0
 45124  1  0  0  0
 46125  1  0  0  0
 47126  1  0  0  0
 47127  1  0  0  0
 48 56  1  0  0  0
 48 65  1  0  0  0
 48128  1  0  0  0
 49 50  1  0  0  0
 49 53  1  0  0  0
 49 64  1  0  0  0
 49129  1  0  0  0
 50 51  1  0  0  0
 50130  1  0  0  0
 50131  1  0  0  0
 51 52  1  0  0  0
 51132  1  0  0  0
 51133  1  0  0  0
 52134  1  0  0  0
 52135  1  0  0  0
 53 54  1  0  0  0
 54 55  2  0  0  0
 54136  1  0  0  0
 55 57  1  0  0  0
 55137  1  0  0  0
 56 69  2  0  0  0
 57 58  2  0  0  0
 57138  1  0  0  0
 58139  1  0  0  0
 59 60  1  0  0  0
 59 61  1  0  0  0
 59 62  1  0  0  0
 60140  1  0  0  0
 60141  1  0  0  0
 60142  1  0  0  0
 61143  1  0  0  0
 61144  1  0  0  0
 61145  1  0  0  0
 62146  1  0  0  0
 62147  1  0  0  0
 62148  1  0  0  0
 63 65  1  0  0  0
 63149  1  0  0  0
 63150  1  0  0  0
 63151  1  0  0  0
 64152  1  0  0  0
 65153  1  0  0  0
 68 87  1  0  0  0
 71 73  2  0  0  0
 71 91  1  0  0  0
 71154  1  0  0  0
 72 74  2  0  0  0
 72 91  1  0  0  0
 72155  1  0  0  0
 73 74  1  0  0  0
 73 88  1  0  0  0
 74 92  1  0  0  0
 75 76  1  0  0  0
 75 77  1  0  0  0
 75156  1  0  0  0
 75157  1  0  0  0
 76158  1  0  0  0
 76159  1  0  0  0
 76 79  1  0  0  0
 77 93  1  0  0  0
 77160  1  0  0  0
 77161  1  0  0  0
 78 79  1  0  0  0
 78 93  1  0  0  0
 78162  1  0  0  0
 78163  1  0  0  0
 79 89  1  0  0  0
 79164  1  0  0  0
 80 84  1  0  0  0
 80165  1  0  0  0
 80166  1  0  0  0
 80167  1  0  0  0
 81168  1  0  0  0
 81169  1  0  0  0
 81170  1  0  0  0
 81 88  1  0  0  0
 82171  1  0  0  0
 82172  1  0  0  0
 82173  1  0  0  0
 82 90  1  0  0  0
 83174  1  0  0  0
 83175  1  0  0  0
 83176  1  0  0  0
 83 93  1  0  0  0
 84 88  1  0  0  0
 84177  1  0  0  0
 84178  1  0  0  0
 85 86  1  0  0  0
 85 91  1  0  0  0
 85179  1  0  0  0
 85180  1  0  0  0
 86 94  1  0  0  0
 86181  1  0  0  0
 86182  1  0  0  0
 87 90  1  0  0  0
 87183  1  0  0  0
 87184  1  0  0  0
 88185  1  0  0  0
 89 90  1  0  0  0
 89 94  1  0  0  0
 89186  1  0  0  0
 90187  1  0  0  0
 92188  1  0  0  0
 93189  1  0  0  0
 94190  1  0  0  0
 94191  1  0  0  0
M  CHG  2  93   1  94   1
M  ISO  4   1 100  68 101  87 101  92 100
M  END
> <chiral flag>
0

> <version>
0

> <s_m_source_file>
/data/baiqing/PycharmProjects/Reinvent-master-3.2/result/LINK_invent/BTK/process_docking_weight1_custom_sum_contain_oxygen_bond_distance_aromatic_linkinvent_7_9_3/rearranged_h_0109.sdf

> <i_m_source_file_index>
16

> <r_mmod_Potential_Energy-OPLS-2005>
-218.85466003418

> <r_mmod_Stretch_Energy-OPLS-2005>
50.6083641052246

> <r_mmod_Bend_Energy-OPLS-2005>
139.023345947266

> <r_mmod_Torsional_Energy-OPLS-2005>
323.433319091797

> <r_mmod_Improper_Torsional_Energy-OPLS-2005>
6.83048057556152

> <r_mmod_Van_der_Waal_Energy-OPLS-2005>
109.320793151855

> <r_mmod_Electrostatic_Energy-OPLS-2005>
99.5953674316406

> <r_mmod_Solvation_Energy-OPLS-2005>
-968.406799316406

> <b_mmod_Minimization_Converged-OPLS-2005>
0

> <r_mmod_RMS_Derivative-OPLS-2005>
1.82298016548157

$$$$
16
                    3D
 Structure written by MMmdl.
160168  0  0  1  0            999 V2000
  -30.6781  -14.5170   20.5479 C   0  0  0  0  0  0
  -30.4292  -12.3279   19.4286 C   0  0  0  0  0  0
  -29.5014  -12.5018   18.2071 C   0  0  0  0  0  0
  -28.0224  -12.3521   18.6184 C   0  0  0  0  0  0
  -27.6577  -13.2050   19.8640 C   0  0  2  0  0  0
  -28.6996  -13.0146   20.9893 C   0  0  0  0  0  0
  -25.2563  -13.8145   20.5646 C   0  0  0  0  0  0
  -24.1818  -13.0429   20.9161 C   0  0  0  0  0  0
  -24.6373  -11.6897   20.8705 C   0  0  0  0  0  0
  -23.9037  -10.4286   21.0386 C   0  0  0  0  0  0
  -24.3601   -9.4210   21.9164 C   0  0  0  0  0  0
  -23.6291   -8.2241   22.0743 C   0  0  0  0  0  0
  -22.4264   -8.0284   21.3547 C   0  0  0  0  0  0
  -21.9893   -9.0241   20.4639 C   0  0  0  0  0  0
  -22.7210  -10.2126   20.3043 C   0  0  0  0  0  0
  -21.6859   -6.0733   22.5277 C   0  0  0  0  0  0
  -21.4017   -6.5633   23.8209 C   0  0  0  0  0  0
  -21.3657   -5.6785   24.9167 C   0  0  0  0  0  0
  -21.6047   -4.3049   24.7216 C   0  0  0  0  0  0
  -21.8822   -3.8148   23.4333 C   0  0  0  0  0  0
  -21.9192   -4.6964   22.3393 C   0  0  0  0  0  0
  -22.7845  -13.5243   21.1848 C   0  0  0  0  0  0
  -22.1665   -4.2152   21.0969 F   0  0  0  0  0  0
  -21.5632   -3.4531   25.7725 F   0  0  0  0  0  0
  -30.0280  -13.3248   20.4339 N   0  0  0  0  0  0
  -26.2997  -12.9315   20.3294 N   0  0  0  0  0  0
  -25.9294  -11.6476   20.5701 N   0  0  0  0  0  0
  -22.0468  -12.8241   22.0396 N   0  0  0  0  0  0
  -25.4272  -15.1863   20.4056 N   0  0  0  0  0  0
  -31.8160  -14.7076   20.1125 O   0  0  0  0  0  0
  -21.6644   -6.8877   21.4239 O   0  0  0  0  0  0
  -22.3533  -14.5555   20.6704 O   0  0  0  0  0  0
  -24.6176  -31.8662   23.2081 C   0  0  0  0  0  0
  -25.9053  -32.4813   23.8392 C   0  0  1  0  0  0
  -27.2282  -27.4069   20.1001 C   0  0  0  0  0  0
  -25.5889  -33.8610   24.2321 N   0  0  0  0  0  0
  -23.4090  -30.4906   21.5491 C   0  0  2  0  0  0
  -24.8544  -28.9554   20.1114 C   0  0  0  0  0  0
  -22.7439  -29.4662   22.4975 C   0  0  0  0  0  0
  -18.0289  -28.1397   22.8502 C   0  0  0  0  0  0
  -24.1482  -36.7316   23.2643 C   0  0  0  0  0  0
  -25.9419  -30.8230   21.3669 C   0  0  0  0  0  0
  -26.0186  -29.4569   20.7104 C   0  0  0  0  0  0
  -27.2113  -28.6924   20.6974 C   0  0  0  0  0  0
  -26.0504  -26.9346   19.4835 C   0  0  0  0  0  0
  -24.8671  -27.6947   19.4923 C   0  0  0  0  0  0
  -23.6179  -29.8235   20.1639 C   0  0  0  0  0  0
  -25.4101  -36.3104   24.0338 C   0  0  1  0  0  0
  -20.5882  -28.3686   23.1316 C   0  0  2  0  0  0
  -20.6769  -26.9420   22.5418 C   0  0  0  0  0  0
  -19.5733  -26.6404   21.5229 C   0  0  0  0  0  0
  -18.1920  -26.7944   22.1645 C   0  0  0  0  0  0
  -19.1537  -28.8858   23.2911 C   0  0  0  0  0  0
  -18.9459  -30.1467   23.8918 C   0  0  0  0  0  0
  -17.6456  -30.6597   24.0584 C   0  0  0  0  0  0
  -25.9029  -34.9472   23.5134 C   0  0  0  0  0  0
  -16.5351  -29.9098   23.6336 C   0  0  0  0  0  0
  -16.7278  -28.6520   23.0350 C   0  0  0  0  0  0
  -26.4459  -31.6605   25.0739 C   0  0  0  0  0  0
  -25.3722  -31.3729   26.1494 C   0  0  0  0  0  0
  -27.0285  -30.3033   24.6147 C   0  0  0  0  0  0
  -27.6038  -32.4333   25.7485 C   0  0  0  0  0  0
  -27.5578  -37.1811   24.8463 C   0  0  0  0  0  0
  -21.4168  -29.3036   22.3704 N   0  0  0  0  0  0
  -26.4293  -37.3787   23.9411 N   0  0  0  0  0  0
  -24.6749  -31.0748   22.0990 N   0  0  0  0  0  0
  -23.4186  -28.8204   23.3041 O   0  0  0  0  0  0
  -28.3561  -26.6051   20.1151 O   0  0  0  0  0  0
  -26.5606  -34.8927   22.4700 O   0  0  0  0  0  0
  -23.5359  -32.1425   23.7446 O   0  0  0  0  0  0
  -30.7425  -20.1097   21.2102 C   0  0  0  0  0  0
  -30.5515  -21.4652   21.1301 C   0  0  0  0  0  0
  -29.0243  -20.4722   19.8472 C   0  0  0  0  0  0
  -29.7751  -19.4510   20.3921 C   0  0  0  0  0  0
  -30.6548  -24.8893   20.3725 C   0  0  0  0  0  0
  -28.9276  -23.0233   19.8600 C   0  0  0  0  0  0
  -30.3056  -16.9756   21.1462 C   0  0  0  0  0  0
  -28.1709  -25.3646   20.8423 C   0  0  0  0  0  0
  -29.5952  -17.9409   20.1398 C   0  0  2  0  0  0
  -29.2911  -24.2728   20.7370 C   0  0  2  0  0  0
  -29.4848  -21.7145   20.2823 N   0  0  0  0  0  0
  -29.9278  -15.5455   20.9955 N   0  0  0  0  0  0
  -30.0066  -17.6401   18.7635 N   0  3  0  0  0  0
  -31.4744  -12.4345   19.1312 H   0  0  0  0  0  0
  -30.3368  -11.3209   19.8384 H   0  0  0  0  0  0
  -29.7529  -11.7704   17.4370 H   0  0  0  0  0  0
  -29.6578  -13.4831   17.7570 H   0  0  0  0  0  0
  -27.8431  -11.2966   18.8243 H   0  0  0  0  0  0
  -27.3735  -12.6107   17.7805 H   0  0  0  0  0  0
  -27.6906  -14.2472   19.5462 H   0  0  0  0  0  0
  -28.6815  -11.9866   21.3545 H   0  0  0  0  0  0
  -28.4548  -13.6352   21.8524 H   0  0  0  0  0  0
  -25.2743   -9.5711   22.4721 H   0  0  0  0  0  0
  -24.0012   -7.4642   22.7463 H   0  0  0  0  0  0
  -21.0828   -8.8752   19.8944 H   0  0  0  0  0  0
  -22.3663  -10.9656   19.6149 H   0  0  0  0  0  0
  -21.2016   -7.6143   23.9719 H   0  0  0  0  0  0
  -21.1478   -6.0507   25.9072 H   0  0  0  0  0  0
  -22.0604   -2.7614   23.2823 H   0  0  0  0  0  0
  -22.4088  -11.9923   22.4824 H   0  0  0  0  0  0
  -21.1086  -13.1286   22.2586 H   0  0  0  0  0  0
  -24.6556  -15.8368   20.5075 H   0  0  0  0  0  0
  -26.2724  -15.6260   20.0666 H   0  0  0  0  0  0
  -26.7123  -32.5512   23.1160 H   0  0  0  0  0  0
  -25.0002  -33.9750   25.0436 H   0  0  0  0  0  0
  -22.7004  -31.3102   21.4099 H   0  0  0  0  0  0
  -23.3735  -35.9659   23.3309 H   0  0  0  0  0  0
  -24.3587  -36.8927   22.2059 H   0  0  0  0  0  0
  -23.7239  -37.6526   23.6652 H   0  0  0  0  0  0
  -26.0617  -31.5893   20.5993 H   0  0  0  0  0  0
  -26.8272  -30.8715   21.9895 H   0  0  0  0  0  0
  -28.1093  -29.0730   21.1629 H   0  0  0  0  0  0
  -26.0426  -25.9699   18.9961 H   0  0  0  0  0  0
  -23.9740  -27.3060   19.0219 H   0  0  0  0  0  0
  -23.7258  -30.5987   19.4046 H   0  0  0  0  0  0
  -22.7408  -29.2437   19.8691 H   0  0  0  0  0  0
  -25.1273  -36.1976   25.0832 H   0  0  0  0  0  0
  -20.9998  -28.3257   24.1431 H   0  0  0  0  0  0
  -20.5698  -26.2296   23.3610 H   0  0  0  0  0  0
  -21.6637  -26.7464   22.1199 H   0  0  0  0  0  0
  -19.6886  -25.6322   21.1242 H   0  0  0  0  0  0
  -19.6667  -27.3233   20.6773 H   0  0  0  0  0  0
  -17.4196  -26.6730   21.4038 H   0  0  0  0  0  0
  -18.0304  -26.0087   22.9037 H   0  0  0  0  0  0
  -19.7928  -30.7297   24.2284 H   0  0  0  0  0  0
  -17.5003  -31.6275   24.5193 H   0  0  0  0  0  0
  -15.5345  -30.3004   23.7640 H   0  0  0  0  0  0
  -15.8688  -28.0849   22.7031 H   0  0  0  0  0  0
  -24.5870  -30.7098   25.7841 H   0  0  0  0  0  0
  -24.8939  -32.2892   26.4968 H   0  0  0  0  0  0
  -25.8074  -30.8880   27.0243 H   0  0  0  0  0  0
  -26.2833  -29.6810   24.1177 H   0  0  0  0  0  0
  -27.3999  -29.7262   25.4629 H   0  0  0  0  0  0
  -27.8697  -30.4334   23.9336 H   0  0  0  0  0  0
  -27.2652  -33.3622   26.2091 H   0  0  0  0  0  0
  -28.3814  -32.6925   25.0284 H   0  0  0  0  0  0
  -28.0748  -31.8451   26.5374 H   0  0  0  0  0  0
  -28.2605  -38.0100   24.7506 H   0  0  0  0  0  0
  -28.1067  -36.2636   24.6287 H   0  0  0  0  0  0
  -27.2312  -37.1463   25.8872 H   0  0  0  0  0  0
  -20.9335  -29.8752   21.6914 H   0  0  0  0  0  0
  -26.0182  -38.2868   24.1402 H   0  0  0  0  0  0
  -31.5122  -19.6378   21.8056 H   0  0  0  0  0  0
  -31.0922  -22.2714   21.6081 H   0  0  0  0  0  0
  -28.1849  -20.4263   19.1639 H   0  0  0  0  0  0
  -31.4522  -24.1463   20.3568 H   0  0  0  0  0  0
  -30.9360  -25.6581   21.0927 H   0  0  0  0  0  0
  -30.6238  -25.3577   19.3882 H   0  0  0  0  0  0
  -29.2229  -23.1970   18.8245 H   0  0  0  0  0  0
  -27.8452  -22.9013   19.8329 H   0  0  0  0  0  0
  -30.0341  -17.2736   22.1593 H   0  0  0  0  0  0
  -31.3887  -17.0973   21.0818 H   0  0  0  0  0  0
  -28.0975  -25.6531   21.8922 H   0  0  0  0  0  0
  -27.2075  -24.9043   20.6217 H   0  0  0  0  0  0
  -28.5225  -17.7572   20.2131 H   0  0  0  0  0  0
  -29.3794  -23.8902   21.7541 H   0  0  0  0  0  0
  -29.0001  -15.2936   21.3040 H   0  0  0  0  0  0
  -30.9922  -17.7947   18.6572 H   0  0  0  0  0  0
  -29.5207  -18.2458   18.1277 H   0  0  0  0  0  0
  -29.7964  -16.6897   18.5283 H   0  0  0  0  0  0
  1 25  1  0  0  0
  1 30  2  0  0  0
  1 82  1  0  0  0
  2  3  1  0  0  0
  2 25  1  0  0  0
  2 84  1  0  0  0
  2 85  1  0  0  0
  3  4  1  0  0  0
  3 86  1  0  0  0
  3 87  1  0  0  0
  4  5  1  0  0  0
  4 88  1  0  0  0
  4 89  1  0  0  0
  5  6  1  0  0  0
  5 26  1  0  0  0
  5 90  1  0  0  0
  6 25  1  0  0  0
  6 91  1  0  0  0
  6 92  1  0  0  0
  7  8  2  0  0  0
  7 26  1  0  0  0
  7 29  1  0  0  0
  8  9  1  0  0  0
  8 22  1  0  0  0
  9 10  1  0  0  0
  9 27  2  0  0  0
 10 11  2  0  0  0
 10 15  1  0  0  0
 11 12  1  0  0  0
 11 93  1  0  0  0
 12 13  2  0  0  0
 12 94  1  0  0  0
 13 14  1  0  0  0
 13 31  1  0  0  0
 14 15  2  0  0  0
 14 95  1  0  0  0
 15 96  1  0  0  0
 16 17  2  0  0  0
 16 21  1  0  0  0
 16 31  1  0  0  0
 17 18  1  0  0  0
 17 97  1  0  0  0
 18 19  2  0  0  0
 18 98  1  0  0  0
 19 20  1  0  0  0
 19 24  1  0  0  0
 20 21  2  0  0  0
 20 99  1  0  0  0
 21 23  1  0  0  0
 22 28  1  0  0  0
 22 32  2  0  0  0
 26 27  1  0  0  0
 28100  1  0  0  0
 28101  1  0  0  0
 29102  1  0  0  0
 29103  1  0  0  0
 33 34  1  0  0  0
 33 66  1  0  0  0
 33 70  2  0  0  0
 34 36  1  0  0  0
 34 59  1  0  0  0
 34104  1  0  0  0
 35 44  2  0  0  0
 35 45  1  0  0  0
 35 68  1  0  0  0
 36 56  1  0  0  0
 36105  1  0  0  0
 37 39  1  0  0  0
 37 47  1  0  0  0
 37 66  1  0  0  0
 37106  1  0  0  0
 38 43  2  0  0  0
 38 46  1  0  0  0
 38 47  1  0  0  0
 39 64  1  0  0  0
 39 67  2  0  0  0
 40 52  1  0  0  0
 40 53  2  0  0  0
 40 58  1  0  0  0
 41107  1  0  0  0
 41108  1  0  0  0
 41109  1  0  0  0
 41 48  1  0  0  0
 42 43  1  0  0  0
 42 66  1  0  0  0
 42110  1  0  0  0
 42111  1  0  0  0
 43 44  1  0  0  0
 44112  1  0  0  0
 45 46  2  0  0  0
 45113  1  0  0  0
 46114  1  0  0  0
 47115  1  0  0  0
 47116  1  0  0  0
 48 56  1  0  0  0
 48 65  1  0  0  0
 48117  1  0  0  0
 49 50  1  0  0  0
 49 53  1  0  0  0
 49 64  1  0  0  0
 49118  1  0  0  0
 50 51  1  0  0  0
 50119  1  0  0  0
 50120  1  0  0  0
 51 52  1  0  0  0
 51121  1  0  0  0
 51122  1  0  0  0
 52123  1  0  0  0
 52124  1  0  0  0
 53 54  1  0  0  0
 54 55  2  0  0  0
 54125  1  0  0  0
 55 57  1  0  0  0
 55126  1  0  0  0
 56 69  2  0  0  0
 57 58  2  0  0  0
 57127  1  0  0  0
 58128  1  0  0  0
 59 60  1  0  0  0
 59 61  1  0  0  0
 59 62  1  0  0  0
 60129  1  0  0  0
 60130  1  0  0  0
 60131  1  0  0  0
 61132  1  0  0  0
 61133  1  0  0  0
 61134  1  0  0  0
 62135  1  0  0  0
 62136  1  0  0  0
 62137  1  0  0  0
 63 65  1  0  0  0
 63138  1  0  0  0
 63139  1  0  0  0
 63140  1  0  0  0
 64141  1  0  0  0
 65142  1  0  0  0
 68 78  1  0  0  0
 71 72  2  0  0  0
 71 74  1  0  0  0
 71143  1  0  0  0
 72 81  1  0  0  0
 72144  1  0  0  0
 73 74  2  0  0  0
 73 81  1  0  0  0
 73145  1  0  0  0
 74 79  1  0  0  0
 75146  1  0  0  0
 75147  1  0  0  0
 75148  1  0  0  0
 75 80  1  0  0  0
 76 80  1  0  0  0
 76 81  1  0  0  0
 76149  1  0  0  0
 76150  1  0  0  0
 77 79  1  0  0  0
 77 82  1  0  0  0
 77151  1  0  0  0
 77152  1  0  0  0
 78 80  1  0  0  0
 78153  1  0  0  0
 78154  1  0  0  0
 79 83  1  0  0  0
 79155  1  0  0  0
 80156  1  0  0  0
 82157  1  0  0  0
 83158  1  0  0  0
 83159  1  0  0  0
 83160  1  0  0  0
M  CHG  1  83   1
M  ISO  4   1 100  68 101  78 101  82 100
M  END
> <chiral flag>
0

> <version>
0

> <s_m_source_file>
/data/baiqing/PycharmProjects/Reinvent-master-3.2/result/LINK_invent/BTK/process_docking_weight1_custom_sum_contain_oxygen_bond_distance_aromatic_linkinvent_7_9_3/rearranged_h_0109.sdf

> <i_m_source_file_index>
17

> <r_mmod_Potential_Energy-OPLS-2005>
-342.863342285156

> <r_mmod_Stretch_Energy-OPLS-2005>
45.5456199645996

> <r_mmod_Bend_Energy-OPLS-2005>
108.379524230957

> <r_mmod_Torsional_Energy-OPLS-2005>
273.267425537109

> <r_mmod_Improper_Torsional_Energy-OPLS-2005>
4.24447679519653

> <r_mmod_Van_der_Waal_Energy-OPLS-2005>
125.392204284668

> <r_mmod_Electrostatic_Energy-OPLS-2005>
-435.653594970703

> <r_mmod_Solvation_Energy-OPLS-2005>
-483.821258544922

> <b_mmod_Minimization_Converged-OPLS-2005>
0

> <r_mmod_RMS_Derivative-OPLS-2005>
1.8745641708374

$$$$
17
                    3D
 Structure written by MMmdl.
156164  0  0  1  0            999 V2000
  -30.5932  -14.7145   20.4673 C   0  0  0  0  0  0
  -30.4313  -12.4331   19.4601 C   0  0  0  0  0  0
  -29.5018  -12.5062   18.2281 C   0  0  0  0  0  0
  -28.0280  -12.3293   18.6436 C   0  0  0  0  0  0
  -27.6394  -13.2212   19.8515 C   0  0  2  0  0  0
  -28.6847  -13.1297   20.9846 C   0  0  0  0  0  0
  -25.2492  -13.8176   20.5664 C   0  0  0  0  0  0
  -24.1785  -13.0434   20.9230 C   0  0  0  0  0  0
  -24.6363  -11.6909   20.8766 C   0  0  0  0  0  0
  -23.9035  -10.4294   21.0412 C   0  0  0  0  0  0
  -24.3598   -9.4217   21.9183 C   0  0  0  0  0  0
  -23.6290   -8.2247   22.0752 C   0  0  0  0  0  0
  -22.4274   -8.0271   21.3539 C   0  0  0  0  0  0
  -21.9893   -9.0241   20.4651 C   0  0  0  0  0  0
  -22.7204  -10.2133   20.3064 C   0  0  0  0  0  0
  -21.6858   -6.0735   22.5269 C   0  0  0  0  0  0
  -21.4013   -6.5643   23.8197 C   0  0  0  0  0  0
  -21.3672   -5.6793   24.9156 C   0  0  0  0  0  0
  -21.6046   -4.3053   24.7201 C   0  0  0  0  0  0
  -21.8819   -3.8138   23.4317 C   0  0  0  0  0  0
  -21.9202   -4.6963   22.3386 C   0  0  0  0  0  0
  -22.7812  -13.5232   21.1884 C   0  0  0  0  0  0
  -22.1660   -4.2156   21.0958 F   0  0  0  0  0  0
  -21.5639   -3.4536   25.7715 F   0  0  0  0  0  0
  -29.9885  -13.4817   20.4045 N   0  0  0  0  0  0
  -26.2907  -12.9351   20.3271 N   0  0  0  0  0  0
  -25.9285  -11.6508   20.5759 N   0  0  0  0  0  0
  -22.0463  -12.8235   22.0454 N   0  0  0  0  0  0
  -25.4174  -15.1883   20.3994 N   0  0  0  0  0  0
  -31.7824  -14.8467   20.1672 O   0  0  0  0  0  0
  -21.6642   -6.8868   21.4228 O   0  0  0  0  0  0
  -22.3493  -14.5519   20.6708 O   0  0  0  0  0  0
  -24.6305  -31.8561   23.1931 C   0  0  0  0  0  0
  -25.9121  -32.4757   23.8303 C   0  0  1  0  0  0
  -27.2218  -27.2624   20.1153 C   0  0  0  0  0  0
  -25.5900  -33.8556   24.2236 N   0  0  0  0  0  0
  -23.4282  -30.4751   21.5402 C   0  0  2  0  0  0
  -24.8724  -28.9213   20.1077 C   0  0  0  0  0  0
  -22.7501  -29.4606   22.4930 C   0  0  0  0  0  0
  -18.0284  -28.1393   22.8473 C   0  0  0  0  0  0
  -24.1494  -36.7291   23.2645 C   0  0  0  0  0  0
  -25.9721  -30.7689   21.3712 C   0  0  0  0  0  0
  -26.0434  -29.3901   20.7145 C   0  0  0  0  0  0
  -27.2170  -28.5720   20.7079 C   0  0  0  0  0  0
  -26.0196  -26.8544   19.4933 C   0  0  0  0  0  0
  -24.8665  -27.6636   19.4869 C   0  0  0  0  0  0
  -23.6406  -29.8038   20.1579 C   0  0  0  0  0  0
  -25.4123  -36.3082   24.0332 C   0  0  1  0  0  0
  -20.5887  -28.3706   23.1266 C   0  0  2  0  0  0
  -20.6776  -26.9427   22.5408 C   0  0  0  0  0  0
  -19.5756  -26.6386   21.5207 C   0  0  0  0  0  0
  -18.1935  -26.7930   22.1623 C   0  0  0  0  0  0
  -19.1539  -28.8869   23.2860 C   0  0  0  0  0  0
  -18.9461  -30.1464   23.8886 C   0  0  0  0  0  0
  -17.6463  -30.6591   24.0559 C   0  0  0  0  0  0
  -25.9061  -34.9445   23.5105 C   0  0  0  0  0  0
  -16.5350  -29.9096   23.6322 C   0  0  0  0  0  0
  -16.7273  -28.6511   23.0348 C   0  0  0  0  0  0
  -26.4475  -31.6578   25.0701 C   0  0  0  0  0  0
  -25.3658  -31.3742   26.1392 C   0  0  0  0  0  0
  -27.0332  -30.2997   24.6195 C   0  0  0  0  0  0
  -27.6049  -32.4308   25.7455 C   0  0  0  0  0  0
  -27.5586  -37.1811   24.8463 C   0  0  0  0  0  0
  -21.4211  -29.3051   22.3660 N   0  0  0  0  0  0
  -26.4302  -37.3776   23.9396 N   0  0  0  0  0  0
  -24.6969  -31.0517   22.0914 N   0  0  0  0  0  0
  -23.4199  -28.8161   23.3041 O   0  0  0  0  0  0
  -28.3467  -26.4086   20.1885 O   0  0  0  0  0  0
  -26.5664  -34.8919   22.4695 O   0  0  0  0  0  0
  -23.5449  -32.1389   23.7217 O   0  0  0  0  0  0
  -28.9259  -19.6848   18.0620 C   0  0  0  0  0  0
  -29.4767  -17.6493   18.3680 C   0  0  0  0  0  0
  -29.2026  -19.5826   19.4122 C   0  0  0  0  0  0
  -27.2579  -23.5428   21.3474 C   0  0  0  0  0  0
  -29.0868  -20.8323   20.3630 C   0  0  0  0  0  0
  -28.7697  -22.2790   19.6696 C   0  0  0  0  0  0
  -28.4151  -25.0298   19.5954 C   0  0  0  0  0  0
  -30.0512  -17.3118   20.7437 C   0  0  0  0  0  0
  -28.5158  -23.6678   20.4740 C   0  0  1  0  0  0
  -29.1000  -18.4755   17.4057 N   0  0  0  0  0  0
  -29.5632  -18.1753   19.6013 N   0  0  0  0  0  0
  -29.7709  -15.8085   20.6592 N   0  0  0  0  0  0
  -31.4714  -12.5635   19.1556 H   0  0  0  0  0  0
  -30.3732  -11.4493   19.9291 H   0  0  0  0  0  0
  -29.7749  -11.7465   17.4958 H   0  0  0  0  0  0
  -29.6268  -13.4685   17.7300 H   0  0  0  0  0  0
  -27.8823  -11.2783   18.8975 H   0  0  0  0  0  0
  -27.3678  -12.5297   17.7992 H   0  0  0  0  0  0
  -27.6396  -14.2461   19.4804 H   0  0  0  0  0  0
  -28.7134  -12.1253   21.4086 H   0  0  0  0  0  0
  -28.4228  -13.7988   21.8056 H   0  0  0  0  0  0
  -25.2730   -9.5722   22.4772 H   0  0  0  0  0  0
  -24.0015   -7.4637   22.7469 H   0  0  0  0  0  0
  -21.0819   -8.8732   19.8962 H   0  0  0  0  0  0
  -22.3616  -10.9666   19.6190 H   0  0  0  0  0  0
  -21.1990   -7.6147   23.9696 H   0  0  0  0  0  0
  -21.1509   -6.0520   25.9069 H   0  0  0  0  0  0
  -22.0595   -2.7605   23.2797 H   0  0  0  0  0  0
  -22.4096  -11.9906   22.4840 H   0  0  0  0  0  0
  -21.1071  -13.1238   22.2647 H   0  0  0  0  0  0
  -26.2461  -15.6215   20.0139 H   0  0  0  0  0  0
  -24.6401  -15.8340   20.4866 H   0  0  0  0  0  0
  -26.7193  -32.5402   23.1048 H   0  0  0  0  0  0
  -24.9952  -33.9685   25.0315 H   0  0  0  0  0  0
  -22.7260  -31.2983   21.3925 H   0  0  0  0  0  0
  -23.3757  -35.9621   23.3308 H   0  0  0  0  0  0
  -24.3579  -36.8911   22.2058 H   0  0  0  0  0  0
  -23.7238  -37.6493   23.6664 H   0  0  0  0  0  0
  -26.1065  -31.5287   20.5997 H   0  0  0  0  0  0
  -26.8511  -30.8228   22.0018 H   0  0  0  0  0  0
  -28.1161  -28.9287   21.1911 H   0  0  0  0  0  0
  -25.9153  -25.8882   19.0279 H   0  0  0  0  0  0
  -23.9679  -27.2998   19.0086 H   0  0  0  0  0  0
  -23.7507  -30.5751   19.3950 H   0  0  0  0  0  0
  -22.7615  -29.2271   19.8642 H   0  0  0  0  0  0
  -25.1302  -36.1954   25.0827 H   0  0  0  0  0  0
  -20.9962  -28.3287   24.1394 H   0  0  0  0  0  0
  -20.5662  -26.2328   23.3618 H   0  0  0  0  0  0
  -21.6648  -26.7448   22.1215 H   0  0  0  0  0  0
  -19.6929  -25.6294   21.1253 H   0  0  0  0  0  0
  -19.6692  -27.3179   20.6719 H   0  0  0  0  0  0
  -17.4199  -26.6640   21.4036 H   0  0  0  0  0  0
  -18.0363  -26.0090   22.9041 H   0  0  0  0  0  0
  -19.7938  -30.7272   24.2266 H   0  0  0  0  0  0
  -17.5018  -31.6264   24.5172 H   0  0  0  0  0  0
  -15.5354  -30.2998   23.7646 H   0  0  0  0  0  0
  -15.8669  -28.0816   22.7088 H   0  0  0  0  0  0
  -24.5851  -30.7094   25.7670 H   0  0  0  0  0  0
  -24.8816  -32.2921   26.4744 H   0  0  0  0  0  0
  -25.7913  -30.8938   27.0212 H   0  0  0  0  0  0
  -26.2932  -29.6738   24.1197 H   0  0  0  0  0  0
  -27.3997  -29.7260   25.4714 H   0  0  0  0  0  0
  -27.8802  -30.4268   23.9450 H   0  0  0  0  0  0
  -27.2691  -33.3626   26.2011 H   0  0  0  0  0  0
  -28.3847  -32.6837   25.0259 H   0  0  0  0  0  0
  -28.0733  -31.8445   26.5368 H   0  0  0  0  0  0
  -28.2610  -38.0103   24.7506 H   0  0  0  0  0  0
  -28.1084  -36.2638   24.6301 H   0  0  0  0  0  0
  -27.2304  -37.1462   25.8867 H   0  0  0  0  0  0
  -20.9419  -29.8758   21.6832 H   0  0  0  0  0  0
  -26.0197  -38.2865   24.1361 H   0  0  0  0  0  0
  -28.6243  -20.5559   17.4979 H   0  0  0  0  0  0
  -29.7148  -16.6158   18.1577 H   0  0  0  0  0  0
  -26.3572  -23.4518   20.7389 H   0  0  0  0  0  0
  -27.1394  -24.4185   21.9867 H   0  0  0  0  0  0
  -27.3080  -22.6723   22.0012 H   0  0  0  0  0  0
  -30.0023  -20.9155   20.9492 H   0  0  0  0  0  0
  -28.3002  -20.6295   21.0895 H   0  0  0  0  0  0
  -27.8887  -22.1377   19.0425 H   0  0  0  0  0  0
  -29.5817  -22.4762   18.9688 H   0  0  0  0  0  0
  -27.6722  -24.8860   18.8153 H   0  0  0  0  0  0
  -29.3445  -25.0637   19.0271 H   0  0  0  0  0  0
  -29.6065  -17.6945   21.6626 H   0  0  0  0  0  0
  -31.1270  -17.4657   20.8360 H   0  0  0  0  0  0
  -29.3675  -23.7959   21.1426 H   0  0  0  0  0  0
  -28.8066  -15.5606   20.8183 H   0  0  0  0  0  0
  1 25  1  0  0  0
  1 30  2  0  0  0
  1 82  1  0  0  0
  2  3  1  0  0  0
  2 25  1  0  0  0
  2 83  1  0  0  0
  2 84  1  0  0  0
  3  4  1  0  0  0
  3 85  1  0  0  0
  3 86  1  0  0  0
  4  5  1  0  0  0
  4 87  1  0  0  0
  4 88  1  0  0  0
  5  6  1  0  0  0
  5 26  1  0  0  0
  5 89  1  0  0  0
  6 25  1  0  0  0
  6 90  1  0  0  0
  6 91  1  0  0  0
  7  8  2  0  0  0
  7 26  1  0  0  0
  7 29  1  0  0  0
  8  9  1  0  0  0
  8 22  1  0  0  0
  9 10  1  0  0  0
  9 27  2  0  0  0
 10 11  2  0  0  0
 10 15  1  0  0  0
 11 12  1  0  0  0
 11 92  1  0  0  0
 12 13  2  0  0  0
 12 93  1  0  0  0
 13 14  1  0  0  0
 13 31  1  0  0  0
 14 15  2  0  0  0
 14 94  1  0  0  0
 15 95  1  0  0  0
 16 17  2  0  0  0
 16 21  1  0  0  0
 16 31  1  0  0  0
 17 18  1  0  0  0
 17 96  1  0  0  0
 18 19  2  0  0  0
 18 97  1  0  0  0
 19 20  1  0  0  0
 19 24  1  0  0  0
 20 21  2  0  0  0
 20 98  1  0  0  0
 21 23  1  0  0  0
 22 28  1  0  0  0
 22 32  2  0  0  0
 26 27  1  0  0  0
 28 99  1  0  0  0
 28100  1  0  0  0
 29101  1  0  0  0
 29102  1  0  0  0
 33 34  1  0  0  0
 33 66  1  0  0  0
 33 70  2  0  0  0
 34 36  1  0  0  0
 34 59  1  0  0  0
 34103  1  0  0  0
 35 44  2  0  0  0
 35 45  1  0  0  0
 35 68  1  0  0  0
 36 56  1  0  0  0
 36104  1  0  0  0
 37 39  1  0  0  0
 37 47  1  0  0  0
 37 66  1  0  0  0
 37105  1  0  0  0
 38 43  2  0  0  0
 38 46  1  0  0  0
 38 47  1  0  0  0
 39 64  1  0  0  0
 39 67  2  0  0  0
 40 52  1  0  0  0
 40 53  2  0  0  0
 40 58  1  0  0  0
 41106  1  0  0  0
 41107  1  0  0  0
 41108  1  0  0  0
 41 48  1  0  0  0
 42 43  1  0  0  0
 42 66  1  0  0  0
 42109  1  0  0  0
 42110  1  0  0  0
 43 44  1  0  0  0
 44111  1  0  0  0
 45 46  2  0  0  0
 45112  1  0  0  0
 46113  1  0  0  0
 47114  1  0  0  0
 47115  1  0  0  0
 48 56  1  0  0  0
 48 65  1  0  0  0
 48116  1  0  0  0
 49 50  1  0  0  0
 49 53  1  0  0  0
 49 64  1  0  0  0
 49117  1  0  0  0
 50 51  1  0  0  0
 50118  1  0  0  0
 50119  1  0  0  0
 51 52  1  0  0  0
 51120  1  0  0  0
 51121  1  0  0  0
 52122  1  0  0  0
 52123  1  0  0  0
 53 54  1  0  0  0
 54 55  2  0  0  0
 54124  1  0  0  0
 55 57  1  0  0  0
 55125  1  0  0  0
 56 69  2  0  0  0
 57 58  2  0  0  0
 57126  1  0  0  0
 58127  1  0  0  0
 59 60  1  0  0  0
 59 61  1  0  0  0
 59 62  1  0  0  0
 60128  1  0  0  0
 60129  1  0  0  0
 60130  1  0  0  0
 61131  1  0  0  0
 61132  1  0  0  0
 61133  1  0  0  0
 62134  1  0  0  0
 62135  1  0  0  0
 62136  1  0  0  0
 63 65  1  0  0  0
 63137  1  0  0  0
 63138  1  0  0  0
 63139  1  0  0  0
 64140  1  0  0  0
 65141  1  0  0  0
 68 77  1  0  0  0
 71 73  2  0  0  0
 71 80  1  0  0  0
 71142  1  0  0  0
 72 80  2  0  0  0
 72 81  1  0  0  0
 72143  1  0  0  0
 73 75  1  0  0  0
 73 81  1  0  0  0
 74144  1  0  0  0
 74145  1  0  0  0
 74146  1  0  0  0
 74 79  1  0  0  0
 75 76  1  0  0  0
 75147  1  0  0  0
 75148  1  0  0  0
 76 79  1  0  0  0
 76149  1  0  0  0
 76150  1  0  0  0
 77 79  1  0  0  0
 77151  1  0  0  0
 77152  1  0  0  0
 78 81  1  0  0  0
 78 82  1  0  0  0
 78153  1  0  0  0
 78154  1  0  0  0
 79155  1  0  0  0
 82156  1  0  0  0
M  ISO  4   1 100  68 101  77 101  82 100
M  END
> <chiral flag>
0

> <version>
0

> <s_m_source_file>
/data/baiqing/PycharmProjects/Reinvent-master-3.2/result/LINK_invent/BTK/process_docking_weight1_custom_sum_contain_oxygen_bond_distance_aromatic_linkinvent_7_9_3/rearranged_h_0109.sdf

> <i_m_source_file_index>
18

> <r_mmod_Potential_Energy-OPLS-2005>
137.356842041016

> <r_mmod_Stretch_Energy-OPLS-2005>
129.444473266602

> <r_mmod_Bend_Energy-OPLS-2005>
200.384063720703

> <r_mmod_Torsional_Energy-OPLS-2005>
206.880599975586

> <r_mmod_Improper_Torsional_Energy-OPLS-2005>
5.4526515007019

> <r_mmod_Van_der_Waal_Energy-OPLS-2005>
113.602478027344

> <r_mmod_Electrostatic_Energy-OPLS-2005>
-368.610687255859

> <r_mmod_Solvation_Energy-OPLS-2005>
-226.155548095703

> <b_mmod_Minimization_Converged-OPLS-2005>
0

> <r_mmod_RMS_Derivative-OPLS-2005>
2.07840442657471

$$$$
18
                    3D
 Structure written by MMmdl.
152159  0  0  1  0            999 V2000
  -30.5442  -14.9624   20.4214 C   0  0  0  0  0  0
  -30.4371  -12.5939   19.5143 C   0  0  0  0  0  0
  -29.5243  -12.5329   18.2673 C   0  0  0  0  0  0
  -28.0595  -12.3118   18.6849 C   0  0  0  0  0  0
  -27.6313  -13.2497   19.8435 C   0  0  2  0  0  0
  -28.6697  -13.2898   20.9861 C   0  0  0  0  0  0
  -25.2470  -13.8216   20.5710 C   0  0  0  0  0  0
  -24.1785  -13.0443   20.9224 C   0  0  0  0  0  0
  -24.6402  -11.6924   20.8758 C   0  0  0  0  0  0
  -23.9091  -10.4296   21.0415 C   0  0  0  0  0  0
  -24.3636   -9.4208   21.9191 C   0  0  0  0  0  0
  -23.6305   -8.2246   22.0760 C   0  0  0  0  0  0
  -22.4285   -8.0289   21.3548 C   0  0  0  0  0  0
  -21.9930   -9.0266   20.4649 C   0  0  0  0  0  0
  -22.7266  -10.2139   20.3061 C   0  0  0  0  0  0
  -21.6856   -6.0747   22.5281 C   0  0  0  0  0  0
  -21.4019   -6.5648   23.8217 C   0  0  0  0  0  0
  -21.3656   -5.6798   24.9175 C   0  0  0  0  0  0
  -21.6039   -4.3061   24.7223 C   0  0  0  0  0  0
  -21.8819   -3.8157   23.4345 C   0  0  0  0  0  0
  -21.9194   -4.6976   22.3401 C   0  0  0  0  0  0
  -22.7807  -13.5211   21.1877 C   0  0  0  0  0  0
  -22.1662   -4.2163   21.0979 F   0  0  0  0  0  0
  -21.5623   -3.4542   25.7735 F   0  0  0  0  0  0
  -29.9484  -13.6996   20.3914 N   0  0  0  0  0  0
  -26.2899  -12.9451   20.3272 N   0  0  0  0  0  0
  -25.9339  -11.6577   20.5760 N   0  0  0  0  0  0
  -22.0462  -12.8196   22.0427 N   0  0  0  0  0  0
  -25.4138  -15.1947   20.4122 N   0  0  0  0  0  0
  -31.7385  -15.0227   20.1102 O   0  0  0  0  0  0
  -21.6642   -6.8891   21.4243 O   0  0  0  0  0  0
  -22.3490  -14.5518   20.6724 O   0  0  0  0  0  0
  -24.6436  -31.8431   23.1875 C   0  0  0  0  0  0
  -25.9206  -32.4688   23.8266 C   0  0  1  0  0  0
  -27.2124  -27.1114   20.1686 C   0  0  0  0  0  0
  -25.5946  -33.8492   24.2175 N   0  0  0  0  0  0
  -23.4487  -30.4614   21.5324 C   0  0  2  0  0  0
  -24.9012  -28.8858   20.1099 C   0  0  0  0  0  0
  -22.7571  -29.4539   22.4848 C   0  0  0  0  0  0
  -18.0306  -28.1387   22.8463 C   0  0  0  0  0  0
  -24.1496  -36.7261   23.2643 C   0  0  0  0  0  0
  -26.0053  -30.7066   21.3945 C   0  0  0  0  0  0
  -26.0753  -29.3134   20.7438 C   0  0  0  0  0  0
  -27.2305  -28.4409   20.7621 C   0  0  0  0  0  0
  -26.0325  -26.8173   19.4519 C   0  0  0  0  0  0
  -24.8939  -27.6505   19.4461 C   0  0  0  0  0  0
  -23.6785  -29.7897   20.1515 C   0  0  0  0  0  0
  -25.4123  -36.3021   24.0311 C   0  0  1  0  0  0
  -20.5916  -28.3723   23.1218 C   0  0  2  0  0  0
  -20.6790  -26.9428   22.5392 C   0  0  0  0  0  0
  -19.5766  -26.6374   21.5196 C   0  0  0  0  0  0
  -18.1945  -26.7922   22.1607 C   0  0  0  0  0  0
  -19.1563  -28.8874   23.2828 C   0  0  0  0  0  0
  -18.9483  -30.1464   23.8859 C   0  0  0  0  0  0
  -17.6481  -30.6583   24.0556 C   0  0  0  0  0  0
  -25.9072  -34.9399   23.5051 C   0  0  0  0  0  0
  -16.5371  -29.9075   23.6334 C   0  0  0  0  0  0
  -16.7291  -28.6497   23.0348 C   0  0  0  0  0  0
  -26.4524  -31.6561   25.0715 C   0  0  0  0  0  0
  -25.3696  -31.3768   26.1405 C   0  0  0  0  0  0
  -27.0400  -30.2949   24.6320 C   0  0  0  0  0  0
  -27.6041  -32.4342   25.7505 C   0  0  0  0  0  0
  -27.5572  -37.1786   24.8461 C   0  0  0  0  0  0
  -21.4263  -29.3055   22.3601 N   0  0  0  0  0  0
  -26.4282  -37.3734   23.9405 N   0  0  0  0  0  0
  -24.7187  -31.0263   22.0928 N   0  0  0  0  0  0
  -23.4203  -28.8093   23.3013 O   0  0  0  0  0  0
  -28.2603  -26.1093   20.1920 O   0  0  0  0  0  0
  -26.5665  -34.8901   22.4633 O   0  0  0  0  0  0
  -23.5552  -32.1326   23.7077 O   0  0  0  0  0  0
  -28.9330  -21.6667   20.7334 C   0  0  0  0  0  0
  -28.5384  -21.6605   22.1998 C   0  0  0  0  0  0
  -26.6261  -24.2406   20.9283 C   0  0  0  0  0  0
  -28.8970  -23.2259   20.0659 C   0  0  0  0  0  0
  -29.2146  -19.0248   20.8136 C   0  0  0  0  0  0
  -30.0639  -17.6801   20.2258 C   0  0  0  0  0  0
  -28.1019  -24.6098   20.6739 C   0  0  2  0  0  0
  -29.2960  -20.4796   20.1712 N   0  0  0  0  0  0
  -29.7800  -16.1562   20.5863 N   0  0  0  0  0  0
  -31.4741  -12.7402   19.2090 H   0  0  0  0  0  0
  -30.4191  -11.6441   20.0512 H   0  0  0  0  0  0
  -29.8473  -11.7349   17.5972 H   0  0  0  0  0  0
  -29.6097  -13.4628   17.7026 H   0  0  0  0  0  0
  -27.9638  -11.2723   19.0015 H   0  0  0  0  0  0
  -27.3942  -12.4313   17.8290 H   0  0  0  0  0  0
  -27.5929  -14.2493   19.4093 H   0  0  0  0  0  0
  -28.7561  -12.3199   21.4783 H   0  0  0  0  0  0
  -28.3643  -14.0008   21.7555 H   0  0  0  0  0  0
  -25.2778   -9.5680   22.4772 H   0  0  0  0  0  0
  -24.0010   -7.4636   22.7483 H   0  0  0  0  0  0
  -21.0863   -8.8794   19.8951 H   0  0  0  0  0  0
  -22.3734  -10.9684   19.6176 H   0  0  0  0  0  0
  -21.2017   -7.6159   23.9725 H   0  0  0  0  0  0
  -21.1473   -6.0527   25.9077 H   0  0  0  0  0  0
  -22.0600   -2.7622   23.2839 H   0  0  0  0  0  0
  -22.4091  -11.9851   22.4794 H   0  0  0  0  0  0
  -21.1085  -13.1224   22.2650 H   0  0  0  0  0  0
  -24.6409  -15.8442   20.5117 H   0  0  0  0  0  0
  -26.2546  -15.6332   20.0598 H   0  0  0  0  0  0
  -26.7276  -32.5295   23.0999 H   0  0  0  0  0  0
  -25.0057  -33.9603   25.0298 H   0  0  0  0  0  0
  -22.7517  -31.2870   21.3762 H   0  0  0  0  0  0
  -23.3745  -35.9604   23.3286 H   0  0  0  0  0  0
  -24.3581  -36.8920   22.2062 H   0  0  0  0  0  0
  -23.7273  -37.6457   23.6704 H   0  0  0  0  0  0
  -26.1605  -31.4561   20.6168 H   0  0  0  0  0  0
  -26.8752  -30.7627   22.0361 H   0  0  0  0  0  0
  -28.1213  -28.7631   21.2833 H   0  0  0  0  0  0
  -25.9714  -25.8934   18.8972 H   0  0  0  0  0  0
  -24.0096  -27.3272   18.9143 H   0  0  0  0  0  0
  -23.8161  -30.5641   19.3959 H   0  0  0  0  0  0
  -22.7939  -29.2309   19.8396 H   0  0  0  0  0  0
  -25.1314  -36.1840   25.0802 H   0  0  0  0  0  0
  -20.9996  -28.3317   24.1340 H   0  0  0  0  0  0
  -20.5680  -26.2342   23.3614 H   0  0  0  0  0  0
  -21.6660  -26.7430   22.1200 H   0  0  0  0  0  0
  -19.6938  -25.6274   21.1248 H   0  0  0  0  0  0
  -19.6703  -27.3164   20.6712 H   0  0  0  0  0  0
  -17.4216  -26.6653   21.4011 H   0  0  0  0  0  0
  -18.0357  -26.0067   22.9012 H   0  0  0  0  0  0
  -19.7970  -30.7279   24.2209 H   0  0  0  0  0  0
  -17.5046  -31.6263   24.5162 H   0  0  0  0  0  0
  -15.5372  -30.2970   23.7683 H   0  0  0  0  0  0
  -15.8688  -28.0813   22.7074 H   0  0  0  0  0  0
  -24.5881  -30.7105   25.7736 H   0  0  0  0  0  0
  -24.8872  -32.2959   26.4743 H   0  0  0  0  0  0
  -25.7965  -30.9008   27.0239 H   0  0  0  0  0  0
  -26.3035  -29.6653   24.1317 H   0  0  0  0  0  0
  -27.3995  -29.7269   25.4908 H   0  0  0  0  0  0
  -27.8948  -30.4174   23.9660 H   0  0  0  0  0  0
  -27.2623  -33.3674   26.1990 H   0  0  0  0  0  0
  -28.3899  -32.6848   25.0366 H   0  0  0  0  0  0
  -28.0649  -31.8526   26.5495 H   0  0  0  0  0  0
  -28.2568  -38.0102   24.7497 H   0  0  0  0  0  0
  -28.1085  -36.2624   24.6292 H   0  0  0  0  0  0
  -27.2287  -37.1437   25.8864 H   0  0  0  0  0  0
  -20.9471  -29.8788   21.6797 H   0  0  0  0  0  0
  -26.0138  -38.2796   24.1406 H   0  0  0  0  0  0
  -27.5945  -21.1338   22.3398 H   0  0  0  0  0  0
  -28.4359  -22.6668   22.5981 H   0  0  0  0  0  0
  -29.3046  -21.1713   22.8004 H   0  0  0  0  0  0
  -26.5319  -23.3326   21.5198 H   0  0  0  0  0  0
  -26.0922  -24.0499   19.9987 H   0  0  0  0  0  0
  -26.1017  -25.0151   21.4877 H   0  0  0  0  0  0
  -28.5511  -23.1020   19.0397 H   0  0  0  0  0  0
  -29.9426  -23.5132   19.9579 H   0  0  0  0  0  0
  -29.4535  -19.0929   21.8748 H   0  0  0  0  0  0
  -28.1620  -18.7381   20.8009 H   0  0  0  0  0  0
  -31.1203  -17.8510   20.4378 H   0  0  0  0  0  0
  -29.9934  -17.7228   19.1386 H   0  0  0  0  0  0
  -28.5269  -24.7097   21.6720 H   0  0  0  0  0  0
  -28.8242  -15.9748   20.8567 H   0  0  0  0  0  0
  1 25  1  0  0  0
  1 30  2  0  0  0
  1 79  1  0  0  0
  2  3  1  0  0  0
  2 25  1  0  0  0
  2 80  1  0  0  0
  2 81  1  0  0  0
  3  4  1  0  0  0
  3 82  1  0  0  0
  3 83  1  0  0  0
  4  5  1  0  0  0
  4 84  1  0  0  0
  4 85  1  0  0  0
  5  6  1  0  0  0
  5 26  1  0  0  0
  5 86  1  0  0  0
  6 25  1  0  0  0
  6 87  1  0  0  0
  6 88  1  0  0  0
  7  8  2  0  0  0
  7 26  1  0  0  0
  7 29  1  0  0  0
  8  9  1  0  0  0
  8 22  1  0  0  0
  9 10  1  0  0  0
  9 27  2  0  0  0
 10 11  2  0  0  0
 10 15  1  0  0  0
 11 12  1  0  0  0
 11 89  1  0  0  0
 12 13  2  0  0  0
 12 90  1  0  0  0
 13 14  1  0  0  0
 13 31  1  0  0  0
 14 15  2  0  0  0
 14 91  1  0  0  0
 15 92  1  0  0  0
 16 17  2  0  0  0
 16 21  1  0  0  0
 16 31  1  0  0  0
 17 18  1  0  0  0
 17 93  1  0  0  0
 18 19  2  0  0  0
 18 94  1  0  0  0
 19 20  1  0  0  0
 19 24  1  0  0  0
 20 21  2  0  0  0
 20 95  1  0  0  0
 21 23  1  0  0  0
 22 28  1  0  0  0
 22 32  2  0  0  0
 26 27  1  0  0  0
 28 96  1  0  0  0
 28 97  1  0  0  0
 29 98  1  0  0  0
 29 99  1  0  0  0
 33 34  1  0  0  0
 33 66  1  0  0  0
 33 70  2  0  0  0
 34 36  1  0  0  0
 34 59  1  0  0  0
 34100  1  0  0  0
 35 44  2  0  0  0
 35 45  1  0  0  0
 35 68  1  0  0  0
 36 56  1  0  0  0
 36101  1  0  0  0
 37 39  1  0  0  0
 37 47  1  0  0  0
 37 66  1  0  0  0
 37102  1  0  0  0
 38 43  2  0  0  0
 38 46  1  0  0  0
 38 47  1  0  0  0
 39 64  1  0  0  0
 39 67  2  0  0  0
 40 52  1  0  0  0
 40 53  2  0  0  0
 40 58  1  0  0  0
 41103  1  0  0  0
 41104  1  0  0  0
 41105  1  0  0  0
 41 48  1  0  0  0
 42 43  1  0  0  0
 42 66  1  0  0  0
 42106  1  0  0  0
 42107  1  0  0  0
 43 44  1  0  0  0
 44108  1  0  0  0
 45 46  2  0  0  0
 45109  1  0  0  0
 46110  1  0  0  0
 47111  1  0  0  0
 47112  1  0  0  0
 48 56  1  0  0  0
 48 65  1  0  0  0
 48113  1  0  0  0
 49 50  1  0  0  0
 49 53  1  0  0  0
 49 64  1  0  0  0
 49114  1  0  0  0
 50 51  1  0  0  0
 50115  1  0  0  0
 50116  1  0  0  0
 51 52  1  0  0  0
 51117  1  0  0  0
 51118  1  0  0  0
 52119  1  0  0  0
 52120  1  0  0  0
 53 54  1  0  0  0
 54 55  2  0  0  0
 54121  1  0  0  0
 55 57  1  0  0  0
 55122  1  0  0  0
 56 69  2  0  0  0
 57 58  2  0  0  0
 57123  1  0  0  0
 58124  1  0  0  0
 59 60  1  0  0  0
 59 61  1  0  0  0
 59 62  1  0  0  0
 60125  1  0  0  0
 60126  1  0  0  0
 60127  1  0  0  0
 61128  1  0  0  0
 61129  1  0  0  0
 61130  1  0  0  0
 62131  1  0  0  0
 62132  1  0  0  0
 62133  1  0  0  0
 63 65  1  0  0  0
 63134  1  0  0  0
 63135  1  0  0  0
 63136  1  0  0  0
 64137  1  0  0  0
 65138  1  0  0  0
 68 77  1  0  0  0
 71 72  1  0  0  0
 71 74  1  0  0  0
 71 78  2  0  0  0
 72139  1  0  0  0
 72140  1  0  0  0
 72141  1  0  0  0
 73142  1  0  0  0
 73143  1  0  0  0
 73144  1  0  0  0
 73 77  1  0  0  0
 74 77  1  0  0  0
 74145  1  0  0  0
 74146  1  0  0  0
 75 76  1  0  0  0
 75 78  1  0  0  0
 75147  1  0  0  0
 75148  1  0  0  0
 76 79  1  0  0  0
 76149  1  0  0  0
 76150  1  0  0  0
 77151  1  0  0  0
 79152  1  0  0  0
M  ISO  4   1 100  68 101  77 101  79 100
M  END
> <chiral flag>
0

> <version>
0

> <s_m_source_file>
/data/baiqing/PycharmProjects/Reinvent-master-3.2/result/LINK_invent/BTK/process_docking_weight1_custom_sum_contain_oxygen_bond_distance_aromatic_linkinvent_7_9_3/rearranged_h_0109.sdf

> <i_m_source_file_index>
19

> <r_mmod_Potential_Energy-OPLS-2005>
528.339721679688

> <r_mmod_Stretch_Energy-OPLS-2005>
313.416473388672

> <r_mmod_Bend_Energy-OPLS-2005>
278.171722412109

> <r_mmod_Torsional_Energy-OPLS-2005>
230.526779174805

> <r_mmod_Improper_Torsional_Energy-OPLS-2005>
4.99849557876587

> <r_mmod_Van_der_Waal_Energy-OPLS-2005>
122.363990783691

> <r_mmod_Electrostatic_Energy-OPLS-2005>
-403.801391601562

> <r_mmod_Solvation_Energy-OPLS-2005>
-223.723236083984

> <b_mmod_Minimization_Converged-OPLS-2005>
0

> <r_mmod_RMS_Derivative-OPLS-2005>
1.13236320018768

$$$$
19
                    3D
 Structure written by MMmdl.
166174  0  0  1  0            999 V2000
  -30.6478  -14.7243   20.5118 C   0  0  0  0  0  0
  -30.4277  -12.4559   19.4765 C   0  0  0  0  0  0
  -29.5070  -12.5029   18.2367 C   0  0  0  0  0  0
  -28.0352  -12.3229   18.6554 C   0  0  0  0  0  0
  -27.6416  -13.2312   19.8521 C   0  0  2  0  0  0
  -28.6840  -13.1712   20.9890 C   0  0  0  0  0  0
  -25.2517  -13.8177   20.5712 C   0  0  0  0  0  0
  -24.1820  -13.0445   20.9221 C   0  0  0  0  0  0
  -24.6395  -11.6905   20.8758 C   0  0  0  0  0  0
  -23.9070  -10.4287   21.0418 C   0  0  0  0  0  0
  -24.3616   -9.4201   21.9197 C   0  0  0  0  0  0
  -23.6289   -8.2237   22.0755 C   0  0  0  0  0  0
  -22.4274   -8.0278   21.3539 C   0  0  0  0  0  0
  -21.9915   -9.0256   20.4652 C   0  0  0  0  0  0
  -22.7237  -10.2136   20.3069 C   0  0  0  0  0  0
  -21.6859   -6.0734   22.5277 C   0  0  0  0  0  0
  -21.4010   -6.5641   23.8208 C   0  0  0  0  0  0
  -21.3663   -5.6796   24.9174 C   0  0  0  0  0  0
  -21.6042   -4.3058   24.7223 C   0  0  0  0  0  0
  -21.8822   -3.8147   23.4351 C   0  0  0  0  0  0
  -21.9185   -4.6963   22.3399 C   0  0  0  0  0  0
  -22.7835  -13.5235   21.1864 C   0  0  0  0  0  0
  -22.1662   -4.2150   21.0979 F   0  0  0  0  0  0
  -21.5630   -3.4540   25.7737 F   0  0  0  0  0  0
  -29.9844  -13.5224   20.4063 N   0  0  0  0  0  0
  -26.2941  -12.9393   20.3292 N   0  0  0  0  0  0
  -25.9327  -11.6532   20.5770 N   0  0  0  0  0  0
  -22.0468  -12.8230   22.0416 N   0  0  0  0  0  0
  -25.4222  -15.1900   20.4094 N   0  0  0  0  0  0
  -31.8424  -14.7722   20.2056 O   0  0  0  0  0  0
  -21.6637   -6.8878   21.4238 O   0  0  0  0  0  0
  -22.3521  -14.5529   20.6693 O   0  0  0  0  0  0
  -24.6307  -31.8496   23.1980 C   0  0  0  0  0  0
  -25.9134  -32.4720   23.8319 C   0  0  1  0  0  0
  -27.2144  -27.2642   20.1203 C   0  0  0  0  0  0
  -25.5919  -33.8523   24.2239 N   0  0  0  0  0  0
  -23.4251  -30.4717   21.5425 C   0  0  2  0  0  0
  -24.8651  -28.9084   20.1133 C   0  0  0  0  0  0
  -22.7470  -29.4606   22.4938 C   0  0  0  0  0  0
  -18.0314  -28.1410   22.8496 C   0  0  0  0  0  0
  -24.1491  -36.7265   23.2644 C   0  0  0  0  0  0
  -25.9670  -30.7665   21.3703 C   0  0  0  0  0  0
  -26.0342  -29.3853   20.7181 C   0  0  0  0  0  0
  -27.2062  -28.5737   20.7056 C   0  0  0  0  0  0
  -26.0213  -26.8378   19.4968 C   0  0  0  0  0  0
  -24.8622  -27.6445   19.4981 C   0  0  0  0  0  0
  -23.6361  -29.7938   20.1628 C   0  0  0  0  0  0
  -25.4117  -36.3035   24.0328 C   0  0  1  0  0  0
  -20.5897  -28.3716   23.1276 C   0  0  2  0  0  0
  -20.6791  -26.9442   22.5398 C   0  0  0  0  0  0
  -19.5763  -26.6404   21.5210 C   0  0  0  0  0  0
  -18.1956  -26.7946   22.1633 C   0  0  0  0  0  0
  -19.1555  -28.8890   23.2876 C   0  0  0  0  0  0
  -18.9471  -30.1493   23.8891 C   0  0  0  0  0  0
  -17.6467  -30.6614   24.0567 C   0  0  0  0  0  0
  -25.9050  -34.9405   23.5085 C   0  0  0  0  0  0
  -16.5365  -29.9096   23.6339 C   0  0  0  0  0  0
  -16.7291  -28.6523   23.0365 C   0  0  0  0  0  0
  -26.4521  -31.6583   25.0728 C   0  0  0  0  0  0
  -25.3775  -31.3751   26.1481 C   0  0  0  0  0  0
  -27.0375  -30.2993   24.6225 C   0  0  0  0  0  0
  -27.6078  -32.4346   25.7501 C   0  0  0  0  0  0
  -27.5566  -37.1784   24.8472 C   0  0  0  0  0  0
  -21.4191  -29.3066   22.3684 N   0  0  0  0  0  0
  -26.4268  -37.3740   23.9424 N   0  0  0  0  0  0
  -24.6940  -31.0460   22.0948 N   0  0  0  0  0  0
  -23.4143  -28.8156   23.3055 O   0  0  0  0  0  0
  -28.3482  -26.4363   20.2122 O   0  0  0  0  0  0
  -26.5630  -34.8894   22.4659 O   0  0  0  0  0  0
  -23.5464  -32.1342   23.7275 O   0  0  0  0  0  0
  -28.4132  -20.9988   20.5853 C   0  0  0  0  0  0
  -30.1310  -22.2753   21.0634 C   0  0  0  0  0  0
  -28.8246  -22.3943   20.6906 C   0  0  0  0  0  0
  -29.3920  -20.0908   21.0070 C   0  0  0  0  0  0
  -32.6057  -21.7491   22.4379 C   0  0  0  0  0  0
  -31.4109  -17.2877   22.1382 C   0  0  0  0  0  0
  -31.1375  -17.7930   19.6472 C   0  0  0  0  0  0
  -29.2890  -18.5019   21.2552 C   0  0  0  0  0  0
  -31.6510  -20.5861   22.1219 C   0  0  0  0  0  0
  -28.4539  -25.0196   19.7283 C   0  0  0  0  0  0
  -27.9958  -23.7569   20.6256 C   0  0  2  0  0  0
  -30.4200  -17.3525   20.9426 C   0  0  0  0  0  0
  -30.4398  -20.9491   21.3939 N   0  0  0  0  0  0
  -29.9358  -15.8912   20.7913 N   0  0  0  0  0  0
  -27.8283  -24.2011   22.0182 N   0  3  0  0  0  0
  -31.4690  -12.5688   19.1709 H   0  0  0  0  0  0
  -30.3625  -11.4803   19.9631 H   0  0  0  0  0  0
  -29.7887  -11.7211   17.5292 H   0  0  0  0  0  0
  -29.6304  -13.4533   17.7142 H   0  0  0  0  0  0
  -27.9033  -11.2751   18.9293 H   0  0  0  0  0  0
  -27.3720  -12.5012   17.8079 H   0  0  0  0  0  0
  -27.6368  -14.2517   19.4674 H   0  0  0  0  0  0
  -28.7210  -12.1723   21.4302 H   0  0  0  0  0  0
  -28.4172  -13.8540   21.7968 H   0  0  0  0  0  0
  -25.2763   -9.5674   22.4779 H   0  0  0  0  0  0
  -23.9999   -7.4623   22.7476 H   0  0  0  0  0  0
  -21.0846   -8.8780   19.8955 H   0  0  0  0  0  0
  -22.3701  -10.9682   19.6185 H   0  0  0  0  0  0
  -21.2007   -7.6150   23.9713 H   0  0  0  0  0  0
  -21.1485   -6.0528   25.9078 H   0  0  0  0  0  0
  -22.0595   -2.7609   23.2845 H   0  0  0  0  0  0
  -22.4085  -11.9911   22.4837 H   0  0  0  0  0  0
  -21.1083  -13.1252   22.2601 H   0  0  0  0  0  0
  -24.6498  -15.8405   20.5087 H   0  0  0  0  0  0
  -26.2609  -15.6242   20.0465 H   0  0  0  0  0  0
  -26.7187  -32.5319   23.1039 H   0  0  0  0  0  0
  -25.0061  -33.9683   25.0381 H   0  0  0  0  0  0
  -22.7292  -31.3008   21.3953 H   0  0  0  0  0  0
  -23.3750  -35.9591   23.3297 H   0  0  0  0  0  0
  -24.3587  -36.8885   22.2055 H   0  0  0  0  0  0
  -23.7272  -37.6471   23.6684 H   0  0  0  0  0  0
  -26.0963  -31.5216   20.5928 H   0  0  0  0  0  0
  -26.8505  -30.8189   21.9962 H   0  0  0  0  0  0
  -28.1049  -28.9346   21.1839 H   0  0  0  0  0  0
  -25.9578  -25.8674   19.0242 H   0  0  0  0  0  0
  -23.9553  -27.2777   19.0388 H   0  0  0  0  0  0
  -23.7613  -30.5625   19.3992 H   0  0  0  0  0  0
  -22.7549  -29.2193   19.8687 H   0  0  0  0  0  0
  -25.1306  -36.1856   25.0817 H   0  0  0  0  0  0
  -21.0014  -28.3297   24.1371 H   0  0  0  0  0  0
  -20.5719  -26.2337   23.3612 H   0  0  0  0  0  0
  -21.6655  -26.7478   22.1174 H   0  0  0  0  0  0
  -19.6919  -25.6306   21.1281 H   0  0  0  0  0  0
  -19.6690  -27.3176   20.6711 H   0  0  0  0  0  0
  -17.4216  -26.6719   21.4059 H   0  0  0  0  0  0
  -18.0355  -26.0096   22.9031 H   0  0  0  0  0  0
  -19.7943  -30.7327   24.2240 H   0  0  0  0  0  0
  -17.5028  -31.6283   24.5164 H   0  0  0  0  0  0
  -15.5375  -30.2998   23.7688 H   0  0  0  0  0  0
  -15.8694  -28.0841   22.7066 H   0  0  0  0  0  0
  -24.5927  -30.7132   25.7822 H   0  0  0  0  0  0
  -24.9025  -32.2942   26.4915 H   0  0  0  0  0  0
  -25.8097  -30.8925   27.0252 H   0  0  0  0  0  0
  -26.2956  -29.6756   24.1233 H   0  0  0  0  0  0
  -27.4020  -29.7259   25.4761 H   0  0  0  0  0  0
  -27.8835  -30.4288   23.9498 H   0  0  0  0  0  0
  -27.2682  -33.3654   26.2058 H   0  0  0  0  0  0
  -28.3881  -32.6900   25.0305 H   0  0  0  0  0  0
  -28.0769  -31.8503   26.5427 H   0  0  0  0  0  0
  -28.2578  -38.0079   24.7473 H   0  0  0  0  0  0
  -28.1080  -36.2613   24.6349 H   0  0  0  0  0  0
  -27.2298  -37.1452   25.8879 H   0  0  0  0  0  0
  -20.9396  -29.8688   21.6807 H   0  0  0  0  0  0
  -26.0140  -38.2803   24.1437 H   0  0  0  0  0  0
  -27.4153  -20.6823   20.3102 H   0  0  0  0  0  0
  -30.8291  -23.0776   21.2600 H   0  0  0  0  0  0
  -33.4498  -21.4020   23.0354 H   0  0  0  0  0  0
  -32.1061  -22.5245   23.0209 H   0  0  0  0  0  0
  -33.0038  -22.1984   21.5268 H   0  0  0  0  0  0
  -31.3060  -18.1175   22.8220 H   0  0  0  0  0  0
  -32.4516  -17.2451   21.8138 H   0  0  0  0  0  0
  -31.2441  -16.4200   22.7780 H   0  0  0  0  0  0
  -31.5232  -18.8105   19.7069 H   0  0  0  0  0  0
  -30.4499  -17.7675   18.8042 H   0  0  0  0  0  0
  -31.9864  -17.1600   19.4021 H   0  0  0  0  0  0
  -28.4144  -18.1901   20.6855 H   0  0  0  0  0  0
  -28.9674  -18.3625   22.2877 H   0  0  0  0  0  0
  -31.3234  -20.1858   23.0799 H   0  0  0  0  0  0
  -32.1873  -19.8151   21.5775 H   0  0  0  0  0  0
  -28.0606  -24.9251   18.7130 H   0  0  0  0  0  0
  -29.5285  -24.8982   19.5917 H   0  0  0  0  0  0
  -26.9982  -23.4681   20.2936 H   0  0  0  0  0  0
  -28.9489  -15.7433   20.9460 H   0  0  0  0  0  0
  -28.6412  -24.7078   22.3218 H   0  0  0  0  0  0
  -27.7127  -23.3976   22.6096 H   0  0  0  0  0  0
  -27.0260  -24.7995   22.1108 H   0  0  0  0  0  0
  1 25  1  0  0  0
  1 30  2  0  0  0
  1 84  1  0  0  0
  2  3  1  0  0  0
  2 25  1  0  0  0
  2 86  1  0  0  0
  2 87  1  0  0  0
  3  4  1  0  0  0
  3 88  1  0  0  0
  3 89  1  0  0  0
  4  5  1  0  0  0
  4 90  1  0  0  0
  4 91  1  0  0  0
  5  6  1  0  0  0
  5 26  1  0  0  0
  5 92  1  0  0  0
  6 25  1  0  0  0
  6 93  1  0  0  0
  6 94  1  0  0  0
  7  8  2  0  0  0
  7 26  1  0  0  0
  7 29  1  0  0  0
  8  9  1  0  0  0
  8 22  1  0  0  0
  9 10  1  0  0  0
  9 27  2  0  0  0
 10 11  2  0  0  0
 10 15  1  0  0  0
 11 12  1  0  0  0
 11 95  1  0  0  0
 12 13  2  0  0  0
 12 96  1  0  0  0
 13 14  1  0  0  0
 13 31  1  0  0  0
 14 15  2  0  0  0
 14 97  1  0  0  0
 15 98  1  0  0  0
 16 17  2  0  0  0
 16 21  1  0  0  0
 16 31  1  0  0  0
 17 18  1  0  0  0
 17 99  1  0  0  0
 18 19  2  0  0  0
 18100  1  0  0  0
 19 20  1  0  0  0
 19 24  1  0  0  0
 20 21  2  0  0  0
 20101  1  0  0  0
 21 23  1  0  0  0
 22 28  1  0  0  0
 22 32  2  0  0  0
 26 27  1  0  0  0
 28102  1  0  0  0
 28103  1  0  0  0
 29104  1  0  0  0
 29105  1  0  0  0
 33 34  1  0  0  0
 33 66  1  0  0  0
 33 70  2  0  0  0
 34 36  1  0  0  0
 34 59  1  0  0  0
 34106  1  0  0  0
 35 44  2  0  0  0
 35 45  1  0  0  0
 35 68  1  0  0  0
 36 56  1  0  0  0
 36107  1  0  0  0
 37 39  1  0  0  0
 37 47  1  0  0  0
 37 66  1  0  0  0
 37108  1  0  0  0
 38 43  2  0  0  0
 38 46  1  0  0  0
 38 47  1  0  0  0
 39 64  1  0  0  0
 39 67  2  0  0  0
 40 52  1  0  0  0
 40 53  2  0  0  0
 40 58  1  0  0  0
 41109  1  0  0  0
 41110  1  0  0  0
 41111  1  0  0  0
 41 48  1  0  0  0
 42 43  1  0  0  0
 42 66  1  0  0  0
 42112  1  0  0  0
 42113  1  0  0  0
 43 44  1  0  0  0
 44114  1  0  0  0
 45 46  2  0  0  0
 45115  1  0  0  0
 46116  1  0  0  0
 47117  1  0  0  0
 47118  1  0  0  0
 48 56  1  0  0  0
 48 65  1  0  0  0
 48119  1  0  0  0
 49 50  1  0  0  0
 49 53  1  0  0  0
 49 64  1  0  0  0
 49120  1  0  0  0
 50 51  1  0  0  0
 50121  1  0  0  0
 50122  1  0  0  0
 51 52  1  0  0  0
 51123  1  0  0  0
 51124  1  0  0  0
 52125  1  0  0  0
 52126  1  0  0  0
 53 54  1  0  0  0
 54 55  2  0  0  0
 54127  1  0  0  0
 55 57  1  0  0  0
 55128  1  0  0  0
 56 69  2  0  0  0
 57 58  2  0  0  0
 57129  1  0  0  0
 58130  1  0  0  0
 59 60  1  0  0  0
 59 61  1  0  0  0
 59 62  1  0  0  0
 60131  1  0  0  0
 60132  1  0  0  0
 60133  1  0  0  0
 61134  1  0  0  0
 61135  1  0  0  0
 61136  1  0  0  0
 62137  1  0  0  0
 62138  1  0  0  0
 62139  1  0  0  0
 63 65  1  0  0  0
 63140  1  0  0  0
 63141  1  0  0  0
 63142  1  0  0  0
 64143  1  0  0  0
 65144  1  0  0  0
 68 80  1  0  0  0
 71 73  1  0  0  0
 71 74  2  0  0  0
 71145  1  0  0  0
 72 73  2  0  0  0
 72 83  1  0  0  0
 72146  1  0  0  0
 73 81  1  0  0  0
 74 78  1  0  0  0
 74 83  1  0  0  0
 75 79  1  0  0  0
 75147  1  0  0  0
 75148  1  0  0  0
 75149  1  0  0  0
 76150  1  0  0  0
 76151  1  0  0  0
 76152  1  0  0  0
 76 82  1  0  0  0
 77 82  1  0  0  0
 77153  1  0  0  0
 77154  1  0  0  0
 77155  1  0  0  0
 78 82  1  0  0  0
 78156  1  0  0  0
 78157  1  0  0  0
 79 83  1  0  0  0
 79158  1  0  0  0
 79159  1  0  0  0
 80 81  1  0  0  0
 80160  1  0  0  0
 80161  1  0  0  0
 81 85  1  0  0  0
 81162  1  0  0  0
 82 84  1  0  0  0
 84163  1  0  0  0
 85164  1  0  0  0
 85165  1  0  0  0
 85166  1  0  0  0
M  CHG  1  85   1
M  ISO  4   1 100  68 101  80 101  84 100
M  END
> <chiral flag>
0

> <version>
0

> <s_m_source_file>
/data/baiqing/PycharmProjects/Reinvent-master-3.2/result/LINK_invent/BTK/process_docking_weight1_custom_sum_contain_oxygen_bond_distance_aromatic_linkinvent_7_9_3/rearranged_h_0109.sdf

> <i_m_source_file_index>
20

> <r_mmod_Potential_Energy-OPLS-2005>
-16.3491516113281

> <r_mmod_Stretch_Energy-OPLS-2005>
132.815795898438

> <r_mmod_Bend_Energy-OPLS-2005>
211.119979858398

> <r_mmod_Torsional_Energy-OPLS-2005>
241.917633056641

> <r_mmod_Improper_Torsional_Energy-OPLS-2005>
6.27166938781738

> <r_mmod_Van_der_Waal_Energy-OPLS-2005>
124.894683837891

> <r_mmod_Electrostatic_Energy-OPLS-2005>
-367.271453857422

> <r_mmod_Solvation_Energy-OPLS-2005>
-444.384948730469

> <b_mmod_Minimization_Converged-OPLS-2005>
0

> <r_mmod_RMS_Derivative-OPLS-2005>
4.39489221572876

$$$$
20
                    3D
 Structure written by MMmdl.
156163  0  0  1  0            999 V2000
  -30.6609  -14.6898   20.4531 C   0  0  0  0  0  0
  -30.4403  -12.4142   19.4782 C   0  0  0  0  0  0
  -29.5275  -12.5085   18.2343 C   0  0  0  0  0  0
  -28.0514  -12.3420   18.6436 C   0  0  0  0  0  0
  -27.6594  -13.2336   19.8556 C   0  0  2  0  0  0
  -28.7066  -13.1483   20.9923 C   0  0  0  0  0  0
  -25.2583  -13.8169   20.5722 C   0  0  0  0  0  0
  -24.1871  -13.0433   20.9205 C   0  0  0  0  0  0
  -24.6474  -11.6922   20.8792 C   0  0  0  0  0  0
  -23.9117  -10.4308   21.0423 C   0  0  0  0  0  0
  -24.3656   -9.4208   21.9192 C   0  0  0  0  0  0
  -23.6328   -8.2256   22.0753 C   0  0  0  0  0  0
  -22.4304   -8.0312   21.3550 C   0  0  0  0  0  0
  -21.9949   -9.0274   20.4625 C   0  0  0  0  0  0
  -22.7290  -10.2148   20.3048 C   0  0  0  0  0  0
  -21.6843   -6.0765   22.5302 C   0  0  0  0  0  0
  -21.3987   -6.5648   23.8233 C   0  0  0  0  0  0
  -21.3665   -5.6796   24.9194 C   0  0  0  0  0  0
  -21.6041   -4.3057   24.7243 C   0  0  0  0  0  0
  -21.8806   -3.8166   23.4354 C   0  0  0  0  0  0
  -21.9165   -4.6992   22.3414 C   0  0  0  0  0  0
  -22.7869  -13.5228   21.1841 C   0  0  0  0  0  0
  -22.1661   -4.2184   21.0996 F   0  0  0  0  0  0
  -21.5642   -3.4534   25.7748 F   0  0  0  0  0  0
  -30.0166  -13.4758   20.4170 N   0  0  0  0  0  0
  -26.3060  -12.9424   20.3325 N   0  0  0  0  0  0
  -25.9430  -11.6569   20.5818 N   0  0  0  0  0  0
  -22.0442  -12.8303   22.0373 N   0  0  0  0  0  0
  -25.4159  -15.1900   20.4150 N   0  0  0  0  0  0
  -31.8331  -14.7870   20.0908 O   0  0  0  0  0  0
  -21.6634   -6.8936   21.4277 O   0  0  0  0  0  0
  -22.3605  -14.5553   20.6633 O   0  0  0  0  0  0
  -24.6307  -31.8608   23.1998 C   0  0  0  0  0  0
  -25.9130  -32.4778   23.8355 C   0  0  1  0  0  0
  -27.2264  -27.2945   20.1097 C   0  0  0  0  0  0
  -25.5975  -33.8577   24.2285 N   0  0  0  0  0  0
  -23.4262  -30.4858   21.5404 C   0  0  2  0  0  0
  -24.8784  -28.9425   20.1029 C   0  0  0  0  0  0
  -22.7533  -29.4642   22.4866 C   0  0  0  0  0  0
  -18.0305  -28.1389   22.8493 C   0  0  0  0  0  0
  -24.1472  -36.7240   23.2647 C   0  0  0  0  0  0
  -25.9735  -30.7788   21.3819 C   0  0  0  0  0  0
  -26.0473  -29.4073   20.7174 C   0  0  0  0  0  0
  -27.2244  -28.5946   20.7113 C   0  0  0  0  0  0
  -26.0335  -26.9006   19.4593 C   0  0  0  0  0  0
  -24.8734  -27.7015   19.4575 C   0  0  0  0  0  0
  -23.6456  -29.8237   20.1532 C   0  0  0  0  0  0
  -25.4106  -36.3080   24.0359 C   0  0  1  0  0  0
  -20.5918  -28.3692   23.1272 C   0  0  2  0  0  0
  -20.6782  -26.9402   22.5409 C   0  0  0  0  0  0
  -19.5756  -26.6381   21.5228 C   0  0  0  0  0  0
  -18.1928  -26.7948   22.1622 C   0  0  0  0  0  0
  -19.1567  -28.8856   23.2888 C   0  0  0  0  0  0
  -18.9517  -30.1469   23.8897 C   0  0  0  0  0  0
  -17.6513  -30.6601   24.0542 C   0  0  0  0  0  0
  -25.9056  -34.9474   23.5127 C   0  0  0  0  0  0
  -16.5392  -29.9108   23.6308 C   0  0  0  0  0  0
  -16.7292  -28.6510   23.0342 C   0  0  0  0  0  0
  -26.4507  -31.6619   25.0739 C   0  0  0  0  0  0
  -25.3705  -31.3774   26.1409 C   0  0  0  0  0  0
  -27.0381  -30.3043   24.6222 C   0  0  0  0  0  0
  -27.6106  -32.4311   25.7491 C   0  0  0  0  0  0
  -27.5564  -37.1762   24.8482 C   0  0  0  0  0  0
  -21.4229  -29.3074   22.3690 N   0  0  0  0  0  0
  -26.4276  -37.3793   23.9438 N   0  0  0  0  0  0
  -24.6943  -31.0584   22.0969 N   0  0  0  0  0  0
  -23.4269  -28.8118   23.2879 O   0  0  0  0  0  0
  -28.3388  -26.4245   20.1436 O   0  0  0  0  0  0
  -26.5573  -34.8959   22.4666 O   0  0  0  0  0  0
  -23.5424  -32.1449   23.7260 O   0  0  0  0  0  0
  -29.4335  -19.9132   20.1961 C   0  0  0  0  0  0
  -30.0251  -23.9000   18.9315 C   0  0  0  0  0  0
  -30.1395  -21.2731   22.1573 C   0  0  0  0  0  0
  -29.7557  -18.5361   20.9471 C   0  0  0  0  0  0
  -30.2030  -17.2313   20.1155 C   0  0  0  0  0  0
  -28.6429  -22.3507   20.4711 C   0  0  0  0  0  0
  -28.0760  -24.9593   20.2753 C   0  0  0  0  0  0
  -29.2308  -23.8375   20.2555 C   0  0  1  0  0  0
  -29.9058  -15.8281   20.6440 N   0  0  0  0  0  0
  -29.5137  -21.1518   20.8290 N   0  0  0  0  0  0
  -29.0018  -19.8306   19.0418 O   0  0  0  0  0  0
  -31.4919  -12.5060   19.1954 H   0  0  0  0  0  0
  -30.3419  -11.4380   19.9525 H   0  0  0  0  0  0
  -29.8065  -11.7424   17.5089 H   0  0  0  0  0  0
  -29.6714  -13.4708   17.7365 H   0  0  0  0  0  0
  -27.9090  -11.2917   18.8967 H   0  0  0  0  0  0
  -27.3923  -12.5392   17.7982 H   0  0  0  0  0  0
  -27.6679  -14.2573   19.4871 H   0  0  0  0  0  0
  -28.7360  -12.1433   21.4166 H   0  0  0  0  0  0
  -28.4574  -13.8225   21.8135 H   0  0  0  0  0  0
  -25.2790   -9.5684   22.4771 H   0  0  0  0  0  0
  -23.9993   -7.4661   22.7501 H   0  0  0  0  0  0
  -21.0847   -8.8796   19.8991 H   0  0  0  0  0  0
  -22.3720  -10.9687   19.6164 H   0  0  0  0  0  0
  -21.1975   -7.6140   23.9772 H   0  0  0  0  0  0
  -21.1502   -6.0509   25.9098 H   0  0  0  0  0  0
  -22.0573   -2.7633   23.2823 H   0  0  0  0  0  0
  -22.4028  -12.0029   22.4877 H   0  0  0  0  0  0
  -21.1030  -13.1366   22.2449 H   0  0  0  0  0  0
  -24.6261  -15.8202   20.5145 H   0  0  0  0  0  0
  -26.2436  -15.6469   20.0560 H   0  0  0  0  0  0
  -26.7199  -32.5386   23.1079 H   0  0  0  0  0  0
  -25.0235  -33.9725   25.0518 H   0  0  0  0  0  0
  -22.7253  -31.3109   21.3926 H   0  0  0  0  0  0
  -23.3774  -35.9530   23.3310 H   0  0  0  0  0  0
  -24.3537  -36.8818   22.2056 H   0  0  0  0  0  0
  -23.7192  -37.6453   23.6620 H   0  0  0  0  0  0
  -26.1155  -31.5475   20.6190 H   0  0  0  0  0  0
  -26.8504  -30.8175   22.0167 H   0  0  0  0  0  0
  -28.1203  -28.9487   21.2017 H   0  0  0  0  0  0
  -25.9518  -25.9669   18.9237 H   0  0  0  0  0  0
  -23.9849  -27.3571   18.9457 H   0  0  0  0  0  0
  -23.7644  -30.6049   19.4002 H   0  0  0  0  0  0
  -22.7661  -29.2603   19.8388 H   0  0  0  0  0  0
  -25.1287  -36.1938   25.0860 H   0  0  0  0  0  0
  -21.0013  -28.3226   24.1381 H   0  0  0  0  0  0
  -20.5687  -26.2297   23.3601 H   0  0  0  0  0  0
  -21.6643  -26.7412   22.1201 H   0  0  0  0  0  0
  -19.6925  -25.6310   21.1230 H   0  0  0  0  0  0
  -19.6681  -27.3209   20.6766 H   0  0  0  0  0  0
  -17.4206  -26.6727   21.4010 H   0  0  0  0  0  0
  -18.0290  -26.0129   22.9042 H   0  0  0  0  0  0
  -19.8020  -30.7267   24.2259 H   0  0  0  0  0  0
  -17.5093  -31.6266   24.5167 H   0  0  0  0  0  0
  -15.5407  -30.2990   23.7696 H   0  0  0  0  0  0
  -15.8686  -28.0821   22.7034 H   0  0  0  0  0  0
  -24.5925  -30.7086   25.7711 H   0  0  0  0  0  0
  -24.8802  -32.2941   26.4762 H   0  0  0  0  0  0
  -25.7984  -30.9021   27.0252 H   0  0  0  0  0  0
  -26.2985  -29.6753   24.1275 H   0  0  0  0  0  0
  -27.4163  -29.7326   25.4722 H   0  0  0  0  0  0
  -27.8815  -30.4346   23.9429 H   0  0  0  0  0  0
  -27.2806  -33.3684   26.1990 H   0  0  0  0  0  0
  -28.3964  -32.6761   25.0323 H   0  0  0  0  0  0
  -28.0730  -31.8469   26.5451 H   0  0  0  0  0  0
  -28.2608  -38.0030   24.7514 H   0  0  0  0  0  0
  -28.1027  -36.2575   24.6331 H   0  0  0  0  0  0
  -27.2240  -37.1424   25.8868 H   0  0  0  0  0  0
  -20.9401  -29.8818   21.6906 H   0  0  0  0  0  0
  -26.0167  -38.2877   24.1453 H   0  0  0  0  0  0
  -30.8255  -23.1545   18.9052 H   0  0  0  0  0  0
  -30.4935  -24.8792   18.7995 H   0  0  0  0  0  0
  -29.3822  -23.7208   18.0659 H   0  0  0  0  0  0
  -29.6133  -20.6672   22.8999 H   0  0  0  0  0  0
  -30.1436  -22.2924   22.5491 H   0  0  0  0  0  0
  -31.1848  -20.9474   22.1209 H   0  0  0  0  0  0
  -30.4957  -18.7062   21.7279 H   0  0  0  0  0  0
  -28.8339  -18.2837   21.4692 H   0  0  0  0  0  0
  -31.2756  -17.3213   19.9315 H   0  0  0  0  0  0
  -29.7468  -17.2864   19.1260 H   0  0  0  0  0  0
  -28.0583  -22.1082   19.5834 H   0  0  0  0  0  0
  -27.9046  -22.4149   21.2751 H   0  0  0  0  0  0
  -27.5438  -24.8455   21.2220 H   0  0  0  0  0  0
  -27.3784  -24.6322   19.5054 H   0  0  0  0  0  0
  -29.9276  -24.0610   21.0654 H   0  0  0  0  0  0
  -28.9563  -15.6531   20.9320 H   0  0  0  0  0  0
  1 25  1  0  0  0
  1 30  2  0  0  0
  1 79  1  0  0  0
  2  3  1  0  0  0
  2 25  1  0  0  0
  2 82  1  0  0  0
  2 83  1  0  0  0
  3  4  1  0  0  0
  3 84  1  0  0  0
  3 85  1  0  0  0
  4  5  1  0  0  0
  4 86  1  0  0  0
  4 87  1  0  0  0
  5  6  1  0  0  0
  5 26  1  0  0  0
  5 88  1  0  0  0
  6 25  1  0  0  0
  6 89  1  0  0  0
  6 90  1  0  0  0
  7  8  2  0  0  0
  7 26  1  0  0  0
  7 29  1  0  0  0
  8  9  1  0  0  0
  8 22  1  0  0  0
  9 10  1  0  0  0
  9 27  2  0  0  0
 10 11  2  0  0  0
 10 15  1  0  0  0
 11 12  1  0  0  0
 11 91  1  0  0  0
 12 13  2  0  0  0
 12 92  1  0  0  0
 13 14  1  0  0  0
 13 31  1  0  0  0
 14 15  2  0  0  0
 14 93  1  0  0  0
 15 94  1  0  0  0
 16 17  2  0  0  0
 16 21  1  0  0  0
 16 31  1  0  0  0
 17 18  1  0  0  0
 17 95  1  0  0  0
 18 19  2  0  0  0
 18 96  1  0  0  0
 19 20  1  0  0  0
 19 24  1  0  0  0
 20 21  2  0  0  0
 20 97  1  0  0  0
 21 23  1  0  0  0
 22 28  1  0  0  0
 22 32  2  0  0  0
 26 27  1  0  0  0
 28 98  1  0  0  0
 28 99  1  0  0  0
 29100  1  0  0  0
 29101  1  0  0  0
 33 34  1  0  0  0
 33 66  1  0  0  0
 33 70  2  0  0  0
 34 36  1  0  0  0
 34 59  1  0  0  0
 34102  1  0  0  0
 35 44  2  0  0  0
 35 45  1  0  0  0
 35 68  1  0  0  0
 36 56  1  0  0  0
 36103  1  0  0  0
 37 39  1  0  0  0
 37 47  1  0  0  0
 37 66  1  0  0  0
 37104  1  0  0  0
 38 43  2  0  0  0
 38 46  1  0  0  0
 38 47  1  0  0  0
 39 64  1  0  0  0
 39 67  2  0  0  0
 40 52  1  0  0  0
 40 53  2  0  0  0
 40 58  1  0  0  0
 41105  1  0  0  0
 41106  1  0  0  0
 41107  1  0  0  0
 41 48  1  0  0  0
 42 43  1  0  0  0
 42 66  1  0  0  0
 42108  1  0  0  0
 42109  1  0  0  0
 43 44  1  0  0  0
 44110  1  0  0  0
 45 46  2  0  0  0
 45111  1  0  0  0
 46112  1  0  0  0
 47113  1  0  0  0
 47114  1  0  0  0
 48 56  1  0  0  0
 48 65  1  0  0  0
 48115  1  0  0  0
 49 50  1  0  0  0
 49 53  1  0  0  0
 49 64  1  0  0  0
 49116  1  0  0  0
 50 51  1  0  0  0
 50117  1  0  0  0
 50118  1  0  0  0
 51 52  1  0  0  0
 51119  1  0  0  0
 51120  1  0  0  0
 52121  1  0  0  0
 52122  1  0  0  0
 53 54  1  0  0  0
 54 55  2  0  0  0
 54123  1  0  0  0
 55 57  1  0  0  0
 55124  1  0  0  0
 56 69  2  0  0  0
 57 58  2  0  0  0
 57125  1  0  0  0
 58126  1  0  0  0
 59 60  1  0  0  0
 59 61  1  0  0  0
 59 62  1  0  0  0
 60127  1  0  0  0
 60128  1  0  0  0
 60129  1  0  0  0
 61130  1  0  0  0
 61131  1  0  0  0
 61132  1  0  0  0
 62133  1  0  0  0
 62134  1  0  0  0
 62135  1  0  0  0
 63 65  1  0  0  0
 63136  1  0  0  0
 63137  1  0  0  0
 63138  1  0  0  0
 64139  1  0  0  0
 65140  1  0  0  0
 68 77  1  0  0  0
 71 74  1  0  0  0
 71 80  1  0  0  0
 71 81  2  0  0  0
 72141  1  0  0  0
 72142  1  0  0  0
 72143  1  0  0  0
 72 78  1  0  0  0
 73 80  1  0  0  0
 73144  1  0  0  0
 73145  1  0  0  0
 73146  1  0  0  0
 74 75  1  0  0  0
 74147  1  0  0  0
 74148  1  0  0  0
 75 79  1  0  0  0
 75149  1  0  0  0
 75150  1  0  0  0
 76 78  1  0  0  0
 76 80  1  0  0  0
 76151  1  0  0  0
 76152  1  0  0  0
 77 78  1  0  0  0
 77153  1  0  0  0
 77154  1  0  0  0
 78155  1  0  0  0
 79156  1  0  0  0
M  ISO  4   1 100  68 101  77 101  79 100
M  END
> <chiral flag>
0

> <version>
0

> <s_m_source_file>
/data/baiqing/PycharmProjects/Reinvent-master-3.2/result/LINK_invent/BTK/process_docking_weight1_custom_sum_contain_oxygen_bond_distance_aromatic_linkinvent_7_9_3/rearranged_h_0109.sdf

> <i_m_source_file_index>
21

> <r_mmod_Potential_Energy-OPLS-2005>
141.56169128418

> <r_mmod_Stretch_Energy-OPLS-2005>
111.499671936035

> <r_mmod_Bend_Energy-OPLS-2005>
160.070220947266

> <r_mmod_Torsional_Energy-OPLS-2005>
254.617782592773

> <r_mmod_Improper_Torsional_Energy-OPLS-2005>
8.81056594848633

> <r_mmod_Van_der_Waal_Energy-OPLS-2005>
127.319717407227

> <r_mmod_Electrostatic_Energy-OPLS-2005>
-355.3388671875

> <r_mmod_Solvation_Energy-OPLS-2005>
-230.400207519531

> <b_mmod_Minimization_Converged-OPLS-2005>
0

> <r_mmod_RMS_Derivative-OPLS-2005>
6.787522315979

$$$$
21
                    3D
 Structure written by MMmdl.
161169  0  0  1  0            999 V2000
  -30.5378  -14.7460   20.4680 C   0  0  0  0  0  0
  -30.4413  -12.4488   19.4662 C   0  0  0  0  0  0
  -29.5168  -12.4970   18.2268 C   0  0  0  0  0  0
  -28.0318  -12.3481   18.6218 C   0  0  0  0  0  0
  -27.6350  -13.2191   19.8442 C   0  0  2  0  0  0
  -28.6794  -13.1221   20.9770 C   0  0  0  0  0  0
  -25.2452  -13.8136   20.5608 C   0  0  0  0  0  0
  -24.1731  -13.0412   20.9144 C   0  0  0  0  0  0
  -24.6314  -11.6885   20.8696 C   0  0  0  0  0  0
  -23.8999  -10.4277   21.0358 C   0  0  0  0  0  0
  -24.3558   -9.4205   21.9140 C   0  0  0  0  0  0
  -23.6231   -8.2248   22.0743 C   0  0  0  0  0  0
  -22.4216   -8.0280   21.3532 C   0  0  0  0  0  0
  -21.9836   -9.0240   20.4645 C   0  0  0  0  0  0
  -22.7176  -10.2110   20.3013 C   0  0  0  0  0  0
  -21.6867   -6.0665   22.5245 C   0  0  0  0  0  0
  -21.4054   -6.5571   23.8161 C   0  0  0  0  0  0
  -21.3674   -5.6740   24.9139 C   0  0  0  0  0  0
  -21.6039   -4.3006   24.7199 C   0  0  0  0  0  0
  -21.8829   -3.8084   23.4342 C   0  0  0  0  0  0
  -21.9209   -4.6899   22.3374 C   0  0  0  0  0  0
  -22.7798  -13.5216   21.1844 C   0  0  0  0  0  0
  -22.1673   -4.2071   21.0953 F   0  0  0  0  0  0
  -21.5609   -3.4494   25.7731 F   0  0  0  0  0  0
  -29.9774  -13.4927   20.3983 N   0  0  0  0  0  0
  -26.2863  -12.9330   20.3205 N   0  0  0  0  0  0
  -25.9241  -11.6478   20.5693 N   0  0  0  0  0  0
  -22.0439  -12.8252   22.0451 N   0  0  0  0  0  0
  -25.4030  -15.1865   20.3964 N   0  0  0  0  0  0
  -31.7454  -14.9074   20.2539 O   0  0  0  0  0  0
  -21.6627   -6.8840   21.4219 O   0  0  0  0  0  0
  -22.3493  -14.5547   20.6691 O   0  0  0  0  0  0
  -24.6298  -31.8574   23.2027 C   0  0  0  0  0  0
  -25.9136  -32.4760   23.8338 C   0  0  1  0  0  0
  -27.1859  -27.2765   20.1183 C   0  0  0  0  0  0
  -25.5964  -33.8559   24.2291 N   0  0  0  0  0  0
  -23.4224  -30.4830   21.5450 C   0  0  2  0  0  0
  -24.8670  -28.9544   20.1003 C   0  0  0  0  0  0
  -22.7490  -29.4581   22.4922 C   0  0  0  0  0  0
  -18.0289  -28.1388   22.8472 C   0  0  0  0  0  0
  -24.1506  -36.7287   23.2611 C   0  0  0  0  0  0
  -25.9672  -30.7801   21.3772 C   0  0  0  0  0  0
  -26.0389  -29.4043   20.7212 C   0  0  0  0  0  0
  -27.2043  -28.5743   20.7278 C   0  0  0  0  0  0
  -26.0026  -26.9184   19.4318 C   0  0  0  0  0  0
  -24.8567  -27.7245   19.4352 C   0  0  0  0  0  0
  -23.6367  -29.8317   20.1551 C   0  0  0  0  0  0
  -25.4110  -36.3063   24.0317 C   0  0  1  0  0  0
  -20.5890  -28.3672   23.1304 C   0  0  2  0  0  0
  -20.6795  -26.9405   22.5404 C   0  0  0  0  0  0
  -19.5765  -26.6403   21.5199 C   0  0  0  0  0  0
  -18.1953  -26.7927   22.1613 C   0  0  0  0  0  0
  -19.1548  -28.8849   23.2888 C   0  0  0  0  0  0
  -18.9463  -30.1454   23.8898 C   0  0  0  0  0  0
  -17.6454  -30.6577   24.0569 C   0  0  0  0  0  0
  -25.9051  -34.9431   23.5097 C   0  0  0  0  0  0
  -16.5353  -29.9057   23.6319 C   0  0  0  0  0  0
  -16.7285  -28.6494   23.0325 C   0  0  0  0  0  0
  -26.4522  -31.6537   25.0681 C   0  0  0  0  0  0
  -25.3762  -31.3700   26.1412 C   0  0  0  0  0  0
  -27.0297  -30.2941   24.6091 C   0  0  0  0  0  0
  -27.6119  -32.4201   25.7447 C   0  0  0  0  0  0
  -27.5594  -37.1782   24.8434 C   0  0  0  0  0  0
  -21.4203  -29.3026   22.3697 N   0  0  0  0  0  0
  -26.4283  -37.3770   23.9432 N   0  0  0  0  0  0
  -24.6916  -31.0557   22.0982 N   0  0  0  0  0  0
  -23.4223  -28.8088   23.2969 O   0  0  0  0  0  0
  -28.2383  -26.3395   20.2055 O   0  0  0  0  0  0
  -26.5585  -34.8889   22.4647 O   0  0  0  0  0  0
  -23.5443  -32.1380   23.7338 O   0  0  0  0  0  0
  -28.4789  -19.4481   22.2243 C   0  0  0  0  0  0
  -28.7436  -17.0377   22.2111 C   0  0  0  0  0  0
  -28.2376  -18.2020   22.8216 C   0  0  0  0  0  0
  -29.1407  -19.5243   20.9866 C   0  0  0  0  0  0
  -29.4456  -17.0997   20.9897 C   0  0  0  0  0  0
  -27.3911  -18.1110   24.0770 C   0  0  0  0  0  0
  -26.2220  -20.7784   19.5982 C   0  0  0  0  0  0
  -29.4652  -20.9683   20.4063 C   0  0  0  0  0  0
  -26.9172  -21.8238   20.4826 C   0  0  0  0  0  0
  -28.8037  -23.6592   20.4620 C   0  0  0  0  0  0
  -27.8501  -24.8958   20.0810 C   0  0  0  0  0  0
  -28.3804  -22.1379   20.0701 C   0  0  1  0  0  0
  -29.6056  -18.3512   20.3866 N   0  0  0  0  0  0
  -29.6214  -15.7822   20.3626 N   0  0  0  0  0  0
  -31.4822  -12.5927   19.1737 H   0  0  0  0  0  0
  -30.3964  -11.4688   19.9409 H   0  0  0  0  0  0
  -29.7952  -11.7118   17.5216 H   0  0  0  0  0  0
  -29.6662  -13.4405   17.6991 H   0  0  0  0  0  0
  -27.8438  -11.2986   18.8412 H   0  0  0  0  0  0
  -27.4006  -12.5988   17.7663 H   0  0  0  0  0  0
  -27.6254  -14.2428   19.4754 H   0  0  0  0  0  0
  -28.7081  -12.1120   21.3851 H   0  0  0  0  0  0
  -28.4160  -13.7830   21.8074 H   0  0  0  0  0  0
  -25.2684   -9.5684   22.4742 H   0  0  0  0  0  0
  -23.9922   -7.4640   22.7462 H   0  0  0  0  0  0
  -21.0752   -8.8737   19.8955 H   0  0  0  0  0  0
  -22.3593  -10.9628   19.6118 H   0  0  0  0  0  0
  -21.2066   -7.6088   23.9640 H   0  0  0  0  0  0
  -21.1483   -6.0471   25.9027 H   0  0  0  0  0  0
  -22.0604   -2.7546   23.2847 H   0  0  0  0  0  0
  -22.4041  -11.9937   22.4886 H   0  0  0  0  0  0
  -21.1066  -13.1288   22.2637 H   0  0  0  0  0  0
  -24.6017  -15.8061   20.4453 H   0  0  0  0  0  0
  -26.1983  -15.6263   19.9549 H   0  0  0  0  0  0
  -26.7191  -32.5422   23.1065 H   0  0  0  0  0  0
  -25.0173  -33.9702   25.0474 H   0  0  0  0  0  0
  -22.7153  -31.3041   21.4066 H   0  0  0  0  0  0
  -23.3772  -35.9614   23.3210 H   0  0  0  0  0  0
  -24.3661  -36.8957   22.2048 H   0  0  0  0  0  0
  -23.7246  -37.6469   23.6658 H   0  0  0  0  0  0
  -26.0890  -31.5400   20.6046 H   0  0  0  0  0  0
  -26.8529  -30.8409   21.9972 H   0  0  0  0  0  0
  -28.0950  -28.9024   21.2436 H   0  0  0  0  0  0
  -25.9089  -25.9932   18.8855 H   0  0  0  0  0  0
  -23.9716  -27.3888   18.9144 H   0  0  0  0  0  0
  -23.7574  -30.6112   19.4005 H   0  0  0  0  0  0
  -22.7595  -29.2564   19.8512 H   0  0  0  0  0  0
  -25.1280  -36.1900   25.0802 H   0  0  0  0  0  0
  -20.9987  -28.3240   24.1418 H   0  0  0  0  0  0
  -20.5741  -26.2248   23.3575 H   0  0  0  0  0  0
  -21.6666  -26.7477   22.1179 H   0  0  0  0  0  0
  -19.6938  -25.6330   21.1191 H   0  0  0  0  0  0
  -19.6696  -27.3243   20.6754 H   0  0  0  0  0  0
  -17.4221  -26.6671   21.4024 H   0  0  0  0  0  0
  -18.0357  -26.0081   22.9018 H   0  0  0  0  0  0
  -19.7939  -30.7292   24.2259 H   0  0  0  0  0  0
  -17.4994  -31.6249   24.5181 H   0  0  0  0  0  0
  -15.5346  -30.2953   23.7645 H   0  0  0  0  0  0
  -15.8685  -28.0807   22.7015 H   0  0  0  0  0  0
  -24.5982  -30.6972   25.7790 H   0  0  0  0  0  0
  -24.8888  -32.2856   26.4759 H   0  0  0  0  0  0
  -25.8103  -30.8973   27.0229 H   0  0  0  0  0  0
  -26.2814  -29.6724   24.1151 H   0  0  0  0  0  0
  -27.4042  -29.7164   25.4557 H   0  0  0  0  0  0
  -27.8688  -30.4209   23.9244 H   0  0  0  0  0  0
  -27.2821  -33.3562   26.1966 H   0  0  0  0  0  0
  -28.3983  -32.6620   25.0284 H   0  0  0  0  0  0
  -28.0695  -31.8302   26.5400 H   0  0  0  0  0  0
  -28.2527  -38.0164   24.7603 H   0  0  0  0  0  0
  -28.1175  -36.2703   24.6084 H   0  0  0  0  0  0
  -27.2351  -37.1242   25.8840 H   0  0  0  0  0  0
  -20.9362  -29.8749   21.6923 H   0  0  0  0  0  0
  -26.0135  -38.2822   24.1500 H   0  0  0  0  0  0
  -28.1454  -20.3483   22.7251 H   0  0  0  0  0  0
  -28.5252  -16.0807   22.6684 H   0  0  0  0  0  0
  -27.3654  -19.0629   24.6106 H   0  0  0  0  0  0
  -27.7690  -17.3521   24.7612 H   0  0  0  0  0  0
  -26.3671  -17.8445   23.8084 H   0  0  0  0  0  0
  -25.2412  -20.5265   20.0034 H   0  0  0  0  0  0
  -26.7944  -19.8562   19.5145 H   0  0  0  0  0  0
  -26.0608  -21.1674   18.5917 H   0  0  0  0  0  0
  -30.0847  -20.8222   19.5209 H   0  0  0  0  0  0
  -30.1467  -21.4028   21.1400 H   0  0  0  0  0  0
  -26.8521  -21.5440   21.5304 H   0  0  0  0  0  0
  -26.3058  -22.7187   20.3967 H   0  0  0  0  0  0
  -28.9870  -23.6986   21.5358 H   0  0  0  0  0  0
  -29.7700  -23.8531   19.9956 H   0  0  0  0  0  0
  -26.9479  -24.7781   20.6892 H   0  0  0  0  0  0
  -27.5592  -24.7224   19.0462 H   0  0  0  0  0  0
  -28.3399  -22.1542   18.9785 H   0  0  0  0  0  0
  -28.7224  -15.3707   20.1782 H   0  0  0  0  0  0
  1 25  1  0  0  0
  1 30  2  0  0  0
  1 84  1  0  0  0
  2  3  1  0  0  0
  2 25  1  0  0  0
  2 85  1  0  0  0
  2 86  1  0  0  0
  3  4  1  0  0  0
  3 87  1  0  0  0
  3 88  1  0  0  0
  4  5  1  0  0  0
  4 89  1  0  0  0
  4 90  1  0  0  0
  5  6  1  0  0  0
  5 26  1  0  0  0
  5 91  1  0  0  0
  6 25  1  0  0  0
  6 92  1  0  0  0
  6 93  1  0  0  0
  7  8  2  0  0  0
  7 26  1  0  0  0
  7 29  1  0  0  0
  8  9  1  0  0  0
  8 22  1  0  0  0
  9 10  1  0  0  0
  9 27  2  0  0  0
 10 11  2  0  0  0
 10 15  1  0  0  0
 11 12  1  0  0  0
 11 94  1  0  0  0
 12 13  2  0  0  0
 12 95  1  0  0  0
 13 14  1  0  0  0
 13 31  1  0  0  0
 14 15  2  0  0  0
 14 96  1  0  0  0
 15 97  1  0  0  0
 16 17  2  0  0  0
 16 21  1  0  0  0
 16 31  1  0  0  0
 17 18  1  0  0  0
 17 98  1  0  0  0
 18 19  2  0  0  0
 18 99  1  0  0  0
 19 20  1  0  0  0
 19 24  1  0  0  0
 20 21  2  0  0  0
 20100  1  0  0  0
 21 23  1  0  0  0
 22 28  1  0  0  0
 22 32  2  0  0  0
 26 27  1  0  0  0
 28101  1  0  0  0
 28102  1  0  0  0
 29103  1  0  0  0
 29104  1  0  0  0
 33 34  1  0  0  0
 33 66  1  0  0  0
 33 70  2  0  0  0
 34 36  1  0  0  0
 34 59  1  0  0  0
 34105  1  0  0  0
 35 44  2  0  0  0
 35 45  1  0  0  0
 35 68  1  0  0  0
 36 56  1  0  0  0
 36106  1  0  0  0
 37 39  1  0  0  0
 37 47  1  0  0  0
 37 66  1  0  0  0
 37107  1  0  0  0
 38 43  2  0  0  0
 38 46  1  0  0  0
 38 47  1  0  0  0
 39 64  1  0  0  0
 39 67  2  0  0  0
 40 52  1  0  0  0
 40 53  2  0  0  0
 40 58  1  0  0  0
 41108  1  0  0  0
 41109  1  0  0  0
 41110  1  0  0  0
 41 48  1  0  0  0
 42 43  1  0  0  0
 42 66  1  0  0  0
 42111  1  0  0  0
 42112  1  0  0  0
 43 44  1  0  0  0
 44113  1  0  0  0
 45 46  2  0  0  0
 45114  1  0  0  0
 46115  1  0  0  0
 47116  1  0  0  0
 47117  1  0  0  0
 48 56  1  0  0  0
 48 65  1  0  0  0
 48118  1  0  0  0
 49 50  1  0  0  0
 49 53  1  0  0  0
 49 64  1  0  0  0
 49119  1  0  0  0
 50 51  1  0  0  0
 50120  1  0  0  0
 50121  1  0  0  0
 51 52  1  0  0  0
 51122  1  0  0  0
 51123  1  0  0  0
 52124  1  0  0  0
 52125  1  0  0  0
 53 54  1  0  0  0
 54 55  2  0  0  0
 54126  1  0  0  0
 55 57  1  0  0  0
 55127  1  0  0  0
 56 69  2  0  0  0
 57 58  2  0  0  0
 57128  1  0  0  0
 58129  1  0  0  0
 59 60  1  0  0  0
 59 61  1  0  0  0
 59 62  1  0  0  0
 60130  1  0  0  0
 60131  1  0  0  0
 60132  1  0  0  0
 61133  1  0  0  0
 61134  1  0  0  0
 61135  1  0  0  0
 62136  1  0  0  0
 62137  1  0  0  0
 62138  1  0  0  0
 63 65  1  0  0  0
 63139  1  0  0  0
 63140  1  0  0  0
 63141  1  0  0  0
 64142  1  0  0  0
 65143  1  0  0  0
 68 81  1  0  0  0
 71 73  2  0  0  0
 71 74  1  0  0  0
 71144  1  0  0  0
 72 73  1  0  0  0
 72 75  2  0  0  0
 72145  1  0  0  0
 73 76  1  0  0  0
 74 78  1  0  0  0
 74 83  2  0  0  0
 75 83  1  0  0  0
 75 84  1  0  0  0
 76146  1  0  0  0
 76147  1  0  0  0
 76148  1  0  0  0
 77 79  1  0  0  0
 77149  1  0  0  0
 77150  1  0  0  0
 77151  1  0  0  0
 78152  1  0  0  0
 78153  1  0  0  0
 78 82  1  0  0  0
 79 82  1  0  0  0
 79154  1  0  0  0
 79155  1  0  0  0
 80 81  1  0  0  0
 80 82  1  0  0  0
 80156  1  0  0  0
 80157  1  0  0  0
 81158  1  0  0  0
 81159  1  0  0  0
 82160  1  0  0  0
 84161  1  0  0  0
M  ISO  4   1 100  68 101  81 101  84 100
M  END
> <chiral flag>
0

> <version>
0

> <s_m_source_file>
/data/baiqing/PycharmProjects/Reinvent-master-3.2/result/LINK_invent/BTK/process_docking_weight1_custom_sum_contain_oxygen_bond_distance_aromatic_linkinvent_7_9_3/rearranged_h_0109.sdf

> <i_m_source_file_index>
22

> <r_mmod_Potential_Energy-OPLS-2005>
131.013442993164

> <r_mmod_Stretch_Energy-OPLS-2005>
115.873390197754

> <r_mmod_Bend_Energy-OPLS-2005>
184.747222900391

> <r_mmod_Torsional_Energy-OPLS-2005>
270.530181884766

> <r_mmod_Improper_Torsional_Energy-OPLS-2005>
18.5653438568115

> <r_mmod_Van_der_Waal_Energy-OPLS-2005>
141.785934448242

> <r_mmod_Electrostatic_Energy-OPLS-2005>
-475.798797607422

> <r_mmod_Solvation_Energy-OPLS-2005>
-219.365921020508

> <b_mmod_Minimization_Converged-OPLS-2005>
0

> <r_mmod_RMS_Derivative-OPLS-2005>
4.8289966583252

$$$$
22
                    3D
 Structure written by MMmdl.
167175  0  0  1  0            999 V2000
  -30.6286  -14.6007   20.4813 C   0  0  0  0  0  0
  -30.4279  -12.3695   19.4345 C   0  0  0  0  0  0
  -29.5025  -12.5078   18.2067 C   0  0  0  0  0  0
  -28.0203  -12.3531   18.6126 C   0  0  0  0  0  0
  -27.6454  -13.2095   19.8529 C   0  0  2  0  0  0
  -28.6908  -13.0615   20.9777 C   0  0  0  0  0  0
  -25.2485  -13.8016   20.5763 C   0  0  0  0  0  0
  -24.1759  -13.0309   20.9214 C   0  0  0  0  0  0
  -24.6345  -11.6806   20.8711 C   0  0  0  0  0  0
  -23.9038  -10.4212   21.0388 C   0  0  0  0  0  0
  -24.3600   -9.4151   21.9176 C   0  0  0  0  0  0
  -23.6272   -8.2192   22.0757 C   0  0  0  0  0  0
  -22.4247   -8.0239   21.3558 C   0  0  0  0  0  0
  -21.9883   -9.0204   20.4657 C   0  0  0  0  0  0
  -22.7212  -10.2061   20.3048 C   0  0  0  0  0  0
  -21.6822   -6.0712   22.5293 C   0  0  0  0  0  0
  -21.3983   -6.5624   23.8232 C   0  0  0  0  0  0
  -21.3658   -5.6779   24.9198 C   0  0  0  0  0  0
  -21.6045   -4.3049   24.7248 C   0  0  0  0  0  0
  -21.8810   -3.8134   23.4377 C   0  0  0  0  0  0
  -21.9172   -4.6939   22.3425 C   0  0  0  0  0  0
  -22.7788  -13.5158   21.1851 C   0  0  0  0  0  0
  -22.1648   -4.2140   21.1000 F   0  0  0  0  0  0
  -21.5650   -3.4531   25.7765 F   0  0  0  0  0  0
  -30.0029  -13.3916   20.4057 N   0  0  0  0  0  0
  -26.2934  -12.9245   20.3285 N   0  0  0  0  0  0
  -25.9272  -11.6403   20.5686 N   0  0  0  0  0  0
  -22.0378  -12.8199   22.0406 N   0  0  0  0  0  0
  -25.4081  -15.1699   20.4359 N   0  0  0  0  0  0
  -31.8171  -14.7366   20.1737 O   0  0  0  0  0  0
  -21.6608   -6.8845   21.4254 O   0  0  0  0  0  0
  -22.3517  -14.5473   20.6683 O   0  0  0  0  0  0
  -24.6205  -31.8654   23.2082 C   0  0  0  0  0  0
  -25.9086  -32.4809   23.8391 C   0  0  1  0  0  0
  -27.2195  -27.3827   20.0845 C   0  0  0  0  0  0
  -25.5918  -33.8603   24.2311 N   0  0  0  0  0  0
  -23.4089  -30.4910   21.5512 C   0  0  2  0  0  0
  -24.8507  -28.9539   20.1129 C   0  0  0  0  0  0
  -22.7434  -29.4649   22.4971 C   0  0  0  0  0  0
  -18.0272  -28.1365   22.8505 C   0  0  0  0  0  0
  -24.1467  -36.7270   23.2648 C   0  0  0  0  0  0
  -25.9482  -30.8085   21.3773 C   0  0  0  0  0  0
  -26.0185  -29.4425   20.7156 C   0  0  0  0  0  0
  -27.2041  -28.6596   20.7068 C   0  0  0  0  0  0
  -26.0205  -26.9118   19.5060 C   0  0  0  0  0  0
  -24.8487  -27.6876   19.5072 C   0  0  0  0  0  0
  -23.6181  -29.8296   20.1641 C   0  0  0  0  0  0
  -25.4096  -36.3081   24.0341 C   0  0  1  0  0  0
  -20.5872  -28.3655   23.1300 C   0  0  2  0  0  0
  -20.6750  -26.9376   22.5421 C   0  0  0  0  0  0
  -19.5724  -26.6360   21.5216 C   0  0  0  0  0  0
  -18.1901  -26.7912   22.1626 C   0  0  0  0  0  0
  -19.1523  -28.8824   23.2899 C   0  0  0  0  0  0
  -18.9454  -30.1437   23.8898 C   0  0  0  0  0  0
  -17.6454  -30.6573   24.0547 C   0  0  0  0  0  0
  -25.9049  -34.9463   23.5122 C   0  0  0  0  0  0
  -16.5344  -29.9071   23.6330 C   0  0  0  0  0  0
  -16.7262  -28.6484   23.0365 C   0  0  0  0  0  0
  -26.4493  -31.6627   25.0763 C   0  0  0  0  0  0
  -25.3749  -31.3776   26.1514 C   0  0  0  0  0  0
  -27.0365  -30.3053   24.6243 C   0  0  0  0  0  0
  -27.6034  -32.4400   25.7528 C   0  0  0  0  0  0
  -27.5560  -37.1785   24.8467 C   0  0  0  0  0  0
  -21.4159  -29.3022   22.3707 N   0  0  0  0  0  0
  -26.4268  -37.3776   23.9421 N   0  0  0  0  0  0
  -24.6771  -31.0715   22.1011 N   0  0  0  0  0  0
  -23.4190  -28.8175   23.3011 O   0  0  0  0  0  0
  -28.3496  -26.5715   20.0803 O   0  0  0  0  0  0
  -26.5596  -34.8918   22.4676 O   0  0  0  0  0  0
  -23.5385  -32.1438   23.7443 O   0  0  0  0  0  0
  -30.1953  -22.8622   17.1954 C   0  0  0  0  0  0
  -29.9307  -21.8149   18.0903 C   0  0  0  0  0  0
  -29.8111  -24.1743   17.5077 C   0  0  0  0  0  0
  -28.8675  -23.4075   19.6183 C   0  0  0  0  0  0
  -29.2757  -22.0566   19.3220 C   0  0  0  0  0  0
  -29.1396  -24.4821   18.7094 C   0  0  0  0  0  0
  -27.3347  -18.9251   18.3368 C   0  0  0  0  0  0
  -29.1759  -17.3475   17.6981 C   0  0  0  0  0  0
  -28.9715  -20.8520   20.2657 C   0  0  0  0  0  0
  -28.6862  -25.9653   18.8121 C   0  0  0  0  0  0
  -30.2387  -17.1344   20.5506 C   0  0  0  0  0  0
  -29.1464  -18.2339   20.1460 C   0  0  2  0  0  0
  -28.3112  -17.8552   18.8611 C   0  0  0  0  0  0
  -27.4004  -16.7985   19.2214 N   0  0  0  0  0  0
  -29.8360  -15.6933   20.6744 N   0  0  0  0  0  0
  -29.7689  -19.5989   19.9914 N   0  3  0  0  0  0
  -31.4719  -12.4883   19.1358 H   0  0  0  0  0  0
  -30.3522  -11.3733   19.8708 H   0  0  0  0  0  0
  -29.7689  -11.7707   17.4471 H   0  0  0  0  0  0
  -29.6529  -13.4842   17.7424 H   0  0  0  0  0  0
  -27.8364  -11.2998   18.8208 H   0  0  0  0  0  0
  -27.3760  -12.6097   17.7711 H   0  0  0  0  0  0
  -27.6653  -14.2432   19.5176 H   0  0  0  0  0  0
  -28.6947  -12.0426   21.3686 H   0  0  0  0  0  0
  -28.4516  -13.7066   21.8242 H   0  0  0  0  0  0
  -25.2734   -9.5647   22.4761 H   0  0  0  0  0  0
  -23.9978   -7.4587   22.7483 H   0  0  0  0  0  0
  -21.0808   -8.8718   19.8988 H   0  0  0  0  0  0
  -22.3667  -10.9598   19.6175 H   0  0  0  0  0  0
  -21.1958   -7.6119   23.9749 H   0  0  0  0  0  0
  -21.1501   -6.0499   25.9108 H   0  0  0  0  0  0
  -22.0593   -2.7593   23.2872 H   0  0  0  0  0  0
  -22.3923  -11.9882   22.4881 H   0  0  0  0  0  0
  -21.1010  -13.1307   22.2554 H   0  0  0  0  0  0
  -24.6298  -15.8132   20.5171 H   0  0  0  0  0  0
  -26.2539  -15.5949   20.0474 H   0  0  0  0  0  0
  -26.7148  -32.5486   23.1137 H   0  0  0  0  0  0
  -25.0101  -33.9755   25.0475 H   0  0  0  0  0  0
  -22.7011  -31.3102   21.4158 H   0  0  0  0  0  0
  -23.3748  -35.9583   23.3320 H   0  0  0  0  0  0
  -24.3548  -36.8884   22.2059 H   0  0  0  0  0  0
  -23.7196  -37.6465   23.6667 H   0  0  0  0  0  0
  -26.0931  -31.5802   20.6186 H   0  0  0  0  0  0
  -26.8245  -30.8405   22.0146 H   0  0  0  0  0  0
  -28.1037  -29.0300   21.1784 H   0  0  0  0  0  0
  -25.9716  -25.9249   19.0676 H   0  0  0  0  0  0
  -23.9471  -27.2970   19.0554 H   0  0  0  0  0  0
  -23.7250  -30.6090   19.4087 H   0  0  0  0  0  0
  -22.7404  -29.2546   19.8679 H   0  0  0  0  0  0
  -25.1271  -36.1931   25.0832 H   0  0  0  0  0  0
  -20.9975  -28.3211   24.1415 H   0  0  0  0  0  0
  -20.5624  -26.2253   23.3613 H   0  0  0  0  0  0
  -21.6619  -26.7388   22.1219 H   0  0  0  0  0  0
  -19.6866  -25.6270   21.1236 H   0  0  0  0  0  0
  -19.6658  -27.3174   20.6747 H   0  0  0  0  0  0
  -17.4173  -26.6679   21.4025 H   0  0  0  0  0  0
  -18.0283  -26.0053   22.9018 H   0  0  0  0  0  0
  -19.7933  -30.7243   24.2269 H   0  0  0  0  0  0
  -17.5015  -31.6263   24.5125 H   0  0  0  0  0  0
  -15.5344  -30.2965   23.7656 H   0  0  0  0  0  0
  -15.8665  -28.0793   22.7100 H   0  0  0  0  0  0
  -24.5859  -30.7205   25.7852 H   0  0  0  0  0  0
  -24.9037  -32.2971   26.5001 H   0  0  0  0  0  0
  -25.8082  -30.8895   27.0256 H   0  0  0  0  0  0
  -26.2968  -29.6790   24.1257 H   0  0  0  0  0  0
  -27.4052  -29.7324   25.4764 H   0  0  0  0  0  0
  -27.8829  -30.4349   23.9495 H   0  0  0  0  0  0
  -27.2603  -33.3686   26.2099 H   0  0  0  0  0  0
  -28.3826  -32.7008   25.0358 H   0  0  0  0  0  0
  -28.0735  -31.8576   26.5460 H   0  0  0  0  0  0
  -28.2588  -38.0075   24.7513 H   0  0  0  0  0  0
  -28.1044  -36.2607   24.6284 H   0  0  0  0  0  0
  -27.2290  -37.1432   25.8876 H   0  0  0  0  0  0
  -20.9299  -29.8776   21.6975 H   0  0  0  0  0  0
  -26.0153  -38.2850   24.1437 H   0  0  0  0  0  0
  -30.6815  -22.6639   16.2491 H   0  0  0  0  0  0
  -30.2360  -20.8237   17.7865 H   0  0  0  0  0  0
  -30.0137  -24.9525   16.7870 H   0  0  0  0  0  0
  -28.3245  -23.6184   20.5285 H   0  0  0  0  0  0
  -27.8389  -19.8220   17.9808 H   0  0  0  0  0  0
  -26.5969  -19.2245   19.0850 H   0  0  0  0  0  0
  -26.7717  -18.5567   17.4760 H   0  0  0  0  0  0
  -29.8779  -18.1126   17.3712 H   0  0  0  0  0  0
  -28.5667  -17.0816   16.8329 H   0  0  0  0  0  0
  -29.7547  -16.4635   17.9620 H   0  0  0  0  0  0
  -27.9014  -20.6628   20.2297 H   0  0  0  0  0  0
  -29.1638  -21.1590   21.2934 H   0  0  0  0  0  0
  -27.9200  -26.1092   18.0519 H   0  0  0  0  0  0
  -29.5172  -26.5710   18.4503 H   0  0  0  0  0  0
  -30.6654  -17.4103   21.5152 H   0  0  0  0  0  0
  -31.0661  -17.1929   19.8427 H   0  0  0  0  0  0
  -28.4655  -18.3148   20.9963 H   0  0  0  0  0  0
  -26.8982  -16.5621   18.3728 H   0  0  0  0  0  0
  -26.6984  -17.2483   19.8002 H   0  0  0  0  0  0
  -28.8406  -15.5223   20.7477 H   0  0  0  0  0  0
  -30.5647  -19.6364   20.6032 H   0  0  0  0  0  0
  -30.1201  -19.6645   19.0522 H   0  0  0  0  0  0
  1 25  1  0  0  0
  1 30  2  0  0  0
  1 85  1  0  0  0
  2  3  1  0  0  0
  2 25  1  0  0  0
  2 87  1  0  0  0
  2 88  1  0  0  0
  3  4  1  0  0  0
  3 89  1  0  0  0
  3 90  1  0  0  0
  4  5  1  0  0  0
  4 91  1  0  0  0
  4 92  1  0  0  0
  5  6  1  0  0  0
  5 26  1  0  0  0
  5 93  1  0  0  0
  6 25  1  0  0  0
  6 94  1  0  0  0
  6 95  1  0  0  0
  7  8  2  0  0  0
  7 26  1  0  0  0
  7 29  1  0  0  0
  8  9  1  0  0  0
  8 22  1  0  0  0
  9 10  1  0  0  0
  9 27  2  0  0  0
 10 11  2  0  0  0
 10 15  1  0  0  0
 11 12  1  0  0  0
 11 96  1  0  0  0
 12 13  2  0  0  0
 12 97  1  0  0  0
 13 14  1  0  0  0
 13 31  1  0  0  0
 14 15  2  0  0  0
 14 98  1  0  0  0
 15 99  1  0  0  0
 16 17  2  0  0  0
 16 21  1  0  0  0
 16 31  1  0  0  0
 17 18  1  0  0  0
 17100  1  0  0  0
 18 19  2  0  0  0
 18101  1  0  0  0
 19 20  1  0  0  0
 19 24  1  0  0  0
 20 21  2  0  0  0
 20102  1  0  0  0
 21 23  1  0  0  0
 22 28  1  0  0  0
 22 32  2  0  0  0
 26 27  1  0  0  0
 28103  1  0  0  0
 28104  1  0  0  0
 29105  1  0  0  0
 29106  1  0  0  0
 33 34  1  0  0  0
 33 66  1  0  0  0
 33 70  2  0  0  0
 34 36  1  0  0  0
 34 59  1  0  0  0
 34107  1  0  0  0
 35 44  2  0  0  0
 35 45  1  0  0  0
 35 68  1  0  0  0
 36 56  1  0  0  0
 36108  1  0  0  0
 37 39  1  0  0  0
 37 47  1  0  0  0
 37 66  1  0  0  0
 37109  1  0  0  0
 38 43  2  0  0  0
 38 46  1  0  0  0
 38 47  1  0  0  0
 39 64  1  0  0  0
 39 67  2  0  0  0
 40 52  1  0  0  0
 40 53  2  0  0  0
 40 58  1  0  0  0
 41110  1  0  0  0
 41111  1  0  0  0
 41112  1  0  0  0
 41 48  1  0  0  0
 42 43  1  0  0  0
 42 66  1  0  0  0
 42113  1  0  0  0
 42114  1  0  0  0
 43 44  1  0  0  0
 44115  1  0  0  0
 45 46  2  0  0  0
 45116  1  0  0  0
 46117  1  0  0  0
 47118  1  0  0  0
 47119  1  0  0  0
 48 56  1  0  0  0
 48 65  1  0  0  0
 48120  1  0  0  0
 49 50  1  0  0  0
 49 53  1  0  0  0
 49 64  1  0  0  0
 49121  1  0  0  0
 50 51  1  0  0  0
 50122  1  0  0  0
 50123  1  0  0  0
 51 52  1  0  0  0
 51124  1  0  0  0
 51125  1  0  0  0
 52126  1  0  0  0
 52127  1  0  0  0
 53 54  1  0  0  0
 54 55  2  0  0  0
 54128  1  0  0  0
 55 57  1  0  0  0
 55129  1  0  0  0
 56 69  2  0  0  0
 57 58  2  0  0  0
 57130  1  0  0  0
 58131  1  0  0  0
 59 60  1  0  0  0
 59 61  1  0  0  0
 59 62  1  0  0  0
 60132  1  0  0  0
 60133  1  0  0  0
 60134  1  0  0  0
 61135  1  0  0  0
 61136  1  0  0  0
 61137  1  0  0  0
 62138  1  0  0  0
 62139  1  0  0  0
 62140  1  0  0  0
 63 65  1  0  0  0
 63141  1  0  0  0
 63142  1  0  0  0
 63143  1  0  0  0
 64144  1  0  0  0
 65145  1  0  0  0
 68 80  1  0  0  0
 71 72  2  0  0  0
 71 73  1  0  0  0
 71146  1  0  0  0
 72 75  1  0  0  0
 72147  1  0  0  0
 73 76  2  0  0  0
 73148  1  0  0  0
 74 75  2  0  0  0
 74 76  1  0  0  0
 74149  1  0  0  0
 75 79  1  0  0  0
 76 80  1  0  0  0
 77150  1  0  0  0
 77151  1  0  0  0
 77152  1  0  0  0
 77 83  1  0  0  0
 78 83  1  0  0  0
 78153  1  0  0  0
 78154  1  0  0  0
 78155  1  0  0  0
 79 86  1  0  0  0
 79156  1  0  0  0
 79157  1  0  0  0
 80158  1  0  0  0
 80159  1  0  0  0
 81 85  1  0  0  0
 81160  1  0  0  0
 81161  1  0  0  0
 81 82  1  0  0  0
 82 83  1  0  0  0
 82 86  1  0  0  0
 82162  1  0  0  0
 83 84  1  0  0  0
 84163  1  0  0  0
 84164  1  0  0  0
 85165  1  0  0  0
 86166  1  0  0  0
 86167  1  0  0  0
M  CHG  1  86   1
M  ISO  4   1 100  68 101  80 101  85 100
M  END
> <chiral flag>
0

> <version>
0

> <s_m_source_file>
/data/baiqing/PycharmProjects/Reinvent-master-3.2/result/LINK_invent/BTK/process_docking_weight1_custom_sum_contain_oxygen_bond_distance_aromatic_linkinvent_7_9_3/rearranged_h_0109.sdf

> <i_m_source_file_index>
23

> <r_mmod_Potential_Energy-OPLS-2005>
-257.566528320312

> <r_mmod_Stretch_Energy-OPLS-2005>
65.3598403930664

> <r_mmod_Bend_Energy-OPLS-2005>
141.54899597168

> <r_mmod_Torsional_Energy-OPLS-2005>
269.085388183594

> <r_mmod_Improper_Torsional_Energy-OPLS-2005>
6.48009777069092

> <r_mmod_Van_der_Waal_Energy-OPLS-2005>
158.687210083008

> <r_mmod_Electrostatic_Energy-OPLS-2005>
-447.991729736328

> <r_mmod_Solvation_Energy-OPLS-2005>
-485.570159912109

> <b_mmod_Minimization_Converged-OPLS-2005>
0

> <r_mmod_RMS_Derivative-OPLS-2005>
3.70401430130005

$$$$
23
                    3D
 Structure written by MMmdl.
166174  0  0  1  0            999 V2000
  -30.7875  -14.3448   20.6988 C   0  0  0  0  0  0
  -30.4123  -12.2920   19.3822 C   0  0  0  0  0  0
  -29.4773  -12.5151   18.1814 C   0  0  0  0  0  0
  -28.0037  -12.3757   18.6067 C   0  0  0  0  0  0
  -27.6632  -13.2047   19.8725 C   0  0  2  0  0  0
  -28.7021  -12.9521   20.9851 C   0  0  0  0  0  0
  -25.2593  -13.8174   20.5691 C   0  0  0  0  0  0
  -24.1845  -13.0443   20.9192 C   0  0  0  0  0  0
  -24.6390  -11.6909   20.8727 C   0  0  0  0  0  0
  -23.9051  -10.4293   21.0401 C   0  0  0  0  0  0
  -24.3600   -9.4209   21.9182 C   0  0  0  0  0  0
  -23.6278   -8.2244   22.0753 C   0  0  0  0  0  0
  -22.4263   -8.0284   21.3536 C   0  0  0  0  0  0
  -21.9900   -9.0256   20.4638 C   0  0  0  0  0  0
  -22.7226  -10.2134   20.3053 C   0  0  0  0  0  0
  -21.6852   -6.0735   22.5280 C   0  0  0  0  0  0
  -21.4008   -6.5634   23.8213 C   0  0  0  0  0  0
  -21.3656   -5.6783   24.9174 C   0  0  0  0  0  0
  -21.6051   -4.3057   24.7227 C   0  0  0  0  0  0
  -21.8817   -3.8143   23.4348 C   0  0  0  0  0  0
  -21.9189   -4.6955   22.3405 C   0  0  0  0  0  0
  -22.7869  -13.5234   21.1861 C   0  0  0  0  0  0
  -22.1661   -4.2150   21.0986 F   0  0  0  0  0  0
  -21.5625   -3.4541   25.7737 F   0  0  0  0  0  0
  -30.0430  -13.2385   20.4442 N   0  0  0  0  0  0
  -26.3026  -12.9332   20.3357 N   0  0  0  0  0  0
  -25.9310  -11.6485   20.5752 N   0  0  0  0  0  0
  -22.0480  -12.8231   22.0396 N   0  0  0  0  0  0
  -25.4345  -15.1886   20.4113 N   0  0  0  0  0  0
  -31.7941  -14.6529   20.0570 O   0  0  0  0  0  0
  -21.6633   -6.8876   21.4241 O   0  0  0  0  0  0
  -22.3558  -14.5547   20.6714 O   0  0  0  0  0  0
  -24.6116  -31.8698   23.2144 C   0  0  0  0  0  0
  -25.9026  -32.4833   23.8413 C   0  0  1  0  0  0
  -27.2429  -27.4643   20.0706 C   0  0  0  0  0  0
  -25.5928  -33.8637   24.2339 N   0  0  0  0  0  0
  -23.3963  -30.4913   21.5598 C   0  0  2  0  0  0
  -24.8369  -28.9574   20.1241 C   0  0  0  0  0  0
  -22.7371  -29.4630   22.5061 C   0  0  0  0  0  0
  -18.0233  -28.1353   22.8473 C   0  0  0  0  0  0
  -24.1489  -36.7307   23.2629 C   0  0  0  0  0  0
  -25.9243  -30.8348   21.3690 C   0  0  0  0  0  0
  -25.9976  -29.4739   20.7127 C   0  0  0  0  0  0
  -27.1979  -28.7328   20.6877 C   0  0  0  0  0  0
  -26.0535  -26.9471   19.5032 C   0  0  0  0  0  0
  -24.8571  -27.6861   19.5287 C   0  0  0  0  0  0
  -23.5998  -29.8246   20.1737 C   0  0  0  0  0  0
  -25.4121  -36.3128   24.0328 C   0  0  1  0  0  0
  -20.5835  -28.3604   23.1337 C   0  0  2  0  0  0
  -20.6753  -26.9362   22.5405 C   0  0  0  0  0  0
  -19.5741  -26.6373   21.5182 C   0  0  0  0  0  0
  -18.1895  -26.7906   22.1591 C   0  0  0  0  0  0
  -19.1494  -28.8796   23.2889 C   0  0  0  0  0  0
  -18.9432  -30.1424   23.8869 C   0  0  0  0  0  0
  -17.6448  -30.6578   24.0529 C   0  0  0  0  0  0
  -25.9052  -34.9487   23.5145 C   0  0  0  0  0  0
  -16.5328  -29.9076   23.6350 C   0  0  0  0  0  0
  -16.7224  -28.6490   23.0347 C   0  0  0  0  0  0
  -26.4446  -31.6629   25.0754 C   0  0  0  0  0  0
  -25.3719  -31.3723   26.1504 C   0  0  0  0  0  0
  -27.0281  -30.3085   24.6131 C   0  0  0  0  0  0
  -27.6017  -32.4352   25.7513 C   0  0  0  0  0  0
  -27.5582  -37.1804   24.8455 C   0  0  0  0  0  0
  -21.4109  -29.2983   22.3780 N   0  0  0  0  0  0
  -26.4309  -37.3811   23.9396 N   0  0  0  0  0  0
  -24.6615  -31.0804   22.1055 N   0  0  0  0  0  0
  -23.4150  -28.8131   23.3062 O   0  0  0  0  0  0
  -28.4591  -26.8131   20.0340 O   0  0  0  0  0  0
  -26.5588  -34.8940   22.4676 O   0  0  0  0  0  0
  -23.5326  -32.1447   23.7582 O   0  0  0  0  0  0
  -28.6584  -19.4561   23.1356 C   0  0  0  0  0  0
  -29.6012  -18.9145   21.1841 C   0  0  0  0  0  0
  -28.6358  -19.7140   21.7359 C   0  0  0  0  0  0
  -29.6775  -18.5867   23.4053 C   0  0  0  0  0  0
  -30.1710  -18.1133   24.7342 C   0  0  0  0  0  0
  -26.0981  -23.2671   20.6673 C   0  0  0  0  0  0
  -27.7508  -20.7085   21.0198 C   0  0  0  0  0  0
  -28.3099  -24.5228   20.8172 C   0  0  0  0  0  0
  -31.4135  -17.3559   21.9682 C   0  0  0  0  0  0
  -31.3117  -15.9237   22.5368 C   0  0  0  0  0  0
  -28.5313  -25.4543   19.6090 C   0  0  0  0  0  0
  -27.6300  -23.1682   20.4837 C   0  0  1  0  0  0
  -30.2497  -18.2150   22.1908 N   0  0  0  0  0  0
  -30.4310  -15.0230   21.7949 N   0  0  0  0  0  0
  -28.2078  -22.0822   21.3163 N   0  3  0  0  0  0
  -31.4553  -12.3933   19.0751 H   0  0  0  0  0  0
  -30.3153  -11.2712   19.7560 H   0  0  0  0  0  0
  -29.7051  -11.7925   17.3961 H   0  0  0  0  0  0
  -29.6530  -13.5025   17.7496 H   0  0  0  0  0  0
  -27.8148  -11.3197   18.7991 H   0  0  0  0  0  0
  -27.3475  -12.6597   17.7828 H   0  0  0  0  0  0
  -27.7206  -14.2583   19.5957 H   0  0  0  0  0  0
  -28.6662  -11.9094   21.3046 H   0  0  0  0  0  0
  -28.4509  -13.5363   21.8703 H   0  0  0  0  0  0
  -25.2740   -9.5691   22.4763 H   0  0  0  0  0  0
  -23.9986   -7.4636   22.7478 H   0  0  0  0  0  0
  -21.0831   -8.8771   19.8944 H   0  0  0  0  0  0
  -22.3684  -10.9670   19.6168 H   0  0  0  0  0  0
  -21.2000   -7.6143   23.9719 H   0  0  0  0  0  0
  -21.1481   -6.0518   25.9081 H   0  0  0  0  0  0
  -22.0599   -2.7608   23.2852 H   0  0  0  0  0  0
  -22.4054  -11.9881   22.4789 H   0  0  0  0  0  0
  -21.1100  -13.1275   22.2580 H   0  0  0  0  0  0
  -24.6772  -15.8529   20.5349 H   0  0  0  0  0  0
  -26.2980  -15.6221   20.1068 H   0  0  0  0  0  0
  -26.7098  -32.5516   23.1164 H   0  0  0  0  0  0
  -25.0117  -33.9788   25.0510 H   0  0  0  0  0  0
  -22.6812  -31.3037   21.4251 H   0  0  0  0  0  0
  -23.3780  -35.9614   23.3316 H   0  0  0  0  0  0
  -24.3581  -36.8906   22.2036 H   0  0  0  0  0  0
  -23.7222  -37.6506   23.6632 H   0  0  0  0  0  0
  -26.0526  -31.6079   20.6091 H   0  0  0  0  0  0
  -26.8056  -30.8717   21.9987 H   0  0  0  0  0  0
  -28.0978  -29.1383   21.1307 H   0  0  0  0  0  0
  -26.0153  -25.9866   19.0174 H   0  0  0  0  0  0
  -23.9648  -27.2715   19.0778 H   0  0  0  0  0  0
  -23.6974  -30.6003   19.4116 H   0  0  0  0  0  0
  -22.7219  -29.2408   19.8874 H   0  0  0  0  0  0
  -25.1298  -36.1991   25.0821 H   0  0  0  0  0  0
  -20.9875  -28.3170   24.1491 H   0  0  0  0  0  0
  -20.5680  -26.2177   23.3562 H   0  0  0  0  0  0
  -21.6615  -26.7439   22.1156 H   0  0  0  0  0  0
  -19.6910  -25.6280   21.1199 H   0  0  0  0  0  0
  -19.6745  -27.3204   20.6725 H   0  0  0  0  0  0
  -17.4178  -26.6633   21.3989 H   0  0  0  0  0  0
  -18.0293  -26.0057   22.8980 H   0  0  0  0  0  0
  -19.7925  -30.7212   24.2250 H   0  0  0  0  0  0
  -17.5022  -31.6273   24.5095 H   0  0  0  0  0  0
  -15.5338  -30.2945   23.7753 H   0  0  0  0  0  0
  -15.8601  -28.0823   22.7087 H   0  0  0  0  0  0
  -24.5912  -30.7024   25.7866 H   0  0  0  0  0  0
  -24.8841  -32.2851   26.4949 H   0  0  0  0  0  0
  -25.8083  -30.8923   27.0268 H   0  0  0  0  0  0
  -26.2833  -29.6866   24.1131 H   0  0  0  0  0  0
  -27.3992  -29.7314   25.4600 H   0  0  0  0  0  0
  -27.8703  -30.4430   23.9341 H   0  0  0  0  0  0
  -27.2652  -33.3672   26.2081 H   0  0  0  0  0  0
  -28.3834  -32.6882   25.0335 H   0  0  0  0  0  0
  -28.0667  -31.8463   26.5432 H   0  0  0  0  0  0
  -28.2592  -38.0100   24.7545 H   0  0  0  0  0  0
  -28.1091  -36.2639   24.6268 H   0  0  0  0  0  0
  -27.2275  -37.1424   25.8845 H   0  0  0  0  0  0
  -20.9254  -29.8732   21.7034 H   0  0  0  0  0  0
  -26.0211  -38.2879   24.1457 H   0  0  0  0  0  0
  -28.0273  -19.9141   23.8868 H   0  0  0  0  0  0
  -29.9127  -18.8110   20.1514 H   0  0  0  0  0  0
  -29.8943  -18.8196   25.5177 H   0  0  0  0  0  0
  -31.2585  -18.0268   24.7519 H   0  0  0  0  0  0
  -29.7364  -17.1468   24.9930 H   0  0  0  0  0  0
  -25.6817  -24.0989   20.1009 H   0  0  0  0  0  0
  -25.8335  -23.4328   21.7122 H   0  0  0  0  0  0
  -25.5780  -22.3702   20.3302 H   0  0  0  0  0  0
  -26.7179  -20.5694   21.3405 H   0  0  0  0  0  0
  -27.7883  -20.5166   19.9473 H   0  0  0  0  0  0
  -27.7304  -25.0435   21.5812 H   0  0  0  0  0  0
  -29.2931  -24.3678   21.2683 H   0  0  0  0  0  0
  -31.6295  -17.3220   20.8991 H   0  0  0  0  0  0
  -32.2681  -17.8540   22.4267 H   0  0  0  0  0  0
  -31.0045  -15.9186   23.5781 H   0  0  0  0  0  0
  -32.3134  -15.4921   22.5475 H   0  0  0  0  0  0
  -27.8938  -25.2219   18.7581 H   0  0  0  0  0  0
  -29.5418  -25.2918   19.2342 H   0  0  0  0  0  0
  -27.8453  -22.9242   19.4415 H   0  0  0  0  0  0
  -29.5842  -14.7248   22.2534 H   0  0  0  0  0  0
  -29.2050  -22.0786   21.1773 H   0  0  0  0  0  0
  -28.0459  -22.2692   22.2920 H   0  0  0  0  0  0
  1 25  1  0  0  0
  1 30  2  0  0  0
  1 84  1  0  0  0
  2  3  1  0  0  0
  2 25  1  0  0  0
  2 86  1  0  0  0
  2 87  1  0  0  0
  3  4  1  0  0  0
  3 88  1  0  0  0
  3 89  1  0  0  0
  4  5  1  0  0  0
  4 90  1  0  0  0
  4 91  1  0  0  0
  5  6  1  0  0  0
  5 26  1  0  0  0
  5 92  1  0  0  0
  6 25  1  0  0  0
  6 93  1  0  0  0
  6 94  1  0  0  0
  7  8  2  0  0  0
  7 26  1  0  0  0
  7 29  1  0  0  0
  8  9  1  0  0  0
  8 22  1  0  0  0
  9 10  1  0  0  0
  9 27  2  0  0  0
 10 11  2  0  0  0
 10 15  1  0  0  0
 11 12  1  0  0  0
 11 95  1  0  0  0
 12 13  2  0  0  0
 12 96  1  0  0  0
 13 14  1  0  0  0
 13 31  1  0  0  0
 14 15  2  0  0  0
 14 97  1  0  0  0
 15 98  1  0  0  0
 16 17  2  0  0  0
 16 21  1  0  0  0
 16 31  1  0  0  0
 17 18  1  0  0  0
 17 99  1  0  0  0
 18 19  2  0  0  0
 18100  1  0  0  0
 19 20  1  0  0  0
 19 24  1  0  0  0
 20 21  2  0  0  0
 20101  1  0  0  0
 21 23  1  0  0  0
 22 28  1  0  0  0
 22 32  2  0  0  0
 26 27  1  0  0  0
 28102  1  0  0  0
 28103  1  0  0  0
 29104  1  0  0  0
 29105  1  0  0  0
 33 34  1  0  0  0
 33 66  1  0  0  0
 33 70  2  0  0  0
 34 36  1  0  0  0
 34 59  1  0  0  0
 34106  1  0  0  0
 35 44  2  0  0  0
 35 45  1  0  0  0
 35 68  1  0  0  0
 36 56  1  0  0  0
 36107  1  0  0  0
 37 39  1  0  0  0
 37 47  1  0  0  0
 37 66  1  0  0  0
 37108  1  0  0  0
 38 43  2  0  0  0
 38 46  1  0  0  0
 38 47  1  0  0  0
 39 64  1  0  0  0
 39 67  2  0  0  0
 40 52  1  0  0  0
 40 53  2  0  0  0
 40 58  1  0  0  0
 41109  1  0  0  0
 41110  1  0  0  0
 41111  1  0  0  0
 41 48  1  0  0  0
 42 43  1  0  0  0
 42 66  1  0  0  0
 42112  1  0  0  0
 42113  1  0  0  0
 43 44  1  0  0  0
 44114  1  0  0  0
 45 46  2  0  0  0
 45115  1  0  0  0
 46116  1  0  0  0
 47117  1  0  0  0
 47118  1  0  0  0
 48 56  1  0  0  0
 48 65  1  0  0  0
 48119  1  0  0  0
 49 50  1  0  0  0
 49 53  1  0  0  0
 49 64  1  0  0  0
 49120  1  0  0  0
 50 51  1  0  0  0
 50121  1  0  0  0
 50122  1  0  0  0
 51 52  1  0  0  0
 51123  1  0  0  0
 51124  1  0  0  0
 52125  1  0  0  0
 52126  1  0  0  0
 53 54  1  0  0  0
 54 55  2  0  0  0
 54127  1  0  0  0
 55 57  1  0  0  0
 55128  1  0  0  0
 56 69  2  0  0  0
 57 58  2  0  0  0
 57129  1  0  0  0
 58130  1  0  0  0
 59 60  1  0  0  0
 59 61  1  0  0  0
 59 62  1  0  0  0
 60131  1  0  0  0
 60132  1  0  0  0
 60133  1  0  0  0
 61134  1  0  0  0
 61135  1  0  0  0
 61136  1  0  0  0
 62137  1  0  0  0
 62138  1  0  0  0
 62139  1  0  0  0
 63 65  1  0  0  0
 63140  1  0  0  0
 63141  1  0  0  0
 63142  1  0  0  0
 64143  1  0  0  0
 65144  1  0  0  0
 68 81  1  0  0  0
 71 73  1  0  0  0
 71 74  2  0  0  0
 71145  1  0  0  0
 72 73  2  0  0  0
 72 83  1  0  0  0
 72146  1  0  0  0
 73 77  1  0  0  0
 74 75  1  0  0  0
 74 83  1  0  0  0
 75147  1  0  0  0
 75148  1  0  0  0
 75149  1  0  0  0
 76150  1  0  0  0
 76151  1  0  0  0
 76152  1  0  0  0
 76 82  1  0  0  0
 77 85  1  0  0  0
 77153  1  0  0  0
 77154  1  0  0  0
 78 81  1  0  0  0
 78 82  1  0  0  0
 78155  1  0  0  0
 78156  1  0  0  0
 79 80  1  0  0  0
 79 83  1  0  0  0
 79157  1  0  0  0
 79158  1  0  0  0
 80 84  1  0  0  0
 80159  1  0  0  0
 80160  1  0  0  0
 81161  1  0  0  0
 81162  1  0  0  0
 82 85  1  0  0  0
 82163  1  0  0  0
 84164  1  0  0  0
 85165  1  0  0  0
 85166  1  0  0  0
M  CHG  1  85   1
M  ISO  4   1 100  68 101  81 101  84 100
M  END
> <chiral flag>
0

> <version>
0

> <s_m_source_file>
/data/baiqing/PycharmProjects/Reinvent-master-3.2/result/LINK_invent/BTK/process_docking_weight1_custom_sum_contain_oxygen_bond_distance_aromatic_linkinvent_7_9_3/rearranged_h_0109.sdf

> <i_m_source_file_index>
24

> <r_mmod_Potential_Energy-OPLS-2005>
-285.946197509766

> <r_mmod_Stretch_Energy-OPLS-2005>
31.9477100372314

> <r_mmod_Bend_Energy-OPLS-2005>
106.052505493164

> <r_mmod_Torsional_Energy-OPLS-2005>
214.340286254883

> <r_mmod_Improper_Torsional_Energy-OPLS-2005>
3.72111105918884

> <r_mmod_Van_der_Waal_Energy-OPLS-2005>
133.342102050781

> <r_mmod_Electrostatic_Energy-OPLS-2005>
-340.329284667969

> <r_mmod_Solvation_Energy-OPLS-2005>
-443.270202636719

> <b_mmod_Minimization_Converged-OPLS-2005>
0

> <r_mmod_RMS_Derivative-OPLS-2005>
3.64055514335632

$$$$
24
                    3D
 Structure written by MMmdl.
161169  0  0  1  0            999 V2000
  -30.5775  -14.8552   20.4336 C   0  0  0  0  0  0
  -30.4348  -12.5227   19.4850 C   0  0  0  0  0  0
  -29.5140  -12.5193   18.2431 C   0  0  0  0  0  0
  -28.0416  -12.3336   18.6573 C   0  0  0  0  0  0
  -27.6383  -13.2410   19.8498 C   0  0  2  0  0  0
  -28.6853  -13.2158   20.9857 C   0  0  0  0  0  0
  -25.2502  -13.8204   20.5707 C   0  0  0  0  0  0
  -24.1802  -13.0434   20.9218 C   0  0  0  0  0  0
  -24.6408  -11.6926   20.8754 C   0  0  0  0  0  0
  -23.9088  -10.4297   21.0413 C   0  0  0  0  0  0
  -24.3636   -9.4210   21.9191 C   0  0  0  0  0  0
  -23.6307   -8.2245   22.0759 C   0  0  0  0  0  0
  -22.4289   -8.0287   21.3548 C   0  0  0  0  0  0
  -21.9929   -9.0260   20.4644 C   0  0  0  0  0  0
  -22.7260  -10.2140   20.3055 C   0  0  0  0  0  0
  -21.6857   -6.0741   22.5283 C   0  0  0  0  0  0
  -21.4010   -6.5643   23.8212 C   0  0  0  0  0  0
  -21.3651   -5.6798   24.9172 C   0  0  0  0  0  0
  -21.6043   -4.3064   24.7226 C   0  0  0  0  0  0
  -21.8818   -3.8155   23.4350 C   0  0  0  0  0  0
  -21.9196   -4.6969   22.3409 C   0  0  0  0  0  0
  -22.7826  -13.5218   21.1876 C   0  0  0  0  0  0
  -22.1667   -4.2154   21.0988 F   0  0  0  0  0  0
  -21.5627   -3.4550   25.7738 F   0  0  0  0  0  0
  -29.9721  -13.6064   20.3943 N   0  0  0  0  0  0
  -26.2934  -12.9425   20.3295 N   0  0  0  0  0  0
  -25.9344  -11.6562   20.5755 N   0  0  0  0  0  0
  -22.0477  -12.8188   22.0420 N   0  0  0  0  0  0
  -25.4168  -15.1921   20.4119 N   0  0  0  0  0  0
  -31.7658  -14.9392   20.1132 O   0  0  0  0  0  0
  -21.6648   -6.8887   21.4248 O   0  0  0  0  0  0
  -22.3513  -14.5532   20.6735 O   0  0  0  0  0  0
  -24.6425  -31.8477   23.1934 C   0  0  0  0  0  0
  -25.9221  -32.4700   23.8300 C   0  0  1  0  0  0
  -27.2116  -27.1707   20.1520 C   0  0  0  0  0  0
  -25.5980  -33.8507   24.2209 N   0  0  0  0  0  0
  -23.4431  -30.4717   21.5363 C   0  0  2  0  0  0
  -24.8931  -28.9117   20.1090 C   0  0  0  0  0  0
  -22.7560  -29.4578   22.4856 C   0  0  0  0  0  0
  -18.0304  -28.1390   22.8474 C   0  0  0  0  0  0
  -24.1484  -36.7247   23.2638 C   0  0  0  0  0  0
  -25.9993  -30.7307   21.3933 C   0  0  0  0  0  0
  -26.0688  -29.3470   20.7355 C   0  0  0  0  0  0
  -27.2302  -28.4899   20.7490 C   0  0  0  0  0  0
  -26.0247  -26.8529   19.4532 C   0  0  0  0  0  0
  -24.8829  -27.6757   19.4515 C   0  0  0  0  0  0
  -23.6686  -29.8088   20.1532 C   0  0  0  0  0  0
  -25.4117  -36.3032   24.0322 C   0  0  1  0  0  0
  -20.5917  -28.3722   23.1225 C   0  0  2  0  0  0
  -20.6797  -26.9427   22.5407 C   0  0  0  0  0  0
  -19.5769  -26.6386   21.5209 C   0  0  0  0  0  0
  -18.1940  -26.7931   22.1610 C   0  0  0  0  0  0
  -19.1565  -28.8874   23.2839 C   0  0  0  0  0  0
  -18.9486  -30.1470   23.8865 C   0  0  0  0  0  0
  -17.6487  -30.6584   24.0559 C   0  0  0  0  0  0
  -25.9077  -34.9412   23.5068 C   0  0  0  0  0  0
  -16.5376  -29.9082   23.6344 C   0  0  0  0  0  0
  -16.7293  -28.6503   23.0360 C   0  0  0  0  0  0
  -26.4547  -31.6550   25.0721 C   0  0  0  0  0  0
  -25.3734  -31.3734   26.1415 C   0  0  0  0  0  0
  -27.0402  -30.2942   24.6280 C   0  0  0  0  0  0
  -27.6091  -32.4301   25.7489 C   0  0  0  0  0  0
  -27.5569  -37.1772   24.8470 C   0  0  0  0  0  0
  -21.4259  -29.3053   22.3603 N   0  0  0  0  0  0
  -26.4269  -37.3748   23.9427 N   0  0  0  0  0  0
  -24.7133  -31.0373   22.0957 N   0  0  0  0  0  0
  -23.4222  -28.8114   23.2991 O   0  0  0  0  0  0
  -28.2393  -26.1675   20.2215 O   0  0  0  0  0  0
  -26.5655  -34.8906   22.4637 O   0  0  0  0  0  0
  -23.5555  -32.1350   23.7172 O   0  0  0  0  0  0
  -28.4875  -22.4252   19.3160 C   0  0  0  0  0  0
  -29.3177  -21.3228   21.6367 C   0  0  0  0  0  0
  -28.7593  -21.0035   19.3690 C   0  0  0  0  0  0
  -29.1571  -20.3560   20.5874 C   0  0  0  0  0  0
  -28.5916  -23.3000   20.4388 C   0  0  0  0  0  0
  -30.5898  -19.7449   14.7659 C   0  0  0  0  0  0
  -28.5329  -20.2012   18.0953 C   0  0  0  0  0  0
  -29.1412  -18.7386   20.8909 C   0  0  0  0  0  0
  -27.7849  -24.7234   20.5298 C   0  0  0  0  0  0
  -29.4493  -19.5770   15.7815 C   0  0  0  0  0  0
  -30.1080  -17.5257   20.3065 C   0  0  0  0  0  0
  -29.6637  -20.3933   17.0667 C   0  0  1  0  0  0
  -29.0428  -22.6841   21.5791 N   0  0  0  0  0  0
  -29.8056  -16.0187   20.6131 N   0  0  0  0  0  0
  -29.7423  -21.6799   16.7195 F   0  0  0  0  0  0
  -31.4733  -12.6561   19.1798 H   0  0  0  0  0  0
  -30.3977  -11.5571   19.9907 H   0  0  0  0  0  0
  -29.8103  -11.7245   17.5568 H   0  0  0  0  0  0
  -29.6267  -13.4545   17.6930 H   0  0  0  0  0  0
  -27.9077  -11.2853   18.9259 H   0  0  0  0  0  0
  -27.3837  -12.5136   17.8060 H   0  0  0  0  0  0
  -27.6183  -14.2558   19.4542 H   0  0  0  0  0  0
  -28.7509  -12.2224   21.4327 H   0  0  0  0  0  0
  -28.4038  -13.8982   21.7897 H   0  0  0  0  0  0
  -25.2776   -9.5690   22.4766 H   0  0  0  0  0  0
  -24.0016   -7.4640   22.7481 H   0  0  0  0  0  0
  -21.0861   -8.8780   19.8946 H   0  0  0  0  0  0
  -22.3723  -10.9681   19.6163 H   0  0  0  0  0  0
  -21.1996   -7.6148   23.9716 H   0  0  0  0  0  0
  -21.1470   -6.0528   25.9073 H   0  0  0  0  0  0
  -22.0602   -2.7618   23.2851 H   0  0  0  0  0  0
  -22.4115  -11.9842   22.4778 H   0  0  0  0  0  0
  -21.1087  -13.1184   22.2626 H   0  0  0  0  0  0
  -24.6440  -15.8405   20.5135 H   0  0  0  0  0  0
  -26.2558  -15.6332   20.0585 H   0  0  0  0  0  0
  -26.7288  -32.5305   23.1030 H   0  0  0  0  0  0
  -25.0178  -33.9616   25.0392 H   0  0  0  0  0  0
  -22.7453  -31.2971   21.3849 H   0  0  0  0  0  0
  -23.3751  -35.9568   23.3294 H   0  0  0  0  0  0
  -24.3563  -36.8882   22.2048 H   0  0  0  0  0  0
  -23.7224  -37.6436   23.6687 H   0  0  0  0  0  0
  -26.1605  -31.4851   20.6220 H   0  0  0  0  0  0
  -26.8701  -30.7734   22.0360 H   0  0  0  0  0  0
  -28.1189  -28.8124   21.2733 H   0  0  0  0  0  0
  -25.9398  -25.9372   18.8903 H   0  0  0  0  0  0
  -23.9973  -27.3439   18.9286 H   0  0  0  0  0  0
  -23.8074  -30.5863   19.4011 H   0  0  0  0  0  0
  -22.7847  -29.2518   19.8368 H   0  0  0  0  0  0
  -25.1287  -36.1858   25.0813 H   0  0  0  0  0  0
  -21.0014  -28.3321   24.1342 H   0  0  0  0  0  0
  -20.5694  -26.2328   23.3627 H   0  0  0  0  0  0
  -21.6661  -26.7443   22.1186 H   0  0  0  0  0  0
  -19.6946  -25.6293   21.1241 H   0  0  0  0  0  0
  -19.6707  -27.3195   20.6737 H   0  0  0  0  0  0
  -17.4222  -26.6693   21.4002 H   0  0  0  0  0  0
  -18.0327  -26.0062   22.9000 H   0  0  0  0  0  0
  -19.7973  -30.7287   24.2210 H   0  0  0  0  0  0
  -17.5045  -31.6257   24.5179 H   0  0  0  0  0  0
  -15.5372  -30.2972   23.7685 H   0  0  0  0  0  0
  -15.8693  -28.0808   22.7097 H   0  0  0  0  0  0
  -24.6004  -30.6953   25.7778 H   0  0  0  0  0  0
  -24.8816  -32.2890   26.4715 H   0  0  0  0  0  0
  -25.8030  -30.9059   27.0280 H   0  0  0  0  0  0
  -26.3013  -29.6635   24.1319 H   0  0  0  0  0  0
  -27.4043  -29.7256   25.4848 H   0  0  0  0  0  0
  -27.8905  -30.4167   23.9560 H   0  0  0  0  0  0
  -27.2766  -33.3714   26.1879 H   0  0  0  0  0  0
  -28.3996  -32.6660   25.0349 H   0  0  0  0  0  0
  -28.0625  -31.8515   26.5547 H   0  0  0  0  0  0
  -28.2578  -38.0079   24.7532 H   0  0  0  0  0  0
  -28.1066  -36.2607   24.6275 H   0  0  0  0  0  0
  -27.2286  -37.1399   25.8870 H   0  0  0  0  0  0
  -20.9474  -29.8778   21.6788 H   0  0  0  0  0  0
  -26.0132  -38.2807   24.1453 H   0  0  0  0  0  0
  -28.0935  -22.8378   18.3968 H   0  0  0  0  0  0
  -29.5991  -20.9730   22.6192 H   0  0  0  0  0  0
  -30.3621  -19.2318   13.8313 H   0  0  0  0  0  0
  -31.5248  -19.3368   15.1500 H   0  0  0  0  0  0
  -30.7631  -20.7954   14.5278 H   0  0  0  0  0  0
  -27.5816  -20.5087   17.6594 H   0  0  0  0  0  0
  -28.4237  -19.1434   18.3290 H   0  0  0  0  0  0
  -28.1120  -18.4362   20.6927 H   0  0  0  0  0  0
  -29.2231  -18.6640   21.9762 H   0  0  0  0  0  0
  -27.3841  -24.7658   21.5433 H   0  0  0  0  0  0
  -26.9158  -24.4897   19.9221 H   0  0  0  0  0  0
  -29.3437  -18.5214   16.0325 H   0  0  0  0  0  0
  -28.5078  -19.8769   15.3193 H   0  0  0  0  0  0
  -31.1368  -17.7201   20.6136 H   0  0  0  0  0  0
  -30.1205  -17.6088   19.2193 H   0  0  0  0  0  0
  -30.6163  -20.1319   17.5282 H   0  0  0  0  0  0
  -28.8462  -15.8280   20.8655 H   0  0  0  0  0  0
  1 25  1  0  0  0
  1 30  2  0  0  0
  1 84  1  0  0  0
  2  3  1  0  0  0
  2 25  1  0  0  0
  2 86  1  0  0  0
  2 87  1  0  0  0
  3  4  1  0  0  0
  3 88  1  0  0  0
  3 89  1  0  0  0
  4  5  1  0  0  0
  4 90  1  0  0  0
  4 91  1  0  0  0
  5  6  1  0  0  0
  5 26  1  0  0  0
  5 92  1  0  0  0
  6 25  1  0  0  0
  6 93  1  0  0  0
  6 94  1  0  0  0
  7  8  2  0  0  0
  7 26  1  0  0  0
  7 29  1  0  0  0
  8  9  1  0  0  0
  8 22  1  0  0  0
  9 10  1  0  0  0
  9 27  2  0  0  0
 10 11  2  0  0  0
 10 15  1  0  0  0
 11 12  1  0  0  0
 11 95  1  0  0  0
 12 13  2  0  0  0
 12 96  1  0  0  0
 13 14  1  0  0  0
 13 31  1  0  0  0
 14 15  2  0  0  0
 14 97  1  0  0  0
 15 98  1  0  0  0
 16 17  2  0  0  0
 16 21  1  0  0  0
 16 31  1  0  0  0
 17 18  1  0  0  0
 17 99  1  0  0  0
 18 19  2  0  0  0
 18100  1  0  0  0
 19 20  1  0  0  0
 19 24  1  0  0  0
 20 21  2  0  0  0
 20101  1  0  0  0
 21 23  1  0  0  0
 22 28  1  0  0  0
 22 32  2  0  0  0
 26 27  1  0  0  0
 28102  1  0  0  0
 28103  1  0  0  0
 29104  1  0  0  0
 29105  1  0  0  0
 33 34  1  0  0  0
 33 66  1  0  0  0
 33 70  2  0  0  0
 34 36  1  0  0  0
 34 59  1  0  0  0
 34106  1  0  0  0
 35 44  2  0  0  0
 35 45  1  0  0  0
 35 68  1  0  0  0
 36 56  1  0  0  0
 36107  1  0  0  0
 37 39  1  0  0  0
 37 47  1  0  0  0
 37 66  1  0  0  0
 37108  1  0  0  0
 38 43  2  0  0  0
 38 46  1  0  0  0
 38 47  1  0  0  0
 39 64  1  0  0  0
 39 67  2  0  0  0
 40 52  1  0  0  0
 40 53  2  0  0  0
 40 58  1  0  0  0
 41109  1  0  0  0
 41110  1  0  0  0
 41111  1  0  0  0
 41 48  1  0  0  0
 42 43  1  0  0  0
 42 66  1  0  0  0
 42112  1  0  0  0
 42113  1  0  0  0
 43 44  1  0  0  0
 44114  1  0  0  0
 45 46  2  0  0  0
 45115  1  0  0  0
 46116  1  0  0  0
 47117  1  0  0  0
 47118  1  0  0  0
 48 56  1  0  0  0
 48 65  1  0  0  0
 48119  1  0  0  0
 49 50  1  0  0  0
 49 53  1  0  0  0
 49 64  1  0  0  0
 49120  1  0  0  0
 50 51  1  0  0  0
 50121  1  0  0  0
 50122  1  0  0  0
 51 52  1  0  0  0
 51123  1  0  0  0
 51124  1  0  0  0
 52125  1  0  0  0
 52126  1  0  0  0
 53 54  1  0  0  0
 54 55  2  0  0  0
 54127  1  0  0  0
 55 57  1  0  0  0
 55128  1  0  0  0
 56 69  2  0  0  0
 57 58  2  0  0  0
 57129  1  0  0  0
 58130  1  0  0  0
 59 60  1  0  0  0
 59 61  1  0  0  0
 59 62  1  0  0  0
 60131  1  0  0  0
 60132  1  0  0  0
 60133  1  0  0  0
 61134  1  0  0  0
 61135  1  0  0  0
 61136  1  0  0  0
 62137  1  0  0  0
 62138  1  0  0  0
 62139  1  0  0  0
 63 65  1  0  0  0
 63140  1  0  0  0
 63141  1  0  0  0
 63142  1  0  0  0
 64143  1  0  0  0
 65144  1  0  0  0
 68 79  1  0  0  0
 71 73  2  0  0  0
 71 75  1  0  0  0
 71145  1  0  0  0
 72 74  2  0  0  0
 72 83  1  0  0  0
 72146  1  0  0  0
 73 74  1  0  0  0
 73 77  1  0  0  0
 74 78  1  0  0  0
 75 79  1  0  0  0
 75 83  2  0  0  0
 76 80  1  0  0  0
 76147  1  0  0  0
 76148  1  0  0  0
 76149  1  0  0  0
 77 82  1  0  0  0
 77150  1  0  0  0
 77151  1  0  0  0
 78 81  1  0  0  0
 78152  1  0  0  0
 78153  1  0  0  0
 79154  1  0  0  0
 79155  1  0  0  0
 80 82  1  0  0  0
 80156  1  0  0  0
 80157  1  0  0  0
 81 84  1  0  0  0
 81158  1  0  0  0
 81159  1  0  0  0
 82 85  1  0  0  0
 82160  1  0  0  0
 84161  1  0  0  0
M  ISO  4   1 100  68 101  79 101  84 100
M  END
> <chiral flag>
0

> <version>
0

> <s_m_source_file>
/data/baiqing/PycharmProjects/Reinvent-master-3.2/result/LINK_invent/BTK/process_docking_weight1_custom_sum_contain_oxygen_bond_distance_aromatic_linkinvent_7_9_3/rearranged_h_0109.sdf

> <i_m_source_file_index>
25

> <r_mmod_Potential_Energy-OPLS-2005>
267.195861816406

> <r_mmod_Stretch_Energy-OPLS-2005>
194.737335205078

> <r_mmod_Bend_Energy-OPLS-2005>
237.66975402832

> <r_mmod_Torsional_Energy-OPLS-2005>
244.935623168945

> <r_mmod_Improper_Torsional_Energy-OPLS-2005>
10.9182195663452

> <r_mmod_Van_der_Waal_Energy-OPLS-2005>
138.634231567383

> <r_mmod_Electrostatic_Energy-OPLS-2005>
-477.344360351562

> <r_mmod_Solvation_Energy-OPLS-2005>
-232.882461547852

> <b_mmod_Minimization_Converged-OPLS-2005>
0

> <r_mmod_RMS_Derivative-OPLS-2005>
2.42233037948608

$$$$
25
                    3D
 Structure written by MMmdl.
161169  0  0  1  0            999 V2000
  -30.5890  -14.8643   20.4269 C   0  0  0  0  0  0
  -30.4276  -12.5329   19.4888 C   0  0  0  0  0  0
  -29.5111  -12.5132   18.2459 C   0  0  0  0  0  0
  -28.0428  -12.3153   18.6651 C   0  0  0  0  0  0
  -27.6295  -13.2438   19.8378 C   0  0  2  0  0  0
  -28.6729  -13.2533   20.9746 C   0  0  0  0  0  0
  -25.2461  -13.8215   20.5707 C   0  0  0  0  0  0
  -24.1776  -13.0443   20.9231 C   0  0  0  0  0  0
  -24.6386  -11.6926   20.8760 C   0  0  0  0  0  0
  -23.9072  -10.4295   21.0414 C   0  0  0  0  0  0
  -24.3624   -9.4209   21.9190 C   0  0  0  0  0  0
  -23.6298   -8.2244   22.0756 C   0  0  0  0  0  0
  -22.4279   -8.0283   21.3545 C   0  0  0  0  0  0
  -21.9918   -9.0256   20.4647 C   0  0  0  0  0  0
  -22.7246  -10.2136   20.3059 C   0  0  0  0  0  0
  -21.6853   -6.0740   22.5280 C   0  0  0  0  0  0
  -21.4015   -6.5644   23.8214 C   0  0  0  0  0  0
  -21.3660   -5.6795   24.9177 C   0  0  0  0  0  0
  -21.6041   -4.3058   24.7225 C   0  0  0  0  0  0
  -21.8819   -3.8151   23.4347 C   0  0  0  0  0  0
  -21.9192   -4.6968   22.3404 C   0  0  0  0  0  0
  -22.7797  -13.5215   21.1883 C   0  0  0  0  0  0
  -22.1661   -4.2156   21.0982 F   0  0  0  0  0  0
  -21.5627   -3.4541   25.7738 F   0  0  0  0  0  0
  -29.9561  -13.6316   20.3740 N   0  0  0  0  0  0
  -26.2881  -12.9439   20.3248 N   0  0  0  0  0  0
  -25.9316  -11.6572   20.5748 N   0  0  0  0  0  0
  -22.0445  -12.8199   22.0435 N   0  0  0  0  0  0
  -25.4131  -15.1943   20.4120 N   0  0  0  0  0  0
  -31.7945  -14.9015   20.1645 O   0  0  0  0  0  0
  -21.6640   -6.8883   21.4241 O   0  0  0  0  0  0
  -22.3488  -14.5523   20.6731 O   0  0  0  0  0  0
  -24.6393  -31.8472   23.1916 C   0  0  0  0  0  0
  -25.9185  -32.4708   23.8290 C   0  0  1  0  0  0
  -27.2138  -27.1787   20.1415 C   0  0  0  0  0  0
  -25.5945  -33.8514   24.2205 N   0  0  0  0  0  0
  -23.4397  -30.4686   21.5363 C   0  0  2  0  0  0
  -24.8873  -28.9020   20.1090 C   0  0  0  0  0  0
  -22.7545  -29.4561   22.4875 C   0  0  0  0  0  0
  -18.0297  -28.1390   22.8476 C   0  0  0  0  0  0
  -24.1492  -36.7269   23.2641 C   0  0  0  0  0  0
  -25.9923  -30.7344   21.3832 C   0  0  0  0  0  0
  -26.0629  -29.3499   20.7246 C   0  0  0  0  0  0
  -27.2283  -28.5034   20.7243 C   0  0  0  0  0  0
  -26.0145  -26.8220   19.4862 C   0  0  0  0  0  0
  -24.8735  -27.6508   19.4753 C   0  0  0  0  0  0
  -23.6624  -29.7996   20.1542 C   0  0  0  0  0  0
  -25.4123  -36.3040   24.0313 C   0  0  1  0  0  0
  -20.5909  -28.3710   23.1245 C   0  0  2  0  0  0
  -20.6781  -26.9416   22.5404 C   0  0  0  0  0  0
  -19.5755  -26.6381   21.5208 C   0  0  0  0  0  0
  -18.1936  -26.7930   22.1619 C   0  0  0  0  0  0
  -19.1555  -28.8868   23.2853 C   0  0  0  0  0  0
  -18.9472  -30.1468   23.8872 C   0  0  0  0  0  0
  -17.6470  -30.6584   24.0561 C   0  0  0  0  0  0
  -25.9068  -34.9412   23.5067 C   0  0  0  0  0  0
  -16.5361  -29.9081   23.6334 C   0  0  0  0  0  0
  -16.7285  -28.6504   23.0345 C   0  0  0  0  0  0
  -26.4521  -31.6565   25.0717 C   0  0  0  0  0  0
  -25.3714  -31.3739   26.1418 C   0  0  0  0  0  0
  -27.0384  -30.2966   24.6273 C   0  0  0  0  0  0
  -27.6056  -32.4331   25.7496 C   0  0  0  0  0  0
  -27.5574  -37.1793   24.8464 C   0  0  0  0  0  0
  -21.4243  -29.3046   22.3626 N   0  0  0  0  0  0
  -26.4290  -37.3749   23.9401 N   0  0  0  0  0  0
  -24.7101  -31.0371   22.0926 N   0  0  0  0  0  0
  -23.4209  -28.8099   23.3000 O   0  0  0  0  0  0
  -28.2798  -26.2253   20.2194 O   0  0  0  0  0  0
  -26.5655  -34.8898   22.4646 O   0  0  0  0  0  0
  -23.5524  -32.1332   23.7163 O   0  0  0  0  0  0
  -28.5369  -19.4834   20.8126 C   0  0  0  0  0  0
  -30.3525  -21.3094   19.9530 C   0  0  0  0  0  0
  -28.2054  -20.9096   20.8330 C   0  0  0  0  0  0
  -29.1549  -21.9295   20.4290 C   0  0  0  0  0  0
  -29.8086  -18.9920   20.3857 C   0  0  0  0  0  0
  -25.7362  -20.9095   20.2956 C   0  0  0  0  0  0
  -30.4734  -17.4975   20.4891 C   0  0  0  0  0  0
  -28.0363  -24.7100   20.0553 C   0  0  0  0  0  0
  -26.8129  -21.2954   21.3244 C   0  0  1  0  0  0
  -29.1261  -23.5832   20.6016 C   0  0  2  0  0  0
  -30.6576  -19.9649   19.9430 N   0  0  0  0  0  0
  -29.8686  -16.0684   20.5574 N   0  0  0  0  0  0
  -26.5524  -20.7080   22.6478 N   0  3  0  0  0  0
  -29.4663  -23.9392   21.9969 N   0  3  0  0  0  0
  -31.4665  -12.6638   19.1819 H   0  0  0  0  0  0
  -30.3908  -11.5766   20.0129 H   0  0  0  0  0  0
  -29.8157  -11.7208   17.5610 H   0  0  0  0  0  0
  -29.6137  -13.4508   17.6967 H   0  0  0  0  0  0
  -27.9273  -11.2727   18.9644 H   0  0  0  0  0  0
  -27.3796  -12.4611   17.8117 H   0  0  0  0  0  0
  -27.6000  -14.2498   19.4184 H   0  0  0  0  0  0
  -28.7397  -12.2769   21.4568 H   0  0  0  0  0  0
  -28.3891  -13.9652   21.7511 H   0  0  0  0  0  0
  -25.2767   -9.5687   22.4768 H   0  0  0  0  0  0
  -24.0008   -7.4635   22.7474 H   0  0  0  0  0  0
  -21.0852   -8.8777   19.8950 H   0  0  0  0  0  0
  -22.3706  -10.9677   19.6172 H   0  0  0  0  0  0
  -21.2008   -7.6152   23.9722 H   0  0  0  0  0  0
  -21.1480   -6.0525   25.9081 H   0  0  0  0  0  0
  -22.0595   -2.7613   23.2846 H   0  0  0  0  0  0
  -22.4065  -11.9859   22.4815 H   0  0  0  0  0  0
  -21.1059  -13.1213   22.2633 H   0  0  0  0  0  0
  -24.6375  -15.8405   20.5076 H   0  0  0  0  0  0
  -26.2480  -15.6302   20.0430 H   0  0  0  0  0  0
  -26.7247  -32.5326   23.1017 H   0  0  0  0  0  0
  -25.0059  -33.9638   25.0327 H   0  0  0  0  0  0
  -22.7403  -31.2935   21.3856 H   0  0  0  0  0  0
  -23.3748  -35.9607   23.3300 H   0  0  0  0  0  0
  -24.3575  -36.8909   22.2057 H   0  0  0  0  0  0
  -23.7260  -37.6468   23.6684 H   0  0  0  0  0  0
  -26.1426  -31.4910   20.6116 H   0  0  0  0  0  0
  -26.8655  -30.7841   22.0222 H   0  0  0  0  0  0
  -28.1259  -28.8405   21.2239 H   0  0  0  0  0  0
  -25.9257  -25.8678   18.9890 H   0  0  0  0  0  0
  -23.9753  -27.3064   18.9810 H   0  0  0  0  0  0
  -23.7957  -30.5750   19.3989 H   0  0  0  0  0  0
  -22.7781  -29.2398   19.8445 H   0  0  0  0  0  0
  -25.1313  -36.1872   25.0807 H   0  0  0  0  0  0
  -20.9995  -28.3298   24.1370 H   0  0  0  0  0  0
  -20.5668  -26.2322   23.3620 H   0  0  0  0  0  0
  -21.6648  -26.7422   22.1205 H   0  0  0  0  0  0
  -19.6911  -25.6287   21.1249 H   0  0  0  0  0  0
  -19.6688  -27.3184   20.6731 H   0  0  0  0  0  0
  -17.4203  -26.6671   21.4026 H   0  0  0  0  0  0
  -18.0339  -26.0076   22.9020 H   0  0  0  0  0  0
  -19.7947  -30.7294   24.2224 H   0  0  0  0  0  0
  -17.5020  -31.6259   24.5169 H   0  0  0  0  0  0
  -15.5361  -30.2970   23.7673 H   0  0  0  0  0  0
  -15.8685  -28.0821   22.7059 H   0  0  0  0  0  0
  -24.5899  -30.7079   25.7745 H   0  0  0  0  0  0
  -24.8887  -32.2909   26.4804 H   0  0  0  0  0  0
  -25.8004  -30.8943   27.0224 H   0  0  0  0  0  0
  -26.2992  -29.6688   24.1283 H   0  0  0  0  0  0
  -27.4014  -29.7266   25.4838 H   0  0  0  0  0  0
  -27.8892  -30.4212   23.9571 H   0  0  0  0  0  0
  -27.2653  -33.3649   26.2024 H   0  0  0  0  0  0
  -28.3888  -32.6867   25.0340 H   0  0  0  0  0  0
  -28.0697  -31.8489   26.5453 H   0  0  0  0  0  0
  -28.2590  -38.0089   24.7503 H   0  0  0  0  0  0
  -28.1073  -36.2619   24.6307 H   0  0  0  0  0  0
  -27.2288  -37.1461   25.8867 H   0  0  0  0  0  0
  -20.9445  -29.8778   21.6828 H   0  0  0  0  0  0
  -26.0156  -38.2820   24.1397 H   0  0  0  0  0  0
  -27.8201  -18.7514   21.1579 H   0  0  0  0  0  0
  -31.1672  -21.9369   19.6228 H   0  0  0  0  0  0
  -25.9301  -21.3919   19.3368 H   0  0  0  0  0  0
  -24.7438  -21.2206   20.6211 H   0  0  0  0  0  0
  -25.7089  -19.8338   20.1203 H   0  0  0  0  0  0
  -31.1230  -17.5581   21.3632 H   0  0  0  0  0  0
  -31.1677  -17.4565   19.6482 H   0  0  0  0  0  0
  -27.0773  -24.4876   20.5228 H   0  0  0  0  0  0
  -27.8888  -24.5319   18.9896 H   0  0  0  0  0  0
  -26.7726  -22.3748   21.4562 H   0  0  0  0  0  0
  -30.0202  -23.8768   20.0496 H   0  0  0  0  0  0
  -28.8731  -16.0054   20.7022 H   0  0  0  0  0  0
  -26.5468  -19.7066   22.5912 H   0  0  0  0  0  0
  -25.6678  -21.0176   23.0073 H   0  0  0  0  0  0
  -27.2718  -20.9791   23.2928 H   0  0  0  0  0  0
  -30.2730  -23.4377   22.3238 H   0  0  0  0  0  0
  -28.7082  -23.7869   22.6371 H   0  0  0  0  0  0
  -29.6901  -24.9207   22.0409 H   0  0  0  0  0  0
  1 25  1  0  0  0
  1 30  2  0  0  0
  1 82  1  0  0  0
  2  3  1  0  0  0
  2 25  1  0  0  0
  2 85  1  0  0  0
  2 86  1  0  0  0
  3  4  1  0  0  0
  3 87  1  0  0  0
  3 88  1  0  0  0
  4  5  1  0  0  0
  4 89  1  0  0  0
  4 90  1  0  0  0
  5  6  1  0  0  0
  5 26  1  0  0  0
  5 91  1  0  0  0
  6 25  1  0  0  0
  6 92  1  0  0  0
  6 93  1  0  0  0
  7  8  2  0  0  0
  7 26  1  0  0  0
  7 29  1  0  0  0
  8  9  1  0  0  0
  8 22  1  0  0  0
  9 10  1  0  0  0
  9 27  2  0  0  0
 10 11  2  0  0  0
 10 15  1  0  0  0
 11 12  1  0  0  0
 11 94  1  0  0  0
 12 13  2  0  0  0
 12 95  1  0  0  0
 13 14  1  0  0  0
 13 31  1  0  0  0
 14 15  2  0  0  0
 14 96  1  0  0  0
 15 97  1  0  0  0
 16 17  2  0  0  0
 16 21  1  0  0  0
 16 31  1  0  0  0
 17 18  1  0  0  0
 17 98  1  0  0  0
 18 19  2  0  0  0
 18 99  1  0  0  0
 19 20  1  0  0  0
 19 24  1  0  0  0
 20 21  2  0  0  0
 20100  1  0  0  0
 21 23  1  0  0  0
 22 28  1  0  0  0
 22 32  2  0  0  0
 26 27  1  0  0  0
 28101  1  0  0  0
 28102  1  0  0  0
 29103  1  0  0  0
 29104  1  0  0  0
 33 34  1  0  0  0
 33 66  1  0  0  0
 33 70  2  0  0  0
 34 36  1  0  0  0
 34 59  1  0  0  0
 34105  1  0  0  0
 35 44  2  0  0  0
 35 45  1  0  0  0
 35 68  1  0  0  0
 36 56  1  0  0  0
 36106  1  0  0  0
 37 39  1  0  0  0
 37 47  1  0  0  0
 37 66  1  0  0  0
 37107  1  0  0  0
 38 43  2  0  0  0
 38 46  1  0  0  0
 38 47  1  0  0  0
 39 64  1  0  0  0
 39 67  2  0  0  0
 40 52  1  0  0  0
 40 53  2  0  0  0
 40 58  1  0  0  0
 41108  1  0  0  0
 41109  1  0  0  0
 41110  1  0  0  0
 41 48  1  0  0  0
 42 43  1  0  0  0
 42 66  1  0  0  0
 42111  1  0  0  0
 42112  1  0  0  0
 43 44  1  0  0  0
 44113  1  0  0  0
 45 46  2  0  0  0
 45114  1  0  0  0
 46115  1  0  0  0
 47116  1  0  0  0
 47117  1  0  0  0
 48 56  1  0  0  0
 48 65  1  0  0  0
 48118  1  0  0  0
 49 50  1  0  0  0
 49 53  1  0  0  0
 49 64  1  0  0  0
 49119  1  0  0  0
 50 51  1  0  0  0
 50120  1  0  0  0
 50121  1  0  0  0
 51 52  1  0  0  0
 51122  1  0  0  0
 51123  1  0  0  0
 52124  1  0  0  0
 52125  1  0  0  0
 53 54  1  0  0  0
 54 55  2  0  0  0
 54126  1  0  0  0
 55 57  1  0  0  0
 55127  1  0  0  0
 56 69  2  0  0  0
 57 58  2  0  0  0
 57128  1  0  0  0
 58129  1  0  0  0
 59 60  1  0  0  0
 59 61  1  0  0  0
 59 62  1  0  0  0
 60130  1  0  0  0
 60131  1  0  0  0
 60132  1  0  0  0
 61133  1  0  0  0
 61134  1  0  0  0
 61135  1  0  0  0
 62136  1  0  0  0
 62137  1  0  0  0
 62138  1  0  0  0
 63 65  1  0  0  0
 63139  1  0  0  0
 63140  1  0  0  0
 63141  1  0  0  0
 64142  1  0  0  0
 65143  1  0  0  0
 68 78  1  0  0  0
 71 73  2  0  0  0
 71 75  1  0  0  0
 71144  1  0  0  0
 72 74  2  0  0  0
 72 81  1  0  0  0
 72145  1  0  0  0
 73 74  1  0  0  0
 73 79  1  0  0  0
 74 80  1  0  0  0
 75 77  1  0  0  0
 75 81  2  0  0  0
 76146  1  0  0  0
 76147  1  0  0  0
 76148  1  0  0  0
 76 79  1  0  0  0
 77 82  1  0  0  0
 77149  1  0  0  0
 77150  1  0  0  0
 78 80  1  0  0  0
 78151  1  0  0  0
 78152  1  0  0  0
 79 83  1  0  0  0
 79153  1  0  0  0
 80 84  1  0  0  0
 80154  1  0  0  0
 82155  1  0  0  0
 83156  1  0  0  0
 83157  1  0  0  0
 83158  1  0  0  0
 84159  1  0  0  0
 84160  1  0  0  0
 84161  1  0  0  0
M  CHG  2  83   1  84   1
M  ISO  4   1 100  68 101  78 101  82 100
M  END
> <chiral flag>
0

> <version>
0

> <s_m_source_file>
/data/baiqing/PycharmProjects/Reinvent-master-3.2/result/LINK_invent/BTK/process_docking_weight1_custom_sum_contain_oxygen_bond_distance_aromatic_linkinvent_7_9_3/rearranged_h_0109.sdf

> <i_m_source_file_index>
26

> <r_mmod_Potential_Energy-OPLS-2005>
-419.405059814453

> <r_mmod_Stretch_Energy-OPLS-2005>
198.165863037109

> <r_mmod_Bend_Energy-OPLS-2005>
266.26708984375

> <r_mmod_Torsional_Energy-OPLS-2005>
204.799697875977

> <r_mmod_Improper_Torsional_Energy-OPLS-2005>
5.82899904251099

> <r_mmod_Van_der_Waal_Energy-OPLS-2005>
133.890579223633

> <r_mmod_Electrostatic_Energy-OPLS-2005>
-271.603637695312

> <r_mmod_Solvation_Energy-OPLS-2005>
-1104.28442382812

> <b_mmod_Minimization_Converged-OPLS-2005>
0

> <r_mmod_RMS_Derivative-OPLS-2005>
0.678423166275024

$$$$
26
                    3D
 Structure written by MMmdl.
164171  0  0  1  0            999 V2000
  -30.5120  -14.9681   20.3773 C   0  0  0  0  0  0
  -30.4291  -12.5864   19.5147 C   0  0  0  0  0  0
  -29.5228  -12.5466   18.2617 C   0  0  0  0  0  0
  -28.0571  -12.3148   18.6745 C   0  0  0  0  0  0
  -27.6272  -13.2488   19.8389 C   0  0  2  0  0  0
  -28.6632  -13.2841   20.9844 C   0  0  0  0  0  0
  -25.2439  -13.8213   20.5684 C   0  0  0  0  0  0
  -24.1779  -13.0433   20.9228 C   0  0  0  0  0  0
  -24.6406  -11.6933   20.8746 C   0  0  0  0  0  0
  -23.9102  -10.4286   21.0379 C   0  0  0  0  0  0
  -24.3649   -9.4198   21.9159 C   0  0  0  0  0  0
  -23.6325   -8.2235   22.0734 C   0  0  0  0  0  0
  -22.4290   -8.0282   21.3542 C   0  0  0  0  0  0
  -21.9932   -9.0246   20.4632 C   0  0  0  0  0  0
  -22.7282  -10.2118   20.3029 C   0  0  0  0  0  0
  -21.6872   -6.0738   22.5285 C   0  0  0  0  0  0
  -21.4029   -6.5622   23.8224 C   0  0  0  0  0  0
  -21.3664   -5.6772   24.9175 C   0  0  0  0  0  0
  -21.6040   -4.3035   24.7219 C   0  0  0  0  0  0
  -21.8822   -3.8141   23.4336 C   0  0  0  0  0  0
  -21.9195   -4.6960   22.3402 C   0  0  0  0  0  0
  -22.7795  -13.5194   21.1890 C   0  0  0  0  0  0
  -22.1664   -4.2142   21.0988 F   0  0  0  0  0  0
  -21.5624   -3.4523   25.7734 F   0  0  0  0  0  0
  -29.9437  -13.6934   20.3939 N   0  0  0  0  0  0
  -26.2857  -12.9448   20.3222 N   0  0  0  0  0  0
  -25.9329  -11.6580   20.5724 N   0  0  0  0  0  0
  -22.0471  -12.8183   22.0458 N   0  0  0  0  0  0
  -25.4077  -15.1940   20.4087 N   0  0  0  0  0  0
  -31.7019  -15.0354   20.0497 O   0  0  0  0  0  0
  -21.6656   -6.8877   21.4246 O   0  0  0  0  0  0
  -22.3469  -14.5490   20.6714 O   0  0  0  0  0  0
  -24.6449  -31.8401   23.1845 C   0  0  0  0  0  0
  -25.9238  -32.4667   23.8235 C   0  0  1  0  0  0
  -27.2182  -27.1295   20.1247 C   0  0  0  0  0  0
  -25.5974  -33.8467   24.2146 N   0  0  0  0  0  0
  -23.4472  -30.4600   21.5278 C   0  0  2  0  0  0
  -24.8940  -28.8784   20.1009 C   0  0  0  0  0  0
  -22.7547  -29.4547   22.4807 C   0  0  0  0  0  0
  -18.0307  -28.1397   22.8468 C   0  0  0  0  0  0
  -24.1504  -36.7261   23.2637 C   0  0  0  0  0  0
  -26.0026  -30.7057   21.3838 C   0  0  0  0  0  0
  -26.0686  -29.3169   20.7213 C   0  0  0  0  0  0
  -27.2268  -28.4541   20.7223 C   0  0  0  0  0  0
  -26.0166  -26.7833   19.4733 C   0  0  0  0  0  0
  -24.8790  -27.6236   19.4662 C   0  0  0  0  0  0
  -23.6740  -29.7872   20.1461 C   0  0  0  0  0  0
  -25.4132  -36.3001   24.0299 C   0  0  1  0  0  0
  -20.5920  -28.3738   23.1212 C   0  0  2  0  0  0
  -20.6794  -26.9435   22.5395 C   0  0  0  0  0  0
  -19.5769  -26.6376   21.5207 C   0  0  0  0  0  0
  -18.1954  -26.7935   22.1612 C   0  0  0  0  0  0
  -19.1567  -28.8876   23.2845 C   0  0  0  0  0  0
  -18.9491  -30.1463   23.8878 C   0  0  0  0  0  0
  -17.6488  -30.6587   24.0562 C   0  0  0  0  0  0
  -25.9082  -34.9390   23.5030 C   0  0  0  0  0  0
  -16.5375  -29.9091   23.6336 C   0  0  0  0  0  0
  -16.7294  -28.6511   23.0341 C   0  0  0  0  0  0
  -26.4538  -31.6541   25.0693 C   0  0  0  0  0  0
  -25.3723  -31.3760   26.1391 C   0  0  0  0  0  0
  -27.0398  -30.2919   24.6316 C   0  0  0  0  0  0
  -27.6027  -32.4322   25.7520 C   0  0  0  0  0  0
  -27.5576  -37.1784   24.8448 C   0  0  0  0  0  0
  -21.4241  -29.3062   22.3567 N   0  0  0  0  0  0
  -26.4277  -37.3731   23.9405 N   0  0  0  0  0  0
  -24.7185  -31.0244   22.0883 N   0  0  0  0  0  0
  -23.4186  -28.8087   23.2959 O   0  0  0  0  0  0
  -28.2927  -26.1755   20.2248 O   0  0  0  0  0  0
  -26.5660  -34.8897   22.4601 O   0  0  0  0  0  0
  -23.5577  -32.1293   23.7055 O   0  0  0  0  0  0
  -28.1203  -23.4171   21.8323 C   0  0  0  0  0  0
  -28.5140  -17.5096   18.8072 C   0  0  0  0  0  0
  -30.9418  -17.8904   19.1280 C   0  0  0  0  0  0
  -29.4268  -21.8593   18.4401 C   0  0  0  0  0  0
  -30.5233  -21.9760   20.6645 C   0  0  0  0  0  0
  -29.3120  -19.0175   20.7721 C   0  0  0  0  0  0
  -28.4018  -24.7415   19.6173 C   0  0  0  0  0  0
  -28.2233  -23.2054   20.3155 C   0  0  1  0  0  0
  -29.6226  -17.6097   19.8741 C   0  0  0  0  0  0
  -29.1627  -21.8149   19.9590 C   0  0  0  0  0  0
  -29.6987  -16.1393   20.5178 N   0  0  0  0  0  0
  -28.5972  -20.3469   20.2370 N   0  3  0  0  0  0
  -31.4698  -12.7218   19.2166 H   0  0  0  0  0  0
  -30.3975  -11.6342   20.0440 H   0  0  0  0  0  0
  -29.8554  -11.7670   17.5748 H   0  0  0  0  0  0
  -29.6038  -13.4899   17.7198 H   0  0  0  0  0  0
  -27.9659  -11.2727   18.9843 H   0  0  0  0  0  0
  -27.3916  -12.4334   17.8163 H   0  0  0  0  0  0
  -27.5900  -14.2509   19.4114 H   0  0  0  0  0  0
  -28.7476  -12.3097   21.4690 H   0  0  0  0  0  0
  -28.3538  -13.9898   21.7564 H   0  0  0  0  0  0
  -25.2786   -9.5675   22.4736 H   0  0  0  0  0  0
  -24.0043   -7.4611   22.7433 H   0  0  0  0  0  0
  -21.0880   -8.8759   19.8924 H   0  0  0  0  0  0
  -22.3750  -10.9642   19.6121 H   0  0  0  0  0  0
  -21.2041   -7.6135   23.9739 H   0  0  0  0  0  0
  -21.1486   -6.0491   25.9083 H   0  0  0  0  0  0
  -22.0606   -2.7606   23.2846 H   0  0  0  0  0  0
  -22.4138  -11.9877   22.4865 H   0  0  0  0  0  0
  -21.1046  -13.1121   22.2611 H   0  0  0  0  0  0
  -24.6268  -15.8345   20.4970 H   0  0  0  0  0  0
  -26.2369  -15.6318   20.0305 H   0  0  0  0  0  0
  -26.7293  -32.5248   23.0945 H   0  0  0  0  0  0
  -25.0115  -33.9570   25.0291 H   0  0  0  0  0  0
  -22.7542  -31.2897   21.3714 H   0  0  0  0  0  0
  -23.3761  -35.9594   23.3244 H   0  0  0  0  0  0
  -24.3600  -36.8961   22.2064 H   0  0  0  0  0  0
  -23.7270  -37.6443   23.6724 H   0  0  0  0  0  0
  -26.1616  -31.4593   20.6112 H   0  0  0  0  0  0
  -26.8734  -30.7518   22.0277 H   0  0  0  0  0  0
  -28.1208  -28.7789   21.2337 H   0  0  0  0  0  0
  -25.9215  -25.8170   19.0013 H   0  0  0  0  0  0
  -23.9765  -27.2811   18.9792 H   0  0  0  0  0  0
  -23.8181  -30.5646   19.3938 H   0  0  0  0  0  0
  -22.7852  -29.2372   19.8312 H   0  0  0  0  0  0
  -25.1326  -36.1801   25.0791 H   0  0  0  0  0  0
  -21.0040  -28.3351   24.1320 H   0  0  0  0  0  0
  -20.5684  -26.2358   23.3628 H   0  0  0  0  0  0
  -21.6667  -26.7427   22.1197 H   0  0  0  0  0  0
  -19.6940  -25.6277   21.1262 H   0  0  0  0  0  0
  -19.6718  -27.3165   20.6724 H   0  0  0  0  0  0
  -17.4226  -26.6677   21.4015 H   0  0  0  0  0  0
  -18.0351  -26.0077   22.9008 H   0  0  0  0  0  0
  -19.7965  -30.7278   24.2243 H   0  0  0  0  0  0
  -17.5045  -31.6269   24.5171 H   0  0  0  0  0  0
  -15.5376  -30.2988   23.7660 H   0  0  0  0  0  0
  -15.8694  -28.0826   22.7054 H   0  0  0  0  0  0
  -24.5885  -30.7119   25.7738 H   0  0  0  0  0  0
  -24.8944  -32.2957   26.4766 H   0  0  0  0  0  0
  -25.8006  -30.8970   27.0203 H   0  0  0  0  0  0
  -26.3011  -29.6621   24.1343 H   0  0  0  0  0  0
  -27.3993  -29.7245   25.4913 H   0  0  0  0  0  0
  -27.8932  -30.4115   23.9639 H   0  0  0  0  0  0
  -27.2562  -33.3609   26.2066 H   0  0  0  0  0  0
  -28.3888  -32.6906   25.0416 H   0  0  0  0  0  0
  -28.0648  -31.8484   26.5492 H   0  0  0  0  0  0
  -28.2538  -38.0133   24.7519 H   0  0  0  0  0  0
  -28.1124  -36.2651   24.6227 H   0  0  0  0  0  0
  -27.2294  -37.1373   25.8851 H   0  0  0  0  0  0
  -20.9428  -29.8791   21.6769 H   0  0  0  0  0  0
  -26.0124  -38.2784   24.1432 H   0  0  0  0  0  0
  -27.3640  -24.1672   22.0620 H   0  0  0  0  0  0
  -29.0622  -23.7777   22.2473 H   0  0  0  0  0  0
  -27.8426  -22.5016   22.3528 H   0  0  0  0  0  0
  -28.4352  -18.4265   18.2240 H   0  0  0  0  0  0
  -27.5368  -17.3155   19.2509 H   0  0  0  0  0  0
  -28.7113  -16.7067   18.0973 H   0  0  0  0  0  0
  -30.9352  -18.8838   18.6760 H   0  0  0  0  0  0
  -31.1175  -17.1797   18.3191 H   0  0  0  0  0  0
  -31.7978  -17.8468   19.8011 H   0  0  0  0  0  0
  -29.9267  -22.7791   18.1390 H   0  0  0  0  0  0
  -28.4978  -21.7939   17.8736 H   0  0  0  0  0  0
  -30.0659  -21.0358   18.1179 H   0  0  0  0  0  0
  -30.9523  -22.9568   20.4559 H   0  0  0  0  0  0
  -31.2493  -21.2343   20.3302 H   0  0  0  0  0  0
  -30.4271  -21.8824   21.7466 H   0  0  0  0  0  0
  -30.2040  -19.2919   21.3338 H   0  0  0  0  0  0
  -28.6172  -18.6926   21.5467 H   0  0  0  0  0  0
  -27.8329  -24.7384   18.6868 H   0  0  0  0  0  0
  -29.4296  -24.7450   19.2552 H   0  0  0  0  0  0
  -27.2174  -22.9176   20.0056 H   0  0  0  0  0  0
  -28.8215  -15.8853   20.9512 H   0  0  0  0  0  0
  -27.9333  -20.5114   20.9783 H   0  0  0  0  0  0
  -28.0208  -20.0806   19.4554 H   0  0  0  0  0  0
  1 25  1  0  0  0
  1 30  2  0  0  0
  1 81  1  0  0  0
  2  3  1  0  0  0
  2 25  1  0  0  0
  2 83  1  0  0  0
  2 84  1  0  0  0
  3  4  1  0  0  0
  3 85  1  0  0  0
  3 86  1  0  0  0
  4  5  1  0  0  0
  4 87  1  0  0  0
  4 88  1  0  0  0
  5  6  1  0  0  0
  5 26  1  0  0  0
  5 89  1  0  0  0
  6 25  1  0  0  0
  6 90  1  0  0  0
  6 91  1  0  0  0
  7  8  2  0  0  0
  7 26  1  0  0  0
  7 29  1  0  0  0
  8  9  1  0  0  0
  8 22  1  0  0  0
  9 10  1  0  0  0
  9 27  2  0  0  0
 10 11  2  0  0  0
 10 15  1  0  0  0
 11 12  1  0  0  0
 11 92  1  0  0  0
 12 13  2  0  0  0
 12 93  1  0  0  0
 13 14  1  0  0  0
 13 31  1  0  0  0
 14 15  2  0  0  0
 14 94  1  0  0  0
 15 95  1  0  0  0
 16 17  2  0  0  0
 16 21  1  0  0  0
 16 31  1  0  0  0
 17 18  1  0  0  0
 17 96  1  0  0  0
 18 19  2  0  0  0
 18 97  1  0  0  0
 19 20  1  0  0  0
 19 24  1  0  0  0
 20 21  2  0  0  0
 20 98  1  0  0  0
 21 23  1  0  0  0
 22 28  1  0  0  0
 22 32  2  0  0  0
 26 27  1  0  0  0
 28 99  1  0  0  0
 28100  1  0  0  0
 29101  1  0  0  0
 29102  1  0  0  0
 33 34  1  0  0  0
 33 66  1  0  0  0
 33 70  2  0  0  0
 34 36  1  0  0  0
 34 59  1  0  0  0
 34103  1  0  0  0
 35 44  2  0  0  0
 35 45  1  0  0  0
 35 68  1  0  0  0
 36 56  1  0  0  0
 36104  1  0  0  0
 37 39  1  0  0  0
 37 47  1  0  0  0
 37 66  1  0  0  0
 37105  1  0  0  0
 38 43  2  0  0  0
 38 46  1  0  0  0
 38 47  1  0  0  0
 39 64  1  0  0  0
 39 67  2  0  0  0
 40 52  1  0  0  0
 40 53  2  0  0  0
 40 58  1  0  0  0
 41106  1  0  0  0
 41107  1  0  0  0
 41108  1  0  0  0
 41 48  1  0  0  0
 42 43  1  0  0  0
 42 66  1  0  0  0
 42109  1  0  0  0
 42110  1  0  0  0
 43 44  1  0  0  0
 44111  1  0  0  0
 45 46  2  0  0  0
 45112  1  0  0  0
 46113  1  0  0  0
 47114  1  0  0  0
 47115  1  0  0  0
 48 56  1  0  0  0
 48 65  1  0  0  0
 48116  1  0  0  0
 49 50  1  0  0  0
 49 53  1  0  0  0
 49 64  1  0  0  0
 49117  1  0  0  0
 50 51  1  0  0  0
 50118  1  0  0  0
 50119  1  0  0  0
 51 52  1  0  0  0
 51120  1  0  0  0
 51121  1  0  0  0
 52122  1  0  0  0
 52123  1  0  0  0
 53 54  1  0  0  0
 54 55  2  0  0  0
 54124  1  0  0  0
 55 57  1  0  0  0
 55125  1  0  0  0
 56 69  2  0  0  0
 57 58  2  0  0  0
 57126  1  0  0  0
 58127  1  0  0  0
 59 60  1  0  0  0
 59 61  1  0  0  0
 59 62  1  0  0  0
 60128  1  0  0  0
 60129  1  0  0  0
 60130  1  0  0  0
 61131  1  0  0  0
 61132  1  0  0  0
 61133  1  0  0  0
 62134  1  0  0  0
 62135  1  0  0  0
 62136  1  0  0  0
 63 65  1  0  0  0
 63137  1  0  0  0
 63138  1  0  0  0
 63139  1  0  0  0
 64140  1  0  0  0
 65141  1  0  0  0
 68 77  1  0  0  0
 71142  1  0  0  0
 71143  1  0  0  0
 71144  1  0  0  0
 71 78  1  0  0  0
 72145  1  0  0  0
 72146  1  0  0  0
 72147  1  0  0  0
 72 79  1  0  0  0
 73 79  1  0  0  0
 73148  1  0  0  0
 73149  1  0  0  0
 73150  1  0  0  0
 74151  1  0  0  0
 74152  1  0  0  0
 74153  1  0  0  0
 74 80  1  0  0  0
 75 80  1  0  0  0
 75154  1  0  0  0
 75155  1  0  0  0
 75156  1  0  0  0
 76 79  1  0  0  0
 76 82  1  0  0  0
 76157  1  0  0  0
 76158  1  0  0  0
 77 78  1  0  0  0
 77159  1  0  0  0
 77160  1  0  0  0
 78 80  1  0  0  0
 78161  1  0  0  0
 79 81  1  0  0  0
 80 82  1  0  0  0
 81162  1  0  0  0
 82163  1  0  0  0
 82164  1  0  0  0
M  CHG  1  82   1
M  ISO  4   1 100  68 101  77 101  81 100
M  END
> <chiral flag>
0

> <version>
0

> <s_m_source_file>
/data/baiqing/PycharmProjects/Reinvent-master-3.2/result/LINK_invent/BTK/process_docking_weight1_custom_sum_contain_oxygen_bond_distance_aromatic_linkinvent_7_9_3/rearranged_h_0109.sdf

> <i_m_source_file_index>
27

> <r_mmod_Potential_Energy-OPLS-2005>
480.136749267578

> <r_mmod_Stretch_Energy-OPLS-2005>
301.527770996094

> <r_mmod_Bend_Energy-OPLS-2005>
339.133941650391

> <r_mmod_Torsional_Energy-OPLS-2005>
283.052917480469

> <r_mmod_Improper_Torsional_Energy-OPLS-2005>
6.06552600860596

> <r_mmod_Van_der_Waal_Energy-OPLS-2005>
103.834770202637

> <r_mmod_Electrostatic_Energy-OPLS-2005>
-282.163848876953

> <r_mmod_Solvation_Energy-OPLS-2005>
-473.025817871094

> <b_mmod_Minimization_Converged-OPLS-2005>
0

> <r_mmod_RMS_Derivative-OPLS-2005>
3.47597312927246

$$$$
27
                    3D
 Structure written by MMmdl.
158165  0  0  1  0            999 V2000
  -30.4151  -15.2455   20.3564 C   0  0  0  0  0  0
  -30.4332  -12.7972   19.4830 C   0  0  0  0  0  0
  -29.5158  -12.5556   18.2584 C   0  0  0  0  0  0
  -28.0655  -12.2881   18.6963 C   0  0  0  0  0  0
  -27.6027  -13.2612   19.8083 C   0  0  2  0  0  0
  -28.6479  -13.4284   20.9294 C   0  0  0  0  0  0
  -25.2357  -13.8217   20.5757 C   0  0  0  0  0  0
  -24.1724  -13.0425   20.9284 C   0  0  0  0  0  0
  -24.6362  -11.6915   20.8770 C   0  0  0  0  0  0
  -23.9056  -10.4300   21.0418 C   0  0  0  0  0  0
  -24.3620   -9.4224   21.9198 C   0  0  0  0  0  0
  -23.6294   -8.2258   22.0755 C   0  0  0  0  0  0
  -22.4273   -8.0282   21.3557 C   0  0  0  0  0  0
  -21.9914   -9.0240   20.4656 C   0  0  0  0  0  0
  -22.7227  -10.2126   20.3076 C   0  0  0  0  0  0
  -21.6867   -6.0741   22.5304 C   0  0  0  0  0  0
  -21.4004   -6.5654   23.8229 C   0  0  0  0  0  0
  -21.3661   -5.6808   24.9191 C   0  0  0  0  0  0
  -21.6044   -4.3071   24.7242 C   0  0  0  0  0  0
  -21.8818   -3.8167   23.4364 C   0  0  0  0  0  0
  -21.9197   -4.6973   22.3415 C   0  0  0  0  0  0
  -22.7747  -13.5156   21.1953 C   0  0  0  0  0  0
  -22.1661   -4.2158   21.0991 F   0  0  0  0  0  0
  -21.5628   -3.4556   25.7749 F   0  0  0  0  0  0
  -29.8663  -13.9387   20.2814 N   0  0  0  0  0  0
  -26.2776  -12.9455   20.3204 N   0  0  0  0  0  0
  -25.9285  -11.6576   20.5699 N   0  0  0  0  0  0
  -22.0440  -12.8118   22.0512 N   0  0  0  0  0  0
  -25.3997  -15.1952   20.4148 N   0  0  0  0  0  0
  -31.6502  -15.2644   20.2707 O   0  0  0  0  0  0
  -21.6644   -6.8878   21.4266 O   0  0  0  0  0  0
  -22.3419  -14.5468   20.6814 O   0  0  0  0  0  0
  -24.6621  -31.8308   23.1743 C   0  0  0  0  0  0
  -25.9310  -32.4623   23.8203 C   0  0  1  0  0  0
  -27.2132  -26.9377   20.1522 C   0  0  0  0  0  0
  -25.5983  -33.8446   24.2108 N   0  0  0  0  0  0
  -23.4766  -30.4450   21.5274 C   0  0  2  0  0  0
  -24.9264  -28.8425   20.1184 C   0  0  0  0  0  0
  -22.7671  -29.4478   22.4817 C   0  0  0  0  0  0
  -18.0315  -28.1408   22.8507 C   0  0  0  0  0  0
  -24.1505  -36.7202   23.2652 C   0  0  0  0  0  0
  -26.0510  -30.6382   21.4060 C   0  0  0  0  0  0
  -26.1177  -29.2316   20.7415 C   0  0  0  0  0  0
  -27.2595  -28.3062   20.7280 C   0  0  0  0  0  0
  -25.9722  -26.6991   19.5171 C   0  0  0  0  0  0
  -24.8767  -27.5937   19.4891 C   0  0  0  0  0  0
  -23.7155  -29.7715   20.1526 C   0  0  0  0  0  0
  -25.4149  -36.2986   24.0301 C   0  0  1  0  0  0
  -20.5946  -28.3760   23.1217 C   0  0  2  0  0  0
  -20.6798  -26.9450   22.5426 C   0  0  0  0  0  0
  -19.5761  -26.6395   21.5242 C   0  0  0  0  0  0
  -18.1940  -26.7949   22.1645 C   0  0  0  0  0  0
  -19.1576  -28.8905   23.2862 C   0  0  0  0  0  0
  -18.9476  -30.1499   23.8897 C   0  0  0  0  0  0
  -17.6461  -30.6608   24.0544 C   0  0  0  0  0  0
  -25.9112  -34.9368   23.5021 C   0  0  0  0  0  0
  -16.5356  -29.9088   23.6339 C   0  0  0  0  0  0
  -16.7296  -28.6500   23.0387 C   0  0  0  0  0  0
  -26.4568  -31.6553   25.0725 C   0  0  0  0  0  0
  -25.3674  -31.3756   26.1351 C   0  0  0  0  0  0
  -27.0443  -30.2918   24.6446 C   0  0  0  0  0  0
  -27.6067  -32.4353   25.7504 C   0  0  0  0  0  0
  -27.5571  -37.1759   24.8455 C   0  0  0  0  0  0
  -21.4343  -29.3043   22.3550 N   0  0  0  0  0  0
  -26.4283  -37.3724   23.9400 N   0  0  0  0  0  0
  -24.7515  -30.9985   22.0872 N   0  0  0  0  0  0
  -23.4235  -28.8010   23.3021 O   0  0  0  0  0  0
  -28.2230  -25.8307   20.1899 O   0  0  0  0  0  0
  -26.5718  -34.8876   22.4618 O   0  0  0  0  0  0
  -23.5698  -32.1238   23.6895 O   0  0  0  0  0  0
  -26.5037  -19.8551   21.2138 C   0  0  0  0  0  0
  -26.5794  -20.8167   18.8632 C   0  0  0  0  0  0
  -27.5977  -24.1588   18.4376 C   0  0  0  0  0  0
  -29.6034  -18.1047   20.7340 C   0  0  0  0  0  0
  -29.3001  -19.6679   19.8812 C   0  0  0  0  0  0
  -28.9890  -22.6989   20.1488 C   0  0  0  0  0  0
  -27.0792  -20.9649   20.3155 C   0  0  0  0  0  0
  -27.9932  -24.2050   19.9324 C   0  0  1  0  0  0
  -29.6008  -16.4829   20.3119 N   0  0  0  0  0  0
  -28.5680  -21.0896   20.4037 N   0  3  1  0  0  0
  -31.4413  -13.0298   19.1373 H   0  0  0  0  0  0
  -30.5178  -11.8932   20.0873 H   0  0  0  0  0  0
  -29.8815  -11.7174   17.6633 H   0  0  0  0  0  0
  -29.5433  -13.4308   17.6086 H   0  0  0  0  0  0
  -28.0223  -11.2635   19.0704 H   0  0  0  0  0  0
  -27.3923  -12.3381   17.8392 H   0  0  0  0  0  0
  -27.5150  -14.2261   19.3094 H   0  0  0  0  0  0
  -28.8258  -12.4886   21.4534 H   0  0  0  0  0  0
  -28.2966  -14.1392   21.6777 H   0  0  0  0  0  0
  -25.2772   -9.5698   22.4773 H   0  0  0  0  0  0
  -24.0027   -7.4639   22.7438 H   0  0  0  0  0  0
  -21.0885   -8.8738   19.8916 H   0  0  0  0  0  0
  -22.3693  -10.9659   19.6184 H   0  0  0  0  0  0
  -21.1979   -7.6162   23.9723 H   0  0  0  0  0  0
  -21.1471   -6.0552   25.9084 H   0  0  0  0  0  0
  -22.0583   -2.7636   23.2878 H   0  0  0  0  0  0
  -22.4067  -11.9741   22.4833 H   0  0  0  0  0  0
  -21.1044  -13.1097   22.2708 H   0  0  0  0  0  0
  -24.6282  -15.8443   20.5231 H   0  0  0  0  0  0
  -26.2362  -15.6370   20.0630 H   0  0  0  0  0  0
  -26.7378  -32.5163   23.0918 H   0  0  0  0  0  0
  -25.0011  -33.9552   25.0168 H   0  0  0  0  0  0
  -22.7897  -31.2786   21.3635 H   0  0  0  0  0  0
  -23.3789  -35.9505   23.3276 H   0  0  0  0  0  0
  -24.3583  -36.8892   22.2073 H   0  0  0  0  0  0
  -23.7248  -37.6370   23.6736 H   0  0  0  0  0  0
  -26.2411  -31.3856   20.6340 H   0  0  0  0  0  0
  -26.9105  -30.6834   22.0636 H   0  0  0  0  0  0
  -28.1662  -28.6131   21.2328 H   0  0  0  0  0  0
  -25.7787  -25.7494   19.0550 H   0  0  0  0  0  0
  -23.9657  -27.2833   18.9963 H   0  0  0  0  0  0
  -23.8723  -30.5462   19.4009 H   0  0  0  0  0  0
  -22.8224  -29.2346   19.8318 H   0  0  0  0  0  0
  -25.1365  -36.1768   25.0791 H   0  0  0  0  0  0
  -21.0046  -28.3354   24.1334 H   0  0  0  0  0  0
  -20.5723  -26.2369   23.3661 H   0  0  0  0  0  0
  -21.6647  -26.7460   22.1194 H   0  0  0  0  0  0
  -19.6916  -25.6302   21.1277 H   0  0  0  0  0  0
  -19.6672  -27.3203   20.6768 H   0  0  0  0  0  0
  -17.4214  -26.6741   21.4023 H   0  0  0  0  0  0
  -18.0307  -26.0102   22.9051 H   0  0  0  0  0  0
  -19.7940  -30.7339   24.2268 H   0  0  0  0  0  0
  -17.4992  -31.6276   24.5155 H   0  0  0  0  0  0
  -15.5347  -30.2964   23.7691 H   0  0  0  0  0  0
  -15.8705  -28.0801   22.7129 H   0  0  0  0  0  0
  -24.5893  -30.7098   25.7605 H   0  0  0  0  0  0
  -24.8809  -32.2930   26.4668 H   0  0  0  0  0  0
  -25.7882  -30.8958   27.0197 H   0  0  0  0  0  0
  -26.3090  -29.6602   24.1457 H   0  0  0  0  0  0
  -27.3961  -29.7280   25.5093 H   0  0  0  0  0  0
  -27.9053  -30.4082   23.9864 H   0  0  0  0  0  0
  -27.2664  -33.3705   26.1957 H   0  0  0  0  0  0
  -28.3933  -32.6849   25.0368 H   0  0  0  0  0  0
  -28.0679  -31.8560   26.5511 H   0  0  0  0  0  0
  -28.2572  -38.0071   24.7537 H   0  0  0  0  0  0
  -28.1092  -36.2604   24.6261 H   0  0  0  0  0  0
  -27.2278  -37.1377   25.8853 H   0  0  0  0  0  0
  -20.9590  -29.8725   21.6682 H   0  0  0  0  0  0
  -26.0120  -38.2772   24.1416 H   0  0  0  0  0  0
  -25.4123  -19.9007   21.2270 H   0  0  0  0  0  0
  -26.8384  -19.9569   22.2470 H   0  0  0  0  0  0
  -26.7645  -18.8584   20.8561 H   0  0  0  0  0  0
  -26.6735  -19.7946   18.4924 H   0  0  0  0  0  0
  -27.1291  -21.4562   18.1765 H   0  0  0  0  0  0
  -25.5237  -21.0808   18.7826 H   0  0  0  0  0  0
  -26.5990  -23.7454   18.3032 H   0  0  0  0  0  0
  -28.2781  -23.5454   17.8497 H   0  0  0  0  0  0
  -27.6185  -25.1407   17.9687 H   0  0  0  0  0  0
  -28.9126  -18.1183   21.5770 H   0  0  0  0  0  0
  -30.5776  -18.2378   21.2048 H   0  0  0  0  0  0
  -28.8314  -19.3960   18.9391 H   0  0  0  0  0  0
  -30.2867  -19.9933   19.5498 H   0  0  0  0  0  0
  -29.6126  -22.9177   21.0147 H   0  0  0  0  0  0
  -29.7141  -22.6789   19.3349 H   0  0  0  0  0  0
  -26.6572  -21.8888   20.7046 H   0  0  0  0  0  0
  -27.0959  -24.0375   20.5281 H   0  0  0  0  0  0
  -28.6496  -16.1963   20.1296 H   0  0  0  0  0  0
  -28.7339  -21.0346   21.3983 H   0  0  0  0  0  0
  1 25  1  0  0  0
  1 30  2  0  0  0
  1 79  1  0  0  0
  2  3  1  0  0  0
  2 25  1  0  0  0
  2 81  1  0  0  0
  2 82  1  0  0  0
  3  4  1  0  0  0
  3 83  1  0  0  0
  3 84  1  0  0  0
  4  5  1  0  0  0
  4 85  1  0  0  0
  4 86  1  0  0  0
  5  6  1  0  0  0
  5 26  1  0  0  0
  5 87  1  0  0  0
  6 25  1  0  0  0
  6 88  1  0  0  0
  6 89  1  0  0  0
  7  8  2  0  0  0
  7 26  1  0  0  0
  7 29  1  0  0  0
  8  9  1  0  0  0
  8 22  1  0  0  0
  9 10  1  0  0  0
  9 27  2  0  0  0
 10 11  2  0  0  0
 10 15  1  0  0  0
 11 12  1  0  0  0
 11 90  1  0  0  0
 12 13  2  0  0  0
 12 91  1  0  0  0
 13 14  1  0  0  0
 13 31  1  0  0  0
 14 15  2  0  0  0
 14 92  1  0  0  0
 15 93  1  0  0  0
 16 17  2  0  0  0
 16 21  1  0  0  0
 16 31  1  0  0  0
 17 18  1  0  0  0
 17 94  1  0  0  0
 18 19  2  0  0  0
 18 95  1  0  0  0
 19 20  1  0  0  0
 19 24  1  0  0  0
 20 21  2  0  0  0
 20 96  1  0  0  0
 21 23  1  0  0  0
 22 28  1  0  0  0
 22 32  2  0  0  0
 26 27  1  0  0  0
 28 97  1  0  0  0
 28 98  1  0  0  0
 29 99  1  0  0  0
 29100  1  0  0  0
 33 34  1  0  0  0
 33 66  1  0  0  0
 33 70  2  0  0  0
 34 36  1  0  0  0
 34 59  1  0  0  0
 34101  1  0  0  0
 35 44  2  0  0  0
 35 45  1  0  0  0
 35 68  1  0  0  0
 36 56  1  0  0  0
 36102  1  0  0  0
 37 39  1  0  0  0
 37 47  1  0  0  0
 37 66  1  0  0  0
 37103  1  0  0  0
 38 43  2  0  0  0
 38 46  1  0  0  0
 38 47  1  0  0  0
 39 64  1  0  0  0
 39 67  2  0  0  0
 40 52  1  0  0  0
 40 53  2  0  0  0
 40 58  1  0  0  0
 41104  1  0  0  0
 41105  1  0  0  0
 41106  1  0  0  0
 41 48  1  0  0  0
 42 43  1  0  0  0
 42 66  1  0  0  0
 42107  1  0  0  0
 42108  1  0  0  0
 43 44  1  0  0  0
 44109  1  0  0  0
 45 46  2  0  0  0
 45110  1  0  0  0
 46111  1  0  0  0
 47112  1  0  0  0
 47113  1  0  0  0
 48 56  1  0  0  0
 48 65  1  0  0  0
 48114  1  0  0  0
 49 50  1  0  0  0
 49 53  1  0  0  0
 49 64  1  0  0  0
 49115  1  0  0  0
 50 51  1  0  0  0
 50116  1  0  0  0
 50117  1  0  0  0
 51 52  1  0  0  0
 51118  1  0  0  0
 51119  1  0  0  0
 52120  1  0  0  0
 52121  1  0  0  0
 53 54  1  0  0  0
 54 55  2  0  0  0
 54122  1  0  0  0
 55 57  1  0  0  0
 55123  1  0  0  0
 56 69  2  0  0  0
 57 58  2  0  0  0
 57124  1  0  0  0
 58125  1  0  0  0
 59 60  1  0  0  0
 59 61  1  0  0  0
 59 62  1  0  0  0
 60126  1  0  0  0
 60127  1  0  0  0
 60128  1  0  0  0
 61129  1  0  0  0
 61130  1  0  0  0
 61131  1  0  0  0
 62132  1  0  0  0
 62133  1  0  0  0
 62134  1  0  0  0
 63 65  1  0  0  0
 63135  1  0  0  0
 63136  1  0  0  0
 63137  1  0  0  0
 64138  1  0  0  0
 65139  1  0  0  0
 68 78  1  0  0  0
 71140  1  0  0  0
 71141  1  0  0  0
 71142  1  0  0  0
 71 77  1  0  0  0
 72 77  1  0  0  0
 72143  1  0  0  0
 72144  1  0  0  0
 72145  1  0  0  0
 73146  1  0  0  0
 73147  1  0  0  0
 73148  1  0  0  0
 73 78  1  0  0  0
 74 75  1  0  0  0
 74 79  1  0  0  0
 74149  1  0  0  0
 74150  1  0  0  0
 75151  1  0  0  0
 75152  1  0  0  0
 75 80  1  0  0  0
 76 78  1  0  0  0
 76 80  1  0  0  0
 76153  1  0  0  0
 76154  1  0  0  0
 77 80  1  0  0  0
 77155  1  0  0  0
 78156  1  0  0  0
 79157  1  0  0  0
 80158  1  0  0  0
M  CHG  1  80   1
M  ISO  4   1 100  68 101  78 101  79 100
M  END
> <chiral flag>
0

> <version>
0

> <s_m_source_file>
/data/baiqing/PycharmProjects/Reinvent-master-3.2/result/LINK_invent/BTK/process_docking_weight1_custom_sum_contain_oxygen_bond_distance_aromatic_linkinvent_7_9_3/rearranged_h_0109.sdf

> <i_m_source_file_index>
28

> <r_mmod_Potential_Energy-OPLS-2005>
1260.03295898438

> <r_mmod_Stretch_Energy-OPLS-2005>
633.935241699219

> <r_mmod_Bend_Energy-OPLS-2005>
481.595550537109

> <r_mmod_Torsional_Energy-OPLS-2005>
280.358276367188

> <r_mmod_Improper_Torsional_Energy-OPLS-2005>
5.23201847076416

> <r_mmod_Van_der_Waal_Energy-OPLS-2005>
116.86986541748

> <r_mmod_Electrostatic_Energy-OPLS-2005>
-255.27099609375

> <r_mmod_Solvation_Energy-OPLS-2005>
-447.163360595703

> <b_mmod_Minimization_Converged-OPLS-2005>
0

> <r_mmod_RMS_Derivative-OPLS-2005>
4.11148309707642

$$$$
28
                    3D
 Structure written by MMmdl.
149156  0  0  1  0            999 V2000
  -30.4375  -15.2389   20.3682 C   0  0  0  0  0  0
  -30.4418  -12.7790   19.5464 C   0  0  0  0  0  0
  -29.5419  -12.5777   18.3000 C   0  0  0  0  0  0
  -28.0875  -12.3053   18.7194 C   0  0  0  0  0  0
  -27.6195  -13.2728   19.8362 C   0  0  2  0  0  0
  -28.6507  -13.4213   20.9781 C   0  0  0  0  0  0
  -25.2420  -13.8250   20.5751 C   0  0  0  0  0  0
  -24.1757  -13.0436   20.9239 C   0  0  0  0  0  0
  -24.6409  -11.6930   20.8750 C   0  0  0  0  0  0
  -23.9094  -10.4287   21.0389 C   0  0  0  0  0  0
  -24.3637   -9.4203   21.9168 C   0  0  0  0  0  0
  -23.6302   -8.2240   22.0745 C   0  0  0  0  0  0
  -22.4281   -8.0281   21.3537 C   0  0  0  0  0  0
  -21.9923   -9.0250   20.4633 C   0  0  0  0  0  0
  -22.7261  -10.2127   20.3043 C   0  0  0  0  0  0
  -21.6855   -6.0733   22.5268 C   0  0  0  0  0  0
  -21.4016   -6.5633   23.8204 C   0  0  0  0  0  0
  -21.3662   -5.6785   24.9165 C   0  0  0  0  0  0
  -21.6051   -4.3048   24.7210 C   0  0  0  0  0  0
  -21.8819   -3.8141   23.4330 C   0  0  0  0  0  0
  -21.9192   -4.6959   22.3393 C   0  0  0  0  0  0
  -22.7774  -13.5195   21.1868 C   0  0  0  0  0  0
  -22.1663   -4.2151   21.0966 F   0  0  0  0  0  0
  -21.5634   -3.4530   25.7723 F   0  0  0  0  0  0
  -29.8947  -13.9219   20.3706 N   0  0  0  0  0  0
  -26.2850  -12.9518   20.3247 N   0  0  0  0  0  0
  -25.9353  -11.6622   20.5728 N   0  0  0  0  0  0
  -22.0430  -12.8191   22.0435 N   0  0  0  0  0  0
  -25.4057  -15.1980   20.4200 N   0  0  0  0  0  0
  -31.6337  -15.2652   20.0481 O   0  0  0  0  0  0
  -21.6641   -6.8884   21.4236 O   0  0  0  0  0  0
  -22.3454  -14.5481   20.6685 O   0  0  0  0  0  0
  -24.6612  -31.8251   23.1729 C   0  0  0  0  0  0
  -25.9306  -32.4592   23.8181 C   0  0  1  0  0  0
  -27.2076  -26.9248   20.1905 C   0  0  0  0  0  0
  -25.5979  -33.8409   24.2089 N   0  0  0  0  0  0
  -23.4751  -30.4384   21.5210 C   0  0  2  0  0  0
  -24.9294  -28.8298   20.1076 C   0  0  0  0  0  0
  -22.7655  -29.4456   22.4780 C   0  0  0  0  0  0
  -18.0322  -28.1426   22.8458 C   0  0  0  0  0  0
  -24.1493  -36.7206   23.2646 C   0  0  0  0  0  0
  -26.0437  -30.6268   21.4089 C   0  0  0  0  0  0
  -26.1088  -29.2172   20.7550 C   0  0  0  0  0  0
  -27.2389  -28.2836   20.7803 C   0  0  0  0  0  0
  -26.0209  -26.7167   19.4493 C   0  0  0  0  0  0
  -24.9112  -27.5991   19.4336 C   0  0  0  0  0  0
  -23.7147  -29.7568   20.1457 C   0  0  0  0  0  0
  -25.4138  -36.2977   24.0300 C   0  0  1  0  0  0
  -20.5946  -28.3764   23.1181 C   0  0  2  0  0  0
  -20.6802  -26.9443   22.5401 C   0  0  0  0  0  0
  -19.5784  -26.6384   21.5209 C   0  0  0  0  0  0
  -18.1965  -26.7958   22.1614 C   0  0  0  0  0  0
  -19.1585  -28.8915   23.2806 C   0  0  0  0  0  0
  -18.9497  -30.1511   23.8837 C   0  0  0  0  0  0
  -17.6491  -30.6608   24.0561 C   0  0  0  0  0  0
  -25.9103  -34.9351   23.5015 C   0  0  0  0  0  0
  -16.5381  -29.9097   23.6353 C   0  0  0  0  0  0
  -16.7306  -28.6524   23.0356 C   0  0  0  0  0  0
  -26.4559  -31.6539   25.0712 C   0  0  0  0  0  0
  -25.3673  -31.3793   26.1360 C   0  0  0  0  0  0
  -27.0462  -30.2902   24.6467 C   0  0  0  0  0  0
  -27.6060  -32.4346   25.7506 C   0  0  0  0  0  0
  -27.5570  -37.1773   24.8474 C   0  0  0  0  0  0
  -21.4327  -29.3050   22.3522 N   0  0  0  0  0  0
  -26.4290  -37.3708   23.9397 N   0  0  0  0  0  0
  -24.7478  -30.9906   22.0873 N   0  0  0  0  0  0
  -23.4208  -28.8033   23.3027 O   0  0  0  0  0  0
  -28.1899  -25.8021   20.3169 O   0  0  0  0  0  0
  -26.5712  -34.8881   22.4612 O   0  0  0  0  0  0
  -23.5685  -32.1223   23.6823 O   0  0  0  0  0  0
  -26.6498  -23.8595   20.9105 C   0  0  0  0  0  0
  -29.6659  -18.0800   20.0013 C   0  0  0  0  0  0
  -29.2355  -19.6688   20.7374 C   0  0  0  0  0  0
  -28.9415  -22.7059   20.5650 C   0  0  0  0  0  0
  -27.9574  -24.1619   20.1518 C   0  0  2  0  0  0
  -29.6611  -16.4899   20.5348 N   0  0  0  0  0  0
  -28.8609  -21.1280   20.0123 N   0  3  0  0  0  0
  -31.4688  -12.9636   19.2271 H   0  0  0  0  0  0
  -30.4875  -11.8630   20.1381 H   0  0  0  0  0  0
  -29.9165  -11.7572   17.6856 H   0  0  0  0  0  0
  -29.5802  -13.4720   17.6767 H   0  0  0  0  0  0
  -28.0362  -11.2769   19.0805 H   0  0  0  0  0  0
  -27.4226  -12.3589   17.8568 H   0  0  0  0  0  0
  -27.5472  -14.2484   19.3538 H   0  0  0  0  0  0
  -28.8061  -12.4750   21.5004 H   0  0  0  0  0  0
  -28.2964  -14.1323   21.7256 H   0  0  0  0  0  0
  -25.2783   -9.5679   22.4739 H   0  0  0  0  0  0
  -24.0005   -7.4641   22.7479 H   0  0  0  0  0  0
  -21.0848   -8.8769   19.8948 H   0  0  0  0  0  0
  -22.3713  -10.9659   19.6153 H   0  0  0  0  0  0
  -21.2010   -7.6141   23.9710 H   0  0  0  0  0  0
  -21.1492   -6.0510   25.9073 H   0  0  0  0  0  0
  -22.0601   -2.7600   23.2820 H   0  0  0  0  0  0
  -22.4074  -11.9878   22.4840 H   0  0  0  0  0  0
  -21.1034  -13.1191   22.2619 H   0  0  0  0  0  0
  -24.6344  -15.8466   20.5347 H   0  0  0  0  0  0
  -26.2434  -15.6389   20.0621 H   0  0  0  0  0  0
  -26.7370  -32.5127   23.0890 H   0  0  0  0  0  0
  -25.0069  -33.9492   25.0199 H   0  0  0  0  0  0
  -22.7870  -31.2705   21.3541 H   0  0  0  0  0  0
  -23.3768  -35.9527   23.3304 H   0  0  0  0  0  0
  -24.3559  -36.8854   22.2061 H   0  0  0  0  0  0
  -23.7243  -37.6391   23.6700 H   0  0  0  0  0  0
  -26.2282  -31.3656   20.6284 H   0  0  0  0  0  0
  -26.9020  -30.6822   22.0655 H   0  0  0  0  0  0
  -28.1197  -28.5699   21.3376 H   0  0  0  0  0  0
  -25.9079  -25.7914   18.9035 H   0  0  0  0  0  0
  -24.0223  -27.3042   18.8923 H   0  0  0  0  0  0
  -23.8668  -30.5278   19.3896 H   0  0  0  0  0  0
  -22.8237  -29.2118   19.8286 H   0  0  0  0  0  0
  -25.1341  -36.1783   25.0794 H   0  0  0  0  0  0
  -21.0032  -28.3388   24.1307 H   0  0  0  0  0  0
  -20.5684  -26.2387   23.3647 H   0  0  0  0  0  0
  -21.6672  -26.7428   22.1215 H   0  0  0  0  0  0
  -19.6946  -25.6280   21.1283 H   0  0  0  0  0  0
  -19.6737  -27.3158   20.6712 H   0  0  0  0  0  0
  -17.4236  -26.6687   21.4020 H   0  0  0  0  0  0
  -18.0370  -26.0117   22.9027 H   0  0  0  0  0  0
  -19.7971  -30.7346   24.2168 H   0  0  0  0  0  0
  -17.5044  -31.6280   24.5182 H   0  0  0  0  0  0
  -15.5382  -30.2981   23.7715 H   0  0  0  0  0  0
  -15.8704  -28.0831   22.7092 H   0  0  0  0  0  0
  -24.5876  -30.7127   25.7656 H   0  0  0  0  0  0
  -24.8831  -32.2989   26.4649 H   0  0  0  0  0  0
  -25.7882  -30.9042   27.0227 H   0  0  0  0  0  0
  -26.3135  -29.6569   24.1453 H   0  0  0  0  0  0
  -27.3957  -29.7288   25.5141 H   0  0  0  0  0  0
  -27.9093  -30.4080   23.9916 H   0  0  0  0  0  0
  -27.2646  -33.3696   26.1959 H   0  0  0  0  0  0
  -28.3929  -32.6828   25.0371 H   0  0  0  0  0  0
  -28.0663  -31.8554   26.5519 H   0  0  0  0  0  0
  -28.2603  -38.0055   24.7494 H   0  0  0  0  0  0
  -28.1057  -36.2584   24.6351 H   0  0  0  0  0  0
  -27.2276  -37.1469   25.8875 H   0  0  0  0  0  0
  -20.9582  -29.8719   21.6633 H   0  0  0  0  0  0
  -26.0147  -38.2776   24.1383 H   0  0  0  0  0  0
  -26.3083  -22.8469   20.6974 H   0  0  0  0  0  0
  -25.8186  -24.5117   20.6692 H   0  0  0  0  0  0
  -26.8096  -23.9294   21.9859 H   0  0  0  0  0  0
  -30.6571  -18.2186   19.5691 H   0  0  0  0  0  0
  -29.0142  -18.0193   19.1296 H   0  0  0  0  0  0
  -30.0572  -19.9012   21.4145 H   0  0  0  0  0  0
  -28.3915  -19.4765   21.3995 H   0  0  0  0  0  0
  -28.9073  -22.6222   21.6516 H   0  0  0  0  0  0
  -29.9730  -22.9953   20.3673 H   0  0  0  0  0  0
  -27.7558  -24.0607   19.0852 H   0  0  0  0  0  0
  -28.7573  -16.2604   20.9236 H   0  0  0  0  0  0
  -27.9102  -21.0039   19.7036 H   0  0  0  0  0  0
  -29.4024  -21.1388   19.1623 H   0  0  0  0  0  0
  1 25  1  0  0  0
  1 30  2  0  0  0
  1 76  1  0  0  0
  2  3  1  0  0  0
  2 25  1  0  0  0
  2 78  1  0  0  0
  2 79  1  0  0  0
  3  4  1  0  0  0
  3 80  1  0  0  0
  3 81  1  0  0  0
  4  5  1  0  0  0
  4 82  1  0  0  0
  4 83  1  0  0  0
  5  6  1  0  0  0
  5 26  1  0  0  0
  5 84  1  0  0  0
  6 25  1  0  0  0
  6 85  1  0  0  0
  6 86  1  0  0  0
  7  8  2  0  0  0
  7 26  1  0  0  0
  7 29  1  0  0  0
  8  9  1  0  0  0
  8 22  1  0  0  0
  9 10  1  0  0  0
  9 27  2  0  0  0
 10 11  2  0  0  0
 10 15  1  0  0  0
 11 12  1  0  0  0
 11 87  1  0  0  0
 12 13  2  0  0  0
 12 88  1  0  0  0
 13 14  1  0  0  0
 13 31  1  0  0  0
 14 15  2  0  0  0
 14 89  1  0  0  0
 15 90  1  0  0  0
 16 17  2  0  0  0
 16 21  1  0  0  0
 16 31  1  0  0  0
 17 18  1  0  0  0
 17 91  1  0  0  0
 18 19  2  0  0  0
 18 92  1  0  0  0
 19 20  1  0  0  0
 19 24  1  0  0  0
 20 21  2  0  0  0
 20 93  1  0  0  0
 21 23  1  0  0  0
 22 28  1  0  0  0
 22 32  2  0  0  0
 26 27  1  0  0  0
 28 94  1  0  0  0
 28 95  1  0  0  0
 29 96  1  0  0  0
 29 97  1  0  0  0
 33 34  1  0  0  0
 33 66  1  0  0  0
 33 70  2  0  0  0
 34 36  1  0  0  0
 34 59  1  0  0  0
 34 98  1  0  0  0
 35 44  2  0  0  0
 35 45  1  0  0  0
 35 68  1  0  0  0
 36 56  1  0  0  0
 36 99  1  0  0  0
 37 39  1  0  0  0
 37 47  1  0  0  0
 37 66  1  0  0  0
 37100  1  0  0  0
 38 43  2  0  0  0
 38 46  1  0  0  0
 38 47  1  0  0  0
 39 64  1  0  0  0
 39 67  2  0  0  0
 40 52  1  0  0  0
 40 53  2  0  0  0
 40 58  1  0  0  0
 41101  1  0  0  0
 41102  1  0  0  0
 41103  1  0  0  0
 41 48  1  0  0  0
 42 43  1  0  0  0
 42 66  1  0  0  0
 42104  1  0  0  0
 42105  1  0  0  0
 43 44  1  0  0  0
 44106  1  0  0  0
 45 46  2  0  0  0
 45107  1  0  0  0
 46108  1  0  0  0
 47109  1  0  0  0
 47110  1  0  0  0
 48 56  1  0  0  0
 48 65  1  0  0  0
 48111  1  0  0  0
 49 50  1  0  0  0
 49 53  1  0  0  0
 49 64  1  0  0  0
 49112  1  0  0  0
 50 51  1  0  0  0
 50113  1  0  0  0
 50114  1  0  0  0
 51 52  1  0  0  0
 51115  1  0  0  0
 51116  1  0  0  0
 52117  1  0  0  0
 52118  1  0  0  0
 53 54  1  0  0  0
 54 55  2  0  0  0
 54119  1  0  0  0
 55 57  1  0  0  0
 55120  1  0  0  0
 56 69  2  0  0  0
 57 58  2  0  0  0
 57121  1  0  0  0
 58122  1  0  0  0
 59 60  1  0  0  0
 59 61  1  0  0  0
 59 62  1  0  0  0
 60123  1  0  0  0
 60124  1  0  0  0
 60125  1  0  0  0
 61126  1  0  0  0
 61127  1  0  0  0
 61128  1  0  0  0
 62129  1  0  0  0
 62130  1  0  0  0
 62131  1  0  0  0
 63 65  1  0  0  0
 63132  1  0  0  0
 63133  1  0  0  0
 63134  1  0  0  0
 64135  1  0  0  0
 65136  1  0  0  0
 68 75  1  0  0  0
 71137  1  0  0  0
 71138  1  0  0  0
 71139  1  0  0  0
 71 75  1  0  0  0
 72 73  1  0  0  0
 72 76  1  0  0  0
 72140  1  0  0  0
 72141  1  0  0  0
 73 77  1  0  0  0
 73142  1  0  0  0
 73143  1  0  0  0
 74 75  1  0  0  0
 74 77  1  0  0  0
 74144  1  0  0  0
 74145  1  0  0  0
 75146  1  0  0  0
 76147  1  0  0  0
 77148  1  0  0  0
 77149  1  0  0  0
M  CHG  1  77   1
M  ISO  4   1 100  68 101  75 101  76 100
M  END
> <chiral flag>
0

> <version>
0

> <s_m_source_file>
/data/baiqing/PycharmProjects/Reinvent-master-3.2/result/LINK_invent/BTK/process_docking_weight1_custom_sum_contain_oxygen_bond_distance_aromatic_linkinvent_7_9_3/rearranged_h_0109.sdf

> <i_m_source_file_index>
29

> <r_mmod_Potential_Energy-OPLS-2005>
1094.20129394531

> <r_mmod_Stretch_Energy-OPLS-2005>
612.753479003906

> <r_mmod_Bend_Energy-OPLS-2005>
449.943939208984

> <r_mmod_Torsional_Energy-OPLS-2005>
232.522186279297

> <r_mmod_Improper_Torsional_Energy-OPLS-2005>
4.51150703430176

> <r_mmod_Van_der_Waal_Energy-OPLS-2005>
114.580406188965

> <r_mmod_Electrostatic_Energy-OPLS-2005>
-283.665954589844

> <r_mmod_Solvation_Energy-OPLS-2005>
-485.008087158203

> <b_mmod_Minimization_Converged-OPLS-2005>
0

> <r_mmod_RMS_Derivative-OPLS-2005>
1.58340978622437

$$$$
29
                    3D
 Structure written by MMmdl.
157165  0  0  1  0            999 V2000
  -30.4471  -15.0130   20.4066 C   0  0  0  0  0  0
  -30.4378  -12.6377   19.5012 C   0  0  0  0  0  0
  -29.5264  -12.5413   18.2552 C   0  0  0  0  0  0
  -28.0629  -12.2953   18.6731 C   0  0  0  0  0  0
  -27.6197  -13.2382   19.8179 C   0  0  2  0  0  0
  -28.6478  -13.2820   20.9619 C   0  0  0  0  0  0
  -25.2443  -13.8201   20.5595 C   0  0  0  0  0  0
  -24.1760  -13.0473   20.9214 C   0  0  0  0  0  0
  -24.6330  -11.6941   20.8755 C   0  0  0  0  0  0
  -23.8993  -10.4332   21.0430 C   0  0  0  0  0  0
  -24.3605   -9.4267   21.9180 C   0  0  0  0  0  0
  -23.6320   -8.2264   22.0730 C   0  0  0  0  0  0
  -22.4298   -8.0287   21.3516 C   0  0  0  0  0  0
  -21.9909   -9.0255   20.4631 C   0  0  0  0  0  0
  -22.7190  -10.2156   20.3064 C   0  0  0  0  0  0
  -21.6881   -6.0751   22.5280 C   0  0  0  0  0  0
  -21.4008   -6.5665   23.8214 C   0  0  0  0  0  0
  -21.3656   -5.6795   24.9160 C   0  0  0  0  0  0
  -21.6054   -4.3061   24.7208 C   0  0  0  0  0  0
  -21.8820   -3.8168   23.4319 C   0  0  0  0  0  0
  -21.9207   -4.6980   22.3385 C   0  0  0  0  0  0
  -22.7784  -13.5299   21.1858 C   0  0  0  0  0  0
  -22.1684   -4.2199   21.0960 F   0  0  0  0  0  0
  -21.5617   -3.4538   25.7703 F   0  0  0  0  0  0
  -29.9103  -13.7276   20.3697 N   0  0  0  0  0  0
  -26.2824  -12.9387   20.3086 N   0  0  0  0  0  0
  -25.9262  -11.6532   20.5663 N   0  0  0  0  0  0
  -22.0408  -12.8317   22.0414 N   0  0  0  0  0  0
  -25.4101  -15.1891   20.3763 N   0  0  0  0  0  0
  -31.6580  -15.1077   20.1587 O   0  0  0  0  0  0
  -21.6652   -6.8902   21.4234 O   0  0  0  0  0  0
  -22.3485  -14.5605   20.6680 O   0  0  0  0  0  0
  -24.6446  -31.8401   23.1888 C   0  0  0  0  0  0
  -25.9206  -32.4678   23.8259 C   0  0  1  0  0  0
  -27.2149  -27.1147   20.1372 C   0  0  0  0  0  0
  -25.5948  -33.8481   24.2165 N   0  0  0  0  0  0
  -23.4501  -30.4598   21.5340 C   0  0  2  0  0  0
  -24.8983  -28.8856   20.1072 C   0  0  0  0  0  0
  -22.7571  -29.4510   22.4847 C   0  0  0  0  0  0
  -18.0301  -28.1371   22.8486 C   0  0  0  0  0  0
  -24.1505  -36.7246   23.2641 C   0  0  0  0  0  0
  -26.0073  -30.7058   21.3938 C   0  0  0  0  0  0
  -26.0739  -29.3161   20.7324 C   0  0  0  0  0  0
  -27.2275  -28.4416   20.7374 C   0  0  0  0  0  0
  -26.0132  -26.8008   19.4603 C   0  0  0  0  0  0
  -24.8827  -27.6443   19.4591 C   0  0  0  0  0  0
  -23.6762  -29.7858   20.1537 C   0  0  0  0  0  0
  -25.4133  -36.3019   24.0310 C   0  0  1  0  0  0
  -20.5931  -28.3698   23.1231 C   0  0  2  0  0  0
  -20.6787  -26.9401   22.5382 C   0  0  0  0  0  0
  -19.5749  -26.6364   21.5194 C   0  0  0  0  0  0
  -18.1936  -26.7904   22.1635 C   0  0  0  0  0  0
  -19.1572  -28.8853   23.2847 C   0  0  0  0  0  0
  -18.9471  -30.1462   23.8856 C   0  0  0  0  0  0
  -17.6479  -30.6586   24.0539 C   0  0  0  0  0  0
  -25.9071  -34.9393   23.5042 C   0  0  0  0  0  0
  -16.5365  -29.9068   23.6339 C   0  0  0  0  0  0
  -16.7297  -28.6480   23.0363 C   0  0  0  0  0  0
  -26.4526  -31.6567   25.0718 C   0  0  0  0  0  0
  -25.3712  -31.3777   26.1428 C   0  0  0  0  0  0
  -27.0385  -30.2962   24.6320 C   0  0  0  0  0  0
  -27.6093  -32.4309   25.7480 C   0  0  0  0  0  0
  -27.5569  -37.1790   24.8462 C   0  0  0  0  0  0
  -21.4260  -29.3033   22.3599 N   0  0  0  0  0  0
  -26.4287  -37.3736   23.9397 N   0  0  0  0  0  0
  -24.7214  -31.0234   22.0935 N   0  0  0  0  0  0
  -23.4185  -28.8040   23.2992 O   0  0  0  0  0  0
  -28.2685  -26.1253   20.2546 O   0  0  0  0  0  0
  -26.5646  -34.8903   22.4621 O   0  0  0  0  0  0
  -23.5560  -32.1263   23.7107 O   0  0  0  0  0  0
  -27.1060  -20.4446   21.0477 C   0  0  0  0  0  0
  -27.5002  -18.2619   21.2316 C   0  0  0  0  0  0
  -26.5499  -19.2163   21.4604 C   0  0  0  0  0  0
  -28.3778  -20.2878   20.5661 C   0  0  0  0  0  0
  -25.1597  -19.0394   22.0185 C   0  0  0  0  0  0
  -29.0735  -24.7594   18.4578 C   0  0  0  0  0  0
  -29.0531  -21.6681   20.0139 C   0  0  0  0  0  0
  -28.6954  -23.2465   20.5879 C   0  0  0  0  0  0
  -29.7962  -17.7356   20.3076 C   0  0  0  0  0  0
  -28.2377  -24.6437   19.7374 C   0  0  1  0  0  0
  -28.6566  -18.7972   20.6525 N   0  0  0  0  0  0
  -29.5976  -16.1598   20.5127 N   0  0  0  0  0  0
  -31.4686  -12.8323   19.1959 H   0  0  0  0  0  0
  -30.4622  -11.6917   20.0419 H   0  0  0  0  0  0
  -29.8754  -11.7447   17.5977 H   0  0  0  0  0  0
  -29.5859  -13.4664   17.6810 H   0  0  0  0  0  0
  -27.9921  -11.2603   19.0096 H   0  0  0  0  0  0
  -27.3954  -12.3879   17.8172 H   0  0  0  0  0  0
  -27.5796  -14.2317   19.3667 H   0  0  0  0  0  0
  -28.7587  -12.3099   21.4440 H   0  0  0  0  0  0
  -28.3250  -13.9771   21.7382 H   0  0  0  0  0  0
  -25.2742   -9.5813   22.4757 H   0  0  0  0  0  0
  -24.0076   -7.4683   22.7477 H   0  0  0  0  0  0
  -21.0848   -8.8760   19.8956 H   0  0  0  0  0  0
  -22.3643  -10.9681   19.6193 H   0  0  0  0  0  0
  -21.1995   -7.6166   23.9754 H   0  0  0  0  0  0
  -21.1468   -6.0492   25.9084 H   0  0  0  0  0  0
  -22.0610   -2.7641   23.2777 H   0  0  0  0  0  0
  -22.3996  -12.0026   22.4879 H   0  0  0  0  0  0
  -21.1020  -13.1362   22.2567 H   0  0  0  0  0  0
  -24.5812  -15.7759   20.3612 H   0  0  0  0  0  0
  -26.1480  -15.5469   19.7841 H   0  0  0  0  0  0
  -26.7243  -32.5264   23.0965 H   0  0  0  0  0  0
  -25.0120  -33.9579   25.0329 H   0  0  0  0  0  0
  -22.7531  -31.2877   21.3786 H   0  0  0  0  0  0
  -23.3770  -35.9573   23.3295 H   0  0  0  0  0  0
  -24.3595  -36.8876   22.2052 H   0  0  0  0  0  0
  -23.7246  -37.6444   23.6672 H   0  0  0  0  0  0
  -26.1641  -31.4602   20.6225 H   0  0  0  0  0  0
  -26.8766  -30.7534   22.0381 H   0  0  0  0  0  0
  -28.1205  -28.7611   21.2593 H   0  0  0  0  0  0
  -25.8951  -25.8635   18.9436 H   0  0  0  0  0  0
  -23.9867  -27.3116   18.9549 H   0  0  0  0  0  0
  -23.8107  -30.5558   19.3947 H   0  0  0  0  0  0
  -22.7921  -29.2241   19.8470 H   0  0  0  0  0  0
  -25.1338  -36.1856   25.0797 H   0  0  0  0  0  0
  -21.0019  -28.3277   24.1365 H   0  0  0  0  0  0
  -20.5701  -26.2292   23.3590 H   0  0  0  0  0  0
  -21.6643  -26.7426   22.1171 H   0  0  0  0  0  0
  -19.6914  -25.6261   21.1247 H   0  0  0  0  0  0
  -19.6698  -27.3158   20.6697 H   0  0  0  0  0  0
  -17.4201  -26.6637   21.4041 H   0  0  0  0  0  0
  -18.0386  -26.0064   22.9061 H   0  0  0  0  0  0
  -19.7946  -30.7279   24.2222 H   0  0  0  0  0  0
  -17.5025  -31.6289   24.5105 H   0  0  0  0  0  0
  -15.5353  -30.2942   23.7709 H   0  0  0  0  0  0
  -15.8687  -28.0782   22.7104 H   0  0  0  0  0  0
  -24.5758  -30.7320   25.7682 H   0  0  0  0  0  0
  -24.9089  -32.2998   26.4973 H   0  0  0  0  0  0
  -25.7963  -30.8759   27.0135 H   0  0  0  0  0  0
  -26.2995  -29.6682   24.1342 H   0  0  0  0  0  0
  -27.3988  -29.7282   25.4907 H   0  0  0  0  0  0
  -27.8917  -30.4185   23.9646 H   0  0  0  0  0  0
  -27.2733  -33.3633   26.2033 H   0  0  0  0  0  0
  -28.3931  -32.6820   25.0314 H   0  0  0  0  0  0
  -28.0740  -31.8435   26.5417 H   0  0  0  0  0  0
  -28.2608  -38.0073   24.7518 H   0  0  0  0  0  0
  -28.1060  -36.2613   24.6318 H   0  0  0  0  0  0
  -27.2281  -37.1456   25.8862 H   0  0  0  0  0  0
  -20.9452  -29.8733   21.6785 H   0  0  0  0  0  0
  -26.0169  -38.2813   24.1395 H   0  0  0  0  0  0
  -26.5806  -21.3899   21.0837 H   0  0  0  0  0  0
  -27.4142  -17.2020   21.4282 H   0  0  0  0  0  0
  -24.4740  -19.7293   21.5221 H   0  0  0  0  0  0
  -25.1462  -19.2611   23.0864 H   0  0  0  0  0  0
  -24.7912  -18.0251   21.8606 H   0  0  0  0  0  0
  -29.0998  -23.8213   17.9071 H   0  0  0  0  0  0
  -30.1012  -25.0434   18.6864 H   0  0  0  0  0  0
  -28.6655  -25.5150   17.7870 H   0  0  0  0  0  0
  -28.8600  -21.6860   18.9423 H   0  0  0  0  0  0
  -30.1335  -21.5456   20.0853 H   0  0  0  0  0  0
  -29.6060  -23.5460   21.1107 H   0  0  0  0  0  0
  -27.9715  -23.1418   21.3961 H   0  0  0  0  0  0
  -30.6885  -18.0304   20.8592 H   0  0  0  0  0  0
  -30.0398  -17.8816   19.2547 H   0  0  0  0  0  0
  -27.2247  -24.4134   19.4221 H   0  0  0  0  0  0
  -28.6320  -15.9018   20.6499 H   0  0  0  0  0  0
  1 25  1  0  0  0
  1 30  2  0  0  0
  1 82  1  0  0  0
  2  3  1  0  0  0
  2 25  1  0  0  0
  2 83  1  0  0  0
  2 84  1  0  0  0
  3  4  1  0  0  0
  3 85  1  0  0  0
  3 86  1  0  0  0
  4  5  1  0  0  0
  4 87  1  0  0  0
  4 88  1  0  0  0
  5  6  1  0  0  0
  5 26  1  0  0  0
  5 89  1  0  0  0
  6 25  1  0  0  0
  6 90  1  0  0  0
  6 91  1  0  0  0
  7  8  2  0  0  0
  7 26  1  0  0  0
  7 29  1  0  0  0
  8  9  1  0  0  0
  8 22  1  0  0  0
  9 10  1  0  0  0
  9 27  2  0  0  0
 10 11  2  0  0  0
 10 15  1  0  0  0
 11 12  1  0  0  0
 11 92  1  0  0  0
 12 13  2  0  0  0
 12 93  1  0  0  0
 13 14  1  0  0  0
 13 31  1  0  0  0
 14 15  2  0  0  0
 14 94  1  0  0  0
 15 95  1  0  0  0
 16 17  2  0  0  0
 16 21  1  0  0  0
 16 31  1  0  0  0
 17 18  1  0  0  0
 17 96  1  0  0  0
 18 19  2  0  0  0
 18 97  1  0  0  0
 19 20  1  0  0  0
 19 24  1  0  0  0
 20 21  2  0  0  0
 20 98  1  0  0  0
 21 23  1  0  0  0
 22 28  1  0  0  0
 22 32  2  0  0  0
 26 27  1  0  0  0
 28 99  1  0  0  0
 28100  1  0  0  0
 29101  1  0  0  0
 29102  1  0  0  0
 33 34  1  0  0  0
 33 66  1  0  0  0
 33 70  2  0  0  0
 34 36  1  0  0  0
 34 59  1  0  0  0
 34103  1  0  0  0
 35 44  2  0  0  0
 35 45  1  0  0  0
 35 68  1  0  0  0
 36 56  1  0  0  0
 36104  1  0  0  0
 37 39  1  0  0  0
 37 47  1  0  0  0
 37 66  1  0  0  0
 37105  1  0  0  0
 38 43  2  0  0  0
 38 46  1  0  0  0
 38 47  1  0  0  0
 39 64  1  0  0  0
 39 67  2  0  0  0
 40 52  1  0  0  0
 40 53  2  0  0  0
 40 58  1  0  0  0
 41106  1  0  0  0
 41107  1  0  0  0
 41108  1  0  0  0
 41 48  1  0  0  0
 42 43  1  0  0  0
 42 66  1  0  0  0
 42109  1  0  0  0
 42110  1  0  0  0
 43 44  1  0  0  0
 44111  1  0  0  0
 45 46  2  0  0  0
 45112  1  0  0  0
 46113  1  0  0  0
 47114  1  0  0  0
 47115  1  0  0  0
 48 56  1  0  0  0
 48 65  1  0  0  0
 48116  1  0  0  0
 49 50  1  0  0  0
 49 53  1  0  0  0
 49 64  1  0  0  0
 49117  1  0  0  0
 50 51  1  0  0  0
 50118  1  0  0  0
 50119  1  0  0  0
 51 52  1  0  0  0
 51120  1  0  0  0
 51121  1  0  0  0
 52122  1  0  0  0
 52123  1  0  0  0
 53 54  1  0  0  0
 54 55  2  0  0  0
 54124  1  0  0  0
 55 57  1  0  0  0
 55125  1  0  0  0
 56 69  2  0  0  0
 57 58  2  0  0  0
 57126  1  0  0  0
 58127  1  0  0  0
 59 60  1  0  0  0
 59 61  1  0  0  0
 59 62  1  0  0  0
 60128  1  0  0  0
 60129  1  0  0  0
 60130  1  0  0  0
 61131  1  0  0  0
 61132  1  0  0  0
 61133  1  0  0  0
 62134  1  0  0  0
 62135  1  0  0  0
 62136  1  0  0  0
 63 65  1  0  0  0
 63137  1  0  0  0
 63138  1  0  0  0
 63139  1  0  0  0
 64140  1  0  0  0
 65141  1  0  0  0
 68 80  1  0  0  0
 71 73  1  0  0  0
 71 74  2  0  0  0
 71142  1  0  0  0
 72 73  2  0  0  0
 72 81  1  0  0  0
 72143  1  0  0  0
 73 75  1  0  0  0
 74 77  1  0  0  0
 74 81  1  0  0  0
 75144  1  0  0  0
 75145  1  0  0  0
 75146  1  0  0  0
 76147  1  0  0  0
 76148  1  0  0  0
 76149  1  0  0  0
 76 80  1  0  0  0
 77 78  1  0  0  0
 77150  1  0  0  0
 77151  1  0  0  0
 78 80  1  0  0  0
 78152  1  0  0  0
 78153  1  0  0  0
 79 81  1  0  0  0
 79 82  1  0  0  0
 79154  1  0  0  0
 79155  1  0  0  0
 80156  1  0  0  0
 82157  1  0  0  0
M  ISO  4   1 100  68 101  80 101  82 100
M  END
> <chiral flag>
0

> <version>
0

> <s_m_source_file>
/data/baiqing/PycharmProjects/Reinvent-master-3.2/result/LINK_invent/BTK/process_docking_weight1_custom_sum_contain_oxygen_bond_distance_aromatic_linkinvent_7_9_3/rearranged_h_0109.sdf

> <i_m_source_file_index>
30

> <r_mmod_Potential_Energy-OPLS-2005>
567.764038085938

> <r_mmod_Stretch_Energy-OPLS-2005>
313.908325195312

> <r_mmod_Bend_Energy-OPLS-2005>
326.255035400391

> <r_mmod_Torsional_Energy-OPLS-2005>
227.982894897461

> <r_mmod_Improper_Torsional_Energy-OPLS-2005>
7.63622713088989

> <r_mmod_Van_der_Waal_Energy-OPLS-2005>
108.113540649414

> <r_mmod_Electrostatic_Energy-OPLS-2005>
-443.472778320312

> <r_mmod_Solvation_Energy-OPLS-2005>
-208.079788208008

> <b_mmod_Minimization_Converged-OPLS-2005>
0

> <r_mmod_RMS_Derivative-OPLS-2005>
6.12426805496216

$$$$
30
                    3D
 Structure written by MMmdl.
180188  0  0  1  0            999 V2000
  -29.8391  -16.6164   19.8776 C   0  0  0  0  0  0
  -30.2927  -13.8252   19.3556 C   0  0  0  0  0  0
  -29.5471  -12.8902   18.3352 C   0  0  0  0  0  0
  -28.2398  -12.3267   18.8848 C   0  0  0  0  0  0
  -27.5551  -13.4051   19.7370 C   0  0  2  0  0  0
  -28.5087  -14.1877   20.7036 C   0  0  0  0  0  0
  -25.2239  -13.8396   20.5944 C   0  0  0  0  0  0
  -24.1718  -13.0437   20.9395 C   0  0  0  0  0  0
  -24.6544  -11.6991   20.8774 C   0  0  0  0  0  0
  -23.9259  -10.4282   21.0372 C   0  0  0  0  0  0
  -24.3758   -9.4165   21.9158 C   0  0  0  0  0  0
  -23.6370   -8.2207   22.0735 C   0  0  0  0  0  0
  -22.4329   -8.0286   21.3538 C   0  0  0  0  0  0
  -22.0021   -9.0268   20.4619 C   0  0  0  0  0  0
  -22.7404  -10.2134   20.3025 C   0  0  0  0  0  0
  -21.6831   -6.0769   22.5315 C   0  0  0  0  0  0
  -21.3947   -6.5640   23.8256 C   0  0  0  0  0  0
  -21.3659   -5.6775   24.9201 C   0  0  0  0  0  0
  -21.6047   -4.3050   24.7248 C   0  0  0  0  0  0
  -21.8787   -3.8166   23.4362 C   0  0  0  0  0  0
  -21.9192   -4.6990   22.3428 C   0  0  0  0  0  0
  -22.7695  -13.5085   21.1933 C   0  0  0  0  0  0
  -22.1655   -4.2146   21.1026 F   0  0  0  0  0  0
  -21.5685   -3.4557   25.7788 F   0  0  0  0  0  0
  -29.4517  -15.0775   19.8813 N   0  0  0  0  0  0
  -26.2799  -12.9939   20.3255 N   0  0  0  0  0  0
  -25.9531  -11.6915   20.5547 N   0  0  0  0  0  0
  -22.0318  -12.8154   22.0510 N   0  0  0  0  0  0
  -25.3602  -15.2161   20.4353 N   0  0  0  0  0  0
  -31.0888  -16.3856   19.9940 O   0  0  0  0  0  0
  -21.6618   -6.8940   21.4291 O   0  0  0  0  0  0
  -22.3342  -14.5289   20.6648 O   0  0  0  0  0  0
  -24.7573  -31.9496   22.8607 C   0  0  0  0  0  0
  -25.9838  -32.5203   23.6854 C   0  0  1  0  0  0
  -28.0368  -25.9673   20.7327 C   0  0  0  0  0  0
  -25.6157  -33.8694   24.1237 N   0  0  0  0  0  0
  -23.2468  -30.4211   21.1861 C   0  0  2  0  0  0
  -24.6630  -27.4477   20.1390 C   0  0  0  0  0  0
  -22.4439  -29.8562   22.4690 C   0  0  0  0  0  0
  -17.9711  -28.1506   22.8718 C   0  0  0  0  0  0
  -24.1482  -36.7309   23.2636 C   0  0  0  0  0  0
  -26.5905  -30.6211   21.1562 C   0  0  0  0  0  0
  -26.9066  -28.6883   20.5489 C   0  0  0  0  0  0
  -28.2055  -27.7121   20.6917 C   0  0  0  0  0  0
  -26.3925  -24.9685   20.5409 C   0  0  0  0  0  0
  -24.8009  -25.7534   20.1722 C   0  0  0  0  0  0
  -23.1095  -28.6363   20.2615 C   0  0  0  0  0  0
  -25.4202  -36.3142   24.0202 C   0  0  1  0  0  0
  -20.5142  -28.4222   23.1120 C   0  0  2  0  0  0
  -20.6066  -26.9691   22.5773 C   0  0  0  0  0  0
  -19.5189  -26.6637   21.5370 C   0  0  0  0  0  0
  -18.1470  -26.7925   22.2081 C   0  0  0  0  0  0
  -19.0898  -28.9025   23.3078 C   0  0  0  0  0  0
  -18.8954  -30.1668   23.8997 C   0  0  0  0  0  0
  -17.6039  -30.6852   24.0769 C   0  0  0  0  0  0
  -25.9295  -34.9764   23.4550 C   0  0  0  0  0  0
  -16.4942  -29.9347   23.6582 C   0  0  0  0  0  0
  -16.6756  -28.6749   23.0577 C   0  0  0  0  0  0
  -26.4533  -31.7615   25.0001 C   0  0  0  0  0  0
  -25.3283  -31.4487   26.0230 C   0  0  0  0  0  0
  -27.1387  -30.4772   24.5902 C   0  0  0  0  0  0
  -27.5598  -32.5660   25.7506 C   0  0  0  0  0  0
  -27.5633  -37.1800   24.8468 C   0  0  0  0  0  0
  -21.2128  -29.3946   22.2576 N   0  0  0  0  0  0
  -26.4245  -37.3947   23.9583 N   0  0  0  0  0  0
  -24.8657  -31.2838   21.6058 N   0  0  0  0  0  0
  -23.0110  -29.5024   23.5206 O   0  0  0  0  0  0
  -29.1215  -25.5975   21.3035 O   0  0  0  0  0  0
  -26.5967  -34.9494   22.4192 O   0  0  0  0  0  0
  -23.6639  -32.2095   23.4008 O   0  0  0  0  0  0
  -25.0113  -28.9821   21.7119 C   0  0  0  0  0  0
  -25.1316  -29.5591   19.5699 C   0  0  0  0  0  0
  -26.1977  -26.9044   21.6620 C   0  0  0  0  0  0
  -25.6429  -27.8881   22.5099 C   0  0  0  0  0  0
  -25.9773  -28.3427   18.4494 C   0  0  0  0  0  0
  -26.6137  -26.8133   19.1793 C   0  0  0  0  0  0
  -24.7842  -26.5012   24.4513 C   0  0  0  0  0  0
  -27.7149  -28.8297   16.7125 C   0  0  0  0  0  0
  -25.3598  -29.7349   16.4235 C   0  0  0  0  0  0
  -29.7648  -20.3938   17.9843 C   0  0  0  0  0  0
  -29.9021  -20.8062   20.4506 C   0  0  0  0  0  0
  -27.5330  -24.7711   18.4661 C   0  0  0  0  0  0
  -27.8444  -22.4397   18.9835 C   0  0  0  0  0  0
  -28.5536  -26.9063   23.5638 C   0  0  0  0  0  0
  -27.2760  -27.0962   24.4987 C   0  0  0  0  0  0
  -28.8623  -25.5583   22.7511 C   0  0  0  0  0  0
  -25.7987  -27.5696   24.0181 C   0  0  1  0  0  0
  -26.2203  -28.5957   16.9787 C   0  0  0  0  0  0
  -28.9827  -20.3644   19.2939 C   0  0  0  0  0  0
  -29.1471  -18.2659   19.6256 N   0  0  0  0  0  0
  -31.1555  -14.2201   18.8143 H   0  0  0  0  0  0
  -30.7485  -13.2548   20.1719 H   0  0  0  0  0  0
  -30.2090  -12.0872   18.0089 H   0  0  0  0  0  0
  -29.3124  -13.4874   17.4550 H   0  0  0  0  0  0
  -28.4752  -11.4676   19.5096 H   0  0  0  0  0  0
  -27.6030  -11.9488   18.0838 H   0  0  0  0  0  0
  -27.2655  -14.1408   18.9839 H   0  0  0  0  0  0
  -29.0118  -13.5122   21.3963 H   0  0  0  0  0  0
  -27.9318  -14.8660   21.3303 H   0  0  0  0  0  0
  -25.2920   -9.5549   22.4764 H   0  0  0  0  0  0
  -23.9989   -7.4583   22.7517 H   0  0  0  0  0  0
  -21.0906   -8.8792   19.9013 H   0  0  0  0  0  0
  -22.3839  -10.9647   19.6094 H   0  0  0  0  0  0
  -21.1817   -7.6138   23.9716 H   0  0  0  0  0  0
  -21.1553   -6.0551   25.9099 H   0  0  0  0  0  0
  -22.0575   -2.7639   23.2889 H   0  0  0  0  0  0
  -22.3944  -11.9893   22.5026 H   0  0  0  0  0  0
  -21.0833  -13.1045   22.2475 H   0  0  0  0  0  0
  -24.5763  -15.8496   20.5539 H   0  0  0  0  0  0
  -26.2027  -15.6798   20.1201 H   0  0  0  0  0  0
  -26.8472  -32.5907   23.0223 H   0  0  0  0  0  0
  -25.0248  -33.9359   24.9390 H   0  0  0  0  0  0
  -22.5984  -31.1405   20.6800 H   0  0  0  0  0  0
  -23.3910  -35.9450   23.3060 H   0  0  0  0  0  0
  -24.3498  -36.9314   22.2101 H   0  0  0  0  0  0
  -23.7016  -37.6240   23.6969 H   0  0  0  0  0  0
  -26.9767  -31.2630   20.3657 H   0  0  0  0  0  0
  -27.3012  -30.7770   21.9636 H   0  0  0  0  0  0
  -29.1622  -28.1612   20.9185 H   0  0  0  0  0  0
  -26.3775  -23.9095   20.7241 H   0  0  0  0  0  0
  -23.9077  -25.1476   20.0596 H   0  0  0  0  0  0
  -22.7583  -28.8125   19.2405 H   0  0  0  0  0  0
  -22.3092  -28.0097   20.6350 H   0  0  0  0  0  0
  -25.1461  -36.1547   25.0656 H   0  0  0  0  0  0
  -20.9516  -28.4080   24.1112 H   0  0  0  0  0  0
  -20.4209  -26.2921   23.4138 H   0  0  0  0  0  0
  -21.6113  -26.7212   22.2385 H   0  0  0  0  0  0
  -19.6204  -25.6696   21.0990 H   0  0  0  0  0  0
  -19.5890  -27.3708   20.7091 H   0  0  0  0  0  0
  -17.3516  -26.6007   21.4888 H   0  0  0  0  0  0
  -18.0441  -26.0326   22.9878 H   0  0  0  0  0  0
  -19.7456  -30.7544   24.2108 H   0  0  0  0  0  0
  -17.4626  -31.6515   24.5436 H   0  0  0  0  0  0
  -15.4998  -30.3293   23.8135 H   0  0  0  0  0  0
  -15.8005  -28.1187   22.7477 H   0  0  0  0  0  0
  -24.5356  -30.8451   25.5799 H   0  0  0  0  0  0
  -24.8762  -32.3737   26.3868 H   0  0  0  0  0  0
  -25.6963  -30.9130   26.8995 H   0  0  0  0  0  0
  -26.5794  -29.9726   23.8229 H   0  0  0  0  0  0
  -27.2862  -29.8668   25.4715 H   0  0  0  0  0  0
  -28.1120  -30.6742   24.1488 H   0  0  0  0  0  0
  -27.1788  -33.4973   26.1703 H   0  0  0  0  0  0
  -28.3781  -32.8539   25.0893 H   0  0  0  0  0  0
  -28.0011  -32.0193   26.5852 H   0  0  0  0  0  0
  -28.2511  -38.0238   24.7803 H   0  0  0  0  0  0
  -28.1275  -36.2806   24.5923 H   0  0  0  0  0  0
  -27.2445  -37.1001   25.8867 H   0  0  0  0  0  0
  -20.7906  -29.5969   21.3620 H   0  0  0  0  0  0
  -26.0035  -38.2893   24.1867 H   0  0  0  0  0  0
  -24.2184  -28.4327   22.1580 H   0  0  0  0  0  0
  -24.7293  -30.4732   19.1474 H   0  0  0  0  0  0
  -26.4160  -26.1293   22.3803 H   0  0  0  0  0  0
  -23.8885  -26.5331   23.8290 H   0  0  0  0  0  0
  -24.4991  -26.6526   25.4966 H   0  0  0  0  0  0
  -25.2013  -25.4975   24.3601 H   0  0  0  0  0  0
  -28.3138  -28.0089   17.1084 H   0  0  0  0  0  0
  -28.0631  -29.7448   17.1914 H   0  0  0  0  0  0
  -27.9299  -28.9064   15.6444 H   0  0  0  0  0  0
  -24.3072  -29.5117   16.5843 H   0  0  0  0  0  0
  -25.5236  -29.8482   15.3510 H   0  0  0  0  0  0
  -25.5784  -30.6933   16.8953 H   0  0  0  0  0  0
  -30.0309  -21.4086   17.6848 H   0  0  0  0  0  0
  -29.1676  -19.9517   17.1851 H   0  0  0  0  0  0
  -30.6825  -19.8192   18.0676 H   0  0  0  0  0  0
  -30.2193  -21.8475   20.3617 H   0  0  0  0  0  0
  -30.8088  -20.2032   20.5237 H   0  0  0  0  0  0
  -29.3960  -20.7028   21.4122 H   0  0  0  0  0  0
  -28.5382  -25.0812   18.1681 H   0  0  0  0  0  0
  -27.0176  -24.6719   17.5160 H   0  0  0  0  0  0
  -27.4040  -22.1311   18.0360 H   0  0  0  0  0  0
  -27.0205  -22.2581   19.6666 H   0  0  0  0  0  0
  -29.4233  -27.0120   24.2113 H   0  0  0  0  0  0
  -28.6792  -27.8182   23.0066 H   0  0  0  0  0  0
  -27.6023  -27.8394   25.2161 H   0  0  0  0  0  0
  -27.2151  -26.2247   25.1484 H   0  0  0  0  0  0
  -28.0730  -24.8311   22.9621 H   0  0  0  0  0  0
  -29.7489  -25.1015   23.1936 H   0  0  0  0  0  0
  -25.4893  -28.4510   24.5720 H   0  0  0  0  0  0
  -25.9387  -27.6719   16.4716 H   0  0  0  0  0  0
  -30.0809  -18.4977   19.9392 H   0  0  0  0  0  0
  1 25  1  0  0  0
  1 30  2  0  0  0
  1 90  1  0  0  0
  2  3  1  0  0  0
  2 25  1  0  0  0
  2 91  1  0  0  0
  2 92  1  0  0  0
  3  4  1  0  0  0
  3 93  1  0  0  0
  3 94  1  0  0  0
  4  5  1  0  0  0
  4 95  1  0  0  0
  4 96  1  0  0  0
  5  6  1  0  0  0
  5 26  1  0  0  0
  5 97  1  0  0  0
  6 25  1  0  0  0
  6 98  1  0  0  0
  6 99  1  0  0  0
  7  8  2  0  0  0
  7 26  1  0  0  0
  7 29  1  0  0  0
  8  9  1  0  0  0
  8 22  1  0  0  0
  9 10  1  0  0  0
  9 27  2  0  0  0
 10 11  2  0  0  0
 10 15  1  0  0  0
 11 12  1  0  0  0
 11100  1  0  0  0
 12 13  2  0  0  0
 12101  1  0  0  0
 13 14  1  0  0  0
 13 31  1  0  0  0
 14 15  2  0  0  0
 14102  1  0  0  0
 15103  1  0  0  0
 16 17  2  0  0  0
 16 21  1  0  0  0
 16 31  1  0  0  0
 17 18  1  0  0  0
 17104  1  0  0  0
 18 19  2  0  0  0
 18105  1  0  0  0
 19 20  1  0  0  0
 19 24  1  0  0  0
 20 21  2  0  0  0
 20106  1  0  0  0
 21 23  1  0  0  0
 22 28  1  0  0  0
 22 32  2  0  0  0
 26 27  1  0  0  0
 28107  1  0  0  0
 28108  1  0  0  0
 29109  1  0  0  0
 29110  1  0  0  0
 33 34  1  0  0  0
 33 66  1  0  0  0
 33 70  2  0  0  0
 34 36  1  0  0  0
 34 59  1  0  0  0
 34111  1  0  0  0
 35 44  2  0  0  0
 35 45  1  0  0  0
 35 68  1  0  0  0
 36 56  1  0  0  0
 36112  1  0  0  0
 37 39  1  0  0  0
 37 47  1  0  0  0
 37 66  1  0  0  0
 37113  1  0  0  0
 38 43  2  0  0  0
 38 46  1  0  0  0
 38 47  1  0  0  0
 39 64  1  0  0  0
 39 67  2  0  0  0
 40 52  1  0  0  0
 40 53  2  0  0  0
 40 58  1  0  0  0
 41114  1  0  0  0
 41115  1  0  0  0
 41116  1  0  0  0
 41 48  1  0  0  0
 42 43  1  0  0  0
 42 66  1  0  0  0
 42117  1  0  0  0
 42118  1  0  0  0
 43 44  1  0  0  0
 44119  1  0  0  0
 45 46  2  0  0  0
 45120  1  0  0  0
 46121  1  0  0  0
 47122  1  0  0  0
 47123  1  0  0  0
 48 56  1  0  0  0
 48 65  1  0  0  0
 48124  1  0  0  0
 49 50  1  0  0  0
 49 53  1  0  0  0
 49 64  1  0  0  0
 49125  1  0  0  0
 50 51  1  0  0  0
 50126  1  0  0  0
 50127  1  0  0  0
 51 52  1  0  0  0
 51128  1  0  0  0
 51129  1  0  0  0
 52130  1  0  0  0
 52131  1  0  0  0
 53 54  1  0  0  0
 54 55  2  0  0  0
 54132  1  0  0  0
 55 57  1  0  0  0
 55133  1  0  0  0
 56 69  2  0  0  0
 57 58  2  0  0  0
 57134  1  0  0  0
 58135  1  0  0  0
 59 60  1  0  0  0
 59 61  1  0  0  0
 59 62  1  0  0  0
 60136  1  0  0  0
 60137  1  0  0  0
 60138  1  0  0  0
 61139  1  0  0  0
 61140  1  0  0  0
 61141  1  0  0  0
 62142  1  0  0  0
 62143  1  0  0  0
 62144  1  0  0  0
 63 65  1  0  0  0
 63145  1  0  0  0
 63146  1  0  0  0
 63147  1  0  0  0
 64148  1  0  0  0
 65149  1  0  0  0
 68 86  1  0  0  0
 71 72  2  0  0  0
 71 74  1  0  0  0
 71150  1  0  0  0
 72 75  1  0  0  0
 72151  1  0  0  0
 73 74  2  0  0  0
 73 76  1  0  0  0
 73152  1  0  0  0
 74 87  1  0  0  0
 75 76  2  0  0  0
 75 88  1  0  0  0
 76 82  1  0  0  0
 77153  1  0  0  0
 77154  1  0  0  0
 77155  1  0  0  0
 77 87  1  0  0  0
 78156  1  0  0  0
 78157  1  0  0  0
 78158  1  0  0  0
 78 88  1  0  0  0
 79 88  1  0  0  0
 79159  1  0  0  0
 79160  1  0  0  0
 79161  1  0  0  0
 80162  1  0  0  0
 80163  1  0  0  0
 80164  1  0  0  0
 80 89  1  0  0  0
 81 89  1  0  0  0
 81165  1  0  0  0
 81166  1  0  0  0
 81167  1  0  0  0
 82 83  1  0  0  0
 82168  1  0  0  0
 82169  1  0  0  0
 83 89  1  0  0  0
 83170  1  0  0  0
 83171  1  0  0  0
 84 85  1  0  0  0
 84 86  1  0  0  0
 84172  1  0  0  0
 84173  1  0  0  0
 85 87  1  0  0  0
 85174  1  0  0  0
 85175  1  0  0  0
 86176  1  0  0  0
 86177  1  0  0  0
 87178  1  0  0  0
 88179  1  0  0  0
 89 90  1  0  0  0
 90180  1  0  0  0
M  ISO  4   1 100  68 101  86 101  90 100
M  END
> <chiral flag>
0

> <version>
0

> <s_m_source_file>
/data/baiqing/PycharmProjects/Reinvent-master-3.2/result/LINK_invent/BTK/process_docking_weight1_custom_sum_contain_oxygen_bond_distance_aromatic_linkinvent_7_9_3/rearranged_h_0109.sdf

> <i_m_source_file_index>
31

> <r_mmod_Potential_Energy-OPLS-2005>
25840.080078125

> <r_mmod_Stretch_Energy-OPLS-2005>
14257.1708984375

> <r_mmod_Bend_Energy-OPLS-2005>
1620.09619140625

> <r_mmod_Torsional_Energy-OPLS-2005>
481.707275390625

> <r_mmod_Improper_Torsional_Energy-OPLS-2005>
34.9496574401855

> <r_mmod_Van_der_Waal_Energy-OPLS-2005>
5487.16748046875

> <r_mmod_Electrostatic_Energy-OPLS-2005>
-376.228454589844

> <r_mmod_Solvation_Energy-OPLS-2005>
-183.611709594727

> <b_mmod_Minimization_Converged-OPLS-2005>
0

> <r_mmod_RMS_Derivative-OPLS-2005>
17.0767421722412

$$$$
31
                    3D
 Structure written by MMmdl.
167175  0  0  1  0            999 V2000
  -30.6527  -14.5200   20.5241 C   0  0  0  0  0  0
  -30.4319  -12.3254   19.4182 C   0  0  0  0  0  0
  -29.4914  -12.4976   18.2058 C   0  0  0  0  0  0
  -28.0137  -12.3480   18.6235 C   0  0  0  0  0  0
  -27.6562  -13.1871   19.8787 C   0  0  2  0  0  0
  -28.7071  -12.9849   20.9928 C   0  0  0  0  0  0
  -25.2578  -13.8056   20.5732 C   0  0  0  0  0  0
  -24.1812  -13.0351   20.9218 C   0  0  0  0  0  0
  -24.6361  -11.6828   20.8758 C   0  0  0  0  0  0
  -23.9032  -10.4218   21.0412 C   0  0  0  0  0  0
  -24.3592   -9.4122   21.9188 C   0  0  0  0  0  0
  -23.6262   -8.2163   22.0743 C   0  0  0  0  0  0
  -22.4232   -8.0230   21.3548 C   0  0  0  0  0  0
  -21.9867   -9.0202   20.4655 C   0  0  0  0  0  0
  -22.7195  -10.2085   20.3075 C   0  0  0  0  0  0
  -21.6810   -6.0695   22.5280 C   0  0  0  0  0  0
  -21.3979   -6.5609   23.8212 C   0  0  0  0  0  0
  -21.3682   -5.6780   24.9185 C   0  0  0  0  0  0
  -21.6057   -4.3042   24.7242 C   0  0  0  0  0  0
  -21.8815   -3.8124   23.4366 C   0  0  0  0  0  0
  -21.9170   -4.6927   22.3410 C   0  0  0  0  0  0
  -22.7848  -13.5185   21.1881 C   0  0  0  0  0  0
  -22.1658   -4.2128   21.0987 F   0  0  0  0  0  0
  -21.5645   -3.4527   25.7758 F   0  0  0  0  0  0
  -30.0305  -13.3123   20.4312 N   0  0  0  0  0  0
  -26.2997  -12.9197   20.3422 N   0  0  0  0  0  0
  -25.9285  -11.6386   20.5816 N   0  0  0  0  0  0
  -22.0490  -12.8187   22.0456 N   0  0  0  0  0  0
  -25.4289  -15.1761   20.4151 N   0  0  0  0  0  0
  -31.7986  -14.7253   20.1162 O   0  0  0  0  0  0
  -21.6589   -6.8837   21.4244 O   0  0  0  0  0  0
  -22.3557  -14.5509   20.6741 O   0  0  0  0  0  0
  -24.6168  -31.8668   23.2071 C   0  0  0  0  0  0
  -25.9060  -32.4809   23.8392 C   0  0  1  0  0  0
  -27.2428  -27.4264   20.1026 C   0  0  0  0  0  0
  -25.5913  -33.8605   24.2339 N   0  0  0  0  0  0
  -23.4067  -30.4880   21.5478 C   0  0  2  0  0  0
  -24.8564  -28.9454   20.1193 C   0  0  0  0  0  0
  -22.7429  -29.4665   22.4994 C   0  0  0  0  0  0
  -18.0287  -28.1376   22.8498 C   0  0  0  0  0  0
  -24.1476  -36.7304   23.2641 C   0  0  0  0  0  0
  -25.9350  -30.8278   21.3643 C   0  0  0  0  0  0
  -26.0157  -29.4605   20.7140 C   0  0  0  0  0  0
  -27.2132  -28.7079   20.7026 C   0  0  0  0  0  0
  -26.0724  -26.9240   19.5021 C   0  0  0  0  0  0
  -24.8812  -27.6767   19.5097 C   0  0  0  0  0  0
  -23.6171  -29.8137   20.1651 C   0  0  0  0  0  0
  -25.4100  -36.3108   24.0343 C   0  0  1  0  0  0
  -20.5870  -28.3675   23.1316 C   0  0  2  0  0  0
  -20.6776  -26.9405   22.5434 C   0  0  0  0  0  0
  -19.5775  -26.6383   21.5220 C   0  0  0  0  0  0
  -18.1935  -26.7940   22.1595 C   0  0  0  0  0  0
  -19.1530  -28.8830   23.2907 C   0  0  0  0  0  0
  -18.9456  -30.1438   23.8915 C   0  0  0  0  0  0
  -17.6462  -30.6570   24.0578 C   0  0  0  0  0  0
  -25.9028  -34.9471   23.5144 C   0  0  0  0  0  0
  -16.5356  -29.9066   23.6338 C   0  0  0  0  0  0
  -16.7274  -28.6490   23.0345 C   0  0  0  0  0  0
  -26.4484  -31.6595   25.0726 C   0  0  0  0  0  0
  -25.3730  -31.3706   26.1464 C   0  0  0  0  0  0
  -27.0323  -30.3047   24.6104 C   0  0  0  0  0  0
  -27.6074  -32.4315   25.7467 C   0  0  0  0  0  0
  -27.5583  -37.1809   24.8472 C   0  0  0  0  0  0
  -21.4150  -29.3056   22.3738 N   0  0  0  0  0  0
  -26.4292  -37.3795   23.9413 N   0  0  0  0  0  0
  -24.6708  -31.0753   22.0982 N   0  0  0  0  0  0
  -23.4195  -28.8220   23.3055 O   0  0  0  0  0  0
  -28.3955  -26.6718   20.0625 O   0  0  0  0  0  0
  -26.5575  -34.8933   22.4700 O   0  0  0  0  0  0
  -23.5358  -32.1443   23.7450 O   0  0  0  0  0  0
  -29.5046  -19.0870   19.7363 C   0  0  0  0  0  0
  -29.4315  -17.6728   19.7151 C   0  0  0  0  0  0
  -30.0341  -16.9393   20.7758 C   0  0  0  0  0  0
  -30.1527  -19.7439   20.8048 C   0  0  0  0  0  0
  -30.7046  -17.6815   21.7765 C   0  0  0  0  0  0
  -31.3851  -16.9949   22.9460 C   0  0  0  0  0  0
  -29.4667  -17.1359   17.2396 C   0  0  0  0  0  0
  -27.2510  -17.5147   18.4158 C   0  0  0  0  0  0
  -30.2137  -21.2810   20.9538 C   0  0  0  0  0  0
  -28.3533  -24.2386   20.7683 C   0  0  0  0  0  0
  -29.5569  -23.5562   20.0608 C   0  0  0  0  0  0
  -28.5499  -25.7370   21.1420 C   0  0  0  0  0  0
  -28.6928  -16.9985   18.5573 C   0  0  0  0  0  0
  -30.7588  -19.0350   21.7869 N   0  0  0  0  0  0
  -29.8477  -15.5243   20.9317 N   0  0  0  0  0  0
  -29.4490  -22.0690   19.9498 N   0  3  0  0  0  0
  -31.4719  -12.4465   19.1115 H   0  0  0  0  0  0
  -30.3563  -11.3165   19.8267 H   0  0  0  0  0  0
  -29.7310  -11.7625   17.4373 H   0  0  0  0  0  0
  -29.6506  -13.4786   17.7533 H   0  0  0  0  0  0
  -27.8296  -11.2908   18.8227 H   0  0  0  0  0  0
  -27.3583  -12.6186   17.7947 H   0  0  0  0  0  0
  -27.6815  -14.2270   19.5750 H   0  0  0  0  0  0
  -28.7013  -11.9507   21.3364 H   0  0  0  0  0  0
  -28.4682  -13.5797   21.8766 H   0  0  0  0  0  0
  -25.2737   -9.5574   22.4775 H   0  0  0  0  0  0
  -23.9975   -7.4525   22.7441 H   0  0  0  0  0  0
  -21.0788   -8.8718   19.8972 H   0  0  0  0  0  0
  -22.3641  -10.9636   19.6207 H   0  0  0  0  0  0
  -21.1953   -7.6118   23.9698 H   0  0  0  0  0  0
  -21.1534   -6.0522   25.9090 H   0  0  0  0  0  0
  -22.0575   -2.7583   23.2879 H   0  0  0  0  0  0
  -22.4061  -11.9831   22.4844 H   0  0  0  0  0  0
  -21.1130  -13.1254   22.2698 H   0  0  0  0  0  0
  -24.6639  -15.8298   20.5400 H   0  0  0  0  0  0
  -26.2794  -15.6158   20.0895 H   0  0  0  0  0  0
  -26.7135  -32.5536   23.1159 H   0  0  0  0  0  0
  -25.0075  -33.9744   25.0495 H   0  0  0  0  0  0
  -22.6962  -31.3047   21.4046 H   0  0  0  0  0  0
  -23.3727  -35.9648   23.3313 H   0  0  0  0  0  0
  -24.3575  -36.8899   22.2056 H   0  0  0  0  0  0
  -23.7229  -37.6516   23.6633 H   0  0  0  0  0  0
  -26.0511  -31.5940   20.5955 H   0  0  0  0  0  0
  -26.8195  -30.8810   21.9872 H   0  0  0  0  0  0
  -28.1117  -29.1047   21.1534 H   0  0  0  0  0  0
  -26.0876  -25.9500   19.0310 H   0  0  0  0  0  0
  -23.9936  -27.2771   19.0412 H   0  0  0  0  0  0
  -23.7254  -30.5841   19.4007 H   0  0  0  0  0  0
  -22.7413  -29.2312   19.8732 H   0  0  0  0  0  0
  -25.1275  -36.1985   25.0830 H   0  0  0  0  0  0
  -20.9951  -28.3259   24.1452 H   0  0  0  0  0  0
  -20.5695  -26.2274   23.3616 H   0  0  0  0  0  0
  -21.6647  -26.7473   22.1216 H   0  0  0  0  0  0
  -19.6950  -25.6311   21.1227 H   0  0  0  0  0  0
  -19.6719  -27.3233   20.6771 H   0  0  0  0  0  0
  -17.4228  -26.6752   21.3963 H   0  0  0  0  0  0
  -18.0284  -26.0039   22.8943 H   0  0  0  0  0  0
  -19.7940  -30.7243   24.2283 H   0  0  0  0  0  0
  -17.5025  -31.6249   24.5169 H   0  0  0  0  0  0
  -15.5361  -30.2984   23.7624 H   0  0  0  0  0  0
  -15.8684  -28.0812   22.7039 H   0  0  0  0  0  0
  -24.5912  -30.7045   25.7797 H   0  0  0  0  0  0
  -24.8898  -32.2847   26.4932 H   0  0  0  0  0  0
  -25.8080  -30.8880   27.0222 H   0  0  0  0  0  0
  -26.2875  -29.6797   24.1156 H   0  0  0  0  0  0
  -27.4092  -29.7320   25.4586 H   0  0  0  0  0  0
  -27.8716  -30.4375   23.9271 H   0  0  0  0  0  0
  -27.2724  -33.3617   26.2079 H   0  0  0  0  0  0
  -28.3856  -32.6872   25.0253 H   0  0  0  0  0  0
  -28.0759  -31.8405   26.5346 H   0  0  0  0  0  0
  -28.2623  -38.0085   24.7512 H   0  0  0  0  0  0
  -28.1054  -36.2623   24.6300 H   0  0  0  0  0  0
  -27.2299  -37.1475   25.8874 H   0  0  0  0  0  0
  -20.9311  -29.8831   21.6998 H   0  0  0  0  0  0
  -26.0187  -38.2883   24.1383 H   0  0  0  0  0  0
  -29.0398  -19.6458   18.9380 H   0  0  0  0  0  0
  -30.7397  -16.2295   23.3769 H   0  0  0  0  0  0
  -31.6374  -17.6997   23.7374 H   0  0  0  0  0  0
  -32.3061  -16.5160   22.6127 H   0  0  0  0  0  0
  -30.4576  -16.6898   17.3198 H   0  0  0  0  0  0
  -29.5911  -18.1796   16.9504 H   0  0  0  0  0  0
  -28.9442  -16.6253   16.4303 H   0  0  0  0  0  0
  -26.7107  -17.4343   19.3584 H   0  0  0  0  0  0
  -26.7008  -16.9426   17.6680 H   0  0  0  0  0  0
  -27.2183  -18.5604   18.1135 H   0  0  0  0  0  0
  -31.2637  -21.5764   20.9114 H   0  0  0  0  0  0
  -29.8547  -21.5380   21.9513 H   0  0  0  0  0  0
  -28.1730  -23.7017   21.7000 H   0  0  0  0  0  0
  -27.4435  -24.1233   20.1779 H   0  0  0  0  0  0
  -30.4909  -23.8200   20.5595 H   0  0  0  0  0  0
  -29.6345  -23.9629   19.0526 H   0  0  0  0  0  0
  -29.5455  -25.8747   21.5659 H   0  0  0  0  0  0
  -27.8616  -25.9871   21.9528 H   0  0  0  0  0  0
  -28.6294  -15.9347   18.7551 H   0  0  0  0  0  0
  -28.9305  -15.2295   21.2288 H   0  0  0  0  0  0
  -28.4855  -21.7822   19.9669 H   0  0  0  0  0  0
  -29.8269  -21.8097   19.0531 H   0  0  0  0  0  0
  1 25  1  0  0  0
  1 30  2  0  0  0
  1 85  1  0  0  0
  2  3  1  0  0  0
  2 25  1  0  0  0
  2 87  1  0  0  0
  2 88  1  0  0  0
  3  4  1  0  0  0
  3 89  1  0  0  0
  3 90  1  0  0  0
  4  5  1  0  0  0
  4 91  1  0  0  0
  4 92  1  0  0  0
  5  6  1  0  0  0
  5 26  1  0  0  0
  5 93  1  0  0  0
  6 25  1  0  0  0
  6 94  1  0  0  0
  6 95  1  0  0  0
  7  8  2  0  0  0
  7 26  1  0  0  0
  7 29  1  0  0  0
  8  9  1  0  0  0
  8 22  1  0  0  0
  9 10  1  0  0  0
  9 27  2  0  0  0
 10 11  2  0  0  0
 10 15  1  0  0  0
 11 12  1  0  0  0
 11 96  1  0  0  0
 12 13  2  0  0  0
 12 97  1  0  0  0
 13 14  1  0  0  0
 13 31  1  0  0  0
 14 15  2  0  0  0
 14 98  1  0  0  0
 15 99  1  0  0  0
 16 17  2  0  0  0
 16 21  1  0  0  0
 16 31  1  0  0  0
 17 18  1  0  0  0
 17100  1  0  0  0
 18 19  2  0  0  0
 18101  1  0  0  0
 19 20  1  0  0  0
 19 24  1  0  0  0
 20 21  2  0  0  0
 20102  1  0  0  0
 21 23  1  0  0  0
 22 28  1  0  0  0
 22 32  2  0  0  0
 26 27  1  0  0  0
 28103  1  0  0  0
 28104  1  0  0  0
 29105  1  0  0  0
 29106  1  0  0  0
 33 34  1  0  0  0
 33 66  1  0  0  0
 33 70  2  0  0  0
 34 36  1  0  0  0
 34 59  1  0  0  0
 34107  1  0  0  0
 35 44  2  0  0  0
 35 45  1  0  0  0
 35 68  1  0  0  0
 36 56  1  0  0  0
 36108  1  0  0  0
 37 39  1  0  0  0
 37 47  1  0  0  0
 37 66  1  0  0  0
 37109  1  0  0  0
 38 43  2  0  0  0
 38 46  1  0  0  0
 38 47  1  0  0  0
 39 64  1  0  0  0
 39 67  2  0  0  0
 40 52  1  0  0  0
 40 53  2  0  0  0
 40 58  1  0  0  0
 41110  1  0  0  0
 41111  1  0  0  0
 41112  1  0  0  0
 41 48  1  0  0  0
 42 43  1  0  0  0
 42 66  1  0  0  0
 42113  1  0  0  0
 42114  1  0  0  0
 43 44  1  0  0  0
 44115  1  0  0  0
 45 46  2  0  0  0
 45116  1  0  0  0
 46117  1  0  0  0
 47118  1  0  0  0
 47119  1  0  0  0
 48 56  1  0  0  0
 48 65  1  0  0  0
 48120  1  0  0  0
 49 50  1  0  0  0
 49 53  1  0  0  0
 49 64  1  0  0  0
 49121  1  0  0  0
 50 51  1  0  0  0
 50122  1  0  0  0
 50123  1  0  0  0
 51 52  1  0  0  0
 51124  1  0  0  0
 51125  1  0  0  0
 52126  1  0  0  0
 52127  1  0  0  0
 53 54  1  0  0  0
 54 55  2  0  0  0
 54128  1  0  0  0
 55 57  1  0  0  0
 55129  1  0  0  0
 56 69  2  0  0  0
 57 58  2  0  0  0
 57130  1  0  0  0
 58131  1  0  0  0
 59 60  1  0  0  0
 59 61  1  0  0  0
 59 62  1  0  0  0
 60132  1  0  0  0
 60133  1  0  0  0
 60134  1  0  0  0
 61135  1  0  0  0
 61136  1  0  0  0
 61137  1  0  0  0
 62138  1  0  0  0
 62139  1  0  0  0
 62140  1  0  0  0
 63 65  1  0  0  0
 63141  1  0  0  0
 63142  1  0  0  0
 63143  1  0  0  0
 64144  1  0  0  0
 65145  1  0  0  0
 68 82  1  0  0  0
 71 72  2  0  0  0
 71 74  1  0  0  0
 71146  1  0  0  0
 72 73  1  0  0  0
 72 83  1  0  0  0
 73 75  2  0  0  0
 73 85  1  0  0  0
 74 79  1  0  0  0
 74 84  2  0  0  0
 75 76  1  0  0  0
 75 84  1  0  0  0
 76147  1  0  0  0
 76148  1  0  0  0
 76149  1  0  0  0
 77150  1  0  0  0
 77151  1  0  0  0
 77152  1  0  0  0
 77 83  1  0  0  0
 78 83  1  0  0  0
 78153  1  0  0  0
 78154  1  0  0  0
 78155  1  0  0  0
 79 86  1  0  0  0
 79156  1  0  0  0
 79157  1  0  0  0
 80 81  1  0  0  0
 80 82  1  0  0  0
 80158  1  0  0  0
 80159  1  0  0  0
 81 86  1  0  0  0
 81160  1  0  0  0
 81161  1  0  0  0
 82162  1  0  0  0
 82163  1  0  0  0
 83164  1  0  0  0
 85165  1  0  0  0
 86166  1  0  0  0
 86167  1  0  0  0
M  CHG  1  86   1
M  ISO  4   1 100  68 101  82 101  85 100
M  END
> <chiral flag>
0

> <version>
0

> <s_m_source_file>
/data/baiqing/PycharmProjects/Reinvent-master-3.2/result/LINK_invent/BTK/process_docking_weight1_custom_sum_contain_oxygen_bond_distance_aromatic_linkinvent_7_9_3/rearranged_h_0109.sdf

> <i_m_source_file_index>
32

> <r_mmod_Potential_Energy-OPLS-2005>
-469.601287841797

> <r_mmod_Stretch_Energy-OPLS-2005>
41.0920753479004

> <r_mmod_Bend_Energy-OPLS-2005>
102.52961730957

> <r_mmod_Torsional_Energy-OPLS-2005>
276.465301513672

> <r_mmod_Improper_Torsional_Energy-OPLS-2005>
5.00606679916382

> <r_mmod_Van_der_Waal_Energy-OPLS-2005>
140.334091186523

> <r_mmod_Electrostatic_Energy-OPLS-2005>
-572.287353515625

> <r_mmod_Solvation_Energy-OPLS-2005>
-479.879821777344

> <b_mmod_Minimization_Converged-OPLS-2005>
0

> <r_mmod_RMS_Derivative-OPLS-2005>
2.75336909294128

$$$$
32
                    3D
 Structure written by MMmdl.
170178  0  0  1  0            999 V2000
  -30.5919  -14.5736   20.4865 C   0  0  0  0  0  0
  -30.4354  -12.3511   19.4407 C   0  0  0  0  0  0
  -29.5042  -12.5045   18.2160 C   0  0  0  0  0  0
  -28.0237  -12.3506   18.6166 C   0  0  0  0  0  0
  -27.6514  -13.1983   19.8605 C   0  0  2  0  0  0
  -28.6880  -13.0067   20.9895 C   0  0  0  0  0  0
  -25.2568  -13.8133   20.5646 C   0  0  0  0  0  0
  -24.1828  -13.0428   20.9172 C   0  0  0  0  0  0
  -24.6355  -11.6884   20.8673 C   0  0  0  0  0  0
  -23.9019  -10.4278   21.0359 C   0  0  0  0  0  0
  -24.3594   -9.4211   21.9135 C   0  0  0  0  0  0
  -23.6278   -8.2248   22.0747 C   0  0  0  0  0  0
  -22.4251   -8.0284   21.3559 C   0  0  0  0  0  0
  -21.9869   -9.0235   20.4629 C   0  0  0  0  0  0
  -22.7184  -10.2119   20.3017 C   0  0  0  0  0  0
  -21.6876   -6.0707   22.5257 C   0  0  0  0  0  0
  -21.4002   -6.5603   23.8177 C   0  0  0  0  0  0
  -21.3676   -5.6763   24.9156 C   0  0  0  0  0  0
  -21.6069   -4.3040   24.7209 C   0  0  0  0  0  0
  -21.8826   -3.8115   23.4321 C   0  0  0  0  0  0
  -21.9213   -4.6924   22.3387 C   0  0  0  0  0  0
  -22.7864  -13.5246   21.1872 C   0  0  0  0  0  0
  -22.1692   -4.2116   21.0964 F   0  0  0  0  0  0
  -21.5637   -3.4527   25.7726 F   0  0  0  0  0  0
  -30.0149  -13.3409   20.4461 N   0  0  0  0  0  0
  -26.2950  -12.9261   20.3237 N   0  0  0  0  0  0
  -25.9260  -11.6431   20.5640 N   0  0  0  0  0  0
  -22.0522  -12.8210   22.0434 N   0  0  0  0  0  0
  -25.4298  -15.1854   20.4050 N   0  0  0  0  0  0
  -31.7284  -14.7903   20.0598 O   0  0  0  0  0  0
  -21.6670   -6.8854   21.4227 O   0  0  0  0  0  0
  -22.3510  -14.5531   20.6728 O   0  0  0  0  0  0
  -24.6188  -31.8607   23.2068 C   0  0  0  0  0  0
  -25.9039  -32.4797   23.8390 C   0  0  1  0  0  0
  -27.2306  -27.3733   20.1078 C   0  0  0  0  0  0
  -25.5848  -33.8587   24.2327 N   0  0  0  0  0  0
  -23.4126  -30.4859   21.5449 C   0  0  2  0  0  0
  -24.8603  -28.9454   20.1147 C   0  0  0  0  0  0
  -22.7426  -29.4632   22.4933 C   0  0  0  0  0  0
  -18.0263  -28.1355   22.8486 C   0  0  0  0  0  0
  -24.1475  -36.7341   23.2659 C   0  0  0  0  0  0
  -25.9494  -30.8110   21.3689 C   0  0  0  0  0  0
  -26.0259  -29.4472   20.7031 C   0  0  0  0  0  0
  -27.2185  -28.6753   20.6761 C   0  0  0  0  0  0
  -26.0334  -26.8931   19.5313 C   0  0  0  0  0  0
  -24.8619  -27.6735   19.5219 C   0  0  0  0  0  0
  -23.6248  -29.8163   20.1610 C   0  0  0  0  0  0
  -25.4081  -36.3112   24.0365 C   0  0  1  0  0  0
  -20.5865  -28.3658   23.1265 C   0  0  2  0  0  0
  -20.6737  -26.9381   22.5369 C   0  0  0  0  0  0
  -19.5739  -26.6370   21.5145 C   0  0  0  0  0  0
  -18.1925  -26.7912   22.1575 C   0  0  0  0  0  0
  -19.1513  -28.8811   23.2900 C   0  0  0  0  0  0
  -18.9438  -30.1405   23.8955 C   0  0  0  0  0  0
  -17.6447  -30.6580   24.0536 C   0  0  0  0  0  0
  -25.8993  -34.9472   23.5145 C   0  0  0  0  0  0
  -16.5338  -29.9080   23.6313 C   0  0  0  0  0  0
  -16.7251  -28.6458   23.0403 C   0  0  0  0  0  0
  -26.4487  -31.6599   25.0726 C   0  0  0  0  0  0
  -25.3753  -31.3653   26.1452 C   0  0  0  0  0  0
  -27.0346  -30.3044   24.6163 C   0  0  0  0  0  0
  -27.6085  -32.4322   25.7458 C   0  0  0  0  0  0
  -27.5577  -37.1806   24.8464 C   0  0  0  0  0  0
  -21.4132  -29.3047   22.3658 N   0  0  0  0  0  0
  -26.4294  -37.3782   23.9422 N   0  0  0  0  0  0
  -24.6786  -31.0675   22.0979 N   0  0  0  0  0  0
  -23.4159  -28.8152   23.2977 O   0  0  0  0  0  0
  -28.3972  -26.6159   20.1055 O   0  0  0  0  0  0
  -26.5558  -34.8922   22.4717 O   0  0  0  0  0  0
  -23.5329  -32.1358   23.7395 O   0  0  0  0  0  0
  -28.8681  -21.9349   19.9835 C   0  0  0  0  0  0
  -30.1717  -20.2689   18.7969 C   0  0  0  0  0  0
  -30.2669  -22.4709   18.0984 C   0  0  0  0  0  0
  -29.2972  -20.5712   19.8546 C   0  0  0  0  0  0
  -29.3481  -22.9181   19.0687 C   0  0  0  0  0  0
  -28.0220  -24.6259   17.7438 C   0  0  0  0  0  0
  -28.6816  -17.6543   22.4304 C   0  0  0  0  0  0
  -31.1199  -18.8268   23.1521 C   0  0  0  0  0  0
  -32.1002  -18.0183   21.0808 C   0  0  0  0  0  0
  -28.7056  -19.4430   20.7343 C   0  0  0  0  0  0
  -29.6146  -16.9575   20.2126 C   0  0  0  0  0  0
  -28.3435  -25.1589   20.2303 C   0  0  0  0  0  0
  -28.9223  -24.4180   18.9767 C   0  0  1  0  0  0
  -29.5463  -18.1809   21.2425 C   0  0  2  0  0  0
  -30.6693  -21.1928   17.9588 N   0  0  0  0  0  0
  -29.7303  -15.5793   20.7919 N   0  0  0  0  0  0
  -30.9094  -18.6711   21.6901 N   0  3  0  0  0  0
  -31.4730  -12.4882   19.1348 H   0  0  0  0  0  0
  -30.3750  -11.3421   19.8503 H   0  0  0  0  0  0
  -29.7611  -11.7681   17.4533 H   0  0  0  0  0  0
  -29.6640  -13.4786   17.7534 H   0  0  0  0  0  0
  -27.8403  -11.2936   18.8124 H   0  0  0  0  0  0
  -27.3779  -12.6200   17.7794 H   0  0  0  0  0  0
  -27.6804  -14.2392   19.5377 H   0  0  0  0  0  0
  -28.6728  -11.9718   21.3380 H   0  0  0  0  0  0
  -28.4286  -13.6182   21.8565 H   0  0  0  0  0  0
  -25.2746   -9.5724   22.4690 H   0  0  0  0  0  0
  -24.0038   -7.4619   22.7417 H   0  0  0  0  0  0
  -21.0834   -8.8697   19.8881 H   0  0  0  0  0  0
  -22.3625  -10.9651   19.6114 H   0  0  0  0  0  0
  -21.2002   -7.6104   23.9684 H   0  0  0  0  0  0
  -21.1494   -6.0487   25.9061 H   0  0  0  0  0  0
  -22.0615   -2.7571   23.2832 H   0  0  0  0  0  0
  -22.4201  -11.9895   22.4798 H   0  0  0  0  0  0
  -21.1105  -13.1151   22.2590 H   0  0  0  0  0  0
  -24.6532  -15.8317   20.4952 H   0  0  0  0  0  0
  -26.2660  -15.6204   20.0383 H   0  0  0  0  0  0
  -26.7098  -32.5463   23.1124 H   0  0  0  0  0  0
  -24.9977  -33.9773   25.0450 H   0  0  0  0  0  0
  -22.7072  -31.3064   21.3970 H   0  0  0  0  0  0
  -23.3730  -35.9680   23.3292 H   0  0  0  0  0  0
  -24.3582  -36.8957   22.2078 H   0  0  0  0  0  0
  -23.7211  -37.6543   23.6666 H   0  0  0  0  0  0
  -26.0789  -31.5852   20.6128 H   0  0  0  0  0  0
  -26.8286  -30.8493   21.9994 H   0  0  0  0  0  0
  -28.1291  -29.0642   21.1112 H   0  0  0  0  0  0
  -25.9860  -25.9097   19.0922 H   0  0  0  0  0  0
  -23.9613  -27.2884   19.0662 H   0  0  0  0  0  0
  -23.7345  -30.5858   19.3972 H   0  0  0  0  0  0
  -22.7480  -29.2389   19.8642 H   0  0  0  0  0  0
  -25.1243  -36.2005   25.0863 H   0  0  0  0  0  0
  -20.9983  -28.3200   24.1372 H   0  0  0  0  0  0
  -20.5526  -26.2280   23.3561 H   0  0  0  0  0  0
  -21.6630  -26.7346   22.1235 H   0  0  0  0  0  0
  -19.6914  -25.6269   21.1206 H   0  0  0  0  0  0
  -19.6713  -27.3137   20.6650 H   0  0  0  0  0  0
  -17.4174  -26.6627   21.4006 H   0  0  0  0  0  0
  -18.0396  -26.0023   22.8953 H   0  0  0  0  0  0
  -19.7905  -30.7170   24.2425 H   0  0  0  0  0  0
  -17.4999  -31.6287   24.5084 H   0  0  0  0  0  0
  -15.5346  -30.3006   23.7624 H   0  0  0  0  0  0
  -15.8631  -28.0760   22.7228 H   0  0  0  0  0  0
  -24.5984  -30.6959   25.7738 H   0  0  0  0  0  0
  -24.8877  -32.2764   26.4938 H   0  0  0  0  0  0
  -25.8102  -30.8777   27.0191 H   0  0  0  0  0  0
  -26.2886  -29.6730   24.1321 H   0  0  0  0  0  0
  -27.4200  -29.7372   25.4655 H   0  0  0  0  0  0
  -27.8697  -30.4358   23.9273 H   0  0  0  0  0  0
  -27.2801  -33.3675   26.2018 H   0  0  0  0  0  0
  -28.3905  -32.6798   25.0261 H   0  0  0  0  0  0
  -28.0771  -31.8440   26.5363 H   0  0  0  0  0  0
  -28.2593  -38.0110   24.7492 H   0  0  0  0  0  0
  -28.1083  -36.2630   24.6299 H   0  0  0  0  0  0
  -27.2302  -37.1452   25.8876 H   0  0  0  0  0  0
  -20.9285  -29.8818   21.6926 H   0  0  0  0  0  0
  -26.0190  -38.2882   24.1383 H   0  0  0  0  0  0
  -28.1513  -22.2108   20.7449 H   0  0  0  0  0  0
  -30.4864  -19.2548   18.6096 H   0  0  0  0  0  0
  -30.6665  -23.1544   17.3640 H   0  0  0  0  0  0
  -28.4853  -24.2344   16.8375 H   0  0  0  0  0  0
  -27.8286  -25.6826   17.5592 H   0  0  0  0  0  0
  -27.0617  -24.1225   17.8608 H   0  0  0  0  0  0
  -27.7334  -17.2471   22.0723 H   0  0  0  0  0  0
  -28.4129  -18.4318   23.1462 H   0  0  0  0  0  0
  -29.1686  -16.8613   22.9947 H   0  0  0  0  0  0
  -32.0892  -19.2869   23.3478 H   0  0  0  0  0  0
  -31.1196  -17.8613   23.6625 H   0  0  0  0  0  0
  -30.3736  -19.4797   23.6038 H   0  0  0  0  0  0
  -33.0299  -18.4382   21.4663 H   0  0  0  0  0  0
  -32.1429  -18.1456   19.9994 H   0  0  0  0  0  0
  -32.1242  -16.9576   21.3187 H   0  0  0  0  0  0
  -27.7903  -19.0952   20.2535 H   0  0  0  0  0  0
  -28.3503  -19.9830   21.6122 H   0  0  0  0  0  0
  -30.3231  -17.1032   19.3992 H   0  0  0  0  0  0
  -28.6582  -16.9346   19.6875 H   0  0  0  0  0  0
  -28.9728  -24.9193   21.0884 H   0  0  0  0  0  0
  -27.3543  -24.7864   20.4951 H   0  0  0  0  0  0
  -29.8547  -24.9423   18.7612 H   0  0  0  0  0  0
  -28.8769  -15.2442   21.2145 H   0  0  0  0  0  0
  -30.9395  -19.6204   21.3431 H   0  0  0  0  0  0
  1 25  1  0  0  0
  1 30  2  0  0  0
  1 86  1  0  0  0
  2  3  1  0  0  0
  2 25  1  0  0  0
  2 88  1  0  0  0
  2 89  1  0  0  0
  3  4  1  0  0  0
  3 90  1  0  0  0
  3 91  1  0  0  0
  4  5  1  0  0  0
  4 92  1  0  0  0
  4 93  1  0  0  0
  5  6  1  0  0  0
  5 26  1  0  0  0
  5 94  1  0  0  0
  6 25  1  0  0  0
  6 95  1  0  0  0
  6 96  1  0  0  0
  7  8  2  0  0  0
  7 26  1  0  0  0
  7 29  1  0  0  0
  8  9  1  0  0  0
  8 22  1  0  0  0
  9 10  1  0  0  0
  9 27  2  0  0  0
 10 11  2  0  0  0
 10 15  1  0  0  0
 11 12  1  0  0  0
 11 97  1  0  0  0
 12 13  2  0  0  0
 12 98  1  0  0  0
 13 14  1  0  0  0
 13 31  1  0  0  0
 14 15  2  0  0  0
 14 99  1  0  0  0
 15100  1  0  0  0
 16 17  2  0  0  0
 16 21  1  0  0  0
 16 31  1  0  0  0
 17 18  1  0  0  0
 17101  1  0  0  0
 18 19  2  0  0  0
 18102  1  0  0  0
 19 20  1  0  0  0
 19 24  1  0  0  0
 20 21  2  0  0  0
 20103  1  0  0  0
 21 23  1  0  0  0
 22 28  1  0  0  0
 22 32  2  0  0  0
 26 27  1  0  0  0
 28104  1  0  0  0
 28105  1  0  0  0
 29106  1  0  0  0
 29107  1  0  0  0
 33 34  1  0  0  0
 33 66  1  0  0  0
 33 70  2  0  0  0
 34 36  1  0  0  0
 34 59  1  0  0  0
 34108  1  0  0  0
 35 44  2  0  0  0
 35 45  1  0  0  0
 35 68  1  0  0  0
 36 56  1  0  0  0
 36109  1  0  0  0
 37 39  1  0  0  0
 37 47  1  0  0  0
 37 66  1  0  0  0
 37110  1  0  0  0
 38 43  2  0  0  0
 38 46  1  0  0  0
 38 47  1  0  0  0
 39 64  1  0  0  0
 39 67  2  0  0  0
 40 52  1  0  0  0
 40 53  2  0  0  0
 40 58  1  0  0  0
 41111  1  0  0  0
 41112  1  0  0  0
 41113  1  0  0  0
 41 48  1  0  0  0
 42 43  1  0  0  0
 42 66  1  0  0  0
 42114  1  0  0  0
 42115  1  0  0  0
 43 44  1  0  0  0
 44116  1  0  0  0
 45 46  2  0  0  0
 45117  1  0  0  0
 46118  1  0  0  0
 47119  1  0  0  0
 47120  1  0  0  0
 48 56  1  0  0  0
 48 65  1  0  0  0
 48121  1  0  0  0
 49 50  1  0  0  0
 49 53  1  0  0  0
 49 64  1  0  0  0
 49122  1  0  0  0
 50 51  1  0  0  0
 50123  1  0  0  0
 50124  1  0  0  0
 51 52  1  0  0  0
 51125  1  0  0  0
 51126  1  0  0  0
 52127  1  0  0  0
 52128  1  0  0  0
 53 54  1  0  0  0
 54 55  2  0  0  0
 54129  1  0  0  0
 55 57  1  0  0  0
 55130  1  0  0  0
 56 69  2  0  0  0
 57 58  2  0  0  0
 57131  1  0  0  0
 58132  1  0  0  0
 59 60  1  0  0  0
 59 61  1  0  0  0
 59 62  1  0  0  0
 60133  1  0  0  0
 60134  1  0  0  0
 60135  1  0  0  0
 61136  1  0  0  0
 61137  1  0  0  0
 61138  1  0  0  0
 62139  1  0  0  0
 62140  1  0  0  0
 62141  1  0  0  0
 63 65  1  0  0  0
 63142  1  0  0  0
 63143  1  0  0  0
 63144  1  0  0  0
 64145  1  0  0  0
 65146  1  0  0  0
 68 82  1  0  0  0
 71 74  2  0  0  0
 71 75  1  0  0  0
 71147  1  0  0  0
 72 74  1  0  0  0
 72 85  2  0  0  0
 72148  1  0  0  0
 73 75  2  0  0  0
 73 85  1  0  0  0
 73149  1  0  0  0
 74 80  1  0  0  0
 75 83  1  0  0  0
 76150  1  0  0  0
 76151  1  0  0  0
 76152  1  0  0  0
 76 83  1  0  0  0
 77153  1  0  0  0
 77154  1  0  0  0
 77155  1  0  0  0
 77 84  1  0  0  0
 78156  1  0  0  0
 78157  1  0  0  0
 78158  1  0  0  0
 78 87  1  0  0  0
 79 87  1  0  0  0
 79159  1  0  0  0
 79160  1  0  0  0
 79161  1  0  0  0
 80 84  1  0  0  0
 80162  1  0  0  0
 80163  1  0  0  0
 81 84  1  0  0  0
 81 86  1  0  0  0
 81164  1  0  0  0
 81165  1  0  0  0
 82 83  1  0  0  0
 82166  1  0  0  0
 82167  1  0  0  0
 83168  1  0  0  0
 84 87  1  0  0  0
 86169  1  0  0  0
 87170  1  0  0  0
M  CHG  1  87   1
M  ISO  4   1 100  68 101  82 101  86 100
M  END
> <chiral flag>
0

> <version>
0

> <s_m_source_file>
/data/baiqing/PycharmProjects/Reinvent-master-3.2/result/LINK_invent/BTK/process_docking_weight1_custom_sum_contain_oxygen_bond_distance_aromatic_linkinvent_7_9_3/rearranged_h_0109.sdf

> <i_m_source_file_index>
33

> <r_mmod_Potential_Energy-OPLS-2005>
-210.35661315918

> <r_mmod_Stretch_Energy-OPLS-2005>
68.8622589111328

> <r_mmod_Bend_Energy-OPLS-2005>
164.186737060547

> <r_mmod_Torsional_Energy-OPLS-2005>
298.276519775391

> <r_mmod_Improper_Torsional_Energy-OPLS-2005>
8.43028831481934

> <r_mmod_Van_der_Waal_Energy-OPLS-2005>
160.385284423828

> <r_mmod_Electrostatic_Energy-OPLS-2005>
-500.155639648438

> <r_mmod_Solvation_Energy-OPLS-2005>
-440.092010498047

> <b_mmod_Minimization_Converged-OPLS-2005>
0

> <r_mmod_RMS_Derivative-OPLS-2005>
4.53531265258789

$$$$
33
                    3D
 Structure written by MMmdl.
165173  0  0  1  0            999 V2000
  -30.6497  -14.5452   20.5057 C   0  0  0  0  0  0
  -30.4422  -12.3194   19.4506 C   0  0  0  0  0  0
  -29.5084  -12.4308   18.2238 C   0  0  0  0  0  0
  -28.0234  -12.3297   18.6308 C   0  0  0  0  0  0
  -27.6602  -13.1981   19.8650 C   0  0  2  0  0  0
  -28.7036  -13.0174   20.9927 C   0  0  0  0  0  0
  -25.2579  -13.8121   20.5673 C   0  0  0  0  0  0
  -24.1832  -13.0412   20.9184 C   0  0  0  0  0  0
  -24.6383  -11.6885   20.8745 C   0  0  0  0  0  0
  -23.9051  -10.4278   21.0412 C   0  0  0  0  0  0
  -24.3605   -9.4197   21.9190 C   0  0  0  0  0  0
  -23.6281   -8.2234   22.0759 C   0  0  0  0  0  0
  -22.4264   -8.0274   21.3548 C   0  0  0  0  0  0
  -21.9897   -9.0248   20.4652 C   0  0  0  0  0  0
  -22.7225  -10.2126   20.3061 C   0  0  0  0  0  0
  -21.6848   -6.0728   22.5280 C   0  0  0  0  0  0
  -21.4011   -6.5633   23.8211 C   0  0  0  0  0  0
  -21.3660   -5.6789   24.9175 C   0  0  0  0  0  0
  -21.6044   -4.3052   24.7227 C   0  0  0  0  0  0
  -21.8821   -3.8143   23.4349 C   0  0  0  0  0  0
  -21.9191   -4.6959   22.3404 C   0  0  0  0  0  0
  -22.7859  -13.5228   21.1845 C   0  0  0  0  0  0
  -22.1660   -4.2145   21.0981 F   0  0  0  0  0  0
  -21.5631   -3.4538   25.7740 F   0  0  0  0  0  0
  -30.0313  -13.3317   20.4376 N   0  0  0  0  0  0
  -26.3014  -12.9290   20.3324 N   0  0  0  0  0  0
  -25.9308  -11.6463   20.5780 N   0  0  0  0  0  0
  -22.0491  -12.8236   22.0405 N   0  0  0  0  0  0
  -25.4250  -15.1835   20.4084 N   0  0  0  0  0  0
  -31.8052  -14.7257   20.1148 O   0  0  0  0  0  0
  -21.6632   -6.8870   21.4240 O   0  0  0  0  0  0
  -22.3556  -14.5539   20.6693 O   0  0  0  0  0  0
  -24.6149  -31.8674   23.2097 C   0  0  0  0  0  0
  -25.9038  -32.4821   23.8400 C   0  0  1  0  0  0
  -27.2419  -27.4270   20.1084 C   0  0  0  0  0  0
  -25.5891  -33.8619   24.2331 N   0  0  0  0  0  0
  -23.4061  -30.4885   21.5488 C   0  0  2  0  0  0
  -24.8586  -28.9521   20.1167 C   0  0  0  0  0  0
  -22.7422  -29.4648   22.4981 C   0  0  0  0  0  0
  -18.0276  -28.1380   22.8495 C   0  0  0  0  0  0
  -24.1487  -36.7318   23.2638 C   0  0  0  0  0  0
  -25.9350  -30.8288   21.3677 C   0  0  0  0  0  0
  -26.0161  -29.4597   20.7227 C   0  0  0  0  0  0
  -27.2115  -28.7011   20.7257 C   0  0  0  0  0  0
  -26.0756  -26.9409   19.4869 C   0  0  0  0  0  0
  -24.8829  -27.6900   19.4968 C   0  0  0  0  0  0
  -23.6189  -29.8184   20.1643 C   0  0  0  0  0  0
  -25.4105  -36.3111   24.0340 C   0  0  1  0  0  0
  -20.5867  -28.3668   23.1315 C   0  0  2  0  0  0
  -20.6765  -26.9402   22.5418 C   0  0  0  0  0  0
  -19.5741  -26.6386   21.5214 C   0  0  0  0  0  0
  -18.1922  -26.7927   22.1626 C   0  0  0  0  0  0
  -19.1526  -28.8841   23.2903 C   0  0  0  0  0  0
  -18.9452  -30.1448   23.8911 C   0  0  0  0  0  0
  -17.6453  -30.6585   24.0568 C   0  0  0  0  0  0
  -25.9031  -34.9475   23.5134 C   0  0  0  0  0  0
  -16.5345  -29.9088   23.6325 C   0  0  0  0  0  0
  -16.7264  -28.6506   23.0346 C   0  0  0  0  0  0
  -26.4469  -31.6597   25.0726 C   0  0  0  0  0  0
  -25.3739  -31.3703   26.1479 C   0  0  0  0  0  0
  -27.0299  -30.3038   24.6100 C   0  0  0  0  0  0
  -27.6050  -32.4315   25.7481 C   0  0  0  0  0  0
  -27.5582  -37.1811   24.8465 C   0  0  0  0  0  0
  -21.4147  -29.3034   22.3720 N   0  0  0  0  0  0
  -26.4293  -37.3794   23.9411 N   0  0  0  0  0  0
  -24.6698  -31.0764   22.1005 N   0  0  0  0  0  0
  -23.4183  -28.8191   23.3033 O   0  0  0  0  0  0
  -28.3668  -26.6294   20.0810 O   0  0  0  0  0  0
  -26.5596  -34.8924   22.4696 O   0  0  0  0  0  0
  -23.5337  -32.1427   23.7480 O   0  0  0  0  0  0
  -30.7112  -22.7886   20.8483 C   0  0  0  0  0  0
  -28.8088  -22.3625   22.2920 C   0  0  0  0  0  0
  -30.2959  -24.1365   20.6990 C   0  0  0  0  0  0
  -28.3969  -23.7079   22.1435 C   0  0  0  0  0  0
  -29.9879  -21.8901   21.6703 C   0  0  0  0  0  0
  -29.1475  -24.6205   21.3671 C   0  0  0  0  0  0
  -29.7843  -16.4925   17.7669 C   0  0  0  0  0  0
  -28.2111  -17.2784   20.2175 C   0  0  0  0  0  0
  -30.5138  -20.4700   21.9683 C   0  0  0  0  0  0
  -28.7789  -26.1156   21.3556 C   0  0  0  0  0  0
  -30.4102  -17.2324   18.9587 C   0  0  0  0  0  0
  -30.3199  -18.0052   21.3870 C   0  0  0  0  0  0
  -29.7278  -16.9953   20.3428 C   0  0  1  0  0  0
  -29.8084  -15.5707   20.7927 N   0  0  0  0  0  0
  -30.0308  -19.4314   21.0276 N   0  3  0  0  0  0
  -31.4831  -12.4377   19.1441 H   0  0  0  0  0  0
  -30.3740  -11.3248   19.8930 H   0  0  0  0  0  0
  -29.7435  -11.6384   17.5121 H   0  0  0  0  0  0
  -29.6922  -13.3578   17.6890 H   0  0  0  0  0  0
  -27.8225  -11.2809   18.8519 H   0  0  0  0  0  0
  -27.3827  -12.5861   17.7863 H   0  0  0  0  0  0
  -27.6911  -14.2338   19.5312 H   0  0  0  0  0  0
  -28.6915  -11.9905   21.3605 H   0  0  0  0  0  0
  -28.4617  -13.6397   21.8558 H   0  0  0  0  0  0
  -25.2749   -9.5675   22.4765 H   0  0  0  0  0  0
  -23.9993   -7.4625   22.7476 H   0  0  0  0  0  0
  -21.0829   -8.8767   19.8956 H   0  0  0  0  0  0
  -22.3686  -10.9668   19.6174 H   0  0  0  0  0  0
  -21.2000   -7.6141   23.9712 H   0  0  0  0  0  0
  -21.1481   -6.0520   25.9077 H   0  0  0  0  0  0
  -22.0599   -2.7605   23.2852 H   0  0  0  0  0  0
  -22.4087  -11.9889   22.4795 H   0  0  0  0  0  0
  -21.1117  -13.1289   22.2610 H   0  0  0  0  0  0
  -24.6515  -15.8309   20.5137 H   0  0  0  0  0  0
  -26.2664  -15.6251   20.0652 H   0  0  0  0  0  0
  -26.7113  -32.5544   23.1172 H   0  0  0  0  0  0
  -25.0046  -33.9784   25.0478 H   0  0  0  0  0  0
  -22.6952  -31.3048   21.4064 H   0  0  0  0  0  0
  -23.3742  -35.9659   23.3311 H   0  0  0  0  0  0
  -24.3582  -36.8920   22.2051 H   0  0  0  0  0  0
  -23.7247  -37.6531   23.6644 H   0  0  0  0  0  0
  -26.0470  -31.5905   20.5948 H   0  0  0  0  0  0
  -26.8228  -30.8879   21.9854 H   0  0  0  0  0  0
  -28.1040  -29.0883   21.1972 H   0  0  0  0  0  0
  -26.0895  -25.9713   19.0087 H   0  0  0  0  0  0
  -23.9954  -27.2931   19.0234 H   0  0  0  0  0  0
  -23.7269  -30.5919   19.4030 H   0  0  0  0  0  0
  -22.7442  -29.2362   19.8688 H   0  0  0  0  0  0
  -25.1278  -36.1982   25.0834 H   0  0  0  0  0  0
  -20.9962  -28.3235   24.1435 H   0  0  0  0  0  0
  -20.5666  -26.2275   23.3606 H   0  0  0  0  0  0
  -21.6635  -26.7445   22.1211 H   0  0  0  0  0  0
  -19.6902  -25.6301   21.1235 H   0  0  0  0  0  0
  -19.6678  -27.3204   20.6750 H   0  0  0  0  0  0
  -17.4191  -26.6680   21.4028 H   0  0  0  0  0  0
  -18.0319  -26.0063   22.9017 H   0  0  0  0  0  0
  -19.7928  -30.7263   24.2282 H   0  0  0  0  0  0
  -17.5008  -31.6265   24.5170 H   0  0  0  0  0  0
  -15.5346  -30.2994   23.7640 H   0  0  0  0  0  0
  -15.8665  -28.0830   22.7050 H   0  0  0  0  0  0
  -24.5904  -30.7057   25.7820 H   0  0  0  0  0  0
  -24.8937  -32.2858   26.4946 H   0  0  0  0  0  0
  -25.8095  -30.8859   27.0227 H   0  0  0  0  0  0
  -26.2841  -29.6802   24.1154 H   0  0  0  0  0  0
  -27.4070  -29.7271   25.4556 H   0  0  0  0  0  0
  -27.8678  -30.4358   23.9250 H   0  0  0  0  0  0
  -27.2675  -33.3604   26.2091 H   0  0  0  0  0  0
  -28.3839  -32.6893   25.0292 H   0  0  0  0  0  0
  -28.0742  -31.8420   26.5369 H   0  0  0  0  0  0
  -28.2606  -38.0102   24.7510 H   0  0  0  0  0  0
  -28.1070  -36.2635   24.6289 H   0  0  0  0  0  0
  -27.2304  -37.1466   25.8870 H   0  0  0  0  0  0
  -20.9309  -29.8758   21.6942 H   0  0  0  0  0  0
  -26.0185  -38.2876   24.1401 H   0  0  0  0  0  0
  -31.6202  -22.4633   20.3609 H   0  0  0  0  0  0
  -28.2337  -21.7066   22.9318 H   0  0  0  0  0  0
  -30.8905  -24.8149   20.1025 H   0  0  0  0  0  0
  -27.5162  -24.0497   22.6704 H   0  0  0  0  0  0
  -30.4244  -16.5645   16.8874 H   0  0  0  0  0  0
  -28.8159  -16.9132   17.4955 H   0  0  0  0  0  0
  -29.6352  -15.4417   17.9824 H   0  0  0  0  0  0
  -28.0006  -18.2640   19.8016 H   0  0  0  0  0  0
  -27.7072  -17.2168   21.1837 H   0  0  0  0  0  0
  -27.7226  -16.5661   19.5552 H   0  0  0  0  0  0
  -30.2191  -20.1993   22.9833 H   0  0  0  0  0  0
  -31.6046  -20.4795   21.9630 H   0  0  0  0  0  0
  -29.6521  -26.6830   21.6795 H   0  0  0  0  0  0
  -28.0145  -26.2890   22.1165 H   0  0  0  0  0  0
  -30.3947  -18.2916   18.7025 H   0  0  0  0  0  0
  -31.4703  -16.9852   19.0197 H   0  0  0  0  0  0
  -31.3987  -17.8658   21.4728 H   0  0  0  0  0  0
  -29.9045  -17.8020   22.3753 H   0  0  0  0  0  0
  -28.9450  -15.2315   21.1881 H   0  0  0  0  0  0
  -30.4253  -19.6278   20.1229 H   0  0  0  0  0  0
  -29.0323  -19.5329   20.9532 H   0  0  0  0  0  0
  1 25  1  0  0  0
  1 30  2  0  0  0
  1 84  1  0  0  0
  2  3  1  0  0  0
  2 25  1  0  0  0
  2 86  1  0  0  0
  2 87  1  0  0  0
  3  4  1  0  0  0
  3 88  1  0  0  0
  3 89  1  0  0  0
  4  5  1  0  0  0
  4 90  1  0  0  0
  4 91  1  0  0  0
  5  6  1  0  0  0
  5 26  1  0  0  0
  5 92  1  0  0  0
  6 25  1  0  0  0
  6 93  1  0  0  0
  6 94  1  0  0  0
  7  8  2  0  0  0
  7 26  1  0  0  0
  7 29  1  0  0  0
  8  9  1  0  0  0
  8 22  1  0  0  0
  9 10  1  0  0  0
  9 27  2  0  0  0
 10 11  2  0  0  0
 10 15  1  0  0  0
 11 12  1  0  0  0
 11 95  1  0  0  0
 12 13  2  0  0  0
 12 96  1  0  0  0
 13 14  1  0  0  0
 13 31  1  0  0  0
 14 15  2  0  0  0
 14 97  1  0  0  0
 15 98  1  0  0  0
 16 17  2  0  0  0
 16 21  1  0  0  0
 16 31  1  0  0  0
 17 18  1  0  0  0
 17 99  1  0  0  0
 18 19  2  0  0  0
 18100  1  0  0  0
 19 20  1  0  0  0
 19 24  1  0  0  0
 20 21  2  0  0  0
 20101  1  0  0  0
 21 23  1  0  0  0
 22 28  1  0  0  0
 22 32  2  0  0  0
 26 27  1  0  0  0
 28102  1  0  0  0
 28103  1  0  0  0
 29104  1  0  0  0
 29105  1  0  0  0
 33 34  1  0  0  0
 33 66  1  0  0  0
 33 70  2  0  0  0
 34 36  1  0  0  0
 34 59  1  0  0  0
 34106  1  0  0  0
 35 44  2  0  0  0
 35 45  1  0  0  0
 35 68  1  0  0  0
 36 56  1  0  0  0
 36107  1  0  0  0
 37 39  1  0  0  0
 37 47  1  0  0  0
 37 66  1  0  0  0
 37108  1  0  0  0
 38 43  2  0  0  0
 38 46  1  0  0  0
 38 47  1  0  0  0
 39 64  1  0  0  0
 39 67  2  0  0  0
 40 52  1  0  0  0
 40 53  2  0  0  0
 40 58  1  0  0  0
 41109  1  0  0  0
 41110  1  0  0  0
 41111  1  0  0  0
 41 48  1  0  0  0
 42 43  1  0  0  0
 42 66  1  0  0  0
 42112  1  0  0  0
 42113  1  0  0  0
 43 44  1  0  0  0
 44114  1  0  0  0
 45 46  2  0  0  0
 45115  1  0  0  0
 46116  1  0  0  0
 47117  1  0  0  0
 47118  1  0  0  0
 48 56  1  0  0  0
 48 65  1  0  0  0
 48119  1  0  0  0
 49 50  1  0  0  0
 49 53  1  0  0  0
 49 64  1  0  0  0
 49120  1  0  0  0
 50 51  1  0  0  0
 50121  1  0  0  0
 50122  1  0  0  0
 51 52  1  0  0  0
 51123  1  0  0  0
 51124  1  0  0  0
 52125  1  0  0  0
 52126  1  0  0  0
 53 54  1  0  0  0
 54 55  2  0  0  0
 54127  1  0  0  0
 55 57  1  0  0  0
 55128  1  0  0  0
 56 69  2  0  0  0
 57 58  2  0  0  0
 57129  1  0  0  0
 58130  1  0  0  0
 59 60  1  0  0  0
 59 61  1  0  0  0
 59 62  1  0  0  0
 60131  1  0  0  0
 60132  1  0  0  0
 60133  1  0  0  0
 61134  1  0  0  0
 61135  1  0  0  0
 61136  1  0  0  0
 62137  1  0  0  0
 62138  1  0  0  0
 62139  1  0  0  0
 63 65  1  0  0  0
 63140  1  0  0  0
 63141  1  0  0  0
 63142  1  0  0  0
 64143  1  0  0  0
 65144  1  0  0  0
 68 80  1  0  0  0
 71 73  2  0  0  0
 71 75  1  0  0  0
 71145  1  0  0  0
 72 74  1  0  0  0
 72 75  2  0  0  0
 72146  1  0  0  0
 73 76  1  0  0  0
 73147  1  0  0  0
 74 76  2  0  0  0
 74148  1  0  0  0
 75 79  1  0  0  0
 76 80  1  0  0  0
 77 81  1  0  0  0
 77149  1  0  0  0
 77150  1  0  0  0
 77151  1  0  0  0
 78152  1  0  0  0
 78153  1  0  0  0
 78154  1  0  0  0
 78 83  1  0  0  0
 79 85  1  0  0  0
 79155  1  0  0  0
 79156  1  0  0  0
 80157  1  0  0  0
 80158  1  0  0  0
 81 83  1  0  0  0
 81159  1  0  0  0
 81160  1  0  0  0
 82 83  1  0  0  0
 82 85  1  0  0  0
 82161  1  0  0  0
 82162  1  0  0  0
 83 84  1  0  0  0
 84163  1  0  0  0
 85164  1  0  0  0
 85165  1  0  0  0
M  CHG  1  85   1
M  ISO  4   1 100  68 101  80 101  84 100
M  END
> <chiral flag>
0

> <version>
0

> <s_m_source_file>
/data/baiqing/PycharmProjects/Reinvent-master-3.2/result/LINK_invent/BTK/process_docking_weight1_custom_sum_contain_oxygen_bond_distance_aromatic_linkinvent_7_9_3/rearranged_h_0109.sdf

> <i_m_source_file_index>
34

> <r_mmod_Potential_Energy-OPLS-2005>
-223.800186157227

> <r_mmod_Stretch_Energy-OPLS-2005>
45.6496505737305

> <r_mmod_Bend_Energy-OPLS-2005>
108.265289306641

> <r_mmod_Torsional_Energy-OPLS-2005>
261.082397460938

> <r_mmod_Improper_Torsional_Energy-OPLS-2005>
7.41108655929565

> <r_mmod_Van_der_Waal_Energy-OPLS-2005>
142.94856262207

> <r_mmod_Electrostatic_Energy-OPLS-2005>
-346.118408203125

> <r_mmod_Solvation_Energy-OPLS-2005>
-464.624359130859

> <b_mmod_Minimization_Converged-OPLS-2005>
0

> <r_mmod_RMS_Derivative-OPLS-2005>
0.448203563690186

$$$$
34
                    3D
 Structure written by MMmdl.
161169  0  0  1  0            999 V2000
  -30.5488  -14.9346   20.3984 C   0  0  0  0  0  0
  -30.4372  -12.5651   19.4907 C   0  0  0  0  0  0
  -29.5239  -12.5257   18.2450 C   0  0  0  0  0  0
  -28.0542  -12.3233   18.6643 C   0  0  0  0  0  0
  -27.6351  -13.2495   19.8391 C   0  0  2  0  0  0
  -28.6794  -13.2662   20.9744 C   0  0  0  0  0  0
  -25.2472  -13.8186   20.5653 C   0  0  0  0  0  0
  -24.1816  -13.0443   20.9196 C   0  0  0  0  0  0
  -24.6411  -11.6907   20.8712 C   0  0  0  0  0  0
  -23.9072  -10.4291   21.0377 C   0  0  0  0  0  0
  -24.3615   -9.4202   21.9162 C   0  0  0  0  0  0
  -23.6282   -8.2238   22.0745 C   0  0  0  0  0  0
  -22.4258   -8.0271   21.3530 C   0  0  0  0  0  0
  -21.9888   -9.0251   20.4637 C   0  0  0  0  0  0
  -22.7222  -10.2132   20.3043 C   0  0  0  0  0  0
  -21.6858   -6.0712   22.5255 C   0  0  0  0  0  0
  -21.4033   -6.5613   23.8194 C   0  0  0  0  0  0
  -21.3671   -5.6768   24.9150 C   0  0  0  0  0  0
  -21.6041   -4.3034   24.7200 C   0  0  0  0  0  0
  -21.8835   -3.8128   23.4322 C   0  0  0  0  0  0
  -21.9196   -4.6944   22.3377 C   0  0  0  0  0  0
  -22.7828  -13.5206   21.1863 C   0  0  0  0  0  0
  -22.1666   -4.2128   21.0959 F   0  0  0  0  0  0
  -21.5631   -3.4518   25.7716 F   0  0  0  0  0  0
  -29.9495  -13.6733   20.3669 N   0  0  0  0  0  0
  -26.2927  -12.9442   20.3229 N   0  0  0  0  0  0
  -25.9354  -11.6556   20.5697 N   0  0  0  0  0  0
  -22.0457  -12.8241   22.0412 N   0  0  0  0  0  0
  -25.4116  -15.1923   20.4044 N   0  0  0  0  0  0
  -31.7621  -14.9489   20.1543 O   0  0  0  0  0  0
  -21.6643   -6.8850   21.4209 O   0  0  0  0  0  0
  -22.3514  -14.5489   20.6644 O   0  0  0  0  0  0
  -24.6466  -31.8482   23.1826 C   0  0  0  0  0  0
  -25.9230  -32.4721   23.8252 C   0  0  1  0  0  0
  -27.1973  -27.1069   20.1442 C   0  0  0  0  0  0
  -25.6010  -33.8529   24.2180 N   0  0  0  0  0  0
  -23.4471  -30.4698   21.5329 C   0  0  2  0  0  0
  -24.8919  -28.8923   20.1056 C   0  0  0  0  0  0
  -22.7551  -29.4622   22.4850 C   0  0  0  0  0  0
  -18.0333  -28.1422   22.8480 C   0  0  0  0  0  0
  -24.1492  -36.7210   23.2634 C   0  0  0  0  0  0
  -26.0070  -30.7080   21.3858 C   0  0  0  0  0  0
  -26.0743  -29.3193   20.7251 C   0  0  0  0  0  0
  -27.2300  -28.4451   20.7196 C   0  0  0  0  0  0
  -25.9861  -26.7877   19.4934 C   0  0  0  0  0  0
  -24.8660  -27.6440   19.4686 C   0  0  0  0  0  0
  -23.6659  -29.7936   20.1552 C   0  0  0  0  0  0
  -25.4134  -36.3044   24.0310 C   0  0  1  0  0  0
  -20.5937  -28.3792   23.1186 C   0  0  2  0  0  0
  -20.6828  -26.9501   22.5366 C   0  0  0  0  0  0
  -19.5807  -26.6425   21.5181 C   0  0  0  0  0  0
  -18.1989  -26.7968   22.1602 C   0  0  0  0  0  0
  -19.1584  -28.8921   23.2839 C   0  0  0  0  0  0
  -18.9502  -30.1502   23.8897 C   0  0  0  0  0  0
  -17.6499  -30.6619   24.0562 C   0  0  0  0  0  0
  -25.9098  -34.9427   23.5039 C   0  0  0  0  0  0
  -16.5391  -29.9107   23.6335 C   0  0  0  0  0  0
  -16.7319  -28.6508   23.0396 C   0  0  0  0  0  0
  -26.4543  -31.6605   25.0696 C   0  0  0  0  0  0
  -25.3685  -31.3786   26.1348 C   0  0  0  0  0  0
  -27.0402  -30.3015   24.6252 C   0  0  0  0  0  0
  -27.6107  -32.4350   25.7464 C   0  0  0  0  0  0
  -27.5570  -37.1768   24.8465 C   0  0  0  0  0  0
  -21.4255  -29.3086   22.3517 N   0  0  0  0  0  0
  -26.4290  -37.3762   23.9416 N   0  0  0  0  0  0
  -24.7209  -31.0307   22.0874 N   0  0  0  0  0  0
  -23.4164  -28.8196   23.3042 O   0  0  0  0  0  0
  -28.2377  -26.1005   20.2035 O   0  0  0  0  0  0
  -26.5672  -34.8917   22.4607 O   0  0  0  0  0  0
  -23.5580  -32.1398   23.7029 O   0  0  0  0  0  0
  -29.2555  -18.8348   20.3919 C   0  0  0  0  0  0
  -29.6567  -20.2367   20.0463 C   0  0  0  0  0  0
  -31.0003  -20.3004   19.5429 C   0  0  0  0  0  0
  -31.8063  -19.1194   19.5670 C   0  0  0  0  0  0
  -30.1168  -17.6219   20.2785 C   0  0  0  0  0  0
  -34.0538  -19.3312   20.6811 C   0  0  0  0  0  0
  -30.8554  -22.0331   17.6569 C   0  0  0  0  0  0
  -28.6507  -21.5767   20.0818 C   0  0  0  0  0  0
  -33.3173  -19.0758   19.3574 C   0  0  0  0  0  0
  -28.9871  -23.2436   20.2947 C   0  0  0  0  0  0
  -27.9353  -24.5625   20.0918 C   0  0  0  0  0  0
  -31.5886  -21.5827   18.9372 C   0  0  1  0  0  0
  -31.3695  -17.8908   19.9047 N   0  0  0  0  0  0
  -29.7782  -16.1395   20.5152 N   0  0  0  0  0  0
  -31.7260  -22.5282   19.8647 F   0  0  0  0  0  0
  -31.4777  -12.6987   19.1873 H   0  0  0  0  0  0
  -30.4035  -11.6068   20.0129 H   0  0  0  0  0  0
  -29.8353  -11.7276   17.5694 H   0  0  0  0  0  0
  -29.6276  -13.4565   17.6827 H   0  0  0  0  0  0
  -27.9413  -11.2793   18.9594 H   0  0  0  0  0  0
  -27.3932  -12.4675   17.8065 H   0  0  0  0  0  0
  -27.6027  -14.2565   19.4228 H   0  0  0  0  0  0
  -28.7629  -12.2892   21.4511 H   0  0  0  0  0  0
  -28.3894  -13.9623   21.7630 H   0  0  0  0  0  0
  -25.2759   -9.5689   22.4732 H   0  0  0  0  0  0
  -23.9982   -7.4637   22.7495 H   0  0  0  0  0  0
  -21.0799   -8.8774   19.8965 H   0  0  0  0  0  0
  -22.3661  -10.9662   19.6167 H   0  0  0  0  0  0
  -21.2042   -7.6131   23.9683 H   0  0  0  0  0  0
  -21.1478   -6.0499   25.9054 H   0  0  0  0  0  0
  -22.0607   -2.7575   23.2816 H   0  0  0  0  0  0
  -22.4047  -11.9941   22.4884 H   0  0  0  0  0  0
  -21.1067  -13.1293   22.2553 H   0  0  0  0  0  0
  -24.6211  -15.8242   20.4805 H   0  0  0  0  0  0
  -26.2259  -15.6255   19.9907 H   0  0  0  0  0  0
  -26.7286  -32.5314   23.0976 H   0  0  0  0  0  0
  -25.0216  -33.9675   25.0367 H   0  0  0  0  0  0
  -22.7529  -31.2982   21.3781 H   0  0  0  0  0  0
  -23.3802  -35.9495   23.3297 H   0  0  0  0  0  0
  -24.3549  -36.8836   22.2040 H   0  0  0  0  0  0
  -23.7189  -37.6377   23.6670 H   0  0  0  0  0  0
  -26.1671  -31.4615   20.6139 H   0  0  0  0  0  0
  -26.8728  -30.7581   22.0322 H   0  0  0  0  0  0
  -28.1352  -28.7652   21.2152 H   0  0  0  0  0  0
  -25.8522  -25.8334   19.0081 H   0  0  0  0  0  0
  -23.9686  -27.3130   18.9671 H   0  0  0  0  0  0
  -23.7766  -30.5573   19.3851 H   0  0  0  0  0  0
  -22.7815  -29.2247   19.8634 H   0  0  0  0  0  0
  -25.1322  -36.1868   25.0803 H   0  0  0  0  0  0
  -21.0072  -28.3443   24.1297 H   0  0  0  0  0  0
  -20.5735  -26.2440   23.3610 H   0  0  0  0  0  0
  -21.6701  -26.7538   22.1164 H   0  0  0  0  0  0
  -19.6978  -25.6316   21.1277 H   0  0  0  0  0  0
  -19.6729  -27.3172   20.6651 H   0  0  0  0  0  0
  -17.4254  -26.6723   21.4006 H   0  0  0  0  0  0
  -18.0413  -26.0094   22.8985 H   0  0  0  0  0  0
  -19.7981  -30.7311   24.2277 H   0  0  0  0  0  0
  -17.5061  -31.6299   24.5173 H   0  0  0  0  0  0
  -15.5396  -30.3018   23.7658 H   0  0  0  0  0  0
  -15.8719  -28.0789   22.7182 H   0  0  0  0  0  0
  -24.5891  -30.7141   25.7584 H   0  0  0  0  0  0
  -24.8839  -32.2963   26.4695 H   0  0  0  0  0  0
  -25.7906  -30.8968   27.0173 H   0  0  0  0  0  0
  -26.3008  -29.6754   24.1244 H   0  0  0  0  0  0
  -27.4017  -29.7310   25.4813 H   0  0  0  0  0  0
  -27.8921  -30.4262   23.9561 H   0  0  0  0  0  0
  -27.2781  -33.3711   26.1953 H   0  0  0  0  0  0
  -28.3959  -32.6810   25.0301 H   0  0  0  0  0  0
  -28.0735  -31.8517   26.5435 H   0  0  0  0  0  0
  -28.2607  -38.0053   24.7563 H   0  0  0  0  0  0
  -28.1074  -36.2600   24.6282 H   0  0  0  0  0  0
  -27.2288  -37.1372   25.8868 H   0  0  0  0  0  0
  -20.9507  -29.8679   21.6567 H   0  0  0  0  0  0
  -26.0159  -38.2828   24.1456 H   0  0  0  0  0  0
  -28.2342  -18.6904   20.7225 H   0  0  0  0  0  0
  -35.1199  -19.1208   20.5984 H   0  0  0  0  0  0
  -33.6521  -18.6966   21.4747 H   0  0  0  0  0  0
  -33.9316  -20.3634   21.0061 H   0  0  0  0  0  0
  -30.9877  -21.2935   16.8678 H   0  0  0  0  0  0
  -31.2368  -22.9840   17.2872 H   0  0  0  0  0  0
  -29.7836  -22.1455   17.7743 H   0  0  0  0  0  0
  -27.8863  -21.3139   20.8094 H   0  0  0  0  0  0
  -28.1060  -21.5150   19.1427 H   0  0  0  0  0  0
  -33.6681  -19.7145   18.5511 H   0  0  0  0  0  0
  -33.5796  -18.0674   19.0300 H   0  0  0  0  0  0
  -29.7767  -23.5300   19.6115 H   0  0  0  0  0  0
  -29.4131  -23.3239   21.2950 H   0  0  0  0  0  0
  -27.1108  -24.3890   20.7838 H   0  0  0  0  0  0
  -27.4986  -24.4227   19.1024 H   0  0  0  0  0  0
  -32.6159  -21.4575   18.6159 H   0  0  0  0  0  0
  -28.8103  -15.9660   20.7294 H   0  0  0  0  0  0
  1 25  1  0  0  0
  1 30  2  0  0  0
  1 84  1  0  0  0
  2  3  1  0  0  0
  2 25  1  0  0  0
  2 86  1  0  0  0
  2 87  1  0  0  0
  3  4  1  0  0  0
  3 88  1  0  0  0
  3 89  1  0  0  0
  4  5  1  0  0  0
  4 90  1  0  0  0
  4 91  1  0  0  0
  5  6  1  0  0  0
  5 26  1  0  0  0
  5 92  1  0  0  0
  6 25  1  0  0  0
  6 93  1  0  0  0
  6 94  1  0  0  0
  7  8  2  0  0  0
  7 26  1  0  0  0
  7 29  1  0  0  0
  8  9  1  0  0  0
  8 22  1  0  0  0
  9 10  1  0  0  0
  9 27  2  0  0  0
 10 11  2  0  0  0
 10 15  1  0  0  0
 11 12  1  0  0  0
 11 95  1  0  0  0
 12 13  2  0  0  0
 12 96  1  0  0  0
 13 14  1  0  0  0
 13 31  1  0  0  0
 14 15  2  0  0  0
 14 97  1  0  0  0
 15 98  1  0  0  0
 16 17  2  0  0  0
 16 21  1  0  0  0
 16 31  1  0  0  0
 17 18  1  0  0  0
 17 99  1  0  0  0
 18 19  2  0  0  0
 18100  1  0  0  0
 19 20  1  0  0  0
 19 24  1  0  0  0
 20 21  2  0  0  0
 20101  1  0  0  0
 21 23  1  0  0  0
 22 28  1  0  0  0
 22 32  2  0  0  0
 26 27  1  0  0  0
 28102  1  0  0  0
 28103  1  0  0  0
 29104  1  0  0  0
 29105  1  0  0  0
 33 34  1  0  0  0
 33 66  1  0  0  0
 33 70  2  0  0  0
 34 36  1  0  0  0
 34 59  1  0  0  0
 34106  1  0  0  0
 35 44  2  0  0  0
 35 45  1  0  0  0
 35 68  1  0  0  0
 36 56  1  0  0  0
 36107  1  0  0  0
 37 39  1  0  0  0
 37 47  1  0  0  0
 37 66  1  0  0  0
 37108  1  0  0  0
 38 43  2  0  0  0
 38 46  1  0  0  0
 38 47  1  0  0  0
 39 64  1  0  0  0
 39 67  2  0  0  0
 40 52  1  0  0  0
 40 53  2  0  0  0
 40 58  1  0  0  0
 41109  1  0  0  0
 41110  1  0  0  0
 41111  1  0  0  0
 41 48  1  0  0  0
 42 43  1  0  0  0
 42 66  1  0  0  0
 42112  1  0  0  0
 42113  1  0  0  0
 43 44  1  0  0  0
 44114  1  0  0  0
 45 46  2  0  0  0
 45115  1  0  0  0
 46116  1  0  0  0
 47117  1  0  0  0
 47118  1  0  0  0
 48 56  1  0  0  0
 48 65  1  0  0  0
 48119  1  0  0  0
 49 50  1  0  0  0
 49 53  1  0  0  0
 49 64  1  0  0  0
 49120  1  0  0  0
 50 51  1  0  0  0
 50121  1  0  0  0
 50122  1  0  0  0
 51 52  1  0  0  0
 51123  1  0  0  0
 51124  1  0  0  0
 52125  1  0  0  0
 52126  1  0  0  0
 53 54  1  0  0  0
 54 55  2  0  0  0
 54127  1  0  0  0
 55 57  1  0  0  0
 55128  1  0  0  0
 56 69  2  0  0  0
 57 58  2  0  0  0
 57129  1  0  0  0
 58130  1  0  0  0
 59 60  1  0  0  0
 59 61  1  0  0  0
 59 62  1  0  0  0
 60131  1  0  0  0
 60132  1  0  0  0
 60133  1  0  0  0
 61134  1  0  0  0
 61135  1  0  0  0
 61136  1  0  0  0
 62137  1  0  0  0
 62138  1  0  0  0
 62139  1  0  0  0
 63 65  1  0  0  0
 63140  1  0  0  0
 63141  1  0  0  0
 63142  1  0  0  0
 64143  1  0  0  0
 65144  1  0  0  0
 68 81  1  0  0  0
 71 72  2  0  0  0
 71 75  1  0  0  0
 71145  1  0  0  0
 72 73  1  0  0  0
 72 78  1  0  0  0
 73 74  2  0  0  0
 73 82  1  0  0  0
 74 79  1  0  0  0
 74 83  1  0  0  0
 75 83  2  0  0  0
 75 84  1  0  0  0
 76 79  1  0  0  0
 76146  1  0  0  0
 76147  1  0  0  0
 76148  1  0  0  0
 77149  1  0  0  0
 77150  1  0  0  0
 77151  1  0  0  0
 77 82  1  0  0  0
 78 80  1  0  0  0
 78152  1  0  0  0
 78153  1  0  0  0
 79154  1  0  0  0
 79155  1  0  0  0
 80 81  1  0  0  0
 80156  1  0  0  0
 80157  1  0  0  0
 81158  1  0  0  0
 81159  1  0  0  0
 82 85  1  0  0  0
 82160  1  0  0  0
 84161  1  0  0  0
M  ISO  4   1 100  68 101  81 101  84 100
M  END
> <chiral flag>
0

> <version>
0

> <s_m_source_file>
/data/baiqing/PycharmProjects/Reinvent-master-3.2/result/LINK_invent/BTK/process_docking_weight1_custom_sum_contain_oxygen_bond_distance_aromatic_linkinvent_7_9_3/rearranged_h_0109.sdf

> <i_m_source_file_index>
35

> <r_mmod_Potential_Energy-OPLS-2005>
416.581787109375

> <r_mmod_Stretch_Energy-OPLS-2005>
298.1865234375

> <r_mmod_Bend_Energy-OPLS-2005>
289.45751953125

> <r_mmod_Torsional_Energy-OPLS-2005>
207.729797363281

> <r_mmod_Improper_Torsional_Energy-OPLS-2005>
5.1099705696106

> <r_mmod_Van_der_Waal_Energy-OPLS-2005>
151.475616455078

> <r_mmod_Electrostatic_Energy-OPLS-2005>
-500.190551757812

> <r_mmod_Solvation_Energy-OPLS-2005>
-231.376983642578

> <b_mmod_Minimization_Converged-OPLS-2005>
0

> <r_mmod_RMS_Derivative-OPLS-2005>
5.654700756073

$$$$
35
                    3D
 Structure written by MMmdl.
170178  0  0  1  0            999 V2000
  -30.5672  -14.9196   20.5078 C   0  0  0  0  0  0
  -30.4619  -12.5833   19.4737 C   0  0  0  0  0  0
  -29.5179  -12.5640   18.2460 C   0  0  0  0  0  0
  -28.0508  -12.3408   18.6691 C   0  0  0  0  0  0
  -27.6496  -13.2152   19.8868 C   0  0  2  0  0  0
  -28.7334  -13.1400   20.9948 C   0  0  0  0  0  0
  -25.2194  -13.7826   20.5337 C   0  0  0  0  0  0
  -24.1634  -13.0134   20.9169 C   0  0  0  0  0  0
  -24.6384  -11.6710   20.8872 C   0  0  0  0  0  0
  -23.9080  -10.4127   21.0486 C   0  0  0  0  0  0
  -24.3611   -9.4041   21.9260 C   0  0  0  0  0  0
  -23.6261   -8.2097   22.0788 C   0  0  0  0  0  0
  -22.4256   -8.0196   21.3559 C   0  0  0  0  0  0
  -21.9913   -9.0169   20.4669 C   0  0  0  0  0  0
  -22.7266  -10.2023   20.3103 C   0  0  0  0  0  0
  -21.6811   -6.0708   22.5287 C   0  0  0  0  0  0
  -21.3977   -6.5619   23.8220 C   0  0  0  0  0  0
  -21.3664   -5.6777   24.9187 C   0  0  0  0  0  0
  -21.6050   -4.3044   24.7232 C   0  0  0  0  0  0
  -21.8818   -3.8131   23.4354 C   0  0  0  0  0  0
  -21.9172   -4.6944   22.3407 C   0  0  0  0  0  0
  -22.7671  -13.4983   21.1832 C   0  0  0  0  0  0
  -22.1666   -4.2138   21.0984 F   0  0  0  0  0  0
  -21.5634   -3.4533   25.7743 F   0  0  0  0  0  0
  -29.9884  -13.6413   20.4177 N   0  0  0  0  0  0
  -26.2942  -12.9222   20.3528 N   0  0  0  0  0  0
  -25.9388  -11.6380   20.6087 N   0  0  0  0  0  0
  -22.0359  -12.8062   22.0493 N   0  0  0  0  0  0
  -25.3070  -15.1390   20.3006 N   0  0  0  0  0  0
  -31.7200  -14.9956   20.0646 O   0  0  0  0  0  0
  -21.6592   -6.8830   21.4250 O   0  0  0  0  0  0
  -22.3367  -14.5310   20.6709 O   0  0  0  0  0  0
  -24.6352  -31.8474   23.1895 C   0  0  0  0  0  0
  -25.9145  -32.4723   23.8265 C   0  0  1  0  0  0
  -27.2646  -27.2241   20.1506 C   0  0  0  0  0  0
  -25.5892  -33.8516   24.2191 N   0  0  0  0  0  0
  -23.4369  -30.4608   21.5337 C   0  0  2  0  0  0
  -24.8958  -28.8829   20.1287 C   0  0  0  0  0  0
  -22.7526  -29.4539   22.4893 C   0  0  0  0  0  0
  -18.0288  -28.1377   22.8479 C   0  0  0  0  0  0
  -24.1490  -36.7285   23.2649 C   0  0  0  0  0  0
  -25.9825  -30.7530   21.3693 C   0  0  0  0  0  0
  -26.0674  -29.3630   20.7290 C   0  0  0  0  0  0
  -27.2517  -28.5494   20.7215 C   0  0  0  0  0  0
  -26.0641  -26.8115   19.5344 C   0  0  0  0  0  0
  -24.8990  -27.6131   19.5269 C   0  0  0  0  0  0
  -23.6659  -29.7753   20.1588 C   0  0  0  0  0  0
  -25.4118  -36.3054   24.0323 C   0  0  1  0  0  0
  -20.5902  -28.3682   23.1264 C   0  0  2  0  0  0
  -20.6763  -26.9391   22.5410 C   0  0  0  0  0  0
  -19.5738  -26.6371   21.5207 C   0  0  0  0  0  0
  -18.1920  -26.7921   22.1625 C   0  0  0  0  0  0
  -19.1548  -28.8849   23.2863 C   0  0  0  0  0  0
  -18.9473  -30.1450   23.8878 C   0  0  0  0  0  0
  -17.6477  -30.6580   24.0561 C   0  0  0  0  0  0
  -25.9053  -34.9422   23.5078 C   0  0  0  0  0  0
  -16.5365  -29.9082   23.6328 C   0  0  0  0  0  0
  -16.7280  -28.6503   23.0339 C   0  0  0  0  0  0
  -26.4547  -31.6567   25.0656 C   0  0  0  0  0  0
  -25.3792  -31.3708   26.1398 C   0  0  0  0  0  0
  -27.0435  -30.2998   24.6150 C   0  0  0  0  0  0
  -27.6094  -32.4341   25.7410 C   0  0  0  0  0  0
  -27.5576  -37.1794   24.8458 C   0  0  0  0  0  0
  -21.4225  -29.3030   22.3657 N   0  0  0  0  0  0
  -26.4285  -37.3758   23.9405 N   0  0  0  0  0  0
  -24.7041  -31.0393   22.0887 N   0  0  0  0  0  0
  -23.4223  -28.8061   23.2978 O   0  0  0  0  0  0
  -28.4034  -26.3611   20.1043 O   0  0  0  0  0  0
  -26.5666  -34.8916   22.4670 O   0  0  0  0  0  0
  -23.5492  -32.1288   23.7183 O   0  0  0  0  0  0
  -30.1555  -20.0550   19.6061 C   0  0  0  0  0  0
  -30.3289  -18.6142   19.6842 C   0  0  0  0  0  0
  -30.3872  -20.1801   21.9570 C   0  0  0  0  0  0
  -30.1134  -20.9020   20.7581 C   0  0  0  0  0  0
  -30.4327  -17.8781   20.9141 C   0  0  0  0  0  0
  -30.5373  -18.7441   22.0586 C   0  0  0  0  0  0
  -27.5357  -15.9584   22.3497 C   0  0  0  0  0  0
  -27.6170  -16.9691   19.8980 C   0  0  0  0  0  0
  -30.6918  -18.9180   24.4696 C   0  0  0  0  0  0
  -29.9748  -22.5217   20.8380 C   0  0  0  0  0  0
  -28.9469  -23.5557   20.0736 C   0  0  0  0  0  0
  -27.4022  -24.7486   21.8022 C   0  0  0  0  0  0
  -29.9130  -16.3343   21.1316 C   0  0  1  0  0  0
  -28.3554  -16.6023   21.2129 C   0  0  0  0  0  0
  -28.5467  -24.9959   20.7917 C   0  0  2  0  0  0
  -27.3456  -25.7782   22.8606 N   0  3  0  0  0  0
  -30.6869  -18.1247   23.2850 O   0  0  0  0  0  0
  -31.4875  -12.7514   19.1454 H   0  0  0  0  0  0
  -30.4771  -11.6038   19.9569 H   0  0  0  0  0  0
  -29.8266  -11.7906   17.5411 H   0  0  0  0  0  0
  -29.6015  -13.5132   17.7156 H   0  0  0  0  0  0
  -27.9363  -11.2858   18.9220 H   0  0  0  0  0  0
  -27.3803  -12.5292   17.8300 H   0  0  0  0  0  0
  -27.6325  -14.2296   19.5182 H   0  0  0  0  0  0
  -28.8392  -12.1075   21.3299 H   0  0  0  0  0  0
  -28.5220  -13.6711   21.9077 H   0  0  0  0  0  0
  -25.2758   -9.5483   22.4859 H   0  0  0  0  0  0
  -23.9955   -7.4450   22.7475 H   0  0  0  0  0  0
  -21.0864   -8.8697   19.8949 H   0  0  0  0  0  0
  -22.3769  -10.9574   19.6209 H   0  0  0  0  0  0
  -21.1967   -7.6130   23.9731 H   0  0  0  0  0  0
  -21.1518   -6.0506   25.9094 H   0  0  0  0  0  0
  -22.0612   -2.7604   23.2843 H   0  0  0  0  0  0
  -22.3995  -11.9734   22.4905 H   0  0  0  0  0  0
  -21.1013  -13.1140   22.2790 H   0  0  0  0  0  0
  -24.4993  -15.7470   20.3723 H   0  0  0  0  0  0
  -26.1615  -15.6296   20.0654 H   0  0  0  0  0  0
  -26.7196  -32.5397   23.0996 H   0  0  0  0  0  0
  -24.9923  -33.9623   25.0253 H   0  0  0  0  0  0
  -22.7367  -31.2818   21.3723 H   0  0  0  0  0  0
  -23.3750  -35.9619   23.3307 H   0  0  0  0  0  0
  -24.3570  -36.8919   22.2062 H   0  0  0  0  0  0
  -23.7258  -37.6481   23.6687 H   0  0  0  0  0  0
  -26.1074  -31.5041   20.5887 H   0  0  0  0  0  0
  -26.8638  -30.8230   21.9935 H   0  0  0  0  0  0
  -28.1567  -28.9316   21.1744 H   0  0  0  0  0  0
  -26.0268  -25.8392   19.0620 H   0  0  0  0  0  0
  -24.0015  -27.2309   19.0606 H   0  0  0  0  0  0
  -23.8008  -30.5419   19.3941 H   0  0  0  0  0  0
  -22.7862  -29.2076   19.8501 H   0  0  0  0  0  0
  -25.1310  -36.1881   25.0819 H   0  0  0  0  0  0
  -20.9984  -28.3251   24.1388 H   0  0  0  0  0  0
  -20.5602  -26.2297   23.3613 H   0  0  0  0  0  0
  -21.6628  -26.7354   22.1231 H   0  0  0  0  0  0
  -19.6876  -25.6275   21.1234 H   0  0  0  0  0  0
  -19.6675  -27.3176   20.6731 H   0  0  0  0  0  0
  -17.4176  -26.6658   21.4044 H   0  0  0  0  0  0
  -18.0321  -26.0072   22.9027 H   0  0  0  0  0  0
  -19.7951  -30.7263   24.2241 H   0  0  0  0  0  0
  -17.5031  -31.6255   24.5163 H   0  0  0  0  0  0
  -15.5360  -30.2978   23.7658 H   0  0  0  0  0  0
  -15.8680  -28.0826   22.7046 H   0  0  0  0  0  0
  -24.5914  -30.7124   25.7728 H   0  0  0  0  0  0
  -24.9064  -32.2898   26.4873 H   0  0  0  0  0  0
  -25.8130  -30.8840   27.0135 H   0  0  0  0  0  0
  -26.2995  -29.6667   24.1298 H   0  0  0  0  0  0
  -27.4289  -29.7345   25.4636 H   0  0  0  0  0  0
  -27.8799  -30.4320   23.9275 H   0  0  0  0  0  0
  -27.2688  -33.3666   26.1926 H   0  0  0  0  0  0
  -28.3915  -32.6855   25.0240 H   0  0  0  0  0  0
  -28.0744  -31.8524   26.5378 H   0  0  0  0  0  0
  -28.2587  -38.0094   24.7489 H   0  0  0  0  0  0
  -28.1078  -36.2618   24.6297 H   0  0  0  0  0  0
  -27.2285  -37.1448   25.8858 H   0  0  0  0  0  0
  -20.9399  -29.8799   21.6905 H   0  0  0  0  0  0
  -26.0167  -38.2835   24.1396 H   0  0  0  0  0  0
  -30.0248  -20.5054   18.6319 H   0  0  0  0  0  0
  -30.2373  -18.0512   18.7656 H   0  0  0  0  0  0
  -30.4551  -20.7855   22.8476 H   0  0  0  0  0  0
  -26.7174  -16.6191   22.6428 H   0  0  0  0  0  0
  -28.1435  -15.8140   23.2420 H   0  0  0  0  0  0
  -27.0579  -15.0212   22.1088 H   0  0  0  0  0  0
  -26.5827  -17.2434   20.0912 H   0  0  0  0  0  0
  -27.6649  -16.2236   19.1115 H   0  0  0  0  0  0
  -28.0030  -17.8788   19.4523 H   0  0  0  0  0  0
  -30.8098  -18.2714   25.3390 H   0  0  0  0  0  0
  -29.7571  -19.4670   24.5976 H   0  0  0  0  0  0
  -31.5242  -19.6215   24.4764 H   0  0  0  0  0  0
  -30.9807  -22.8977   20.6494 H   0  0  0  0  0  0
  -29.8260  -22.7249   21.8974 H   0  0  0  0  0  0
  -28.0181  -23.0202   19.8752 H   0  0  0  0  0  0
  -29.3627  -23.7586   19.0878 H   0  0  0  0  0  0
  -27.5374  -23.7827   22.2907 H   0  0  0  0  0  0
  -26.4431  -24.6905   21.2871 H   0  0  0  0  0  0
  -30.1889  -16.1257   22.1634 H   0  0  0  0  0  0
  -28.3004  -17.5866   21.6777 H   0  0  0  0  0  0
  -29.4351  -25.1852   21.3955 H   0  0  0  0  0  0
  -28.1855  -25.7772   23.4158 H   0  0  0  0  0  0
  -26.5652  -25.6081   23.4709 H   0  0  0  0  0  0
  -27.2347  -26.6883   22.4445 H   0  0  0  0  0  0
  1 25  1  0  0  0
  1 30  2  0  0  0
  1 83  1  0  0  0
  2  3  1  0  0  0
  2 25  1  0  0  0
  2 88  1  0  0  0
  2 89  1  0  0  0
  3  4  1  0  0  0
  3 90  1  0  0  0
  3 91  1  0  0  0
  4  5  1  0  0  0
  4 92  1  0  0  0
  4 93  1  0  0  0
  5  6  1  0  0  0
  5 26  1  0  0  0
  5 94  1  0  0  0
  6 25  1  0  0  0
  6 95  1  0  0  0
  6 96  1  0  0  0
  7  8  2  0  0  0
  7 26  1  0  0  0
  7 29  1  0  0  0
  8  9  1  0  0  0
  8 22  1  0  0  0
  9 10  1  0  0  0
  9 27  2  0  0  0
 10 11  2  0  0  0
 10 15  1  0  0  0
 11 12  1  0  0  0
 11 97  1  0  0  0
 12 13  2  0  0  0
 12 98  1  0  0  0
 13 14  1  0  0  0
 13 31  1  0  0  0
 14 15  2  0  0  0
 14 99  1  0  0  0
 15100  1  0  0  0
 16 17  2  0  0  0
 16 21  1  0  0  0
 16 31  1  0  0  0
 17 18  1  0  0  0
 17101  1  0  0  0
 18 19  2  0  0  0
 18102  1  0  0  0
 19 20  1  0  0  0
 19 24  1  0  0  0
 20 21  2  0  0  0
 20103  1  0  0  0
 21 23  1  0  0  0
 22 28  1  0  0  0
 22 32  2  0  0  0
 26 27  1  0  0  0
 28104  1  0  0  0
 28105  1  0  0  0
 29106  1  0  0  0
 29107  1  0  0  0
 33 34  1  0  0  0
 33 66  1  0  0  0
 33 70  2  0  0  0
 34 36  1  0  0  0
 34 59  1  0  0  0
 34108  1  0  0  0
 35 44  2  0  0  0
 35 45  1  0  0  0
 35 68  1  0  0  0
 36 56  1  0  0  0
 36109  1  0  0  0
 37 39  1  0  0  0
 37 47  1  0  0  0
 37 66  1  0  0  0
 37110  1  0  0  0
 38 43  2  0  0  0
 38 46  1  0  0  0
 38 47  1  0  0  0
 39 64  1  0  0  0
 39 67  2  0  0  0
 40 52  1  0  0  0
 40 53  2  0  0  0
 40 58  1  0  0  0
 41111  1  0  0  0
 41112  1  0  0  0
 41113  1  0  0  0
 41 48  1  0  0  0
 42 43  1  0  0  0
 42 66  1  0  0  0
 42114  1  0  0  0
 42115  1  0  0  0
 43 44  1  0  0  0
 44116  1  0  0  0
 45 46  2  0  0  0
 45117  1  0  0  0
 46118  1  0  0  0
 47119  1  0  0  0
 47120  1  0  0  0
 48 56  1  0  0  0
 48 65  1  0  0  0
 48121  1  0  0  0
 49 50  1  0  0  0
 49 53  1  0  0  0
 49 64  1  0  0  0
 49122  1  0  0  0
 50 51  1  0  0  0
 50123  1  0  0  0
 50124  1  0  0  0
 51 52  1  0  0  0
 51125  1  0  0  0
 51126  1  0  0  0
 52127  1  0  0  0
 52128  1  0  0  0
 53 54  1  0  0  0
 54 55  2  0  0  0
 54129  1  0  0  0
 55 57  1  0  0  0
 55130  1  0  0  0
 56 69  2  0  0  0
 57 58  2  0  0  0
 57131  1  0  0  0
 58132  1  0  0  0
 59 60  1  0  0  0
 59 61  1  0  0  0
 59 62  1  0  0  0
 60133  1  0  0  0
 60134  1  0  0  0
 60135  1  0  0  0
 61136  1  0  0  0
 61137  1  0  0  0
 61138  1  0  0  0
 62139  1  0  0  0
 62140  1  0  0  0
 62141  1  0  0  0
 63 65  1  0  0  0
 63142  1  0  0  0
 63143  1  0  0  0
 63144  1  0  0  0
 64145  1  0  0  0
 65146  1  0  0  0
 68 85  1  0  0  0
 71 72  2  0  0  0
 71 74  1  0  0  0
 71147  1  0  0  0
 72 75  1  0  0  0
 72148  1  0  0  0
 73 74  2  0  0  0
 73 76  1  0  0  0
 73149  1  0  0  0
 74 80  1  0  0  0
 75 76  2  0  0  0
 75 83  1  0  0  0
 76 87  1  0  0  0
 77150  1  0  0  0
 77151  1  0  0  0
 77152  1  0  0  0
 77 84  1  0  0  0
 78 84  1  0  0  0
 78153  1  0  0  0
 78154  1  0  0  0
 78155  1  0  0  0
 79 87  1  0  0  0
 79156  1  0  0  0
 79157  1  0  0  0
 79158  1  0  0  0
 80 81  1  0  0  0
 80159  1  0  0  0
 80160  1  0  0  0
 81161  1  0  0  0
 81162  1  0  0  0
 81 85  1  0  0  0
 82 85  1  0  0  0
 82 86  1  0  0  0
 82163  1  0  0  0
 82164  1  0  0  0
 83 84  1  0  0  0
 83165  1  0  0  0
 84166  1  0  0  0
 85167  1  0  0  0
 86168  1  0  0  0
 86169  1  0  0  0
 86170  1  0  0  0
M  CHG  1  86   1
M  ISO  4   1 100  68 101  83 100  85 101
M  END
> <chiral flag>
0

> <version>
0

> <s_m_source_file>
/data/baiqing/PycharmProjects/Reinvent-master-3.2/result/LINK_invent/BTK/process_docking_weight1_custom_sum_contain_oxygen_bond_distance_aromatic_linkinvent_7_9_3/rearranged_h_0109.sdf

> <i_m_source_file_index>
36

> <r_mmod_Potential_Energy-OPLS-2005>
456.525329589844

> <r_mmod_Stretch_Energy-OPLS-2005>
212.439376831055

> <r_mmod_Bend_Energy-OPLS-2005>
361.924346923828

> <r_mmod_Torsional_Energy-OPLS-2005>
248.998397827148

> <r_mmod_Improper_Torsional_Energy-OPLS-2005>
8.77452087402344

> <r_mmod_Van_der_Waal_Energy-OPLS-2005>
171.967788696289

> <r_mmod_Electrostatic_Energy-OPLS-2005>
-241.503463745117

> <r_mmod_Solvation_Energy-OPLS-2005>
-439.487426757812

> <b_mmod_Minimization_Converged-OPLS-2005>
0

> <r_mmod_RMS_Derivative-OPLS-2005>
2.77692151069641

$$$$
36
                    3D
 Structure written by MMmdl.
165173  0  0  1  0            999 V2000
  -30.5997  -14.6691   20.4481 C   0  0  0  0  0  0
  -30.4411  -12.3914   19.4689 C   0  0  0  0  0  0
  -29.5142  -12.4878   18.2345 C   0  0  0  0  0  0
  -28.0376  -12.3227   18.6454 C   0  0  0  0  0  0
  -27.6530  -13.2116   19.8585 C   0  0  2  0  0  0
  -28.6975  -13.0865   20.9943 C   0  0  0  0  0  0
  -25.2574  -13.8156   20.5690 C   0  0  0  0  0  0
  -24.1839  -13.0428   20.9192 C   0  0  0  0  0  0
  -24.6405  -11.6905   20.8731 C   0  0  0  0  0  0
  -23.9087  -10.4277   21.0398 C   0  0  0  0  0  0
  -24.3640   -9.4198   21.9172 C   0  0  0  0  0  0
  -23.6312   -8.2241   22.0762 C   0  0  0  0  0  0
  -22.4292   -8.0268   21.3551 C   0  0  0  0  0  0
  -21.9913   -9.0253   20.4667 C   0  0  0  0  0  0
  -22.7247  -10.2131   20.3070 C   0  0  0  0  0  0
  -21.6861   -6.0735   22.5277 C   0  0  0  0  0  0
  -21.4012   -6.5644   23.8210 C   0  0  0  0  0  0
  -21.3659   -5.6800   24.9174 C   0  0  0  0  0  0
  -21.6050   -4.3063   24.7224 C   0  0  0  0  0  0
  -21.8824   -3.8147   23.4350 C   0  0  0  0  0  0
  -21.9193   -4.6962   22.3400 C   0  0  0  0  0  0
  -22.7863  -13.5223   21.1850 C   0  0  0  0  0  0
  -22.1659   -4.2151   21.0979 F   0  0  0  0  0  0
  -21.5632   -3.4542   25.7734 F   0  0  0  0  0  0
  -30.0153  -13.4271   20.4346 N   0  0  0  0  0  0
  -26.2986  -12.9334   20.3285 N   0  0  0  0  0  0
  -25.9325  -11.6492   20.5751 N   0  0  0  0  0  0
  -22.0519  -12.8235   22.0430 N   0  0  0  0  0  0
  -25.4292  -15.1889   20.4135 N   0  0  0  0  0  0
  -31.7453  -14.8449   20.0271 O   0  0  0  0  0  0
  -21.6657   -6.8874   21.4240 O   0  0  0  0  0  0
  -22.3552  -14.5515   20.6675 O   0  0  0  0  0  0
  -24.6276  -31.8607   23.2058 C   0  0  0  0  0  0
  -25.9125  -32.4784   23.8380 C   0  0  1  0  0  0
  -27.2041  -27.2962   20.1173 C   0  0  0  0  0  0
  -25.5948  -33.8595   24.2295 N   0  0  0  0  0  0
  -23.4209  -30.4876   21.5479 C   0  0  2  0  0  0
  -24.8656  -28.9476   20.1058 C   0  0  0  0  0  0
  -22.7482  -29.4631   22.4930 C   0  0  0  0  0  0
  -18.0284  -28.1407   22.8483 C   0  0  0  0  0  0
  -24.1481  -36.7275   23.2639 C   0  0  0  0  0  0
  -25.9650  -30.7814   21.3857 C   0  0  0  0  0  0
  -26.0345  -29.4078   20.7278 C   0  0  0  0  0  0
  -27.2077  -28.5892   20.7356 C   0  0  0  0  0  0
  -26.0384  -26.9346   19.4120 C   0  0  0  0  0  0
  -24.8698  -27.7154   19.4394 C   0  0  0  0  0  0
  -23.6355  -29.8327   20.1591 C   0  0  0  0  0  0
  -25.4112  -36.3088   24.0332 C   0  0  1  0  0  0
  -20.5888  -28.3699   23.1292 C   0  0  2  0  0  0
  -20.6770  -26.9421   22.5439 C   0  0  0  0  0  0
  -19.5766  -26.6383   21.5225 C   0  0  0  0  0  0
  -18.1932  -26.7958   22.1598 C   0  0  0  0  0  0
  -19.1547  -28.8869   23.2877 C   0  0  0  0  0  0
  -18.9470  -30.1462   23.8899 C   0  0  0  0  0  0
  -17.6471  -30.6599   24.0578 C   0  0  0  0  0  0
  -25.9058  -34.9458   23.5104 C   0  0  0  0  0  0
  -16.5362  -29.9117   23.6344 C   0  0  0  0  0  0
  -16.7280  -28.6530   23.0357 C   0  0  0  0  0  0
  -26.4497  -31.6617   25.0762 C   0  0  0  0  0  0
  -25.3733  -31.3841   26.1505 C   0  0  0  0  0  0
  -27.0296  -30.3013   24.6258 C   0  0  0  0  0  0
  -27.6087  -32.4343   25.7492 C   0  0  0  0  0  0
  -27.5588  -37.1785   24.8459 C   0  0  0  0  0  0
  -21.4194  -29.3044   22.3677 N   0  0  0  0  0  0
  -26.4285  -37.3789   23.9429 N   0  0  0  0  0  0
  -24.6893  -31.0604   22.1020 N   0  0  0  0  0  0
  -23.4203  -28.8158   23.3005 O   0  0  0  0  0  0
  -28.2804  -26.3881   20.1386 O   0  0  0  0  0  0
  -26.5608  -34.8928   22.4658 O   0  0  0  0  0  0
  -23.5430  -32.1409   23.7378 O   0  0  0  0  0  0
  -30.7267  -21.3607   21.0169 C   0  0  0  0  0  0
  -28.5439  -22.2875   20.2376 C   0  0  0  0  0  0
  -31.3142  -22.7834   20.8336 C   0  0  0  0  0  0
  -29.6149  -21.1176   19.9843 C   0  0  2  0  0  0
  -29.0836  -23.8151   20.2554 C   0  0  1  0  0  0
  -26.6757  -24.5148   20.9646 C   0  0  0  0  0  0
  -28.4895  -19.4180   18.5654 C   0  0  0  0  0  0
  -29.4860  -16.9879   19.9280 C   0  0  0  0  0  0
  -29.8941  -18.4687   20.4307 C   0  0  0  0  0  0
  -28.1181  -25.0217   20.7565 C   0  0  2  0  0  0
  -29.7709  -15.7263   20.7248 N   0  0  0  0  0  0
  -30.3257  -23.8638   21.0726 N   0  3  0  0  0  0
  -29.0695  -19.6707   19.9115 N   0  3  1  0  0  0
  -31.4844  -12.5102   19.1706 H   0  0  0  0  0  0
  -30.3741  -11.3996   19.9211 H   0  0  0  0  0  0
  -29.7864  -11.7241   17.5036 H   0  0  0  0  0  0
  -29.6542  -13.4505   17.7401 H   0  0  0  0  0  0
  -27.8903  -11.2735   18.9017 H   0  0  0  0  0  0
  -27.3815  -12.5212   17.7967 H   0  0  0  0  0  0
  -27.6650  -14.2394   19.4969 H   0  0  0  0  0  0
  -28.7100  -12.0698   21.3891 H   0  0  0  0  0  0
  -28.4422  -13.7312   21.8365 H   0  0  0  0  0  0
  -25.2799   -9.5673   22.4738 H   0  0  0  0  0  0
  -24.0020   -7.4642   22.7489 H   0  0  0  0  0  0
  -21.0826   -8.8781   19.9005 H   0  0  0  0  0  0
  -22.3688  -10.9672   19.6190 H   0  0  0  0  0  0
  -21.1990   -7.6155   23.9711 H   0  0  0  0  0  0
  -21.1482   -6.0532   25.9081 H   0  0  0  0  0  0
  -22.0593   -2.7610   23.2855 H   0  0  0  0  0  0
  -22.4126  -11.9894   22.4819 H   0  0  0  0  0  0
  -21.1149  -13.1293   22.2655 H   0  0  0  0  0  0
  -24.6640  -15.8411   20.5416 H   0  0  0  0  0  0
  -26.2751  -15.6277   20.0740 H   0  0  0  0  0  0
  -26.7191  -32.5444   23.1125 H   0  0  0  0  0  0
  -25.0176  -33.9758   25.0496 H   0  0  0  0  0  0
  -22.7161  -31.3105   21.4121 H   0  0  0  0  0  0
  -23.3769  -35.9580   23.3289 H   0  0  0  0  0  0
  -24.3588  -36.8901   22.2055 H   0  0  0  0  0  0
  -23.7193  -37.6460   23.6666 H   0  0  0  0  0  0
  -26.1047  -31.5479   20.6217 H   0  0  0  0  0  0
  -26.8403  -30.8230   22.0213 H   0  0  0  0  0  0
  -28.0978  -28.9305   21.2452 H   0  0  0  0  0  0
  -26.0126  -26.0138   18.8496 H   0  0  0  0  0  0
  -23.9861  -27.3752   18.9177 H   0  0  0  0  0  0
  -23.7615  -30.6174   19.4124 H   0  0  0  0  0  0
  -22.7521  -29.2726   19.8469 H   0  0  0  0  0  0
  -25.1291  -36.1929   25.0823 H   0  0  0  0  0  0
  -20.9982  -28.3282   24.1418 H   0  0  0  0  0  0
  -20.5642  -26.2331   23.3649 H   0  0  0  0  0  0
  -21.6649  -26.7441   22.1270 H   0  0  0  0  0  0
  -19.6935  -25.6285   21.1283 H   0  0  0  0  0  0
  -19.6736  -27.3171   20.6739 H   0  0  0  0  0  0
  -17.4230  -26.6746   21.3964 H   0  0  0  0  0  0
  -18.0285  -26.0088   22.8965 H   0  0  0  0  0  0
  -19.7942  -30.7269   24.2285 H   0  0  0  0  0  0
  -17.5036  -31.6286   24.5174 H   0  0  0  0  0  0
  -15.5367  -30.3018   23.7669 H   0  0  0  0  0  0
  -15.8670  -28.0848   22.7083 H   0  0  0  0  0  0
  -24.5966  -30.7065   25.7943 H   0  0  0  0  0  0
  -24.8834  -32.3021   26.4765 H   0  0  0  0  0  0
  -25.8059  -30.9234   27.0388 H   0  0  0  0  0  0
  -26.2857  -29.6801   24.1247 H   0  0  0  0  0  0
  -27.3902  -29.7255   25.4791 H   0  0  0  0  0  0
  -27.8786  -30.4258   23.9534 H   0  0  0  0  0  0
  -27.2737  -33.3670   26.2045 H   0  0  0  0  0  0
  -28.3886  -32.6850   25.0293 H   0  0  0  0  0  0
  -28.0759  -31.8484   26.5415 H   0  0  0  0  0  0
  -28.2628  -38.0068   24.7507 H   0  0  0  0  0  0
  -28.1051  -36.2602   24.6244 H   0  0  0  0  0  0
  -27.2334  -37.1397   25.8873 H   0  0  0  0  0  0
  -20.9371  -29.8794   21.6906 H   0  0  0  0  0  0
  -26.0159  -38.2852   24.1485 H   0  0  0  0  0  0
  -30.3422  -21.2316   22.0298 H   0  0  0  0  0  0
  -31.5347  -20.6406   20.8986 H   0  0  0  0  0  0
  -28.0683  -22.0702   21.1950 H   0  0  0  0  0  0
  -27.7516  -22.2169   19.4920 H   0  0  0  0  0  0
  -31.7202  -22.8972   19.8273 H   0  0  0  0  0  0
  -32.1526  -22.9311   21.5144 H   0  0  0  0  0  0
  -30.0758  -21.3037   19.0108 H   0  0  0  0  0  0
  -29.3663  -24.0495   19.2284 H   0  0  0  0  0  0
  -26.6508  -23.6722   21.6532 H   0  0  0  0  0  0
  -26.2210  -24.1907   20.0300 H   0  0  0  0  0  0
  -26.0415  -25.2651   21.4362 H   0  0  0  0  0  0
  -28.0072  -20.3024   18.1486 H   0  0  0  0  0  0
  -27.7195  -18.6486   18.5982 H   0  0  0  0  0  0
  -29.2556  -19.1012   17.8573 H   0  0  0  0  0  0
  -29.8639  -16.8380   18.9136 H   0  0  0  0  0  0
  -28.4028  -16.9624   19.8247 H   0  0  0  0  0  0
  -30.9325  -18.6165   20.1377 H   0  0  0  0  0  0
  -29.8789  -18.5010   21.5194 H   0  0  0  0  0  0
  -28.4264  -25.2284   21.7825 H   0  0  0  0  0  0
  -28.9603  -15.4112   21.2379 H   0  0  0  0  0  0
  -30.7789  -24.7487   20.8945 H   0  0  0  0  0  0
  -30.0844  -23.8640   22.0530 H   0  0  0  0  0  0
  -28.2715  -19.6774   20.5284 H   0  0  0  0  0  0
  1 25  1  0  0  0
  1 30  2  0  0  0
  1 81  1  0  0  0
  2  3  1  0  0  0
  2 25  1  0  0  0
  2 84  1  0  0  0
  2 85  1  0  0  0
  3  4  1  0  0  0
  3 86  1  0  0  0
  3 87  1  0  0  0
  4  5  1  0  0  0
  4 88  1  0  0  0
  4 89  1  0  0  0
  5  6  1  0  0  0
  5 26  1  0  0  0
  5 90  1  0  0  0
  6 25  1  0  0  0
  6 91  1  0  0  0
  6 92  1  0  0  0
  7  8  2  0  0  0
  7 26  1  0  0  0
  7 29  1  0  0  0
  8  9  1  0  0  0
  8 22  1  0  0  0
  9 10  1  0  0  0
  9 27  2  0  0  0
 10 11  2  0  0  0
 10 15  1  0  0  0
 11 12  1  0  0  0
 11 93  1  0  0  0
 12 13  2  0  0  0
 12 94  1  0  0  0
 13 14  1  0  0  0
 13 31  1  0  0  0
 14 15  2  0  0  0
 14 95  1  0  0  0
 15 96  1  0  0  0
 16 17  2  0  0  0
 16 21  1  0  0  0
 16 31  1  0  0  0
 17 18  1  0  0  0
 17 97  1  0  0  0
 18 19  2  0  0  0
 18 98  1  0  0  0
 19 20  1  0  0  0
 19 24  1  0  0  0
 20 21  2  0  0  0
 20 99  1  0  0  0
 21 23  1  0  0  0
 22 28  1  0  0  0
 22 32  2  0  0  0
 26 27  1  0  0  0
 28100  1  0  0  0
 28101  1  0  0  0
 29102  1  0  0  0
 29103  1  0  0  0
 33 34  1  0  0  0
 33 66  1  0  0  0
 33 70  2  0  0  0
 34 36  1  0  0  0
 34 59  1  0  0  0
 34104  1  0  0  0
 35 44  2  0  0  0
 35 45  1  0  0  0
 35 68  1  0  0  0
 36 56  1  0  0  0
 36105  1  0  0  0
 37 39  1  0  0  0
 37 47  1  0  0  0
 37 66  1  0  0  0
 37106  1  0  0  0
 38 43  2  0  0  0
 38 46  1  0  0  0
 38 47  1  0  0  0
 39 64  1  0  0  0
 39 67  2  0  0  0
 40 52  1  0  0  0
 40 53  2  0  0  0
 40 58  1  0  0  0
 41107  1  0  0  0
 41108  1  0  0  0
 41109  1  0  0  0
 41 48  1  0  0  0
 42 43  1  0  0  0
 42 66  1  0  0  0
 42110  1  0  0  0
 42111  1  0  0  0
 43 44  1  0  0  0
 44112  1  0  0  0
 45 46  2  0  0  0
 45113  1  0  0  0
 46114  1  0  0  0
 47115  1  0  0  0
 47116  1  0  0  0
 48 56  1  0  0  0
 48 65  1  0  0  0
 48117  1  0  0  0
 49 50  1  0  0  0
 49 53  1  0  0  0
 49 64  1  0  0  0
 49118  1  0  0  0
 50 51  1  0  0  0
 50119  1  0  0  0
 50120  1  0  0  0
 51 52  1  0  0  0
 51121  1  0  0  0
 51122  1  0  0  0
 52123  1  0  0  0
 52124  1  0  0  0
 53 54  1  0  0  0
 54 55  2  0  0  0
 54125  1  0  0  0
 55 57  1  0  0  0
 55126  1  0  0  0
 56 69  2  0  0  0
 57 58  2  0  0  0
 57127  1  0  0  0
 58128  1  0  0  0
 59 60  1  0  0  0
 59 61  1  0  0  0
 59 62  1  0  0  0
 60129  1  0  0  0
 60130  1  0  0  0
 60131  1  0  0  0
 61132  1  0  0  0
 61133  1  0  0  0
 61134  1  0  0  0
 62135  1  0  0  0
 62136  1  0  0  0
 62137  1  0  0  0
 63 65  1  0  0  0
 63138  1  0  0  0
 63139  1  0  0  0
 63140  1  0  0  0
 64141  1  0  0  0
 65142  1  0  0  0
 68 80  1  0  0  0
 71 73  1  0  0  0
 71143  1  0  0  0
 71144  1  0  0  0
 71 74  1  0  0  0
 72 74  1  0  0  0
 72145  1  0  0  0
 72146  1  0  0  0
 72 75  1  0  0  0
 73 82  1  0  0  0
 73147  1  0  0  0
 73148  1  0  0  0
 74 83  1  0  0  0
 74149  1  0  0  0
 75 80  1  0  0  0
 75 82  1  0  0  0
 75150  1  0  0  0
 76151  1  0  0  0
 76152  1  0  0  0
 76153  1  0  0  0
 76 80  1  0  0  0
 77154  1  0  0  0
 77155  1  0  0  0
 77156  1  0  0  0
 77 83  1  0  0  0
 78 79  1  0  0  0
 78 81  1  0  0  0
 78157  1  0  0  0
 78158  1  0  0  0
 79 83  1  0  0  0
 79159  1  0  0  0
 79160  1  0  0  0
 80161  1  0  0  0
 81162  1  0  0  0
 82163  1  0  0  0
 82164  1  0  0  0
 83165  1  0  0  0
M  CHG  2  82   1  83   1
M  ISO  4   1 100  68 101  80 101  81 100
M  END
> <chiral flag>
0

> <version>
0

> <s_m_source_file>
/data/baiqing/PycharmProjects/Reinvent-master-3.2/result/LINK_invent/BTK/process_docking_weight1_custom_sum_contain_oxygen_bond_distance_aromatic_linkinvent_7_9_3/rearranged_h_0109.sdf

> <i_m_source_file_index>
37

> <r_mmod_Potential_Energy-OPLS-2005>
-62.3679504394531

> <r_mmod_Stretch_Energy-OPLS-2005>
116.49853515625

> <r_mmod_Bend_Energy-OPLS-2005>
185.619522094727

> <r_mmod_Torsional_Energy-OPLS-2005>
323.294342041016

> <r_mmod_Improper_Torsional_Energy-OPLS-2005>
8.08285617828369

> <r_mmod_Van_der_Waal_Energy-OPLS-2005>
139.694686889648

> <r_mmod_Electrostatic_Energy-OPLS-2005>
71.9828567504883

> <r_mmod_Solvation_Energy-OPLS-2005>
-972.732238769531

> <b_mmod_Minimization_Converged-OPLS-2005>
0

> <r_mmod_RMS_Derivative-OPLS-2005>
3.06320357322693

$$$$
37
                    3D
 Structure written by MMmdl.
156164  0  0  1  0            999 V2000
  -30.3891  -15.4436   20.3447 C   0  0  0  0  0  0
  -30.4265  -12.9399   19.5309 C   0  0  0  0  0  0
  -29.5384  -12.6112   18.3025 C   0  0  0  0  0  0
  -28.0992  -12.2971   18.7400 C   0  0  0  0  0  0
  -27.6002  -13.2923   19.8147 C   0  0  2  0  0  0
  -28.6260  -13.5552   20.9394 C   0  0  0  0  0  0
  -25.2342  -13.8270   20.5774 C   0  0  0  0  0  0
  -24.1717  -13.0436   20.9277 C   0  0  0  0  0  0
  -24.6397  -11.6941   20.8766 C   0  0  0  0  0  0
  -23.9101  -10.4292   21.0402 C   0  0  0  0  0  0
  -24.3642   -9.4205   21.9182 C   0  0  0  0  0  0
  -23.6307   -8.2244   22.0754 C   0  0  0  0  0  0
  -22.4288   -8.0283   21.3544 C   0  0  0  0  0  0
  -21.9931   -9.0258   20.4645 C   0  0  0  0  0  0
  -22.7270  -10.2132   20.3052 C   0  0  0  0  0  0
  -21.6858   -6.0737   22.5278 C   0  0  0  0  0  0
  -21.4018   -6.5640   23.8211 C   0  0  0  0  0  0
  -21.3660   -5.6793   24.9173 C   0  0  0  0  0  0
  -21.6044   -4.3055   24.7225 C   0  0  0  0  0  0
  -21.8818   -3.8147   23.4346 C   0  0  0  0  0  0
  -21.9194   -4.6964   22.3402 C   0  0  0  0  0  0
  -22.7731  -13.5174   21.1916 C   0  0  0  0  0  0
  -22.1662   -4.2149   21.0979 F   0  0  0  0  0  0
  -21.5628   -3.4539   25.7738 F   0  0  0  0  0  0
  -29.8278  -14.1150   20.2911 N   0  0  0  0  0  0
  -26.2775  -12.9573   20.3221 N   0  0  0  0  0  0
  -25.9338  -11.6661   20.5714 N   0  0  0  0  0  0
  -22.0396  -12.8151   22.0470 N   0  0  0  0  0  0
  -25.3953  -15.2008   20.4214 N   0  0  0  0  0  0
  -31.6192  -15.3761   20.1812 O   0  0  0  0  0  0
  -21.6646   -6.8883   21.4241 O   0  0  0  0  0  0
  -22.3406  -14.5472   20.6752 O   0  0  0  0  0  0
  -24.6731  -31.8115   23.1600 C   0  0  0  0  0  0
  -25.9363  -32.4524   23.8109 C   0  0  1  0  0  0
  -27.2206  -26.8137   20.2037 C   0  0  0  0  0  0
  -25.5986  -33.8344   24.2006 N   0  0  0  0  0  0
  -23.4932  -30.4173   21.5120 C   0  0  2  0  0  0
  -24.9472  -28.7776   20.1168 C   0  0  0  0  0  0
  -22.7713  -29.4377   22.4751 C   0  0  0  0  0  0
  -18.0329  -28.1413   22.8461 C   0  0  0  0  0  0
  -24.1495  -36.7179   23.2650 C   0  0  0  0  0  0
  -26.0677  -30.5816   21.4058 C   0  0  0  0  0  0
  -26.1339  -29.1579   20.7547 C   0  0  0  0  0  0
  -27.2612  -28.2011   20.7654 C   0  0  0  0  0  0
  -26.0018  -26.6100   19.5155 C   0  0  0  0  0  0
  -24.9132  -27.5274   19.4748 C   0  0  0  0  0  0
  -23.7393  -29.7207   20.1437 C   0  0  0  0  0  0
  -25.4141  -36.2929   24.0289 C   0  0  1  0  0  0
  -20.5958  -28.3765   23.1166 C   0  0  2  0  0  0
  -20.6799  -26.9435   22.5403 C   0  0  0  0  0  0
  -19.5775  -26.6372   21.5215 C   0  0  0  0  0  0
  -18.1958  -26.7943   22.1621 C   0  0  0  0  0  0
  -19.1591  -28.8912   23.2797 C   0  0  0  0  0  0
  -18.9500  -30.1498   23.8838 C   0  0  0  0  0  0
  -17.6491  -30.6599   24.0551 C   0  0  0  0  0  0
  -25.9114  -34.9315   23.4978 C   0  0  0  0  0  0
  -16.5382  -29.9084   23.6346 C   0  0  0  0  0  0
  -16.7309  -28.6505   23.0364 C   0  0  0  0  0  0
  -26.4578  -31.6515   25.0686 C   0  0  0  0  0  0
  -25.3677  -31.3797   26.1323 C   0  0  0  0  0  0
  -27.0495  -30.2870   24.6501 C   0  0  0  0  0  0
  -27.6044  -32.4354   25.7501 C   0  0  0  0  0  0
  -27.5567  -37.1747   24.8466 C   0  0  0  0  0  0
  -21.4372  -29.3035   22.3503 N   0  0  0  0  0  0
  -26.4277  -37.3677   23.9406 N   0  0  0  0  0  0
  -24.7671  -30.9669   22.0792 N   0  0  0  0  0  0
  -23.4209  -28.7967   23.3047 O   0  0  0  0  0  0
  -28.2255  -25.6727   20.2662 O   0  0  0  0  0  0
  -26.5743  -34.8874   22.4586 O   0  0  0  0  0  0
  -23.5777  -32.1138   23.6627 O   0  0  0  0  0  0
  -28.7481  -21.2158   19.1053 C   0  0  0  0  0  0
  -28.6701  -21.2203   21.4469 C   0  0  0  0  0  0
  -28.7672  -22.9337   19.1111 C   0  0  0  0  0  0
  -28.6772  -22.9391   21.4204 C   0  0  0  0  0  0
  -29.3508  -20.2424   20.3008 C   0  0  1  0  0  0
  -28.0990  -23.9648   20.2370 C   0  0  1  0  0  0
  -31.0518  -18.5767   21.5003 C   0  0  0  0  0  0
  -30.8988  -18.5160   19.0026 C   0  0  0  0  0  0
  -30.0762  -18.4734   20.3071 C   0  0  0  0  0  0
  -29.6696  -16.7953   20.3859 N   0  0  0  0  0  0
  -31.4353  -13.1638   19.1823 H   0  0  0  0  0  0
  -30.5345  -12.0673   20.1773 H   0  0  0  0  0  0
  -29.9544  -11.7733   17.7416 H   0  0  0  0  0  0
  -29.5340  -13.4650   17.6231 H   0  0  0  0  0  0
  -28.0912  -11.2859   19.1486 H   0  0  0  0  0  0
  -27.4287  -12.2867   17.8798 H   0  0  0  0  0  0
  -27.4860  -14.2348   19.2773 H   0  0  0  0  0  0
  -28.8412  -12.6513   21.5112 H   0  0  0  0  0  0
  -28.2303  -14.2844   21.6480 H   0  0  0  0  0  0
  -25.2783   -9.5681   22.4764 H   0  0  0  0  0  0
  -24.0010   -7.4636   22.7477 H   0  0  0  0  0  0
  -21.0861   -8.8782   19.8951 H   0  0  0  0  0  0
  -22.3727  -10.9673   19.6164 H   0  0  0  0  0  0
  -21.2012   -7.6148   23.9715 H   0  0  0  0  0  0
  -21.1484   -6.0523   25.9076 H   0  0  0  0  0  0
  -22.0597   -2.7609   23.2846 H   0  0  0  0  0  0
  -22.4038  -11.9828   22.4865 H   0  0  0  0  0  0
  -21.1002  -13.1147   22.2669 H   0  0  0  0  0  0
  -24.6238  -15.8493   20.5356 H   0  0  0  0  0  0
  -26.2360  -15.6440   20.0754 H   0  0  0  0  0  0
  -26.7437  -32.5026   23.0821 H   0  0  0  0  0  0
  -25.0053  -33.9402   25.0105 H   0  0  0  0  0  0
  -22.8127  -31.2518   21.3306 H   0  0  0  0  0  0
  -23.3771  -35.9495   23.3273 H   0  0  0  0  0  0
  -24.3566  -36.8875   22.2072 H   0  0  0  0  0  0
  -23.7243  -37.6347   23.6745 H   0  0  0  0  0  0
  -26.2583  -31.3142   20.6205 H   0  0  0  0  0  0
  -26.9237  -30.6449   22.0657 H   0  0  0  0  0  0
  -28.1603  -28.4961   21.2876 H   0  0  0  0  0  0
  -25.8597  -25.6585   19.0230 H   0  0  0  0  0  0
  -24.0137  -27.2295   18.9537 H   0  0  0  0  0  0
  -23.9053  -30.4834   19.3822 H   0  0  0  0  0  0
  -22.8462  -29.1811   19.8236 H   0  0  0  0  0  0
  -25.1347  -36.1707   25.0780 H   0  0  0  0  0  0
  -21.0042  -28.3381   24.1292 H   0  0  0  0  0  0
  -20.5666  -26.2388   23.3655 H   0  0  0  0  0  0
  -21.6662  -26.7392   22.1219 H   0  0  0  0  0  0
  -19.6933  -25.6268   21.1283 H   0  0  0  0  0  0
  -19.6715  -27.3150   20.6719 H   0  0  0  0  0  0
  -17.4225  -26.6684   21.4026 H   0  0  0  0  0  0
  -18.0352  -26.0100   22.9031 H   0  0  0  0  0  0
  -19.7975  -30.7329   24.2183 H   0  0  0  0  0  0
  -17.5042  -31.6273   24.5164 H   0  0  0  0  0  0
  -15.5379  -30.2966   23.7703 H   0  0  0  0  0  0
  -15.8711  -28.0802   22.7115 H   0  0  0  0  0  0
  -24.5881  -30.7125   25.7626 H   0  0  0  0  0  0
  -24.8844  -32.3007   26.4592 H   0  0  0  0  0  0
  -25.7883  -30.9065   27.0205 H   0  0  0  0  0  0
  -26.3188  -29.6513   24.1489 H   0  0  0  0  0  0
  -27.3967  -29.7274   25.5197 H   0  0  0  0  0  0
  -27.9150  -30.4025   23.9975 H   0  0  0  0  0  0
  -27.2590  -33.3704   26.1925 H   0  0  0  0  0  0
  -28.3935  -32.6839   25.0393 H   0  0  0  0  0  0
  -28.0627  -31.8590   26.5548 H   0  0  0  0  0  0
  -28.2558  -38.0066   24.7510 H   0  0  0  0  0  0
  -28.1089  -36.2589   24.6298 H   0  0  0  0  0  0
  -27.2281  -37.1390   25.8867 H   0  0  0  0  0  0
  -20.9654  -29.8704   21.6595 H   0  0  0  0  0  0
  -26.0113  -38.2730   24.1414 H   0  0  0  0  0  0
  -29.2504  -20.9130   18.1861 H   0  0  0  0  0  0
  -27.7116  -20.9141   18.9485 H   0  0  0  0  0  0
  -27.6281  -20.9123   21.5422 H   0  0  0  0  0  0
  -29.1185  -20.9300   22.3976 H   0  0  0  0  0  0
  -28.3539  -23.2414   18.1503 H   0  0  0  0  0  0
  -29.8194  -23.2126   19.0412 H   0  0  0  0  0  0
  -29.7194  -23.2243   21.5703 H   0  0  0  0  0  0
  -28.1891  -23.2535   22.3433 H   0  0  0  0  0  0
  -30.3300  -20.7188   20.3238 H   0  0  0  0  0  0
  -27.0226  -23.7963   20.1966 H   0  0  0  0  0  0
  -31.7511  -17.7419   21.5427 H   0  0  0  0  0  0
  -30.5046  -18.5929   22.4433 H   0  0  0  0  0  0
  -31.6661  -19.4767   21.4692 H   0  0  0  0  0  0
  -31.6409  -17.7200   18.9476 H   0  0  0  0  0  0
  -31.4491  -19.4501   18.8872 H   0  0  0  0  0  0
  -30.2473  -18.4177   18.1338 H   0  0  0  0  0  0
  -28.6718  -16.6584   20.4696 H   0  0  0  0  0  0
  1 25  1  0  0  0
  1 30  2  0  0  0
  1 80  1  0  0  0
  2  3  1  0  0  0
  2 25  1  0  0  0
  2 81  1  0  0  0
  2 82  1  0  0  0
  3  4  1  0  0  0
  3 83  1  0  0  0
  3 84  1  0  0  0
  4  5  1  0  0  0
  4 85  1  0  0  0
  4 86  1  0  0  0
  5  6  1  0  0  0
  5 26  1  0  0  0
  5 87  1  0  0  0
  6 25  1  0  0  0
  6 88  1  0  0  0
  6 89  1  0  0  0
  7  8  2  0  0  0
  7 26  1  0  0  0
  7 29  1  0  0  0
  8  9  1  0  0  0
  8 22  1  0  0  0
  9 10  1  0  0  0
  9 27  2  0  0  0
 10 11  2  0  0  0
 10 15  1  0  0  0
 11 12  1  0  0  0
 11 90  1  0  0  0
 12 13  2  0  0  0
 12 91  1  0  0  0
 13 14  1  0  0  0
 13 31  1  0  0  0
 14 15  2  0  0  0
 14 92  1  0  0  0
 15 93  1  0  0  0
 16 17  2  0  0  0
 16 21  1  0  0  0
 16 31  1  0  0  0
 17 18  1  0  0  0
 17 94  1  0  0  0
 18 19  2  0  0  0
 18 95  1  0  0  0
 19 20  1  0  0  0
 19 24  1  0  0  0
 20 21  2  0  0  0
 20 96  1  0  0  0
 21 23  1  0  0  0
 22 28  1  0  0  0
 22 32  2  0  0  0
 26 27  1  0  0  0
 28 97  1  0  0  0
 28 98  1  0  0  0
 29 99  1  0  0  0
 29100  1  0  0  0
 33 34  1  0  0  0
 33 66  1  0  0  0
 33 70  2  0  0  0
 34 36  1  0  0  0
 34 59  1  0  0  0
 34101  1  0  0  0
 35 44  2  0  0  0
 35 45  1  0  0  0
 35 68  1  0  0  0
 36 56  1  0  0  0
 36102  1  0  0  0
 37 39  1  0  0  0
 37 47  1  0  0  0
 37 66  1  0  0  0
 37103  1  0  0  0
 38 43  2  0  0  0
 38 46  1  0  0  0
 38 47  1  0  0  0
 39 64  1  0  0  0
 39 67  2  0  0  0
 40 52  1  0  0  0
 40 53  2  0  0  0
 40 58  1  0  0  0
 41104  1  0  0  0
 41105  1  0  0  0
 41106  1  0  0  0
 41 48  1  0  0  0
 42 43  1  0  0  0
 42 66  1  0  0  0
 42107  1  0  0  0
 42108  1  0  0  0
 43 44  1  0  0  0
 44109  1  0  0  0
 45 46  2  0  0  0
 45110  1  0  0  0
 46111  1  0  0  0
 47112  1  0  0  0
 47113  1  0  0  0
 48 56  1  0  0  0
 48 65  1  0  0  0
 48114  1  0  0  0
 49 50  1  0  0  0
 49 53  1  0  0  0
 49 64  1  0  0  0
 49115  1  0  0  0
 50 51  1  0  0  0
 50116  1  0  0  0
 50117  1  0  0  0
 51 52  1  0  0  0
 51118  1  0  0  0
 51119  1  0  0  0
 52120  1  0  0  0
 52121  1  0  0  0
 53 54  1  0  0  0
 54 55  2  0  0  0
 54122  1  0  0  0
 55 57  1  0  0  0
 55123  1  0  0  0
 56 69  2  0  0  0
 57 58  2  0  0  0
 57124  1  0  0  0
 58125  1  0  0  0
 59 60  1  0  0  0
 59 61  1  0  0  0
 59 62  1  0  0  0
 60126  1  0  0  0
 60127  1  0  0  0
 60128  1  0  0  0
 61129  1  0  0  0
 61130  1  0  0  0
 61131  1  0  0  0
 62132  1  0  0  0
 62133  1  0  0  0
 62134  1  0  0  0
 63 65  1  0  0  0
 63135  1  0  0  0
 63136  1  0  0  0
 63137  1  0  0  0
 64138  1  0  0  0
 65139  1  0  0  0
 68 76  1  0  0  0
 71 73  1  0  0  0
 71140  1  0  0  0
 71141  1  0  0  0
 71 75  1  0  0  0
 72 74  1  0  0  0
 72 75  1  0  0  0
 72142  1  0  0  0
 72143  1  0  0  0
 73 76  1  0  0  0
 73144  1  0  0  0
 73145  1  0  0  0
 74 76  1  0  0  0
 74146  1  0  0  0
 74147  1  0  0  0
 75 79  1  0  0  0
 75148  1  0  0  0
 76149  1  0  0  0
 77150  1  0  0  0
 77151  1  0  0  0
 77152  1  0  0  0
 77 79  1  0  0  0
 78 79  1  0  0  0
 78153  1  0  0  0
 78154  1  0  0  0
 78155  1  0  0  0
 79 80  1  0  0  0
 80156  1  0  0  0
M  ISO  4   1 100  68 101  76 101  80 100
M  END
> <chiral flag>
0

> <version>
0

> <s_m_source_file>
/data/baiqing/PycharmProjects/Reinvent-master-3.2/result/LINK_invent/BTK/process_docking_weight1_custom_sum_contain_oxygen_bond_distance_aromatic_linkinvent_7_9_3/rearranged_h_0109.sdf

> <i_m_source_file_index>
38

> <r_mmod_Potential_Energy-OPLS-2005>
1948.99291992188

> <r_mmod_Stretch_Energy-OPLS-2005>
786.277954101562

> <r_mmod_Bend_Energy-OPLS-2005>
704.271240234375

> <r_mmod_Torsional_Energy-OPLS-2005>
254.20393371582

> <r_mmod_Improper_Torsional_Energy-OPLS-2005>
3.75019431114197

> <r_mmod_Van_der_Waal_Energy-OPLS-2005>
117.663619995117

> <r_mmod_Electrostatic_Energy-OPLS-2005>
-365.878662109375

> <r_mmod_Solvation_Energy-OPLS-2005>
-199.718612670898

> <b_mmod_Minimization_Converged-OPLS-2005>
0

> <r_mmod_RMS_Derivative-OPLS-2005>
0.214681595563889

$$$$
38
                    3D
 Structure written by MMmdl.
161169  0  0  1  0            999 V2000
  -30.5647  -14.7856   20.4641 C   0  0  0  0  0  0
  -30.4463  -12.4872   19.4562 C   0  0  0  0  0  0
  -29.5109  -12.5087   18.2261 C   0  0  0  0  0  0
  -28.0384  -12.3209   18.6465 C   0  0  0  0  0  0
  -27.6388  -13.2247   19.8426 C   0  0  2  0  0  0
  -28.6875  -13.1601   20.9722 C   0  0  0  0  0  0
  -25.2511  -13.8174   20.5683 C   0  0  0  0  0  0
  -24.1804  -13.0428   20.9217 C   0  0  0  0  0  0
  -24.6389  -11.6904   20.8754 C   0  0  0  0  0  0
  -23.9063  -10.4286   21.0414 C   0  0  0  0  0  0
  -24.3617   -9.4201   21.9189 C   0  0  0  0  0  0
  -23.6292   -8.2237   22.0756 C   0  0  0  0  0  0
  -22.4274   -8.0278   21.3545 C   0  0  0  0  0  0
  -21.9910   -9.0251   20.4647 C   0  0  0  0  0  0
  -22.7238  -10.2130   20.3059 C   0  0  0  0  0  0
  -21.6851   -6.0734   22.5279 C   0  0  0  0  0  0
  -21.4013   -6.5638   23.8212 C   0  0  0  0  0  0
  -21.3659   -5.6791   24.9175 C   0  0  0  0  0  0
  -21.6044   -4.3054   24.7225 C   0  0  0  0  0  0
  -21.8819   -3.8146   23.4346 C   0  0  0  0  0  0
  -21.9193   -4.6962   22.3402 C   0  0  0  0  0  0
  -22.7827  -13.5217   21.1876 C   0  0  0  0  0  0
  -22.1661   -4.2148   21.0980 F   0  0  0  0  0  0
  -21.5629   -3.4538   25.7738 F   0  0  0  0  0  0
  -29.9769  -13.5417   20.3815 N   0  0  0  0  0  0
  -26.2923  -12.9364   20.3245 N   0  0  0  0  0  0
  -25.9312  -11.6517   20.5737 N   0  0  0  0  0  0
  -22.0468  -12.8208   22.0429 N   0  0  0  0  0  0
  -25.4184  -15.1901   20.4078 N   0  0  0  0  0  0
  -31.7701  -14.9165   20.2335 O   0  0  0  0  0  0
  -21.6637   -6.8876   21.4241 O   0  0  0  0  0  0
  -22.3517  -14.5525   20.6722 O   0  0  0  0  0  0
  -24.6327  -31.8527   23.1948 C   0  0  0  0  0  0
  -25.9143  -32.4741   23.8306 C   0  0  1  0  0  0
  -27.2270  -27.2436   20.1479 C   0  0  0  0  0  0
  -25.5934  -33.8543   24.2235 N   0  0  0  0  0  0
  -23.4308  -30.4711   21.5391 C   0  0  2  0  0  0
  -24.8794  -28.9010   20.1245 C   0  0  0  0  0  0
  -22.7507  -29.4587   22.4921 C   0  0  0  0  0  0
  -18.0292  -28.1388   22.8482 C   0  0  0  0  0  0
  -24.1490  -36.7276   23.2641 C   0  0  0  0  0  0
  -25.9762  -30.7603   21.3751 C   0  0  0  0  0  0
  -26.0512  -29.3751   20.7296 C   0  0  0  0  0  0
  -27.2310  -28.5611   20.7232 C   0  0  0  0  0  0
  -26.0315  -26.8264   19.5323 C   0  0  0  0  0  0
  -24.8739  -27.6337   19.5168 C   0  0  0  0  0  0
  -23.6520  -29.7935   20.1603 C   0  0  0  0  0  0
  -25.4118  -36.3060   24.0323 C   0  0  1  0  0  0
  -20.5895  -28.3698   23.1271 C   0  0  2  0  0  0
  -20.6780  -26.9413   22.5412 C   0  0  0  0  0  0
  -19.5758  -26.6382   21.5214 C   0  0  0  0  0  0
  -18.1936  -26.7931   22.1620 C   0  0  0  0  0  0
  -19.1545  -28.8861   23.2870 C   0  0  0  0  0  0
  -18.9466  -30.1461   23.8889 C   0  0  0  0  0  0
  -17.6465  -30.6588   24.0561 C   0  0  0  0  0  0
  -25.9059  -34.9432   23.5083 C   0  0  0  0  0  0
  -16.5356  -29.9084   23.6333 C   0  0  0  0  0  0
  -16.7278  -28.6503   23.0352 C   0  0  0  0  0  0
  -26.4504  -31.6575   25.0706 C   0  0  0  0  0  0
  -25.3719  -31.3735   26.1422 C   0  0  0  0  0  0
  -27.0353  -30.2989   24.6203 C   0  0  0  0  0  0
  -27.6053  -32.4320   25.7484 C   0  0  0  0  0  0
  -27.5577  -37.1794   24.8465 C   0  0  0  0  0  0
  -21.4213  -29.3041   22.3661 N   0  0  0  0  0  0
  -26.4289  -37.3763   23.9408 N   0  0  0  0  0  0
  -24.6991  -31.0474   22.0929 N   0  0  0  0  0  0
  -23.4196  -28.8137   23.3036 O   0  0  0  0  0  0
  -28.3466  -26.3883   20.0528 O   0  0  0  0  0  0
  -26.5636  -34.8916   22.4655 O   0  0  0  0  0  0
  -23.5473  -32.1354   23.7236 O   0  0  0  0  0  0
  -29.3045  -21.3549   19.4923 C   0  0  0  0  0  0
  -27.3026  -21.2743   21.6520 C   0  0  0  0  0  0
  -27.4476  -22.8411   21.6490 C   0  0  1  0  0  0
  -28.1814  -23.5575   20.4511 C   0  0  1  0  0  0
  -28.9390  -20.0085   20.2911 C   0  0  1  0  0  0
  -26.0245  -23.4212   21.8101 C   0  0  0  0  0  0
  -28.4904  -25.1306   20.8617 C   0  0  0  0  0  0
  -29.8899  -18.6670   20.1352 C   0  0  0  0  0  0
  -29.8679  -17.3383   21.0909 C   0  0  0  0  0  0
  -29.3928  -22.7009   20.1927 N   0  0  0  0  0  0
  -29.7156  -15.8811   20.6084 N   0  0  0  0  0  0
  -28.5617  -20.4637   21.6470 N   0  3  0  0  0  0
  -31.4797  -12.6507   19.1455 H   0  0  0  0  0  0
  -30.4266  -11.5119   19.9449 H   0  0  0  0  0  0
  -29.8001  -11.7308   17.5181 H   0  0  0  0  0  0
  -29.6213  -13.4575   17.6986 H   0  0  0  0  0  0
  -27.9058  -11.2730   18.9181 H   0  0  0  0  0  0
  -27.3764  -12.5000   17.7984 H   0  0  0  0  0  0
  -27.6282  -14.2435   19.4558 H   0  0  0  0  0  0
  -28.7408  -12.1572   21.3985 H   0  0  0  0  0  0
  -28.4173  -13.8265   21.7932 H   0  0  0  0  0  0
  -25.2762   -9.5677   22.4764 H   0  0  0  0  0  0
  -24.0002   -7.4626   22.7472 H   0  0  0  0  0  0
  -21.0843   -8.8769   19.8951 H   0  0  0  0  0  0
  -22.3699  -10.9670   19.6168 H   0  0  0  0  0  0
  -21.2003   -7.6146   23.9716 H   0  0  0  0  0  0
  -21.1481   -6.0521   25.9078 H   0  0  0  0  0  0
  -22.0600   -2.7608   23.2846 H   0  0  0  0  0  0
  -22.4080  -11.9866   22.4813 H   0  0  0  0  0  0
  -21.1083  -13.1229   22.2628 H   0  0  0  0  0  0
  -24.6421  -15.8350   20.5091 H   0  0  0  0  0  0
  -26.2477  -15.6298   20.0315 H   0  0  0  0  0  0
  -26.7210  -32.5390   23.1048 H   0  0  0  0  0  0
  -25.0081  -33.9675   25.0380 H   0  0  0  0  0  0
  -22.7284  -31.2930   21.3861 H   0  0  0  0  0  0
  -23.3755  -35.9605   23.3298 H   0  0  0  0  0  0
  -24.3578  -36.8906   22.2056 H   0  0  0  0  0  0
  -23.7242  -37.6474   23.6671 H   0  0  0  0  0  0
  -26.1122  -31.5141   20.5982 H   0  0  0  0  0  0
  -26.8549  -30.8176   22.0060 H   0  0  0  0  0  0
  -28.1393  -28.9321   21.1772 H   0  0  0  0  0  0
  -25.9955  -25.8570   19.0555 H   0  0  0  0  0  0
  -23.9768  -27.2644   19.0393 H   0  0  0  0  0  0
  -23.7812  -30.5633   19.3986 H   0  0  0  0  0  0
  -22.7701  -29.2266   19.8564 H   0  0  0  0  0  0
  -25.1303  -36.1900   25.0816 H   0  0  0  0  0  0
  -20.9983  -28.3275   24.1394 H   0  0  0  0  0  0
  -20.5677  -26.2308   23.3618 H   0  0  0  0  0  0
  -21.6650  -26.7435   22.1209 H   0  0  0  0  0  0
  -19.6920  -25.6291   21.1248 H   0  0  0  0  0  0
  -19.6700  -27.3188   20.6741 H   0  0  0  0  0  0
  -17.4209  -26.6681   21.4019 H   0  0  0  0  0  0
  -18.0331  -26.0073   22.9015 H   0  0  0  0  0  0
  -19.7941  -30.7279   24.2254 H   0  0  0  0  0  0
  -17.5018  -31.6269   24.5163 H   0  0  0  0  0  0
  -15.5355  -30.2983   23.7663 H   0  0  0  0  0  0
  -15.8677  -28.0820   22.7071 H   0  0  0  0  0  0
  -24.5916  -30.7055   25.7757 H   0  0  0  0  0  0
  -24.8885  -32.2904   26.4800 H   0  0  0  0  0  0
  -25.8034  -30.8956   27.0226 H   0  0  0  0  0  0
  -26.2939  -29.6732   24.1218 H   0  0  0  0  0  0
  -27.4019  -29.7257   25.4729 H   0  0  0  0  0  0
  -27.8822  -30.4257   23.9456 H   0  0  0  0  0  0
  -27.2660  -33.3632   26.2031 H   0  0  0  0  0  0
  -28.3882  -32.6857   25.0324 H   0  0  0  0  0  0
  -28.0700  -31.8461   26.5426 H   0  0  0  0  0  0
  -28.2593  -38.0092   24.7507 H   0  0  0  0  0  0
  -28.1074  -36.2622   24.6294 H   0  0  0  0  0  0
  -27.2295  -37.1446   25.8868 H   0  0  0  0  0  0
  -20.9407  -29.8752   21.6851 H   0  0  0  0  0  0
  -26.0164  -38.2835   24.1409 H   0  0  0  0  0  0
  -28.6381  -21.4558   18.6338 H   0  0  0  0  0  0
  -30.2879  -21.1884   19.0499 H   0  0  0  0  0  0
  -26.6265  -20.9622   20.8550 H   0  0  0  0  0  0
  -26.7895  -20.9937   22.5725 H   0  0  0  0  0  0
  -28.0017  -23.0912   22.5554 H   0  0  0  0  0  0
  -27.5460  -23.5451   19.5637 H   0  0  0  0  0  0
  -28.0084  -19.6507   19.8480 H   0  0  0  0  0  0
  -25.4100  -23.1996   20.9368 H   0  0  0  0  0  0
  -26.0106  -24.5018   21.9431 H   0  0  0  0  0  0
  -25.5196  -22.9974   22.6790 H   0  0  0  0  0  0
  -29.5377  -25.1462   21.1636 H   0  0  0  0  0  0
  -27.9882  -25.3549   21.8016 H   0  0  0  0  0  0
  -30.9182  -19.0290   20.1673 H   0  0  0  0  0  0
  -29.7755  -18.3233   19.1068 H   0  0  0  0  0  0
  -29.0582  -17.4769   21.8074 H   0  0  0  0  0  0
  -30.7691  -17.3642   21.7059 H   0  0  0  0  0  0
  -30.0184  -23.2732   19.6286 H   0  0  0  0  0  0
  -28.7524  -15.5815   20.6039 H   0  0  0  0  0  0
  -28.4346  -19.6719   22.2534 H   0  0  0  0  0  0
  -29.3107  -21.0396   21.9976 H   0  0  0  0  0  0
  1 25  1  0  0  0
  1 30  2  0  0  0
  1 81  1  0  0  0
  2  3  1  0  0  0
  2 25  1  0  0  0
  2 83  1  0  0  0
  2 84  1  0  0  0
  3  4  1  0  0  0
  3 85  1  0  0  0
  3 86  1  0  0  0
  4  5  1  0  0  0
  4 87  1  0  0  0
  4 88  1  0  0  0
  5  6  1  0  0  0
  5 26  1  0  0  0
  5 89  1  0  0  0
  6 25  1  0  0  0
  6 90  1  0  0  0
  6 91  1  0  0  0
  7  8  2  0  0  0
  7 26  1  0  0  0
  7 29  1  0  0  0
  8  9  1  0  0  0
  8 22  1  0  0  0
  9 10  1  0  0  0
  9 27  2  0  0  0
 10 11  2  0  0  0
 10 15  1  0  0  0
 11 12  1  0  0  0
 11 92  1  0  0  0
 12 13  2  0  0  0
 12 93  1  0  0  0
 13 14  1  0  0  0
 13 31  1  0  0  0
 14 15  2  0  0  0
 14 94  1  0  0  0
 15 95  1  0  0  0
 16 17  2  0  0  0
 16 21  1  0  0  0
 16 31  1  0  0  0
 17 18  1  0  0  0
 17 96  1  0  0  0
 18 19  2  0  0  0
 18 97  1  0  0  0
 19 20  1  0  0  0
 19 24  1  0  0  0
 20 21  2  0  0  0
 20 98  1  0  0  0
 21 23  1  0  0  0
 22 28  1  0  0  0
 22 32  2  0  0  0
 26 27  1  0  0  0
 28 99  1  0  0  0
 28100  1  0  0  0
 29101  1  0  0  0
 29102  1  0  0  0
 33 34  1  0  0  0
 33 66  1  0  0  0
 33 70  2  0  0  0
 34 36  1  0  0  0
 34 59  1  0  0  0
 34103  1  0  0  0
 35 44  2  0  0  0
 35 45  1  0  0  0
 35 68  1  0  0  0
 36 56  1  0  0  0
 36104  1  0  0  0
 37 39  1  0  0  0
 37 47  1  0  0  0
 37 66  1  0  0  0
 37105  1  0  0  0
 38 43  2  0  0  0
 38 46  1  0  0  0
 38 47  1  0  0  0
 39 64  1  0  0  0
 39 67  2  0  0  0
 40 52  1  0  0  0
 40 53  2  0  0  0
 40 58  1  0  0  0
 41106  1  0  0  0
 41107  1  0  0  0
 41108  1  0  0  0
 41 48  1  0  0  0
 42 43  1  0  0  0
 42 66  1  0  0  0
 42109  1  0  0  0
 42110  1  0  0  0
 43 44  1  0  0  0
 44111  1  0  0  0
 45 46  2  0  0  0
 45112  1  0  0  0
 46113  1  0  0  0
 47114  1  0  0  0
 47115  1  0  0  0
 48 56  1  0  0  0
 48 65  1  0  0  0
 48116  1  0  0  0
 49 50  1  0  0  0
 49 53  1  0  0  0
 49 64  1  0  0  0
 49117  1  0  0  0
 50 51  1  0  0  0
 50118  1  0  0  0
 50119  1  0  0  0
 51 52  1  0  0  0
 51120  1  0  0  0
 51121  1  0  0  0
 52122  1  0  0  0
 52123  1  0  0  0
 53 54  1  0  0  0
 54 55  2  0  0  0
 54124  1  0  0  0
 55 57  1  0  0  0
 55125  1  0  0  0
 56 69  2  0  0  0
 57 58  2  0  0  0
 57126  1  0  0  0
 58127  1  0  0  0
 59 60  1  0  0  0
 59 61  1  0  0  0
 59 62  1  0  0  0
 60128  1  0  0  0
 60129  1  0  0  0
 60130  1  0  0  0
 61131  1  0  0  0
 61132  1  0  0  0
 61133  1  0  0  0
 62134  1  0  0  0
 62135  1  0  0  0
 62136  1  0  0  0
 63 65  1  0  0  0
 63137  1  0  0  0
 63138  1  0  0  0
 63139  1  0  0  0
 64140  1  0  0  0
 65141  1  0  0  0
 68 77  1  0  0  0
 71 75  1  0  0  0
 71 80  1  0  0  0
 71142  1  0  0  0
 71143  1  0  0  0
 72 73  1  0  0  0
 72 82  1  0  0  0
 72144  1  0  0  0
 72145  1  0  0  0
 73 74  1  0  0  0
 73 76  1  0  0  0
 73146  1  0  0  0
 74 77  1  0  0  0
 74 80  1  0  0  0
 74147  1  0  0  0
 75 78  1  0  0  0
 75 82  1  0  0  0
 75148  1  0  0  0
 76149  1  0  0  0
 76150  1  0  0  0
 76151  1  0  0  0
 77152  1  0  0  0
 77153  1  0  0  0
 78 79  1  0  0  0
 78154  1  0  0  0
 78155  1  0  0  0
 79 81  1  0  0  0
 79156  1  0  0  0
 79157  1  0  0  0
 80158  1  0  0  0
 81159  1  0  0  0
 82160  1  0  0  0
 82161  1  0  0  0
M  CHG  1  82   1
M  ISO  4   1 100  68 101  77 101  81 100
M  END
> <chiral flag>
0

> <version>
0

> <s_m_source_file>
/data/baiqing/PycharmProjects/Reinvent-master-3.2/result/LINK_invent/BTK/process_docking_weight1_custom_sum_contain_oxygen_bond_distance_aromatic_linkinvent_7_9_3/rearranged_h_0109.sdf

> <i_m_source_file_index>
39

> <r_mmod_Potential_Energy-OPLS-2005>
236.090866088867

> <r_mmod_Stretch_Energy-OPLS-2005>
148.379379272461

> <r_mmod_Bend_Energy-OPLS-2005>
266.003631591797

> <r_mmod_Torsional_Energy-OPLS-2005>
334.309722900391

> <r_mmod_Improper_Torsional_Energy-OPLS-2005>
5.45356464385986

> <r_mmod_Van_der_Waal_Energy-OPLS-2005>
124.323257446289

> <r_mmod_Electrostatic_Energy-OPLS-2005>
-274.684967041016

> <r_mmod_Solvation_Energy-OPLS-2005>
-465.186218261719

> <b_mmod_Minimization_Converged-OPLS-2005>
0

> <r_mmod_RMS_Derivative-OPLS-2005>
0.218461543321609

$$$$
39
                    3D
 Structure written by MMmdl.
163171  0  0  1  0            999 V2000
  -30.6136  -14.7825   20.4490 C   0  0  0  0  0  0
  -30.4322  -12.4783   19.4825 C   0  0  0  0  0  0
  -29.5120  -12.5088   18.2422 C   0  0  0  0  0  0
  -28.0392  -12.3278   18.6563 C   0  0  0  0  0  0
  -27.6398  -13.2376   19.8485 C   0  0  2  0  0  0
  -28.6844  -13.1982   20.9849 C   0  0  0  0  0  0
  -25.2498  -13.8209   20.5706 C   0  0  0  0  0  0
  -24.1802  -13.0447   20.9215 C   0  0  0  0  0  0
  -24.6395  -11.6926   20.8746 C   0  0  0  0  0  0
  -23.9077  -10.4295   21.0408 C   0  0  0  0  0  0
  -24.3625   -9.4208   21.9184 C   0  0  0  0  0  0
  -23.6297   -8.2243   22.0755 C   0  0  0  0  0  0
  -22.4278   -8.0280   21.3547 C   0  0  0  0  0  0
  -21.9920   -9.0254   20.4647 C   0  0  0  0  0  0
  -22.7249  -10.2131   20.3055 C   0  0  0  0  0  0
  -21.6854   -6.0738   22.5278 C   0  0  0  0  0  0
  -21.4016   -6.5641   23.8208 C   0  0  0  0  0  0
  -21.3659   -5.6795   24.9172 C   0  0  0  0  0  0
  -21.6043   -4.3058   24.7227 C   0  0  0  0  0  0
  -21.8819   -3.8149   23.4347 C   0  0  0  0  0  0
  -21.9194   -4.6967   22.3402 C   0  0  0  0  0  0
  -22.7812  -13.5219   21.1873 C   0  0  0  0  0  0
  -22.1662   -4.2150   21.0980 F   0  0  0  0  0  0
  -21.5629   -3.4535   25.7739 F   0  0  0  0  0  0
  -29.9823  -13.5550   20.4002 N   0  0  0  0  0  0
  -26.2933  -12.9427   20.3288 N   0  0  0  0  0  0
  -25.9330  -11.6564   20.5756 N   0  0  0  0  0  0
  -22.0468  -12.8199   22.0424 N   0  0  0  0  0  0
  -25.4160  -15.1933   20.4112 N   0  0  0  0  0  0
  -31.8013  -14.8600   20.1255 O   0  0  0  0  0  0
  -21.6642   -6.8882   21.4241 O   0  0  0  0  0  0
  -22.3491  -14.5519   20.6719 O   0  0  0  0  0  0
  -24.6351  -31.8519   23.1951 C   0  0  0  0  0  0
  -25.9157  -32.4735   23.8321 C   0  0  1  0  0  0
  -27.2142  -27.2208   20.1475 C   0  0  0  0  0  0
  -25.5943  -33.8534   24.2243 N   0  0  0  0  0  0
  -23.4347  -30.4759   21.5374 C   0  0  2  0  0  0
  -24.8816  -28.9170   20.1096 C   0  0  0  0  0  0
  -22.7535  -29.4609   22.4870 C   0  0  0  0  0  0
  -18.0308  -28.1409   22.8470 C   0  0  0  0  0  0
  -24.1477  -36.7261   23.2644 C   0  0  0  0  0  0
  -25.9827  -30.7550   21.3811 C   0  0  0  0  0  0
  -26.0551  -29.3749   20.7214 C   0  0  0  0  0  0
  -27.2253  -28.5426   20.7223 C   0  0  0  0  0  0
  -26.0156  -26.8416   19.5026 C   0  0  0  0  0  0
  -24.8692  -27.6609   19.4861 C   0  0  0  0  0  0
  -23.6558  -29.8090   20.1542 C   0  0  0  0  0  0
  -25.4111  -36.3061   24.0328 C   0  0  1  0  0  0
  -20.5917  -28.3735   23.1230 C   0  0  2  0  0  0
  -20.6789  -26.9443   22.5395 C   0  0  0  0  0  0
  -19.5760  -26.6399   21.5199 C   0  0  0  0  0  0
  -18.1947  -26.7949   22.1618 C   0  0  0  0  0  0
  -19.1562  -28.8888   23.2847 C   0  0  0  0  0  0
  -18.9489  -30.1484   23.8882 C   0  0  0  0  0  0
  -17.6484  -30.6607   24.0572 C   0  0  0  0  0  0
  -25.9060  -34.9427   23.5091 C   0  0  0  0  0  0
  -16.5376  -29.9100   23.6339 C   0  0  0  0  0  0
  -16.7298  -28.6518   23.0360 C   0  0  0  0  0  0
  -26.4510  -31.6582   25.0741 C   0  0  0  0  0  0
  -25.3727  -31.3718   26.1465 C   0  0  0  0  0  0
  -27.0360  -30.3003   24.6237 C   0  0  0  0  0  0
  -27.6067  -32.4340   25.7512 C   0  0  0  0  0  0
  -27.5561  -37.1795   24.8476 C   0  0  0  0  0  0
  -21.4240  -29.3060   22.3607 N   0  0  0  0  0  0
  -26.4280  -37.3769   23.9408 N   0  0  0  0  0  0
  -24.7034  -31.0469   22.0934 N   0  0  0  0  0  0
  -23.4216  -28.8165   23.3003 O   0  0  0  0  0  0
  -28.2961  -26.3003   20.2208 O   0  0  0  0  0  0
  -26.5639  -34.8906   22.4663 O   0  0  0  0  0  0
  -23.5494  -32.1343   23.7226 O   0  0  0  0  0  0
  -30.1815  -21.2891   21.3153 C   0  0  0  0  0  0
  -28.4029  -21.1001   19.6067 C   0  0  0  0  0  0
  -29.9963  -19.7523   21.7047 C   0  0  0  0  0  0
  -29.1055  -19.6701   19.4054 C   0  0  0  0  0  0
  -28.9461  -22.0677   20.7290 C   0  0  2  0  0  0
  -29.3646  -18.7352   20.6587 C   0  0  2  0  0  0
  -28.0123  -18.2353   21.2007 C   0  0  0  0  0  0
  -31.0169  -24.7164   19.2532 C   0  0  0  0  0  0
  -30.2884  -17.4011   20.3351 C   0  0  0  0  0  0
  -28.0348  -24.7982   20.1970 C   0  0  0  0  0  0
  -29.2083  -23.6699   20.4083 C   0  0  2  0  0  0
  -29.8657  -15.9468   20.6372 N   0  0  0  0  0  0
  -30.0442  -23.6815   19.2537 O   0  0  0  0  0  0
  -31.4718  -12.6017   19.1760 H   0  0  0  0  0  0
  -30.3810  -11.5079   19.9786 H   0  0  0  0  0  0
  -29.7986  -11.7265   17.5380 H   0  0  0  0  0  0
  -29.6322  -13.4564   17.7142 H   0  0  0  0  0  0
  -27.9025  -11.2812   18.9314 H   0  0  0  0  0  0
  -27.3800  -12.5068   17.8057 H   0  0  0  0  0  0
  -27.6264  -14.2545   19.4562 H   0  0  0  0  0  0
  -28.7272  -12.2089   21.4413 H   0  0  0  0  0  0
  -28.4146  -13.8917   21.7829 H   0  0  0  0  0  0
  -25.2766   -9.5685   22.4762 H   0  0  0  0  0  0
  -24.0004   -7.4637   22.7472 H   0  0  0  0  0  0
  -21.0850   -8.8776   19.8948 H   0  0  0  0  0  0
  -22.3707  -10.9675   19.6164 H   0  0  0  0  0  0
  -21.2007   -7.6145   23.9716 H   0  0  0  0  0  0
  -21.1481   -6.0521   25.9076 H   0  0  0  0  0  0
  -22.0600   -2.7608   23.2845 H   0  0  0  0  0  0
  -22.4083  -11.9864   22.4814 H   0  0  0  0  0  0
  -21.1078  -13.1215   22.2634 H   0  0  0  0  0  0
  -24.6457  -15.8438   20.5234 H   0  0  0  0  0  0
  -26.2570  -15.6328   20.0611 H   0  0  0  0  0  0
  -26.7229  -32.5381   23.1065 H   0  0  0  0  0  0
  -25.0083  -33.9656   25.0385 H   0  0  0  0  0  0
  -22.7347  -31.3007   21.3886 H   0  0  0  0  0  0
  -23.3745  -35.9586   23.3333 H   0  0  0  0  0  0
  -24.3553  -36.8861   22.2049 H   0  0  0  0  0  0
  -23.7216  -37.6462   23.6657 H   0  0  0  0  0  0
  -26.1287  -31.5135   20.6114 H   0  0  0  0  0  0
  -26.8569  -30.8030   22.0186 H   0  0  0  0  0  0
  -28.1227  -28.8895   21.2146 H   0  0  0  0  0  0
  -25.9295  -25.8841   19.0131 H   0  0  0  0  0  0
  -23.9708  -27.3046   19.0006 H   0  0  0  0  0  0
  -23.7863  -30.5824   19.3966 H   0  0  0  0  0  0
  -22.7735  -29.2444   19.8499 H   0  0  0  0  0  0
  -25.1290  -36.1905   25.0822 H   0  0  0  0  0  0
  -21.0004  -28.3317   24.1352 H   0  0  0  0  0  0
  -20.5658  -26.2355   23.3615 H   0  0  0  0  0  0
  -21.6662  -26.7439   22.1205 H   0  0  0  0  0  0
  -19.6915  -25.6294   21.1258 H   0  0  0  0  0  0
  -19.6695  -27.3184   20.6702 H   0  0  0  0  0  0
  -17.4209  -26.6693   21.4037 H   0  0  0  0  0  0
  -18.0365  -26.0101   22.9025 H   0  0  0  0  0  0
  -19.7969  -30.7307   24.2241 H   0  0  0  0  0  0
  -17.5048  -31.6285   24.5185 H   0  0  0  0  0  0
  -15.5379  -30.3004   23.7676 H   0  0  0  0  0  0
  -15.8702  -28.0839   22.7075 H   0  0  0  0  0  0
  -24.5938  -30.7032   25.7794 H   0  0  0  0  0  0
  -24.8874  -32.2862   26.4885 H   0  0  0  0  0  0
  -25.8055  -30.8917   27.0253 H   0  0  0  0  0  0
  -26.2936  -29.6772   24.1243 H   0  0  0  0  0  0
  -27.4013  -29.7272   25.4768 H   0  0  0  0  0  0
  -27.8837  -30.4298   23.9509 H   0  0  0  0  0  0
  -27.2694  -33.3670   26.2047 H   0  0  0  0  0  0
  -28.3896  -32.6855   25.0343 H   0  0  0  0  0  0
  -28.0723  -31.8495   26.5460 H   0  0  0  0  0  0
  -28.2616  -38.0057   24.7503 H   0  0  0  0  0  0
  -28.1034  -36.2597   24.6354 H   0  0  0  0  0  0
  -27.2292  -37.1505   25.8886 H   0  0  0  0  0  0
  -20.9453  -29.8769   21.6782 H   0  0  0  0  0  0
  -26.0164  -38.2844   24.1417 H   0  0  0  0  0  0
  -30.9993  -21.3621   20.5973 H   0  0  0  0  0  0
  -30.5407  -21.8198   22.1967 H   0  0  0  0  0  0
  -27.3391  -20.9382   19.7919 H   0  0  0  0  0  0
  -28.4400  -21.6308   18.6542 H   0  0  0  0  0  0
  -29.4101  -19.7239   22.6247 H   0  0  0  0  0  0
  -30.9745  -19.3810   22.0115 H   0  0  0  0  0  0
  -30.0691  -19.8532   18.9277 H   0  0  0  0  0  0
  -28.5389  -19.1111   18.6598 H   0  0  0  0  0  0
  -28.2023  -22.0575   21.5278 H   0  0  0  0  0  0
  -27.3561  -19.0615   21.4741 H   0  0  0  0  0  0
  -28.1510  -17.6260   22.0946 H   0  0  0  0  0  0
  -27.4868  -17.6278   20.4636 H   0  0  0  0  0  0
  -31.5424  -24.7225   18.2987 H   0  0  0  0  0  0
  -31.7538  -24.5544   20.0397 H   0  0  0  0  0  0
  -30.5767  -25.7027   19.3906 H   0  0  0  0  0  0
  -31.2719  -17.5404   20.7851 H   0  0  0  0  0  0
  -30.4955  -17.4129   19.2640 H   0  0  0  0  0  0
  -27.5561  -24.5444   19.2524 H   0  0  0  0  0  0
  -27.2842  -24.6142   20.9682 H   0  0  0  0  0  0
  -29.7846  -24.0145   21.2694 H   0  0  0  0  0  0
  -28.8964  -15.8102   20.8788 H   0  0  0  0  0  0
  1 25  1  0  0  0
  1 30  2  0  0  0
  1 82  1  0  0  0
  2  3  1  0  0  0
  2 25  1  0  0  0
  2 84  1  0  0  0
  2 85  1  0  0  0
  3  4  1  0  0  0
  3 86  1  0  0  0
  3 87  1  0  0  0
  4  5  1  0  0  0
  4 88  1  0  0  0
  4 89  1  0  0  0
  5  6  1  0  0  0
  5 26  1  0  0  0
  5 90  1  0  0  0
  6 25  1  0  0  0
  6 91  1  0  0  0
  6 92  1  0  0  0
  7  8  2  0  0  0
  7 26  1  0  0  0
  7 29  1  0  0  0
  8  9  1  0  0  0
  8 22  1  0  0  0
  9 10  1  0  0  0
  9 27  2  0  0  0
 10 11  2  0  0  0
 10 15  1  0  0  0
 11 12  1  0  0  0
 11 93  1  0  0  0
 12 13  2  0  0  0
 12 94  1  0  0  0
 13 14  1  0  0  0
 13 31  1  0  0  0
 14 15  2  0  0  0
 14 95  1  0  0  0
 15 96  1  0  0  0
 16 17  2  0  0  0
 16 21  1  0  0  0
 16 31  1  0  0  0
 17 18  1  0  0  0
 17 97  1  0  0  0
 18 19  2  0  0  0
 18 98  1  0  0  0
 19 20  1  0  0  0
 19 24  1  0  0  0
 20 21  2  0  0  0
 20 99  1  0  0  0
 21 23  1  0  0  0
 22 28  1  0  0  0
 22 32  2  0  0  0
 26 27  1  0  0  0
 28100  1  0  0  0
 28101  1  0  0  0
 29102  1  0  0  0
 29103  1  0  0  0
 33 34  1  0  0  0
 33 66  1  0  0  0
 33 70  2  0  0  0
 34 36  1  0  0  0
 34 59  1  0  0  0
 34104  1  0  0  0
 35 44  2  0  0  0
 35 45  1  0  0  0
 35 68  1  0  0  0
 36 56  1  0  0  0
 36105  1  0  0  0
 37 39  1  0  0  0
 37 47  1  0  0  0
 37 66  1  0  0  0
 37106  1  0  0  0
 38 43  2  0  0  0
 38 46  1  0  0  0
 38 47  1  0  0  0
 39 64  1  0  0  0
 39 67  2  0  0  0
 40 52  1  0  0  0
 40 53  2  0  0  0
 40 58  1  0  0  0
 41107  1  0  0  0
 41108  1  0  0  0
 41109  1  0  0  0
 41 48  1  0  0  0
 42 43  1  0  0  0
 42 66  1  0  0  0
 42110  1  0  0  0
 42111  1  0  0  0
 43 44  1  0  0  0
 44112  1  0  0  0
 45 46  2  0  0  0
 45113  1  0  0  0
 46114  1  0  0  0
 47115  1  0  0  0
 47116  1  0  0  0
 48 56  1  0  0  0
 48 65  1  0  0  0
 48117  1  0  0  0
 49 50  1  0  0  0
 49 53  1  0  0  0
 49 64  1  0  0  0
 49118  1  0  0  0
 50 51  1  0  0  0
 50119  1  0  0  0
 50120  1  0  0  0
 51 52  1  0  0  0
 51121  1  0  0  0
 51122  1  0  0  0
 52123  1  0  0  0
 52124  1  0  0  0
 53 54  1  0  0  0
 54 55  2  0  0  0
 54125  1  0  0  0
 55 57  1  0  0  0
 55126  1  0  0  0
 56 69  2  0  0  0
 57 58  2  0  0  0
 57127  1  0  0  0
 58128  1  0  0  0
 59 60  1  0  0  0
 59 61  1  0  0  0
 59 62  1  0  0  0
 60129  1  0  0  0
 60130  1  0  0  0
 60131  1  0  0  0
 61132  1  0  0  0
 61133  1  0  0  0
 61134  1  0  0  0
 62135  1  0  0  0
 62136  1  0  0  0
 62137  1  0  0  0
 63 65  1  0  0  0
 63138  1  0  0  0
 63139  1  0  0  0
 63140  1  0  0  0
 64141  1  0  0  0
 65142  1  0  0  0
 68 80  1  0  0  0
 71 73  1  0  0  0
 71143  1  0  0  0
 71144  1  0  0  0
 71 75  1  0  0  0
 72 74  1  0  0  0
 72 75  1  0  0  0
 72145  1  0  0  0
 72146  1  0  0  0
 73 76  1  0  0  0
 73147  1  0  0  0
 73148  1  0  0  0
 74 76  1  0  0  0
 74149  1  0  0  0
 74150  1  0  0  0
 75 81  1  0  0  0
 75151  1  0  0  0
 76 77  1  0  0  0
 76 79  1  0  0  0
 77152  1  0  0  0
 77153  1  0  0  0
 77154  1  0  0  0
 78 83  1  0  0  0
 78155  1  0  0  0
 78156  1  0  0  0
 78157  1  0  0  0
 79 82  1  0  0  0
 79158  1  0  0  0
 79159  1  0  0  0
 80160  1  0  0  0
 80161  1  0  0  0
 80 81  1  0  0  0
 81 83  1  0  0  0
 81162  1  0  0  0
 82163  1  0  0  0
M  ISO  4   1 100  68 101  80 101  82 100
M  END
> <chiral flag>
0

> <version>
0

> <s_m_source_file>
/data/baiqing/PycharmProjects/Reinvent-master-3.2/result/LINK_invent/BTK/process_docking_weight1_custom_sum_contain_oxygen_bond_distance_aromatic_linkinvent_7_9_3/rearranged_h_0109.sdf

> <i_m_source_file_index>
40

> <r_mmod_Potential_Energy-OPLS-2005>
304.15087890625

> <r_mmod_Stretch_Energy-OPLS-2005>
159.879653930664

> <r_mmod_Bend_Energy-OPLS-2005>
208.996856689453

> <r_mmod_Torsional_Energy-OPLS-2005>
291.6455078125

> <r_mmod_Improper_Torsional_Energy-OPLS-2005>
5.1464900970459

> <r_mmod_Van_der_Waal_Energy-OPLS-2005>
128.041580200195

> <r_mmod_Electrostatic_Energy-OPLS-2005>
-394.78173828125

> <r_mmod_Solvation_Energy-OPLS-2005>
-202.322326660156

> <b_mmod_Minimization_Converged-OPLS-2005>
0

> <r_mmod_RMS_Derivative-OPLS-2005>
2.07800984382629

$$$$
40
                    3D
 Structure written by MMmdl.
164172  0  0  1  0            999 V2000
  -30.6042  -14.7445   20.4617 C   0  0  0  0  0  0
  -30.4343  -12.4542   19.4692 C   0  0  0  0  0  0
  -29.5100  -12.5058   18.2328 C   0  0  0  0  0  0
  -28.0364  -12.3291   18.6481 C   0  0  0  0  0  0
  -27.6416  -13.2288   19.8497 C   0  0  2  0  0  0
  -28.6870  -13.1596   20.9842 C   0  0  0  0  0  0
  -25.2513  -13.8191   20.5687 C   0  0  0  0  0  0
  -24.1808  -13.0438   20.9217 C   0  0  0  0  0  0
  -24.6398  -11.6918   20.8765 C   0  0  0  0  0  0
  -23.9080  -10.4296   21.0426 C   0  0  0  0  0  0
  -24.3633   -9.4205   21.9199 C   0  0  0  0  0  0
  -23.6304   -8.2241   22.0763 C   0  0  0  0  0  0
  -22.4282   -8.0290   21.3554 C   0  0  0  0  0  0
  -21.9924   -9.0265   20.4654 C   0  0  0  0  0  0
  -22.7261  -10.2137   20.3069 C   0  0  0  0  0  0
  -21.6848   -6.0746   22.5287 C   0  0  0  0  0  0
  -21.4010   -6.5646   23.8220 C   0  0  0  0  0  0
  -21.3654   -5.6799   24.9180 C   0  0  0  0  0  0
  -21.6042   -4.3060   24.7226 C   0  0  0  0  0  0
  -21.8820   -3.8156   23.4344 C   0  0  0  0  0  0
  -21.9190   -4.6977   22.3404 C   0  0  0  0  0  0
  -22.7826  -13.5220   21.1867 C   0  0  0  0  0  0
  -22.1661   -4.2163   21.0981 F   0  0  0  0  0  0
  -21.5624   -3.4543   25.7734 F   0  0  0  0  0  0
  -29.9867  -13.5145   20.4012 N   0  0  0  0  0  0
  -26.2935  -12.9393   20.3278 N   0  0  0  0  0  0
  -25.9328  -11.6538   20.5765 N   0  0  0  0  0  0
  -22.0468  -12.8217   22.0422 N   0  0  0  0  0  0
  -25.4193  -15.1920   20.4078 N   0  0  0  0  0  0
  -31.7991  -14.8304   20.1578 O   0  0  0  0  0  0
  -21.6642   -6.8891   21.4247 O   0  0  0  0  0  0
  -22.3519  -14.5530   20.6718 O   0  0  0  0  0  0
  -24.6291  -31.8554   23.1971 C   0  0  0  0  0  0
  -25.9118  -32.4761   23.8322 C   0  0  1  0  0  0
  -27.2197  -27.2727   20.1402 C   0  0  0  0  0  0
  -25.5915  -33.8560   24.2253 N   0  0  0  0  0  0
  -23.4256  -30.4761   21.5409 C   0  0  2  0  0  0
  -24.8714  -28.9154   20.1176 C   0  0  0  0  0  0
  -22.7493  -29.4608   22.4928 C   0  0  0  0  0  0
  -18.0299  -28.1395   22.8501 C   0  0  0  0  0  0
  -24.1489  -36.7282   23.2643 C   0  0  0  0  0  0
  -25.9685  -30.7750   21.3708 C   0  0  0  0  0  0
  -26.0420  -29.3941   20.7207 C   0  0  0  0  0  0
  -27.2226  -28.5875   20.7134 C   0  0  0  0  0  0
  -26.0275  -26.8467   19.5213 C   0  0  0  0  0  0
  -24.8679  -27.6493   19.5069 C   0  0  0  0  0  0
  -23.6420  -29.8027   20.1592 C   0  0  0  0  0  0
  -25.4116  -36.3075   24.0328 C   0  0  1  0  0  0
  -20.5901  -28.3696   23.1287 C   0  0  2  0  0  0
  -20.6785  -26.9416   22.5420 C   0  0  0  0  0  0
  -19.5756  -26.6386   21.5231 C   0  0  0  0  0  0
  -18.1937  -26.7939   22.1634 C   0  0  0  0  0  0
  -19.1552  -28.8864   23.2887 C   0  0  0  0  0  0
  -18.9467  -30.1471   23.8896 C   0  0  0  0  0  0
  -17.6462  -30.6590   24.0576 C   0  0  0  0  0  0
  -25.9058  -34.9444   23.5096 C   0  0  0  0  0  0
  -16.5356  -29.9088   23.6340 C   0  0  0  0  0  0
  -16.7281  -28.6509   23.0355 C   0  0  0  0  0  0
  -26.4488  -31.6581   25.0707 C   0  0  0  0  0  0
  -25.3709  -31.3724   26.1422 C   0  0  0  0  0  0
  -27.0331  -30.3007   24.6176 C   0  0  0  0  0  0
  -27.6056  -32.4312   25.7465 C   0  0  0  0  0  0
  -27.5582  -37.1792   24.8465 C   0  0  0  0  0  0
  -21.4205  -29.3036   22.3667 N   0  0  0  0  0  0
  -26.4290  -37.3770   23.9419 N   0  0  0  0  0  0
  -24.6936  -31.0539   22.0928 N   0  0  0  0  0  0
  -23.4207  -28.8159   23.3027 O   0  0  0  0  0  0
  -28.3362  -26.4172   20.1165 O   0  0  0  0  0  0
  -26.5642  -34.8919   22.4675 O   0  0  0  0  0  0
  -23.5448  -32.1352   23.7284 O   0  0  0  0  0  0
  -31.3818  -17.8317   20.8932 C   0  0  0  0  0  0
  -29.0987  -18.3685   20.4069 C   0  0  0  0  0  0
  -30.0879  -17.3312   20.6319 C   0  0  0  0  0  0
  -31.6377  -19.2222   20.9040 C   0  0  0  0  0  0
  -29.4280  -19.7857   20.4246 C   0  0  0  0  0  0
  -33.1339  -20.6365   22.3843 C   0  0  0  0  0  0
  -33.5999  -20.4435   19.8829 C   0  0  0  0  0  0
  -27.0116  -20.6919   20.5584 C   0  0  0  0  0  0
  -28.3545  -23.6730   19.8831 C   0  0  0  0  0  0
  -28.2703  -25.0499   20.7328 C   0  0  0  0  0  0
  -33.0506  -19.7434   21.1361 C   0  0  0  0  0  0
  -28.4459  -20.9973   20.0918 C   0  0  1  0  0  0
  -30.6941  -20.1695   20.6828 N   0  0  0  0  0  0
  -29.7999  -15.8685   20.6335 N   0  0  0  0  0  0
  -28.8640  -22.3884   20.5843 N   0  3  0  0  0  0
  -31.4750  -12.5801   19.1652 H   0  0  0  0  0  0
  -30.3814  -11.4765   19.9508 H   0  0  0  0  0  0
  -29.7929  -11.7318   17.5180 H   0  0  0  0  0  0
  -29.6357  -13.4589   17.7167 H   0  0  0  0  0  0
  -27.8949  -11.2802   18.9121 H   0  0  0  0  0  0
  -27.3776  -12.5187   17.8003 H   0  0  0  0  0  0
  -27.6354  -14.2503   19.4691 H   0  0  0  0  0  0
  -28.7240  -12.1603   21.4207 H   0  0  0  0  0  0
  -28.4224  -13.8373   21.7979 H   0  0  0  0  0  0
  -25.2777   -9.5671   22.4773 H   0  0  0  0  0  0
  -24.0011   -7.4627   22.7479 H   0  0  0  0  0  0
  -21.0854   -8.8787   19.8957 H   0  0  0  0  0  0
  -22.3731  -10.9679   19.6174 H   0  0  0  0  0  0
  -21.2003   -7.6158   23.9728 H   0  0  0  0  0  0
  -21.1472   -6.0528   25.9085 H   0  0  0  0  0  0
  -22.0600   -2.7619   23.2840 H   0  0  0  0  0  0
  -22.4076  -11.9869   22.4797 H   0  0  0  0  0  0
  -21.1090  -13.1248   22.2634 H   0  0  0  0  0  0
  -24.6438  -15.8383   20.5096 H   0  0  0  0  0  0
  -26.2526  -15.6307   20.0389 H   0  0  0  0  0  0
  -26.7188  -32.5413   23.1068 H   0  0  0  0  0  0
  -25.0037  -33.9702   25.0381 H   0  0  0  0  0  0
  -22.7221  -31.2980   21.3932 H   0  0  0  0  0  0
  -23.3762  -35.9607   23.3289 H   0  0  0  0  0  0
  -24.3584  -36.8919   22.2063 H   0  0  0  0  0  0
  -23.7230  -37.6470   23.6677 H   0  0  0  0  0  0
  -26.1031  -31.5343   20.5988 H   0  0  0  0  0  0
  -26.8476  -30.8280   22.0012 H   0  0  0  0  0  0
  -28.1267  -28.9564   21.1777 H   0  0  0  0  0  0
  -25.9903  -25.8772   19.0451 H   0  0  0  0  0  0
  -23.9709  -27.2793   19.0295 H   0  0  0  0  0  0
  -23.7656  -30.5740   19.3982 H   0  0  0  0  0  0
  -22.7611  -29.2334   19.8573 H   0  0  0  0  0  0
  -25.1304  -36.1913   25.0820 H   0  0  0  0  0  0
  -21.0007  -28.3268   24.1402 H   0  0  0  0  0  0
  -20.5712  -26.2299   23.3623 H   0  0  0  0  0  0
  -21.6648  -26.7457   22.1194 H   0  0  0  0  0  0
  -19.6912  -25.6297   21.1256 H   0  0  0  0  0  0
  -19.6687  -27.3209   20.6774 H   0  0  0  0  0  0
  -17.4213  -26.6713   21.4027 H   0  0  0  0  0  0
  -18.0309  -26.0079   22.9022 H   0  0  0  0  0  0
  -19.7938  -30.7308   24.2239 H   0  0  0  0  0  0
  -17.5009  -31.6270   24.5181 H   0  0  0  0  0  0
  -15.5352  -30.2989   23.7661 H   0  0  0  0  0  0
  -15.8683  -28.0833   22.7057 H   0  0  0  0  0  0
  -24.5884  -30.7082   25.7731 H   0  0  0  0  0  0
  -24.8894  -32.2888   26.4843 H   0  0  0  0  0  0
  -25.7999  -30.8885   27.0206 H   0  0  0  0  0  0
  -26.2902  -29.6751   24.1215 H   0  0  0  0  0  0
  -27.4042  -29.7271   25.4680 H   0  0  0  0  0  0
  -27.8769  -30.4301   23.9395 H   0  0  0  0  0  0
  -27.2698  -33.3639   26.2010 H   0  0  0  0  0  0
  -28.3868  -32.6820   25.0277 H   0  0  0  0  0  0
  -28.0726  -31.8450   26.5392 H   0  0  0  0  0  0
  -28.2586  -38.0102   24.7533 H   0  0  0  0  0  0
  -28.1081  -36.2630   24.6255 H   0  0  0  0  0  0
  -27.2301  -37.1403   25.8866 H   0  0  0  0  0  0
  -20.9388  -29.8728   21.6851 H   0  0  0  0  0  0
  -26.0162  -38.2841   24.1423 H   0  0  0  0  0  0
  -32.1990  -17.1516   21.0871 H   0  0  0  0  0  0
  -28.0812  -18.0752   20.1940 H   0  0  0  0  0  0
  -32.7905  -20.1007   23.2691 H   0  0  0  0  0  0
  -32.5180  -21.5295   22.2777 H   0  0  0  0  0  0
  -34.1584  -20.9605   22.5687 H   0  0  0  0  0  0
  -33.5810  -19.7715   19.0248 H   0  0  0  0  0  0
  -34.6306  -20.7654   20.0290 H   0  0  0  0  0  0
  -33.0096  -21.3232   19.6256 H   0  0  0  0  0  0
  -26.6228  -19.7918   20.0835 H   0  0  0  0  0  0
  -26.3261  -21.5006   20.3067 H   0  0  0  0  0  0
  -26.9724  -20.5422   21.6376 H   0  0  0  0  0  0
  -29.0034  -23.8395   19.0238 H   0  0  0  0  0  0
  -27.3650  -23.4825   19.4684 H   0  0  0  0  0  0
  -29.1174  -25.0378   21.4183 H   0  0  0  0  0  0
  -27.3979  -25.0001   21.3861 H   0  0  0  0  0  0
  -33.6916  -18.8808   21.3217 H   0  0  0  0  0  0
  -28.4381  -21.0537   19.0027 H   0  0  0  0  0  0
  -28.8255  -15.6360   20.7342 H   0  0  0  0  0  0
  -28.6402  -22.4153   21.5653 H   0  0  0  0  0  0
  -29.8728  -22.3600   20.5344 H   0  0  0  0  0  0
  1 25  1  0  0  0
  1 30  2  0  0  0
  1 84  1  0  0  0
  2  3  1  0  0  0
  2 25  1  0  0  0
  2 86  1  0  0  0
  2 87  1  0  0  0
  3  4  1  0  0  0
  3 88  1  0  0  0
  3 89  1  0  0  0
  4  5  1  0  0  0
  4 90  1  0  0  0
  4 91  1  0  0  0
  5  6  1  0  0  0
  5 26  1  0  0  0
  5 92  1  0  0  0
  6 25  1  0  0  0
  6 93  1  0  0  0
  6 94  1  0  0  0
  7  8  2  0  0  0
  7 26  1  0  0  0
  7 29  1  0  0  0
  8  9  1  0  0  0
  8 22  1  0  0  0
  9 10  1  0  0  0
  9 27  2  0  0  0
 10 11  2  0  0  0
 10 15  1  0  0  0
 11 12  1  0  0  0
 11 95  1  0  0  0
 12 13  2  0  0  0
 12 96  1  0  0  0
 13 14  1  0  0  0
 13 31  1  0  0  0
 14 15  2  0  0  0
 14 97  1  0  0  0
 15 98  1  0  0  0
 16 17  2  0  0  0
 16 21  1  0  0  0
 16 31  1  0  0  0
 17 18  1  0  0  0
 17 99  1  0  0  0
 18 19  2  0  0  0
 18100  1  0  0  0
 19 20  1  0  0  0
 19 24  1  0  0  0
 20 21  2  0  0  0
 20101  1  0  0  0
 21 23  1  0  0  0
 22 28  1  0  0  0
 22 32  2  0  0  0
 26 27  1  0  0  0
 28102  1  0  0  0
 28103  1  0  0  0
 29104  1  0  0  0
 29105  1  0  0  0
 33 34  1  0  0  0
 33 66  1  0  0  0
 33 70  2  0  0  0
 34 36  1  0  0  0
 34 59  1  0  0  0
 34106  1  0  0  0
 35 44  2  0  0  0
 35 45  1  0  0  0
 35 68  1  0  0  0
 36 56  1  0  0  0
 36107  1  0  0  0
 37 39  1  0  0  0
 37 47  1  0  0  0
 37 66  1  0  0  0
 37108  1  0  0  0
 38 43  2  0  0  0
 38 46  1  0  0  0
 38 47  1  0  0  0
 39 64  1  0  0  0
 39 67  2  0  0  0
 40 52  1  0  0  0
 40 53  2  0  0  0
 40 58  1  0  0  0
 41109  1  0  0  0
 41110  1  0  0  0
 41111  1  0  0  0
 41 48  1  0  0  0
 42 43  1  0  0  0
 42 66  1  0  0  0
 42112  1  0  0  0
 42113  1  0  0  0
 43 44  1  0  0  0
 44114  1  0  0  0
 45 46  2  0  0  0
 45115  1  0  0  0
 46116  1  0  0  0
 47117  1  0  0  0
 47118  1  0  0  0
 48 56  1  0  0  0
 48 65  1  0  0  0
 48119  1  0  0  0
 49 50  1  0  0  0
 49 53  1  0  0  0
 49 64  1  0  0  0
 49120  1  0  0  0
 50 51  1  0  0  0
 50121  1  0  0  0
 50122  1  0  0  0
 51 52  1  0  0  0
 51123  1  0  0  0
 51124  1  0  0  0
 52125  1  0  0  0
 52126  1  0  0  0
 53 54  1  0  0  0
 54 55  2  0  0  0
 54127  1  0  0  0
 55 57  1  0  0  0
 55128  1  0  0  0
 56 69  2  0  0  0
 57 58  2  0  0  0
 57129  1  0  0  0
 58130  1  0  0  0
 59 60  1  0  0  0
 59 61  1  0  0  0
 59 62  1  0  0  0
 60131  1  0  0  0
 60132  1  0  0  0
 60133  1  0  0  0
 61134  1  0  0  0
 61135  1  0  0  0
 61136  1  0  0  0
 62137  1  0  0  0
 62138  1  0  0  0
 62139  1  0  0  0
 63 65  1  0  0  0
 63140  1  0  0  0
 63141  1  0  0  0
 63142  1  0  0  0
 64143  1  0  0  0
 65144  1  0  0  0
 68 80  1  0  0  0
 71 73  2  0  0  0
 71 74  1  0  0  0
 71145  1  0  0  0
 72 73  1  0  0  0
 72 75  2  0  0  0
 72146  1  0  0  0
 73 84  1  0  0  0
 74 81  1  0  0  0
 74 83  2  0  0  0
 75 82  1  0  0  0
 75 83  1  0  0  0
 76147  1  0  0  0
 76148  1  0  0  0
 76149  1  0  0  0
 76 81  1  0  0  0
 77 81  1  0  0  0
 77150  1  0  0  0
 77151  1  0  0  0
 77152  1  0  0  0
 78153  1  0  0  0
 78154  1  0  0  0
 78155  1  0  0  0
 78 82  1  0  0  0
 79 80  1  0  0  0
 79 85  1  0  0  0
 79156  1  0  0  0
 79157  1  0  0  0
 80158  1  0  0  0
 80159  1  0  0  0
 81160  1  0  0  0
 82 85  1  0  0  0
 82161  1  0  0  0
 84162  1  0  0  0
 85163  1  0  0  0
 85164  1  0  0  0
M  CHG  1  85   1
M  ISO  4   1 100  68 101  80 101  84 100
M  END
> <chiral flag>
0

> <version>
0

> <s_m_source_file>
/data/baiqing/PycharmProjects/Reinvent-master-3.2/result/LINK_invent/BTK/process_docking_weight1_custom_sum_contain_oxygen_bond_distance_aromatic_linkinvent_7_9_3/rearranged_h_0109.sdf

> <i_m_source_file_index>
41

> <r_mmod_Potential_Energy-OPLS-2005>
-245.08219909668

> <r_mmod_Stretch_Energy-OPLS-2005>
117.234466552734

> <r_mmod_Bend_Energy-OPLS-2005>
162.13005065918

> <r_mmod_Torsional_Energy-OPLS-2005>
230.197341918945

> <r_mmod_Improper_Torsional_Energy-OPLS-2005>
5.62605381011963

> <r_mmod_Van_der_Waal_Energy-OPLS-2005>
137.276443481445

> <r_mmod_Electrostatic_Energy-OPLS-2005>
-535.049926757812

> <r_mmod_Solvation_Energy-OPLS-2005>
-440.496887207031

> <b_mmod_Minimization_Converged-OPLS-2005>
0

> <r_mmod_RMS_Derivative-OPLS-2005>
1.21704149246216

$$$$
41
                    3D
 Structure written by MMmdl.
163171  0  0  1  0            999 V2000
  -30.5724  -14.7889   20.4818 C   0  0  0  0  0  0
  -30.4474  -12.4939   19.4643 C   0  0  0  0  0  0
  -29.5159  -12.5302   18.2317 C   0  0  0  0  0  0
  -28.0418  -12.3437   18.6482 C   0  0  0  0  0  0
  -27.6450  -13.2310   19.8596 C   0  0  2  0  0  0
  -28.6973  -13.1320   20.9851 C   0  0  0  0  0  0
  -25.2476  -13.8157   20.5601 C   0  0  0  0  0  0
  -24.1808  -13.0411   20.9212 C   0  0  0  0  0  0
  -24.6417  -11.6896   20.8770 C   0  0  0  0  0  0
  -23.9079  -10.4284   21.0418 C   0  0  0  0  0  0
  -24.3623   -9.4201   21.9199 C   0  0  0  0  0  0
  -23.6301   -8.2230   22.0752 C   0  0  0  0  0  0
  -22.4279   -8.0279   21.3542 C   0  0  0  0  0  0
  -21.9923   -9.0258   20.4643 C   0  0  0  0  0  0
  -22.7248  -10.2138   20.3067 C   0  0  0  0  0  0
  -21.6852   -6.0735   22.5282 C   0  0  0  0  0  0
  -21.4014   -6.5639   23.8220 C   0  0  0  0  0  0
  -21.3660   -5.6789   24.9182 C   0  0  0  0  0  0
  -21.6044   -4.3053   24.7229 C   0  0  0  0  0  0
  -21.8816   -3.8147   23.4352 C   0  0  0  0  0  0
  -21.9199   -4.6964   22.3408 C   0  0  0  0  0  0
  -22.7830  -13.5200   21.1867 C   0  0  0  0  0  0
  -22.1661   -4.2148   21.0988 F   0  0  0  0  0  0
  -21.5634   -3.4537   25.7745 F   0  0  0  0  0  0
  -29.9800  -13.5426   20.4026 N   0  0  0  0  0  0
  -26.2957  -12.9389   20.3313 N   0  0  0  0  0  0
  -25.9362  -11.6532   20.5806 N   0  0  0  0  0  0
  -22.0476  -12.8208   22.0432 N   0  0  0  0  0  0
  -25.3988  -15.1862   20.3781 N   0  0  0  0  0  0
  -31.7652  -14.9052   20.1854 O   0  0  0  0  0  0
  -21.6640   -6.8879   21.4243 O   0  0  0  0  0  0
  -22.3515  -14.5513   20.6714 O   0  0  0  0  0  0
  -24.6328  -31.8516   23.1934 C   0  0  0  0  0  0
  -25.9143  -32.4738   23.8298 C   0  0  1  0  0  0
  -27.2312  -27.2426   20.1424 C   0  0  0  0  0  0
  -25.5928  -33.8541   24.2227 N   0  0  0  0  0  0
  -23.4318  -30.4705   21.5377 C   0  0  2  0  0  0
  -24.8808  -28.9027   20.1185 C   0  0  0  0  0  0
  -22.7514  -29.4589   22.4910 C   0  0  0  0  0  0
  -18.0297  -28.1389   22.8486 C   0  0  0  0  0  0
  -24.1488  -36.7280   23.2641 C   0  0  0  0  0  0
  -25.9769  -30.7607   21.3728 C   0  0  0  0  0  0
  -26.0527  -29.3772   20.7229 C   0  0  0  0  0  0
  -27.2321  -28.5631   20.7134 C   0  0  0  0  0  0
  -26.0360  -26.8279   19.5224 C   0  0  0  0  0  0
  -24.8787  -27.6370   19.5068 C   0  0  0  0  0  0
  -23.6528  -29.7942   20.1581 C   0  0  0  0  0  0
  -25.4118  -36.3066   24.0321 C   0  0  1  0  0  0
  -20.5902  -28.3703   23.1271 C   0  0  2  0  0  0
  -20.6784  -26.9416   22.5415 C   0  0  0  0  0  0
  -19.5759  -26.6387   21.5217 C   0  0  0  0  0  0
  -18.1939  -26.7934   22.1625 C   0  0  0  0  0  0
  -19.1549  -28.8863   23.2877 C   0  0  0  0  0  0
  -18.9467  -30.1467   23.8892 C   0  0  0  0  0  0
  -17.6462  -30.6584   24.0566 C   0  0  0  0  0  0
  -25.9058  -34.9433   23.5078 C   0  0  0  0  0  0
  -16.5355  -29.9081   23.6332 C   0  0  0  0  0  0
  -16.7283  -28.6503   23.0345 C   0  0  0  0  0  0
  -26.4503  -31.6571   25.0697 C   0  0  0  0  0  0
  -25.3714  -31.3732   26.1412 C   0  0  0  0  0  0
  -27.0346  -30.2980   24.6195 C   0  0  0  0  0  0
  -27.6053  -32.4314   25.7474 C   0  0  0  0  0  0
  -27.5578  -37.1798   24.8466 C   0  0  0  0  0  0
  -21.4216  -29.3045   22.3657 N   0  0  0  0  0  0
  -26.4290  -37.3767   23.9407 N   0  0  0  0  0  0
  -24.6997  -31.0466   22.0917 N   0  0  0  0  0  0
  -23.4198  -28.8152   23.3040 O   0  0  0  0  0  0
  -28.3497  -26.3754   20.1164 O   0  0  0  0  0  0
  -26.5641  -34.8917   22.4655 O   0  0  0  0  0  0
  -23.5473  -32.1352   23.7217 O   0  0  0  0  0  0
  -27.3507  -20.8557   20.5455 C   0  0  0  0  0  0
  -26.8394  -19.6337   21.0133 C   0  0  0  0  0  0
  -27.7203  -18.5706   21.3841 C   0  0  0  0  0  0
  -29.0780  -18.6355   20.9108 C   0  0  0  0  0  0
  -28.7264  -21.0291   20.4221 C   0  0  0  0  0  0
  -25.3290  -19.5509   21.1992 C   0  0  0  0  0  0
  -27.2479  -18.3947   23.8545 C   0  0  0  0  0  0
  -27.7202  -16.2460   22.7041 C   0  0  0  0  0  0
  -30.1314  -17.3993   20.8990 C   0  0  0  0  0  0
  -28.5455  -23.6235   19.7169 C   0  0  0  0  0  0
  -28.2827  -24.9525   20.6299 C   0  0  0  0  0  0
  -27.1730  -17.6498   22.5085 C   0  0  0  0  0  0
  -29.5443  -19.9025   20.5142 N   0  0  0  0  0  0
  -29.2432  -22.3747   20.2724 N   0  0  0  0  0  0
  -29.7759  -15.9104   20.7081 N   0  0  0  0  0  0
  -31.4828  -12.6515   19.1588 H   0  0  0  0  0  0
  -30.4246  -11.5106   19.9368 H   0  0  0  0  0  0
  -29.8057  -11.7639   17.5114 H   0  0  0  0  0  0
  -29.6339  -13.4871   17.7209 H   0  0  0  0  0  0
  -27.9077  -11.2930   18.9072 H   0  0  0  0  0  0
  -27.3806  -12.5390   17.8038 H   0  0  0  0  0  0
  -27.6455  -14.2596   19.4979 H   0  0  0  0  0  0
  -28.7564  -12.1108   21.3634 H   0  0  0  0  0  0
  -28.4444  -13.7366   21.8513 H   0  0  0  0  0  0
  -25.2757   -9.5680   22.4788 H   0  0  0  0  0  0
  -24.0010   -7.4616   22.7462 H   0  0  0  0  0  0
  -21.0859   -8.8778   19.8944 H   0  0  0  0  0  0
  -22.3700  -10.9688   19.6191 H   0  0  0  0  0  0
  -21.1990   -7.6142   23.9723 H   0  0  0  0  0  0
  -21.1485   -6.0517   25.9085 H   0  0  0  0  0  0
  -22.0594   -2.7606   23.2854 H   0  0  0  0  0  0
  -22.4088  -11.9885   22.4838 H   0  0  0  0  0  0
  -21.1086  -13.1237   22.2604 H   0  0  0  0  0  0
  -24.6100  -15.8154   20.4711 H   0  0  0  0  0  0
  -26.2203  -15.6362   19.9999 H   0  0  0  0  0  0
  -26.7208  -32.5384   23.1038 H   0  0  0  0  0  0
  -25.0058  -33.9673   25.0362 H   0  0  0  0  0  0
  -22.7292  -31.2920   21.3850 H   0  0  0  0  0  0
  -23.3747  -35.9615   23.3304 H   0  0  0  0  0  0
  -24.3577  -36.8906   22.2056 H   0  0  0  0  0  0
  -23.7242  -37.6479   23.6669 H   0  0  0  0  0  0
  -26.1124  -31.5170   20.5980 H   0  0  0  0  0  0
  -26.8549  -30.8170   22.0050 H   0  0  0  0  0  0
  -28.1364  -28.9310   21.1788 H   0  0  0  0  0  0
  -25.9958  -25.8585   19.0454 H   0  0  0  0  0  0
  -23.9829  -27.2684   19.0268 H   0  0  0  0  0  0
  -23.7803  -30.5653   19.3967 H   0  0  0  0  0  0
  -22.7706  -29.2277   19.8551 H   0  0  0  0  0  0
  -25.1302  -36.1905   25.0811 H   0  0  0  0  0  0
  -21.0000  -28.3277   24.1389 H   0  0  0  0  0  0
  -20.5677  -26.2315   23.3628 H   0  0  0  0  0  0
  -21.6652  -26.7431   22.1214 H   0  0  0  0  0  0
  -19.6913  -25.6297   21.1253 H   0  0  0  0  0  0
  -19.6691  -27.3197   20.6746 H   0  0  0  0  0  0
  -17.4213  -26.6689   21.4024 H   0  0  0  0  0  0
  -18.0328  -26.0078   22.9020 H   0  0  0  0  0  0
  -19.7939  -30.7293   24.2252 H   0  0  0  0  0  0
  -17.5009  -31.6258   24.5175 H   0  0  0  0  0  0
  -15.5353  -30.2971   23.7655 H   0  0  0  0  0  0
  -15.8694  -28.0817   22.7044 H   0  0  0  0  0  0
  -24.5900  -30.7066   25.7744 H   0  0  0  0  0  0
  -24.8891  -32.2906   26.4796 H   0  0  0  0  0  0
  -25.8025  -30.8941   27.0210 H   0  0  0  0  0  0
  -26.2930  -29.6726   24.1209 H   0  0  0  0  0  0
  -27.4010  -29.7248   25.4723 H   0  0  0  0  0  0
  -27.8817  -30.4247   23.9449 H   0  0  0  0  0  0
  -27.2657  -33.3620   26.2030 H   0  0  0  0  0  0
  -28.3875  -32.6857   25.0309 H   0  0  0  0  0  0
  -28.0704  -31.8443   26.5405 H   0  0  0  0  0  0
  -28.2598  -38.0094   24.7504 H   0  0  0  0  0  0
  -28.1070  -36.2621   24.6297 H   0  0  0  0  0  0
  -27.2298  -37.1457   25.8871 H   0  0  0  0  0  0
  -20.9407  -29.8760   21.6849 H   0  0  0  0  0  0
  -26.0163  -38.2838   24.1404 H   0  0  0  0  0  0
  -26.6790  -21.6902   20.4026 H   0  0  0  0  0  0
  -24.9438  -18.6186   20.7863 H   0  0  0  0  0  0
  -24.8189  -20.3575   20.6732 H   0  0  0  0  0  0
  -25.0450  -19.6141   22.2483 H   0  0  0  0  0  0
  -26.7303  -19.3534   23.8229 H   0  0  0  0  0  0
  -28.2811  -18.5939   24.1382 H   0  0  0  0  0  0
  -26.7894  -17.8154   24.6564 H   0  0  0  0  0  0
  -27.5550  -15.6659   21.8052 H   0  0  0  0  0  0
  -27.1666  -15.7356   23.4922 H   0  0  0  0  0  0
  -28.7648  -16.2348   23.0112 H   0  0  0  0  0  0
  -30.6794  -17.4625   21.8397 H   0  0  0  0  0  0
  -30.8693  -17.6307   20.1306 H   0  0  0  0  0  0
  -29.1830  -23.9443   18.8919 H   0  0  0  0  0  0
  -27.6101  -23.3371   19.2370 H   0  0  0  0  0  0
  -29.0402  -24.9304   21.4141 H   0  0  0  0  0  0
  -27.3441  -24.8156   21.1671 H   0  0  0  0  0  0
  -26.1196  -17.4628   22.3089 H   0  0  0  0  0  0
  -30.2566  -22.4367   20.2673 H   0  0  0  0  0  0
  -28.7992  -15.7142   20.8587 H   0  0  0  0  0  0
  1 25  1  0  0  0
  1 30  2  0  0  0
  1 85  1  0  0  0
  2  3  1  0  0  0
  2 25  1  0  0  0
  2 86  1  0  0  0
  2 87  1  0  0  0
  3  4  1  0  0  0
  3 88  1  0  0  0
  3 89  1  0  0  0
  4  5  1  0  0  0
  4 90  1  0  0  0
  4 91  1  0  0  0
  5  6  1  0  0  0
  5 26  1  0  0  0
  5 92  1  0  0  0
  6 25  1  0  0  0
  6 93  1  0  0  0
  6 94  1  0  0  0
  7  8  2  0  0  0
  7 26  1  0  0  0
  7 29  1  0  0  0
  8  9  1  0  0  0
  8 22  1  0  0  0
  9 10  1  0  0  0
  9 27  2  0  0  0
 10 11  2  0  0  0
 10 15  1  0  0  0
 11 12  1  0  0  0
 11 95  1  0  0  0
 12 13  2  0  0  0
 12 96  1  0  0  0
 13 14  1  0  0  0
 13 31  1  0  0  0
 14 15  2  0  0  0
 14 97  1  0  0  0
 15 98  1  0  0  0
 16 17  2  0  0  0
 16 21  1  0  0  0
 16 31  1  0  0  0
 17 18  1  0  0  0
 17 99  1  0  0  0
 18 19  2  0  0  0
 18100  1  0  0  0
 19 20  1  0  0  0
 19 24  1  0  0  0
 20 21  2  0  0  0
 20101  1  0  0  0
 21 23  1  0  0  0
 22 28  1  0  0  0
 22 32  2  0  0  0
 26 27  1  0  0  0
 28102  1  0  0  0
 28103  1  0  0  0
 29104  1  0  0  0
 29105  1  0  0  0
 33 34  1  0  0  0
 33 66  1  0  0  0
 33 70  2  0  0  0
 34 36  1  0  0  0
 34 59  1  0  0  0
 34106  1  0  0  0
 35 44  2  0  0  0
 35 45  1  0  0  0
 35 68  1  0  0  0
 36 56  1  0  0  0
 36107  1  0  0  0
 37 39  1  0  0  0
 37 47  1  0  0  0
 37 66  1  0  0  0
 37108  1  0  0  0
 38 43  2  0  0  0
 38 46  1  0  0  0
 38 47  1  0  0  0
 39 64  1  0  0  0
 39 67  2  0  0  0
 40 52  1  0  0  0
 40 53  2  0  0  0
 40 58  1  0  0  0
 41109  1  0  0  0
 41110  1  0  0  0
 41111  1  0  0  0
 41 48  1  0  0  0
 42 43  1  0  0  0
 42 66  1  0  0  0
 42112  1  0  0  0
 42113  1  0  0  0
 43 44  1  0  0  0
 44114  1  0  0  0
 45 46  2  0  0  0
 45115  1  0  0  0
 46116  1  0  0  0
 47117  1  0  0  0
 47118  1  0  0  0
 48 56  1  0  0  0
 48 65  1  0  0  0
 48119  1  0  0  0
 49 50  1  0  0  0
 49 53  1  0  0  0
 49 64  1  0  0  0
 49120  1  0  0  0
 50 51  1  0  0  0
 50121  1  0  0  0
 50122  1  0  0  0
 51 52  1  0  0  0
 51123  1  0  0  0
 51124  1  0  0  0
 52125  1  0  0  0
 52126  1  0  0  0
 53 54  1  0  0  0
 54 55  2  0  0  0
 54127  1  0  0  0
 55 57  1  0  0  0
 55128  1  0  0  0
 56 69  2  0  0  0
 57 58  2  0  0  0
 57129  1  0  0  0
 58130  1  0  0  0
 59 60  1  0  0  0
 59 61  1  0  0  0
 59 62  1  0  0  0
 60131  1  0  0  0
 60132  1  0  0  0
 60133  1  0  0  0
 61134  1  0  0  0
 61135  1  0  0  0
 61136  1  0  0  0
 62137  1  0  0  0
 62138  1  0  0  0
 62139  1  0  0  0
 63 65  1  0  0  0
 63140  1  0  0  0
 63141  1  0  0  0
 63142  1  0  0  0
 64143  1  0  0  0
 65144  1  0  0  0
 68 81  1  0  0  0
 71 72  2  0  0  0
 71 75  1  0  0  0
 71145  1  0  0  0
 72 73  1  0  0  0
 72 76  1  0  0  0
 73 74  2  0  0  0
 73 82  1  0  0  0
 74 79  1  0  0  0
 74 83  1  0  0  0
 75 83  2  0  0  0
 75 84  1  0  0  0
 76146  1  0  0  0
 76147  1  0  0  0
 76148  1  0  0  0
 77149  1  0  0  0
 77150  1  0  0  0
 77151  1  0  0  0
 77 82  1  0  0  0
 78 82  1  0  0  0
 78152  1  0  0  0
 78153  1  0  0  0
 78154  1  0  0  0
 79 85  1  0  0  0
 79155  1  0  0  0
 79156  1  0  0  0
 80 81  1  0  0  0
 80 84  1  0  0  0
 80157  1  0  0  0
 80158  1  0  0  0
 81159  1  0  0  0
 81160  1  0  0  0
 82161  1  0  0  0
 84162  1  0  0  0
 85163  1  0  0  0
M  ISO  4   1 100  68 101  81 101  85 100
M  END
> <chiral flag>
0

> <version>
0

> <s_m_source_file>
/data/baiqing/PycharmProjects/Reinvent-master-3.2/result/LINK_invent/BTK/process_docking_weight1_custom_sum_contain_oxygen_bond_distance_aromatic_linkinvent_7_9_3/rearranged_h_0109.sdf

> <i_m_source_file_index>
42

> <r_mmod_Potential_Energy-OPLS-2005>
-37.9602737426758

> <r_mmod_Stretch_Energy-OPLS-2005>
150.671890258789

> <r_mmod_Bend_Energy-OPLS-2005>
231.32389831543

> <r_mmod_Torsional_Energy-OPLS-2005>
266.876068115234

> <r_mmod_Improper_Torsional_Energy-OPLS-2005>
8.02784538269043

> <r_mmod_Van_der_Waal_Energy-OPLS-2005>
143.646453857422

> <r_mmod_Electrostatic_Energy-OPLS-2005>
-700.473266601562

> <r_mmod_Solvation_Energy-OPLS-2005>
-233.327499389648

> <b_mmod_Minimization_Converged-OPLS-2005>
0

> <r_mmod_RMS_Derivative-OPLS-2005>
1.6066358089447

$$$$
42
                    3D
 Structure written by MMmdl.
151159  0  0  1  0            999 V2000
  -30.4137  -15.5368   20.3594 C   0  0  0  0  0  0
  -30.4185  -13.0148   19.5363 C   0  0  0  0  0  0
  -29.5462  -12.6352   18.3115 C   0  0  0  0  0  0
  -28.1106  -12.3091   18.7468 C   0  0  0  0  0  0
  -27.6005  -13.3090   19.8131 C   0  0  2  0  0  0
  -28.6247  -13.6238   20.9319 C   0  0  0  0  0  0
  -25.2374  -13.8309   20.5839 C   0  0  0  0  0  0
  -24.1744  -13.0450   20.9309 C   0  0  0  0  0  0
  -24.6443  -11.6959   20.8779 C   0  0  0  0  0  0
  -23.9131  -10.4299   21.0387 C   0  0  0  0  0  0
  -24.3673   -9.4213   21.9165 C   0  0  0  0  0  0
  -23.6329   -8.2251   22.0739 C   0  0  0  0  0  0
  -22.4319   -8.0281   21.3527 C   0  0  0  0  0  0
  -21.9954   -9.0254   20.4642 C   0  0  0  0  0  0
  -22.7297  -10.2127   20.3039 C   0  0  0  0  0  0
  -21.6868   -6.0740   22.5267 C   0  0  0  0  0  0
  -21.4026   -6.5638   23.8207 C   0  0  0  0  0  0
  -21.3660   -5.6790   24.9176 C   0  0  0  0  0  0
  -21.6042   -4.3052   24.7229 C   0  0  0  0  0  0
  -21.8822   -3.8147   23.4348 C   0  0  0  0  0  0
  -21.9201   -4.6966   22.3404 C   0  0  0  0  0  0
  -22.7746  -13.5188   21.1886 C   0  0  0  0  0  0
  -22.1671   -4.2156   21.0982 F   0  0  0  0  0  0
  -21.5620   -3.4521   25.7733 F   0  0  0  0  0  0
  -29.8057  -14.2170   20.2665 N   0  0  0  0  0  0
  -26.2825  -12.9639   20.3267 N   0  0  0  0  0  0
  -25.9403  -11.6702   20.5715 N   0  0  0  0  0  0
  -22.0366  -12.8198   22.0432 N   0  0  0  0  0  0
  -25.3991  -15.2044   20.4304 N   0  0  0  0  0  0
  -31.6417  -15.3851   20.2095 O   0  0  0  0  0  0
  -21.6654   -6.8906   21.4240 O   0  0  0  0  0  0
  -22.3425  -14.5448   20.6656 O   0  0  0  0  0  0
  -24.6795  -31.8027   23.1564 C   0  0  0  0  0  0
  -25.9387  -32.4479   23.8089 C   0  0  1  0  0  0
  -27.2099  -26.7344   20.2271 C   0  0  0  0  0  0
  -25.5981  -33.8311   24.1983 N   0  0  0  0  0  0
  -23.5029  -30.4085   21.5090 C   0  0  2  0  0  0
  -24.9593  -28.7586   20.1179 C   0  0  0  0  0  0
  -22.7746  -29.4322   22.4716 C   0  0  0  0  0  0
  -18.0339  -28.1401   22.8463 C   0  0  0  0  0  0
  -24.1500  -36.7160   23.2657 C   0  0  0  0  0  0
  -26.0834  -30.5462   21.4203 C   0  0  0  0  0  0
  -26.1458  -29.1170   20.7688 C   0  0  0  0  0  0
  -27.2586  -28.1306   20.7940 C   0  0  0  0  0  0
  -25.9986  -26.5806   19.5086 C   0  0  0  0  0  0
  -24.9231  -27.5170   19.4620 C   0  0  0  0  0  0
  -23.7541  -29.7089   20.1431 C   0  0  0  0  0  0
  -25.4159  -36.2913   24.0290 C   0  0  1  0  0  0
  -20.5972  -28.3749   23.1153 C   0  0  2  0  0  0
  -20.6806  -26.9402   22.5421 C   0  0  0  0  0  0
  -19.5780  -26.6356   21.5227 C   0  0  0  0  0  0
  -18.1965  -26.7932   22.1623 C   0  0  0  0  0  0
  -19.1606  -28.8910   23.2789 C   0  0  0  0  0  0
  -18.9499  -30.1504   23.8816 C   0  0  0  0  0  0
  -17.6484  -30.6587   24.0540 C   0  0  0  0  0  0
  -25.9125  -34.9293   23.4976 C   0  0  0  0  0  0
  -16.5378  -29.9056   23.6348 C   0  0  0  0  0  0
  -16.7317  -28.6483   23.0359 C   0  0  0  0  0  0
  -26.4598  -31.6499   25.0699 C   0  0  0  0  0  0
  -25.3664  -31.3797   26.1310 C   0  0  0  0  0  0
  -27.0544  -30.2844   24.6591 C   0  0  0  0  0  0
  -27.6061  -32.4357   25.7490 C   0  0  0  0  0  0
  -27.5572  -37.1744   24.8470 C   0  0  0  0  0  0
  -21.4395  -29.3008   22.3473 N   0  0  0  0  0  0
  -26.4290  -37.3658   23.9398 N   0  0  0  0  0  0
  -24.7766  -30.9531   22.0796 N   0  0  0  0  0  0
  -23.4214  -28.7937   23.3053 O   0  0  0  0  0  0
  -28.1654  -25.5258   20.3202 O   0  0  0  0  0  0
  -26.5757  -34.8845   22.4585 O   0  0  0  0  0  0
  -23.5826  -32.1091   23.6552 O   0  0  0  0  0  0
  -29.0378  -22.3697   20.4403 C   0  0  0  0  0  0
  -28.2050  -19.5152   20.1187 C   0  0  0  0  0  0
  -30.3168  -19.8913   20.7212 C   0  0  0  0  0  0
  -28.5400  -17.8405   20.5814 C   0  0  0  0  0  0
  -30.6663  -18.3189   20.1161 C   0  0  0  0  0  0
  -26.7261  -23.5649   21.2057 C   0  0  0  0  0  0
  -27.8992  -23.8030   20.2370 C   0  0  1  0  0  0
  -29.0838  -20.8063   20.3848 N   0  0  0  0  0  0
  -29.8584  -16.9956   20.3546 N   0  0  0  0  0  0
  -30.1472  -22.8264   20.7290 O   0  0  0  0  0  0
  -31.4270  -13.2313   19.1814 H   0  0  0  0  0  0
  -30.5401  -12.1587   20.2031 H   0  0  0  0  0  0
  -29.9804  -11.7841   17.7866 H   0  0  0  0  0  0
  -29.5407  -13.4663   17.6049 H   0  0  0  0  0  0
  -28.1153  -11.3014   19.1644 H   0  0  0  0  0  0
  -27.4432  -12.2825   17.8849 H   0  0  0  0  0  0
  -27.4705  -14.2422   19.2609 H   0  0  0  0  0  0
  -28.8743  -12.7388   21.5190 H   0  0  0  0  0  0
  -28.2079  -14.3505   21.6295 H   0  0  0  0  0  0
  -25.2817   -9.5669   22.4767 H   0  0  0  0  0  0
  -24.0019   -7.4638   22.7473 H   0  0  0  0  0  0
  -21.0878   -8.8799   19.8952 H   0  0  0  0  0  0
  -22.3759  -10.9677   19.6151 H   0  0  0  0  0  0
  -21.2012   -7.6148   23.9725 H   0  0  0  0  0  0
  -21.1485   -6.0511   25.9083 H   0  0  0  0  0  0
  -22.0605   -2.7601   23.2842 H   0  0  0  0  0  0
  -22.3999  -11.9948   22.4975 H   0  0  0  0  0  0
  -21.0926  -13.1167   22.2472 H   0  0  0  0  0  0
  -24.6263  -15.8515   20.5451 H   0  0  0  0  0  0
  -26.2462  -15.6457   20.0957 H   0  0  0  0  0  0
  -26.7458  -32.4960   23.0781 H   0  0  0  0  0  0
  -25.0048  -33.9360   25.0086 H   0  0  0  0  0  0
  -22.8253  -31.2463   21.3228 H   0  0  0  0  0  0
  -23.3767  -35.9479   23.3303 H   0  0  0  0  0  0
  -24.3561  -36.8831   22.2068 H   0  0  0  0  0  0
  -23.7262  -37.6344   23.6739 H   0  0  0  0  0  0
  -26.2935  -31.2731   20.6334 H   0  0  0  0  0  0
  -26.9329  -30.6016   22.0907 H   0  0  0  0  0  0
  -28.1449  -28.4022   21.3483 H   0  0  0  0  0  0
  -25.8383  -25.6401   19.0029 H   0  0  0  0  0  0
  -24.0293  -27.2339   18.9256 H   0  0  0  0  0  0
  -23.9220  -30.4683   19.3795 H   0  0  0  0  0  0
  -22.8589  -29.1740   19.8200 H   0  0  0  0  0  0
  -25.1369  -36.1679   25.0786 H   0  0  0  0  0  0
  -21.0064  -28.3354   24.1275 H   0  0  0  0  0  0
  -20.5674  -26.2358   23.3666 H   0  0  0  0  0  0
  -21.6657  -26.7348   22.1224 H   0  0  0  0  0  0
  -19.6924  -25.6259   21.1279 H   0  0  0  0  0  0
  -19.6719  -27.3144   20.6733 H   0  0  0  0  0  0
  -17.4236  -26.6676   21.4026 H   0  0  0  0  0  0
  -18.0337  -26.0096   22.9043 H   0  0  0  0  0  0
  -19.7969  -30.7364   24.2124 H   0  0  0  0  0  0
  -17.5017  -31.6249   24.5163 H   0  0  0  0  0  0
  -15.5369  -30.2917   23.7739 H   0  0  0  0  0  0
  -15.8712  -28.0781   22.7097 H   0  0  0  0  0  0
  -24.5860  -30.7146   25.7589 H   0  0  0  0  0  0
  -24.8843  -32.3003   26.4586 H   0  0  0  0  0  0
  -25.7832  -30.9031   27.0186 H   0  0  0  0  0  0
  -26.3267  -29.6449   24.1589 H   0  0  0  0  0  0
  -27.3977  -29.7302   25.5339 H   0  0  0  0  0  0
  -27.9241  -30.3997   24.0127 H   0  0  0  0  0  0
  -27.2622  -33.3722   26.1889 H   0  0  0  0  0  0
  -28.3941  -32.6816   25.0364 H   0  0  0  0  0  0
  -28.0646  -31.8604   26.5532 H   0  0  0  0  0  0
  -28.2583  -38.0047   24.7492 H   0  0  0  0  0  0
  -28.1072  -36.2562   24.6335 H   0  0  0  0  0  0
  -27.2262  -37.1425   25.8866 H   0  0  0  0  0  0
  -20.9693  -29.8658   21.6536 H   0  0  0  0  0  0
  -26.0116  -38.2721   24.1360 H   0  0  0  0  0  0
  -27.2225  -19.7536   20.5265 H   0  0  0  0  0  0
  -28.0459  -19.5073   19.0396 H   0  0  0  0  0  0
  -30.3565  -19.8338   21.8112 H   0  0  0  0  0  0
  -31.1917  -20.4867   20.4548 H   0  0  0  0  0  0
  -27.7427  -17.2294   20.1584 H   0  0  0  0  0  0
  -28.3757  -17.7885   21.6591 H   0  0  0  0  0  0
  -31.6717  -18.0920   20.4767 H   0  0  0  0  0  0
  -30.7926  -18.4052   19.0354 H   0  0  0  0  0  0
  -26.4989  -22.5032   21.3159 H   0  0  0  0  0  0
  -25.8137  -24.0487   20.8589 H   0  0  0  0  0  0
  -26.9524  -23.9489   22.2002 H   0  0  0  0  0  0
  -27.5087  -23.6513   19.2316 H   0  0  0  0  0  0
  1 25  1  0  0  0
  1 30  2  0  0  0
  1 79  1  0  0  0
  2  3  1  0  0  0
  2 25  1  0  0  0
  2 81  1  0  0  0
  2 82  1  0  0  0
  3  4  1  0  0  0
  3 83  1  0  0  0
  3 84  1  0  0  0
  4  5  1  0  0  0
  4 85  1  0  0  0
  4 86  1  0  0  0
  5  6  1  0  0  0
  5 26  1  0  0  0
  5 87  1  0  0  0
  6 25  1  0  0  0
  6 88  1  0  0  0
  6 89  1  0  0  0
  7  8  2  0  0  0
  7 26  1  0  0  0
  7 29  1  0  0  0
  8  9  1  0  0  0
  8 22  1  0  0  0
  9 10  1  0  0  0
  9 27  2  0  0  0
 10 11  2  0  0  0
 10 15  1  0  0  0
 11 12  1  0  0  0
 11 90  1  0  0  0
 12 13  2  0  0  0
 12 91  1  0  0  0
 13 14  1  0  0  0
 13 31  1  0  0  0
 14 15  2  0  0  0
 14 92  1  0  0  0
 15 93  1  0  0  0
 16 17  2  0  0  0
 16 21  1  0  0  0
 16 31  1  0  0  0
 17 18  1  0  0  0
 17 94  1  0  0  0
 18 19  2  0  0  0
 18 95  1  0  0  0
 19 20  1  0  0  0
 19 24  1  0  0  0
 20 21  2  0  0  0
 20 96  1  0  0  0
 21 23  1  0  0  0
 22 28  1  0  0  0
 22 32  2  0  0  0
 26 27  1  0  0  0
 28 97  1  0  0  0
 28 98  1  0  0  0
 29 99  1  0  0  0
 29100  1  0  0  0
 33 34  1  0  0  0
 33 66  1  0  0  0
 33 70  2  0  0  0
 34 36  1  0  0  0
 34 59  1  0  0  0
 34101  1  0  0  0
 35 44  2  0  0  0
 35 45  1  0  0  0
 35 68  1  0  0  0
 36 56  1  0  0  0
 36102  1  0  0  0
 37 39  1  0  0  0
 37 47  1  0  0  0
 37 66  1  0  0  0
 37103  1  0  0  0
 38 43  2  0  0  0
 38 46  1  0  0  0
 38 47  1  0  0  0
 39 64  1  0  0  0
 39 67  2  0  0  0
 40 52  1  0  0  0
 40 53  2  0  0  0
 40 58  1  0  0  0
 41104  1  0  0  0
 41105  1  0  0  0
 41106  1  0  0  0
 41 48  1  0  0  0
 42 43  1  0  0  0
 42 66  1  0  0  0
 42107  1  0  0  0
 42108  1  0  0  0
 43 44  1  0  0  0
 44109  1  0  0  0
 45 46  2  0  0  0
 45110  1  0  0  0
 46111  1  0  0  0
 47112  1  0  0  0
 47113  1  0  0  0
 48 56  1  0  0  0
 48 65  1  0  0  0
 48114  1  0  0  0
 49 50  1  0  0  0
 49 53  1  0  0  0
 49 64  1  0  0  0
 49115  1  0  0  0
 50 51  1  0  0  0
 50116  1  0  0  0
 50117  1  0  0  0
 51 52  1  0  0  0
 51118  1  0  0  0
 51119  1  0  0  0
 52120  1  0  0  0
 52121  1  0  0  0
 53 54  1  0  0  0
 54 55  2  0  0  0
 54122  1  0  0  0
 55 57  1  0  0  0
 55123  1  0  0  0
 56 69  2  0  0  0
 57 58  2  0  0  0
 57124  1  0  0  0
 58125  1  0  0  0
 59 60  1  0  0  0
 59 61  1  0  0  0
 59 62  1  0  0  0
 60126  1  0  0  0
 60127  1  0  0  0
 60128  1  0  0  0
 61129  1  0  0  0
 61130  1  0  0  0
 61131  1  0  0  0
 62132  1  0  0  0
 62133  1  0  0  0
 62134  1  0  0  0
 63 65  1  0  0  0
 63135  1  0  0  0
 63136  1  0  0  0
 63137  1  0  0  0
 64138  1  0  0  0
 65139  1  0  0  0
 68 77  1  0  0  0
 71 77  1  0  0  0
 71 78  1  0  0  0
 71 80  2  0  0  0
 72 74  1  0  0  0
 72 78  1  0  0  0
 72140  1  0  0  0
 72141  1  0  0  0
 73 75  1  0  0  0
 73 78  1  0  0  0
 73142  1  0  0  0
 73143  1  0  0  0
 74 79  1  0  0  0
 74144  1  0  0  0
 74145  1  0  0  0
 75 79  1  0  0  0
 75146  1  0  0  0
 75147  1  0  0  0
 76148  1  0  0  0
 76149  1  0  0  0
 76150  1  0  0  0
 76 77  1  0  0  0
 77151  1  0  0  0
M  ISO  4   1 100  68 101  77 101  79 100
M  END
> <chiral flag>
0

> <version>
0

> <s_m_source_file>
/data/baiqing/PycharmProjects/Reinvent-master-3.2/result/LINK_invent/BTK/process_docking_weight1_custom_sum_contain_oxygen_bond_distance_aromatic_linkinvent_7_9_3/rearranged_h_0109.sdf

> <i_m_source_file_index>
43

> <r_mmod_Potential_Energy-OPLS-2005>
2380.1845703125

> <r_mmod_Stretch_Energy-OPLS-2005>
880.897705078125

> <r_mmod_Bend_Energy-OPLS-2005>
725.667175292969

> <r_mmod_Torsional_Energy-OPLS-2005>
369.000793457031

> <r_mmod_Improper_Torsional_Energy-OPLS-2005>
6.30347919464111

> <r_mmod_Van_der_Waal_Energy-OPLS-2005>
120.042747497559

> <r_mmod_Electrostatic_Energy-OPLS-2005>
-256.540496826172

> <r_mmod_Solvation_Energy-OPLS-2005>
-248.435836791992

> <b_mmod_Minimization_Converged-OPLS-2005>
0

> <r_mmod_RMS_Derivative-OPLS-2005>
3.44652557373047

$$$$
43
                    3D
 Structure written by MMmdl.
170178  0  0  1  0            999 V2000
  -30.7149  -14.5349   20.4794 C   0  0  0  0  0  0
  -30.4234  -12.3294   19.4338 C   0  0  0  0  0  0
  -29.4980  -12.4815   18.2084 C   0  0  0  0  0  0
  -28.0184  -12.3423   18.6227 C   0  0  0  0  0  0
  -27.6550  -13.2111   19.8583 C   0  0  2  0  0  0
  -28.7033  -13.0518   20.9793 C   0  0  0  0  0  0
  -25.2572  -13.8160   20.5669 C   0  0  0  0  0  0
  -24.1841  -13.0437   20.9202 C   0  0  0  0  0  0
  -24.6398  -11.6913   20.8755 C   0  0  0  0  0  0
  -23.9070  -10.4295   21.0424 C   0  0  0  0  0  0
  -24.3623   -9.4207   21.9197 C   0  0  0  0  0  0
  -23.6293   -8.2236   22.0757 C   0  0  0  0  0  0
  -22.4271   -8.0295   21.3552 C   0  0  0  0  0  0
  -21.9918   -9.0260   20.4645 C   0  0  0  0  0  0
  -22.7242  -10.2143   20.3064 C   0  0  0  0  0  0
  -21.6857   -6.0738   22.5276 C   0  0  0  0  0  0
  -21.4018   -6.5644   23.8209 C   0  0  0  0  0  0
  -21.3657   -5.6797   24.9175 C   0  0  0  0  0  0
  -21.6040   -4.3059   24.7229 C   0  0  0  0  0  0
  -21.8812   -3.8150   23.4350 C   0  0  0  0  0  0
  -21.9196   -4.6966   22.3406 C   0  0  0  0  0  0
  -22.7864  -13.5249   21.1854 C   0  0  0  0  0  0
  -22.1659   -4.2149   21.0982 F   0  0  0  0  0  0
  -21.5629   -3.4542   25.7741 F   0  0  0  0  0  0
  -30.0189  -13.3631   20.4006 N   0  0  0  0  0  0
  -26.3012  -12.9330   20.3327 N   0  0  0  0  0  0
  -25.9330  -11.6494   20.5777 N   0  0  0  0  0  0
  -22.0488  -12.8237   22.0404 N   0  0  0  0  0  0
  -25.4245  -15.1873   20.4029 N   0  0  0  0  0  0
  -31.9018  -14.6132   20.1704 O   0  0  0  0  0  0
  -21.6640   -6.8887   21.4241 O   0  0  0  0  0  0
  -22.3559  -14.5538   20.6690 O   0  0  0  0  0  0
  -24.6202  -31.8661   23.2110 C   0  0  0  0  0  0
  -25.9098  -32.4808   23.8376 C   0  0  1  0  0  0
  -27.2151  -27.3825   20.0810 C   0  0  0  0  0  0
  -25.5956  -33.8606   24.2327 N   0  0  0  0  0  0
  -23.4106  -30.4982   21.5531 C   0  0  2  0  0  0
  -24.8506  -28.9685   20.1122 C   0  0  0  0  0  0
  -22.7427  -29.4671   22.4940 C   0  0  0  0  0  0
  -18.0280  -28.1379   22.8497 C   0  0  0  0  0  0
  -24.1507  -36.7304   23.2632 C   0  0  0  0  0  0
  -25.9515  -30.8090   21.3794 C   0  0  0  0  0  0
  -26.0206  -29.4448   20.7177 C   0  0  0  0  0  0
  -27.2061  -28.6603   20.7019 C   0  0  0  0  0  0
  -26.0156  -26.9417   19.4682 C   0  0  0  0  0  0
  -24.8465  -27.7135   19.4895 C   0  0  0  0  0  0
  -23.6217  -29.8484   20.1612 C   0  0  0  0  0  0
  -25.4124  -36.3102   24.0328 C   0  0  1  0  0  0
  -20.5875  -28.3675   23.1300 C   0  0  2  0  0  0
  -20.6773  -26.9405   22.5411 C   0  0  0  0  0  0
  -19.5743  -26.6391   21.5213 C   0  0  0  0  0  0
  -18.1925  -26.7932   22.1632 C   0  0  0  0  0  0
  -19.1529  -28.8840   23.2902 C   0  0  0  0  0  0
  -18.9455  -30.1446   23.8918 C   0  0  0  0  0  0
  -17.6450  -30.6579   24.0569 C   0  0  0  0  0  0
  -25.9061  -34.9472   23.5127 C   0  0  0  0  0  0
  -16.5346  -29.9079   23.6315 C   0  0  0  0  0  0
  -16.7269  -28.6494   23.0350 C   0  0  0  0  0  0
  -26.4490  -31.6592   25.0721 C   0  0  0  0  0  0
  -25.3732  -31.3735   26.1457 C   0  0  0  0  0  0
  -27.0331  -30.3021   24.6166 C   0  0  0  0  0  0
  -27.6067  -32.4297   25.7501 C   0  0  0  0  0  0
  -27.5590  -37.1809   24.8460 C   0  0  0  0  0  0
  -21.4143  -29.3056   22.3700 N   0  0  0  0  0  0
  -26.4308  -37.3781   23.9406 N   0  0  0  0  0  0
  -24.6807  -31.0701   22.1062 N   0  0  0  0  0  0
  -23.4191  -28.8176   23.2966 O   0  0  0  0  0  0
  -28.3527  -26.5735   20.0941 O   0  0  0  0  0  0
  -26.5595  -34.8922   22.4676 O   0  0  0  0  0  0
  -23.5382  -32.1489   23.7439 O   0  0  0  0  0  0
  -29.7703  -19.5443   23.2982 C   0  0  0  0  0  0
  -30.1170  -20.3776   22.2322 C   0  0  0  0  0  0
  -29.3997  -18.2090   23.0485 C   0  0  0  0  0  0
  -30.0828  -19.8718   20.9276 C   0  0  0  0  0  0
  -29.4447  -17.7393   21.7057 C   0  0  0  0  0  0
  -28.0582  -18.0382   25.2186 C   0  0  0  0  0  0
  -30.2886  -16.8489   24.9622 C   0  0  0  0  0  0
  -29.6789  -22.0930   17.8264 C   0  0  0  0  0  0
  -29.1160  -16.2703   21.3590 C   0  0  0  0  0  0
  -30.4948  -20.8083   19.7808 C   0  0  0  0  0  0
  -29.2723  -24.1362   20.0502 C   0  0  0  0  0  0
  -28.7298  -22.6538   20.0717 C   0  0  0  0  0  0
  -28.1208  -25.1596   19.8372 C   0  0  0  0  0  0
  -29.0198  -17.3328   24.2465 C   0  0  0  0  0  0
  -29.7664  -18.5679   20.6666 N   0  0  0  0  0  0
  -30.0091  -15.6774   20.3725 N   0  0  0  0  0  0
  -29.3834  -21.6181   19.1989 N   0  3  1  0  0  0
  -31.4687  -12.4171   19.1294 H   0  0  0  0  0  0
  -30.3237  -11.3367   19.8757 H   0  0  0  0  0  0
  -29.7459  -11.7311   17.4560 H   0  0  0  0  0  0
  -29.6589  -13.4538   17.7387 H   0  0  0  0  0  0
  -27.8418  -11.2903   18.8514 H   0  0  0  0  0  0
  -27.3653  -12.5853   17.7835 H   0  0  0  0  0  0
  -27.6797  -14.2477   19.5229 H   0  0  0  0  0  0
  -28.7021  -12.0291   21.3587 H   0  0  0  0  0  0
  -28.4637  -13.6759   21.8378 H   0  0  0  0  0  0
  -25.2768   -9.5685   22.4772 H   0  0  0  0  0  0
  -24.0000   -7.4641   22.7482 H   0  0  0  0  0  0
  -21.0842   -8.8786   19.8965 H   0  0  0  0  0  0
  -22.3700  -10.9686   19.6176 H   0  0  0  0  0  0
  -21.2008   -7.6150   23.9716 H   0  0  0  0  0  0
  -21.1484   -6.0527   25.9076 H   0  0  0  0  0  0
  -22.0596   -2.7612   23.2849 H   0  0  0  0  0  0
  -22.4102  -11.9911   22.4801 H   0  0  0  0  0  0
  -21.1109  -13.1272   22.2581 H   0  0  0  0  0  0
  -24.6466  -15.8334   20.4876 H   0  0  0  0  0  0
  -26.2511  -15.6163   20.0077 H   0  0  0  0  0  0
  -26.7182  -32.5495   23.1123 H   0  0  0  0  0  0
  -25.0125  -33.9779   25.0491 H   0  0  0  0  0  0
  -22.7050  -31.3215   21.4199 H   0  0  0  0  0  0
  -23.3767  -35.9643   23.3297 H   0  0  0  0  0  0
  -24.3609  -36.8905   22.2051 H   0  0  0  0  0  0
  -23.7268  -37.6510   23.6639 H   0  0  0  0  0  0
  -26.0868  -31.5748   20.6140 H   0  0  0  0  0  0
  -26.8332  -30.8479   22.0096 H   0  0  0  0  0  0
  -28.1024  -29.0185   21.1919 H   0  0  0  0  0  0
  -25.9367  -25.9898   18.9660 H   0  0  0  0  0  0
  -23.9523  -27.3280   19.0176 H   0  0  0  0  0  0
  -23.7478  -30.6381   19.4189 H   0  0  0  0  0  0
  -22.7372  -29.2868   19.8483 H   0  0  0  0  0  0
  -25.1307  -36.1963   25.0818 H   0  0  0  0  0  0
  -21.0006  -28.3250   24.1397 H   0  0  0  0  0  0
  -20.5683  -26.2278   23.3604 H   0  0  0  0  0  0
  -21.6646  -26.7438   22.1197 H   0  0  0  0  0  0
  -19.6900  -25.6301   21.1231 H   0  0  0  0  0  0
  -19.6685  -27.3210   20.6758 H   0  0  0  0  0  0
  -17.4197  -26.6682   21.4033 H   0  0  0  0  0  0
  -18.0314  -26.0068   22.9031 H   0  0  0  0  0  0
  -19.7935  -30.7260   24.2303 H   0  0  0  0  0  0
  -17.5008  -31.6270   24.5163 H   0  0  0  0  0  0
  -15.5349  -30.2995   23.7631 H   0  0  0  0  0  0
  -15.8675  -28.0832   22.7050 H   0  0  0  0  0  0
  -24.5916  -30.7068   25.7792 H   0  0  0  0  0  0
  -24.8907  -32.2910   26.4845 H   0  0  0  0  0  0
  -25.8058  -30.8942   27.0260 H   0  0  0  0  0  0
  -26.2914  -29.6768   24.1187 H   0  0  0  0  0  0
  -27.4049  -29.7260   25.4650 H   0  0  0  0  0  0
  -27.8770  -30.4304   23.9387 H   0  0  0  0  0  0
  -27.2702  -33.3602   26.2097 H   0  0  0  0  0  0
  -28.3886  -32.6845   25.0331 H   0  0  0  0  0  0
  -28.0738  -31.8400   26.5405 H   0  0  0  0  0  0
  -28.2596  -38.0114   24.7507 H   0  0  0  0  0  0
  -28.1100  -36.2643   24.6298 H   0  0  0  0  0  0
  -27.2307  -37.1472   25.8860 H   0  0  0  0  0  0
  -20.9270  -29.8849   21.6999 H   0  0  0  0  0  0
  -26.0193  -38.2866   24.1375 H   0  0  0  0  0  0
  -29.8032  -19.9405   24.3027 H   0  0  0  0  0  0
  -30.4191  -21.3982   22.4302 H   0  0  0  0  0  0
  -27.1659  -18.3913   24.7001 H   0  0  0  0  0  0
  -28.5119  -18.8901   25.7245 H   0  0  0  0  0  0
  -27.7260  -17.3492   25.9963 H   0  0  0  0  0  0
  -30.9442  -16.3089   24.2788 H   0  0  0  0  0  0
  -30.0488  -16.1802   25.7889 H   0  0  0  0  0  0
  -30.8578  -17.6873   25.3671 H   0  0  0  0  0  0
  -29.8902  -21.2611   17.1518 H   0  0  0  0  0  0
  -30.5490  -22.7495   17.8126 H   0  0  0  0  0  0
  -28.8382  -22.6511   17.4100 H   0  0  0  0  0  0
  -29.1865  -15.6439   22.2400 H   0  0  0  0  0  0
  -28.0894  -16.2120   20.9945 H   0  0  0  0  0  0
  -30.9526  -20.1944   19.0037 H   0  0  0  0  0  0
  -31.2786  -21.4857   20.1247 H   0  0  0  0  0  0
  -29.7621  -24.3480   21.0014 H   0  0  0  0  0  0
  -30.0339  -24.3010   19.2916 H   0  0  0  0  0  0
  -27.6935  -22.6678   19.7358 H   0  0  0  0  0  0
  -28.6496  -22.3019   21.0987 H   0  0  0  0  0  0
  -27.8203  -25.0388   18.7973 H   0  0  0  0  0  0
  -27.2797  -24.8452   20.4596 H   0  0  0  0  0  0
  -28.4494  -16.4659   23.9256 H   0  0  0  0  0  0
  -30.5533  -16.4162   19.9501 H   0  0  0  0  0  0
  -28.6710  -20.9129   19.0751 H   0  0  0  0  0  0
  1 25  1  0  0  0
  1 30  2  0  0  0
  1 86  1  0  0  0
  2  3  1  0  0  0
  2 25  1  0  0  0
  2 88  1  0  0  0
  2 89  1  0  0  0
  3  4  1  0  0  0
  3 90  1  0  0  0
  3 91  1  0  0  0
  4  5  1  0  0  0
  4 92  1  0  0  0
  4 93  1  0  0  0
  5  6  1  0  0  0
  5 26  1  0  0  0
  5 94  1  0  0  0
  6 25  1  0  0  0
  6 95  1  0  0  0
  6 96  1  0  0  0
  7  8  2  0  0  0
  7 26  1  0  0  0
  7 29  1  0  0  0
  8  9  1  0  0  0
  8 22  1  0  0  0
  9 10  1  0  0  0
  9 27  2  0  0  0
 10 11  2  0  0  0
 10 15  1  0  0  0
 11 12  1  0  0  0
 11 97  1  0  0  0
 12 13  2  0  0  0
 12 98  1  0  0  0
 13 14  1  0  0  0
 13 31  1  0  0  0
 14 15  2  0  0  0
 14 99  1  0  0  0
 15100  1  0  0  0
 16 17  2  0  0  0
 16 21  1  0  0  0
 16 31  1  0  0  0
 17 18  1  0  0  0
 17101  1  0  0  0
 18 19  2  0  0  0
 18102  1  0  0  0
 19 20  1  0  0  0
 19 24  1  0  0  0
 20 21  2  0  0  0
 20103  1  0  0  0
 21 23  1  0  0  0
 22 28  1  0  0  0
 22 32  2  0  0  0
 26 27  1  0  0  0
 28104  1  0  0  0
 28105  1  0  0  0
 29106  1  0  0  0
 29107  1  0  0  0
 33 34  1  0  0  0
 33 66  1  0  0  0
 33 70  2  0  0  0
 34 36  1  0  0  0
 34 59  1  0  0  0
 34108  1  0  0  0
 35 44  2  0  0  0
 35 45  1  0  0  0
 35 68  1  0  0  0
 36 56  1  0  0  0
 36109  1  0  0  0
 37 39  1  0  0  0
 37 47  1  0  0  0
 37 66  1  0  0  0
 37110  1  0  0  0
 38 43  2  0  0  0
 38 46  1  0  0  0
 38 47  1  0  0  0
 39 64  1  0  0  0
 39 67  2  0  0  0
 40 52  1  0  0  0
 40 53  2  0  0  0
 40 58  1  0  0  0
 41111  1  0  0  0
 41112  1  0  0  0
 41113  1  0  0  0
 41 48  1  0  0  0
 42 43  1  0  0  0
 42 66  1  0  0  0
 42114  1  0  0  0
 42115  1  0  0  0
 43 44  1  0  0  0
 44116  1  0  0  0
 45 46  2  0  0  0
 45117  1  0  0  0
 46118  1  0  0  0
 47119  1  0  0  0
 47120  1  0  0  0
 48 56  1  0  0  0
 48 65  1  0  0  0
 48121  1  0  0  0
 49 50  1  0  0  0
 49 53  1  0  0  0
 49 64  1  0  0  0
 49122  1  0  0  0
 50 51  1  0  0  0
 50123  1  0  0  0
 50124  1  0  0  0
 51 52  1  0  0  0
 51125  1  0  0  0
 51126  1  0  0  0
 52127  1  0  0  0
 52128  1  0  0  0
 53 54  1  0  0  0
 54 55  2  0  0  0
 54129  1  0  0  0
 55 57  1  0  0  0
 55130  1  0  0  0
 56 69  2  0  0  0
 57 58  2  0  0  0
 57131  1  0  0  0
 58132  1  0  0  0
 59 60  1  0  0  0
 59 61  1  0  0  0
 59 62  1  0  0  0
 60133  1  0  0  0
 60134  1  0  0  0
 60135  1  0  0  0
 61136  1  0  0  0
 61137  1  0  0  0
 61138  1  0  0  0
 62139  1  0  0  0
 62140  1  0  0  0
 62141  1  0  0  0
 63 65  1  0  0  0
 63142  1  0  0  0
 63143  1  0  0  0
 63144  1  0  0  0
 64145  1  0  0  0
 65146  1  0  0  0
 68 83  1  0  0  0
 71 72  2  0  0  0
 71 73  1  0  0  0
 71147  1  0  0  0
 72 74  1  0  0  0
 72148  1  0  0  0
 73 75  2  0  0  0
 73 84  1  0  0  0
 74 80  1  0  0  0
 74 85  2  0  0  0
 75 79  1  0  0  0
 75 85  1  0  0  0
 76149  1  0  0  0
 76150  1  0  0  0
 76151  1  0  0  0
 76 84  1  0  0  0
 77 84  1  0  0  0
 77152  1  0  0  0
 77153  1  0  0  0
 77154  1  0  0  0
 78155  1  0  0  0
 78156  1  0  0  0
 78157  1  0  0  0
 78 87  1  0  0  0
 79 86  1  0  0  0
 79158  1  0  0  0
 79159  1  0  0  0
 80 87  1  0  0  0
 80160  1  0  0  0
 80161  1  0  0  0
 81 82  1  0  0  0
 81 83  1  0  0  0
 81162  1  0  0  0
 81163  1  0  0  0
 82 87  1  0  0  0
 82164  1  0  0  0
 82165  1  0  0  0
 83166  1  0  0  0
 83167  1  0  0  0
 84168  1  0  0  0
 86169  1  0  0  0
 87170  1  0  0  0
M  CHG  1  87   1
M  ISO  4   1 100  68 101  83 101  86 100
M  END
> <chiral flag>
0

> <version>
0

> <s_m_source_file>
/data/baiqing/PycharmProjects/Reinvent-master-3.2/result/LINK_invent/BTK/process_docking_weight1_custom_sum_contain_oxygen_bond_distance_aromatic_linkinvent_7_9_3/rearranged_h_0109.sdf

> <i_m_source_file_index>
44

> <r_mmod_Potential_Energy-OPLS-2005>
-377.668548583984

> <r_mmod_Stretch_Energy-OPLS-2005>
50.0994262695312

> <r_mmod_Bend_Energy-OPLS-2005>
139.773422241211

> <r_mmod_Torsional_Energy-OPLS-2005>
267.152465820312

> <r_mmod_Improper_Torsional_Energy-OPLS-2005>
21.2452812194824

> <r_mmod_Van_der_Waal_Energy-OPLS-2005>
165.916839599609

> <r_mmod_Electrostatic_Energy-OPLS-2005>
-599.906372070312

> <r_mmod_Solvation_Energy-OPLS-2005>
-451.952545166016

> <b_mmod_Minimization_Converged-OPLS-2005>
0

> <r_mmod_RMS_Derivative-OPLS-2005>
3.8691132068634

$$$$
44
                    3D
 Structure written by MMmdl.
173181  0  0  1  0            999 V2000
  -30.3368  -14.7599   20.3564 C   0  0  0  0  0  0
  -30.4001  -12.4188   19.4755 C   0  0  0  0  0  0
  -29.4756  -12.4302   18.2312 C   0  0  0  0  0  0
  -28.0003  -12.2536   18.6289 C   0  0  0  0  0  0
  -27.6078  -13.1529   19.8229 C   0  0  2  0  0  0
  -28.6282  -13.0341   20.9722 C   0  0  0  0  0  0
  -25.2427  -13.7910   20.5669 C   0  0  0  0  0  0
  -24.1644  -13.0213   20.9327 C   0  0  0  0  0  0
  -24.6194  -11.6770   20.8859 C   0  0  0  0  0  0
  -23.8935  -10.4161   21.0548 C   0  0  0  0  0  0
  -24.3609   -9.4075   21.9193 C   0  0  0  0  0  0
  -23.6254   -8.2128   22.0765 C   0  0  0  0  0  0
  -22.4216   -8.0231   21.3567 C   0  0  0  0  0  0
  -21.9864   -9.0204   20.4652 C   0  0  0  0  0  0
  -22.7235  -10.2053   20.3056 C   0  0  0  0  0  0
  -21.6831   -6.0754   22.5280 C   0  0  0  0  0  0
  -21.4026   -6.5662   23.8223 C   0  0  0  0  0  0
  -21.3632   -5.6808   24.9154 C   0  0  0  0  0  0
  -21.6029   -4.3074   24.7205 C   0  0  0  0  0  0
  -21.8821   -3.8178   23.4318 C   0  0  0  0  0  0
  -21.9196   -4.6993   22.3386 C   0  0  0  0  0  0
  -22.7727  -13.5110   21.1843 C   0  0  0  0  0  0
  -22.1674   -4.2209   21.0956 F   0  0  0  0  0  0
  -21.5606   -3.4518   25.7704 F   0  0  0  0  0  0
  -29.9097  -13.4540   20.4167 N   0  0  0  0  0  0
  -26.2663  -12.8911   20.3129 N   0  0  0  0  0  0
  -25.9066  -11.6197   20.5751 N   0  0  0  0  0  0
  -22.0447  -12.8132   22.0531 N   0  0  0  0  0  0
  -25.4238  -15.1455   20.3961 N   0  0  0  0  0  0
  -31.5248  -15.0062   20.1044 O   0  0  0  0  0  0
  -21.6587   -6.8869   21.4240 O   0  0  0  0  0  0
  -22.3550  -14.5414   20.6686 O   0  0  0  0  0  0
  -24.6283  -31.8561   23.2210 C   0  0  0  0  0  0
  -25.8976  -32.4862   23.8425 C   0  0  1  0  0  0
  -27.2703  -27.4784   20.0410 C   0  0  0  0  0  0
  -25.5570  -33.8657   24.2279 N   0  0  0  0  0  0
  -23.4229  -30.4996   21.5564 C   0  0  2  0  0  0
  -24.8585  -28.9693   20.1068 C   0  0  0  0  0  0
  -22.7486  -29.4618   22.4625 C   0  0  0  0  0  0
  -18.0558  -28.1103   22.8403 C   0  0  0  0  0  0
  -24.1383  -36.7399   23.2655 C   0  0  0  0  0  0
  -25.9538  -30.8608   21.3434 C   0  0  0  0  0  0
  -26.0325  -29.4830   20.7007 C   0  0  0  0  0  0
  -27.2384  -28.7351   20.6888 C   0  0  0  0  0  0
  -26.0744  -26.9786   19.4503 C   0  0  0  0  0  0
  -24.8599  -27.6783   19.5512 C   0  0  0  0  0  0
  -23.6464  -29.8871   20.1482 C   0  0  0  0  0  0
  -25.4090  -36.3281   24.0399 C   0  0  1  0  0  0
  -20.6144  -28.3709   23.1674 C   0  0  2  0  0  0
  -20.6668  -26.9317   22.5874 C   0  0  0  0  0  0
  -19.6388  -26.7246   21.4447 C   0  0  0  0  0  0
  -18.2301  -26.7905   22.0749 C   0  0  0  0  0  0
  -19.1809  -28.8707   23.2979 C   0  0  0  0  0  0
  -18.9431  -30.0927   23.9669 C   0  0  0  0  0  0
  -17.6352  -30.5709   24.1296 C   0  0  0  0  0  0
  -25.9195  -34.9541   23.5282 C   0  0  0  0  0  0
  -16.5315  -29.8050   23.7141 C   0  0  0  0  0  0
  -16.7478  -28.5964   23.0453 C   0  0  0  0  0  0
  -26.4563  -31.6663   25.0774 C   0  0  0  0  0  0
  -25.3629  -31.3589   26.1341 C   0  0  0  0  0  0
  -27.0280  -30.3022   24.6190 C   0  0  0  0  0  0
  -27.6355  -32.4180   25.7510 C   0  0  0  0  0  0
  -27.5538  -37.1852   24.8427 C   0  0  0  0  0  0
  -21.4187  -29.3125   22.3663 N   0  0  0  0  0  0
  -26.4271  -37.3900   23.9449 N   0  0  0  0  0  0
  -24.6834  -31.0936   22.1036 N   0  0  0  0  0  0
  -23.4309  -28.8300   23.2647 O   0  0  0  0  0  0
  -28.4760  -26.7954   20.0289 O   0  0  0  0  0  0
  -26.5786  -34.9035   22.4911 O   0  0  0  0  0  0
  -23.5357  -32.1230   23.7654 O   0  0  0  0  0  0
  -27.4148  -21.8492   18.0578 C   0  0  0  0  0  0
  -26.0834  -22.7752   16.4959 C   0  0  0  0  0  0
  -27.3267  -22.8769   17.0552 C   0  0  0  0  0  0
  -26.2415  -21.0937   18.0398 C   0  0  0  0  0  0
  -22.7693  -21.3252   16.9571 C   0  0  0  0  0  0
  -23.5066  -23.6583   16.8574 C   0  0  0  0  0  0
  -23.7232  -22.4605   19.0140 C   0  0  0  0  0  0
  -26.0076  -19.7622   18.8125 C   0  0  0  0  0  0
  -29.2953  -25.6187   18.0035 C   0  0  0  0  0  0
  -29.0224  -17.0748   19.7765 C   0  0  0  0  0  0
  -27.5130  -17.7101   19.7112 C   0  0  0  0  0  0
  -28.6632  -25.5239   19.3889 C   0  0  0  0  0  0
  -29.3810  -24.2030   17.3792 C   0  0  0  0  0  0
  -23.8717  -22.2890   17.5113 C   0  0  0  0  0  0
  -25.3286  -21.9574   17.3252 N   0  0  0  0  0  0
  -29.2742  -15.6709   20.3303 N   0  0  0  0  0  0
  -27.3200  -18.9772   18.8978 N   0  3  0  0  0  0
  -28.2387  -23.8179   16.5991 O   0  0  0  0  0  0
  -31.4416  -12.5869   19.1978 H   0  0  0  0  0  0
  -30.3692  -11.4444   19.9643 H   0  0  0  0  0  0
  -29.7626  -11.6428   17.5373 H   0  0  0  0  0  0
  -29.5815  -13.3663   17.6873 H   0  0  0  0  0  0
  -27.8360  -11.2073   18.8881 H   0  0  0  0  0  0
  -27.3411  -12.4306   17.7847 H   0  0  0  0  0  0
  -27.5812  -14.1553   19.4115 H   0  0  0  0  0  0
  -28.6697  -12.0096   21.3524 H   0  0  0  0  0  0
  -28.3321  -13.6608   21.8124 H   0  0  0  0  0  0
  -25.2771   -9.5519   22.4738 H   0  0  0  0  0  0
  -23.9993   -7.4490   22.7430 H   0  0  0  0  0  0
  -21.0830   -8.8713   19.8941 H   0  0  0  0  0  0
  -22.3721  -10.9598   19.6154 H   0  0  0  0  0  0
  -21.2072   -7.6171   23.9742 H   0  0  0  0  0  0
  -21.1424   -6.0522   25.9066 H   0  0  0  0  0  0
  -22.0639   -2.7635   23.2761 H   0  0  0  0  0  0
  -22.4230  -11.9806   22.4784 H   0  0  0  0  0  0
  -21.1086  -13.1138   22.2821 H   0  0  0  0  0  0
  -24.5428  -15.6422   20.4106 H   0  0  0  0  0  0
  -25.9170  -15.3273   19.5297 H   0  0  0  0  0  0
  -26.6888  -32.5542   23.0968 H   0  0  0  0  0  0
  -24.9003  -33.9756   24.9905 H   0  0  0  0  0  0
  -22.7017  -31.3129   21.4511 H   0  0  0  0  0  0
  -23.3683  -35.9620   23.3420 H   0  0  0  0  0  0
  -24.3388  -36.9064   22.2002 H   0  0  0  0  0  0
  -23.7047  -37.6603   23.6723 H   0  0  0  0  0  0
  -26.0288  -31.6996   20.6377 H   0  0  0  0  0  0
  -26.8425  -30.9162   21.9570 H   0  0  0  0  0  0
  -28.1785  -29.0736   21.1472 H   0  0  0  0  0  0
  -26.0304  -26.0314   18.9245 H   0  0  0  0  0  0
  -23.9512  -27.2035   19.1678 H   0  0  0  0  0  0
  -23.8399  -30.7443   19.5000 H   0  0  0  0  0  0
  -22.7489  -29.4518   19.6983 H   0  0  0  0  0  0
  -25.1230  -36.2291   25.0864 H   0  0  0  0  0  0
  -21.0427  -28.2813   24.1763 H   0  0  0  0  0  0
  -20.3806  -26.2621   23.3978 H   0  0  0  0  0  0
  -21.6895  -26.5800   22.3683 H   0  0  0  0  0  0
  -19.8329  -25.8031   20.8816 H   0  0  0  0  0  0
  -19.7352  -27.5857   20.7582 H   0  0  0  0  0  0
  -17.5545  -26.8456   21.2264 H   0  0  0  0  0  0
  -17.9536  -25.8985   22.6589 H   0  0  0  0  0  0
  -19.8073  -30.6238   24.3647 H   0  0  0  0  0  0
  -17.5003  -31.5359   24.6156 H   0  0  0  0  0  0
  -15.5173  -30.1569   23.8819 H   0  0  0  0  0  0
  -15.9155  -28.0610   22.6368 H   0  0  0  0  0  0
  -24.6019  -30.6955   25.7225 H   0  0  0  0  0  0
  -24.8610  -32.2661   26.4641 H   0  0  0  0  0  0
  -25.7656  -30.8544   27.0102 H   0  0  0  0  0  0
  -26.2744  -29.6860   24.1303 H   0  0  0  0  0  0
  -27.3825  -29.7366   25.4788 H   0  0  0  0  0  0
  -27.8671  -30.4219   23.9355 H   0  0  0  0  0  0
  -27.3313  -33.3430   26.2266 H   0  0  0  0  0  0
  -28.4081  -32.6707   25.0283 H   0  0  0  0  0  0
  -28.0969  -31.8053   26.5234 H   0  0  0  0  0  0
  -28.2738  -37.9987   24.7602 H   0  0  0  0  0  0
  -28.0954  -36.2659   24.6246 H   0  0  0  0  0  0
  -27.2237  -37.1358   25.8786 H   0  0  0  0  0  0
  -20.8780  -29.9016   21.7649 H   0  0  0  0  0  0
  -26.0318  -38.3040   24.1398 H   0  0  0  0  0  0
  -28.2796  -21.6588   18.6814 H   0  0  0  0  0  0
  -25.6658  -23.4193   15.7242 H   0  0  0  0  0  0
  -21.8438  -21.8543   16.7873 H   0  0  0  0  0  0
  -22.4818  -20.5286   17.6640 H   0  0  0  0  0  0
  -22.9515  -20.9088   15.9693 H   0  0  0  0  0  0
  -23.3253  -23.5707   15.7748 H   0  0  0  0  0  0
  -24.1887  -24.4848   16.9920 H   0  0  0  0  0  0
  -22.5752  -24.0533   17.2847 H   0  0  0  0  0  0
  -22.8295  -23.0044   19.2377 H   0  0  0  0  0  0
  -24.5387  -23.0728   19.3860 H   0  0  0  0  0  0
  -23.6951  -21.5042   19.5156 H   0  0  0  0  0  0
  -25.2283  -19.1836   18.3071 H   0  0  0  0  0  0
  -25.5885  -19.9696   19.8076 H   0  0  0  0  0  0
  -30.3110  -26.0276   18.0824 H   0  0  0  0  0  0
  -28.7220  -26.3091   17.3796 H   0  0  0  0  0  0
  -29.4240  -17.0872   18.7622 H   0  0  0  0  0  0
  -29.6113  -17.7851   20.3420 H   0  0  0  0  0  0
  -27.1175  -17.8735   20.7210 H   0  0  0  0  0  0
  -26.8349  -17.0160   19.2242 H   0  0  0  0  0  0
  -29.3690  -24.9411   20.0041 H   0  0  0  0  0  0
  -27.7533  -24.9289   19.3442 H   0  0  0  0  0  0
  -29.6249  -23.4440   18.1173 H   0  0  0  0  0  0
  -30.2327  -24.1988   16.6922 H   0  0  0  0  0  0
  -28.4311  -15.2030   20.6066 H   0  0  0  0  0  0
  -27.9976  -19.6482   19.1977 H   0  0  0  0  0  0
  -27.5182  -18.7341   17.9421 H   0  0  0  0  0  0
  1 25  1  0  0  0
  1 30  2  0  0  0
  1 86  1  0  0  0
  2  3  1  0  0  0
  2 25  1  0  0  0
  2 89  1  0  0  0
  2 90  1  0  0  0
  3  4  1  0  0  0
  3 91  1  0  0  0
  3 92  1  0  0  0
  4  5  1  0  0  0
  4 93  1  0  0  0
  4 94  1  0  0  0
  5  6  1  0  0  0
  5 26  1  0  0  0
  5 95  1  0  0  0
  6 25  1  0  0  0
  6 96  1  0  0  0
  6 97  1  0  0  0
  7  8  2  0  0  0
  7 26  1  0  0  0
  7 29  1  0  0  0
  8  9  1  0  0  0
  8 22  1  0  0  0
  9 10  1  0  0  0
  9 27  2  0  0  0
 10 11  2  0  0  0
 10 15  1  0  0  0
 11 12  1  0  0  0
 11 98  1  0  0  0
 12 13  2  0  0  0
 12 99  1  0  0  0
 13 14  1  0  0  0
 13 31  1  0  0  0
 14 15  2  0  0  0
 14100  1  0  0  0
 15101  1  0  0  0
 16 17  2  0  0  0
 16 21  1  0  0  0
 16 31  1  0  0  0
 17 18  1  0  0  0
 17102  1  0  0  0
 18 19  2  0  0  0
 18103  1  0  0  0
 19 20  1  0  0  0
 19 24  1  0  0  0
 20 21  2  0  0  0
 20104  1  0  0  0
 21 23  1  0  0  0
 22 28  1  0  0  0
 22 32  2  0  0  0
 26 27  1  0  0  0
 28105  1  0  0  0
 28106  1  0  0  0
 29107  1  0  0  0
 29108  1  0  0  0
 33 34  1  0  0  0
 33 66  1  0  0  0
 33 70  2  0  0  0
 34 36  1  0  0  0
 34 59  1  0  0  0
 34109  1  0  0  0
 35 44  2  0  0  0
 35 45  1  0  0  0
 35 68  1  0  0  0
 36 56  1  0  0  0
 36110  1  0  0  0
 37 39  1  0  0  0
 37 47  1  0  0  0
 37 66  1  0  0  0
 37111  1  0  0  0
 38 43  2  0  0  0
 38 46  1  0  0  0
 38 47  1  0  0  0
 39 64  1  0  0  0
 39 67  2  0  0  0
 40 52  1  0  0  0
 40 53  2  0  0  0
 40 58  1  0  0  0
 41112  1  0  0  0
 41113  1  0  0  0
 41114  1  0  0  0
 41 48  1  0  0  0
 42 43  1  0  0  0
 42 66  1  0  0  0
 42115  1  0  0  0
 42116  1  0  0  0
 43 44  1  0  0  0
 44117  1  0  0  0
 45 46  2  0  0  0
 45118  1  0  0  0
 46119  1  0  0  0
 47120  1  0  0  0
 47121  1  0  0  0
 48 56  1  0  0  0
 48 65  1  0  0  0
 48122  1  0  0  0
 49 50  1  0  0  0
 49 53  1  0  0  0
 49 64  1  0  0  0
 49123  1  0  0  0
 50 51  1  0  0  0
 50124  1  0  0  0
 50125  1  0  0  0
 51 52  1  0  0  0
 51126  1  0  0  0
 51127  1  0  0  0
 52128  1  0  0  0
 52129  1  0  0  0
 53 54  1  0  0  0
 54 55  2  0  0  0
 54130  1  0  0  0
 55 57  1  0  0  0
 55131  1  0  0  0
 56 69  2  0  0  0
 57 58  2  0  0  0
 57132  1  0  0  0
 58133  1  0  0  0
 59 60  1  0  0  0
 59 61  1  0  0  0
 59 62  1  0  0  0
 60134  1  0  0  0
 60135  1  0  0  0
 60136  1  0  0  0
 61137  1  0  0  0
 61138  1  0  0  0
 61139  1  0  0  0
 62140  1  0  0  0
 62141  1  0  0  0
 62142  1  0  0  0
 63 65  1  0  0  0
 63143  1  0  0  0
 63144  1  0  0  0
 63145  1  0  0  0
 64146  1  0  0  0
 65147  1  0  0  0
 68 82  1  0  0  0
 71 73  1  0  0  0
 71 74  2  0  0  0
 71148  1  0  0  0
 72 73  2  0  0  0
 72 85  1  0  0  0
 72149  1  0  0  0
 73 88  1  0  0  0
 74 78  1  0  0  0
 74 85  1  0  0  0
 75150  1  0  0  0
 75151  1  0  0  0
 75152  1  0  0  0
 75 84  1  0  0  0
 76 84  1  0  0  0
 76153  1  0  0  0
 76154  1  0  0  0
 76155  1  0  0  0
 77 84  1  0  0  0
 77156  1  0  0  0
 77157  1  0  0  0
 77158  1  0  0  0
 78 87  1  0  0  0
 78159  1  0  0  0
 78160  1  0  0  0
 79 82  1  0  0  0
 79 83  1  0  0  0
 79161  1  0  0  0
 79162  1  0  0  0
 80 81  1  0  0  0
 80 86  1  0  0  0
 80163  1  0  0  0
 80164  1  0  0  0
 81 87  1  0  0  0
 81165  1  0  0  0
 81166  1  0  0  0
 82167  1  0  0  0
 82168  1  0  0  0
 83 88  1  0  0  0
 83169  1  0  0  0
 83170  1  0  0  0
 84 85  1  0  0  0
 86171  1  0  0  0
 87172  1  0  0  0
 87173  1  0  0  0
M  CHG  1  87   1
M  ISO  4   1 100  68 101  82 101  86 100
M  END
> <chiral flag>
0

> <version>
0

> <s_m_source_file>
/data/baiqing/PycharmProjects/Reinvent-master-3.2/result/LINK_invent/BTK/process_docking_weight1_custom_sum_contain_oxygen_bond_distance_aromatic_linkinvent_7_9_3/rearranged_h_0109.sdf

> <i_m_source_file_index>
45

> <r_mmod_Potential_Energy-OPLS-2005>
65.4151306152344

> <r_mmod_Stretch_Energy-OPLS-2005>
110.818992614746

> <r_mmod_Bend_Energy-OPLS-2005>
255.697525024414

> <r_mmod_Torsional_Energy-OPLS-2005>
342.583801269531

> <r_mmod_Improper_Torsional_Energy-OPLS-2005>
18.8626079559326

> <r_mmod_Van_der_Waal_Energy-OPLS-2005>
142.709365844727

> <r_mmod_Electrostatic_Energy-OPLS-2005>
-415.693054199219

> <r_mmod_Solvation_Energy-OPLS-2005>
-488.573638916016

> <b_mmod_Minimization_Converged-OPLS-2005>
0

> <r_mmod_RMS_Derivative-OPLS-2005>
43.6717185974121

$$$$
45
                    3D
 Structure written by MMmdl.
160168  0  0  1  0            999 V2000
  -30.4993  -15.0126   20.4144 C   0  0  0  0  0  0
  -30.4483  -12.6234   19.5171 C   0  0  0  0  0  0
  -29.5366  -12.5395   18.2707 C   0  0  0  0  0  0
  -28.0714  -12.2992   18.6848 C   0  0  0  0  0  0
  -27.6283  -13.2409   19.8341 C   0  0  2  0  0  0
  -28.6656  -13.2948   20.9753 C   0  0  0  0  0  0
  -25.2456  -13.8154   20.5670 C   0  0  0  0  0  0
  -24.1759  -13.0405   20.9230 C   0  0  0  0  0  0
  -24.6377  -11.6884   20.8783 C   0  0  0  0  0  0
  -23.9073  -10.4258   21.0425 C   0  0  0  0  0  0
  -24.3614   -9.4154   21.9201 C   0  0  0  0  0  0
  -23.6244   -8.2200   22.0769 C   0  0  0  0  0  0
  -22.4221   -8.0281   21.3529 C   0  0  0  0  0  0
  -21.9892   -9.0283   20.4621 C   0  0  0  0  0  0
  -22.7263  -10.2137   20.3042 C   0  0  0  0  0  0
  -21.6808   -6.0723   22.5281 C   0  0  0  0  0  0
  -21.4007   -6.5616   23.8232 C   0  0  0  0  0  0
  -21.3680   -5.6758   24.9183 C   0  0  0  0  0  0
  -21.6043   -4.3022   24.7207 C   0  0  0  0  0  0
  -21.8801   -3.8124   23.4321 C   0  0  0  0  0  0
  -21.9169   -4.6950   22.3390 C   0  0  0  0  0  0
  -22.7790  -13.5229   21.1864 C   0  0  0  0  0  0
  -22.1636   -4.2153   21.0954 F   0  0  0  0  0  0
  -21.5649   -3.4509   25.7716 F   0  0  0  0  0  0
  -29.9375  -13.7299   20.3800 N   0  0  0  0  0  0
  -26.2868  -12.9377   20.3190 N   0  0  0  0  0  0
  -25.9287  -11.6515   20.5692 N   0  0  0  0  0  0
  -22.0365  -12.8303   22.0415 N   0  0  0  0  0  0
  -25.4099  -15.1869   20.4034 N   0  0  0  0  0  0
  -31.7058  -15.0889   20.1474 O   0  0  0  0  0  0
  -21.6564   -6.8880   21.4245 O   0  0  0  0  0  0
  -22.3542  -14.5563   20.6708 O   0  0  0  0  0  0
  -24.6474  -31.8417   23.1845 C   0  0  0  0  0  0
  -25.9245  -32.4682   23.8225 C   0  0  1  0  0  0
  -27.2112  -27.0888   20.1585 C   0  0  0  0  0  0
  -25.5978  -33.8477   24.2176 N   0  0  0  0  0  0
  -23.4537  -30.4611   21.5285 C   0  0  2  0  0  0
  -24.9064  -28.8845   20.1070 C   0  0  0  0  0  0
  -22.7588  -29.4540   22.4807 C   0  0  0  0  0  0
  -18.0317  -28.1366   22.8473 C   0  0  0  0  0  0
  -24.1501  -36.7249   23.2640 C   0  0  0  0  0  0
  -26.0145  -30.7027   21.3922 C   0  0  0  0  0  0
  -26.0843  -29.3093   20.7333 C   0  0  0  0  0  0
  -27.2378  -28.4289   20.7389 C   0  0  0  0  0  0
  -26.0094  -26.7873   19.4801 C   0  0  0  0  0  0
  -24.8871  -27.6412   19.4598 C   0  0  0  0  0  0
  -23.6846  -29.7918   20.1480 C   0  0  0  0  0  0
  -25.4130  -36.3027   24.0321 C   0  0  1  0  0  0
  -20.5938  -28.3718   23.1227 C   0  0  2  0  0  0
  -20.6799  -26.9409   22.5409 C   0  0  0  0  0  0
  -19.5790  -26.6375   21.5205 C   0  0  0  0  0  0
  -18.1973  -26.7907   22.1618 C   0  0  0  0  0  0
  -19.1573  -28.8855   23.2849 C   0  0  0  0  0  0
  -18.9493  -30.1446   23.8880 C   0  0  0  0  0  0
  -17.6493  -30.6577   24.0548 C   0  0  0  0  0  0
  -25.9078  -34.9409   23.5057 C   0  0  0  0  0  0
  -16.5382  -29.9069   23.6321 C   0  0  0  0  0  0
  -16.7308  -28.6482   23.0353 C   0  0  0  0  0  0
  -26.4551  -31.6531   25.0671 C   0  0  0  0  0  0
  -25.3716  -31.3730   26.1352 C   0  0  0  0  0  0
  -27.0435  -30.2909   24.6310 C   0  0  0  0  0  0
  -27.6082  -32.4279   25.7457 C   0  0  0  0  0  0
  -27.5585  -37.1779   24.8465 C   0  0  0  0  0  0
  -21.4267  -29.3070   22.3591 N   0  0  0  0  0  0
  -26.4297  -37.3735   23.9412 N   0  0  0  0  0  0
  -24.7249  -31.0240   22.0898 N   0  0  0  0  0  0
  -23.4225  -28.8077   23.2951 O   0  0  0  0  0  0
  -28.2523  -26.0723   20.2006 O   0  0  0  0  0  0
  -26.5647  -34.8909   22.4638 O   0  0  0  0  0  0
  -23.5576  -32.1325   23.7038 O   0  0  0  0  0  0
  -31.0165  -18.4748   20.2839 C   0  0  0  0  0  0
  -29.8160  -17.7192   20.4534 C   0  0  0  0  0  0
  -30.7561  -19.8453   20.3470 C   0  0  0  0  0  0
  -28.8423  -18.7563   20.5429 C   0  0  0  0  0  0
  -31.7756  -20.9335   20.3895 C   0  0  0  0  0  0
  -27.3787  -18.5839   20.7741 C   0  0  0  0  0  0
  -28.6068  -21.5438   20.6284 C   0  0  0  0  0  0
  -29.3194  -23.1577   18.5799 C   0  0  0  0  0  0
  -27.9535  -24.5214   20.3419 C   0  0  0  0  0  0
  -28.9536  -23.1446   20.0822 C   0  0  1  0  0  0
  -29.3748  -20.1233   20.4431 N   0  0  0  0  0  0
  -29.6697  -16.1737   20.5516 N   0  0  0  0  0  0
  -28.3496  -22.4493   17.7205 N   0  3  0  0  0  0
  -31.4838  -12.7888   19.2158 H   0  0  0  0  0  0
  -30.4478  -11.6807   20.0676 H   0  0  0  0  0  0
  -29.8771  -11.7456   17.6054 H   0  0  0  0  0  0
  -29.6071  -13.4664   17.7012 H   0  0  0  0  0  0
  -27.9827  -11.2600   19.0085 H   0  0  0  0  0  0
  -27.4120  -12.4090   17.8244 H   0  0  0  0  0  0
  -27.5824  -14.2324   19.3868 H   0  0  0  0  0  0
  -28.7615  -12.3203   21.4588 H   0  0  0  0  0  0
  -28.3481  -13.9938   21.7504 H   0  0  0  0  0  0
  -25.2761   -9.5580   22.4785 H   0  0  0  0  0  0
  -23.9916   -7.4561   22.7484 H   0  0  0  0  0  0
  -21.0834   -8.8826   19.8898 H   0  0  0  0  0  0
  -22.3768  -10.9695   19.6134 H   0  0  0  0  0  0
  -21.2000   -7.6117   23.9751 H   0  0  0  0  0  0
  -21.1536   -6.0468   25.9101 H   0  0  0  0  0  0
  -22.0553   -2.7583   23.2807 H   0  0  0  0  0  0
  -22.3960  -12.0023   22.4927 H   0  0  0  0  0  0
  -21.0972  -13.1382   22.2495 H   0  0  0  0  0  0
  -24.6130  -15.8116   20.4541 H   0  0  0  0  0  0
  -26.2170  -15.6102   19.9665 H   0  0  0  0  0  0
  -26.7310  -32.5291   23.0934 H   0  0  0  0  0  0
  -25.0093  -33.9558   25.0299 H   0  0  0  0  0  0
  -22.7593  -31.2897   21.3720 H   0  0  0  0  0  0
  -23.3767  -35.9574   23.3271 H   0  0  0  0  0  0
  -24.3584  -36.8907   22.2062 H   0  0  0  0  0  0
  -23.7250  -37.6435   23.6688 H   0  0  0  0  0  0
  -26.1749  -31.4591   20.6233 H   0  0  0  0  0  0
  -26.8808  -30.7523   22.0399 H   0  0  0  0  0  0
  -28.1348  -28.7517   21.2462 H   0  0  0  0  0  0
  -25.8997  -25.8508   18.9565 H   0  0  0  0  0  0
  -23.9967  -27.3198   18.9382 H   0  0  0  0  0  0
  -23.8226  -30.5679   19.3933 H   0  0  0  0  0  0
  -22.7990  -29.2356   19.8349 H   0  0  0  0  0  0
  -25.1313  -36.1848   25.0806 H   0  0  0  0  0  0
  -21.0032  -28.3331   24.1359 H   0  0  0  0  0  0
  -20.5684  -26.2319   23.3629 H   0  0  0  0  0  0
  -21.6679  -26.7414   22.1237 H   0  0  0  0  0  0
  -19.6986  -25.6299   21.1220 H   0  0  0  0  0  0
  -19.6731  -27.3201   20.6749 H   0  0  0  0  0  0
  -17.4243  -26.6636   21.4028 H   0  0  0  0  0  0
  -18.0377  -26.0039   22.9002 H   0  0  0  0  0  0
  -19.7970  -30.7256   24.2246 H   0  0  0  0  0  0
  -17.5055  -31.6261   24.5139 H   0  0  0  0  0  0
  -15.5380  -30.2977   23.7647 H   0  0  0  0  0  0
  -15.8703  -28.0798   22.7081 H   0  0  0  0  0  0
  -24.5924  -30.7052   25.7647 H   0  0  0  0  0  0
  -24.8876  -32.2915   26.4674 H   0  0  0  0  0  0
  -25.7990  -30.8961   27.0180 H   0  0  0  0  0  0
  -26.3086  -29.6570   24.1342 H   0  0  0  0  0  0
  -27.4030  -29.7272   25.4926 H   0  0  0  0  0  0
  -27.8991  -30.4083   23.9658 H   0  0  0  0  0  0
  -27.2701  -33.3613   26.1950 H   0  0  0  0  0  0
  -28.3941  -32.6758   25.0316 H   0  0  0  0  0  0
  -28.0684  -31.8439   26.5432 H   0  0  0  0  0  0
  -28.2581  -38.0089   24.7509 H   0  0  0  0  0  0
  -28.1104  -36.2623   24.6298 H   0  0  0  0  0  0
  -27.2294  -37.1426   25.8859 H   0  0  0  0  0  0
  -20.9457  -29.8842   21.6823 H   0  0  0  0  0  0
  -26.0171  -38.2807   24.1383 H   0  0  0  0  0  0
  -32.0093  -18.0546   20.1833 H   0  0  0  0  0  0
  -32.7743  -20.5108   20.5323 H   0  0  0  0  0  0
  -31.5901  -21.6125   21.2221 H   0  0  0  0  0  0
  -31.8003  -21.5049   19.4657 H   0  0  0  0  0  0
  -27.1481  -17.5728   21.1073 H   0  0  0  0  0  0
  -26.8189  -18.7717   19.8584 H   0  0  0  0  0  0
  -27.0249  -19.2688   21.5453 H   0  0  0  0  0  0
  -27.5932  -21.3546   20.2751 H   0  0  0  0  0  0
  -28.4768  -21.6435   21.7060 H   0  0  0  0  0  0
  -30.3075  -22.7349   18.4112 H   0  0  0  0  0  0
  -29.3857  -24.1919   18.2345 H   0  0  0  0  0  0
  -27.5726  -24.4214   21.3569 H   0  0  0  0  0  0
  -27.0805  -24.3129   19.7276 H   0  0  0  0  0  0
  -29.8732  -23.4107   20.6034 H   0  0  0  0  0  0
  -28.7208  -15.8825   20.7298 H   0  0  0  0  0  0
  -28.2778  -21.4802   17.9757 H   0  0  0  0  0  0
  -28.6574  -22.4843   16.7641 H   0  0  0  0  0  0
  -27.4394  -22.8706   17.7599 H   0  0  0  0  0  0
  1 25  1  0  0  0
  1 30  2  0  0  0
  1 82  1  0  0  0
  2  3  1  0  0  0
  2 25  1  0  0  0
  2 84  1  0  0  0
  2 85  1  0  0  0
  3  4  1  0  0  0
  3 86  1  0  0  0
  3 87  1  0  0  0
  4  5  1  0  0  0
  4 88  1  0  0  0
  4 89  1  0  0  0
  5  6  1  0  0  0
  5 26  1  0  0  0
  5 90  1  0  0  0
  6 25  1  0  0  0
  6 91  1  0  0  0
  6 92  1  0  0  0
  7  8  2  0  0  0
  7 26  1  0  0  0
  7 29  1  0  0  0
  8  9  1  0  0  0
  8 22  1  0  0  0
  9 10  1  0  0  0
  9 27  2  0  0  0
 10 11  2  0  0  0
 10 15  1  0  0  0
 11 12  1  0  0  0
 11 93  1  0  0  0
 12 13  2  0  0  0
 12 94  1  0  0  0
 13 14  1  0  0  0
 13 31  1  0  0  0
 14 15  2  0  0  0
 14 95  1  0  0  0
 15 96  1  0  0  0
 16 17  2  0  0  0
 16 21  1  0  0  0
 16 31  1  0  0  0
 17 18  1  0  0  0
 17 97  1  0  0  0
 18 19  2  0  0  0
 18 98  1  0  0  0
 19 20  1  0  0  0
 19 24  1  0  0  0
 20 21  2  0  0  0
 20 99  1  0  0  0
 21 23  1  0  0  0
 22 28  1  0  0  0
 22 32  2  0  0  0
 26 27  1  0  0  0
 28100  1  0  0  0
 28101  1  0  0  0
 29102  1  0  0  0
 29103  1  0  0  0
 33 34  1  0  0  0
 33 66  1  0  0  0
 33 70  2  0  0  0
 34 36  1  0  0  0
 34 59  1  0  0  0
 34104  1  0  0  0
 35 44  2  0  0  0
 35 45  1  0  0  0
 35 68  1  0  0  0
 36 56  1  0  0  0
 36105  1  0  0  0
 37 39  1  0  0  0
 37 47  1  0  0  0
 37 66  1  0  0  0
 37106  1  0  0  0
 38 43  2  0  0  0
 38 46  1  0  0  0
 38 47  1  0  0  0
 39 64  1  0  0  0
 39 67  2  0  0  0
 40 52  1  0  0  0
 40 53  2  0  0  0
 40 58  1  0  0  0
 41107  1  0  0  0
 41108  1  0  0  0
 41109  1  0  0  0
 41 48  1  0  0  0
 42 43  1  0  0  0
 42 66  1  0  0  0
 42110  1  0  0  0
 42111  1  0  0  0
 43 44  1  0  0  0
 44112  1  0  0  0
 45 46  2  0  0  0
 45113  1  0  0  0
 46114  1  0  0  0
 47115  1  0  0  0
 47116  1  0  0  0
 48 56  1  0  0  0
 48 65  1  0  0  0
 48117  1  0  0  0
 49 50  1  0  0  0
 49 53  1  0  0  0
 49 64  1  0  0  0
 49118  1  0  0  0
 50 51  1  0  0  0
 50119  1  0  0  0
 50120  1  0  0  0
 51 52  1  0  0  0
 51121  1  0  0  0
 51122  1  0  0  0
 52123  1  0  0  0
 52124  1  0  0  0
 53 54  1  0  0  0
 54 55  2  0  0  0
 54125  1  0  0  0
 55 57  1  0  0  0
 55126  1  0  0  0
 56 69  2  0  0  0
 57 58  2  0  0  0
 57127  1  0  0  0
 58128  1  0  0  0
 59 60  1  0  0  0
 59 61  1  0  0  0
 59 62  1  0  0  0
 60129  1  0  0  0
 60130  1  0  0  0
 60131  1  0  0  0
 61132  1  0  0  0
 61133  1  0  0  0
 61134  1  0  0  0
 62135  1  0  0  0
 62136  1  0  0  0
 62137  1  0  0  0
 63 65  1  0  0  0
 63138  1  0  0  0
 63139  1  0  0  0
 63140  1  0  0  0
 64141  1  0  0  0
 65142  1  0  0  0
 68 79  1  0  0  0
 71 72  1  0  0  0
 71 73  2  0  0  0
 71143  1  0  0  0
 72 74  2  0  0  0
 72 82  1  0  0  0
 73 75  1  0  0  0
 73 81  1  0  0  0
 74 76  1  0  0  0
 74 81  1  0  0  0
 75144  1  0  0  0
 75145  1  0  0  0
 75146  1  0  0  0
 76147  1  0  0  0
 76148  1  0  0  0
 76149  1  0  0  0
 77 81  1  0  0  0
 77150  1  0  0  0
 77151  1  0  0  0
 77 80  1  0  0  0
 78 80  1  0  0  0
 78 83  1  0  0  0
 78152  1  0  0  0
 78153  1  0  0  0
 79 80  1  0  0  0
 79154  1  0  0  0
 79155  1  0  0  0
 80156  1  0  0  0
 82157  1  0  0  0
 83158  1  0  0  0
 83159  1  0  0  0
 83160  1  0  0  0
M  CHG  1  83   1
M  ISO  4   1 100  68 101  79 101  82 100
M  END
> <chiral flag>
0

> <version>
0

> <s_m_source_file>
/data/baiqing/PycharmProjects/Reinvent-master-3.2/result/LINK_invent/BTK/process_docking_weight1_custom_sum_contain_oxygen_bond_distance_aromatic_linkinvent_7_9_3/rearranged_h_0109.sdf

> <i_m_source_file_index>
46

> <r_mmod_Potential_Energy-OPLS-2005>
375.431304931641

> <r_mmod_Stretch_Energy-OPLS-2005>
324.0302734375

> <r_mmod_Bend_Energy-OPLS-2005>
310.325073242188

> <r_mmod_Torsional_Energy-OPLS-2005>
248.453247070312

> <r_mmod_Improper_Torsional_Energy-OPLS-2005>
6.31674480438232

> <r_mmod_Van_der_Waal_Energy-OPLS-2005>
101.191200256348

> <r_mmod_Electrostatic_Energy-OPLS-2005>
-331.629669189453

> <r_mmod_Solvation_Energy-OPLS-2005>
-521.496948242188

> <b_mmod_Minimization_Converged-OPLS-2005>
0

> <r_mmod_RMS_Derivative-OPLS-2005>
4.30603075027466

$$$$
46
                    3D
 Structure written by MMmdl.
165173  0  0  1  0            999 V2000
  -30.4776  -15.1638   20.2969 C   0  0  0  0  0  0
  -30.4404  -12.7283   19.4706 C   0  0  0  0  0  0
  -29.5129  -12.4813   18.2549 C   0  0  0  0  0  0
  -28.0508  -12.2787   18.6951 C   0  0  0  0  0  0
  -27.6128  -13.2469   19.8248 C   0  0  2  0  0  0
  -28.6713  -13.4030   20.9300 C   0  0  0  0  0  0
  -25.2446  -13.8197   20.5817 C   0  0  0  0  0  0
  -24.1754  -13.0431   20.9277 C   0  0  0  0  0  0
  -24.6354  -11.6911   20.8795 C   0  0  0  0  0  0
  -23.9041  -10.4290   21.0427 C   0  0  0  0  0  0
  -24.3598   -9.4201   21.9196 C   0  0  0  0  0  0
  -23.6283   -8.2229   22.0750 C   0  0  0  0  0  0
  -22.4266   -8.0262   21.3541 C   0  0  0  0  0  0
  -21.9902   -9.0233   20.4638 C   0  0  0  0  0  0
  -22.7224  -10.2118   20.3064 C   0  0  0  0  0  0
  -21.6844   -6.0725   22.5283 C   0  0  0  0  0  0
  -21.4013   -6.5637   23.8212 C   0  0  0  0  0  0
  -21.3666   -5.6794   24.9177 C   0  0  0  0  0  0
  -21.6046   -4.3054   24.7227 C   0  0  0  0  0  0
  -21.8828   -3.8142   23.4351 C   0  0  0  0  0  0
  -21.9191   -4.6958   22.3404 C   0  0  0  0  0  0
  -22.7775  -13.5196   21.1904 C   0  0  0  0  0  0
  -22.1674   -4.2144   21.0984 F   0  0  0  0  0  0
  -21.5621   -3.4541   25.7739 F   0  0  0  0  0  0
  -29.8880  -13.8793   20.2526 N   0  0  0  0  0  0
  -26.2842  -12.9414   20.3331 N   0  0  0  0  0  0
  -25.9291  -11.6549   20.5815 N   0  0  0  0  0  0
  -22.0420  -12.8171   22.0440 N   0  0  0  0  0  0
  -25.4184  -15.1924   20.4312 N   0  0  0  0  0  0
  -31.7168  -15.1431   20.3419 O   0  0  0  0  0  0
  -21.6636   -6.8858   21.4238 O   0  0  0  0  0  0
  -22.3475  -14.5508   20.6742 O   0  0  0  0  0  0
  -24.6542  -31.8320   23.1777 C   0  0  0  0  0  0
  -25.9268  -32.4624   23.8206 C   0  0  1  0  0  0
  -27.2155  -27.0139   20.1694 C   0  0  0  0  0  0
  -25.5977  -33.8441   24.2116 N   0  0  0  0  0  0
  -23.4632  -30.4474   21.5261 C   0  0  2  0  0  0
  -24.9138  -28.8491   20.1130 C   0  0  0  0  0  0
  -22.7615  -29.4498   22.4833 C   0  0  0  0  0  0
  -18.0320  -28.1395   22.8482 C   0  0  0  0  0  0
  -24.1501  -36.7221   23.2642 C   0  0  0  0  0  0
  -26.0273  -30.6666   21.3944 C   0  0  0  0  0  0
  -26.0964  -29.2652   20.7380 C   0  0  0  0  0  0
  -27.2461  -28.3680   20.7408 C   0  0  0  0  0  0
  -26.0044  -26.7298   19.5004 C   0  0  0  0  0  0
  -24.8886  -27.5996   19.4756 C   0  0  0  0  0  0
  -23.6950  -29.7656   20.1506 C   0  0  0  0  0  0
  -25.4136  -36.2983   24.0303 C   0  0  1  0  0  0
  -20.5932  -28.3737   23.1216 C   0  0  2  0  0  0
  -20.6797  -26.9433   22.5404 C   0  0  0  0  0  0
  -19.5767  -26.6376   21.5218 C   0  0  0  0  0  0
  -18.1947  -26.7936   22.1625 C   0  0  0  0  0  0
  -19.1575  -28.8885   23.2837 C   0  0  0  0  0  0
  -18.9487  -30.1481   23.8864 C   0  0  0  0  0  0
  -17.6479  -30.6591   24.0551 C   0  0  0  0  0  0
  -25.9097  -34.9367   23.5022 C   0  0  0  0  0  0
  -16.5370  -29.9072   23.6342 C   0  0  0  0  0  0
  -16.7303  -28.6488   23.0372 C   0  0  0  0  0  0
  -26.4553  -31.6535   25.0698 C   0  0  0  0  0  0
  -25.3706  -31.3764   26.1370 C   0  0  0  0  0  0
  -27.0437  -30.2909   24.6376 C   0  0  0  0  0  0
  -27.6042  -32.4341   25.7504 C   0  0  0  0  0  0
  -27.5575  -37.1764   24.8461 C   0  0  0  0  0  0
  -21.4298  -29.3044   22.3573 N   0  0  0  0  0  0
  -26.4281  -37.3709   23.9408 N   0  0  0  0  0  0
  -24.7353  -31.0071   22.0860 N   0  0  0  0  0  0
  -23.4212  -28.8066   23.3034 O   0  0  0  0  0  0
  -28.2485  -25.9666   20.2209 O   0  0  0  0  0  0
  -26.5694  -34.8885   22.4612 O   0  0  0  0  0  0
  -23.5633  -32.1262   23.6927 O   0  0  0  0  0  0
  -28.4165  -18.8640   19.5284 C   0  0  0  0  0  0
  -29.9972  -18.9292   21.2214 C   0  0  0  0  0  0
  -28.4995  -20.4859   19.2668 C   0  0  0  0  0  0
  -30.0315  -20.5937   21.0660 C   0  0  0  0  0  0
  -29.7446  -18.0208   19.9211 C   0  0  1  0  0  0
  -26.6881  -16.4630   16.3062 C   0  0  0  0  0  0
  -27.6796  -16.0017   17.3784 C   0  0  0  0  0  0
  -29.0736  -16.6151   17.2037 C   0  0  0  0  0  0
  -30.1251  -16.2306   18.2701 C   0  0  0  0  0  0
  -29.0966  -23.0170   20.1821 C   0  0  0  0  0  0
  -27.9878  -24.3702   20.2575 C   0  0  0  0  0  0
  -29.8025  -16.3568   19.7434 N   0  0  0  0  0  0
  -28.8687  -21.4032   20.4319 N   0  3  1  0  0  0
  -31.4524  -12.9359   19.1199 H   0  0  0  0  0  0
  -30.5172  -11.8369   20.0941 H   0  0  0  0  0  0
  -29.8523  -11.6077   17.6971 H   0  0  0  0  0  0
  -29.5639  -13.3083   17.5505 H   0  0  0  0  0  0
  -27.9605  -11.2492   19.0442 H   0  0  0  0  0  0
  -27.3812  -12.3685   17.8388 H   0  0  0  0  0  0
  -27.5317  -14.2234   19.3616 H   0  0  0  0  0  0
  -28.8350  -12.4677   21.4657 H   0  0  0  0  0  0
  -28.3455  -14.1397   21.6664 H   0  0  0  0  0  0
  -25.2744   -9.5674   22.4769 H   0  0  0  0  0  0
  -24.0003   -7.4609   22.7451 H   0  0  0  0  0  0
  -21.0847   -8.8729   19.8925 H   0  0  0  0  0  0
  -22.3678  -10.9647   19.6168 H   0  0  0  0  0  0
  -21.2018   -7.6150   23.9709 H   0  0  0  0  0  0
  -21.1483   -6.0527   25.9072 H   0  0  0  0  0  0
  -22.0602   -2.7604   23.2852 H   0  0  0  0  0  0
  -22.4047  -11.9842   22.4849 H   0  0  0  0  0  0
  -21.1017  -13.1156   22.2613 H   0  0  0  0  0  0
  -24.6604  -15.8550   20.5558 H   0  0  0  0  0  0
  -26.2847  -15.6264   20.1415 H   0  0  0  0  0  0
  -26.7335  -32.5195   23.0922 H   0  0  0  0  0  0
  -25.0082  -33.9545   25.0234 H   0  0  0  0  0  0
  -22.7713  -31.2767   21.3616 H   0  0  0  0  0  0
  -23.3768  -35.9544   23.3262 H   0  0  0  0  0  0
  -24.3581  -36.8908   22.2064 H   0  0  0  0  0  0
  -23.7254  -37.6396   23.6726 H   0  0  0  0  0  0
  -26.1999  -31.4148   20.6197 H   0  0  0  0  0  0
  -26.8905  -30.7182   22.0461 H   0  0  0  0  0  0
  -28.1464  -28.6846   21.2490 H   0  0  0  0  0  0
  -25.8861  -25.7821   18.9989 H   0  0  0  0  0  0
  -23.9900  -27.2779   18.9672 H   0  0  0  0  0  0
  -23.8362  -30.5340   19.3900 H   0  0  0  0  0  0
  -22.8068  -29.2110   19.8415 H   0  0  0  0  0  0
  -25.1332  -36.1772   25.0791 H   0  0  0  0  0  0
  -21.0034  -28.3333   24.1335 H   0  0  0  0  0  0
  -20.5684  -26.2356   23.3634 H   0  0  0  0  0  0
  -21.6658  -26.7421   22.1200 H   0  0  0  0  0  0
  -19.6921  -25.6281   21.1264 H   0  0  0  0  0  0
  -19.6689  -27.3172   20.6737 H   0  0  0  0  0  0
  -17.4219  -26.6701   21.4025 H   0  0  0  0  0  0
  -18.0329  -26.0081   22.9020 H   0  0  0  0  0  0
  -19.7960  -30.7310   24.2213 H   0  0  0  0  0  0
  -17.5027  -31.6276   24.5148 H   0  0  0  0  0  0
  -15.5366  -30.2953   23.7688 H   0  0  0  0  0  0
  -15.8708  -28.0782   22.7118 H   0  0  0  0  0  0
  -24.5890  -30.7111   25.7680 H   0  0  0  0  0  0
  -24.8899  -32.2964   26.4706 H   0  0  0  0  0  0
  -25.7964  -30.8984   27.0203 H   0  0  0  0  0  0
  -26.3086  -29.6598   24.1364 H   0  0  0  0  0  0
  -27.3971  -29.7250   25.5005 H   0  0  0  0  0  0
  -27.9029  -30.4092   23.9770 H   0  0  0  0  0  0
  -27.2591  -33.3664   26.1987 H   0  0  0  0  0  0
  -28.3905  -32.6871   25.0380 H   0  0  0  0  0  0
  -28.0653  -31.8537   26.5505 H   0  0  0  0  0  0
  -28.2555  -38.0094   24.7527 H   0  0  0  0  0  0
  -28.1115  -36.2623   24.6266 H   0  0  0  0  0  0
  -27.2300  -37.1371   25.8864 H   0  0  0  0  0  0
  -20.9533  -29.8733   21.6711 H   0  0  0  0  0  0
  -26.0130  -38.2766   24.1415 H   0  0  0  0  0  0
  -27.9395  -18.4512   18.6495 H   0  0  0  0  0  0
  -27.6581  -18.6864   20.2938 H   0  0  0  0  0  0
  -29.2632  -18.6685   21.9852 H   0  0  0  0  0  0
  -30.9515  -18.6261   21.6521 H   0  0  0  0  0  0
  -27.5387  -20.8264   18.8785 H   0  0  0  0  0  0
  -29.2139  -20.6594   18.4617 H   0  0  0  0  0  0
  -30.9294  -20.8420   20.4993 H   0  0  0  0  0  0
  -30.2027  -21.0139   22.0574 H   0  0  0  0  0  0
  -30.5187  -18.3963   19.2529 H   0  0  0  0  0  0
  -25.7067  -16.0187   16.4772 H   0  0  0  0  0  0
  -27.0132  -16.1671   15.3091 H   0  0  0  0  0  0
  -26.5652  -17.5462   16.3130 H   0  0  0  0  0  0
  -27.7601  -14.9173   17.3189 H   0  0  0  0  0  0
  -27.2768  -16.2502   18.3604 H   0  0  0  0  0  0
  -29.0295  -17.6947   17.0782 H   0  0  0  0  0  0
  -29.4562  -16.2783   16.2385 H   0  0  0  0  0  0
  -30.4154  -15.2231   17.9697 H   0  0  0  0  0  0
  -31.0440  -16.7773   18.0515 H   0  0  0  0  0  0
  -29.8675  -23.2819   20.9063 H   0  0  0  0  0  0
  -29.6063  -23.0882   19.2214 H   0  0  0  0  0  0
  -27.4239  -24.2257   21.1797 H   0  0  0  0  0  0
  -27.2654  -24.1695   19.4681 H   0  0  0  0  0  0
  -28.1094  -21.3377   21.0956 H   0  0  0  0  0  0
  1 25  1  0  0  0
  1 30  2  0  0  0
  1 82  1  0  0  0
  2  3  1  0  0  0
  2 25  1  0  0  0
  2 84  1  0  0  0
  2 85  1  0  0  0
  3  4  1  0  0  0
  3 86  1  0  0  0
  3 87  1  0  0  0
  4  5  1  0  0  0
  4 88  1  0  0  0
  4 89  1  0  0  0
  5  6  1  0  0  0
  5 26  1  0  0  0
  5 90  1  0  0  0
  6 25  1  0  0  0
  6 91  1  0  0  0
  6 92  1  0  0  0
  7  8  2  0  0  0
  7 26  1  0  0  0
  7 29  1  0  0  0
  8  9  1  0  0  0
  8 22  1  0  0  0
  9 10  1  0  0  0
  9 27  2  0  0  0
 10 11  2  0  0  0
 10 15  1  0  0  0
 11 12  1  0  0  0
 11 93  1  0  0  0
 12 13  2  0  0  0
 12 94  1  0  0  0
 13 14  1  0  0  0
 13 31  1  0  0  0
 14 15  2  0  0  0
 14 95  1  0  0  0
 15 96  1  0  0  0
 16 17  2  0  0  0
 16 21  1  0  0  0
 16 31  1  0  0  0
 17 18  1  0  0  0
 17 97  1  0  0  0
 18 19  2  0  0  0
 18 98  1  0  0  0
 19 20  1  0  0  0
 19 24  1  0  0  0
 20 21  2  0  0  0
 20 99  1  0  0  0
 21 23  1  0  0  0
 22 28  1  0  0  0
 22 32  2  0  0  0
 26 27  1  0  0  0
 28100  1  0  0  0
 28101  1  0  0  0
 29102  1  0  0  0
 29103  1  0  0  0
 33 34  1  0  0  0
 33 66  1  0  0  0
 33 70  2  0  0  0
 34 36  1  0  0  0
 34 59  1  0  0  0
 34104  1  0  0  0
 35 44  2  0  0  0
 35 45  1  0  0  0
 35 68  1  0  0  0
 36 56  1  0  0  0
 36105  1  0  0  0
 37 39  1  0  0  0
 37 47  1  0  0  0
 37 66  1  0  0  0
 37106  1  0  0  0
 38 43  2  0  0  0
 38 46  1  0  0  0
 38 47  1  0  0  0
 39 64  1  0  0  0
 39 67  2  0  0  0
 40 52  1  0  0  0
 40 53  2  0  0  0
 40 58  1  0  0  0
 41107  1  0  0  0
 41108  1  0  0  0
 41109  1  0  0  0
 41 48  1  0  0  0
 42 43  1  0  0  0
 42 66  1  0  0  0
 42110  1  0  0  0
 42111  1  0  0  0
 43 44  1  0  0  0
 44112  1  0  0  0
 45 46  2  0  0  0
 45113  1  0  0  0
 46114  1  0  0  0
 47115  1  0  0  0
 47116  1  0  0  0
 48 56  1  0  0  0
 48 65  1  0  0  0
 48117  1  0  0  0
 49 50  1  0  0  0
 49 53  1  0  0  0
 49 64  1  0  0  0
 49118  1  0  0  0
 50 51  1  0  0  0
 50119  1  0  0  0
 50120  1  0  0  0
 51 52  1  0  0  0
 51121  1  0  0  0
 51122  1  0  0  0
 52123  1  0  0  0
 52124  1  0  0  0
 53 54  1  0  0  0
 54 55  2  0  0  0
 54125  1  0  0  0
 55 57  1  0  0  0
 55126  1  0  0  0
 56 69  2  0  0  0
 57 58  2  0  0  0
 57127  1  0  0  0
 58128  1  0  0  0
 59 60  1  0  0  0
 59 61  1  0  0  0
 59 62  1  0  0  0
 60129  1  0  0  0
 60130  1  0  0  0
 60131  1  0  0  0
 61132  1  0  0  0
 61133  1  0  0  0
 61134  1  0  0  0
 62135  1  0  0  0
 62136  1  0  0  0
 62137  1  0  0  0
 63 65  1  0  0  0
 63138  1  0  0  0
 63139  1  0  0  0
 63140  1  0  0  0
 64141  1  0  0  0
 65142  1  0  0  0
 68 81  1  0  0  0
 71 73  1  0  0  0
 71 75  1  0  0  0
 71143  1  0  0  0
 71144  1  0  0  0
 72 74  1  0  0  0
 72 75  1  0  0  0
 72145  1  0  0  0
 72146  1  0  0  0
 73 83  1  0  0  0
 73147  1  0  0  0
 73148  1  0  0  0
 74 83  1  0  0  0
 74149  1  0  0  0
 74150  1  0  0  0
 75 82  1  0  0  0
 75151  1  0  0  0
 76 77  1  0  0  0
 76152  1  0  0  0
 76153  1  0  0  0
 76154  1  0  0  0
 77 78  1  0  0  0
 77155  1  0  0  0
 77156  1  0  0  0
 78 79  1  0  0  0
 78157  1  0  0  0
 78158  1  0  0  0
 79 82  1  0  0  0
 79159  1  0  0  0
 79160  1  0  0  0
 80 81  1  0  0  0
 80161  1  0  0  0
 80162  1  0  0  0
 80 83  1  0  0  0
 81163  1  0  0  0
 81164  1  0  0  0
 83165  1  0  0  0
M  CHG  1  83   1
M  ISO  4   1 100  68 101  81 101  82 100
M  END
> <chiral flag>
0

> <version>
0

> <s_m_source_file>
/data/baiqing/PycharmProjects/Reinvent-master-3.2/result/LINK_invent/BTK/process_docking_weight1_custom_sum_contain_oxygen_bond_distance_aromatic_linkinvent_7_9_3/rearranged_h_0109.sdf

> <i_m_source_file_index>
47

> <r_mmod_Potential_Energy-OPLS-2005>
1222.69897460938

> <r_mmod_Stretch_Energy-OPLS-2005>
438.965301513672

> <r_mmod_Bend_Energy-OPLS-2005>
462.941802978516

> <r_mmod_Torsional_Energy-OPLS-2005>
354.102416992188

> <r_mmod_Improper_Torsional_Energy-OPLS-2005>
25.3620471954346

> <r_mmod_Van_der_Waal_Energy-OPLS-2005>
128.209335327148

> <r_mmod_Electrostatic_Energy-OPLS-2005>
-127.673759460449

> <r_mmod_Solvation_Energy-OPLS-2005>
-416.784637451172

> <b_mmod_Minimization_Converged-OPLS-2005>
0

> <r_mmod_RMS_Derivative-OPLS-2005>
1.71650791168213

$$$$
47
                    3D
 Structure written by MMmdl.
165172  0  0  1  0            999 V2000
  -30.6920  -14.5247   20.5334 C   0  0  0  0  0  0
  -30.4155  -12.3281   19.4380 C   0  0  0  0  0  0
  -29.4936  -12.4942   18.2129 C   0  0  0  0  0  0
  -28.0158  -12.3505   18.6262 C   0  0  0  0  0  0
  -27.6529  -13.2141   19.8646 C   0  0  2  0  0  0
  -28.6945  -13.0464   20.9928 C   0  0  0  0  0  0
  -25.2561  -13.8170   20.5677 C   0  0  0  0  0  0
  -24.1830  -13.0438   20.9186 C   0  0  0  0  0  0
  -24.6392  -11.6907   20.8738 C   0  0  0  0  0  0
  -23.9060  -10.4290   21.0401 C   0  0  0  0  0  0
  -24.3616   -9.4210   21.9188 C   0  0  0  0  0  0
  -23.6293   -8.2247   22.0762 C   0  0  0  0  0  0
  -22.4275   -8.0284   21.3554 C   0  0  0  0  0  0
  -21.9905   -9.0253   20.4654 C   0  0  0  0  0  0
  -22.7226  -10.2132   20.3056 C   0  0  0  0  0  0
  -21.6857   -6.0732   22.5277 C   0  0  0  0  0  0
  -21.4017   -6.5639   23.8205 C   0  0  0  0  0  0
  -21.3658   -5.6794   24.9171 C   0  0  0  0  0  0
  -21.6044   -4.3058   24.7223 C   0  0  0  0  0  0
  -21.8818   -3.8143   23.4348 C   0  0  0  0  0  0
  -21.9192   -4.6960   22.3398 C   0  0  0  0  0  0
  -22.7854  -13.5233   21.1847 C   0  0  0  0  0  0
  -22.1660   -4.2143   21.0980 F   0  0  0  0  0  0
  -21.5633   -3.4544   25.7739 F   0  0  0  0  0  0
  -30.0176  -13.3453   20.4268 N   0  0  0  0  0  0
  -26.2987  -12.9350   20.3331 N   0  0  0  0  0  0
  -25.9317  -11.6503   20.5763 N   0  0  0  0  0  0
  -22.0496  -12.8222   22.0402 N   0  0  0  0  0  0
  -25.4282  -15.1884   20.4071 N   0  0  0  0  0  0
  -31.8482  -14.6520   20.1228 O   0  0  0  0  0  0
  -21.6647   -6.8880   21.4239 O   0  0  0  0  0  0
  -22.3544  -14.5541   20.6694 O   0  0  0  0  0  0
  -24.6191  -31.8648   23.2080 C   0  0  0  0  0  0
  -25.9074  -32.4800   23.8384 C   0  0  1  0  0  0
  -27.2237  -27.3843   20.0963 C   0  0  0  0  0  0
  -25.5919  -33.8600   24.2310 N   0  0  0  0  0  0
  -23.4082  -30.4886   21.5503 C   0  0  2  0  0  0
  -24.8502  -28.9492   20.1118 C   0  0  0  0  0  0
  -22.7437  -29.4643   22.4991 C   0  0  0  0  0  0
  -18.0320  -28.1360   22.8482 C   0  0  0  0  0  0
  -24.1490  -36.7299   23.2640 C   0  0  0  0  0  0
  -25.9413  -30.8136   21.3676 C   0  0  0  0  0  0
  -26.0136  -29.4449   20.7121 C   0  0  0  0  0  0
  -27.2005  -28.6690   20.7020 C   0  0  0  0  0  0
  -26.0379  -26.9192   19.4834 C   0  0  0  0  0  0
  -24.8600  -27.6885   19.4939 C   0  0  0  0  0  0
  -23.6152  -29.8207   20.1651 C   0  0  0  0  0  0
  -25.4111  -36.3093   24.0339 C   0  0  1  0  0  0
  -20.5900  -28.3663   23.1326 C   0  0  2  0  0  0
  -20.6832  -26.9395   22.5434 C   0  0  0  0  0  0
  -19.5829  -26.6352   21.5225 C   0  0  0  0  0  0
  -18.1977  -26.7919   22.1590 C   0  0  0  0  0  0
  -19.1558  -28.8830   23.2904 C   0  0  0  0  0  0
  -18.9468  -30.1443   23.8900 C   0  0  0  0  0  0
  -17.6469  -30.6575   24.0546 C   0  0  0  0  0  0
  -25.9040  -34.9458   23.5118 C   0  0  0  0  0  0
  -16.5370  -29.9050   23.6324 C   0  0  0  0  0  0
  -16.7308  -28.6466   23.0343 C   0  0  0  0  0  0
  -26.4479  -31.6603   25.0739 C   0  0  0  0  0  0
  -25.3748  -31.3715   26.1490 C   0  0  0  0  0  0
  -27.0311  -30.3046   24.6146 C   0  0  0  0  0  0
  -27.6051  -32.4325   25.7503 C   0  0  0  0  0  0
  -27.5578  -37.1803   24.8465 C   0  0  0  0  0  0
  -21.4164  -29.3036   22.3725 N   0  0  0  0  0  0
  -26.4290  -37.3783   23.9410 N   0  0  0  0  0  0
  -24.6750  -31.0711   22.0998 N   0  0  0  0  0  0
  -23.4189  -28.8190   23.3058 O   0  0  0  0  0  0
  -28.3894  -26.6290   20.1326 O   0  0  0  0  0  0
  -26.5591  -34.8916   22.4668 O   0  0  0  0  0  0
  -23.5374  -32.1419   23.7452 O   0  0  0  0  0  0
  -28.9897  -19.2548   22.6663 C   0  0  0  0  0  0
  -27.4210  -22.6288   18.5697 C   0  0  0  0  0  0
  -28.3711  -24.2612   22.0318 C   0  0  0  0  0  0
  -29.7666  -18.1648   20.4472 C   0  0  0  0  0  0
  -28.4218  -21.5334   20.6883 C   0  0  0  0  0  0
  -30.5354  -16.9761   21.1296 C   0  0  0  0  0  0
  -28.4088  -25.2464   19.6758 C   0  0  0  0  0  0
  -28.6045  -18.8575   21.2276 C   0  0  2  0  0  0
  -27.5284  -22.7059   20.1045 C   0  0  1  0  0  0
  -27.7363  -24.1952   20.6326 C   0  0  1  0  0  0
  -27.9023  -20.0537   20.4649 C   0  0  1  0  0  0
  -29.9878  -15.6026   20.9624 N   0  0  0  0  0  0
  -26.5481  -20.0103   20.8807 O   0  0  0  0  0  0
  -31.4621  -12.4145   19.1407 H   0  0  0  0  0  0
  -30.3110  -11.3288   19.8638 H   0  0  0  0  0  0
  -29.7403  -11.7544   17.4503 H   0  0  0  0  0  0
  -29.6554  -13.4714   17.7560 H   0  0  0  0  0  0
  -27.8375  -11.2967   18.8450 H   0  0  0  0  0  0
  -27.3630  -12.5994   17.7889 H   0  0  0  0  0  0
  -27.6816  -14.2539   19.5376 H   0  0  0  0  0  0
  -28.6782  -12.0261   21.3791 H   0  0  0  0  0  0
  -28.4573  -13.6894   21.8419 H   0  0  0  0  0  0
  -25.2764   -9.5692   22.4762 H   0  0  0  0  0  0
  -24.0001   -7.4638   22.7482 H   0  0  0  0  0  0
  -21.0836   -8.8754   19.8969 H   0  0  0  0  0  0
  -22.3670  -10.9669   19.6166 H   0  0  0  0  0  0
  -21.2011   -7.6149   23.9706 H   0  0  0  0  0  0
  -21.1487   -6.0531   25.9074 H   0  0  0  0  0  0
  -22.0601   -2.7609   23.2841 H   0  0  0  0  0  0
  -22.4106  -11.9875   22.4779 H   0  0  0  0  0  0
  -21.1125  -13.1261   22.2632 H   0  0  0  0  0  0
  -24.6571  -15.8398   20.5046 H   0  0  0  0  0  0
  -26.2735  -15.6216   20.0591 H   0  0  0  0  0  0
  -26.7147  -32.5479   23.1140 H   0  0  0  0  0  0
  -25.0107  -33.9753   25.0485 H   0  0  0  0  0  0
  -22.6977  -31.3057   21.4114 H   0  0  0  0  0  0
  -23.3749  -35.9634   23.3308 H   0  0  0  0  0  0
  -24.3599  -36.8909   22.2056 H   0  0  0  0  0  0
  -23.7247  -37.6511   23.6645 H   0  0  0  0  0  0
  -26.0619  -31.5775   20.5981 H   0  0  0  0  0  0
  -26.8267  -30.8629   21.9899 H   0  0  0  0  0  0
  -28.0966  -29.0437   21.1757 H   0  0  0  0  0  0
  -25.9909  -25.9563   18.9987 H   0  0  0  0  0  0
  -23.9668  -27.3005   19.0238 H   0  0  0  0  0  0
  -23.7201  -30.5930   19.4028 H   0  0  0  0  0  0
  -22.7379  -29.2399   19.8754 H   0  0  0  0  0  0
  -25.1295  -36.1950   25.0836 H   0  0  0  0  0  0
  -20.9995  -28.3234   24.1449 H   0  0  0  0  0  0
  -20.5742  -26.2240   23.3601 H   0  0  0  0  0  0
  -21.6713  -26.7467   22.1236 H   0  0  0  0  0  0
  -19.6993  -25.6246   21.1300 H   0  0  0  0  0  0
  -19.6798  -27.3141   20.6737 H   0  0  0  0  0  0
  -17.4264  -26.6678   21.3972 H   0  0  0  0  0  0
  -18.0354  -26.0044   22.8956 H   0  0  0  0  0  0
  -19.7926  -30.7299   24.2257 H   0  0  0  0  0  0
  -17.5015  -31.6273   24.5112 H   0  0  0  0  0  0
  -15.5369  -30.2921   23.7657 H   0  0  0  0  0  0
  -15.8727  -28.0765   22.7040 H   0  0  0  0  0  0
  -24.5926  -30.7056   25.7833 H   0  0  0  0  0  0
  -24.8933  -32.2865   26.4948 H   0  0  0  0  0  0
  -25.8111  -30.8890   27.0244 H   0  0  0  0  0  0
  -26.2867  -29.6816   24.1178 H   0  0  0  0  0  0
  -27.4046  -29.7288   25.4622 H   0  0  0  0  0  0
  -27.8716  -30.4368   23.9332 H   0  0  0  0  0  0
  -27.2685  -33.3618   26.2109 H   0  0  0  0  0  0
  -28.3851  -32.6898   25.0325 H   0  0  0  0  0  0
  -28.0729  -31.8437   26.5402 H   0  0  0  0  0  0
  -28.2600  -38.0093   24.7507 H   0  0  0  0  0  0
  -28.1070  -36.2627   24.6294 H   0  0  0  0  0  0
  -27.2300  -37.1467   25.8869 H   0  0  0  0  0  0
  -20.9335  -29.8737   21.6910 H   0  0  0  0  0  0
  -26.0176  -38.2866   24.1384 H   0  0  0  0  0  0
  -29.2159  -18.3878   23.2846 H   0  0  0  0  0  0
  -28.1682  -19.7763   23.1585 H   0  0  0  0  0  0
  -29.8575  -19.9145   22.6821 H   0  0  0  0  0  0
  -27.0902  -21.6450   18.2384 H   0  0  0  0  0  0
  -28.3782  -22.8337   18.0901 H   0  0  0  0  0  0
  -26.6889  -23.3412   18.1890 H   0  0  0  0  0  0
  -28.3498  -25.2790   22.4216 H   0  0  0  0  0  0
  -29.4133  -23.9410   22.0113 H   0  0  0  0  0  0
  -27.8337  -23.6374   22.7465 H   0  0  0  0  0  0
  -29.4087  -17.8377   19.4702 H   0  0  0  0  0  0
  -30.5018  -18.9410   20.2284 H   0  0  0  0  0  0
  -28.5144  -21.6835   21.7611 H   0  0  0  0  0  0
  -29.4358  -21.6196   20.2962 H   0  0  0  0  0  0
  -30.6846  -17.1599   22.1921 H   0  0  0  0  0  0
  -31.5465  -17.0038   20.7196 H   0  0  0  0  0  0
  -27.9986  -25.2050   18.6677 H   0  0  0  0  0  0
  -29.4556  -24.9694   19.5535 H   0  0  0  0  0  0
  -27.8653  -18.0599   21.3291 H   0  0  0  0  0  0
  -26.5249  -22.4734   20.4615 H   0  0  0  0  0  0
  -26.7220  -24.5720   20.7688 H   0  0  0  0  0  0
  -27.9175  -19.8306   19.3963 H   0  0  0  0  0  0
  -29.0341  -15.4374   21.2488 H   0  0  0  0  0  0
  -26.2171  -19.1350   20.7060 H   0  0  0  0  0  0
  1 25  1  0  0  0
  1 30  2  0  0  0
  1 82  1  0  0  0
  2  3  1  0  0  0
  2 25  1  0  0  0
  2 84  1  0  0  0
  2 85  1  0  0  0
  3  4  1  0  0  0
  3 86  1  0  0  0
  3 87  1  0  0  0
  4  5  1  0  0  0
  4 88  1  0  0  0
  4 89  1  0  0  0
  5  6  1  0  0  0
  5 26  1  0  0  0
  5 90  1  0  0  0
  6 25  1  0  0  0
  6 91  1  0  0  0
  6 92  1  0  0  0
  7  8  2  0  0  0
  7 26  1  0  0  0
  7 29  1  0  0  0
  8  9  1  0  0  0
  8 22  1  0  0  0
  9 10  1  0  0  0
  9 27  2  0  0  0
 10 11  2  0  0  0
 10 15  1  0  0  0
 11 12  1  0  0  0
 11 93  1  0  0  0
 12 13  2  0  0  0
 12 94  1  0  0  0
 13 14  1  0  0  0
 13 31  1  0  0  0
 14 15  2  0  0  0
 14 95  1  0  0  0
 15 96  1  0  0  0
 16 17  2  0  0  0
 16 21  1  0  0  0
 16 31  1  0  0  0
 17 18  1  0  0  0
 17 97  1  0  0  0
 18 19  2  0  0  0
 18 98  1  0  0  0
 19 20  1  0  0  0
 19 24  1  0  0  0
 20 21  2  0  0  0
 20 99  1  0  0  0
 21 23  1  0  0  0
 22 28  1  0  0  0
 22 32  2  0  0  0
 26 27  1  0  0  0
 28100  1  0  0  0
 28101  1  0  0  0
 29102  1  0  0  0
 29103  1  0  0  0
 33 34  1  0  0  0
 33 66  1  0  0  0
 33 70  2  0  0  0
 34 36  1  0  0  0
 34 59  1  0  0  0
 34104  1  0  0  0
 35 44  2  0  0  0
 35 45  1  0  0  0
 35 68  1  0  0  0
 36 56  1  0  0  0
 36105  1  0  0  0
 37 39  1  0  0  0
 37 47  1  0  0  0
 37 66  1  0  0  0
 37106  1  0  0  0
 38 43  2  0  0  0
 38 46  1  0  0  0
 38 47  1  0  0  0
 39 64  1  0  0  0
 39 67  2  0  0  0
 40 52  1  0  0  0
 40 53  2  0  0  0
 40 58  1  0  0  0
 41107  1  0  0  0
 41108  1  0  0  0
 41109  1  0  0  0
 41 48  1  0  0  0
 42 43  1  0  0  0
 42 66  1  0  0  0
 42110  1  0  0  0
 42111  1  0  0  0
 43 44  1  0  0  0
 44112  1  0  0  0
 45 46  2  0  0  0
 45113  1  0  0  0
 46114  1  0  0  0
 47115  1  0  0  0
 47116  1  0  0  0
 48 56  1  0  0  0
 48 65  1  0  0  0
 48117  1  0  0  0
 49 50  1  0  0  0
 49 53  1  0  0  0
 49 64  1  0  0  0
 49118  1  0  0  0
 50 51  1  0  0  0
 50119  1  0  0  0
 50120  1  0  0  0
 51 52  1  0  0  0
 51121  1  0  0  0
 51122  1  0  0  0
 52123  1  0  0  0
 52124  1  0  0  0
 53 54  1  0  0  0
 54 55  2  0  0  0
 54125  1  0  0  0
 55 57  1  0  0  0
 55126  1  0  0  0
 56 69  2  0  0  0
 57 58  2  0  0  0
 57127  1  0  0  0
 58128  1  0  0  0
 59 60  1  0  0  0
 59 61  1  0  0  0
 59 62  1  0  0  0
 60129  1  0  0  0
 60130  1  0  0  0
 60131  1  0  0  0
 61132  1  0  0  0
 61133  1  0  0  0
 61134  1  0  0  0
 62135  1  0  0  0
 62136  1  0  0  0
 62137  1  0  0  0
 63 65  1  0  0  0
 63138  1  0  0  0
 63139  1  0  0  0
 63140  1  0  0  0
 64141  1  0  0  0
 65142  1  0  0  0
 68 77  1  0  0  0
 71143  1  0  0  0
 71144  1  0  0  0
 71145  1  0  0  0
 71 78  1  0  0  0
 72146  1  0  0  0
 72147  1  0  0  0
 72148  1  0  0  0
 72 79  1  0  0  0
 73149  1  0  0  0
 73150  1  0  0  0
 73151  1  0  0  0
 73 80  1  0  0  0
 74 76  1  0  0  0
 74 78  1  0  0  0
 74152  1  0  0  0
 74153  1  0  0  0
 75 79  1  0  0  0
 75 81  1  0  0  0
 75154  1  0  0  0
 75155  1  0  0  0
 76 82  1  0  0  0
 76156  1  0  0  0
 76157  1  0  0  0
 77 80  1  0  0  0
 77158  1  0  0  0
 77159  1  0  0  0
 78 81  1  0  0  0
 78160  1  0  0  0
 79 80  1  0  0  0
 79161  1  0  0  0
 80162  1  0  0  0
 81 83  1  0  0  0
 81163  1  0  0  0
 82164  1  0  0  0
 83165  1  0  0  0
M  ISO  4   1 100  68 101  77 101  82 100
M  END
> <chiral flag>
0

> <version>
0

> <s_m_source_file>
/data/baiqing/PycharmProjects/Reinvent-master-3.2/result/LINK_invent/BTK/process_docking_weight1_custom_sum_contain_oxygen_bond_distance_aromatic_linkinvent_7_9_3/rearranged_h_0109.sdf

> <i_m_source_file_index>
48

> <r_mmod_Potential_Energy-OPLS-2005>
8.4811315536499

> <r_mmod_Stretch_Energy-OPLS-2005>
58.408561706543

> <r_mmod_Bend_Energy-OPLS-2005>
140.358840942383

> <r_mmod_Torsional_Energy-OPLS-2005>
241.854354858398

> <r_mmod_Improper_Torsional_Energy-OPLS-2005>
3.48464751243591

> <r_mmod_Van_der_Waal_Energy-OPLS-2005>
139.205810546875

> <r_mmod_Electrostatic_Energy-OPLS-2005>
-386.426513671875

> <r_mmod_Solvation_Energy-OPLS-2005>
-211.229690551758

> <b_mmod_Minimization_Converged-OPLS-2005>
0

> <r_mmod_RMS_Derivative-OPLS-2005>
1.63505816459656

$$$$
48
                    3D
 Structure written by MMmdl.
165172  0  0  1  0            999 V2000
  -30.7126  -14.4075   20.6735 C   0  0  0  0  0  0
  -30.4345  -12.3020   19.4020 C   0  0  0  0  0  0
  -29.4987  -12.5238   18.1967 C   0  0  0  0  0  0
  -28.0214  -12.3607   18.6127 C   0  0  0  0  0  0
  -27.6705  -13.1853   19.8794 C   0  0  2  0  0  0
  -28.7070  -12.9202   20.9953 C   0  0  0  0  0  0
  -25.2642  -13.8070   20.5625 C   0  0  0  0  0  0
  -24.1858  -13.0384   20.9090 C   0  0  0  0  0  0
  -24.6397  -11.6846   20.8721 C   0  0  0  0  0  0
  -23.9067  -10.4239   21.0423 C   0  0  0  0  0  0
  -24.3603   -9.4150   21.9220 C   0  0  0  0  0  0
  -23.6258   -8.2190   22.0780 C   0  0  0  0  0  0
  -22.4249   -8.0238   21.3570 C   0  0  0  0  0  0
  -21.9893   -9.0211   20.4681 C   0  0  0  0  0  0
  -22.7228  -10.2082   20.3084 C   0  0  0  0  0  0
  -21.6818   -6.0716   22.5295 C   0  0  0  0  0  0
  -21.3999   -6.5628   23.8226 C   0  0  0  0  0  0
  -21.3666   -5.6806   24.9201 C   0  0  0  0  0  0
  -21.6044   -4.3064   24.7271 C   0  0  0  0  0  0
  -21.8804   -3.8137   23.4393 C   0  0  0  0  0  0
  -21.9162   -4.6940   22.3441 C   0  0  0  0  0  0
  -22.7890  -13.5213   21.1810 C   0  0  0  0  0  0
  -22.1639   -4.2108   21.1018 F   0  0  0  0  0  0
  -21.5613   -3.4564   25.7795 F   0  0  0  0  0  0
  -30.0512  -13.2371   20.4710 N   0  0  0  0  0  0
  -26.3067  -12.9221   20.3351 N   0  0  0  0  0  0
  -25.9321  -11.6393   20.5754 N   0  0  0  0  0  0
  -22.0511  -12.8238   22.0378 N   0  0  0  0  0  0
  -25.4439  -15.1779   20.4134 N   0  0  0  0  0  0
  -31.7415  -14.7302   20.0713 O   0  0  0  0  0  0
  -21.6612   -6.8835   21.4244 O   0  0  0  0  0  0
  -22.3613  -14.5565   20.6703 O   0  0  0  0  0  0
  -24.6131  -31.8717   23.2102 C   0  0  0  0  0  0
  -25.9014  -32.4841   23.8423 C   0  0  1  0  0  0
  -27.2428  -27.4720   20.0807 C   0  0  0  0  0  0
  -25.5886  -33.8644   24.2373 N   0  0  0  0  0  0
  -23.4000  -30.4957   21.5488 C   0  0  2  0  0  0
  -24.8457  -28.9597   20.1165 C   0  0  0  0  0  0
  -22.7410  -29.4726   22.5013 C   0  0  0  0  0  0
  -18.0348  -28.1349   22.8500 C   0  0  0  0  0  0
  -24.1490  -36.7327   23.2649 C   0  0  0  0  0  0
  -25.9260  -30.8446   21.3586 C   0  0  0  0  0  0
  -26.0025  -29.4802   20.7114 C   0  0  0  0  0  0
  -27.2054  -28.7432   20.6904 C   0  0  0  0  0  0
  -26.0737  -26.9541   19.4884 C   0  0  0  0  0  0
  -24.8760  -27.6947   19.5019 C   0  0  0  0  0  0
  -23.6048  -29.8224   20.1652 C   0  0  0  0  0  0
  -25.4104  -36.3136   24.0362 C   0  0  1  0  0  0
  -20.5933  -28.3677   23.1345 C   0  0  2  0  0  0
  -20.6884  -26.9464   22.5368 C   0  0  0  0  0  0
  -19.5872  -26.6503   21.5138 C   0  0  0  0  0  0
  -18.2063  -26.7906   22.1603 C   0  0  0  0  0  0
  -19.1581  -28.8826   23.2927 C   0  0  0  0  0  0
  -18.9501  -30.1434   23.8937 C   0  0  0  0  0  0
  -17.6500  -30.6573   24.0566 C   0  0  0  0  0  0
  -25.9023  -34.9496   23.5167 C   0  0  0  0  0  0
  -16.5405  -29.9067   23.6329 C   0  0  0  0  0  0
  -16.7324  -28.6463   23.0370 C   0  0  0  0  0  0
  -26.4453  -31.6587   25.0725 C   0  0  0  0  0  0
  -25.3743  -31.3641   26.1485 C   0  0  0  0  0  0
  -27.0292  -30.3044   24.6056 C   0  0  0  0  0  0
  -27.6075  -32.4271   25.7451 C   0  0  0  0  0  0
  -27.5584  -37.1829   24.8473 C   0  0  0  0  0  0
  -21.4151  -29.3079   22.3760 N   0  0  0  0  0  0
  -26.4313  -37.3798   23.9394 N   0  0  0  0  0  0
  -24.6650  -31.0858   22.0978 N   0  0  0  0  0  0
  -23.4204  -28.8253   23.3043 O   0  0  0  0  0  0
  -28.4183  -26.7653   20.0232 O   0  0  0  0  0  0
  -26.5603  -34.8946   22.4729 O   0  0  0  0  0  0
  -23.5327  -32.1469   23.7497 O   0  0  0  0  0  0
  -28.9393  -17.1931   21.1282 C   0  0  0  0  0  0
  -27.8578  -18.7044   22.7810 C   0  0  0  0  0  0
  -29.0133  -19.5064   19.0817 C   0  0  0  0  0  0
  -26.6593  -19.2169   19.9266 C   0  0  0  0  0  0
  -28.5206  -24.2945   20.0974 C   0  0  0  0  0  0
  -27.2687  -23.4183   20.3193 C   0  0  0  0  0  0
  -28.1101  -21.1028   20.7929 C   0  0  0  0  0  0
  -28.4837  -25.6264   20.8798 C   0  0  0  0  0  0
  -28.6997  -18.6864   21.4820 C   0  0  2  0  0  0
  -28.1087  -19.6084   20.3309 C   0  0  0  0  0  0
  -30.1140  -16.6189   21.4469 N   0  0  0  0  0  0
  -30.1418  -15.2031   21.5879 N   0  0  0  0  0  0
  -27.4345  -22.0264   19.8429 N   0  3  0  0  0  0
  -28.0294  -16.5211   20.6423 O   0  0  0  0  0  0
  -31.4769  -12.4208   19.1026 H   0  0  0  0  0  0
  -30.3418  -11.2755   19.7601 H   0  0  0  0  0  0
  -29.7461  -11.8234   17.3977 H   0  0  0  0  0  0
  -29.6645  -13.5215   17.7854 H   0  0  0  0  0  0
  -27.8463  -11.3015   18.8055 H   0  0  0  0  0  0
  -27.3581  -12.6322   17.7902 H   0  0  0  0  0  0
  -27.7282  -14.2357   19.5967 H   0  0  0  0  0  0
  -28.6841  -11.8690   21.2830 H   0  0  0  0  0  0
  -28.4397  -13.4591   21.9048 H   0  0  0  0  0  0
  -25.2732   -9.5588   22.4836 H   0  0  0  0  0  0
  -23.9932   -7.4567   22.7505 H   0  0  0  0  0  0
  -21.0799   -8.8738   19.9007 H   0  0  0  0  0  0
  -22.3681  -10.9631   19.6205 H   0  0  0  0  0  0
  -21.2009   -7.6144   23.9719 H   0  0  0  0  0  0
  -21.1516   -6.0559   25.9110 H   0  0  0  0  0  0
  -22.0588   -2.7601   23.2928 H   0  0  0  0  0  0
  -22.4049  -11.9828   22.4729 H   0  0  0  0  0  0
  -21.1169  -13.1333   22.2676 H   0  0  0  0  0  0
  -24.7079  -15.8480   20.5948 H   0  0  0  0  0  0
  -26.3649  -15.6106   20.3277 H   0  0  0  0  0  0
  -26.7114  -32.5530   23.1226 H   0  0  0  0  0  0
  -24.9999  -33.9825   25.0495 H   0  0  0  0  0  0
  -22.6894  -31.3116   21.4041 H   0  0  0  0  0  0
  -23.3738  -35.9674   23.3330 H   0  0  0  0  0  0
  -24.3613  -36.8894   22.2063 H   0  0  0  0  0  0
  -23.7240  -37.6549   23.6623 H   0  0  0  0  0  0
  -26.0388  -31.6090   20.5880 H   0  0  0  0  0  0
  -26.8155  -30.8973   21.9738 H   0  0  0  0  0  0
  -28.1020  -29.1523   21.1325 H   0  0  0  0  0  0
  -26.0965  -25.9952   18.9884 H   0  0  0  0  0  0
  -23.9931  -27.2911   19.0257 H   0  0  0  0  0  0
  -23.7069  -30.5916   19.3986 H   0  0  0  0  0  0
  -22.7285  -29.2388   19.8769 H   0  0  0  0  0  0
  -25.1272  -36.2035   25.0861 H   0  0  0  0  0  0
  -21.0066  -28.3205   24.1451 H   0  0  0  0  0  0
  -20.5802  -26.2309   23.3540 H   0  0  0  0  0  0
  -21.6777  -26.7562   22.1143 H   0  0  0  0  0  0
  -19.7075  -25.6495   21.0995 H   0  0  0  0  0  0
  -19.6733  -27.3454   20.6783 H   0  0  0  0  0  0
  -17.4336  -26.6602   21.4009 H   0  0  0  0  0  0
  -18.0534  -25.9999   22.8977 H   0  0  0  0  0  0
  -19.7985  -30.7230   24.2327 H   0  0  0  0  0  0
  -17.5055  -31.6250   24.5147 H   0  0  0  0  0  0
  -15.5415  -30.2964   23.7614 H   0  0  0  0  0  0
  -15.8738  -28.0777   22.7074 H   0  0  0  0  0  0
  -24.5934  -30.6968   25.7804 H   0  0  0  0  0  0
  -24.8911  -32.2773   26.4978 H   0  0  0  0  0  0
  -25.8132  -30.8782   27.0206 H   0  0  0  0  0  0
  -26.2829  -29.6790   24.1133 H   0  0  0  0  0  0
  -27.4128  -29.7277   25.4480 H   0  0  0  0  0  0
  -27.8631  -30.4398   23.9155 H   0  0  0  0  0  0
  -27.2752  -33.3566   26.2086 H   0  0  0  0  0  0
  -28.3835  -32.6816   25.0211 H   0  0  0  0  0  0
  -28.0803  -31.8332   26.5294 H   0  0  0  0  0  0
  -28.2643  -38.0090   24.7498 H   0  0  0  0  0  0
  -28.1056  -36.2635   24.6325 H   0  0  0  0  0  0
  -27.2327  -37.1488   25.8889 H   0  0  0  0  0  0
  -20.9282  -29.8798   21.6993 H   0  0  0  0  0  0
  -26.0215  -38.2898   24.1319 H   0  0  0  0  0  0
  -28.2872  -18.0446   23.5365 H   0  0  0  0  0  0
  -26.8396  -18.3544   22.6121 H   0  0  0  0  0  0
  -27.8067  -19.6900   23.2393 H   0  0  0  0  0  0
  -28.7354  -20.2221   18.3063 H   0  0  0  0  0  0
  -28.9527  -18.5190   18.6229 H   0  0  0  0  0  0
  -30.0597  -19.6908   19.3330 H   0  0  0  0  0  0
  -26.3019  -19.7863   19.0677 H   0  0  0  0  0  0
  -25.9453  -19.3778   20.7367 H   0  0  0  0  0  0
  -26.5719  -18.1757   19.6239 H   0  0  0  0  0  0
  -28.6590  -24.4870   19.0321 H   0  0  0  0  0  0
  -29.4081  -23.7465   20.4164 H   0  0  0  0  0  0
  -26.4244  -23.8586   19.7887 H   0  0  0  0  0  0
  -26.9860  -23.4109   21.3728 H   0  0  0  0  0  0
  -29.1317  -21.4419   20.9692 H   0  0  0  0  0  0
  -27.5840  -21.2033   21.7408 H   0  0  0  0  0  0
  -29.4120  -25.7190   21.4442 H   0  0  0  0  0  0
  -27.6896  -25.6295   21.6290 H   0  0  0  0  0  0
  -29.6787  -19.0936   21.7415 H   0  0  0  0  0  0
  -30.8953  -17.0786   21.8977 H   0  0  0  0  0  0
  -29.2947  -14.8918   22.0397 H   0  0  0  0  0  0
  -27.9003  -22.0345   18.9490 H   0  0  0  0  0  0
  -26.5089  -21.6493   19.6957 H   0  0  0  0  0  0
  1 25  1  0  0  0
  1 30  2  0  0  0
  1 82  1  0  0  0
  2  3  1  0  0  0
  2 25  1  0  0  0
  2 85  1  0  0  0
  2 86  1  0  0  0
  3  4  1  0  0  0
  3 87  1  0  0  0
  3 88  1  0  0  0
  4  5  1  0  0  0
  4 89  1  0  0  0
  4 90  1  0  0  0
  5  6  1  0  0  0
  5 26  1  0  0  0
  5 91  1  0  0  0
  6 25  1  0  0  0
  6 92  1  0  0  0
  6 93  1  0  0  0
  7  8  2  0  0  0
  7 26  1  0  0  0
  7 29  1  0  0  0
  8  9  1  0  0  0
  8 22  1  0  0  0
  9 10  1  0  0  0
  9 27  2  0  0  0
 10 11  2  0  0  0
 10 15  1  0  0  0
 11 12  1  0  0  0
 11 94  1  0  0  0
 12 13  2  0  0  0
 12 95  1  0  0  0
 13 14  1  0  0  0
 13 31  1  0  0  0
 14 15  2  0  0  0
 14 96  1  0  0  0
 15 97  1  0  0  0
 16 17  2  0  0  0
 16 21  1  0  0  0
 16 31  1  0  0  0
 17 18  1  0  0  0
 17 98  1  0  0  0
 18 19  2  0  0  0
 18 99  1  0  0  0
 19 20  1  0  0  0
 19 24  1  0  0  0
 20 21  2  0  0  0
 20100  1  0  0  0
 21 23  1  0  0  0
 22 28  1  0  0  0
 22 32  2  0  0  0
 26 27  1  0  0  0
 28101  1  0  0  0
 28102  1  0  0  0
 29103  1  0  0  0
 29104  1  0  0  0
 33 34  1  0  0  0
 33 66  1  0  0  0
 33 70  2  0  0  0
 34 36  1  0  0  0
 34 59  1  0  0  0
 34105  1  0  0  0
 35 44  2  0  0  0
 35 45  1  0  0  0
 35 68  1  0  0  0
 36 56  1  0  0  0
 36106  1  0  0  0
 37 39  1  0  0  0
 37 47  1  0  0  0
 37 66  1  0  0  0
 37107  1  0  0  0
 38 43  2  0  0  0
 38 46  1  0  0  0
 38 47  1  0  0  0
 39 64  1  0  0  0
 39 67  2  0  0  0
 40 52  1  0  0  0
 40 53  2  0  0  0
 40 58  1  0  0  0
 41108  1  0  0  0
 41109  1  0  0  0
 41110  1  0  0  0
 41 48  1  0  0  0
 42 43  1  0  0  0
 42 66  1  0  0  0
 42111  1  0  0  0
 42112  1  0  0  0
 43 44  1  0  0  0
 44113  1  0  0  0
 45 46  2  0  0  0
 45114  1  0  0  0
 46115  1  0  0  0
 47116  1  0  0  0
 47117  1  0  0  0
 48 56  1  0  0  0
 48 65  1  0  0  0
 48118  1  0  0  0
 49 50  1  0  0  0
 49 53  1  0  0  0
 49 64  1  0  0  0
 49119  1  0  0  0
 50 51  1  0  0  0
 50120  1  0  0  0
 50121  1  0  0  0
 51 52  1  0  0  0
 51122  1  0  0  0
 51123  1  0  0  0
 52124  1  0  0  0
 52125  1  0  0  0
 53 54  1  0  0  0
 54 55  2  0  0  0
 54126  1  0  0  0
 55 57  1  0  0  0
 55127  1  0  0  0
 56 69  2  0  0  0
 57 58  2  0  0  0
 57128  1  0  0  0
 58129  1  0  0  0
 59 60  1  0  0  0
 59 61  1  0  0  0
 59 62  1  0  0  0
 60130  1  0  0  0
 60131  1  0  0  0
 60132  1  0  0  0
 61133  1  0  0  0
 61134  1  0  0  0
 61135  1  0  0  0
 62136  1  0  0  0
 62137  1  0  0  0
 62138  1  0  0  0
 63 65  1  0  0  0
 63139  1  0  0  0
 63140  1  0  0  0
 63141  1  0  0  0
 64142  1  0  0  0
 65143  1  0  0  0
 68 78  1  0  0  0
 71 79  1  0  0  0
 71 81  1  0  0  0
 71 84  2  0  0  0
 72144  1  0  0  0
 72145  1  0  0  0
 72146  1  0  0  0
 72 79  1  0  0  0
 73147  1  0  0  0
 73148  1  0  0  0
 73149  1  0  0  0
 73 80  1  0  0  0
 74 80  1  0  0  0
 74150  1  0  0  0
 74151  1  0  0  0
 74152  1  0  0  0
 75 76  1  0  0  0
 75 78  1  0  0  0
 75153  1  0  0  0
 75154  1  0  0  0
 76 83  1  0  0  0
 76155  1  0  0  0
 76156  1  0  0  0
 77 80  1  0  0  0
 77 83  1  0  0  0
 77157  1  0  0  0
 77158  1  0  0  0
 78159  1  0  0  0
 78160  1  0  0  0
 79 80  1  0  0  0
 79161  1  0  0  0
 81 82  1  0  0  0
 81162  1  0  0  0
 82163  1  0  0  0
 83164  1  0  0  0
 83165  1  0  0  0
M  CHG  1  83   1
M  ISO  4   1 100  68 101  78 101  82 100
M  END
> <chiral flag>
0

> <version>
0

> <s_m_source_file>
/data/baiqing/PycharmProjects/Reinvent-master-3.2/result/LINK_invent/BTK/process_docking_weight1_custom_sum_contain_oxygen_bond_distance_aromatic_linkinvent_7_9_3/rearranged_h_0109.sdf

> <i_m_source_file_index>
49

> <r_mmod_Potential_Energy-OPLS-2005>
-254.387222290039

> <r_mmod_Stretch_Energy-OPLS-2005>
40.3261184692383

> <r_mmod_Bend_Energy-OPLS-2005>
104.953834533691

> <r_mmod_Torsional_Energy-OPLS-2005>
267.419586181641

> <r_mmod_Improper_Torsional_Energy-OPLS-2005>
7.34502553939819

> <r_mmod_Van_der_Waal_Energy-OPLS-2005>
141.993942260742

> <r_mmod_Electrostatic_Energy-OPLS-2005>
-364.152587890625

> <r_mmod_Solvation_Energy-OPLS-2005>
-460.633666992188

> <b_mmod_Minimization_Converged-OPLS-2005>
0

> <r_mmod_RMS_Derivative-OPLS-2005>
3.59142136573792

$$$$
49
                    3D
 Structure written by MMmdl.
175183  0  0  1  0            999 V2000
  -30.7066  -14.4281   20.5748 C   0  0  0  0  0  0
  -30.4211  -12.2742   19.4326 C   0  0  0  0  0  0
  -29.5050  -12.5054   18.2122 C   0  0  0  0  0  0
  -28.0200  -12.3809   18.6112 C   0  0  0  0  0  0
  -27.6663  -13.2024   19.8810 C   0  0  2  0  0  0
  -28.7015  -12.9645   21.0063 C   0  0  0  0  0  0
  -25.2604  -13.8142   20.5663 C   0  0  0  0  0  0
  -24.1837  -13.0439   20.9143 C   0  0  0  0  0  0
  -24.6377  -11.6895   20.8695 C   0  0  0  0  0  0
  -23.9036  -10.4287   21.0382 C   0  0  0  0  0  0
  -24.3586   -9.4212   21.9173 C   0  0  0  0  0  0
  -23.6263   -8.2254   22.0763 C   0  0  0  0  0  0
  -22.4250   -8.0276   21.3549 C   0  0  0  0  0  0
  -21.9871   -9.0252   20.4658 C   0  0  0  0  0  0
  -22.7200  -10.2129   20.3050 C   0  0  0  0  0  0
  -21.6861   -6.0717   22.5265 C   0  0  0  0  0  0
  -21.4027   -6.5625   23.8196 C   0  0  0  0  0  0
  -21.3658   -5.6778   24.9162 C   0  0  0  0  0  0
  -21.6042   -4.3043   24.7210 C   0  0  0  0  0  0
  -21.8819   -3.8133   23.4339 C   0  0  0  0  0  0
  -21.9200   -4.6948   22.3392 C   0  0  0  0  0  0
  -22.7868  -13.5267   21.1796 C   0  0  0  0  0  0
  -22.1663   -4.2133   21.0973 F   0  0  0  0  0  0
  -21.5627   -3.4529   25.7730 F   0  0  0  0  0  0
  -30.0415  -13.2492   20.4647 N   0  0  0  0  0  0
  -26.3037  -12.9307   20.3352 N   0  0  0  0  0  0
  -25.9299  -11.6463   20.5717 N   0  0  0  0  0  0
  -22.0482  -12.8287   22.0360 N   0  0  0  0  0  0
  -25.4336  -15.1857   20.4076 N   0  0  0  0  0  0
  -31.8309  -14.6150   20.0986 O   0  0  0  0  0  0
  -21.6649   -6.8855   21.4225 O   0  0  0  0  0  0
  -22.3551  -14.5564   20.6626 O   0  0  0  0  0  0
  -24.6077  -31.8729   23.2119 C   0  0  0  0  0  0
  -25.8991  -32.4847   23.8413 C   0  0  1  0  0  0
  -27.2490  -27.4802   20.0978 C   0  0  0  0  0  0
  -25.5862  -33.8642   24.2336 N   0  0  0  0  0  0
  -23.3968  -30.4939   21.5522 C   0  0  2  0  0  0
  -24.8490  -28.9618   20.1214 C   0  0  0  0  0  0
  -22.7385  -29.4676   22.5012 C   0  0  0  0  0  0
  -18.0270  -28.1403   22.8502 C   0  0  0  0  0  0
  -24.1476  -36.7333   23.2640 C   0  0  0  0  0  0
  -25.9197  -30.8484   21.3633 C   0  0  0  0  0  0
  -26.0015  -29.4831   20.7235 C   0  0  0  0  0  0
  -27.2038  -28.7448   20.7239 C   0  0  0  0  0  0
  -26.0872  -26.9695   19.4858 C   0  0  0  0  0  0
  -24.8839  -27.6993   19.5033 C   0  0  0  0  0  0
  -23.6061  -29.8214   20.1684 C   0  0  0  0  0  0
  -25.4099  -36.3123   24.0331 C   0  0  1  0  0  0
  -20.5858  -28.3673   23.1335 C   0  0  2  0  0  0
  -20.6752  -26.9414   22.5430 C   0  0  0  0  0  0
  -19.5731  -26.6415   21.5222 C   0  0  0  0  0  0
  -18.1911  -26.7950   22.1634 C   0  0  0  0  0  0
  -19.1522  -28.8854   23.2914 C   0  0  0  0  0  0
  -18.9453  -30.1464   23.8918 C   0  0  0  0  0  0
  -17.6455  -30.6596   24.0590 C   0  0  0  0  0  0
  -25.9020  -34.9488   23.5128 C   0  0  0  0  0  0
  -16.5345  -29.9103   23.6348 C   0  0  0  0  0  0
  -16.7260  -28.6530   23.0347 C   0  0  0  0  0  0
  -26.4434  -31.6621   25.0733 C   0  0  0  0  0  0
  -25.3698  -31.3743   26.1485 C   0  0  0  0  0  0
  -27.0264  -30.3056   24.6115 C   0  0  0  0  0  0
  -27.6024  -32.4347   25.7487 C   0  0  0  0  0  0
  -27.5581  -37.1818   24.8456 C   0  0  0  0  0  0
  -21.4117  -29.3031   22.3731 N   0  0  0  0  0  0
  -26.4291  -37.3810   23.9410 N   0  0  0  0  0  0
  -24.6594  -31.0858   22.1015 N   0  0  0  0  0  0
  -23.4161  -28.8215   23.3051 O   0  0  0  0  0  0
  -28.3917  -26.7241   20.0233 O   0  0  0  0  0  0
  -26.5614  -34.8932   22.4704 O   0  0  0  0  0  0
  -23.5273  -32.1472   23.7517 O   0  0  0  0  0  0
  -28.2529  -20.3557   20.6450 C   0  0  0  0  0  0
  -28.8446  -17.1753   19.6874 C   0  0  0  0  0  0
  -30.2888  -17.8959   21.5864 C   0  0  0  0  0  0
  -29.0467  -18.5260   18.9775 C   0  0  0  0  0  0
  -30.5761  -19.2563   20.9017 C   0  0  0  0  0  0
  -30.0863  -16.8192   20.5105 C   0  0  1  0  0  0
  -29.4841  -19.7314   19.8839 C   0  0  2  0  0  0
  -30.7824  -25.1399   19.9605 C   0  0  0  0  0  0
  -30.8177  -25.2021   22.4617 C   0  0  0  0  0  0
  -26.8770  -22.1426   21.6193 C   0  0  0  0  0  0
  -28.8114  -24.1646   21.3150 C   0  0  0  0  0  0
  -29.2433  -22.6959   21.0315 C   0  0  0  0  0  0
  -29.2047  -26.6557   21.1926 C   0  0  0  0  0  0
  -29.9046  -25.2714   21.2246 C   0  0  0  0  0  0
  -29.9642  -15.4526   21.0251 N   0  0  0  0  0  0
  -28.1543  -21.6729   21.0336 N   0  0  0  0  0  0
  -30.0558  -20.7124   18.9439 N   0  3  0  0  0  0
  -27.3146  -19.5846   20.8685 O   0  0  0  0  0  0
  -31.4705  -12.3583   19.1429 H   0  0  0  0  0  0
  -30.2984  -11.2608   19.8171 H   0  0  0  0  0  0
  -29.7425  -11.7908   17.4226 H   0  0  0  0  0  0
  -29.6920  -13.4969   17.7958 H   0  0  0  0  0  0
  -27.8033  -11.3248   18.7781 H   0  0  0  0  0  0
  -27.3870  -12.6927   17.7795 H   0  0  0  0  0  0
  -27.7180  -14.2535   19.5984 H   0  0  0  0  0  0
  -28.6607  -11.9286   21.3459 H   0  0  0  0  0  0
  -28.4687  -13.5663   21.8860 H   0  0  0  0  0  0
  -25.2727   -9.5712   22.4740 H   0  0  0  0  0  0
  -23.9981   -7.4660   22.7485 H   0  0  0  0  0  0
  -21.0802   -8.8758   19.8964 H   0  0  0  0  0  0
  -22.3640  -10.9663   19.6157 H   0  0  0  0  0  0
  -21.2029   -7.6130   23.9682 H   0  0  0  0  0  0
  -21.1478   -6.0520   25.9060 H   0  0  0  0  0  0
  -22.0603   -2.7593   23.2843 H   0  0  0  0  0  0
  -22.4078  -11.9974   22.4804 H   0  0  0  0  0  0
  -21.1106  -13.1352   22.2532 H   0  0  0  0  0  0
  -24.6658  -15.8394   20.5171 H   0  0  0  0  0  0
  -26.2836  -15.6244   20.0791 H   0  0  0  0  0  0
  -26.7072  -32.5588   23.1201 H   0  0  0  0  0  0
  -24.9928  -33.9809   25.0418 H   0  0  0  0  0  0
  -22.6842  -31.3099   21.4107 H   0  0  0  0  0  0
  -23.3719  -35.9686   23.3306 H   0  0  0  0  0  0
  -24.3560  -36.8950   22.2055 H   0  0  0  0  0  0
  -23.7240  -37.6541   23.6656 H   0  0  0  0  0  0
  -26.0231  -31.6074   20.5862 H   0  0  0  0  0  0
  -26.8101  -30.9090   21.9772 H   0  0  0  0  0  0
  -28.0902  -29.1573   21.1828 H   0  0  0  0  0  0
  -26.1157  -26.0039   19.0009 H   0  0  0  0  0  0
  -23.9980  -27.2937   19.0341 H   0  0  0  0  0  0
  -23.7073  -30.5929   19.4041 H   0  0  0  0  0  0
  -22.7337  -29.2331   19.8771 H   0  0  0  0  0  0
  -25.1262  -36.1995   25.0824 H   0  0  0  0  0  0
  -20.9977  -28.3238   24.1445 H   0  0  0  0  0  0
  -20.5670  -26.2274   23.3605 H   0  0  0  0  0  0
  -21.6618  -26.7461   22.1220 H   0  0  0  0  0  0
  -19.6878  -25.6336   21.1221 H   0  0  0  0  0  0
  -19.6666  -27.3247   20.6767 H   0  0  0  0  0  0
  -17.4190  -26.6739   21.4022 H   0  0  0  0  0  0
  -18.0286  -26.0081   22.9020 H   0  0  0  0  0  0
  -19.7922  -30.7297   24.2283 H   0  0  0  0  0  0
  -17.5002  -31.6271   24.5199 H   0  0  0  0  0  0
  -15.5341  -30.3008   23.7658 H   0  0  0  0  0  0
  -15.8666  -28.0856   22.7042 H   0  0  0  0  0  0
  -24.5860  -30.7103   25.7821 H   0  0  0  0  0  0
  -24.8898  -32.2909   26.4931 H   0  0  0  0  0  0
  -25.8037  -30.8912   27.0250 H   0  0  0  0  0  0
  -26.2827  -29.6844   24.1120 H   0  0  0  0  0  0
  -27.3954  -29.7267   25.4593 H   0  0  0  0  0  0
  -27.8686  -30.4351   23.9316 H   0  0  0  0  0  0
  -27.2651  -33.3638   26.2104 H   0  0  0  0  0  0
  -28.3812  -32.6944   25.0302 H   0  0  0  0  0  0
  -28.0730  -31.8462   26.5378 H   0  0  0  0  0  0
  -28.2600  -38.0121   24.7516 H   0  0  0  0  0  0
  -28.1075  -36.2650   24.6245 H   0  0  0  0  0  0
  -27.2305  -37.1437   25.8865 H   0  0  0  0  0  0
  -20.9285  -29.8727   21.6927 H   0  0  0  0  0  0
  -26.0159  -38.2881   24.1426 H   0  0  0  0  0  0
  -28.6619  -16.4087   18.9328 H   0  0  0  0  0  0
  -27.9581  -17.1894   20.3223 H   0  0  0  0  0  0
  -29.4144  -17.9667   22.2358 H   0  0  0  0  0  0
  -31.1286  -17.6296   22.2304 H   0  0  0  0  0  0
  -28.1318  -18.7751   18.4356 H   0  0  0  0  0  0
  -29.7959  -18.3575   18.2024 H   0  0  0  0  0  0
  -31.5357  -19.1689   20.3912 H   0  0  0  0  0  0
  -30.7338  -20.0125   21.6712 H   0  0  0  0  0  0
  -30.9455  -16.8714   19.8377 H   0  0  0  0  0  0
  -31.4644  -24.2918   20.0249 H   0  0  0  0  0  0
  -31.4023  -26.0266   19.8195 H   0  0  0  0  0  0
  -30.1790  -25.0230   19.0597 H   0  0  0  0  0  0
  -31.3330  -24.2435   22.5274 H   0  0  0  0  0  0
  -30.2553  -25.3360   23.3866 H   0  0  0  0  0  0
  -31.5813  -25.9792   22.4293 H   0  0  0  0  0  0
  -26.0795  -21.4024   21.6741 H   0  0  0  0  0  0
  -26.4562  -22.9616   21.0365 H   0  0  0  0  0  0
  -27.0284  -22.4831   22.6437 H   0  0  0  0  0  0
  -28.3455  -24.2434   22.2971 H   0  0  0  0  0  0
  -28.0311  -24.4110   20.5963 H   0  0  0  0  0  0
  -30.0212  -22.3937   21.7335 H   0  0  0  0  0  0
  -29.6903  -22.7624   20.0497 H   0  0  0  0  0  0
  -29.9377  -27.4646   21.1730 H   0  0  0  0  0  0
  -28.6081  -26.7890   22.0973 H   0  0  0  0  0  0
  -29.0778  -15.2021   21.4400 H   0  0  0  0  0  0
  -29.3522  -21.0099   18.2897 H   0  0  0  0  0  0
  -30.8197  -20.3151   18.4252 H   0  0  0  0  0  0
  -30.3907  -21.5192   19.4376 H   0  0  0  0  0  0
  1 25  1  0  0  0
  1 30  2  0  0  0
  1 85  1  0  0  0
  2  3  1  0  0  0
  2 25  1  0  0  0
  2 89  1  0  0  0
  2 90  1  0  0  0
  3  4  1  0  0  0
  3 91  1  0  0  0
  3 92  1  0  0  0
  4  5  1  0  0  0
  4 93  1  0  0  0
  4 94  1  0  0  0
  5  6  1  0  0  0
  5 26  1  0  0  0
  5 95  1  0  0  0
  6 25  1  0  0  0
  6 96  1  0  0  0
  6 97  1  0  0  0
  7  8  2  0  0  0
  7 26  1  0  0  0
  7 29  1  0  0  0
  8  9  1  0  0  0
  8 22  1  0  0  0
  9 10  1  0  0  0
  9 27  2  0  0  0
 10 11  2  0  0  0
 10 15  1  0  0  0
 11 12  1  0  0  0
 11 98  1  0  0  0
 12 13  2  0  0  0
 12 99  1  0  0  0
 13 14  1  0  0  0
 13 31  1  0  0  0
 14 15  2  0  0  0
 14100  1  0  0  0
 15101  1  0  0  0
 16 17  2  0  0  0
 16 21  1  0  0  0
 16 31  1  0  0  0
 17 18  1  0  0  0
 17102  1  0  0  0
 18 19  2  0  0  0
 18103  1  0  0  0
 19 20  1  0  0  0
 19 24  1  0  0  0
 20 21  2  0  0  0
 20104  1  0  0  0
 21 23  1  0  0  0
 22 28  1  0  0  0
 22 32  2  0  0  0
 26 27  1  0  0  0
 28105  1  0  0  0
 28106  1  0  0  0
 29107  1  0  0  0
 29108  1  0  0  0
 33 34  1  0  0  0
 33 66  1  0  0  0
 33 70  2  0  0  0
 34 36  1  0  0  0
 34 59  1  0  0  0
 34109  1  0  0  0
 35 44  2  0  0  0
 35 45  1  0  0  0
 35 68  1  0  0  0
 36 56  1  0  0  0
 36110  1  0  0  0
 37 39  1  0  0  0
 37 47  1  0  0  0
 37 66  1  0  0  0
 37111  1  0  0  0
 38 43  2  0  0  0
 38 46  1  0  0  0
 38 47  1  0  0  0
 39 64  1  0  0  0
 39 67  2  0  0  0
 40 52  1  0  0  0
 40 53  2  0  0  0
 40 58  1  0  0  0
 41112  1  0  0  0
 41113  1  0  0  0
 41114  1  0  0  0
 41 48  1  0  0  0
 42 43  1  0  0  0
 42 66  1  0  0  0
 42115  1  0  0  0
 42116  1  0  0  0
 43 44  1  0  0  0
 44117  1  0  0  0
 45 46  2  0  0  0
 45118  1  0  0  0
 46119  1  0  0  0
 47120  1  0  0  0
 47121  1  0  0  0
 48 56  1  0  0  0
 48 65  1  0  0  0
 48122  1  0  0  0
 49 50  1  0  0  0
 49 53  1  0  0  0
 49 64  1  0  0  0
 49123  1  0  0  0
 50 51  1  0  0  0
 50124  1  0  0  0
 50125  1  0  0  0
 51 52  1  0  0  0
 51126  1  0  0  0
 51127  1  0  0  0
 52128  1  0  0  0
 52129  1  0  0  0
 53 54  1  0  0  0
 54 55  2  0  0  0
 54130  1  0  0  0
 55 57  1  0  0  0
 55131  1  0  0  0
 56 69  2  0  0  0
 57 58  2  0  0  0
 57132  1  0  0  0
 58133  1  0  0  0
 59 60  1  0  0  0
 59 61  1  0  0  0
 59 62  1  0  0  0
 60134  1  0  0  0
 60135  1  0  0  0
 60136  1  0  0  0
 61137  1  0  0  0
 61138  1  0  0  0
 61139  1  0  0  0
 62140  1  0  0  0
 62141  1  0  0  0
 62142  1  0  0  0
 63 65  1  0  0  0
 63143  1  0  0  0
 63144  1  0  0  0
 63145  1  0  0  0
 64146  1  0  0  0
 65147  1  0  0  0
 68 83  1  0  0  0
 71 86  1  0  0  0
 71 88  2  0  0  0
 71 77  1  0  0  0
 72 74  1  0  0  0
 72 76  1  0  0  0
 72148  1  0  0  0
 72149  1  0  0  0
 73 75  1  0  0  0
 73 76  1  0  0  0
 73150  1  0  0  0
 73151  1  0  0  0
 74 77  1  0  0  0
 74152  1  0  0  0
 74153  1  0  0  0
 75 77  1  0  0  0
 75154  1  0  0  0
 75155  1  0  0  0
 76 85  1  0  0  0
 76156  1  0  0  0
 77 87  1  0  0  0
 78157  1  0  0  0
 78158  1  0  0  0
 78159  1  0  0  0
 78 84  1  0  0  0
 79 84  1  0  0  0
 79160  1  0  0  0
 79161  1  0  0  0
 79162  1  0  0  0
 80 86  1  0  0  0
 80163  1  0  0  0
 80164  1  0  0  0
 80165  1  0  0  0
 81 82  1  0  0  0
 81 84  1  0  0  0
 81166  1  0  0  0
 81167  1  0  0  0
 82 86  1  0  0  0
 82168  1  0  0  0
 82169  1  0  0  0
 83 84  1  0  0  0
 83170  1  0  0  0
 83171  1  0  0  0
 85172  1  0  0  0
 87173  1  0  0  0
 87174  1  0  0  0
 87175  1  0  0  0
M  CHG  1  87   1
M  ISO  4   1 100  68 101  83 101  85 100
M  END
> <chiral flag>
0

> <version>
0

> <s_m_source_file>
/data/baiqing/PycharmProjects/Reinvent-master-3.2/result/LINK_invent/BTK/process_docking_weight1_custom_sum_contain_oxygen_bond_distance_aromatic_linkinvent_7_9_3/rearranged_h_0109.sdf

> <i_m_source_file_index>
50

> <r_mmod_Potential_Energy-OPLS-2005>
-215.520156860352

> <r_mmod_Stretch_Energy-OPLS-2005>
48.3017196655273

> <r_mmod_Bend_Energy-OPLS-2005>
127.7490234375

> <r_mmod_Torsional_Energy-OPLS-2005>
276.626922607422

> <r_mmod_Improper_Torsional_Energy-OPLS-2005>
7.10413932800293

> <r_mmod_Van_der_Waal_Energy-OPLS-2005>
170.05729675293

> <r_mmod_Electrostatic_Energy-OPLS-2005>
-347.290069580078

> <r_mmod_Solvation_Energy-OPLS-2005>
-506.642059326172

> <b_mmod_Minimization_Converged-OPLS-2005>
0

> <r_mmod_RMS_Derivative-OPLS-2005>
2.29670882225037

$$$$
50
                    3D
 Structure written by MMmdl.
140147  0  0  1  0            999 V2000
  -29.9389  -16.5760   20.2662 C   0  0  0  0  0  0
  -30.3176  -13.8043   19.5262 C   0  0  0  0  0  0
  -29.5742  -12.9496   18.4171 C   0  0  0  0  0  0
  -28.2410  -12.3836   18.9092 C   0  0  0  0  0  0
  -27.5756  -13.4264   19.8179 C   0  0  2  0  0  0
  -28.5156  -14.1344   20.8629 C   0  0  0  0  0  0
  -25.2173  -13.8472   20.5943 C   0  0  0  0  0  0
  -24.1678  -13.0461   20.9345 C   0  0  0  0  0  0
  -24.6544  -11.7026   20.8745 C   0  0  0  0  0  0
  -23.9256  -10.4317   21.0339 C   0  0  0  0  0  0
  -24.3737   -9.4225   21.9148 C   0  0  0  0  0  0
  -23.6361   -8.2282   22.0747 C   0  0  0  0  0  0
  -22.4338   -8.0319   21.3542 C   0  0  0  0  0  0
  -22.0013   -9.0301   20.4633 C   0  0  0  0  0  0
  -22.7394  -10.2155   20.3016 C   0  0  0  0  0  0
  -21.6876   -6.0762   22.5275 C   0  0  0  0  0  0
  -21.4033   -6.5654   23.8212 C   0  0  0  0  0  0
  -21.3666   -5.6801   24.9169 C   0  0  0  0  0  0
  -21.6044   -4.3063   24.7216 C   0  0  0  0  0  0
  -21.8816   -3.8161   23.4334 C   0  0  0  0  0  0
  -21.9200   -4.6985   22.3394 C   0  0  0  0  0  0
  -22.7653  -13.5088   21.1941 C   0  0  0  0  0  0
  -22.1662   -4.2166   21.0972 F   0  0  0  0  0  0
  -21.5626   -3.4543   25.7727 F   0  0  0  0  0  0
  -29.5184  -15.0479   20.1521 N   0  0  0  0  0  0
  -26.2809  -13.0062   20.3467 N   0  0  0  0  0  0
  -25.9553  -11.6988   20.5673 N   0  0  0  0  0  0
  -22.0350  -12.8037   22.0491 N   0  0  0  0  0  0
  -25.3537  -15.2234   20.4362 N   0  0  0  0  0  0
  -31.1888  -16.3514   20.2253 O   0  0  0  0  0  0
  -21.6675   -6.8925   21.4245 O   0  0  0  0  0  0
  -22.3286  -14.5370   20.6771 O   0  0  0  0  0  0
  -24.7457  -31.7205   23.0969 C   0  0  0  0  0  0
  -25.9716  -32.4085   23.7760 C   0  0  1  0  0  0
  -27.2638  -26.0517   20.2693 C   0  0  0  0  0  0
  -25.6018  -33.7947   24.1574 N   0  0  0  0  0  0
  -23.6009  -30.2905   21.4671 C   0  0  2  0  0  0
  -25.0637  -28.4896   20.1401 C   0  0  0  0  0  0
  -22.8040  -29.3890   22.4546 C   0  0  0  0  0  0
  -18.0378  -28.1458   22.8418 C   0  0  0  0  0  0
  -24.1497  -36.6992   23.2669 C   0  0  0  0  0  0
  -26.2013  -30.2374   21.4588 C   0  0  0  0  0  0
  -26.2612  -28.7278   20.8222 C   0  0  0  0  0  0
  -27.3109  -27.5622   20.8345 C   0  0  0  0  0  0
  -26.0278  -26.1887   19.5221 C   0  0  0  0  0  0
  -25.0247  -27.2496   19.4637 C   0  0  0  0  0  0
  -23.8893  -29.5225   20.1331 C   0  0  0  0  0  0
  -25.4171  -36.2675   24.0235 C   0  0  1  0  0  0
  -20.6040  -28.3838   23.1030 C   0  0  2  0  0  0
  -20.6807  -26.9438   22.5422 C   0  0  0  0  0  0
  -19.5800  -26.6350   21.5224 C   0  0  0  0  0  0
  -18.1980  -26.7973   22.1602 C   0  0  0  0  0  0
  -19.1659  -28.8987   23.2685 C   0  0  0  0  0  0
  -18.9556  -30.1553   23.8760 C   0  0  0  0  0  0
  -17.6539  -30.6620   24.0540 C   0  0  0  0  0  0
  -25.9188  -34.9081   23.4795 C   0  0  0  0  0  0
  -16.5425  -29.9094   23.6366 C   0  0  0  0  0  0
  -16.7355  -28.6524   23.0371 C   0  0  0  0  0  0
  -26.4696  -31.6404   25.0646 C   0  0  0  0  0  0
  -25.3601  -31.3894   26.1144 C   0  0  0  0  0  0
  -27.0736  -30.2687   24.6993 C   0  0  0  0  0  0
  -27.6016  -32.4423   25.7499 C   0  0  0  0  0  0
  -27.5542  -37.1647   24.8468 C   0  0  0  0  0  0
  -21.4633  -29.2949   22.3280 N   0  0  0  0  0  0
  -26.4243  -37.3508   23.9408 N   0  0  0  0  0  0
  -24.8815  -30.7987   22.0595 N   0  0  0  0  0  0
  -23.4175  -28.7610   23.3196 O   0  0  0  0  0  0
  -28.1693  -24.5545   20.3177 O   0  0  0  0  0  0
  -26.5930  -34.8792   22.4483 O   0  0  0  0  0  0
  -23.6342  -32.0579   23.5511 O   0  0  0  0  0  0
  -30.0741  -20.5256   21.5707 C   0  0  0  0  0  0
  -28.2019  -22.4477   20.2407 C   0  0  0  0  0  0
  -29.2098  -20.3157   20.3240 C   0  0  2  0  0  0
  -29.2104  -18.2064   20.2672 N   0  0  0  0  0  0
  -31.2158  -14.1969   19.0487 H   0  0  0  0  0  0
  -30.7119  -13.1524   20.3084 H   0  0  0  0  0  0
  -30.2168  -12.1445   18.0582 H   0  0  0  0  0  0
  -29.3864  -13.5934   17.5565 H   0  0  0  0  0  0
  -28.4344  -11.4763   19.4828 H   0  0  0  0  0  0
  -27.5966  -12.1026   18.0751 H   0  0  0  0  0  0
  -27.3221  -14.2175   19.1099 H   0  0  0  0  0  0
  -28.9737  -13.4199   21.5493 H   0  0  0  0  0  0
  -27.9166  -14.7827   21.5028 H   0  0  0  0  0  0
  -25.2866   -9.5689   22.4751 H   0  0  0  0  0  0
  -24.0041   -7.4683   22.7494 H   0  0  0  0  0  0
  -21.0936   -8.8847   19.8945 H   0  0  0  0  0  0
  -22.3851  -10.9693   19.6126 H   0  0  0  0  0  0
  -21.2032   -7.6163   23.9719 H   0  0  0  0  0  0
  -21.1489   -6.0529   25.9073 H   0  0  0  0  0  0
  -22.0586   -2.7622   23.2829 H   0  0  0  0  0  0
  -22.4038  -11.9741   22.4902 H   0  0  0  0  0  0
  -21.0934  -13.0976   22.2670 H   0  0  0  0  0  0
  -24.5706  -15.8588   20.5446 H   0  0  0  0  0  0
  -26.1953  -15.6806   20.1107 H   0  0  0  0  0  0
  -26.7881  -32.4437   23.0534 H   0  0  0  0  0  0
  -24.9951  -33.8867   24.9586 H   0  0  0  0  0  0
  -22.9650  -31.1429   21.2192 H   0  0  0  0  0  0
  -23.3792  -35.9284   23.3224 H   0  0  0  0  0  0
  -24.3543  -36.8802   22.2105 H   0  0  0  0  0  0
  -23.7232  -37.6105   23.6870 H   0  0  0  0  0  0
  -26.4674  -30.9159   20.6473 H   0  0  0  0  0  0
  -27.0318  -30.3264   22.1448 H   0  0  0  0  0  0
  -28.2003  -27.7844   21.4070 H   0  0  0  0  0  0
  -25.7594  -25.3047   18.9609 H   0  0  0  0  0  0
  -24.1430  -27.0414   18.8732 H   0  0  0  0  0  0
  -24.1163  -30.2523   19.3553 H   0  0  0  0  0  0
  -22.9818  -29.0198   19.7947 H   0  0  0  0  0  0
  -25.1411  -36.1344   25.0721 H   0  0  0  0  0  0
  -21.0094  -28.3511   24.1170 H   0  0  0  0  0  0
  -20.5604  -26.2483   23.3741 H   0  0  0  0  0  0
  -21.6666  -26.7278   22.1287 H   0  0  0  0  0  0
  -19.6945  -25.6223   21.1346 H   0  0  0  0  0  0
  -19.6769  -27.3084   20.6697 H   0  0  0  0  0  0
  -17.4258  -26.6727   21.3994 H   0  0  0  0  0  0
  -18.0335  -26.0147   22.9022 H   0  0  0  0  0  0
  -19.8034  -30.7398   24.2072 H   0  0  0  0  0  0
  -17.5091  -31.6283   24.5175 H   0  0  0  0  0  0
  -15.5420  -30.2956   23.7770 H   0  0  0  0  0  0
  -15.8754  -28.0803   22.7156 H   0  0  0  0  0  0
  -24.5819  -30.7231   25.7404 H   0  0  0  0  0  0
  -24.8771  -32.3175   26.4210 H   0  0  0  0  0  0
  -25.7626  -30.9259   27.0160 H   0  0  0  0  0  0
  -26.3561  -29.6088   24.2112 H   0  0  0  0  0  0
  -27.4049  -29.7403   25.5944 H   0  0  0  0  0  0
  -27.9575  -30.3693   24.0695 H   0  0  0  0  0  0
  -27.2462  -33.3856   26.1659 H   0  0  0  0  0  0
  -28.4030  -32.6778   25.0485 H   0  0  0  0  0  0
  -28.0464  -31.8850   26.5753 H   0  0  0  0  0  0
  -28.2487  -38.0005   24.7520 H   0  0  0  0  0  0
  -28.1107  -36.2517   24.6294 H   0  0  0  0  0  0
  -27.2252  -37.1265   25.8867 H   0  0  0  0  0  0
  -21.0095  -29.8496   21.6155 H   0  0  0  0  0  0
  -26.0011  -38.2525   24.1434 H   0  0  0  0  0  0
  -30.4923  -21.5323   21.5890 H   0  0  0  0  0  0
  -30.9066  -19.8227   21.6054 H   0  0  0  0  0  0
  -29.4839  -20.3969   22.4782 H   0  0  0  0  0  0
  -27.4360  -22.2889   20.9997 H   0  0  0  0  0  0
  -27.6577  -22.3405   19.3024 H   0  0  0  0  0  0
  -29.8778  -20.4468   19.4720 H   0  0  0  0  0  0
  -28.2262  -17.9723   20.2107 H   0  0  0  0  0  0
  1 25  1  0  0  0
  1 30  2  0  0  0
  1 74  1  0  0  0
  2  3  1  0  0  0
  2 25  1  0  0  0
  2 75  1  0  0  0
  2 76  1  0  0  0
  3  4  1  0  0  0
  3 77  1  0  0  0
  3 78  1  0  0  0
  4  5  1  0  0  0
  4 79  1  0  0  0
  4 80  1  0  0  0
  5  6  1  0  0  0
  5 26  1  0  0  0
  5 81  1  0  0  0
  6 25  1  0  0  0
  6 82  1  0  0  0
  6 83  1  0  0  0
  7  8  2  0  0  0
  7 26  1  0  0  0
  7 29  1  0  0  0
  8  9  1  0  0  0
  8 22  1  0  0  0
  9 10  1  0  0  0
  9 27  2  0  0  0
 10 11  2  0  0  0
 10 15  1  0  0  0
 11 12  1  0  0  0
 11 84  1  0  0  0
 12 13  2  0  0  0
 12 85  1  0  0  0
 13 14  1  0  0  0
 13 31  1  0  0  0
 14 15  2  0  0  0
 14 86  1  0  0  0
 15 87  1  0  0  0
 16 17  2  0  0  0
 16 21  1  0  0  0
 16 31  1  0  0  0
 17 18  1  0  0  0
 17 88  1  0  0  0
 18 19  2  0  0  0
 18 89  1  0  0  0
 19 20  1  0  0  0
 19 24  1  0  0  0
 20 21  2  0  0  0
 20 90  1  0  0  0
 21 23  1  0  0  0
 22 28  1  0  0  0
 22 32  2  0  0  0
 26 27  1  0  0  0
 28 91  1  0  0  0
 28 92  1  0  0  0
 29 93  1  0  0  0
 29 94  1  0  0  0
 33 34  1  0  0  0
 33 66  1  0  0  0
 33 70  2  0  0  0
 34 36  1  0  0  0
 34 59  1  0  0  0
 34 95  1  0  0  0
 35 44  2  0  0  0
 35 45  1  0  0  0
 35 68  1  0  0  0
 36 56  1  0  0  0
 36 96  1  0  0  0
 37 39  1  0  0  0
 37 47  1  0  0  0
 37 66  1  0  0  0
 37 97  1  0  0  0
 38 43  2  0  0  0
 38 46  1  0  0  0
 38 47  1  0  0  0
 39 64  1  0  0  0
 39 67  2  0  0  0
 40 52  1  0  0  0
 40 53  2  0  0  0
 40 58  1  0  0  0
 41 98  1  0  0  0
 41 99  1  0  0  0
 41100  1  0  0  0
 41 48  1  0  0  0
 42 43  1  0  0  0
 42 66  1  0  0  0
 42101  1  0  0  0
 42102  1  0  0  0
 43 44  1  0  0  0
 44103  1  0  0  0
 45 46  2  0  0  0
 45104  1  0  0  0
 46105  1  0  0  0
 47106  1  0  0  0
 47107  1  0  0  0
 48 56  1  0  0  0
 48 65  1  0  0  0
 48108  1  0  0  0
 49 50  1  0  0  0
 49 53  1  0  0  0
 49 64  1  0  0  0
 49109  1  0  0  0
 50 51  1  0  0  0
 50110  1  0  0  0
 50111  1  0  0  0
 51 52  1  0  0  0
 51112  1  0  0  0
 51113  1  0  0  0
 52114  1  0  0  0
 52115  1  0  0  0
 53 54  1  0  0  0
 54 55  2  0  0  0
 54116  1  0  0  0
 55 57  1  0  0  0
 55117  1  0  0  0
 56 69  2  0  0  0
 57 58  2  0  0  0
 57118  1  0  0  0
 58119  1  0  0  0
 59 60  1  0  0  0
 59 61  1  0  0  0
 59 62  1  0  0  0
 60120  1  0  0  0
 60121  1  0  0  0
 60122  1  0  0  0
 61123  1  0  0  0
 61124  1  0  0  0
 61125  1  0  0  0
 62126  1  0  0  0
 62127  1  0  0  0
 62128  1  0  0  0
 63 65  1  0  0  0
 63129  1  0  0  0
 63130  1  0  0  0
 63131  1  0  0  0
 64132  1  0  0  0
 65133  1  0  0  0
 68 72  1  0  0  0
 71134  1  0  0  0
 71135  1  0  0  0
 71136  1  0  0  0
 71 73  1  0  0  0
 72 73  1  0  0  0
 72137  1  0  0  0
 72138  1  0  0  0
 73 74  1  0  0  0
 73139  1  0  0  0
 74140  1  0  0  0
M  ISO  4   1 100  68 101  72 101  74 100
M  END
> <chiral flag>
0

> <version>
0

> <s_m_source_file>
/data/baiqing/PycharmProjects/Reinvent-master-3.2/result/LINK_invent/BTK/process_docking_weight1_custom_sum_contain_oxygen_bond_distance_aromatic_linkinvent_7_9_3/rearranged_h_0109.sdf

> <i_m_source_file_index>
51

> <r_mmod_Potential_Energy-OPLS-2005>
6874.669921875

> <r_mmod_Stretch_Energy-OPLS-2005>
3161.67700195312

> <r_mmod_Bend_Energy-OPLS-2005>
1107.17126464844

> <r_mmod_Torsional_Energy-OPLS-2005>
219.971496582031

> <r_mmod_Improper_Torsional_Energy-OPLS-2005>
4.63404893875122

> <r_mmod_Van_der_Waal_Energy-OPLS-2005>
118.461982727051

> <r_mmod_Electrostatic_Energy-OPLS-2005>
-364.919128417969

> <r_mmod_Solvation_Energy-OPLS-2005>
-226.15885925293

> <b_mmod_Minimization_Converged-OPLS-2005>
0

> <r_mmod_RMS_Derivative-OPLS-2005>
0.380653589963913

$$$$
51
                    3D
 Structure written by MMmdl.
160168  0  0  1  0            999 V2000
  -30.5894  -14.6703   20.5181 C   0  0  0  0  0  0
  -30.4456  -12.4191   19.4467 C   0  0  0  0  0  0
  -29.5085  -12.5208   18.2219 C   0  0  0  0  0  0
  -28.0336  -12.3415   18.6375 C   0  0  0  0  0  0
  -27.6557  -13.2077   19.8679 C   0  0  2  0  0  0
  -28.7023  -13.0555   20.9936 C   0  0  0  0  0  0
  -25.2595  -13.8150   20.5659 C   0  0  0  0  0  0
  -24.1848  -13.0434   20.9161 C   0  0  0  0  0  0
  -24.6392  -11.6897   20.8734 C   0  0  0  0  0  0
  -23.9039  -10.4289   21.0401 C   0  0  0  0  0  0
  -24.3588   -9.4215   21.9189 C   0  0  0  0  0  0
  -23.6270   -8.2256   22.0776 C   0  0  0  0  0  0
  -22.4262   -8.0275   21.3551 C   0  0  0  0  0  0
  -21.9882   -9.0238   20.4653 C   0  0  0  0  0  0
  -22.7208  -10.2121   20.3061 C   0  0  0  0  0  0
  -21.6860   -6.0716   22.5267 C   0  0  0  0  0  0
  -21.4019   -6.5623   23.8191 C   0  0  0  0  0  0
  -21.3663   -5.6780   24.9158 C   0  0  0  0  0  0
  -21.6044   -4.3048   24.7221 C   0  0  0  0  0  0
  -21.8827   -3.8131   23.4346 C   0  0  0  0  0  0
  -21.9205   -4.6942   22.3397 C   0  0  0  0  0  0
  -22.7878  -13.5247   21.1788 C   0  0  0  0  0  0
  -22.1673   -4.2121   21.0980 F   0  0  0  0  0  0
  -21.5632   -3.4539   25.7743 F   0  0  0  0  0  0
  -30.0062  -13.4315   20.4265 N   0  0  0  0  0  0
  -26.3013  -12.9309   20.3359 N   0  0  0  0  0  0
  -25.9336  -11.6474   20.5796 N   0  0  0  0  0  0
  -22.0515  -12.8254   22.0351 N   0  0  0  0  0  0
  -25.4369  -15.1854   20.4018 N   0  0  0  0  0  0
  -31.7508  -14.8624   20.1490 O   0  0  0  0  0  0
  -21.6646   -6.8861   21.4235 O   0  0  0  0  0  0
  -22.3574  -14.5550   20.6628 O   0  0  0  0  0  0
  -24.6257  -31.8598   23.2020 C   0  0  0  0  0  0
  -25.9093  -32.4787   23.8368 C   0  0  1  0  0  0
  -27.2356  -27.3116   20.1414 C   0  0  0  0  0  0
  -25.5913  -33.8591   24.2287 N   0  0  0  0  0  0
  -23.4213  -30.4820   21.5418 C   0  0  2  0  0  0
  -24.8696  -28.9195   20.1229 C   0  0  0  0  0  0
  -22.7472  -29.4627   22.4905 C   0  0  0  0  0  0
  -18.0283  -28.1403   22.8480 C   0  0  0  0  0  0
  -24.1499  -36.7321   23.2647 C   0  0  0  0  0  0
  -25.9592  -30.7859   21.3758 C   0  0  0  0  0  0
  -26.0315  -29.4064   20.7308 C   0  0  0  0  0  0
  -27.2133  -28.6126   20.7316 C   0  0  0  0  0  0
  -26.0507  -26.8665   19.5138 C   0  0  0  0  0  0
  -24.8769  -27.6518   19.5126 C   0  0  0  0  0  0
  -23.6440  -29.8131   20.1574 C   0  0  0  0  0  0
  -25.4120  -36.3101   24.0334 C   0  0  1  0  0  0
  -20.5883  -28.3716   23.1279 C   0  0  2  0  0  0
  -20.6781  -26.9434   22.5415 C   0  0  0  0  0  0
  -19.5755  -26.6381   21.5230 C   0  0  0  0  0  0
  -18.1927  -26.7944   22.1626 C   0  0  0  0  0  0
  -19.1533  -28.8869   23.2878 C   0  0  0  0  0  0
  -18.9468  -30.1464   23.8912 C   0  0  0  0  0  0
  -17.6472  -30.6602   24.0580 C   0  0  0  0  0  0
  -25.9043  -34.9462   23.5103 C   0  0  0  0  0  0
  -16.5361  -29.9115   23.6318 C   0  0  0  0  0  0
  -16.7270  -28.6534   23.0337 C   0  0  0  0  0  0
  -26.4473  -31.6613   25.0745 C   0  0  0  0  0  0
  -25.3711  -31.3739   26.1478 C   0  0  0  0  0  0
  -27.0336  -30.3052   24.6192 C   0  0  0  0  0  0
  -27.6030  -32.4364   25.7510 C   0  0  0  0  0  0
  -27.5585  -37.1827   24.8452 C   0  0  0  0  0  0
  -21.4182  -29.3083   22.3671 N   0  0  0  0  0  0
  -26.4303  -37.3790   23.9396 N   0  0  0  0  0  0
  -24.6870  -31.0611   22.0970 N   0  0  0  0  0  0
  -23.4192  -28.8153   23.2979 O   0  0  0  0  0  0
  -28.4223  -26.5661   20.0827 O   0  0  0  0  0  0
  -26.5609  -34.8924   22.4665 O   0  0  0  0  0  0
  -23.5423  -32.1395   23.7343 O   0  0  0  0  0  0
  -28.0474  -23.1424   21.1677 C   0  0  0  0  0  0
  -29.1617  -22.4805   20.5724 C   0  0  0  0  0  0
  -29.8860  -23.3482   19.7105 C   0  0  0  0  0  0
  -28.5101  -25.1817   20.1625 C   0  0  0  0  0  0
  -31.1388  -22.9103   18.9735 C   0  0  0  0  0  0
  -29.6893  -20.8961   22.5347 C   0  0  0  0  0  0
  -28.3386  -19.9783   19.1664 C   0  0  0  0  0  0
  -29.7395  -17.2050   21.1328 C   0  0  0  0  0  0
  -30.0560  -18.5137   20.2393 C   0  0  0  0  0  0
  -29.6869  -21.0240   21.0008 C   0  0  1  0  0  0
  -27.7327  -24.4622   20.9744 N   0  0  0  0  0  0
  -29.5595  -24.6564   19.5279 N   0  0  0  0  0  0
  -29.7343  -15.6930   20.8770 N   0  0  0  0  0  0
  -29.1194  -19.7305   20.4006 N   0  3  1  0  0  0
  -31.4824  -12.5671   19.1418 H   0  0  0  0  0  0
  -30.4013  -11.4210   19.8863 H   0  0  0  0  0  0
  -29.7777  -11.7720   17.4758 H   0  0  0  0  0  0
  -29.6360  -13.4951   17.7446 H   0  0  0  0  0  0
  -27.8810  -11.2868   18.8681 H   0  0  0  0  0  0
  -27.3735  -12.5664   17.7993 H   0  0  0  0  0  0
  -27.6763  -14.2423   19.5272 H   0  0  0  0  0  0
  -28.7350  -12.0271   21.3561 H   0  0  0  0  0  0
  -28.4442  -13.6629   21.8630 H   0  0  0  0  0  0
  -25.2745   -9.5698   22.4739 H   0  0  0  0  0  0
  -23.9986   -7.4663   22.7507 H   0  0  0  0  0  0
  -21.0820   -8.8729   19.8944 H   0  0  0  0  0  0
  -22.3666  -10.9638   19.6147 H   0  0  0  0  0  0
  -21.2005   -7.6126   23.9675 H   0  0  0  0  0  0
  -21.1478   -6.0522   25.9048 H   0  0  0  0  0  0
  -22.0607   -2.7592   23.2860 H   0  0  0  0  0  0
  -22.4133  -11.9896   22.4701 H   0  0  0  0  0  0
  -21.1133  -13.1305   22.2556 H   0  0  0  0  0  0
  -24.6712  -15.8472   20.4760 H   0  0  0  0  0  0
  -26.2858  -15.6007   20.0420 H   0  0  0  0  0  0
  -26.7163  -32.5462   23.1126 H   0  0  0  0  0  0
  -25.0108  -33.9733   25.0464 H   0  0  0  0  0  0
  -22.7173  -31.3036   21.3925 H   0  0  0  0  0  0
  -23.3753  -35.9656   23.3293 H   0  0  0  0  0  0
  -24.3601  -36.8963   22.2062 H   0  0  0  0  0  0
  -23.7249  -37.6524   23.6679 H   0  0  0  0  0  0
  -26.0873  -31.5410   20.5994 H   0  0  0  0  0  0
  -26.8401  -30.8433   22.0027 H   0  0  0  0  0  0
  -28.1159  -28.9919   21.1931 H   0  0  0  0  0  0
  -26.0288  -25.9035   19.0244 H   0  0  0  0  0  0
  -23.9829  -27.2728   19.0353 H   0  0  0  0  0  0
  -23.7912  -30.5918   19.4077 H   0  0  0  0  0  0
  -22.7604  -29.2602   19.8364 H   0  0  0  0  0  0
  -25.1297  -36.1973   25.0831 H   0  0  0  0  0  0
  -20.9974  -28.3307   24.1403 H   0  0  0  0  0  0
  -20.5705  -26.2331   23.3630 H   0  0  0  0  0  0
  -21.6647  -26.7476   22.1204 H   0  0  0  0  0  0
  -19.6916  -25.6277   21.1300 H   0  0  0  0  0  0
  -19.6703  -27.3160   20.6737 H   0  0  0  0  0  0
  -17.4207  -26.6701   21.4018 H   0  0  0  0  0  0
  -18.0306  -26.0084   22.9016 H   0  0  0  0  0  0
  -19.7943  -30.7265   24.2305 H   0  0  0  0  0  0
  -17.5033  -31.6279   24.5184 H   0  0  0  0  0  0
  -15.5362  -30.3041   23.7627 H   0  0  0  0  0  0
  -15.8673  -28.0877   22.7036 H   0  0  0  0  0  0
  -24.5860  -30.7121   25.7808 H   0  0  0  0  0  0
  -24.8926  -32.2902   26.4958 H   0  0  0  0  0  0
  -25.8037  -30.8881   27.0232 H   0  0  0  0  0  0
  -26.2916  -29.6797   24.1223 H   0  0  0  0  0  0
  -27.4056  -29.7320   25.4691 H   0  0  0  0  0  0
  -27.8765  -30.4364   23.9405 H   0  0  0  0  0  0
  -27.2630  -33.3654   26.2107 H   0  0  0  0  0  0
  -28.3828  -32.6959   25.0337 H   0  0  0  0  0  0
  -28.0718  -31.8494   26.5423 H   0  0  0  0  0  0
  -28.2592  -38.0141   24.7518 H   0  0  0  0  0  0
  -28.1105  -36.2666   24.6259 H   0  0  0  0  0  0
  -27.2305  -37.1450   25.8861 H   0  0  0  0  0  0
  -20.9348  -29.8884   21.6957 H   0  0  0  0  0  0
  -26.0191  -38.2875   24.1385 H   0  0  0  0  0  0
  -27.4167  -22.6194   21.8725 H   0  0  0  0  0  0
  -30.9958  -21.9418   18.4979 H   0  0  0  0  0  0
  -31.9807  -22.8394   19.6624 H   0  0  0  0  0  0
  -31.4100  -23.6205   18.1918 H   0  0  0  0  0  0
  -30.2809  -21.6862   22.9968 H   0  0  0  0  0  0
  -30.1208  -19.9482   22.8590 H   0  0  0  0  0  0
  -28.6839  -20.9517   22.9526 H   0  0  0  0  0  0
  -27.9185  -19.0529   18.7711 H   0  0  0  0  0  0
  -28.9585  -20.4232   18.3888 H   0  0  0  0  0  0
  -27.5024  -20.6516   19.3587 H   0  0  0  0  0  0
  -30.8128  -17.0272   21.0960 H   0  0  0  0  0  0
  -28.9322  -17.0540   20.4152 H   0  0  0  0  0  0
  -30.1455  -18.2376   19.1853 H   0  0  0  0  0  0
  -31.0596  -18.8754   20.4794 H   0  0  0  0  0  0
  -30.7382  -21.0220   20.7179 H   0  0  0  0  0  0
  -28.8315  -15.2979   21.0978 H   0  0  0  0  0  0
  -28.4287  -19.4209   21.0677 H   0  0  0  0  0  0
  1 25  1  0  0  0
  1 30  2  0  0  0
  1 83  1  0  0  0
  2  3  1  0  0  0
  2 25  1  0  0  0
  2 85  1  0  0  0
  2 86  1  0  0  0
  3  4  1  0  0  0
  3 87  1  0  0  0
  3 88  1  0  0  0
  4  5  1  0  0  0
  4 89  1  0  0  0
  4 90  1  0  0  0
  5  6  1  0  0  0
  5 26  1  0  0  0
  5 91  1  0  0  0
  6 25  1  0  0  0
  6 92  1  0  0  0
  6 93  1  0  0  0
  7  8  2  0  0  0
  7 26  1  0  0  0
  7 29  1  0  0  0
  8  9  1  0  0  0
  8 22  1  0  0  0
  9 10  1  0  0  0
  9 27  2  0  0  0
 10 11  2  0  0  0
 10 15  1  0  0  0
 11 12  1  0  0  0
 11 94  1  0  0  0
 12 13  2  0  0  0
 12 95  1  0  0  0
 13 14  1  0  0  0
 13 31  1  0  0  0
 14 15  2  0  0  0
 14 96  1  0  0  0
 15 97  1  0  0  0
 16 17  2  0  0  0
 16 21  1  0  0  0
 16 31  1  0  0  0
 17 18  1  0  0  0
 17 98  1  0  0  0
 18 19  2  0  0  0
 18 99  1  0  0  0
 19 20  1  0  0  0
 19 24  1  0  0  0
 20 21  2  0  0  0
 20100  1  0  0  0
 21 23  1  0  0  0
 22 28  1  0  0  0
 22 32  2  0  0  0
 26 27  1  0  0  0
 28101  1  0  0  0
 28102  1  0  0  0
 29103  1  0  0  0
 29104  1  0  0  0
 33 34  1  0  0  0
 33 66  1  0  0  0
 33 70  2  0  0  0
 34 36  1  0  0  0
 34 59  1  0  0  0
 34105  1  0  0  0
 35 44  2  0  0  0
 35 45  1  0  0  0
 35 68  1  0  0  0
 36 56  1  0  0  0
 36106  1  0  0  0
 37 39  1  0  0  0
 37 47  1  0  0  0
 37 66  1  0  0  0
 37107  1  0  0  0
 38 43  2  0  0  0
 38 46  1  0  0  0
 38 47  1  0  0  0
 39 64  1  0  0  0
 39 67  2  0  0  0
 40 52  1  0  0  0
 40 53  2  0  0  0
 40 58  1  0  0  0
 41108  1  0  0  0
 41109  1  0  0  0
 41110  1  0  0  0
 41 48  1  0  0  0
 42 43  1  0  0  0
 42 66  1  0  0  0
 42111  1  0  0  0
 42112  1  0  0  0
 43 44  1  0  0  0
 44113  1  0  0  0
 45 46  2  0  0  0
 45114  1  0  0  0
 46115  1  0  0  0
 47116  1  0  0  0
 47117  1  0  0  0
 48 56  1  0  0  0
 48 65  1  0  0  0
 48118  1  0  0  0
 49 50  1  0  0  0
 49 53  1  0  0  0
 49 64  1  0  0  0
 49119  1  0  0  0
 50 51  1  0  0  0
 50120  1  0  0  0
 50121  1  0  0  0
 51 52  1  0  0  0
 51122  1  0  0  0
 51123  1  0  0  0
 52124  1  0  0  0
 52125  1  0  0  0
 53 54  1  0  0  0
 54 55  2  0  0  0
 54126  1  0  0  0
 55 57  1  0  0  0
 55127  1  0  0  0
 56 69  2  0  0  0
 57 58  2  0  0  0
 57128  1  0  0  0
 58129  1  0  0  0
 59 60  1  0  0  0
 59 61  1  0  0  0
 59 62  1  0  0  0
 60130  1  0  0  0
 60131  1  0  0  0
 60132  1  0  0  0
 61133  1  0  0  0
 61134  1  0  0  0
 61135  1  0  0  0
 62136  1  0  0  0
 62137  1  0  0  0
 62138  1  0  0  0
 63 65  1  0  0  0
 63139  1  0  0  0
 63140  1  0  0  0
 63141  1  0  0  0
 64142  1  0  0  0
 65143  1  0  0  0
 68 74  1  0  0  0
 71 72  2  0  0  0
 71 81  1  0  0  0
 71144  1  0  0  0
 72 73  1  0  0  0
 72 80  1  0  0  0
 73 75  1  0  0  0
 73 82  2  0  0  0
 74 81  2  0  0  0
 74 82  1  0  0  0
 75145  1  0  0  0
 75146  1  0  0  0
 75147  1  0  0  0
 76148  1  0  0  0
 76149  1  0  0  0
 76150  1  0  0  0
 76 80  1  0  0  0
 77151  1  0  0  0
 77152  1  0  0  0
 77153  1  0  0  0
 77 84  1  0  0  0
 78 79  1  0  0  0
 78 83  1  0  0  0
 78154  1  0  0  0
 78155  1  0  0  0
 79 84  1  0  0  0
 79156  1  0  0  0
 79157  1  0  0  0
 80 84  1  0  0  0
 80158  1  0  0  0
 83159  1  0  0  0
 84160  1  0  0  0
M  CHG  1  84   1
M  ISO  4   1 100  68 101  74 101  83 100
M  END
> <chiral flag>
0

> <version>
0

> <s_m_source_file>
/data/baiqing/PycharmProjects/Reinvent-master-3.2/result/LINK_invent/BTK/process_docking_weight1_custom_sum_contain_oxygen_bond_distance_aromatic_linkinvent_7_9_3/rearranged_h_0109.sdf

> <i_m_source_file_index>
52

> <r_mmod_Potential_Energy-OPLS-2005>
-119.114105224609

> <r_mmod_Stretch_Energy-OPLS-2005>
97.9155502319336

> <r_mmod_Bend_Energy-OPLS-2005>
416.999389648438

> <r_mmod_Torsional_Energy-OPLS-2005>
234.368545532227

> <r_mmod_Improper_Torsional_Energy-OPLS-2005>
6.66359996795654

> <r_mmod_Van_der_Waal_Energy-OPLS-2005>
156.238052368164

> <r_mmod_Electrostatic_Energy-OPLS-2005>
-596.125915527344

> <r_mmod_Solvation_Energy-OPLS-2005>
-484.783569335938

> <b_mmod_Minimization_Converged-OPLS-2005>
0

> <r_mmod_RMS_Derivative-OPLS-2005>
2.61608266830444

$$$$
52
                    3D
 Structure written by MMmdl.
152159  0  0  1  0            999 V2000
  -30.4044  -15.2614   20.3824 C   0  0  0  0  0  0
  -30.4373  -12.8145   19.4888 C   0  0  0  0  0  0
  -29.5201  -12.5628   18.2646 C   0  0  0  0  0  0
  -28.0700  -12.2955   18.7059 C   0  0  0  0  0  0
  -27.6063  -13.2701   19.8187 C   0  0  2  0  0  0
  -28.6476  -13.4220   20.9431 C   0  0  0  0  0  0
  -25.2349  -13.8225   20.5757 C   0  0  0  0  0  0
  -24.1732  -13.0416   20.9294 C   0  0  0  0  0  0
  -24.6372  -11.6924   20.8768 C   0  0  0  0  0  0
  -23.9069  -10.4289   21.0404 C   0  0  0  0  0  0
  -24.3611   -9.4203   21.9192 C   0  0  0  0  0  0
  -23.6281   -8.2233   22.0748 C   0  0  0  0  0  0
  -22.4264   -8.0264   21.3541 C   0  0  0  0  0  0
  -21.9909   -9.0232   20.4649 C   0  0  0  0  0  0
  -22.7238  -10.2109   20.3064 C   0  0  0  0  0  0
  -21.6838   -6.0725   22.5281 C   0  0  0  0  0  0
  -21.4017   -6.5629   23.8213 C   0  0  0  0  0  0
  -21.3658   -5.6794   24.9180 C   0  0  0  0  0  0
  -21.6045   -4.3054   24.7245 C   0  0  0  0  0  0
  -21.8829   -3.8141   23.4358 C   0  0  0  0  0  0
  -21.9185   -4.6951   22.3416 C   0  0  0  0  0  0
  -22.7743  -13.5146   21.1953 C   0  0  0  0  0  0
  -22.1657   -4.2136   21.0990 F   0  0  0  0  0  0
  -21.5616   -3.4544   25.7747 F   0  0  0  0  0  0
  -29.8631  -13.9488   20.3014 N   0  0  0  0  0  0
  -26.2790  -12.9506   20.3225 N   0  0  0  0  0  0
  -25.9304  -11.6614   20.5713 N   0  0  0  0  0  0
  -22.0414  -12.8114   22.0494 N   0  0  0  0  0  0
  -25.3962  -15.1963   20.4191 N   0  0  0  0  0  0
  -31.6362  -15.2847   20.2542 O   0  0  0  0  0  0
  -21.6625   -6.8867   21.4247 O   0  0  0  0  0  0
  -22.3436  -14.5463   20.6794 O   0  0  0  0  0  0
  -24.6676  -31.8247   23.1738 C   0  0  0  0  0  0
  -25.9375  -32.4576   23.8181 C   0  0  1  0  0  0
  -27.2037  -26.9288   20.1945 C   0  0  0  0  0  0
  -25.6086  -33.8390   24.2144 N   0  0  0  0  0  0
  -23.4782  -30.4426   21.5207 C   0  0  2  0  0  0
  -24.9231  -28.8221   20.1206 C   0  0  0  0  0  0
  -22.7678  -29.4472   22.4754 C   0  0  0  0  0  0
  -18.0338  -28.1417   22.8477 C   0  0  0  0  0  0
  -24.1478  -36.7133   23.2650 C   0  0  0  0  0  0
  -26.0460  -30.6327   21.3995 C   0  0  0  0  0  0
  -26.1069  -29.2190   20.7535 C   0  0  0  0  0  0
  -27.2446  -28.2962   20.7637 C   0  0  0  0  0  0
  -25.9941  -26.6859   19.5070 C   0  0  0  0  0  0
  -24.8883  -27.5748   19.4784 C   0  0  0  0  0  0
  -23.7186  -29.7612   20.1460 C   0  0  0  0  0  0
  -25.4123  -36.2964   24.0333 C   0  0  1  0  0  0
  -20.5957  -28.3774   23.1157 C   0  0  2  0  0  0
  -20.6801  -26.9454   22.5386 C   0  0  0  0  0  0
  -19.5769  -26.6397   21.5204 C   0  0  0  0  0  0
  -18.1957  -26.7955   22.1626 C   0  0  0  0  0  0
  -19.1599  -28.8913   23.2808 C   0  0  0  0  0  0
  -18.9513  -30.1502   23.8854 C   0  0  0  0  0  0
  -17.6500  -30.6596   24.0572 C   0  0  0  0  0  0
  -25.9115  -34.9347   23.5041 C   0  0  0  0  0  0
  -16.5393  -29.9092   23.6348 C   0  0  0  0  0  0
  -16.7319  -28.6511   23.0371 C   0  0  0  0  0  0
  -26.4625  -31.6497   25.0695 C   0  0  0  0  0  0
  -25.3739  -31.3708   26.1333 C   0  0  0  0  0  0
  -27.0515  -30.2869   24.6415 C   0  0  0  0  0  0
  -27.6144  -32.4255   25.7514 C   0  0  0  0  0  0
  -27.5552  -37.1734   24.8497 C   0  0  0  0  0  0
  -21.4347  -29.3067   22.3500 N   0  0  0  0  0  0
  -26.4262  -37.3702   23.9448 N   0  0  0  0  0  0
  -24.7518  -30.9954   22.0838 N   0  0  0  0  0  0
  -23.4231  -28.8025   23.2981 O   0  0  0  0  0  0
  -28.2163  -25.8363   20.2131 O   0  0  0  0  0  0
  -26.5650  -34.8878   22.4594 O   0  0  0  0  0  0
  -23.5763  -32.1212   23.6860 O   0  0  0  0  0  0
  -30.3348  -23.0551   20.0718 C   0  0  0  0  0  0
  -27.4490  -21.0269   21.3967 C   0  0  0  0  0  0
  -29.6699  -18.1361   20.7952 C   0  0  0  0  0  0
  -29.1209  -19.6693   20.0162 C   0  0  0  0  0  0
  -27.9826  -24.2211   20.4883 C   0  0  0  0  0  0
  -28.8470  -22.6955   20.0403 C   0  0  2  0  0  0
  -29.5924  -16.5058   20.3995 N   0  0  0  0  0  0
  -28.7433  -21.1562   20.6947 N   0  3  1  0  0  0
  -31.4422  -13.0533   19.1372 H   0  0  0  0  0  0
  -30.5355  -11.9090   20.0888 H   0  0  0  0  0  0
  -29.8887  -11.7233   17.6745 H   0  0  0  0  0  0
  -29.5444  -13.4297   17.6032 H   0  0  0  0  0  0
  -28.0192  -11.2710   19.0788 H   0  0  0  0  0  0
  -27.3923  -12.3375   17.8529 H   0  0  0  0  0  0
  -27.5234  -14.2458   19.3371 H   0  0  0  0  0  0
  -28.8245  -12.4726   21.4541 H   0  0  0  0  0  0
  -28.2909  -14.1220   21.7005 H   0  0  0  0  0  0
  -25.2737   -9.5677   22.4774 H   0  0  0  0  0  0
  -23.9986   -7.4622   22.7463 H   0  0  0  0  0  0
  -21.0848   -8.8754   19.8939 H   0  0  0  0  0  0
  -22.3691  -10.9650   19.6177 H   0  0  0  0  0  0
  -21.2006   -7.6146   23.9722 H   0  0  0  0  0  0
  -21.1471   -6.0517   25.9084 H   0  0  0  0  0  0
  -22.0605   -2.7599   23.2871 H   0  0  0  0  0  0
  -22.4006  -11.9730   22.4825 H   0  0  0  0  0  0
  -21.1059  -13.1188   22.2759 H   0  0  0  0  0  0
  -24.6232  -15.8432   20.5344 H   0  0  0  0  0  0
  -26.2286  -15.6371   20.0537 H   0  0  0  0  0  0
  -26.7452  -32.5134   23.0893 H   0  0  0  0  0  0
  -25.0401  -33.9459   25.0423 H   0  0  0  0  0  0
  -22.7966  -31.2801   21.3520 H   0  0  0  0  0  0
  -23.3797  -35.9395   23.3295 H   0  0  0  0  0  0
  -24.3551  -36.8769   22.2063 H   0  0  0  0  0  0
  -23.7151  -37.6301   23.6665 H   0  0  0  0  0  0
  -26.2321  -31.3709   20.6176 H   0  0  0  0  0  0
  -26.9046  -30.6843   22.0553 H   0  0  0  0  0  0
  -28.1440  -28.6099   21.2742 H   0  0  0  0  0  0
  -25.8823  -25.7479   18.9840 H   0  0  0  0  0  0
  -23.9890  -27.2768   18.9567 H   0  0  0  0  0  0
  -23.8959  -30.5299   19.3929 H   0  0  0  0  0  0
  -22.8242  -29.2306   19.8174 H   0  0  0  0  0  0
  -25.1305  -36.1756   25.0813 H   0  0  0  0  0  0
  -21.0062  -28.3380   24.1270 H   0  0  0  0  0  0
  -20.5670  -26.2407   23.3642 H   0  0  0  0  0  0
  -21.6667  -26.7424   22.1205 H   0  0  0  0  0  0
  -19.6925  -25.6292   21.1281 H   0  0  0  0  0  0
  -19.6689  -27.3172   20.6697 H   0  0  0  0  0  0
  -17.4232  -26.6733   21.4028 H   0  0  0  0  0  0
  -18.0332  -26.0096   22.9009 H   0  0  0  0  0  0
  -19.7995  -30.7328   24.2203 H   0  0  0  0  0  0
  -17.5065  -31.6277   24.5181 H   0  0  0  0  0  0
  -15.5395  -30.2986   23.7678 H   0  0  0  0  0  0
  -15.8733  -28.0814   22.7093 H   0  0  0  0  0  0
  -24.5993  -30.6984   25.7624 H   0  0  0  0  0  0
  -24.8845  -32.2874   26.4632 H   0  0  0  0  0  0
  -25.7963  -30.8991   27.0215 H   0  0  0  0  0  0
  -26.3136  -29.6499   24.1516 H   0  0  0  0  0  0
  -27.4178  -29.7284   25.5050 H   0  0  0  0  0  0
  -27.9042  -30.4082   23.9721 H   0  0  0  0  0  0
  -27.2775  -33.3625   26.1951 H   0  0  0  0  0  0
  -28.4040  -32.6665   25.0381 H   0  0  0  0  0  0
  -28.0684  -31.8446   26.5562 H   0  0  0  0  0  0
  -28.2602  -38.0013   24.7561 H   0  0  0  0  0  0
  -28.1034  -36.2555   24.6313 H   0  0  0  0  0  0
  -27.2275  -37.1342   25.8906 H   0  0  0  0  0  0
  -20.9592  -29.8740   21.6616 H   0  0  0  0  0  0
  -26.0128  -38.2763   24.1467 H   0  0  0  0  0  0
  -30.5285  -23.9805   19.5282 H   0  0  0  0  0  0
  -30.9420  -22.2747   19.6177 H   0  0  0  0  0  0
  -30.6817  -23.1895   21.0975 H   0  0  0  0  0  0
  -27.3988  -20.0951   21.9615 H   0  0  0  0  0  0
  -26.6169  -21.0443   20.6916 H   0  0  0  0  0  0
  -27.3056  -21.8400   22.1065 H   0  0  0  0  0  0
  -29.1650  -18.1491   21.7629 H   0  0  0  0  0  0
  -30.7133  -18.3078   21.0627 H   0  0  0  0  0  0
  -28.2578  -19.4059   19.4048 H   0  0  0  0  0  0
  -29.8953  -19.9037   19.2868 H   0  0  0  0  0  0
  -27.9759  -24.1971   21.5765 H   0  0  0  0  0  0
  -26.9366  -24.0379   20.2400 H   0  0  0  0  0  0
  -28.5775  -22.5526   18.9937 H   0  0  0  0  0  0
  -28.6217  -16.2501   20.2876 H   0  0  0  0  0  0
  -29.4059  -21.2092   21.4556 H   0  0  0  0  0  0
  1 25  1  0  0  0
  1 30  2  0  0  0
  1 77  1  0  0  0
  2  3  1  0  0  0
  2 25  1  0  0  0
  2 79  1  0  0  0
  2 80  1  0  0  0
  3  4  1  0  0  0
  3 81  1  0  0  0
  3 82  1  0  0  0
  4  5  1  0  0  0
  4 83  1  0  0  0
  4 84  1  0  0  0
  5  6  1  0  0  0
  5 26  1  0  0  0
  5 85  1  0  0  0
  6 25  1  0  0  0
  6 86  1  0  0  0
  6 87  1  0  0  0
  7  8  2  0  0  0
  7 26  1  0  0  0
  7 29  1  0  0  0
  8  9  1  0  0  0
  8 22  1  0  0  0
  9 10  1  0  0  0
  9 27  2  0  0  0
 10 11  2  0  0  0
 10 15  1  0  0  0
 11 12  1  0  0  0
 11 88  1  0  0  0
 12 13  2  0  0  0
 12 89  1  0  0  0
 13 14  1  0  0  0
 13 31  1  0  0  0
 14 15  2  0  0  0
 14 90  1  0  0  0
 15 91  1  0  0  0
 16 17  2  0  0  0
 16 21  1  0  0  0
 16 31  1  0  0  0
 17 18  1  0  0  0
 17 92  1  0  0  0
 18 19  2  0  0  0
 18 93  1  0  0  0
 19 20  1  0  0  0
 19 24  1  0  0  0
 20 21  2  0  0  0
 20 94  1  0  0  0
 21 23  1  0  0  0
 22 28  1  0  0  0
 22 32  2  0  0  0
 26 27  1  0  0  0
 28 95  1  0  0  0
 28 96  1  0  0  0
 29 97  1  0  0  0
 29 98  1  0  0  0
 33 34  1  0  0  0
 33 66  1  0  0  0
 33 70  2  0  0  0
 34 36  1  0  0  0
 34 59  1  0  0  0
 34 99  1  0  0  0
 35 44  2  0  0  0
 35 45  1  0  0  0
 35 68  1  0  0  0
 36 56  1  0  0  0
 36100  1  0  0  0
 37 39  1  0  0  0
 37 47  1  0  0  0
 37 66  1  0  0  0
 37101  1  0  0  0
 38 43  2  0  0  0
 38 46  1  0  0  0
 38 47  1  0  0  0
 39 64  1  0  0  0
 39 67  2  0  0  0
 40 52  1  0  0  0
 40 53  2  0  0  0
 40 58  1  0  0  0
 41102  1  0  0  0
 41103  1  0  0  0
 41104  1  0  0  0
 41 48  1  0  0  0
 42 43  1  0  0  0
 42 66  1  0  0  0
 42105  1  0  0  0
 42106  1  0  0  0
 43 44  1  0  0  0
 44107  1  0  0  0
 45 46  2  0  0  0
 45108  1  0  0  0
 46109  1  0  0  0
 47110  1  0  0  0
 47111  1  0  0  0
 48 56  1  0  0  0
 48 65  1  0  0  0
 48112  1  0  0  0
 49 50  1  0  0  0
 49 53  1  0  0  0
 49 64  1  0  0  0
 49113  1  0  0  0
 50 51  1  0  0  0
 50114  1  0  0  0
 50115  1  0  0  0
 51 52  1  0  0  0
 51116  1  0  0  0
 51117  1  0  0  0
 52118  1  0  0  0
 52119  1  0  0  0
 53 54  1  0  0  0
 54 55  2  0  0  0
 54120  1  0  0  0
 55 57  1  0  0  0
 55121  1  0  0  0
 56 69  2  0  0  0
 57 58  2  0  0  0
 57122  1  0  0  0
 58123  1  0  0  0
 59 60  1  0  0  0
 59 61  1  0  0  0
 59 62  1  0  0  0
 60124  1  0  0  0
 60125  1  0  0  0
 60126  1  0  0  0
 61127  1  0  0  0
 61128  1  0  0  0
 61129  1  0  0  0
 62130  1  0  0  0
 62131  1  0  0  0
 62132  1  0  0  0
 63 65  1  0  0  0
 63133  1  0  0  0
 63134  1  0  0  0
 63135  1  0  0  0
 64136  1  0  0  0
 65137  1  0  0  0
 68 75  1  0  0  0
 71138  1  0  0  0
 71139  1  0  0  0
 71140  1  0  0  0
 71 76  1  0  0  0
 72141  1  0  0  0
 72142  1  0  0  0
 72143  1  0  0  0
 72 78  1  0  0  0
 73 74  1  0  0  0
 73 77  1  0  0  0
 73144  1  0  0  0
 73145  1  0  0  0
 74 78  1  0  0  0
 74146  1  0  0  0
 74147  1  0  0  0
 75 76  1  0  0  0
 75148  1  0  0  0
 75149  1  0  0  0
 76 78  1  0  0  0
 76150  1  0  0  0
 77151  1  0  0  0
 78152  1  0  0  0
M  CHG  1  78   1
M  ISO  4   1 100  68 101  75 101  77 100
M  END
> <chiral flag>
0

> <version>
0

> <s_m_source_file>
/data/baiqing/PycharmProjects/Reinvent-master-3.2/result/LINK_invent/BTK/process_docking_weight1_custom_sum_contain_oxygen_bond_distance_aromatic_linkinvent_7_9_3/rearranged_h_0109.sdf

> <i_m_source_file_index>
53

> <r_mmod_Potential_Energy-OPLS-2005>
1210.08081054688

> <r_mmod_Stretch_Energy-OPLS-2005>
613.456726074219

> <r_mmod_Bend_Energy-OPLS-2005>
451.528350830078

> <r_mmod_Torsional_Energy-OPLS-2005>
254.70719909668

> <r_mmod_Improper_Torsional_Energy-OPLS-2005>
4.6590895652771

> <r_mmod_Van_der_Waal_Energy-OPLS-2005>
105.194412231445

> <r_mmod_Electrostatic_Energy-OPLS-2005>
-218.843017578125

> <r_mmod_Solvation_Energy-OPLS-2005>
-456.774017333984

> <b_mmod_Minimization_Converged-OPLS-2005>
0

> <r_mmod_RMS_Derivative-OPLS-2005>
4.15421915054321

$$$$
53
                    3D
 Structure written by MMmdl.
154162  0  0  1  0            999 V2000
  -30.6154  -14.7235   20.5075 C   0  0  0  0  0  0
  -30.4464  -12.4583   19.4638 C   0  0  0  0  0  0
  -29.5129  -12.5121   18.2327 C   0  0  0  0  0  0
  -28.0409  -12.3325   18.6516 C   0  0  0  0  0  0
  -27.6484  -13.2252   19.8581 C   0  0  2  0  0  0
  -28.6952  -13.1329   20.9914 C   0  0  0  0  0  0
  -25.2534  -13.8191   20.5676 C   0  0  0  0  0  0
  -24.1827  -13.0449   20.9208 C   0  0  0  0  0  0
  -24.6396  -11.6915   20.8746 C   0  0  0  0  0  0
  -23.9065  -10.4309   21.0405 C   0  0  0  0  0  0
  -24.3622   -9.4223   21.9187 C   0  0  0  0  0  0
  -23.6298   -8.2250   22.0764 C   0  0  0  0  0  0
  -22.4285   -8.0282   21.3538 C   0  0  0  0  0  0
  -21.9912   -9.0255   20.4642 C   0  0  0  0  0  0
  -22.7229  -10.2147   20.3066 C   0  0  0  0  0  0
  -21.6839   -6.0733   22.5265 C   0  0  0  0  0  0
  -21.3993   -6.5634   23.8201 C   0  0  0  0  0  0
  -21.3672   -5.6786   24.9162 C   0  0  0  0  0  0
  -21.6069   -4.3055   24.7210 C   0  0  0  0  0  0
  -21.8815   -3.8140   23.4327 C   0  0  0  0  0  0
  -21.9199   -4.6964   22.3387 C   0  0  0  0  0  0
  -22.7851  -13.5222   21.1874 C   0  0  0  0  0  0
  -22.1660   -4.2164   21.0959 F   0  0  0  0  0  0
  -21.5674   -3.4531   25.7724 F   0  0  0  0  0  0
  -29.9961  -13.4993   20.4163 N   0  0  0  0  0  0
  -26.2970  -12.9380   20.3312 N   0  0  0  0  0  0
  -25.9329  -11.6526   20.5742 N   0  0  0  0  0  0
  -22.0477  -12.8234   22.0427 N   0  0  0  0  0  0
  -25.4256  -15.1913   20.4021 N   0  0  0  0  0  0
  -31.7942  -14.8472   20.1654 O   0  0  0  0  0  0
  -21.6636   -6.8880   21.4230 O   0  0  0  0  0  0
  -22.3545  -14.5535   20.6736 O   0  0  0  0  0  0
  -24.6311  -31.8551   23.1951 C   0  0  0  0  0  0
  -25.9125  -32.4755   23.8324 C   0  0  1  0  0  0
  -27.2362  -27.2621   20.1519 C   0  0  0  0  0  0
  -25.5919  -33.8567   24.2242 N   0  0  0  0  0  0
  -23.4301  -30.4706   21.5393 C   0  0  2  0  0  0
  -24.8840  -28.9135   20.1196 C   0  0  0  0  0  0
  -22.7515  -29.4570   22.4917 C   0  0  0  0  0  0
  -18.0282  -28.1389   22.8474 C   0  0  0  0  0  0
  -24.1492  -36.7264   23.2632 C   0  0  0  0  0  0
  -25.9755  -30.7703   21.3755 C   0  0  0  0  0  0
  -26.0541  -29.3898   20.7253 C   0  0  0  0  0  0
  -27.2355  -28.5799   20.7207 C   0  0  0  0  0  0
  -26.0466  -26.8513   19.5155 C   0  0  0  0  0  0
  -24.8848  -27.6528   19.5011 C   0  0  0  0  0  0
  -23.6528  -29.7991   20.1586 C   0  0  0  0  0  0
  -25.4127  -36.3069   24.0314 C   0  0  1  0  0  0
  -20.5892  -28.3697   23.1276 C   0  0  2  0  0  0
  -20.6794  -26.9414   22.5417 C   0  0  0  0  0  0
  -19.5766  -26.6374   21.5227 C   0  0  0  0  0  0
  -18.1936  -26.7926   22.1622 C   0  0  0  0  0  0
  -19.1541  -28.8857   23.2861 C   0  0  0  0  0  0
  -18.9461  -30.1470   23.8868 C   0  0  0  0  0  0
  -17.6465  -30.6590   24.0555 C   0  0  0  0  0  0
  -25.9065  -34.9436   23.5076 C   0  0  0  0  0  0
  -16.5350  -29.9088   23.6341 C   0  0  0  0  0  0
  -16.7271  -28.6508   23.0341 C   0  0  0  0  0  0
  -26.4511  -31.6576   25.0701 C   0  0  0  0  0  0
  -25.3719  -31.3732   26.1403 C   0  0  0  0  0  0
  -27.0360  -30.2988   24.6173 C   0  0  0  0  0  0
  -27.6047  -32.4322   25.7481 C   0  0  0  0  0  0
  -27.5583  -37.1786   24.8464 C   0  0  0  0  0  0
  -21.4212  -29.3030   22.3657 N   0  0  0  0  0  0
  -26.4300  -37.3771   23.9407 N   0  0  0  0  0  0
  -24.6977  -31.0510   22.0930 N   0  0  0  0  0  0
  -23.4203  -28.8128   23.3039 O   0  0  0  0  0  0
  -28.3460  -26.3841   20.1783 O   0  0  0  0  0  0
  -26.5649  -34.8909   22.4655 O   0  0  0  0  0  0
  -23.5453  -32.1355   23.7247 O   0  0  0  0  0  0
  -29.1112  -21.8658   21.9750 C   0  0  0  0  0  0
  -29.1664  -20.4922   22.0843 C   0  0  0  0  0  0
  -29.1711  -21.0305   19.9385 C   0  0  0  0  0  0
  -29.1113  -22.2682   20.6019 C   0  0  0  0  0  0
  -29.1446  -23.7570   18.5028 C   0  0  0  0  0  0
  -29.0578  -18.4163   20.5216 C   0  0  0  0  0  0
  -30.2042  -17.3240   20.8592 C   0  0  0  0  0  0
  -28.1601  -24.9380   20.5773 C   0  0  0  0  0  0
  -29.1581  -23.7749   20.0368 C   0  0  1  0  0  0
  -29.1889  -19.9154   20.8230 N   0  0  0  0  0  0
  -29.8394  -15.8318   20.8018 N   0  0  0  0  0  0
  -31.4830  -12.6034   19.1522 H   0  0  0  0  0  0
  -30.4108  -11.4744   19.9338 H   0  0  0  0  0  0
  -29.7915  -11.7392   17.5151 H   0  0  0  0  0  0
  -29.6367  -13.4656   17.7154 H   0  0  0  0  0  0
  -27.9023  -11.2816   18.9050 H   0  0  0  0  0  0
  -27.3775  -12.5251   17.8091 H   0  0  0  0  0  0
  -27.6503  -14.2503   19.4876 H   0  0  0  0  0  0
  -28.7366  -12.1219   21.3982 H   0  0  0  0  0  0
  -28.4325  -13.7842   21.8261 H   0  0  0  0  0  0
  -25.2772   -9.5703   22.4751 H   0  0  0  0  0  0
  -24.0023   -7.4630   22.7471 H   0  0  0  0  0  0
  -21.0856   -8.8759   19.8921 H   0  0  0  0  0  0
  -22.3679  -10.9690   19.6187 H   0  0  0  0  0  0
  -21.1946   -7.6133   23.9707 H   0  0  0  0  0  0
  -21.1515   -6.0507   25.9073 H   0  0  0  0  0  0
  -22.0592   -2.7601   23.2806 H   0  0  0  0  0  0
  -22.4042  -11.9887   22.4843 H   0  0  0  0  0  0
  -21.1096  -13.1286   22.2599 H   0  0  0  0  0  0
  -24.6621  -15.8501   20.5142 H   0  0  0  0  0  0
  -26.2708  -15.6199   20.0484 H   0  0  0  0  0  0
  -26.7178  -32.5426   23.1062 H   0  0  0  0  0  0
  -25.0090  -33.9729   25.0404 H   0  0  0  0  0  0
  -22.7261  -31.2913   21.3884 H   0  0  0  0  0  0
  -23.3768  -35.9579   23.3300 H   0  0  0  0  0  0
  -24.3574  -36.8889   22.2043 H   0  0  0  0  0  0
  -23.7230  -37.6451   23.6671 H   0  0  0  0  0  0
  -26.1147  -31.5287   20.6043 H   0  0  0  0  0  0
  -26.8535  -30.8247   22.0078 H   0  0  0  0  0  0
  -28.1360  -28.9475   21.1937 H   0  0  0  0  0  0
  -26.0036  -25.8906   19.0252 H   0  0  0  0  0  0
  -23.9937  -27.2830   19.0146 H   0  0  0  0  0  0
  -23.7780  -30.5727   19.3994 H   0  0  0  0  0  0
  -22.7748  -29.2278   19.8537 H   0  0  0  0  0  0
  -25.1319  -36.1910   25.0806 H   0  0  0  0  0  0
  -20.9978  -28.3275   24.1404 H   0  0  0  0  0  0
  -20.5739  -26.2295   23.3619 H   0  0  0  0  0  0
  -21.6658  -26.7468   22.1188 H   0  0  0  0  0  0
  -19.6951  -25.6289   21.1258 H   0  0  0  0  0  0
  -19.6714  -27.3189   20.6760 H   0  0  0  0  0  0
  -17.4223  -26.6656   21.4010 H   0  0  0  0  0  0
  -18.0318  -26.0076   22.9022 H   0  0  0  0  0  0
  -19.7934  -30.7295   24.2210 H   0  0  0  0  0  0
  -17.5010  -31.6266   24.5162 H   0  0  0  0  0  0
  -15.5354  -30.2986   23.7677 H   0  0  0  0  0  0
  -15.8660  -28.0840   22.7066 H   0  0  0  0  0  0
  -24.5878  -30.7118   25.7709 H   0  0  0  0  0  0
  -24.8943  -32.2920   26.4820 H   0  0  0  0  0  0
  -25.8018  -30.8887   27.0178 H   0  0  0  0  0  0
  -26.2947  -29.6722   24.1194 H   0  0  0  0  0  0
  -27.4052  -29.7265   25.4697 H   0  0  0  0  0  0
  -27.8827  -30.4274   23.9417 H   0  0  0  0  0  0
  -27.2638  -33.3618   26.2062 H   0  0  0  0  0  0
  -28.3867  -32.6892   25.0317 H   0  0  0  0  0  0
  -28.0706  -31.8436   26.5397 H   0  0  0  0  0  0
  -28.2594  -38.0087   24.7531 H   0  0  0  0  0  0
  -28.1085  -36.2620   24.6289 H   0  0  0  0  0  0
  -27.2289  -37.1428   25.8860 H   0  0  0  0  0  0
  -20.9414  -29.8692   21.6804 H   0  0  0  0  0  0
  -26.0165  -38.2833   24.1435 H   0  0  0  0  0  0
  -29.0802  -22.5339   22.8264 H   0  0  0  0  0  0
  -29.1601  -19.8618   22.9652 H   0  0  0  0  0  0
  -29.1971  -20.8299   18.8744 H   0  0  0  0  0  0
  -29.9373  -23.1149   18.1144 H   0  0  0  0  0  0
  -29.3135  -24.7582   18.1022 H   0  0  0  0  0  0
  -28.1906  -23.3946   18.1174 H   0  0  0  0  0  0
  -28.1673  -18.0940   21.0633 H   0  0  0  0  0  0
  -28.7879  -18.3192   19.4704 H   0  0  0  0  0  0
  -30.5766  -17.5225   21.8654 H   0  0  0  0  0  0
  -31.0559  -17.5008   20.1996 H   0  0  0  0  0  0
  -28.2564  -24.9383   21.6643 H   0  0  0  0  0  0
  -27.1404  -24.6114   20.3913 H   0  0  0  0  0  0
  -30.1538  -24.1164   20.3270 H   0  0  0  0  0  0
  -28.8838  -15.6090   21.0360 H   0  0  0  0  0  0
  1 25  1  0  0  0
  1 30  2  0  0  0
  1 81  1  0  0  0
  2  3  1  0  0  0
  2 25  1  0  0  0
  2 82  1  0  0  0
  2 83  1  0  0  0
  3  4  1  0  0  0
  3 84  1  0  0  0
  3 85  1  0  0  0
  4  5  1  0  0  0
  4 86  1  0  0  0
  4 87  1  0  0  0
  5  6  1  0  0  0
  5 26  1  0  0  0
  5 88  1  0  0  0
  6 25  1  0  0  0
  6 89  1  0  0  0
  6 90  1  0  0  0
  7  8  2  0  0  0
  7 26  1  0  0  0
  7 29  1  0  0  0
  8  9  1  0  0  0
  8 22  1  0  0  0
  9 10  1  0  0  0
  9 27  2  0  0  0
 10 11  2  0  0  0
 10 15  1  0  0  0
 11 12  1  0  0  0
 11 91  1  0  0  0
 12 13  2  0  0  0
 12 92  1  0  0  0
 13 14  1  0  0  0
 13 31  1  0  0  0
 14 15  2  0  0  0
 14 93  1  0  0  0
 15 94  1  0  0  0
 16 17  2  0  0  0
 16 21  1  0  0  0
 16 31  1  0  0  0
 17 18  1  0  0  0
 17 95  1  0  0  0
 18 19  2  0  0  0
 18 96  1  0  0  0
 19 20  1  0  0  0
 19 24  1  0  0  0
 20 21  2  0  0  0
 20 97  1  0  0  0
 21 23  1  0  0  0
 22 28  1  0  0  0
 22 32  2  0  0  0
 26 27  1  0  0  0
 28 98  1  0  0  0
 28 99  1  0  0  0
 29100  1  0  0  0
 29101  1  0  0  0
 33 34  1  0  0  0
 33 66  1  0  0  0
 33 70  2  0  0  0
 34 36  1  0  0  0
 34 59  1  0  0  0
 34102  1  0  0  0
 35 44  2  0  0  0
 35 45  1  0  0  0
 35 68  1  0  0  0
 36 56  1  0  0  0
 36103  1  0  0  0
 37 39  1  0  0  0
 37 47  1  0  0  0
 37 66  1  0  0  0
 37104  1  0  0  0
 38 43  2  0  0  0
 38 46  1  0  0  0
 38 47  1  0  0  0
 39 64  1  0  0  0
 39 67  2  0  0  0
 40 52  1  0  0  0
 40 53  2  0  0  0
 40 58  1  0  0  0
 41105  1  0  0  0
 41106  1  0  0  0
 41107  1  0  0  0
 41 48  1  0  0  0
 42 43  1  0  0  0
 42 66  1  0  0  0
 42108  1  0  0  0
 42109  1  0  0  0
 43 44  1  0  0  0
 44110  1  0  0  0
 45 46  2  0  0  0
 45111  1  0  0  0
 46112  1  0  0  0
 47113  1  0  0  0
 47114  1  0  0  0
 48 56  1  0  0  0
 48 65  1  0  0  0
 48115  1  0  0  0
 49 50  1  0  0  0
 49 53  1  0  0  0
 49 64  1  0  0  0
 49116  1  0  0  0
 50 51  1  0  0  0
 50117  1  0  0  0
 50118  1  0  0  0
 51 52  1  0  0  0
 51119  1  0  0  0
 51120  1  0  0  0
 52121  1  0  0  0
 52122  1  0  0  0
 53 54  1  0  0  0
 54 55  2  0  0  0
 54123  1  0  0  0
 55 57  1  0  0  0
 55124  1  0  0  0
 56 69  2  0  0  0
 57 58  2  0  0  0
 57125  1  0  0  0
 58126  1  0  0  0
 59 60  1  0  0  0
 59 61  1  0  0  0
 59 62  1  0  0  0
 60127  1  0  0  0
 60128  1  0  0  0
 60129  1  0  0  0
 61130  1  0  0  0
 61131  1  0  0  0
 61132  1  0  0  0
 62133  1  0  0  0
 62134  1  0  0  0
 62135  1  0  0  0
 63 65  1  0  0  0
 63136  1  0  0  0
 63137  1  0  0  0
 63138  1  0  0  0
 64139  1  0  0  0
 65140  1  0  0  0
 68 78  1  0  0  0
 71 72  2  0  0  0
 71 74  1  0  0  0
 71141  1  0  0  0
 72 80  1  0  0  0
 72142  1  0  0  0
 73 74  2  0  0  0
 73 80  1  0  0  0
 73143  1  0  0  0
 74 79  1  0  0  0
 75144  1  0  0  0
 75145  1  0  0  0
 75146  1  0  0  0
 75 79  1  0  0  0
 76 77  1  0  0  0
 76 80  1  0  0  0
 76147  1  0  0  0
 76148  1  0  0  0
 77 81  1  0  0  0
 77149  1  0  0  0
 77150  1  0  0  0
 78 79  1  0  0  0
 78151  1  0  0  0
 78152  1  0  0  0
 79153  1  0  0  0
 81154  1  0  0  0
M  ISO  4   1 100  68 101  78 101  81 100
M  END
> <chiral flag>
0

> <version>
0

> <s_m_source_file>
/data/baiqing/PycharmProjects/Reinvent-master-3.2/result/LINK_invent/BTK/process_docking_weight1_custom_sum_contain_oxygen_bond_distance_aromatic_linkinvent_7_9_3/rearranged_h_0109.sdf

> <i_m_source_file_index>
54

> <r_mmod_Potential_Energy-OPLS-2005>
126.762969970703

> <r_mmod_Stretch_Energy-OPLS-2005>
124.444320678711

> <r_mmod_Bend_Energy-OPLS-2005>
166.113250732422

> <r_mmod_Torsional_Energy-OPLS-2005>
228.558975219727

> <r_mmod_Improper_Torsional_Energy-OPLS-2005>
5.34654855728149

> <r_mmod_Van_der_Waal_Energy-OPLS-2005>
112.403411865234

> <r_mmod_Electrostatic_Energy-OPLS-2005>
-369.531280517578

> <r_mmod_Solvation_Energy-OPLS-2005>
-218.566802978516

> <b_mmod_Minimization_Converged-OPLS-2005>
0

> <r_mmod_RMS_Derivative-OPLS-2005>
3.27358961105347

$$$$
54
                    3D
 Structure written by MMmdl.
170178  0  0  1  0            999 V2000
  -30.5033  -15.0350   20.3135 C   0  0  0  0  0  0
  -30.4657  -12.6351   19.4565 C   0  0  0  0  0  0
  -29.5245  -12.5146   18.2318 C   0  0  0  0  0  0
  -28.0606  -12.2839   18.6720 C   0  0  0  0  0  0
  -27.6231  -13.2492   19.8045 C   0  0  2  0  0  0
  -28.6886  -13.3290   20.9265 C   0  0  0  0  0  0
  -25.2434  -13.8201   20.5886 C   0  0  0  0  0  0
  -24.1776  -13.0410   20.9446 C   0  0  0  0  0  0
  -24.6399  -11.6912   20.8790 C   0  0  0  0  0  0
  -23.9094  -10.4266   21.0440 C   0  0  0  0  0  0
  -24.3616   -9.4172   21.9198 C   0  0  0  0  0  0
  -23.6297   -8.2198   22.0704 C   0  0  0  0  0  0
  -22.4283   -8.0260   21.3475 C   0  0  0  0  0  0
  -21.9913   -9.0259   20.4592 C   0  0  0  0  0  0
  -22.7252  -10.2169   20.3039 C   0  0  0  0  0  0
  -21.6856   -6.0751   22.5316 C   0  0  0  0  0  0
  -21.3995   -6.5631   23.8241 C   0  0  0  0  0  0
  -21.3656   -5.6766   24.9197 C   0  0  0  0  0  0
  -21.6062   -4.3026   24.7248 C   0  0  0  0  0  0
  -21.8805   -3.8149   23.4341 C   0  0  0  0  0  0
  -21.9175   -4.6984   22.3423 C   0  0  0  0  0  0
  -22.7772  -13.5134   21.2159 C   0  0  0  0  0  0
  -22.1660   -4.2169   21.1006 F   0  0  0  0  0  0
  -21.5611   -3.4514   25.7747 F   0  0  0  0  0  0
  -29.9586  -13.7489   20.2981 N   0  0  0  0  0  0
  -26.2862  -12.9453   20.3104 N   0  0  0  0  0  0
  -25.9305  -11.6586   20.5638 N   0  0  0  0  0  0
  -22.0316  -12.8087   22.0662 N   0  0  0  0  0  0
  -25.4188  -15.1944   20.4521 N   0  0  0  0  0  0
  -31.7257  -15.1422   20.1380 O   0  0  0  0  0  0
  -21.6585   -6.8906   21.4249 O   0  0  0  0  0  0
  -22.3461  -14.5467   20.7101 O   0  0  0  0  0  0
  -24.6487  -31.8386   23.1808 C   0  0  0  0  0  0
  -25.9225  -32.4680   23.8205 C   0  0  1  0  0  0
  -27.2212  -27.0669   20.1744 C   0  0  0  0  0  0
  -25.5965  -33.8475   24.2145 N   0  0  0  0  0  0
  -23.4552  -30.4457   21.5316 C   0  0  2  0  0  0
  -24.9034  -28.8414   20.1296 C   0  0  0  0  0  0
  -22.7617  -29.4468   22.4919 C   0  0  0  0  0  0
  -18.0326  -28.1449   22.8429 C   0  0  0  0  0  0
  -24.1487  -36.7243   23.2641 C   0  0  0  0  0  0
  -26.0141  -30.6868   21.3892 C   0  0  0  0  0  0
  -26.0839  -29.2814   20.7478 C   0  0  0  0  0  0
  -27.2376  -28.4095   20.7480 C   0  0  0  0  0  0
  -26.0190  -26.7306   19.5288 C   0  0  0  0  0  0
  -24.8835  -27.5803   19.5116 C   0  0  0  0  0  0
  -23.6898  -29.7591   20.1575 C   0  0  0  0  0  0
  -25.4104  -36.3016   24.0326 C   0  0  1  0  0  0
  -20.5939  -28.3699   23.1312 C   0  0  2  0  0  0
  -20.6833  -26.9398   22.5420 C   0  0  0  0  0  0
  -19.5803  -26.6410   21.5218 C   0  0  0  0  0  0
  -18.1968  -26.7959   22.1627 C   0  0  0  0  0  0
  -19.1567  -28.8873   23.2851 C   0  0  0  0  0  0
  -18.9444  -30.1537   23.8814 C   0  0  0  0  0  0
  -17.6418  -30.6558   24.0530 C   0  0  0  0  0  0
  -25.9061  -34.9411   23.5045 C   0  0  0  0  0  0
  -16.5305  -29.9073   23.6308 C   0  0  0  0  0  0
  -16.7291  -28.6522   23.0260 C   0  0  0  0  0  0
  -26.4520  -31.6570   25.0674 C   0  0  0  0  0  0
  -25.3717  -31.3764   26.1381 C   0  0  0  0  0  0
  -27.0365  -30.2978   24.6281 C   0  0  0  0  0  0
  -27.6085  -32.4307   25.7483 C   0  0  0  0  0  0
  -27.5580  -37.1774   24.8467 C   0  0  0  0  0  0
  -21.4284  -29.3063   22.3722 N   0  0  0  0  0  0
  -26.4267  -37.3737   23.9444 N   0  0  0  0  0  0
  -24.7268  -31.0167   22.0881 N   0  0  0  0  0  0
  -23.4245  -28.8036   23.3088 O   0  0  0  0  0  0
  -28.3094  -26.1068   20.1175 O   0  0  0  0  0  0
  -26.5661  -34.8879   22.4625 O   0  0  0  0  0  0
  -23.5592  -32.1271   23.7011 O   0  0  0  0  0  0
  -28.0249  -18.0670   20.4694 C   0  0  0  0  0  0
  -30.0176  -18.9471   20.1481 C   0  0  0  0  0  0
  -29.3722  -17.6671   20.2718 C   0  0  0  0  0  0
  -27.8845  -19.4362   20.5219 C   0  0  0  0  0  0
  -26.6081  -20.0949   20.7862 C   0  0  0  0  0  0
  -24.0061  -21.3524   19.5778 C   0  0  0  0  0  0
  -21.1043  -19.5886   19.4389 C   0  0  0  0  0  0
  -21.6286  -17.2527   18.9534 C   0  0  0  0  0  0
  -28.4236  -23.0557   19.9660 C   0  0  0  0  0  0
  -29.3397  -21.7020   20.5088 C   0  0  0  0  0  0
  -23.4831  -18.8481   19.1807 C   0  0  0  0  0  0
  -28.3385  -24.6263   20.6712 C   0  0  0  0  0  0
  -24.2044  -19.9037   20.0702 C   0  0  1  0  0  0
  -29.0998  -20.1047   20.3354 N   0  0  0  0  0  0
  -29.5828  -16.1233   20.2136 N   0  0  0  0  0  0
  -25.6347  -19.6346   20.0006 N   0  0  0  0  0  0
  -22.0948  -18.5013   19.6013 N   0  3  0  0  0  0
  -26.4662  -20.9528   21.6629 O   0  0  0  0  0  0
  -31.4829  -12.8263   19.1101 H   0  0  0  0  0  0
  -30.5025  -11.7013   20.0221 H   0  0  0  0  0  0
  -29.8494  -11.6875   17.5968 H   0  0  0  0  0  0
  -29.5885  -13.4127   17.6101 H   0  0  0  0  0  0
  -27.9908  -11.2550   19.0307 H   0  0  0  0  0  0
  -27.3866  -12.3398   17.8112 H   0  0  0  0  0  0
  -27.5530  -14.2255   19.3187 H   0  0  0  0  0  0
  -28.8007  -12.3763   21.4441 H   0  0  0  0  0  0
  -28.3839  -14.0654   21.6698 H   0  0  0  0  0  0
  -25.2771   -9.5659   22.4763 H   0  0  0  0  0  0
  -24.0010   -7.4557   22.7386 H   0  0  0  0  0  0
  -21.0826   -8.8838   19.8874 H   0  0  0  0  0  0
  -22.3750  -10.9715   19.6125 H   0  0  0  0  0  0
  -21.2001   -7.6147   23.9807 H   0  0  0  0  0  0
  -21.1483   -6.0458   25.9117 H   0  0  0  0  0  0
  -22.0595   -2.7622   23.2845 H   0  0  0  0  0  0
  -22.3811  -11.9693   22.5096 H   0  0  0  0  0  0
  -21.0935  -13.1123   22.2782 H   0  0  0  0  0  0
  -24.7165  -15.8650   20.7343 H   0  0  0  0  0  0
  -26.3135  -15.6106   20.2409 H   0  0  0  0  0  0
  -26.7312  -32.5229   23.0947 H   0  0  0  0  0  0
  -25.0133  -33.9559   25.0307 H   0  0  0  0  0  0
  -22.7541  -31.2659   21.3659 H   0  0  0  0  0  0
  -23.3766  -35.9569   23.3257 H   0  0  0  0  0  0
  -24.3572  -36.8894   22.2063 H   0  0  0  0  0  0
  -23.7187  -37.6400   23.6682 H   0  0  0  0  0  0
  -26.1599  -31.4166   20.5933 H   0  0  0  0  0  0
  -26.8944  -30.7515   22.0236 H   0  0  0  0  0  0
  -28.1487  -28.7456   21.2278 H   0  0  0  0  0  0
  -25.9447  -25.7728   19.0326 H   0  0  0  0  0  0
  -23.9847  -27.2281   19.0301 H   0  0  0  0  0  0
  -23.8491  -30.5232   19.3981 H   0  0  0  0  0  0
  -22.8010  -29.2128   19.8391 H   0  0  0  0  0  0
  -25.1285  -36.1848   25.0824 H   0  0  0  0  0  0
  -20.9961  -28.3231   24.1468 H   0  0  0  0  0  0
  -20.5814  -26.2242   23.3594 H   0  0  0  0  0  0
  -21.6684  -26.7488   22.1137 H   0  0  0  0  0  0
  -19.6931  -25.6311   21.1263 H   0  0  0  0  0  0
  -19.6786  -27.3250   20.6765 H   0  0  0  0  0  0
  -17.4222  -26.6650   21.4036 H   0  0  0  0  0  0
  -18.0389  -26.0164   22.9121 H   0  0  0  0  0  0
  -19.7889  -30.7432   24.2102 H   0  0  0  0  0  0
  -17.4910  -31.6213   24.5155 H   0  0  0  0  0  0
  -15.5283  -30.2859   23.7702 H   0  0  0  0  0  0
  -15.8757  -28.0830   22.6900 H   0  0  0  0  0  0
  -24.5955  -30.7051   25.7699 H   0  0  0  0  0  0
  -24.8821  -32.2915   26.4751 H   0  0  0  0  0  0
  -25.8006  -30.8990   27.0207 H   0  0  0  0  0  0
  -26.2954  -29.6744   24.1286 H   0  0  0  0  0  0
  -27.3943  -29.7279   25.4854 H   0  0  0  0  0  0
  -27.8878  -30.4222   23.9592 H   0  0  0  0  0  0
  -27.2768  -33.3677   26.2027 H   0  0  0  0  0  0
  -28.3969  -32.6780   25.0335 H   0  0  0  0  0  0
  -28.0714  -31.8424   26.5441 H   0  0  0  0  0  0
  -28.2580  -38.0105   24.7539 H   0  0  0  0  0  0
  -28.1102  -36.2611   24.6257 H   0  0  0  0  0  0
  -27.2318  -37.1382   25.8884 H   0  0  0  0  0  0
  -20.9512  -29.8771   21.6884 H   0  0  0  0  0  0
  -26.0140  -38.2815   24.1438 H   0  0  0  0  0  0
  -27.1960  -17.3921   20.6025 H   0  0  0  0  0  0
  -31.0575  -19.1753   19.9338 H   0  0  0  0  0  0
  -22.9679  -21.6713   19.5683 H   0  0  0  0  0  0
  -24.4015  -21.4850   18.5698 H   0  0  0  0  0  0
  -24.5388  -22.0514   20.2222 H   0  0  0  0  0  0
  -20.0988  -19.2390   19.6778 H   0  0  0  0  0  0
  -21.0883  -19.9655   18.4136 H   0  0  0  0  0  0
  -21.3217  -20.4044   20.1264 H   0  0  0  0  0  0
  -20.6790  -16.9210   19.3749 H   0  0  0  0  0  0
  -22.3512  -16.4522   19.1143 H   0  0  0  0  0  0
  -21.5017  -17.3819   17.8749 H   0  0  0  0  0  0
  -27.3893  -22.7237   19.9161 H   0  0  0  0  0  0
  -28.6917  -23.1951   18.9200 H   0  0  0  0  0  0
  -29.3812  -21.8180   21.5901 H   0  0  0  0  0  0
  -30.3646  -21.8854   20.1847 H   0  0  0  0  0  0
  -24.0574  -17.9187   19.1989 H   0  0  0  0  0  0
  -23.4734  -19.1612   18.1339 H   0  0  0  0  0  0
  -29.2481  -24.6569   21.2723 H   0  0  0  0  0  0
  -27.5518  -24.5786   21.4230 H   0  0  0  0  0  0
  -23.8725  -19.7966   21.1067 H   0  0  0  0  0  0
  -28.6823  -15.6873   20.1186 H   0  0  0  0  0  0
  -25.9379  -18.9464   19.3261 H   0  0  0  0  0  0
  -22.1319  -18.2876   20.5881 H   0  0  0  0  0  0
  1 25  1  0  0  0
  1 30  2  0  0  0
  1 85  1  0  0  0
  2  3  1  0  0  0
  2 25  1  0  0  0
  2 89  1  0  0  0
  2 90  1  0  0  0
  3  4  1  0  0  0
  3 91  1  0  0  0
  3 92  1  0  0  0
  4  5  1  0  0  0
  4 93  1  0  0  0
  4 94  1  0  0  0
  5  6  1  0  0  0
  5 26  1  0  0  0
  5 95  1  0  0  0
  6 25  1  0  0  0
  6 96  1  0  0  0
  6 97  1  0  0  0
  7  8  2  0  0  0
  7 26  1  0  0  0
  7 29  1  0  0  0
  8  9  1  0  0  0
  8 22  1  0  0  0
  9 10  1  0  0  0
  9 27  2  0  0  0
 10 11  2  0  0  0
 10 15  1  0  0  0
 11 12  1  0  0  0
 11 98  1  0  0  0
 12 13  2  0  0  0
 12 99  1  0  0  0
 13 14  1  0  0  0
 13 31  1  0  0  0
 14 15  2  0  0  0
 14100  1  0  0  0
 15101  1  0  0  0
 16 17  2  0  0  0
 16 21  1  0  0  0
 16 31  1  0  0  0
 17 18  1  0  0  0
 17102  1  0  0  0
 18 19  2  0  0  0
 18103  1  0  0  0
 19 20  1  0  0  0
 19 24  1  0  0  0
 20 21  2  0  0  0
 20104  1  0  0  0
 21 23  1  0  0  0
 22 28  1  0  0  0
 22 32  2  0  0  0
 26 27  1  0  0  0
 28105  1  0  0  0
 28106  1  0  0  0
 29107  1  0  0  0
 29108  1  0  0  0
 33 34  1  0  0  0
 33 66  1  0  0  0
 33 70  2  0  0  0
 34 36  1  0  0  0
 34 59  1  0  0  0
 34109  1  0  0  0
 35 44  2  0  0  0
 35 45  1  0  0  0
 35 68  1  0  0  0
 36 56  1  0  0  0
 36110  1  0  0  0
 37 39  1  0  0  0
 37 47  1  0  0  0
 37 66  1  0  0  0
 37111  1  0  0  0
 38 43  2  0  0  0
 38 46  1  0  0  0
 38 47  1  0  0  0
 39 64  1  0  0  0
 39 67  2  0  0  0
 40 52  1  0  0  0
 40 53  2  0  0  0
 40 58  1  0  0  0
 41112  1  0  0  0
 41113  1  0  0  0
 41114  1  0  0  0
 41 48  1  0  0  0
 42 43  1  0  0  0
 42 66  1  0  0  0
 42115  1  0  0  0
 42116  1  0  0  0
 43 44  1  0  0  0
 44117  1  0  0  0
 45 46  2  0  0  0
 45118  1  0  0  0
 46119  1  0  0  0
 47120  1  0  0  0
 47121  1  0  0  0
 48 56  1  0  0  0
 48 65  1  0  0  0
 48122  1  0  0  0
 49 50  1  0  0  0
 49 53  1  0  0  0
 49 64  1  0  0  0
 49123  1  0  0  0
 50 51  1  0  0  0
 50124  1  0  0  0
 50125  1  0  0  0
 51 52  1  0  0  0
 51126  1  0  0  0
 51127  1  0  0  0
 52128  1  0  0  0
 52129  1  0  0  0
 53 54  1  0  0  0
 54 55  2  0  0  0
 54130  1  0  0  0
 55 57  1  0  0  0
 55131  1  0  0  0
 56 69  2  0  0  0
 57 58  2  0  0  0
 57132  1  0  0  0
 58133  1  0  0  0
 59 60  1  0  0  0
 59 61  1  0  0  0
 59 62  1  0  0  0
 60134  1  0  0  0
 60135  1  0  0  0
 60136  1  0  0  0
 61137  1  0  0  0
 61138  1  0  0  0
 61139  1  0  0  0
 62140  1  0  0  0
 62141  1  0  0  0
 62142  1  0  0  0
 63 65  1  0  0  0
 63143  1  0  0  0
 63144  1  0  0  0
 63145  1  0  0  0
 64146  1  0  0  0
 65147  1  0  0  0
 68 82  1  0  0  0
 71 73  1  0  0  0
 71 74  2  0  0  0
 71148  1  0  0  0
 72 73  2  0  0  0
 72 84  1  0  0  0
 72149  1  0  0  0
 73 85  1  0  0  0
 74 75  1  0  0  0
 74 84  1  0  0  0
 75 86  1  0  0  0
 75 88  2  0  0  0
 76150  1  0  0  0
 76151  1  0  0  0
 76152  1  0  0  0
 76 83  1  0  0  0
 77153  1  0  0  0
 77154  1  0  0  0
 77155  1  0  0  0
 77 87  1  0  0  0
 78 87  1  0  0  0
 78156  1  0  0  0
 78157  1  0  0  0
 78158  1  0  0  0
 79 80  1  0  0  0
 79 82  1  0  0  0
 79159  1  0  0  0
 79160  1  0  0  0
 80 84  1  0  0  0
 80161  1  0  0  0
 80162  1  0  0  0
 81 83  1  0  0  0
 81 87  1  0  0  0
 81163  1  0  0  0
 81164  1  0  0  0
 82165  1  0  0  0
 82166  1  0  0  0
 83 86  1  0  0  0
 83167  1  0  0  0
 85168  1  0  0  0
 86169  1  0  0  0
 87170  1  0  0  0
M  CHG  1  87   1
M  ISO  4   1 100  68 101  82 101  85 100
M  END
> <chiral flag>
0

> <version>
0

> <s_m_source_file>
/data/baiqing/PycharmProjects/Reinvent-master-3.2/result/LINK_invent/BTK/process_docking_weight1_custom_sum_contain_oxygen_bond_distance_aromatic_linkinvent_7_9_3/rearranged_h_0109.sdf

> <i_m_source_file_index>
55

> <r_mmod_Potential_Energy-OPLS-2005>
624.457641601562

> <r_mmod_Stretch_Energy-OPLS-2005>
328.157562255859

> <r_mmod_Bend_Energy-OPLS-2005>
424.255981445312

> <r_mmod_Torsional_Energy-OPLS-2005>
305.118377685547

> <r_mmod_Improper_Torsional_Energy-OPLS-2005>
9.64475631713867

> <r_mmod_Van_der_Waal_Energy-OPLS-2005>
98.1370086669922

> <r_mmod_Electrostatic_Energy-OPLS-2005>
-307.800079345703

> <r_mmod_Solvation_Energy-OPLS-2005>
-492.89013671875

> <b_mmod_Minimization_Converged-OPLS-2005>
0

> <r_mmod_RMS_Derivative-OPLS-2005>
11.9481506347656

$$$$
55
                    3D
 Structure written by MMmdl.
152160  0  0  1  0            999 V2000
  -30.4872  -15.2334   20.4013 C   0  0  0  0  0  0
  -30.4488  -12.7949   19.5157 C   0  0  0  0  0  0
  -29.5297  -12.5639   18.2891 C   0  0  0  0  0  0
  -28.0816  -12.2822   18.7245 C   0  0  0  0  0  0
  -27.6176  -13.2560   19.8333 C   0  0  2  0  0  0
  -28.6672  -13.3932   20.9633 C   0  0  0  0  0  0
  -25.2322  -13.8164   20.5688 C   0  0  0  0  0  0
  -24.1700  -13.0368   20.9289 C   0  0  0  0  0  0
  -24.6371  -11.6892   20.8812 C   0  0  0  0  0  0
  -23.9064  -10.4265   21.0429 C   0  0  0  0  0  0
  -24.3610   -9.4181   21.9204 C   0  0  0  0  0  0
  -23.6292   -8.2214   22.0745 C   0  0  0  0  0  0
  -22.4277   -8.0260   21.3526 C   0  0  0  0  0  0
  -21.9914   -9.0236   20.4631 C   0  0  0  0  0  0
  -22.7241  -10.2123   20.3065 C   0  0  0  0  0  0
  -21.6855   -6.0722   22.5262 C   0  0  0  0  0  0
  -21.4012   -6.5630   23.8193 C   0  0  0  0  0  0
  -21.3652   -5.6786   24.9161 C   0  0  0  0  0  0
  -21.6042   -4.3047   24.7212 C   0  0  0  0  0  0
  -21.8827   -3.8136   23.4335 C   0  0  0  0  0  0
  -21.9193   -4.6949   22.3389 C   0  0  0  0  0  0
  -22.7716  -13.5141   21.1935 C   0  0  0  0  0  0
  -22.1663   -4.2132   21.0968 F   0  0  0  0  0  0
  -21.5628   -3.4535   25.7727 F   0  0  0  0  0  0
  -29.8942  -13.9337   20.3385 N   0  0  0  0  0  0
  -26.2822  -12.9450   20.3291 N   0  0  0  0  0  0
  -25.9319  -11.6573   20.5827 N   0  0  0  0  0  0
  -22.0364  -12.8128   22.0496 N   0  0  0  0  0  0
  -25.3728  -15.1873   20.3920 N   0  0  0  0  0  0
  -31.7001  -15.2063   20.1417 O   0  0  0  0  0  0
  -21.6638   -6.8862   21.4220 O   0  0  0  0  0  0
  -22.3400  -14.5456   20.6797 O   0  0  0  0  0  0
  -24.6613  -31.8249   23.1724 C   0  0  0  0  0  0
  -25.9318  -32.4568   23.8163 C   0  0  1  0  0  0
  -27.2179  -26.9707   20.1673 C   0  0  0  0  0  0
  -25.5999  -33.8386   24.2050 N   0  0  0  0  0  0
  -23.4705  -30.4415   21.5207 C   0  0  2  0  0  0
  -24.9211  -28.8375   20.1087 C   0  0  0  0  0  0
  -22.7644  -29.4457   22.4782 C   0  0  0  0  0  0
  -18.0323  -28.1394   22.8474 C   0  0  0  0  0  0
  -24.1493  -36.7208   23.2648 C   0  0  0  0  0  0
  -26.0392  -30.6437   21.3971 C   0  0  0  0  0  0
  -26.1056  -29.2405   20.7387 C   0  0  0  0  0  0
  -27.2484  -28.3267   20.7470 C   0  0  0  0  0  0
  -26.0025  -26.7122   19.4899 C   0  0  0  0  0  0
  -24.8922  -27.5910   19.4668 C   0  0  0  0  0  0
  -23.7056  -29.7610   20.1451 C   0  0  0  0  0  0
  -25.4121  -36.2935   24.0294 C   0  0  1  0  0  0
  -20.5943  -28.3730   23.1198 C   0  0  2  0  0  0
  -20.6799  -26.9415   22.5397 C   0  0  0  0  0  0
  -19.5771  -26.6363   21.5210 C   0  0  0  0  0  0
  -18.1950  -26.7933   22.1615 C   0  0  0  0  0  0
  -19.1585  -28.8885   23.2827 C   0  0  0  0  0  0
  -18.9503  -30.1479   23.8844 C   0  0  0  0  0  0
  -17.6497  -30.6591   24.0551 C   0  0  0  0  0  0
  -25.9100  -34.9331   23.4983 C   0  0  0  0  0  0
  -16.5386  -29.9073   23.6354 C   0  0  0  0  0  0
  -16.7305  -28.6496   23.0369 C   0  0  0  0  0  0
  -26.4571  -31.6519   25.0693 C   0  0  0  0  0  0
  -25.3710  -31.3805   26.1366 C   0  0  0  0  0  0
  -27.0488  -30.2882   24.6443 C   0  0  0  0  0  0
  -27.6030  -32.4365   25.7502 C   0  0  0  0  0  0
  -27.5554  -37.1748   24.8463 C   0  0  0  0  0  0
  -21.4314  -29.3046   22.3552 N   0  0  0  0  0  0
  -26.4253  -37.3677   23.9419 N   0  0  0  0  0  0
  -24.7442  -30.9965   22.0830 N   0  0  0  0  0  0
  -23.4222  -28.8020   23.2999 O   0  0  0  0  0  0
  -28.2180  -25.8760   20.2476 O   0  0  0  0  0  0
  -26.5701  -34.8880   22.4573 O   0  0  0  0  0  0
  -23.5688  -32.1211   23.6838 O   0  0  0  0  0  0
  -29.0324  -20.4678   21.3921 C   0  0  0  0  0  0
  -28.6214  -21.8910   21.3648 C   0  0  0  0  0  0
  -29.5094  -19.6896   20.2598 C   0  0  0  0  0  0
  -28.6548  -22.7725   20.2122 C   0  0  0  0  0  0
  -29.4846  -20.6368   19.1457 C   0  0  0  0  0  0
  -29.9422  -20.1354   17.7901 C   0  0  0  0  0  0
  -28.4666  -16.5923   21.1301 C   0  0  0  0  0  0
  -30.2454  -18.1043   20.2449 C   0  0  0  0  0  0
  -27.8559  -24.3065   20.0198 C   0  0  0  0  0  0
  -29.0889  -22.0052   19.1292 N   0  0  0  0  0  0
  -29.7794  -16.5445   20.5054 N   0  0  0  0  0  0
  -31.4587  -13.0041   19.1594 H   0  0  0  0  0  0
  -30.5436  -11.8884   20.1161 H   0  0  0  0  0  0
  -29.9080  -11.7402   17.6824 H   0  0  0  0  0  0
  -29.5490  -13.4502   17.6537 H   0  0  0  0  0  0
  -28.0417  -11.2584   19.0992 H   0  0  0  0  0  0
  -27.4083  -12.3190   17.8673 H   0  0  0  0  0  0
  -27.5387  -14.2177   19.3280 H   0  0  0  0  0  0
  -28.8459  -12.4292   21.4422 H   0  0  0  0  0  0
  -28.3123  -14.0416   21.7620 H   0  0  0  0  0  0
  -25.2728   -9.5675   22.4809 H   0  0  0  0  0  0
  -23.9987   -7.4599   22.7456 H   0  0  0  0  0  0
  -21.0848   -8.8764   19.8925 H   0  0  0  0  0  0
  -22.3682  -10.9681   19.6198 H   0  0  0  0  0  0
  -21.2014   -7.6137   23.9692 H   0  0  0  0  0  0
  -21.1465   -6.0515   25.9058 H   0  0  0  0  0  0
  -22.0620   -2.7599   23.2839 H   0  0  0  0  0  0
  -22.3988  -11.9825   22.4936 H   0  0  0  0  0  0
  -21.0965  -13.1129   22.2672 H   0  0  0  0  0  0
  -24.5864  -15.8205   20.4904 H   0  0  0  0  0  0
  -26.1946  -15.6336   20.0083 H   0  0  0  0  0  0
  -26.7385  -32.5103   23.0872 H   0  0  0  0  0  0
  -25.0141  -33.9453   25.0198 H   0  0  0  0  0  0
  -22.7824  -31.2732   21.3542 H   0  0  0  0  0  0
  -23.3743  -35.9555   23.3256 H   0  0  0  0  0  0
  -24.3580  -36.8902   22.2075 H   0  0  0  0  0  0
  -23.7270  -37.6388   23.6745 H   0  0  0  0  0  0
  -26.2220  -31.3857   20.6190 H   0  0  0  0  0  0
  -26.9001  -30.6897   22.0529 H   0  0  0  0  0  0
  -28.1423  -28.6291   21.2740 H   0  0  0  0  0  0
  -25.8651  -25.7645   18.9922 H   0  0  0  0  0  0
  -23.9918  -27.2743   18.9577 H   0  0  0  0  0  0
  -23.8553  -30.5320   19.3887 H   0  0  0  0  0  0
  -22.8156  -29.2159   19.8259 H   0  0  0  0  0  0
  -25.1312  -36.1695   25.0781 H   0  0  0  0  0  0
  -21.0046  -28.3327   24.1313 H   0  0  0  0  0  0
  -20.5684  -26.2343   23.3630 H   0  0  0  0  0  0
  -21.6659  -26.7394   22.1194 H   0  0  0  0  0  0
  -19.6932  -25.6266   21.1262 H   0  0  0  0  0  0
  -19.6706  -27.3159   20.6734 H   0  0  0  0  0  0
  -17.4219  -26.6695   21.4014 H   0  0  0  0  0  0
  -18.0332  -26.0068   22.9006 H   0  0  0  0  0  0
  -19.7983  -30.7319   24.2166 H   0  0  0  0  0  0
  -17.5049  -31.6266   24.5158 H   0  0  0  0  0  0
  -15.5382  -30.2959   23.7710 H   0  0  0  0  0  0
  -15.8703  -28.0794   22.7115 H   0  0  0  0  0  0
  -24.5876  -30.7158   25.7698 H   0  0  0  0  0  0
  -24.8944  -32.3043   26.4667 H   0  0  0  0  0  0
  -25.7950  -30.9054   27.0225 H   0  0  0  0  0  0
  -26.3185  -29.6539   24.1412 H   0  0  0  0  0  0
  -27.3985  -29.7243   25.5103 H   0  0  0  0  0  0
  -27.9112  -30.4050   23.9878 H   0  0  0  0  0  0
  -27.2541  -33.3703   26.1928 H   0  0  0  0  0  0
  -28.3914  -32.6882   25.0395 H   0  0  0  0  0  0
  -28.0625  -31.8626   26.5559 H   0  0  0  0  0  0
  -28.2523  -38.0088   24.7501 H   0  0  0  0  0  0
  -28.1089  -36.2607   24.6264 H   0  0  0  0  0  0
  -27.2294  -37.1352   25.8875 H   0  0  0  0  0  0
  -20.9547  -29.8744   21.6694 H   0  0  0  0  0  0
  -26.0077  -38.2719   24.1451 H   0  0  0  0  0  0
  -28.9810  -19.9618   22.3455 H   0  0  0  0  0  0
  -28.2303  -22.3093   22.2820 H   0  0  0  0  0  0
  -31.0236  -20.0019   17.7778 H   0  0  0  0  0  0
  -29.6766  -20.8210   16.9853 H   0  0  0  0  0  0
  -29.4769  -19.1758   17.5668 H   0  0  0  0  0  0
  -27.7860  -15.9554   20.5872 H   0  0  0  0  0  0
  -28.0242  -17.5874   21.1160 H   0  0  0  0  0  0
  -28.5212  -16.2733   22.1710 H   0  0  0  0  0  0
  -31.0775  -18.2284   20.9401 H   0  0  0  0  0  0
  -30.7489  -18.0440   19.2807 H   0  0  0  0  0  0
  -26.9324  -24.1724   20.5830 H   0  0  0  0  0  0
  -27.5429  -24.2743   18.9768 H   0  0  0  0  0  0
  1 25  1  0  0  0
  1 30  2  0  0  0
  1 81  1  0  0  0
  2  3  1  0  0  0
  2 25  1  0  0  0
  2 82  1  0  0  0
  2 83  1  0  0  0
  3  4  1  0  0  0
  3 84  1  0  0  0
  3 85  1  0  0  0
  4  5  1  0  0  0
  4 86  1  0  0  0
  4 87  1  0  0  0
  5  6  1  0  0  0
  5 26  1  0  0  0
  5 88  1  0  0  0
  6 25  1  0  0  0
  6 89  1  0  0  0
  6 90  1  0  0  0
  7  8  2  0  0  0
  7 26  1  0  0  0
  7 29  1  0  0  0
  8  9  1  0  0  0
  8 22  1  0  0  0
  9 10  1  0  0  0
  9 27  2  0  0  0
 10 11  2  0  0  0
 10 15  1  0  0  0
 11 12  1  0  0  0
 11 91  1  0  0  0
 12 13  2  0  0  0
 12 92  1  0  0  0
 13 14  1  0  0  0
 13 31  1  0  0  0
 14 15  2  0  0  0
 14 93  1  0  0  0
 15 94  1  0  0  0
 16 17  2  0  0  0
 16 21  1  0  0  0
 16 31  1  0  0  0
 17 18  1  0  0  0
 17 95  1  0  0  0
 18 19  2  0  0  0
 18 96  1  0  0  0
 19 20  1  0  0  0
 19 24  1  0  0  0
 20 21  2  0  0  0
 20 97  1  0  0  0
 21 23  1  0  0  0
 22 28  1  0  0  0
 22 32  2  0  0  0
 26 27  1  0  0  0
 28 98  1  0  0  0
 28 99  1  0  0  0
 29100  1  0  0  0
 29101  1  0  0  0
 33 34  1  0  0  0
 33 66  1  0  0  0
 33 70  2  0  0  0
 34 36  1  0  0  0
 34 59  1  0  0  0
 34102  1  0  0  0
 35 44  2  0  0  0
 35 45  1  0  0  0
 35 68  1  0  0  0
 36 56  1  0  0  0
 36103  1  0  0  0
 37 39  1  0  0  0
 37 47  1  0  0  0
 37 66  1  0  0  0
 37104  1  0  0  0
 38 43  2  0  0  0
 38 46  1  0  0  0
 38 47  1  0  0  0
 39 64  1  0  0  0
 39 67  2  0  0  0
 40 52  1  0  0  0
 40 53  2  0  0  0
 40 58  1  0  0  0
 41105  1  0  0  0
 41106  1  0  0  0
 41107  1  0  0  0
 41 48  1  0  0  0
 42 43  1  0  0  0
 42 66  1  0  0  0
 42108  1  0  0  0
 42109  1  0  0  0
 43 44  1  0  0  0
 44110  1  0  0  0
 45 46  2  0  0  0
 45111  1  0  0  0
 46112  1  0  0  0
 47113  1  0  0  0
 47114  1  0  0  0
 48 56  1  0  0  0
 48 65  1  0  0  0
 48115  1  0  0  0
 49 50  1  0  0  0
 49 53  1  0  0  0
 49 64  1  0  0  0
 49116  1  0  0  0
 50 51  1  0  0  0
 50117  1  0  0  0
 50118  1  0  0  0
 51 52  1  0  0  0
 51119  1  0  0  0
 51120  1  0  0  0
 52121  1  0  0  0
 52122  1  0  0  0
 53 54  1  0  0  0
 54 55  2  0  0  0
 54123  1  0  0  0
 55 57  1  0  0  0
 55124  1  0  0  0
 56 69  2  0  0  0
 57 58  2  0  0  0
 57125  1  0  0  0
 58126  1  0  0  0
 59 60  1  0  0  0
 59 61  1  0  0  0
 59 62  1  0  0  0
 60127  1  0  0  0
 60128  1  0  0  0
 60129  1  0  0  0
 61130  1  0  0  0
 61131  1  0  0  0
 61132  1  0  0  0
 62133  1  0  0  0
 62134  1  0  0  0
 62135  1  0  0  0
 63 65  1  0  0  0
 63136  1  0  0  0
 63137  1  0  0  0
 63138  1  0  0  0
 64139  1  0  0  0
 65140  1  0  0  0
 68 79  1  0  0  0
 71 72  2  0  0  0
 71 73  1  0  0  0
 71141  1  0  0  0
 72 74  1  0  0  0
 72142  1  0  0  0
 73 75  2  0  0  0
 73 78  1  0  0  0
 74 79  1  0  0  0
 74 80  2  0  0  0
 75 76  1  0  0  0
 75 80  1  0  0  0
 76143  1  0  0  0
 76144  1  0  0  0
 76145  1  0  0  0
 77 81  1  0  0  0
 77146  1  0  0  0
 77147  1  0  0  0
 77148  1  0  0  0
 78 81  1  0  0  0
 78149  1  0  0  0
 78150  1  0  0  0
 79151  1  0  0  0
 79152  1  0  0  0
M  ISO  4   1 100  68 101  79 101  81 100
M  END
> <chiral flag>
0

> <version>
0

> <s_m_source_file>
/data/baiqing/PycharmProjects/Reinvent-master-3.2/result/LINK_invent/BTK/process_docking_weight1_custom_sum_contain_oxygen_bond_distance_aromatic_linkinvent_7_9_3/rearranged_h_0109.sdf

> <i_m_source_file_index>
56

> <r_mmod_Potential_Energy-OPLS-2005>
1081.34716796875

> <r_mmod_Stretch_Energy-OPLS-2005>
475.279937744141

> <r_mmod_Bend_Energy-OPLS-2005>
423.115356445312

> <r_mmod_Torsional_Energy-OPLS-2005>
258.90673828125

> <r_mmod_Improper_Torsional_Energy-OPLS-2005>
10.2953157424927

> <r_mmod_Van_der_Waal_Energy-OPLS-2005>
141.676467895508

> <r_mmod_Electrostatic_Energy-OPLS-2005>
-411.102630615234

> <r_mmod_Solvation_Energy-OPLS-2005>
-222.039337158203

> <b_mmod_Minimization_Converged-OPLS-2005>
0

> <r_mmod_RMS_Derivative-OPLS-2005>
2.00401616096497

$$$$
56
                    3D
 Structure written by MMmdl.
149157  0  0  1  0            999 V2000
  -30.4010  -15.3490   20.3476 C   0  0  0  0  0  0
  -30.4343  -12.8598   19.5511 C   0  0  0  0  0  0
  -29.5454  -12.6036   18.3064 C   0  0  0  0  0  0
  -28.0965  -12.3069   18.7266 C   0  0  0  0  0  0
  -27.6101  -13.2839   19.8252 C   0  0  2  0  0  0
  -28.6336  -13.4893   20.9645 C   0  0  0  0  0  0
  -25.2379  -13.8260   20.5732 C   0  0  0  0  0  0
  -24.1741  -13.0441   20.9247 C   0  0  0  0  0  0
  -24.6406  -11.6940   20.8751 C   0  0  0  0  0  0
  -23.9103  -10.4297   21.0398 C   0  0  0  0  0  0
  -24.3648   -9.4213   21.9180 C   0  0  0  0  0  0
  -23.6310   -8.2253   22.0758 C   0  0  0  0  0  0
  -22.4290   -8.0289   21.3549 C   0  0  0  0  0  0
  -21.9933   -9.0263   20.4647 C   0  0  0  0  0  0
  -22.7268  -10.2140   20.3052 C   0  0  0  0  0  0
  -21.6862   -6.0735   22.5280 C   0  0  0  0  0  0
  -21.4014   -6.5637   23.8210 C   0  0  0  0  0  0
  -21.3667   -5.6792   24.9176 C   0  0  0  0  0  0
  -21.6047   -4.3055   24.7224 C   0  0  0  0  0  0
  -21.8818   -3.8143   23.4346 C   0  0  0  0  0  0
  -21.9195   -4.6962   22.3400 C   0  0  0  0  0  0
  -22.7757  -13.5190   21.1887 C   0  0  0  0  0  0
  -22.1663   -4.2147   21.0978 F   0  0  0  0  0  0
  -21.5638   -3.4537   25.7738 F   0  0  0  0  0  0
  -29.8638  -14.0180   20.3493 N   0  0  0  0  0  0
  -26.2806  -12.9544   20.3200 N   0  0  0  0  0  0
  -25.9344  -11.6641   20.5698 N   0  0  0  0  0  0
  -22.0414  -12.8181   22.0448 N   0  0  0  0  0  0
  -25.4014  -15.1998   20.4155 N   0  0  0  0  0  0
  -31.6145  -15.3298   20.0804 O   0  0  0  0  0  0
  -21.6654   -6.8887   21.4244 O   0  0  0  0  0  0
  -22.3435  -14.5487   20.6719 O   0  0  0  0  0  0
  -24.6675  -31.8176   23.1651 C   0  0  0  0  0  0
  -25.9334  -32.4556   23.8138 C   0  0  1  0  0  0
  -27.2202  -26.8711   20.1944 C   0  0  0  0  0  0
  -25.5982  -33.8375   24.2042 N   0  0  0  0  0  0
  -23.4851  -30.4256   21.5150 C   0  0  2  0  0  0
  -24.9407  -28.8009   20.1091 C   0  0  0  0  0  0
  -22.7688  -29.4410   22.4764 C   0  0  0  0  0  0
  -18.0325  -28.1417   22.8465 C   0  0  0  0  0  0
  -24.1496  -36.7192   23.2648 C   0  0  0  0  0  0
  -26.0560  -30.6044   21.4053 C   0  0  0  0  0  0
  -26.1225  -29.1883   20.7513 C   0  0  0  0  0  0
  -27.2515  -28.2441   20.7706 C   0  0  0  0  0  0
  -26.0140  -26.6531   19.4898 C   0  0  0  0  0  0
  -24.9154  -27.5559   19.4572 C   0  0  0  0  0  0
  -23.7281  -29.7343   20.1432 C   0  0  0  0  0  0
  -25.4142  -36.2952   24.0292 C   0  0  1  0  0  0
  -20.5950  -28.3769   23.1181 C   0  0  2  0  0  0
  -20.6802  -26.9444   22.5410 C   0  0  0  0  0  0
  -19.5780  -26.6381   21.5220 C   0  0  0  0  0  0
  -18.1958  -26.7949   22.1619 C   0  0  0  0  0  0
  -19.1587  -28.8914   23.2808 C   0  0  0  0  0  0
  -18.9495  -30.1500   23.8851 C   0  0  0  0  0  0
  -17.6487  -30.6606   24.0555 C   0  0  0  0  0  0
  -25.9108  -34.9334   23.4993 C   0  0  0  0  0  0
  -16.5378  -29.9091   23.6348 C   0  0  0  0  0  0
  -16.7305  -28.6509   23.0371 C   0  0  0  0  0  0
  -26.4569  -31.6524   25.0692 C   0  0  0  0  0  0
  -25.3678  -31.3786   26.1337 C   0  0  0  0  0  0
  -27.0473  -30.2884   24.6467 C   0  0  0  0  0  0
  -27.6050  -32.4345   25.7494 C   0  0  0  0  0  0
  -27.5573  -37.1754   24.8466 C   0  0  0  0  0  0
  -21.4352  -29.3039   22.3514 N   0  0  0  0  0  0
  -26.4286  -37.3693   23.9402 N   0  0  0  0  0  0
  -24.7579  -30.9785   22.0814 N   0  0  0  0  0  0
  -23.4206  -28.8000   23.3041 O   0  0  0  0  0  0
  -28.2117  -25.7426   20.3232 O   0  0  0  0  0  0
  -26.5731  -34.8879   22.4597 O   0  0  0  0  0  0
  -23.5735  -32.1171   23.6715 O   0  0  0  0  0  0
  -29.6930  -19.6344   17.9778 C   0  0  0  0  0  0
  -29.3128  -20.8299   18.6250 C   0  0  0  0  0  0
  -29.8291  -18.3743   18.6240 C   0  0  0  0  0  0
  -29.0405  -20.8728   19.9965 C   0  0  0  0  0  0
  -29.5904  -18.2012   20.0183 C   0  0  0  0  0  0
  -30.1946  -17.2020   17.7232 C   0  0  0  0  0  0
  -28.7344  -22.5026   20.6368 C   0  0  0  0  0  0
  -28.1321  -24.1034   19.9454 C   0  0  0  0  0  0
  -29.1903  -19.5178   20.6276 N   0  0  0  0  0  0
  -29.6407  -16.6374   20.5380 N   0  0  0  0  0  0
  -31.4553  -13.0598   19.2248 H   0  0  0  0  0  0
  -30.5040  -11.9602   20.1652 H   0  0  0  0  0  0
  -29.9436  -11.7785   17.7147 H   0  0  0  0  0  0
  -29.5659  -13.4834   17.6612 H   0  0  0  0  0  0
  -28.0651  -11.2841   19.1044 H   0  0  0  0  0  0
  -27.4333  -12.3362   17.8617 H   0  0  0  0  0  0
  -27.5169  -14.2443   19.3164 H   0  0  0  0  0  0
  -28.8139  -12.5649   21.5154 H   0  0  0  0  0  0
  -28.2519  -14.2108   21.6890 H   0  0  0  0  0  0
  -25.2794   -9.5687   22.4754 H   0  0  0  0  0  0
  -24.0013   -7.4648   22.7484 H   0  0  0  0  0  0
  -21.0862   -8.8783   19.8957 H   0  0  0  0  0  0
  -22.3723  -10.9677   19.6160 H   0  0  0  0  0  0
  -21.2005   -7.6144   23.9708 H   0  0  0  0  0  0
  -21.1491   -6.0528   25.9081 H   0  0  0  0  0  0
  -22.0590   -2.7603   23.2847 H   0  0  0  0  0  0
  -22.4047  -11.9859   22.4851 H   0  0  0  0  0  0
  -21.1025  -13.1193   22.2637 H   0  0  0  0  0  0
  -24.6273  -15.8473   20.5173 H   0  0  0  0  0  0
  -26.2347  -15.6370   20.0442 H   0  0  0  0  0  0
  -26.7404  -32.5077   23.0849 H   0  0  0  0  0  0
  -25.0066  -33.9443   25.0150 H   0  0  0  0  0  0
  -22.8014  -31.2587   21.3390 H   0  0  0  0  0  0
  -23.3774  -35.9506   23.3282 H   0  0  0  0  0  0
  -24.3567  -36.8873   22.2067 H   0  0  0  0  0  0
  -23.7238  -37.6363   23.6729 H   0  0  0  0  0  0
  -26.2438  -31.3422   20.6240 H   0  0  0  0  0  0
  -26.9127  -30.6633   22.0639 H   0  0  0  0  0  0
  -28.1399  -28.5362   21.3126 H   0  0  0  0  0  0
  -25.8790  -25.7049   18.9908 H   0  0  0  0  0  0
  -24.0195  -27.2548   18.9321 H   0  0  0  0  0  0
  -23.8852  -30.4997   19.3827 H   0  0  0  0  0  0
  -22.8367  -29.1900   19.8271 H   0  0  0  0  0  0
  -25.1346  -36.1741   25.0785 H   0  0  0  0  0  0
  -21.0035  -28.3389   24.1305 H   0  0  0  0  0  0
  -20.5688  -26.2388   23.3659 H   0  0  0  0  0  0
  -21.6666  -26.7423   22.1214 H   0  0  0  0  0  0
  -19.6941  -25.6276   21.1291 H   0  0  0  0  0  0
  -19.6724  -27.3160   20.6725 H   0  0  0  0  0  0
  -17.4231  -26.6701   21.4016 H   0  0  0  0  0  0
  -18.0343  -26.0104   22.9026 H   0  0  0  0  0  0
  -19.7970  -30.7329   24.2204 H   0  0  0  0  0  0
  -17.5038  -31.6284   24.5164 H   0  0  0  0  0  0
  -15.5375  -30.2978   23.7704 H   0  0  0  0  0  0
  -15.8703  -28.0810   22.7122 H   0  0  0  0  0  0
  -24.5877  -30.7126   25.7631 H   0  0  0  0  0  0
  -24.8854  -32.2993   26.4631 H   0  0  0  0  0  0
  -25.7897  -30.9029   27.0202 H   0  0  0  0  0  0
  -26.3152  -29.6543   24.1460 H   0  0  0  0  0  0
  -27.3965  -29.7271   25.5143 H   0  0  0  0  0  0
  -27.9110  -30.4048   23.9917 H   0  0  0  0  0  0
  -27.2616  -33.3692   26.1937 H   0  0  0  0  0  0
  -28.3931  -32.6835   25.0373 H   0  0  0  0  0  0
  -28.0649  -31.8566   26.5522 H   0  0  0  0  0  0
  -28.2574  -38.0066   24.7514 H   0  0  0  0  0  0
  -28.1089  -36.2592   24.6300 H   0  0  0  0  0  0
  -27.2289  -37.1401   25.8869 H   0  0  0  0  0  0
  -20.9624  -29.8690   21.6595 H   0  0  0  0  0  0
  -26.0131  -38.2751   24.1406 H   0  0  0  0  0  0
  -29.8826  -19.6964   16.9160 H   0  0  0  0  0  0
  -29.2531  -21.7414   18.0451 H   0  0  0  0  0  0
  -30.1831  -17.4824   16.6697 H   0  0  0  0  0  0
  -29.4866  -16.3807   17.8356 H   0  0  0  0  0  0
  -31.2003  -16.8462   17.9473 H   0  0  0  0  0  0
  -29.7067  -22.7579   21.0563 H   0  0  0  0  0  0
  -28.1174  -22.3253   21.5171 H   0  0  0  0  0  0
  -27.0763  -23.9222   19.7481 H   0  0  0  0  0  0
  -28.5775  -24.1096   18.9510 H   0  0  0  0  0  0
  -28.8006  -16.4267   21.0537 H   0  0  0  0  0  0
  1 25  1  0  0  0
  1 30  2  0  0  0
  1 80  1  0  0  0
  2  3  1  0  0  0
  2 25  1  0  0  0
  2 81  1  0  0  0
  2 82  1  0  0  0
  3  4  1  0  0  0
  3 83  1  0  0  0
  3 84  1  0  0  0
  4  5  1  0  0  0
  4 85  1  0  0  0
  4 86  1  0  0  0
  5  6  1  0  0  0
  5 26  1  0  0  0
  5 87  1  0  0  0
  6 25  1  0  0  0
  6 88  1  0  0  0
  6 89  1  0  0  0
  7  8  2  0  0  0
  7 26  1  0  0  0
  7 29  1  0  0  0
  8  9  1  0  0  0
  8 22  1  0  0  0
  9 10  1  0  0  0
  9 27  2  0  0  0
 10 11  2  0  0  0
 10 15  1  0  0  0
 11 12  1  0  0  0
 11 90  1  0  0  0
 12 13  2  0  0  0
 12 91  1  0  0  0
 13 14  1  0  0  0
 13 31  1  0  0  0
 14 15  2  0  0  0
 14 92  1  0  0  0
 15 93  1  0  0  0
 16 17  2  0  0  0
 16 21  1  0  0  0
 16 31  1  0  0  0
 17 18  1  0  0  0
 17 94  1  0  0  0
 18 19  2  0  0  0
 18 95  1  0  0  0
 19 20  1  0  0  0
 19 24  1  0  0  0
 20 21  2  0  0  0
 20 96  1  0  0  0
 21 23  1  0  0  0
 22 28  1  0  0  0
 22 32  2  0  0  0
 26 27  1  0  0  0
 28 97  1  0  0  0
 28 98  1  0  0  0
 29 99  1  0  0  0
 29100  1  0  0  0
 33 34  1  0  0  0
 33 66  1  0  0  0
 33 70  2  0  0  0
 34 36  1  0  0  0
 34 59  1  0  0  0
 34101  1  0  0  0
 35 44  2  0  0  0
 35 45  1  0  0  0
 35 68  1  0  0  0
 36 56  1  0  0  0
 36102  1  0  0  0
 37 39  1  0  0  0
 37 47  1  0  0  0
 37 66  1  0  0  0
 37103  1  0  0  0
 38 43  2  0  0  0
 38 46  1  0  0  0
 38 47  1  0  0  0
 39 64  1  0  0  0
 39 67  2  0  0  0
 40 52  1  0  0  0
 40 53  2  0  0  0
 40 58  1  0  0  0
 41104  1  0  0  0
 41105  1  0  0  0
 41106  1  0  0  0
 41 48  1  0  0  0
 42 43  1  0  0  0
 42 66  1  0  0  0
 42107  1  0  0  0
 42108  1  0  0  0
 43 44  1  0  0  0
 44109  1  0  0  0
 45 46  2  0  0  0
 45110  1  0  0  0
 46111  1  0  0  0
 47112  1  0  0  0
 47113  1  0  0  0
 48 56  1  0  0  0
 48 65  1  0  0  0
 48114  1  0  0  0
 49 50  1  0  0  0
 49 53  1  0  0  0
 49 64  1  0  0  0
 49115  1  0  0  0
 50 51  1  0  0  0
 50116  1  0  0  0
 50117  1  0  0  0
 51 52  1  0  0  0
 51118  1  0  0  0
 51119  1  0  0  0
 52120  1  0  0  0
 52121  1  0  0  0
 53 54  1  0  0  0
 54 55  2  0  0  0
 54122  1  0  0  0
 55 57  1  0  0  0
 55123  1  0  0  0
 56 69  2  0  0  0
 57 58  2  0  0  0
 57124  1  0  0  0
 58125  1  0  0  0
 59 60  1  0  0  0
 59 61  1  0  0  0
 59 62  1  0  0  0
 60126  1  0  0  0
 60127  1  0  0  0
 60128  1  0  0  0
 61129  1  0  0  0
 61130  1  0  0  0
 61131  1  0  0  0
 62132  1  0  0  0
 62133  1  0  0  0
 62134  1  0  0  0
 63 65  1  0  0  0
 63135  1  0  0  0
 63136  1  0  0  0
 63137  1  0  0  0
 64138  1  0  0  0
 65139  1  0  0  0
 68 78  1  0  0  0
 71 72  2  0  0  0
 71 73  1  0  0  0
 71140  1  0  0  0
 72 74  1  0  0  0
 72141  1  0  0  0
 73 75  2  0  0  0
 73 76  1  0  0  0
 74 77  1  0  0  0
 74 79  2  0  0  0
 75 79  1  0  0  0
 75 80  1  0  0  0
 76142  1  0  0  0
 76143  1  0  0  0
 76144  1  0  0  0
 77 78  1  0  0  0
 77145  1  0  0  0
 77146  1  0  0  0
 78147  1  0  0  0
 78148  1  0  0  0
 80149  1  0  0  0
M  ISO  4   1 100  68 101  78 101  80 100
M  END
> <chiral flag>
0

> <version>
0

> <s_m_source_file>
/data/baiqing/PycharmProjects/Reinvent-master-3.2/result/LINK_invent/BTK/process_docking_weight1_custom_sum_contain_oxygen_bond_distance_aromatic_linkinvent_7_9_3/rearranged_h_0109.sdf

> <i_m_source_file_index>
57

> <r_mmod_Potential_Energy-OPLS-2005>
1353.68347167969

> <r_mmod_Stretch_Energy-OPLS-2005>
701.826782226562

> <r_mmod_Bend_Energy-OPLS-2005>
473.879791259766

> <r_mmod_Torsional_Energy-OPLS-2005>
237.395751953125

> <r_mmod_Improper_Torsional_Energy-OPLS-2005>
3.96291255950928

> <r_mmod_Van_der_Waal_Energy-OPLS-2005>
128.703399658203

> <r_mmod_Electrostatic_Energy-OPLS-2005>
-507.263153076172

> <r_mmod_Solvation_Energy-OPLS-2005>
-232.619018554688

> <b_mmod_Minimization_Converged-OPLS-2005>
0

> <r_mmod_RMS_Derivative-OPLS-2005>
0.968353509902954

$$$$
57
                    3D
 Structure written by MMmdl.
168176  0  0  1  0            999 V2000
  -30.6220  -14.7191   20.3601 C   0  0  0  0  0  0
  -30.4251  -12.3910   19.5027 C   0  0  0  0  0  0
  -29.5236  -12.3693   18.2491 C   0  0  0  0  0  0
  -28.0261  -12.3121   18.6361 C   0  0  0  0  0  0
  -27.6281  -13.2243   19.8349 C   0  0  2  0  0  0
  -28.6755  -13.2047   20.9629 C   0  0  0  0  0  0
  -25.2486  -13.8186   20.5762 C   0  0  0  0  0  0
  -24.1774  -13.0442   20.9218 C   0  0  0  0  0  0
  -24.6352  -11.6908   20.8754 C   0  0  0  0  0  0
  -23.9034  -10.4297   21.0414 C   0  0  0  0  0  0
  -24.3600   -9.4202   21.9182 C   0  0  0  0  0  0
  -23.6268   -8.2242   22.0752 C   0  0  0  0  0  0
  -22.4245   -8.0285   21.3538 C   0  0  0  0  0  0
  -21.9880   -9.0266   20.4637 C   0  0  0  0  0  0
  -22.7216  -10.2138   20.3046 C   0  0  0  0  0  0
  -21.6853   -6.0721   22.5272 C   0  0  0  0  0  0
  -21.4036   -6.5639   23.8206 C   0  0  0  0  0  0
  -21.3656   -5.6793   24.9174 C   0  0  0  0  0  0
  -21.6043   -4.3056   24.7221 C   0  0  0  0  0  0
  -21.8819   -3.8135   23.4349 C   0  0  0  0  0  0
  -21.9194   -4.6950   22.3399 C   0  0  0  0  0  0
  -22.7803  -13.5203   21.1885 C   0  0  0  0  0  0
  -22.1661   -4.2133   21.0974 F   0  0  0  0  0  0
  -21.5613   -3.4548   25.7739 F   0  0  0  0  0  0
  -29.9725  -13.5094   20.3498 N   0  0  0  0  0  0
  -26.2868  -12.9358   20.3267 N   0  0  0  0  0  0
  -25.9265  -11.6510   20.5753 N   0  0  0  0  0  0
  -22.0473  -12.8173   22.0444 N   0  0  0  0  0  0
  -25.4277  -15.1919   20.4304 N   0  0  0  0  0  0
  -31.8534  -14.7579   20.2928 O   0  0  0  0  0  0
  -21.6630   -6.8864   21.4225 O   0  0  0  0  0  0
  -22.3470  -14.5498   20.6714 O   0  0  0  0  0  0
  -24.6195  -31.8628   23.2012 C   0  0  0  0  0  0
  -25.9052  -32.4804   23.8350 C   0  0  1  0  0  0
  -27.2493  -27.3698   20.1317 C   0  0  0  0  0  0
  -25.5895  -33.8603   24.2299 N   0  0  0  0  0  0
  -23.4139  -30.4779   21.5431 C   0  0  2  0  0  0
  -24.8685  -28.9295   20.1189 C   0  0  0  0  0  0
  -22.7456  -29.4613   22.4963 C   0  0  0  0  0  0
  -18.0277  -28.1385   22.8482 C   0  0  0  0  0  0
  -24.1489  -36.7307   23.2635 C   0  0  0  0  0  0
  -25.9459  -30.8137   21.3587 C   0  0  0  0  0  0
  -26.0303  -29.4382   20.7145 C   0  0  0  0  0  0
  -27.2254  -28.6704   20.7057 C   0  0  0  0  0  0
  -26.0714  -26.8893   19.5240 C   0  0  0  0  0  0
  -24.8884  -27.6584   19.5162 C   0  0  0  0  0  0
  -23.6299  -29.8008   20.1620 C   0  0  0  0  0  0
  -25.4108  -36.3100   24.0333 C   0  0  1  0  0  0
  -20.5872  -28.3676   23.1305 C   0  0  2  0  0  0
  -20.6779  -26.9412   22.5412 C   0  0  0  0  0  0
  -19.5755  -26.6395   21.5209 C   0  0  0  0  0  0
  -18.1923  -26.7932   22.1614 C   0  0  0  0  0  0
  -19.1522  -28.8845   23.2891 C   0  0  0  0  0  0
  -18.9454  -30.1450   23.8906 C   0  0  0  0  0  0
  -17.6453  -30.6587   24.0562 C   0  0  0  0  0  0
  -25.9042  -34.9462   23.5120 C   0  0  0  0  0  0
  -16.5344  -29.9083   23.6329 C   0  0  0  0  0  0
  -16.7262  -28.6504   23.0341 C   0  0  0  0  0  0
  -26.4473  -31.6582   25.0685 C   0  0  0  0  0  0
  -25.3725  -31.3670   26.1417 C   0  0  0  0  0  0
  -27.0309  -30.3029   24.6049 C   0  0  0  0  0  0
  -27.6046  -32.4292   25.7460 C   0  0  0  0  0  0
  -27.5580  -37.1800   24.8461 C   0  0  0  0  0  0
  -21.4173  -29.3026   22.3708 N   0  0  0  0  0  0
  -26.4292  -37.3787   23.9409 N   0  0  0  0  0  0
  -24.6783  -31.0672   22.0927 N   0  0  0  0  0  0
  -23.4181  -28.8175   23.3048 O   0  0  0  0  0  0
  -28.4101  -26.6059   20.1023 O   0  0  0  0  0  0
  -26.5604  -34.8920   22.4690 O   0  0  0  0  0  0
  -23.5371  -32.1393   23.7371 O   0  0  0  0  0  0
  -30.7505  -18.3713   20.0990 C   0  0  0  0  0  0
  -28.6414  -17.6754   21.4291 C   0  0  0  0  0  0
  -30.5495  -19.8240   20.6413 C   0  0  0  0  0  0
  -28.5275  -19.1849   21.8457 C   0  0  0  0  0  0
  -30.0111  -17.1850   20.8351 C   0  0  1  0  0  0
  -29.0546  -20.2003   20.7902 C   0  0  1  0  0  0
  -28.3323  -16.9475   18.2504 C   0  0  0  0  0  0
  -30.7400  -16.1970   17.6365 C   0  0  0  0  0  0
  -28.2855  -24.0098   19.8969 C   0  0  0  0  0  0
  -29.1932  -22.7166   20.1329 C   0  0  0  0  0  0
  -28.4397  -25.3078   20.7799 C   0  0  0  0  0  0
  -29.5312  -16.0245   18.5965 C   0  0  0  0  0  0
  -29.8893  -15.8707   20.0532 N   0  0  0  0  0  0
  -28.7554  -21.6577   21.1194 N   0  3  0  0  0  0
  -31.4781  -12.4785   19.2268 H   0  0  0  0  0  0
  -30.3333  -11.4542   20.0542 H   0  0  0  0  0  0
  -29.7684  -11.4961   17.6434 H   0  0  0  0  0  0
  -29.7411  -13.2139   17.6016 H   0  0  0  0  0  0
  -27.8132  -11.2729   18.8889 H   0  0  0  0  0  0
  -27.4012  -12.5365   17.7704 H   0  0  0  0  0  0
  -27.5836  -14.2361   19.4469 H   0  0  0  0  0  0
  -28.6951  -12.2364   21.4628 H   0  0  0  0  0  0
  -28.4229  -13.9488   21.7213 H   0  0  0  0  0  0
  -25.2777   -9.5675   22.4715 H   0  0  0  0  0  0
  -23.9987   -7.4626   22.7457 H   0  0  0  0  0  0
  -21.0818   -8.8786   19.8932 H   0  0  0  0  0  0
  -22.3703  -10.9666   19.6127 H   0  0  0  0  0  0
  -21.2060   -7.6152   23.9698 H   0  0  0  0  0  0
  -21.1476   -6.0541   25.9070 H   0  0  0  0  0  0
  -22.0602   -2.7588   23.2865 H   0  0  0  0  0  0
  -22.4111  -11.9818   22.4791 H   0  0  0  0  0  0
  -21.1082  -13.1159   22.2662 H   0  0  0  0  0  0
  -24.6869  -15.8662   20.5820 H   0  0  0  0  0  0
  -26.3060  -15.6202   20.1729 H   0  0  0  0  0  0
  -26.7127  -32.5526   23.1118 H   0  0  0  0  0  0
  -25.0022  -33.9751   25.0427 H   0  0  0  0  0  0
  -22.7053  -31.2946   21.3944 H   0  0  0  0  0  0
  -23.3754  -35.9638   23.3290 H   0  0  0  0  0  0
  -24.3583  -36.8939   22.2051 H   0  0  0  0  0  0
  -23.7234  -37.6506   23.6664 H   0  0  0  0  0  0
  -26.0493  -31.5719   20.5811 H   0  0  0  0  0  0
  -26.8351  -30.8851   21.9735 H   0  0  0  0  0  0
  -28.1273  -29.0679   21.1517 H   0  0  0  0  0  0
  -26.0740  -25.9203   19.0452 H   0  0  0  0  0  0
  -23.9975  -27.2612   19.0467 H   0  0  0  0  0  0
  -23.7450  -30.5711   19.3988 H   0  0  0  0  0  0
  -22.7559  -29.2179   19.8686 H   0  0  0  0  0  0
  -25.1285  -36.1964   25.0826 H   0  0  0  0  0  0
  -20.9951  -28.3250   24.1428 H   0  0  0  0  0  0
  -20.5709  -26.2276   23.3593 H   0  0  0  0  0  0
  -21.6646  -26.7475   22.1188 H   0  0  0  0  0  0
  -19.6934  -25.6311   21.1218 H   0  0  0  0  0  0
  -19.6710  -27.3228   20.6753 H   0  0  0  0  0  0
  -17.4210  -26.6676   21.4005 H   0  0  0  0  0  0
  -18.0329  -26.0073   22.9011 H   0  0  0  0  0  0
  -19.7931  -30.7258   24.2289 H   0  0  0  0  0  0
  -17.5007  -31.6268   24.5167 H   0  0  0  0  0  0
  -15.5341  -30.2983   23.7661 H   0  0  0  0  0  0
  -15.8665  -28.0832   22.7045 H   0  0  0  0  0  0
  -24.5930  -30.6993   25.7731 H   0  0  0  0  0  0
  -24.8866  -32.2809   26.4843 H   0  0  0  0  0  0
  -25.8058  -30.8850   27.0188 H   0  0  0  0  0  0
  -26.2853  -29.6778   24.1117 H   0  0  0  0  0  0
  -27.4120  -29.7268   25.4490 H   0  0  0  0  0  0
  -27.8666  -30.4363   23.9172 H   0  0  0  0  0  0
  -27.2692  -33.3610   26.2021 H   0  0  0  0  0  0
  -28.3870  -32.6808   25.0291 H   0  0  0  0  0  0
  -28.0694  -31.8408   26.5382 H   0  0  0  0  0  0
  -28.2582  -38.0107   24.7531 H   0  0  0  0  0  0
  -28.1092  -36.2641   24.6276 H   0  0  0  0  0  0
  -27.2296  -37.1436   25.8860 H   0  0  0  0  0  0
  -20.9355  -29.8712   21.6888 H   0  0  0  0  0  0
  -26.0183  -38.2870   24.1401 H   0  0  0  0  0  0
  -31.8175  -18.1485   20.0495 H   0  0  0  0  0  0
  -30.4286  -18.4553   19.0708 H   0  0  0  0  0  0
  -27.8326  -17.4814   20.7329 H   0  0  0  0  0  0
  -28.3952  -17.0567   22.2935 H   0  0  0  0  0  0
  -31.0445  -20.5183   19.9590 H   0  0  0  0  0  0
  -31.0577  -19.9328   21.6012 H   0  0  0  0  0  0
  -29.0749  -19.3333   22.7784 H   0  0  0  0  0  0
  -27.4887  -19.4047   22.0924 H   0  0  0  0  0  0
  -30.6381  -16.9677   21.7025 H   0  0  0  0  0  0
  -28.5485  -19.9990   19.8458 H   0  0  0  0  0  0
  -28.1214  -16.9181   17.1803 H   0  0  0  0  0  0
  -28.4717  -17.9986   18.4936 H   0  0  0  0  0  0
  -27.4177  -16.6148   18.7382 H   0  0  0  0  0  0
  -30.4185  -16.1951   16.5933 H   0  0  0  0  0  0
  -31.4475  -15.3748   17.7341 H   0  0  0  0  0  0
  -31.3093  -17.1105   17.7804 H   0  0  0  0  0  0
  -27.2345  -23.7263   19.8392 H   0  0  0  0  0  0
  -28.5330  -24.3385   18.8865 H   0  0  0  0  0  0
  -30.2276  -23.0020   20.3370 H   0  0  0  0  0  0
  -29.2313  -22.2121   19.1669 H   0  0  0  0  0  0
  -29.4100  -25.2687   21.2755 H   0  0  0  0  0  0
  -27.7044  -25.2970   21.5863 H   0  0  0  0  0  0
  -29.1276  -15.0722   18.2859 H   0  0  0  0  0  0
  -29.1324  -21.8851   22.0260 H   0  0  0  0  0  0
  -27.7528  -21.7304   21.2003 H   0  0  0  0  0  0
  1 25  1  0  0  0
  1 30  2  0  0  0
  1 83  1  0  0  0
  2  3  1  0  0  0
  2 25  1  0  0  0
  2 85  1  0  0  0
  2 86  1  0  0  0
  3  4  1  0  0  0
  3 87  1  0  0  0
  3 88  1  0  0  0
  4  5  1  0  0  0
  4 89  1  0  0  0
  4 90  1  0  0  0
  5  6  1  0  0  0
  5 26  1  0  0  0
  5 91  1  0  0  0
  6 25  1  0  0  0
  6 92  1  0  0  0
  6 93  1  0  0  0
  7  8  2  0  0  0
  7 26  1  0  0  0
  7 29  1  0  0  0
  8  9  1  0  0  0
  8 22  1  0  0  0
  9 10  1  0  0  0
  9 27  2  0  0  0
 10 11  2  0  0  0
 10 15  1  0  0  0
 11 12  1  0  0  0
 11 94  1  0  0  0
 12 13  2  0  0  0
 12 95  1  0  0  0
 13 14  1  0  0  0
 13 31  1  0  0  0
 14 15  2  0  0  0
 14 96  1  0  0  0
 15 97  1  0  0  0
 16 17  2  0  0  0
 16 21  1  0  0  0
 16 31  1  0  0  0
 17 18  1  0  0  0
 17 98  1  0  0  0
 18 19  2  0  0  0
 18 99  1  0  0  0
 19 20  1  0  0  0
 19 24  1  0  0  0
 20 21  2  0  0  0
 20100  1  0  0  0
 21 23  1  0  0  0
 22 28  1  0  0  0
 22 32  2  0  0  0
 26 27  1  0  0  0
 28101  1  0  0  0
 28102  1  0  0  0
 29103  1  0  0  0
 29104  1  0  0  0
 33 34  1  0  0  0
 33 66  1  0  0  0
 33 70  2  0  0  0
 34 36  1  0  0  0
 34 59  1  0  0  0
 34105  1  0  0  0
 35 44  2  0  0  0
 35 45  1  0  0  0
 35 68  1  0  0  0
 36 56  1  0  0  0
 36106  1  0  0  0
 37 39  1  0  0  0
 37 47  1  0  0  0
 37 66  1  0  0  0
 37107  1  0  0  0
 38 43  2  0  0  0
 38 46  1  0  0  0
 38 47  1  0  0  0
 39 64  1  0  0  0
 39 67  2  0  0  0
 40 52  1  0  0  0
 40 53  2  0  0  0
 40 58  1  0  0  0
 41108  1  0  0  0
 41109  1  0  0  0
 41110  1  0  0  0
 41 48  1  0  0  0
 42 43  1  0  0  0
 42 66  1  0  0  0
 42111  1  0  0  0
 42112  1  0  0  0
 43 44  1  0  0  0
 44113  1  0  0  0
 45 46  2  0  0  0
 45114  1  0  0  0
 46115  1  0  0  0
 47116  1  0  0  0
 47117  1  0  0  0
 48 56  1  0  0  0
 48 65  1  0  0  0
 48118  1  0  0  0
 49 50  1  0  0  0
 49 53  1  0  0  0
 49 64  1  0  0  0
 49119  1  0  0  0
 50 51  1  0  0  0
 50120  1  0  0  0
 50121  1  0  0  0
 51 52  1  0  0  0
 51122  1  0  0  0
 51123  1  0  0  0
 52124  1  0  0  0
 52125  1  0  0  0
 53 54  1  0  0  0
 54 55  2  0  0  0
 54126  1  0  0  0
 55 57  1  0  0  0
 55127  1  0  0  0
 56 69  2  0  0  0
 57 58  2  0  0  0
 57128  1  0  0  0
 58129  1  0  0  0
 59 60  1  0  0  0
 59 61  1  0  0  0
 59 62  1  0  0  0
 60130  1  0  0  0
 60131  1  0  0  0
 60132  1  0  0  0
 61133  1  0  0  0
 61134  1  0  0  0
 61135  1  0  0  0
 62136  1  0  0  0
 62137  1  0  0  0
 62138  1  0  0  0
 63 65  1  0  0  0
 63139  1  0  0  0
 63140  1  0  0  0
 63141  1  0  0  0
 64142  1  0  0  0
 65143  1  0  0  0
 68 81  1  0  0  0
 71 73  1  0  0  0
 71 75  1  0  0  0
 71144  1  0  0  0
 71145  1  0  0  0
 72 74  1  0  0  0
 72 75  1  0  0  0
 72146  1  0  0  0
 72147  1  0  0  0
 73 76  1  0  0  0
 73148  1  0  0  0
 73149  1  0  0  0
 74 76  1  0  0  0
 74150  1  0  0  0
 74151  1  0  0  0
 75 83  1  0  0  0
 75152  1  0  0  0
 76 84  1  0  0  0
 76153  1  0  0  0
 77154  1  0  0  0
 77155  1  0  0  0
 77156  1  0  0  0
 77 82  1  0  0  0
 78 82  1  0  0  0
 78157  1  0  0  0
 78158  1  0  0  0
 78159  1  0  0  0
 79 80  1  0  0  0
 79 81  1  0  0  0
 79160  1  0  0  0
 79161  1  0  0  0
 80 84  1  0  0  0
 80162  1  0  0  0
 80163  1  0  0  0
 81164  1  0  0  0
 81165  1  0  0  0
 82 83  1  0  0  0
 82166  1  0  0  0
 84167  1  0  0  0
 84168  1  0  0  0
M  CHG  1  84   1
M  ISO  4   1 100  68 101  81 101  83 100
M  END
> <chiral flag>
0

> <version>
0

> <s_m_source_file>
/data/baiqing/PycharmProjects/Reinvent-master-3.2/result/LINK_invent/BTK/process_docking_weight1_custom_sum_contain_oxygen_bond_distance_aromatic_linkinvent_7_9_3/rearranged_h_0109.sdf

> <i_m_source_file_index>
58

> <r_mmod_Potential_Energy-OPLS-2005>
300.630767822266

> <r_mmod_Stretch_Energy-OPLS-2005>
87.6230621337891

> <r_mmod_Bend_Energy-OPLS-2005>
173.996078491211

> <r_mmod_Torsional_Energy-OPLS-2005>
412.281768798828

> <r_mmod_Improper_Torsional_Energy-OPLS-2005>
12.2418632507324

> <r_mmod_Van_der_Waal_Energy-OPLS-2005>
127.644142150879

> <r_mmod_Electrostatic_Energy-OPLS-2005>
-135.955673217773

> <r_mmod_Solvation_Energy-OPLS-2005>
-446.818176269531

> <b_mmod_Minimization_Converged-OPLS-2005>
0

> <r_mmod_RMS_Derivative-OPLS-2005>
3.30991625785828

$$$$
58
                    3D
 Structure written by MMmdl.
169177  0  0  1  0            999 V2000
  -30.6644  -14.5707   20.5041 C   0  0  0  0  0  0
  -30.4243  -12.3545   19.4359 C   0  0  0  0  0  0
  -29.4941  -12.4900   18.2117 C   0  0  0  0  0  0
  -28.0177  -12.3433   18.6278 C   0  0  0  0  0  0
  -27.6499  -13.2138   19.8590 C   0  0  2  0  0  0
  -28.6960  -13.0667   20.9865 C   0  0  0  0  0  0
  -25.2555  -13.8169   20.5681 C   0  0  0  0  0  0
  -24.1823  -13.0444   20.9203 C   0  0  0  0  0  0
  -24.6378  -11.6910   20.8749 C   0  0  0  0  0  0
  -23.9048  -10.4296   21.0409 C   0  0  0  0  0  0
  -24.3604   -9.4213   21.9186 C   0  0  0  0  0  0
  -23.6287   -8.2244   22.0748 C   0  0  0  0  0  0
  -22.4269   -8.0278   21.3540 C   0  0  0  0  0  0
  -21.9901   -9.0249   20.4643 C   0  0  0  0  0  0
  -22.7221  -10.2134   20.3057 C   0  0  0  0  0  0
  -21.6852   -6.0733   22.5277 C   0  0  0  0  0  0
  -21.4016   -6.5642   23.8209 C   0  0  0  0  0  0
  -21.3658   -5.6793   24.9170 C   0  0  0  0  0  0
  -21.6046   -4.3056   24.7222 C   0  0  0  0  0  0
  -21.8820   -3.8146   23.4344 C   0  0  0  0  0  0
  -21.9196   -4.6962   22.3400 C   0  0  0  0  0  0
  -22.7848  -13.5235   21.1864 C   0  0  0  0  0  0
  -22.1665   -4.2146   21.0978 F   0  0  0  0  0  0
  -21.5622   -3.4542   25.7736 F   0  0  0  0  0  0
  -30.0138  -13.3757   20.4143 N   0  0  0  0  0  0
  -26.2970  -12.9343   20.3311 N   0  0  0  0  0  0
  -25.9305  -11.6502   20.5766 N   0  0  0  0  0  0
  -22.0491  -12.8217   22.0412 N   0  0  0  0  0  0
  -25.4280  -15.1891   20.4074 N   0  0  0  0  0  0
  -31.8436  -14.7027   20.1716 O   0  0  0  0  0  0
  -21.6640   -6.8872   21.4235 O   0  0  0  0  0  0
  -22.3535  -14.5546   20.6718 O   0  0  0  0  0  0
  -24.6227  -31.8633   23.2055 C   0  0  0  0  0  0
  -25.9094  -32.4797   23.8363 C   0  0  1  0  0  0
  -27.2239  -27.3645   20.1049 C   0  0  0  0  0  0
  -25.5922  -33.8595   24.2293 N   0  0  0  0  0  0
  -23.4131  -30.4900   21.5481 C   0  0  2  0  0  0
  -24.8553  -28.9504   20.1142 C   0  0  0  0  0  0
  -22.7455  -29.4657   22.4956 C   0  0  0  0  0  0
  -18.0291  -28.1384   22.8488 C   0  0  0  0  0  0
  -24.1491  -36.7317   23.2634 C   0  0  0  0  0  0
  -25.9500  -30.8110   21.3670 C   0  0  0  0  0  0
  -26.0242  -29.4424   20.7084 C   0  0  0  0  0  0
  -27.2130  -28.6625   20.6881 C   0  0  0  0  0  0
  -26.0247  -26.9047   19.5131 C   0  0  0  0  0  0
  -24.8550  -27.6843   19.5106 C   0  0  0  0  0  0
  -23.6228  -29.8262   20.1630 C   0  0  0  0  0  0
  -25.4112  -36.3098   24.0322 C   0  0  1  0  0  0
  -20.5890  -28.3692   23.1292 C   0  0  2  0  0  0
  -20.6793  -26.9423   22.5414 C   0  0  0  0  0  0
  -19.5770  -26.6391   21.5214 C   0  0  0  0  0  0
  -18.1942  -26.7932   22.1615 C   0  0  0  0  0  0
  -19.1542  -28.8852   23.2885 C   0  0  0  0  0  0
  -18.9465  -30.1452   23.8901 C   0  0  0  0  0  0
  -17.6470  -30.6586   24.0565 C   0  0  0  0  0  0
  -25.9039  -34.9463   23.5104 C   0  0  0  0  0  0
  -16.5360  -29.9092   23.6324 C   0  0  0  0  0  0
  -16.7280  -28.6510   23.0342 C   0  0  0  0  0  0
  -26.4489  -31.6594   25.0717 C   0  0  0  0  0  0
  -25.3723  -31.3718   26.1446 C   0  0  0  0  0  0
  -27.0327  -30.3024   24.6135 C   0  0  0  0  0  0
  -27.6056  -32.4328   25.7485 C   0  0  0  0  0  0
  -27.5579  -37.1809   24.8454 C   0  0  0  0  0  0
  -21.4176  -29.3048   22.3685 N   0  0  0  0  0  0
  -26.4295  -37.3785   23.9397 N   0  0  0  0  0  0
  -24.6810  -31.0695   22.0979 N   0  0  0  0  0  0
  -23.4194  -28.8193   23.3020 O   0  0  0  0  0  0
  -28.3736  -26.5746   20.1232 O   0  0  0  0  0  0
  -26.5606  -34.8928   22.4668 O   0  0  0  0  0  0
  -23.5404  -32.1420   23.7415 O   0  0  0  0  0  0
  -29.8632  -23.0472   20.6221 C   0  0  0  0  0  0
  -27.9200  -22.8732   19.0096 C   0  0  0  0  0  0
  -29.3598  -24.4705   21.0654 C   0  0  0  0  0  0
  -28.2321  -24.3898   18.8420 C   0  0  0  0  0  0
  -28.7718  -22.0845   20.0649 C   0  0  1  0  0  0
  -28.2375  -25.1166   20.2008 C   0  0  2  0  0  0
  -29.7526  -16.4912   17.7496 C   0  0  0  0  0  0
  -31.3619  -19.9138   20.4056 C   0  0  0  0  0  0
  -29.2261  -20.7016   19.4189 C   0  0  0  0  0  0
  -30.3032  -17.1022   20.7997 C   0  0  0  0  0  0
  -29.6526  -18.1647   19.7947 C   0  0  2  0  0  0
  -30.0560  -17.8994   18.2886 C   0  0  2  0  0  0
  -29.8865  -15.6622   20.7416 N   0  0  0  0  0  0
  -29.9150  -19.6177   20.2294 N   0  3  1  0  0  0
  -29.3427  -18.7221   17.3792 O   0  0  0  0  0  0
  -31.4665  -12.4650   19.1298 H   0  0  0  0  0  0
  -30.3423  -11.3588   19.8739 H   0  0  0  0  0  0
  -29.7452  -11.7382   17.4621 H   0  0  0  0  0  0
  -29.6466  -13.4576   17.7330 H   0  0  0  0  0  0
  -27.8434  -11.2905   18.8537 H   0  0  0  0  0  0
  -27.3634  -12.5841   17.7893 H   0  0  0  0  0  0
  -27.6693  -14.2484   19.5176 H   0  0  0  0  0  0
  -28.6928  -12.0521   21.3872 H   0  0  0  0  0  0
  -28.4581  -13.7224   21.8264 H   0  0  0  0  0  0
  -25.2748   -9.5695   22.4757 H   0  0  0  0  0  0
  -24.0006   -7.4633   22.7460 H   0  0  0  0  0  0
  -21.0838   -8.8762   19.8943 H   0  0  0  0  0  0
  -22.3677  -10.9672   19.6166 H   0  0  0  0  0  0
  -21.2012   -7.6149   23.9710 H   0  0  0  0  0  0
  -21.1476   -6.0525   25.9073 H   0  0  0  0  0  0
  -22.0599   -2.7606   23.2844 H   0  0  0  0  0  0
  -22.4110  -11.9880   22.4799 H   0  0  0  0  0  0
  -21.1104  -13.1229   22.2620 H   0  0  0  0  0  0
  -24.6560  -15.8402   20.5043 H   0  0  0  0  0  0
  -26.2652  -15.6222   20.0412 H   0  0  0  0  0  0
  -26.7166  -32.5487   23.1120 H   0  0  0  0  0  0
  -25.0072  -33.9735   25.0442 H   0  0  0  0  0  0
  -22.7045  -31.3092   21.4089 H   0  0  0  0  0  0
  -23.3737  -35.9662   23.3306 H   0  0  0  0  0  0
  -24.3581  -36.8942   22.2046 H   0  0  0  0  0  0
  -23.7269  -37.6529   23.6661 H   0  0  0  0  0  0
  -26.0728  -31.5773   20.6006 H   0  0  0  0  0  0
  -26.8333  -30.8607   21.9911 H   0  0  0  0  0  0
  -28.1160  -29.0399   21.1480 H   0  0  0  0  0  0
  -25.9597  -25.9310   19.0560 H   0  0  0  0  0  0
  -23.9547  -27.2967   19.0532 H   0  0  0  0  0  0
  -23.7400  -30.6031   19.4065 H   0  0  0  0  0  0
  -22.7421  -29.2556   19.8631 H   0  0  0  0  0  0
  -25.1296  -36.1951   25.0814 H   0  0  0  0  0  0
  -20.9976  -28.3285   24.1414 H   0  0  0  0  0  0
  -20.5731  -26.2295   23.3610 H   0  0  0  0  0  0
  -21.6658  -26.7488   22.1184 H   0  0  0  0  0  0
  -19.6938  -25.6305   21.1242 H   0  0  0  0  0  0
  -19.6710  -27.3196   20.6743 H   0  0  0  0  0  0
  -17.4221  -26.6682   21.4009 H   0  0  0  0  0  0
  -18.0338  -26.0064   22.9001 H   0  0  0  0  0  0
  -19.7941  -30.7263   24.2268 H   0  0  0  0  0  0
  -17.5028  -31.6263   24.5175 H   0  0  0  0  0  0
  -15.5358  -30.2996   23.7649 H   0  0  0  0  0  0
  -15.8679  -28.0836   22.7045 H   0  0  0  0  0  0
  -24.5900  -30.7063   25.7782 H   0  0  0  0  0  0
  -24.8891  -32.2869   26.4873 H   0  0  0  0  0  0
  -25.8048  -30.8901   27.0223 H   0  0  0  0  0  0
  -26.2891  -29.6770   24.1177 H   0  0  0  0  0  0
  -27.4068  -29.7283   25.4624 H   0  0  0  0  0  0
  -27.8743  -30.4328   23.9328 H   0  0  0  0  0  0
  -27.2676  -33.3629   26.2069 H   0  0  0  0  0  0
  -28.3863  -32.6891   25.0308 H   0  0  0  0  0  0
  -28.0729  -31.8447   26.5392 H   0  0  0  0  0  0
  -28.2594  -38.0110   24.7510 H   0  0  0  0  0  0
  -28.1084  -36.2637   24.6284 H   0  0  0  0  0  0
  -27.2291  -37.1475   25.8858 H   0  0  0  0  0  0
  -20.9351  -29.8758   21.6889 H   0  0  0  0  0  0
  -26.0177  -38.2861   24.1394 H   0  0  0  0  0  0
  -30.3614  -22.5942   21.4783 H   0  0  0  0  0  0
  -30.6328  -23.1739   19.8593 H   0  0  0  0  0  0
  -28.0180  -22.4156   18.0241 H   0  0  0  0  0  0
  -26.8657  -22.7584   19.2652 H   0  0  0  0  0  0
  -30.2229  -25.1370   21.0823 H   0  0  0  0  0  0
  -29.0137  -24.4278   22.0988 H   0  0  0  0  0  0
  -27.5174  -24.8292   18.1503 H   0  0  0  0  0  0
  -29.2027  -24.5191   18.3605 H   0  0  0  0  0  0
  -28.1096  -21.8480   20.9001 H   0  0  0  0  0  0
  -27.2954  -24.8836   20.7010 H   0  0  0  0  0  0
  -30.4738  -15.7660   18.1110 H   0  0  0  0  0  0
  -29.8275  -16.4434   16.6618 H   0  0  0  0  0  0
  -28.7508  -16.1582   18.0241 H   0  0  0  0  0  0
  -31.5364  -20.9381   20.7196 H   0  0  0  0  0  0
  -31.9159  -19.7754   19.4779 H   0  0  0  0  0  0
  -31.8182  -19.2877   21.1707 H   0  0  0  0  0  0
  -29.8309  -20.9169   18.5368 H   0  0  0  0  0  0
  -28.2994  -20.2592   19.0513 H   0  0  0  0  0  0
  -30.0976  -17.4255   21.8205 H   0  0  0  0  0  0
  -31.3882  -17.1443   20.6995 H   0  0  0  0  0  0
  -28.5725  -18.0287   19.8673 H   0  0  0  0  0  0
  -31.1216  -18.0900   18.1540 H   0  0  0  0  0  0
  -28.9194  -15.4652   20.9515 H   0  0  0  0  0  0
  -29.5027  -19.6836   21.1475 H   0  0  0  0  0  0
  -29.6900  -18.5684   16.5053 H   0  0  0  0  0  0
  1 25  1  0  0  0
  1 30  2  0  0  0
  1 83  1  0  0  0
  2  3  1  0  0  0
  2 25  1  0  0  0
  2 86  1  0  0  0
  2 87  1  0  0  0
  3  4  1  0  0  0
  3 88  1  0  0  0
  3 89  1  0  0  0
  4  5  1  0  0  0
  4 90  1  0  0  0
  4 91  1  0  0  0
  5  6  1  0  0  0
  5 26  1  0  0  0
  5 92  1  0  0  0
  6 25  1  0  0  0
  6 93  1  0  0  0
  6 94  1  0  0  0
  7  8  2  0  0  0
  7 26  1  0  0  0
  7 29  1  0  0  0
  8  9  1  0  0  0
  8 22  1  0  0  0
  9 10  1  0  0  0
  9 27  2  0  0  0
 10 11  2  0  0  0
 10 15  1  0  0  0
 11 12  1  0  0  0
 11 95  1  0  0  0
 12 13  2  0  0  0
 12 96  1  0  0  0
 13 14  1  0  0  0
 13 31  1  0  0  0
 14 15  2  0  0  0
 14 97  1  0  0  0
 15 98  1  0  0  0
 16 17  2  0  0  0
 16 21  1  0  0  0
 16 31  1  0  0  0
 17 18  1  0  0  0
 17 99  1  0  0  0
 18 19  2  0  0  0
 18100  1  0  0  0
 19 20  1  0  0  0
 19 24  1  0  0  0
 20 21  2  0  0  0
 20101  1  0  0  0
 21 23  1  0  0  0
 22 28  1  0  0  0
 22 32  2  0  0  0
 26 27  1  0  0  0
 28102  1  0  0  0
 28103  1  0  0  0
 29104  1  0  0  0
 29105  1  0  0  0
 33 34  1  0  0  0
 33 66  1  0  0  0
 33 70  2  0  0  0
 34 36  1  0  0  0
 34 59  1  0  0  0
 34106  1  0  0  0
 35 44  2  0  0  0
 35 45  1  0  0  0
 35 68  1  0  0  0
 36 56  1  0  0  0
 36107  1  0  0  0
 37 39  1  0  0  0
 37 47  1  0  0  0
 37 66  1  0  0  0
 37108  1  0  0  0
 38 43  2  0  0  0
 38 46  1  0  0  0
 38 47  1  0  0  0
 39 64  1  0  0  0
 39 67  2  0  0  0
 40 52  1  0  0  0
 40 53  2  0  0  0
 40 58  1  0  0  0
 41109  1  0  0  0
 41110  1  0  0  0
 41111  1  0  0  0
 41 48  1  0  0  0
 42 43  1  0  0  0
 42 66  1  0  0  0
 42112  1  0  0  0
 42113  1  0  0  0
 43 44  1  0  0  0
 44114  1  0  0  0
 45 46  2  0  0  0
 45115  1  0  0  0
 46116  1  0  0  0
 47117  1  0  0  0
 47118  1  0  0  0
 48 56  1  0  0  0
 48 65  1  0  0  0
 48119  1  0  0  0
 49 50  1  0  0  0
 49 53  1  0  0  0
 49 64  1  0  0  0
 49120  1  0  0  0
 50 51  1  0  0  0
 50121  1  0  0  0
 50122  1  0  0  0
 51 52  1  0  0  0
 51123  1  0  0  0
 51124  1  0  0  0
 52125  1  0  0  0
 52126  1  0  0  0
 53 54  1  0  0  0
 54 55  2  0  0  0
 54127  1  0  0  0
 55 57  1  0  0  0
 55128  1  0  0  0
 56 69  2  0  0  0
 57 58  2  0  0  0
 57129  1  0  0  0
 58130  1  0  0  0
 59 60  1  0  0  0
 59 61  1  0  0  0
 59 62  1  0  0  0
 60131  1  0  0  0
 60132  1  0  0  0
 60133  1  0  0  0
 61134  1  0  0  0
 61135  1  0  0  0
 61136  1  0  0  0
 62137  1  0  0  0
 62138  1  0  0  0
 62139  1  0  0  0
 63 65  1  0  0  0
 63140  1  0  0  0
 63141  1  0  0  0
 63142  1  0  0  0
 64143  1  0  0  0
 65144  1  0  0  0
 68 76  1  0  0  0
 71 73  1  0  0  0
 71 75  1  0  0  0
 71145  1  0  0  0
 71146  1  0  0  0
 72 74  1  0  0  0
 72 75  1  0  0  0
 72147  1  0  0  0
 72148  1  0  0  0
 73 76  1  0  0  0
 73149  1  0  0  0
 73150  1  0  0  0
 74 76  1  0  0  0
 74151  1  0  0  0
 74152  1  0  0  0
 75 79  1  0  0  0
 75153  1  0  0  0
 76154  1  0  0  0
 77155  1  0  0  0
 77156  1  0  0  0
 77157  1  0  0  0
 77 82  1  0  0  0
 78158  1  0  0  0
 78159  1  0  0  0
 78160  1  0  0  0
 78 84  1  0  0  0
 79 84  1  0  0  0
 79161  1  0  0  0
 79162  1  0  0  0
 80 83  1  0  0  0
 80163  1  0  0  0
 80164  1  0  0  0
 80 81  1  0  0  0
 81 82  1  0  0  0
 81 84  1  0  0  0
 81165  1  0  0  0
 82 85  1  0  0  0
 82166  1  0  0  0
 83167  1  0  0  0
 84168  1  0  0  0
 85169  1  0  0  0
M  CHG  1  84   1
M  ISO  4   1 100  68 101  76 101  83 100
M  END
> <chiral flag>
0

> <version>
0

> <s_m_source_file>
/data/baiqing/PycharmProjects/Reinvent-master-3.2/result/LINK_invent/BTK/process_docking_weight1_custom_sum_contain_oxygen_bond_distance_aromatic_linkinvent_7_9_3/rearranged_h_0109.sdf

> <i_m_source_file_index>
59

> <r_mmod_Potential_Energy-OPLS-2005>
-30.7860069274902

> <r_mmod_Stretch_Energy-OPLS-2005>
73.9473648071289

> <r_mmod_Bend_Energy-OPLS-2005>
147.861770629883

> <r_mmod_Torsional_Energy-OPLS-2005>
290.027648925781

> <r_mmod_Improper_Torsional_Energy-OPLS-2005>
5.59340953826904

> <r_mmod_Van_der_Waal_Energy-OPLS-2005>
149.159027099609

> <r_mmod_Electrostatic_Energy-OPLS-2005>
-286.141784667969

> <r_mmod_Solvation_Energy-OPLS-2005>
-442.671661376953

> <b_mmod_Minimization_Converged-OPLS-2005>
0

> <r_mmod_RMS_Derivative-OPLS-2005>
1.14593636989594

$$$$
59
                    3D
 Structure written by MMmdl.
171179  0  0  1  0            999 V2000
  -30.6778  -14.4827   20.5330 C   0  0  0  0  0  0
  -30.4232  -12.2981   19.4267 C   0  0  0  0  0  0
  -29.4927  -12.4833   18.2075 C   0  0  0  0  0  0
  -28.0142  -12.3496   18.6240 C   0  0  0  0  0  0
  -27.6623  -13.1976   19.8744 C   0  0  2  0  0  0
  -28.7048  -12.9878   20.9976 C   0  0  0  0  0  0
  -25.2627  -13.8126   20.5682 C   0  0  0  0  0  0
  -24.1859  -13.0423   20.9164 C   0  0  0  0  0  0
  -24.6390  -11.6885   20.8735 C   0  0  0  0  0  0
  -23.9047  -10.4294   21.0419 C   0  0  0  0  0  0
  -24.3611   -9.4210   21.9180 C   0  0  0  0  0  0
  -23.6312   -8.2235   22.0741 C   0  0  0  0  0  0
  -22.4291   -8.0284   21.3539 C   0  0  0  0  0  0
  -21.9923   -9.0241   20.4632 C   0  0  0  0  0  0
  -22.7230  -10.2136   20.3054 C   0  0  0  0  0  0
  -21.6870   -6.0743   22.5279 C   0  0  0  0  0  0
  -21.3993   -6.5635   23.8203 C   0  0  0  0  0  0
  -21.3664   -5.6795   24.9168 C   0  0  0  0  0  0
  -21.6076   -4.3061   24.7225 C   0  0  0  0  0  0
  -21.8824   -3.8145   23.4342 C   0  0  0  0  0  0
  -21.9183   -4.6965   22.3399 C   0  0  0  0  0  0
  -22.7894  -13.5205   21.1867 C   0  0  0  0  0  0
  -22.1672   -4.2155   21.0987 F   0  0  0  0  0  0
  -21.5647   -3.4543   25.7736 F   0  0  0  0  0  0
  -30.0339  -13.2885   20.4415 N   0  0  0  0  0  0
  -26.3038  -12.9262   20.3379 N   0  0  0  0  0  0
  -25.9306  -11.6435   20.5760 N   0  0  0  0  0  0
  -22.0571  -12.8154   22.0423 N   0  0  0  0  0  0
  -25.4428  -15.1844   20.4072 N   0  0  0  0  0  0
  -31.8163  -14.6707   20.0963 O   0  0  0  0  0  0
  -21.6654   -6.8892   21.4248 O   0  0  0  0  0  0
  -22.3575  -14.5542   20.6782 O   0  0  0  0  0  0
  -24.6123  -31.8670   23.2094 C   0  0  0  0  0  0
  -25.9039  -32.4815   23.8366 C   0  0  1  0  0  0
  -27.2465  -27.4394   20.0929 C   0  0  0  0  0  0
  -25.5912  -33.8607   24.2308 N   0  0  0  0  0  0
  -23.3981  -30.4897   21.5496 C   0  0  2  0  0  0
  -24.8468  -28.9538   20.1151 C   0  0  0  0  0  0
  -22.7374  -29.4652   22.4979 C   0  0  0  0  0  0
  -18.0260  -28.1361   22.8492 C   0  0  0  0  0  0
  -24.1494  -36.7292   23.2631 C   0  0  0  0  0  0
  -25.9236  -30.8357   21.3605 C   0  0  0  0  0  0
  -26.0032  -29.4688   20.7100 C   0  0  0  0  0  0
  -27.1986  -28.7174   20.7003 C   0  0  0  0  0  0
  -26.0618  -26.9288   19.5107 C   0  0  0  0  0  0
  -24.8694  -27.6812   19.5172 C   0  0  0  0  0  0
  -23.6086  -29.8210   20.1636 C   0  0  0  0  0  0
  -25.4122  -36.3098   24.0322 C   0  0  1  0  0  0
  -20.5848  -28.3644   23.1319 C   0  0  2  0  0  0
  -20.6764  -26.9389   22.5407 C   0  0  0  0  0  0
  -19.5747  -26.6382   21.5194 C   0  0  0  0  0  0
  -18.1920  -26.7908   22.1608 C   0  0  0  0  0  0
  -19.1511  -28.8816   23.2900 C   0  0  0  0  0  0
  -18.9448  -30.1424   23.8898 C   0  0  0  0  0  0
  -17.6463  -30.6576   24.0563 C   0  0  0  0  0  0
  -25.9037  -34.9472   23.5109 C   0  0  0  0  0  0
  -16.5349  -29.9074   23.6342 C   0  0  0  0  0  0
  -16.7257  -28.6495   23.0354 C   0  0  0  0  0  0
  -26.4505  -31.6586   25.0682 C   0  0  0  0  0  0
  -25.3798  -31.3660   26.1441 C   0  0  0  0  0  0
  -27.0350  -30.3049   24.6009 C   0  0  0  0  0  0
  -27.6066  -32.4321   25.7452 C   0  0  0  0  0  0
  -27.5579  -37.1798   24.8464 C   0  0  0  0  0  0
  -21.4100  -29.3017   22.3733 N   0  0  0  0  0  0
  -26.4295  -37.3793   23.9401 N   0  0  0  0  0  0
  -24.6623  -31.0779   22.0989 N   0  0  0  0  0  0
  -23.4158  -28.8212   23.3030 O   0  0  0  0  0  0
  -28.4498  -26.7564   20.1350 O   0  0  0  0  0  0
  -26.5582  -34.8935   22.4659 O   0  0  0  0  0  0
  -23.5333  -32.1427   23.7497 O   0  0  0  0  0  0
  -30.0815  -21.5814   20.4681 C   0  0  0  0  0  0
  -28.0308  -19.7886   20.2085 C   0  0  0  0  0  0
  -30.2728  -20.2736   20.9761 C   0  0  0  0  0  0
  -29.2116  -19.3407   20.8420 C   0  0  0  0  0  0
  -28.8516  -21.9297   19.8736 C   0  0  0  0  0  0
  -30.4361  -25.0327   17.4481 C   0  0  0  0  0  0
  -31.1430  -21.0492   23.8687 C   0  0  0  0  0  0
  -33.4995  -20.3971   23.2097 C   0  0  0  0  0  0
  -31.6085  -19.9007   21.6188 C   0  0  0  0  0  0
  -29.2586  -17.8997   21.3805 C   0  0  0  0  0  0
  -30.0570  -25.9661   18.6051 C   0  0  0  0  0  0
  -30.1656  -16.9229   20.5897 C   0  0  0  0  0  0
  -28.7980  -24.3180   20.1427 C   0  0  0  0  0  0
  -32.1290  -20.8727   22.7007 C   0  0  0  0  0  0
  -28.7239  -25.6207   19.2974 C   0  0  1  0  0  0
  -27.8549  -21.0368   19.7300 N   0  0  0  0  0  0
  -29.9046  -15.5144   20.9187 N   0  0  0  0  0  0
  -28.5823  -23.1637   19.3226 O   0  0  0  0  0  0
  -31.4677  -12.3918   19.1261 H   0  0  0  0  0  0
  -30.3220  -11.2897   19.8327 H   0  0  0  0  0  0
  -29.7275  -11.7436   17.4404 H   0  0  0  0  0  0
  -29.6604  -13.4608   17.7500 H   0  0  0  0  0  0
  -27.8255  -11.2956   18.8308 H   0  0  0  0  0  0
  -27.3592  -12.6179   17.7946 H   0  0  0  0  0  0
  -27.7000  -14.2415   19.5624 H   0  0  0  0  0  0
  -28.6827  -11.9565   21.3508 H   0  0  0  0  0  0
  -28.4744  -13.5957   21.8735 H   0  0  0  0  0  0
  -25.2764   -9.5696   22.4733 H   0  0  0  0  0  0
  -24.0063   -7.4611   22.7425 H   0  0  0  0  0  0
  -21.0873   -8.8724   19.8908 H   0  0  0  0  0  0
  -22.3682  -10.9666   19.6161 H   0  0  0  0  0  0
  -21.1977   -7.6140   23.9694 H   0  0  0  0  0  0
  -21.1493   -6.0531   25.9069 H   0  0  0  0  0  0
  -22.0601   -2.7614   23.2830 H   0  0  0  0  0  0
  -22.4226  -11.9794   22.4749 H   0  0  0  0  0  0
  -21.1173  -13.1121   22.2642 H   0  0  0  0  0  0
  -24.6871  -15.8499   20.5282 H   0  0  0  0  0  0
  -26.2926  -15.6109   20.0603 H   0  0  0  0  0  0
  -26.7090  -32.5551   23.1105 H   0  0  0  0  0  0
  -25.0166  -33.9790   25.0522 H   0  0  0  0  0  0
  -22.6864  -31.3056   21.4086 H   0  0  0  0  0  0
  -23.3778  -35.9605   23.3290 H   0  0  0  0  0  0
  -24.3585  -36.8920   22.2047 H   0  0  0  0  0  0
  -23.7241  -37.6484   23.6659 H   0  0  0  0  0  0
  -26.0287  -31.6033   20.5930 H   0  0  0  0  0  0
  -26.8129  -30.8910   21.9763 H   0  0  0  0  0  0
  -28.0926  -29.1140   21.1609 H   0  0  0  0  0  0
  -26.0252  -25.9462   19.0661 H   0  0  0  0  0  0
  -23.9734  -27.2728   19.0689 H   0  0  0  0  0  0
  -23.7150  -30.5955   19.4035 H   0  0  0  0  0  0
  -22.7324  -29.2408   19.8695 H   0  0  0  0  0  0
  -25.1307  -36.1935   25.0818 H   0  0  0  0  0  0
  -20.9926  -28.3202   24.1439 H   0  0  0  0  0  0
  -20.5671  -26.2241   23.3578 H   0  0  0  0  0  0
  -21.6640  -26.7443   22.1197 H   0  0  0  0  0  0
  -19.6925  -25.6295   21.1211 H   0  0  0  0  0  0
  -19.6702  -27.3201   20.6734 H   0  0  0  0  0  0
  -17.4198  -26.6651   21.4007 H   0  0  0  0  0  0
  -18.0334  -26.0023   22.8983 H   0  0  0  0  0  0
  -19.7934  -30.7232   24.2268 H   0  0  0  0  0  0
  -17.5032  -31.6265   24.5144 H   0  0  0  0  0  0
  -15.5352  -30.2992   23.7669 H   0  0  0  0  0  0
  -15.8651  -28.0827   22.7065 H   0  0  0  0  0  0
  -24.5972  -30.6998   25.7791 H   0  0  0  0  0  0
  -24.8995  -32.2804   26.4933 H   0  0  0  0  0  0
  -25.8206  -30.8813   27.0164 H   0  0  0  0  0  0
  -26.2867  -29.6757   24.1171 H   0  0  0  0  0  0
  -27.4284  -29.7325   25.4420 H   0  0  0  0  0  0
  -27.8623  -30.4403   23.9037 H   0  0  0  0  0  0
  -27.2672  -33.3623   26.2025 H   0  0  0  0  0  0
  -28.3894  -32.6875   25.0295 H   0  0  0  0  0  0
  -28.0703  -31.8438   26.5382 H   0  0  0  0  0  0
  -28.2591  -38.0097   24.7546 H   0  0  0  0  0  0
  -28.1088  -36.2639   24.6276 H   0  0  0  0  0  0
  -27.2285  -37.1420   25.8860 H   0  0  0  0  0  0
  -20.9241  -29.8746   21.6976 H   0  0  0  0  0  0
  -26.0174  -38.2857   24.1455 H   0  0  0  0  0  0
  -30.8835  -22.3036   20.5133 H   0  0  0  0  0  0
  -27.1836  -19.1297   20.0892 H   0  0  0  0  0  0
  -31.3418  -25.3846   16.9535 H   0  0  0  0  0  0
  -29.6459  -24.9935   16.6979 H   0  0  0  0  0  0
  -30.6217  -24.0161   17.7993 H   0  0  0  0  0  0
  -31.5275  -21.7580   24.6035 H   0  0  0  0  0  0
  -30.9609  -20.1072   24.3855 H   0  0  0  0  0  0
  -30.1793  -21.4323   23.5312 H   0  0  0  0  0  0
  -33.9017  -21.0669   23.9709 H   0  0  0  0  0  0
  -34.2261  -20.3514   22.3982 H   0  0  0  0  0  0
  -33.4308  -19.3984   23.6451 H   0  0  0  0  0  0
  -32.3445  -19.8233   20.8192 H   0  0  0  0  0  0
  -31.5572  -18.9124   22.0678 H   0  0  0  0  0  0
  -28.2406  -17.5092   21.3789 H   0  0  0  0  0  0
  -29.5430  -17.9156   22.4341 H   0  0  0  0  0  0
  -29.9887  -26.9816   18.2092 H   0  0  0  0  0  0
  -30.8613  -25.9855   19.3436 H   0  0  0  0  0  0
  -31.2201  -17.1481   20.7508 H   0  0  0  0  0  0
  -29.9919  -17.0486   19.5206 H   0  0  0  0  0  0
  -28.0064  -24.3340   20.8930 H   0  0  0  0  0  0
  -29.7419  -24.2676   20.6858 H   0  0  0  0  0  0
  -32.2790  -21.8506   22.2438 H   0  0  0  0  0  0
  -27.9765  -25.5098   18.5164 H   0  0  0  0  0  0
  -28.9805  -15.2783   21.2457 H   0  0  0  0  0  0
  1 25  1  0  0  0
  1 30  2  0  0  0
  1 87  1  0  0  0
  2  3  1  0  0  0
  2 25  1  0  0  0
  2 89  1  0  0  0
  2 90  1  0  0  0
  3  4  1  0  0  0
  3 91  1  0  0  0
  3 92  1  0  0  0
  4  5  1  0  0  0
  4 93  1  0  0  0
  4 94  1  0  0  0
  5  6  1  0  0  0
  5 26  1  0  0  0
  5 95  1  0  0  0
  6 25  1  0  0  0
  6 96  1  0  0  0
  6 97  1  0  0  0
  7  8  2  0  0  0
  7 26  1  0  0  0
  7 29  1  0  0  0
  8  9  1  0  0  0
  8 22  1  0  0  0
  9 10  1  0  0  0
  9 27  2  0  0  0
 10 11  2  0  0  0
 10 15  1  0  0  0
 11 12  1  0  0  0
 11 98  1  0  0  0
 12 13  2  0  0  0
 12 99  1  0  0  0
 13 14  1  0  0  0
 13 31  1  0  0  0
 14 15  2  0  0  0
 14100  1  0  0  0
 15101  1  0  0  0
 16 17  2  0  0  0
 16 21  1  0  0  0
 16 31  1  0  0  0
 17 18  1  0  0  0
 17102  1  0  0  0
 18 19  2  0  0  0
 18103  1  0  0  0
 19 20  1  0  0  0
 19 24  1  0  0  0
 20 21  2  0  0  0
 20104  1  0  0  0
 21 23  1  0  0  0
 22 28  1  0  0  0
 22 32  2  0  0  0
 26 27  1  0  0  0
 28105  1  0  0  0
 28106  1  0  0  0
 29107  1  0  0  0
 29108  1  0  0  0
 33 34  1  0  0  0
 33 66  1  0  0  0
 33 70  2  0  0  0
 34 36  1  0  0  0
 34 59  1  0  0  0
 34109  1  0  0  0
 35 44  2  0  0  0
 35 45  1  0  0  0
 35 68  1  0  0  0
 36 56  1  0  0  0
 36110  1  0  0  0
 37 39  1  0  0  0
 37 47  1  0  0  0
 37 66  1  0  0  0
 37111  1  0  0  0
 38 43  2  0  0  0
 38 46  1  0  0  0
 38 47  1  0  0  0
 39 64  1  0  0  0
 39 67  2  0  0  0
 40 52  1  0  0  0
 40 53  2  0  0  0
 40 58  1  0  0  0
 41112  1  0  0  0
 41113  1  0  0  0
 41114  1  0  0  0
 41 48  1  0  0  0
 42 43  1  0  0  0
 42 66  1  0  0  0
 42115  1  0  0  0
 42116  1  0  0  0
 43 44  1  0  0  0
 44117  1  0  0  0
 45 46  2  0  0  0
 45118  1  0  0  0
 46119  1  0  0  0
 47120  1  0  0  0
 47121  1  0  0  0
 48 56  1  0  0  0
 48 65  1  0  0  0
 48122  1  0  0  0
 49 50  1  0  0  0
 49 53  1  0  0  0
 49 64  1  0  0  0
 49123  1  0  0  0
 50 51  1  0  0  0
 50124  1  0  0  0
 50125  1  0  0  0
 51 52  1  0  0  0
 51126  1  0  0  0
 51127  1  0  0  0
 52128  1  0  0  0
 52129  1  0  0  0
 53 54  1  0  0  0
 54 55  2  0  0  0
 54130  1  0  0  0
 55 57  1  0  0  0
 55131  1  0  0  0
 56 69  2  0  0  0
 57 58  2  0  0  0
 57132  1  0  0  0
 58133  1  0  0  0
 59 60  1  0  0  0
 59 61  1  0  0  0
 59 62  1  0  0  0
 60134  1  0  0  0
 60135  1  0  0  0
 60136  1  0  0  0
 61137  1  0  0  0
 61138  1  0  0  0
 61139  1  0  0  0
 62140  1  0  0  0
 62141  1  0  0  0
 62142  1  0  0  0
 63 65  1  0  0  0
 63143  1  0  0  0
 63144  1  0  0  0
 63145  1  0  0  0
 64146  1  0  0  0
 65147  1  0  0  0
 68 85  1  0  0  0
 71 73  2  0  0  0
 71 75  1  0  0  0
 71148  1  0  0  0
 72 74  2  0  0  0
 72 86  1  0  0  0
 72149  1  0  0  0
 73 74  1  0  0  0
 73 79  1  0  0  0
 74 80  1  0  0  0
 75 86  2  0  0  0
 75 88  1  0  0  0
 76 81  1  0  0  0
 76150  1  0  0  0
 76151  1  0  0  0
 76152  1  0  0  0
 77153  1  0  0  0
 77154  1  0  0  0
 77155  1  0  0  0
 77 84  1  0  0  0
 78 84  1  0  0  0
 78156  1  0  0  0
 78157  1  0  0  0
 78158  1  0  0  0
 79 84  1  0  0  0
 79159  1  0  0  0
 79160  1  0  0  0
 80 82  1  0  0  0
 80161  1  0  0  0
 80162  1  0  0  0
 81163  1  0  0  0
 81164  1  0  0  0
 81 85  1  0  0  0
 82 87  1  0  0  0
 82165  1  0  0  0
 82166  1  0  0  0
 83 85  1  0  0  0
 83 88  1  0  0  0
 83167  1  0  0  0
 83168  1  0  0  0
 84169  1  0  0  0
 85170  1  0  0  0
 87171  1  0  0  0
M  ISO  4   1 100  68 101  85 101  87 100
M  END
> <chiral flag>
0

> <version>
0

> <s_m_source_file>
/data/baiqing/PycharmProjects/Reinvent-master-3.2/result/LINK_invent/BTK/process_docking_weight1_custom_sum_contain_oxygen_bond_distance_aromatic_linkinvent_7_9_3/rearranged_h_0109.sdf

> <i_m_source_file_index>
60

> <r_mmod_Potential_Energy-OPLS-2005>
-224.708053588867

> <r_mmod_Stretch_Energy-OPLS-2005>
37.8979301452637

> <r_mmod_Bend_Energy-OPLS-2005>
113.212310791016

> <r_mmod_Torsional_Energy-OPLS-2005>
225.844619750977

> <r_mmod_Improper_Torsional_Energy-OPLS-2005>
6.1935830116272

> <r_mmod_Van_der_Waal_Energy-OPLS-2005>
152.084381103516

> <r_mmod_Electrostatic_Energy-OPLS-2005>
-557.948669433594

> <r_mmod_Solvation_Energy-OPLS-2005>
-216.504119873047

> <b_mmod_Minimization_Converged-OPLS-2005>
0

> <r_mmod_RMS_Derivative-OPLS-2005>
2.91522574424744

$$$$
60
                    3D
 Structure written by MMmdl.
160168  0  0  1  0            999 V2000
  -30.3919  -15.3880   20.3716 C   0  0  0  0  0  0
  -30.4374  -12.9079   19.5163 C   0  0  0  0  0  0
  -29.5384  -12.5886   18.2954 C   0  0  0  0  0  0
  -28.0925  -12.2947   18.7311 C   0  0  0  0  0  0
  -27.6023  -13.2800   19.8210 C   0  0  2  0  0  0
  -28.6368  -13.5132   20.9405 C   0  0  0  0  0  0
  -25.2391  -13.8235   20.5833 C   0  0  0  0  0  0
  -24.1731  -13.0418   20.9289 C   0  0  0  0  0  0
  -24.6399  -11.6920   20.8802 C   0  0  0  0  0  0
  -23.9088  -10.4298   21.0435 C   0  0  0  0  0  0
  -24.3641   -9.4211   21.9207 C   0  0  0  0  0  0
  -23.6329   -8.2235   22.0753 C   0  0  0  0  0  0
  -22.4305   -8.0287   21.3539 C   0  0  0  0  0  0
  -21.9947   -9.0261   20.4632 C   0  0  0  0  0  0
  -22.7265  -10.2145   20.3074 C   0  0  0  0  0  0
  -21.6861   -6.0753   22.5288 C   0  0  0  0  0  0
  -21.4017   -6.5652   23.8218 C   0  0  0  0  0  0
  -21.3670   -5.6801   24.9177 C   0  0  0  0  0  0
  -21.6056   -4.3064   24.7214 C   0  0  0  0  0  0
  -21.8814   -3.8156   23.4338 C   0  0  0  0  0  0
  -21.9194   -4.6988   22.3395 C   0  0  0  0  0  0
  -22.7759  -13.5190   21.1924 C   0  0  0  0  0  0
  -22.1657   -4.2178   21.0972 F   0  0  0  0  0  0
  -21.5641   -3.4542   25.7719 F   0  0  0  0  0  0
  -29.8368  -14.0660   20.2853 N   0  0  0  0  0  0
  -26.2798  -12.9503   20.3297 N   0  0  0  0  0  0
  -25.9332  -11.6604   20.5763 N   0  0  0  0  0  0
  -22.0412  -12.8167   22.0477 N   0  0  0  0  0  0
  -25.4084  -15.1965   20.4339 N   0  0  0  0  0  0
  -31.6338  -15.3422   20.3085 O   0  0  0  0  0  0
  -21.6643   -6.8902   21.4246 O   0  0  0  0  0  0
  -22.3441  -14.5498   20.6763 O   0  0  0  0  0  0
  -24.6685  -31.8175   23.1646 C   0  0  0  0  0  0
  -25.9336  -32.4548   23.8146 C   0  0  1  0  0  0
  -27.2105  -26.8408   20.2324 C   0  0  0  0  0  0
  -25.5976  -33.8365   24.2057 N   0  0  0  0  0  0
  -23.4876  -30.4238   21.5150 C   0  0  2  0  0  0
  -24.9437  -28.7930   20.1168 C   0  0  0  0  0  0
  -22.7698  -29.4393   22.4755 C   0  0  0  0  0  0
  -18.0325  -28.1403   22.8456 C   0  0  0  0  0  0
  -24.1507  -36.7176   23.2654 C   0  0  0  0  0  0
  -26.0602  -30.5974   21.4076 C   0  0  0  0  0  0
  -26.1282  -29.1770   20.7597 C   0  0  0  0  0  0
  -27.2542  -28.2255   20.7858 C   0  0  0  0  0  0
  -26.0025  -26.6314   19.5281 C   0  0  0  0  0  0
  -24.9131  -27.5439   19.4759 C   0  0  0  0  0  0
  -23.7348  -29.7321   20.1438 C   0  0  0  0  0  0
  -25.4148  -36.2943   24.0310 C   0  0  1  0  0  0
  -20.5951  -28.3743   23.1165 C   0  0  2  0  0  0
  -20.6800  -26.9420   22.5395 C   0  0  0  0  0  0
  -19.5785  -26.6366   21.5204 C   0  0  0  0  0  0
  -18.1966  -26.7928   22.1607 C   0  0  0  0  0  0
  -19.1591  -28.8898   23.2793 C   0  0  0  0  0  0
  -18.9498  -30.1472   23.8844 C   0  0  0  0  0  0
  -17.6494  -30.6591   24.0545 C   0  0  0  0  0  0
  -25.9097  -34.9325   23.5007 C   0  0  0  0  0  0
  -16.5382  -29.9078   23.6336 C   0  0  0  0  0  0
  -16.7306  -28.6492   23.0365 C   0  0  0  0  0  0
  -26.4557  -31.6490   25.0691 C   0  0  0  0  0  0
  -25.3665  -31.3756   26.1326 C   0  0  0  0  0  0
  -27.0449  -30.2848   24.6454 C   0  0  0  0  0  0
  -27.6047  -32.4286   25.7489 C   0  0  0  0  0  0
  -27.5579  -37.1747   24.8469 C   0  0  0  0  0  0
  -21.4360  -29.3025   22.3517 N   0  0  0  0  0  0
  -26.4285  -37.3679   23.9406 N   0  0  0  0  0  0
  -24.7603  -30.9770   22.0820 N   0  0  0  0  0  0
  -23.4211  -28.7976   23.3031 O   0  0  0  0  0  0
  -28.1979  -25.6957   20.3226 O   0  0  0  0  0  0
  -26.5716  -34.8867   22.4606 O   0  0  0  0  0  0
  -23.5730  -32.1178   23.6690 O   0  0  0  0  0  0
  -29.3732  -18.7959   21.8349 C   0  0  0  0  0  0
  -29.2863  -19.5429   19.8096 C   0  0  0  0  0  0
  -29.5024  -18.2622   20.5068 C   0  0  0  0  0  0
  -29.1343  -20.1909   21.8790 C   0  0  0  0  0  0
  -30.1046  -20.7270   24.1608 C   0  0  0  0  0  0
  -27.6199  -20.6989   23.8039 C   0  0  0  0  0  0
  -27.0539  -23.8116   21.6186 C   0  0  0  0  0  0
  -29.3100  -16.5937   18.6167 C   0  0  0  0  0  0
  -29.0335  -22.5157   20.2165 C   0  0  0  0  0  0
  -28.9753  -20.9880   23.1468 C   0  0  0  0  0  0
  -27.9573  -24.0161   20.3946 C   0  0  2  0  0  0
  -29.0565  -20.8221   20.5982 N   0  0  0  0  0  0
  -29.6606  -16.6798   20.0380 N   0  0  0  0  0  0
  -31.4413  -13.1553   19.1677 H   0  0  0  0  0  0
  -30.5575  -12.0317   20.1557 H   0  0  0  0  0  0
  -29.9486  -11.7466   17.7372 H   0  0  0  0  0  0
  -29.5435  -13.4353   17.6093 H   0  0  0  0  0  0
  -28.0687  -11.2769   19.1206 H   0  0  0  0  0  0
  -27.4239  -12.3115   17.8710 H   0  0  0  0  0  0
  -27.4849  -14.2303   19.3026 H   0  0  0  0  0  0
  -28.8461  -12.5948   21.4928 H   0  0  0  0  0  0
  -28.2549  -14.2395   21.6607 H   0  0  0  0  0  0
  -25.2786   -9.5708   22.4783 H   0  0  0  0  0  0
  -24.0052   -7.4622   22.7461 H   0  0  0  0  0  0
  -21.0889   -8.8767   19.8931 H   0  0  0  0  0  0
  -22.3711  -10.9694   19.6198 H   0  0  0  0  0  0
  -21.1996   -7.6155   23.9720 H   0  0  0  0  0  0
  -21.1518   -6.0532   25.9081 H   0  0  0  0  0  0
  -22.0589   -2.7616   23.2813 H   0  0  0  0  0  0
  -22.4036  -11.9840   22.4880 H   0  0  0  0  0  0
  -21.1018  -13.1154   22.2639 H   0  0  0  0  0  0
  -24.6562  -15.8594   20.5909 H   0  0  0  0  0  0
  -26.2777  -15.6408   20.1617 H   0  0  0  0  0  0
  -26.7412  -32.5068   23.0859 H   0  0  0  0  0  0
  -25.0089  -33.9430   25.0184 H   0  0  0  0  0  0
  -22.8067  -31.2580   21.3363 H   0  0  0  0  0  0
  -23.3783  -35.9488   23.3289 H   0  0  0  0  0  0
  -24.3589  -36.8850   22.2073 H   0  0  0  0  0  0
  -23.7248  -37.6359   23.6710 H   0  0  0  0  0  0
  -26.2478  -31.3311   20.6228 H   0  0  0  0  0  0
  -26.9194  -30.6588   22.0641 H   0  0  0  0  0  0
  -28.1470  -28.5210   21.3186 H   0  0  0  0  0  0
  -25.8646  -25.6776   19.0404 H   0  0  0  0  0  0
  -24.0179  -27.2435   18.9481 H   0  0  0  0  0  0
  -23.8987  -30.4992   19.3854 H   0  0  0  0  0  0
  -22.8430  -29.1912   19.8189 H   0  0  0  0  0  0
  -25.1350  -36.1751   25.0806 H   0  0  0  0  0  0
  -21.0028  -28.3355   24.1290 H   0  0  0  0  0  0
  -20.5671  -26.2372   23.3647 H   0  0  0  0  0  0
  -21.6665  -26.7387   22.1213 H   0  0  0  0  0  0
  -19.6945  -25.6261   21.1280 H   0  0  0  0  0  0
  -19.6736  -27.3142   20.6713 H   0  0  0  0  0  0
  -17.4233  -26.6658   21.4017 H   0  0  0  0  0  0
  -18.0360  -26.0091   22.9025 H   0  0  0  0  0  0
  -19.7980  -30.7292   24.2224 H   0  0  0  0  0  0
  -17.5046  -31.6280   24.5138 H   0  0  0  0  0  0
  -15.5375  -30.2968   23.7689 H   0  0  0  0  0  0
  -15.8700  -28.0788   22.7128 H   0  0  0  0  0  0
  -24.5844  -30.7127   25.7607 H   0  0  0  0  0  0
  -24.8858  -32.2967   26.4634 H   0  0  0  0  0  0
  -25.7870  -30.8975   27.0184 H   0  0  0  0  0  0
  -26.3109  -29.6507   24.1467 H   0  0  0  0  0  0
  -27.3966  -29.7239   25.5122 H   0  0  0  0  0  0
  -27.9079  -30.4028   23.9899 H   0  0  0  0  0  0
  -27.2619  -33.3628   26.1955 H   0  0  0  0  0  0
  -28.3918  -32.6779   25.0357 H   0  0  0  0  0  0
  -28.0641  -31.8477   26.5501 H   0  0  0  0  0  0
  -28.2568  -38.0060   24.7499 H   0  0  0  0  0  0
  -28.1103  -36.2583   24.6324 H   0  0  0  0  0  0
  -27.2285  -37.1430   25.8867 H   0  0  0  0  0  0
  -20.9632  -29.8718   21.6635 H   0  0  0  0  0  0
  -26.0148  -38.2751   24.1387 H   0  0  0  0  0  0
  -29.4355  -18.1938   22.7336 H   0  0  0  0  0  0
  -29.2993  -19.6806   18.7362 H   0  0  0  0  0  0
  -31.0791  -20.9683   23.7370 H   0  0  0  0  0  0
  -30.1290  -19.6887   24.4981 H   0  0  0  0  0  0
  -29.9772  -21.3454   25.0508 H   0  0  0  0  0  0
  -26.7978  -20.9219   23.1255 H   0  0  0  0  0  0
  -27.4730  -21.2986   24.7023 H   0  0  0  0  0  0
  -27.5358  -19.6490   24.0934 H   0  0  0  0  0  0
  -26.6461  -22.7989   21.6270 H   0  0  0  0  0  0
  -26.2044  -24.4967   21.6088 H   0  0  0  0  0  0
  -27.5959  -23.9653   22.5520 H   0  0  0  0  0  0
  -28.5572  -17.3317   18.3391 H   0  0  0  0  0  0
  -28.9034  -15.6293   18.3193 H   0  0  0  0  0  0
  -30.1948  -16.7769   18.0038 H   0  0  0  0  0  0
  -29.9450  -22.8558   20.7069 H   0  0  0  0  0  0
  -29.3102  -22.5377   19.1625 H   0  0  0  0  0  0
  -29.0101  -22.0506   22.9129 H   0  0  0  0  0  0
  -27.2855  -23.8729   19.5491 H   0  0  0  0  0  0
  1 25  1  0  0  0
  1 30  2  0  0  0
  1 83  1  0  0  0
  2  3  1  0  0  0
  2 25  1  0  0  0
  2 84  1  0  0  0
  2 85  1  0  0  0
  3  4  1  0  0  0
  3 86  1  0  0  0
  3 87  1  0  0  0
  4  5  1  0  0  0
  4 88  1  0  0  0
  4 89  1  0  0  0
  5  6  1  0  0  0
  5 26  1  0  0  0
  5 90  1  0  0  0
  6 25  1  0  0  0
  6 91  1  0  0  0
  6 92  1  0  0  0
  7  8  2  0  0  0
  7 26  1  0  0  0
  7 29  1  0  0  0
  8  9  1  0  0  0
  8 22  1  0  0  0
  9 10  1  0  0  0
  9 27  2  0  0  0
 10 11  2  0  0  0
 10 15  1  0  0  0
 11 12  1  0  0  0
 11 93  1  0  0  0
 12 13  2  0  0  0
 12 94  1  0  0  0
 13 14  1  0  0  0
 13 31  1  0  0  0
 14 15  2  0  0  0
 14 95  1  0  0  0
 15 96  1  0  0  0
 16 17  2  0  0  0
 16 21  1  0  0  0
 16 31  1  0  0  0
 17 18  1  0  0  0
 17 97  1  0  0  0
 18 19  2  0  0  0
 18 98  1  0  0  0
 19 20  1  0  0  0
 19 24  1  0  0  0
 20 21  2  0  0  0
 20 99  1  0  0  0
 21 23  1  0  0  0
 22 28  1  0  0  0
 22 32  2  0  0  0
 26 27  1  0  0  0
 28100  1  0  0  0
 28101  1  0  0  0
 29102  1  0  0  0
 29103  1  0  0  0
 33 34  1  0  0  0
 33 66  1  0  0  0
 33 70  2  0  0  0
 34 36  1  0  0  0
 34 59  1  0  0  0
 34104  1  0  0  0
 35 44  2  0  0  0
 35 45  1  0  0  0
 35 68  1  0  0  0
 36 56  1  0  0  0
 36105  1  0  0  0
 37 39  1  0  0  0
 37 47  1  0  0  0
 37 66  1  0  0  0
 37106  1  0  0  0
 38 43  2  0  0  0
 38 46  1  0  0  0
 38 47  1  0  0  0
 39 64  1  0  0  0
 39 67  2  0  0  0
 40 52  1  0  0  0
 40 53  2  0  0  0
 40 58  1  0  0  0
 41107  1  0  0  0
 41108  1  0  0  0
 41109  1  0  0  0
 41 48  1  0  0  0
 42 43  1  0  0  0
 42 66  1  0  0  0
 42110  1  0  0  0
 42111  1  0  0  0
 43 44  1  0  0  0
 44112  1  0  0  0
 45 46  2  0  0  0
 45113  1  0  0  0
 46114  1  0  0  0
 47115  1  0  0  0
 47116  1  0  0  0
 48 56  1  0  0  0
 48 65  1  0  0  0
 48117  1  0  0  0
 49 50  1  0  0  0
 49 53  1  0  0  0
 49 64  1  0  0  0
 49118  1  0  0  0
 50 51  1  0  0  0
 50119  1  0  0  0
 50120  1  0  0  0
 51 52  1  0  0  0
 51121  1  0  0  0
 51122  1  0  0  0
 52123  1  0  0  0
 52124  1  0  0  0
 53 54  1  0  0  0
 54 55  2  0  0  0
 54125  1  0  0  0
 55 57  1  0  0  0
 55126  1  0  0  0
 56 69  2  0  0  0
 57 58  2  0  0  0
 57127  1  0  0  0
 58128  1  0  0  0
 59 60  1  0  0  0
 59 61  1  0  0  0
 59 62  1  0  0  0
 60129  1  0  0  0
 60130  1  0  0  0
 60131  1  0  0  0
 61132  1  0  0  0
 61133  1  0  0  0
 61134  1  0  0  0
 62135  1  0  0  0
 62136  1  0  0  0
 62137  1  0  0  0
 63 65  1  0  0  0
 63138  1  0  0  0
 63139  1  0  0  0
 63140  1  0  0  0
 64141  1  0  0  0
 65142  1  0  0  0
 68 81  1  0  0  0
 71 73  1  0  0  0
 71 74  2  0  0  0
 71143  1  0  0  0
 72 73  2  0  0  0
 72 82  1  0  0  0
 72144  1  0  0  0
 73 83  1  0  0  0
 74 80  1  0  0  0
 74 82  1  0  0  0
 75145  1  0  0  0
 75146  1  0  0  0
 75147  1  0  0  0
 75 80  1  0  0  0
 76 80  1  0  0  0
 76148  1  0  0  0
 76149  1  0  0  0
 76150  1  0  0  0
 77151  1  0  0  0
 77152  1  0  0  0
 77153  1  0  0  0
 77 81  1  0  0  0
 78 83  1  0  0  0
 78154  1  0  0  0
 78155  1  0  0  0
 78156  1  0  0  0
 79 81  1  0  0  0
 79 82  1  0  0  0
 79157  1  0  0  0
 79158  1  0  0  0
 80159  1  0  0  0
 81160  1  0  0  0
M  ISO  4   1 100  68 101  81 101  83 100
M  END
> <chiral flag>
0

> <version>
0

> <s_m_source_file>
/data/baiqing/PycharmProjects/Reinvent-master-3.2/result/LINK_invent/BTK/process_docking_weight1_custom_sum_contain_oxygen_bond_distance_aromatic_linkinvent_7_9_3/rearranged_h_0109.sdf

> <i_m_source_file_index>
61

> <r_mmod_Potential_Energy-OPLS-2005>
1793.25952148438

> <r_mmod_Stretch_Energy-OPLS-2005>
722.352844238281

> <r_mmod_Bend_Energy-OPLS-2005>
528.006286621094

> <r_mmod_Torsional_Energy-OPLS-2005>
318.421569824219

> <r_mmod_Improper_Torsional_Energy-OPLS-2005>
21.057315826416

> <r_mmod_Van_der_Waal_Energy-OPLS-2005>
100.716133117676

> <r_mmod_Electrostatic_Energy-OPLS-2005>
-305.352600097656

> <r_mmod_Solvation_Energy-OPLS-2005>
-193.66064453125

> <b_mmod_Minimization_Converged-OPLS-2005>
0

> <r_mmod_RMS_Derivative-OPLS-2005>
3.42565369606018

$$$$
61
                    3D
 Structure written by MMmdl.
152159  0  0  1  0            999 V2000
  -30.3445  -15.5612   20.3358 C   0  0  0  0  0  0
  -30.4280  -13.0265   19.5368 C   0  0  0  0  0  0
  -29.5489  -12.6378   18.3158 C   0  0  0  0  0  0
  -28.1170  -12.2966   18.7558 C   0  0  0  0  0  0
  -27.5982  -13.3019   19.8109 C   0  0  2  0  0  0
  -28.6176  -13.6132   20.9321 C   0  0  0  0  0  0
  -25.2335  -13.8277   20.5763 C   0  0  0  0  0  0
  -24.1721  -13.0440   20.9280 C   0  0  0  0  0  0
  -24.6408  -11.6948   20.8762 C   0  0  0  0  0  0
  -23.9109  -10.4299   21.0396 C   0  0  0  0  0  0
  -24.3654   -9.4216   21.9173 C   0  0  0  0  0  0
  -23.6317   -8.2250   22.0746 C   0  0  0  0  0  0
  -22.4301   -8.0279   21.3535 C   0  0  0  0  0  0
  -21.9942   -9.0256   20.4641 C   0  0  0  0  0  0
  -22.7279  -10.2134   20.3048 C   0  0  0  0  0  0
  -21.6863   -6.0739   22.5276 C   0  0  0  0  0  0
  -21.4022   -6.5641   23.8208 C   0  0  0  0  0  0
  -21.3668   -5.6792   24.9170 C   0  0  0  0  0  0
  -21.6048   -4.3053   24.7220 C   0  0  0  0  0  0
  -21.8820   -3.8144   23.4339 C   0  0  0  0  0  0
  -21.9193   -4.6966   22.3398 C   0  0  0  0  0  0
  -22.7733  -13.5177   21.1905 C   0  0  0  0  0  0
  -22.1657   -4.2151   21.0970 F   0  0  0  0  0  0
  -21.5632   -3.4532   25.7729 F   0  0  0  0  0  0
  -29.8044  -14.2092   20.2793 N   0  0  0  0  0  0
  -26.2776  -12.9598   20.3205 N   0  0  0  0  0  0
  -25.9348  -11.6678   20.5694 N   0  0  0  0  0  0
  -22.0388  -12.8169   22.0465 N   0  0  0  0  0  0
  -25.3927  -15.2015   20.4185 N   0  0  0  0  0  0
  -31.5773  -15.4942   20.1765 O   0  0  0  0  0  0
  -21.6652   -6.8885   21.4236 O   0  0  0  0  0  0
  -22.3414  -14.5471   20.6725 O   0  0  0  0  0  0
  -24.6802  -31.8042   23.1543 C   0  0  0  0  0  0
  -25.9396  -32.4490   23.8078 C   0  0  1  0  0  0
  -27.2249  -26.7413   20.2113 C   0  0  0  0  0  0
  -25.5995  -33.8313   24.1971 N   0  0  0  0  0  0
  -23.5041  -30.4074   21.5078 C   0  0  2  0  0  0
  -24.9595  -28.7548   20.1179 C   0  0  0  0  0  0
  -22.7751  -29.4338   22.4731 C   0  0  0  0  0  0
  -18.0333  -28.1421   22.8459 C   0  0  0  0  0  0
  -24.1496  -36.7166   23.2653 C   0  0  0  0  0  0
  -26.0827  -30.5499   21.4117 C   0  0  0  0  0  0
  -26.1486  -29.1190   20.7616 C   0  0  0  0  0  0
  -27.2682  -28.1404   20.7740 C   0  0  0  0  0  0
  -26.0028  -26.5755   19.5126 C   0  0  0  0  0  0
  -24.9239  -27.5080   19.4698 C   0  0  0  0  0  0
  -23.7548  -29.7062   20.1419 C   0  0  0  0  0  0
  -25.4145  -36.2911   24.0285 C   0  0  1  0  0  0
  -20.5966  -28.3777   23.1152 C   0  0  2  0  0  0
  -20.6804  -26.9443   22.5402 C   0  0  0  0  0  0
  -19.5779  -26.6370   21.5218 C   0  0  0  0  0  0
  -18.1963  -26.7948   22.1623 C   0  0  0  0  0  0
  -19.1601  -28.8925   23.2784 C   0  0  0  0  0  0
  -18.9506  -30.1507   23.8828 C   0  0  0  0  0  0
  -17.6495  -30.6605   24.0548 C   0  0  0  0  0  0
  -25.9121  -34.9298   23.4964 C   0  0  0  0  0  0
  -16.5383  -29.9087   23.6350 C   0  0  0  0  0  0
  -16.7311  -28.6510   23.0368 C   0  0  0  0  0  0
  -26.4585  -31.6507   25.0687 C   0  0  0  0  0  0
  -25.3662  -31.3816   26.1313 C   0  0  0  0  0  0
  -27.0504  -30.2847   24.6556 C   0  0  0  0  0  0
  -27.6039  -32.4361   25.7499 C   0  0  0  0  0  0
  -27.5561  -37.1748   24.8471 C   0  0  0  0  0  0
  -21.4401  -29.3035   22.3483 N   0  0  0  0  0  0
  -26.4279  -37.3661   23.9400 N   0  0  0  0  0  0
  -24.7787  -30.9529   22.0773 N   0  0  0  0  0  0
  -23.4215  -28.7932   23.3051 O   0  0  0  0  0  0
  -28.2046  -25.5503   20.2819 O   0  0  0  0  0  0
  -26.5756  -34.8867   22.4576 O   0  0  0  0  0  0
  -23.5832  -32.1093   23.6525 O   0  0  0  0  0  0
  -30.6933  -18.8497   19.0465 C   0  0  0  0  0  0
  -30.7993  -18.8981   21.5270 C   0  0  0  0  0  0
  -28.7960  -20.2759   20.3223 C   0  0  0  0  0  0
  -28.0108  -23.8158   20.2009 C   0  0  0  0  0  0
  -29.0317  -22.1945   20.3683 C   0  0  1  0  0  0
  -29.8641  -18.6729   20.3283 C   0  0  0  0  0  0
  -29.6036  -16.9247   20.3799 N   0  0  0  0  0  0
  -29.8195  -22.4427   21.5932 N   0  3  0  0  0  0
  -31.4282  -13.2741   19.1794 H   0  0  0  0  0  0
  -30.5655  -12.1726   20.2027 H   0  0  0  0  0  0
  -29.9915  -11.7972   17.7785 H   0  0  0  0  0  0
  -29.5239  -13.4715   17.6129 H   0  0  0  0  0  0
  -28.1297  -11.2939   19.1839 H   0  0  0  0  0  0
  -27.4498  -12.2548   17.8938 H   0  0  0  0  0  0
  -27.4680  -14.2304   19.2532 H   0  0  0  0  0  0
  -28.8610  -12.7267   21.5191 H   0  0  0  0  0  0
  -28.1968  -14.3399   21.6298 H   0  0  0  0  0  0
  -25.2795   -9.5689   22.4747 H   0  0  0  0  0  0
  -24.0018   -7.4655   22.7480 H   0  0  0  0  0  0
  -21.0860   -8.8794   19.8964 H   0  0  0  0  0  0
  -22.3731  -10.9671   19.6161 H   0  0  0  0  0  0
  -21.2017   -7.6150   23.9715 H   0  0  0  0  0  0
  -21.1487   -6.0518   25.9076 H   0  0  0  0  0  0
  -22.0593   -2.7603   23.2839 H   0  0  0  0  0  0
  -22.4018  -11.9858   22.4892 H   0  0  0  0  0  0
  -21.0983  -13.1156   22.2636 H   0  0  0  0  0  0
  -24.6188  -15.8483   20.5262 H   0  0  0  0  0  0
  -26.2298  -15.6427   20.0613 H   0  0  0  0  0  0
  -26.7481  -32.4969   23.0793 H   0  0  0  0  0  0
  -25.0058  -33.9354   25.0069 H   0  0  0  0  0  0
  -22.8273  -31.2434   21.3211 H   0  0  0  0  0  0
  -23.3764  -35.9492   23.3297 H   0  0  0  0  0  0
  -24.3558  -36.8841   22.2071 H   0  0  0  0  0  0
  -23.7253  -37.6344   23.6735 H   0  0  0  0  0  0
  -26.2824  -31.2769   20.6233 H   0  0  0  0  0  0
  -26.9355  -30.6170   22.0748 H   0  0  0  0  0  0
  -28.1654  -28.4268   21.3042 H   0  0  0  0  0  0
  -25.8436  -25.6309   19.0125 H   0  0  0  0  0  0
  -24.0254  -27.2208   18.9403 H   0  0  0  0  0  0
  -23.9266  -30.4666   19.3795 H   0  0  0  0  0  0
  -22.8601  -29.1701   19.8205 H   0  0  0  0  0  0
  -25.1356  -36.1687   25.0777 H   0  0  0  0  0  0
  -21.0048  -28.3398   24.1277 H   0  0  0  0  0  0
  -20.5674  -26.2404   23.3659 H   0  0  0  0  0  0
  -21.6663  -26.7395   22.1213 H   0  0  0  0  0  0
  -19.6936  -25.6263   21.1294 H   0  0  0  0  0  0
  -19.6718  -27.3139   20.6716 H   0  0  0  0  0  0
  -17.4231  -26.6681   21.4030 H   0  0  0  0  0  0
  -18.0354  -26.0107   22.9036 H   0  0  0  0  0  0
  -19.7983  -30.7338   24.2170 H   0  0  0  0  0  0
  -17.5048  -31.6279   24.5160 H   0  0  0  0  0  0
  -15.5382  -30.2965   23.7714 H   0  0  0  0  0  0
  -15.8710  -28.0798   22.7125 H   0  0  0  0  0  0
  -24.5842  -30.7182   25.7604 H   0  0  0  0  0  0
  -24.8863  -32.3041   26.4588 H   0  0  0  0  0  0
  -25.7842  -30.9058   27.0192 H   0  0  0  0  0  0
  -26.3209  -29.6475   24.1548 H   0  0  0  0  0  0
  -27.3943  -29.7280   25.5283 H   0  0  0  0  0  0
  -27.9188  -30.3977   24.0064 H   0  0  0  0  0  0
  -27.2576  -33.3716   26.1905 H   0  0  0  0  0  0
  -28.3932  -32.6841   25.0391 H   0  0  0  0  0  0
  -28.0622  -31.8613   26.5557 H   0  0  0  0  0  0
  -28.2575  -38.0044   24.7481 H   0  0  0  0  0  0
  -28.1060  -36.2566   24.6350 H   0  0  0  0  0  0
  -27.2272  -37.1449   25.8873 H   0  0  0  0  0  0
  -20.9704  -29.8690   21.6550 H   0  0  0  0  0  0
  -26.0114  -38.2722   24.1379 H   0  0  0  0  0  0
  -31.0521  -19.8742   18.9399 H   0  0  0  0  0  0
  -30.0996  -18.6205   18.1620 H   0  0  0  0  0  0
  -31.5676  -18.1980   19.0332 H   0  0  0  0  0  0
  -31.2480  -19.8910   21.5076 H   0  0  0  0  0  0
  -31.6214  -18.1810   21.5408 H   0  0  0  0  0  0
  -30.2623  -18.7991   22.4701 H   0  0  0  0  0  0
  -28.1727  -20.1417   19.4373 H   0  0  0  0  0  0
  -28.0957  -20.1024   21.1403 H   0  0  0  0  0  0
  -27.2020  -23.6661   20.9160 H   0  0  0  0  0  0
  -27.5156  -23.6945   19.2377 H   0  0  0  0  0  0
  -29.7472  -22.3305   19.5565 H   0  0  0  0  0  0
  -28.6147  -16.7340   20.4603 H   0  0  0  0  0  0
  -29.2485  -22.3421   22.4154 H   0  0  0  0  0  0
  -30.1813  -23.3824   21.5871 H   0  0  0  0  0  0
  -30.6008  -21.8168   21.6637 H   0  0  0  0  0  0
  1 25  1  0  0  0
  1 30  2  0  0  0
  1 77  1  0  0  0
  2  3  1  0  0  0
  2 25  1  0  0  0
  2 79  1  0  0  0
  2 80  1  0  0  0
  3  4  1  0  0  0
  3 81  1  0  0  0
  3 82  1  0  0  0
  4  5  1  0  0  0
  4 83  1  0  0  0
  4 84  1  0  0  0
  5  6  1  0  0  0
  5 26  1  0  0  0
  5 85  1  0  0  0
  6 25  1  0  0  0
  6 86  1  0  0  0
  6 87  1  0  0  0
  7  8  2  0  0  0
  7 26  1  0  0  0
  7 29  1  0  0  0
  8  9  1  0  0  0
  8 22  1  0  0  0
  9 10  1  0  0  0
  9 27  2  0  0  0
 10 11  2  0  0  0
 10 15  1  0  0  0
 11 12  1  0  0  0
 11 88  1  0  0  0
 12 13  2  0  0  0
 12 89  1  0  0  0
 13 14  1  0  0  0
 13 31  1  0  0  0
 14 15  2  0  0  0
 14 90  1  0  0  0
 15 91  1  0  0  0
 16 17  2  0  0  0
 16 21  1  0  0  0
 16 31  1  0  0  0
 17 18  1  0  0  0
 17 92  1  0  0  0
 18 19  2  0  0  0
 18 93  1  0  0  0
 19 20  1  0  0  0
 19 24  1  0  0  0
 20 21  2  0  0  0
 20 94  1  0  0  0
 21 23  1  0  0  0
 22 28  1  0  0  0
 22 32  2  0  0  0
 26 27  1  0  0  0
 28 95  1  0  0  0
 28 96  1  0  0  0
 29 97  1  0  0  0
 29 98  1  0  0  0
 33 34  1  0  0  0
 33 66  1  0  0  0
 33 70  2  0  0  0
 34 36  1  0  0  0
 34 59  1  0  0  0
 34 99  1  0  0  0
 35 44  2  0  0  0
 35 45  1  0  0  0
 35 68  1  0  0  0
 36 56  1  0  0  0
 36100  1  0  0  0
 37 39  1  0  0  0
 37 47  1  0  0  0
 37 66  1  0  0  0
 37101  1  0  0  0
 38 43  2  0  0  0
 38 46  1  0  0  0
 38 47  1  0  0  0
 39 64  1  0  0  0
 39 67  2  0  0  0
 40 52  1  0  0  0
 40 53  2  0  0  0
 40 58  1  0  0  0
 41102  1  0  0  0
 41103  1  0  0  0
 41104  1  0  0  0
 41 48  1  0  0  0
 42 43  1  0  0  0
 42 66  1  0  0  0
 42105  1  0  0  0
 42106  1  0  0  0
 43 44  1  0  0  0
 44107  1  0  0  0
 45 46  2  0  0  0
 45108  1  0  0  0
 46109  1  0  0  0
 47110  1  0  0  0
 47111  1  0  0  0
 48 56  1  0  0  0
 48 65  1  0  0  0
 48112  1  0  0  0
 49 50  1  0  0  0
 49 53  1  0  0  0
 49 64  1  0  0  0
 49113  1  0  0  0
 50 51  1  0  0  0
 50114  1  0  0  0
 50115  1  0  0  0
 51 52  1  0  0  0
 51116  1  0  0  0
 51117  1  0  0  0
 52118  1  0  0  0
 52119  1  0  0  0
 53 54  1  0  0  0
 54 55  2  0  0  0
 54120  1  0  0  0
 55 57  1  0  0  0
 55121  1  0  0  0
 56 69  2  0  0  0
 57 58  2  0  0  0
 57122  1  0  0  0
 58123  1  0  0  0
 59 60  1  0  0  0
 59 61  1  0  0  0
 59 62  1  0  0  0
 60124  1  0  0  0
 60125  1  0  0  0
 60126  1  0  0  0
 61127  1  0  0  0
 61128  1  0  0  0
 61129  1  0  0  0
 62130  1  0  0  0
 62131  1  0  0  0
 62132  1  0  0  0
 63 65  1  0  0  0
 63133  1  0  0  0
 63134  1  0  0  0
 63135  1  0  0  0
 64136  1  0  0  0
 65137  1  0  0  0
 68 74  1  0  0  0
 71138  1  0  0  0
 71139  1  0  0  0
 71140  1  0  0  0
 71 76  1  0  0  0
 72 76  1  0  0  0
 72141  1  0  0  0
 72142  1  0  0  0
 72143  1  0  0  0
 73 75  1  0  0  0
 73 76  1  0  0  0
 73144  1  0  0  0
 73145  1  0  0  0
 74 75  1  0  0  0
 74146  1  0  0  0
 74147  1  0  0  0
 75 78  1  0  0  0
 75148  1  0  0  0
 76 77  1  0  0  0
 77149  1  0  0  0
 78150  1  0  0  0
 78151  1  0  0  0
 78152  1  0  0  0
M  CHG  1  78   1
M  ISO  4   1 100  68 101  74 101  77 100
M  END
> <chiral flag>
0

> <version>
0

> <s_m_source_file>
/data/baiqing/PycharmProjects/Reinvent-master-3.2/result/LINK_invent/BTK/process_docking_weight1_custom_sum_contain_oxygen_bond_distance_aromatic_linkinvent_7_9_3/rearranged_h_0109.sdf

> <i_m_source_file_index>
62

> <r_mmod_Potential_Energy-OPLS-2005>
2105.46630859375

> <r_mmod_Stretch_Energy-OPLS-2005>
1110.9697265625

> <r_mmod_Bend_Energy-OPLS-2005>
606.077392578125

> <r_mmod_Torsional_Energy-OPLS-2005>
227.849868774414

> <r_mmod_Improper_Torsional_Energy-OPLS-2005>
3.75836515426636

> <r_mmod_Van_der_Waal_Energy-OPLS-2005>
104.853729248047

> <r_mmod_Electrostatic_Energy-OPLS-2005>
-256.316802978516

> <r_mmod_Solvation_Energy-OPLS-2005>
-492.914794921875

> <b_mmod_Minimization_Converged-OPLS-2005>
0

> <r_mmod_RMS_Derivative-OPLS-2005>
1.34569573402405

$$$$
62
                    3D
 Structure written by MMmdl.
159167  0  0  1  0            999 V2000
  -30.5682  -14.8647   20.3771 C   0  0  0  0  0  0
  -30.4433  -12.5167   19.4785 C   0  0  0  0  0  0
  -29.5170  -12.4428   18.2438 C   0  0  0  0  0  0
  -28.0397  -12.2835   18.6633 C   0  0  0  0  0  0
  -27.6255  -13.2130   19.8359 C   0  0  2  0  0  0
  -28.6807  -13.2453   20.9596 C   0  0  0  0  0  0
  -25.2514  -13.8120   20.5766 C   0  0  0  0  0  0
  -24.1780  -13.0397   20.9237 C   0  0  0  0  0  0
  -24.6351  -11.6870   20.8787 C   0  0  0  0  0  0
  -23.9031  -10.4264   21.0435 C   0  0  0  0  0  0
  -24.3597   -9.4177   21.9198 C   0  0  0  0  0  0
  -23.6282   -8.2209   22.0745 C   0  0  0  0  0  0
  -22.4265   -8.0260   21.3534 C   0  0  0  0  0  0
  -21.9896   -9.0236   20.4644 C   0  0  0  0  0  0
  -22.7216  -10.2117   20.3068 C   0  0  0  0  0  0
  -21.6847   -6.0723   22.5274 C   0  0  0  0  0  0
  -21.4009   -6.5630   23.8206 C   0  0  0  0  0  0
  -21.3659   -5.6784   24.9170 C   0  0  0  0  0  0
  -21.6050   -4.3048   24.7222 C   0  0  0  0  0  0
  -21.8822   -3.8136   23.4343 C   0  0  0  0  0  0
  -21.9192   -4.6951   22.3397 C   0  0  0  0  0  0
  -22.7812  -13.5210   21.1887 C   0  0  0  0  0  0
  -22.1664   -4.2138   21.0971 F   0  0  0  0  0  0
  -21.5636   -3.4535   25.7735 F   0  0  0  0  0  0
  -29.9564  -13.6214   20.3383 N   0  0  0  0  0  0
  -26.2883  -12.9260   20.3316 N   0  0  0  0  0  0
  -25.9274  -11.6437   20.5810 N   0  0  0  0  0  0
  -22.0451  -12.8207   22.0444 N   0  0  0  0  0  0
  -25.4292  -15.1839   20.4218 N   0  0  0  0  0  0
  -31.7972  -14.9195   20.2738 O   0  0  0  0  0  0
  -21.6629   -6.8861   21.4234 O   0  0  0  0  0  0
  -22.3510  -14.5527   20.6730 O   0  0  0  0  0  0
  -24.6346  -31.8510   23.1921 C   0  0  0  0  0  0
  -25.9153  -32.4732   23.8289 C   0  0  1  0  0  0
  -27.2281  -27.2210   20.1513 C   0  0  0  0  0  0
  -25.5933  -33.8534   24.2218 N   0  0  0  0  0  0
  -23.4347  -30.4691   21.5365 C   0  0  2  0  0  0
  -24.8844  -28.9007   20.1152 C   0  0  0  0  0  0
  -22.7524  -29.4580   22.4900 C   0  0  0  0  0  0
  -18.0294  -28.1392   22.8481 C   0  0  0  0  0  0
  -24.1490  -36.7270   23.2635 C   0  0  0  0  0  0
  -25.9821  -30.7536   21.3752 C   0  0  0  0  0  0
  -26.0569  -29.3701   20.7215 C   0  0  0  0  0  0
  -27.2323  -28.5462   20.7172 C   0  0  0  0  0  0
  -26.0311  -26.8201   19.5226 C   0  0  0  0  0  0
  -24.8792  -27.6365   19.5018 C   0  0  0  0  0  0
  -23.6567  -29.7930   20.1567 C   0  0  0  0  0  0
  -25.4114  -36.3052   24.0323 C   0  0  1  0  0  0
  -20.5900  -28.3706   23.1260 C   0  0  2  0  0  0
  -20.6786  -26.9421   22.5411 C   0  0  0  0  0  0
  -19.5761  -26.6385   21.5215 C   0  0  0  0  0  0
  -18.1937  -26.7935   22.1623 C   0  0  0  0  0  0
  -19.1549  -28.8868   23.2864 C   0  0  0  0  0  0
  -18.9470  -30.1466   23.8883 C   0  0  0  0  0  0
  -17.6467  -30.6592   24.0557 C   0  0  0  0  0  0
  -25.9063  -34.9428   23.5080 C   0  0  0  0  0  0
  -16.5358  -29.9087   23.6330 C   0  0  0  0  0  0
  -16.7280  -28.6507   23.0351 C   0  0  0  0  0  0
  -26.4502  -31.6573   25.0699 C   0  0  0  0  0  0
  -25.3716  -31.3738   26.1414 C   0  0  0  0  0  0
  -27.0364  -30.2985   24.6219 C   0  0  0  0  0  0
  -27.6043  -32.4332   25.7481 C   0  0  0  0  0  0
  -27.5591  -37.1766   24.8448 C   0  0  0  0  0  0
  -21.4226  -29.3044   22.3644 N   0  0  0  0  0  0
  -26.4274  -37.3769   23.9435 N   0  0  0  0  0  0
  -24.7032  -31.0441   22.0905 N   0  0  0  0  0  0
  -23.4202  -28.8136   23.3027 O   0  0  0  0  0  0
  -28.3346  -26.3296   20.1831 O   0  0  0  0  0  0
  -26.5646  -34.8916   22.4651 O   0  0  0  0  0  0
  -23.5488  -32.1343   23.7192 O   0  0  0  0  0  0
  -28.1805  -23.7924   19.2697 C   0  0  0  0  0  0
  -29.3606  -24.2585   21.3130 C   0  0  0  0  0  0
  -28.1310  -22.2248   19.6497 C   0  0  0  0  0  0
  -29.2980  -22.7130   21.6898 C   0  0  0  0  0  0
  -28.1855  -24.8349   20.4559 C   0  0  1  0  0  0
  -29.0958  -16.2082   18.9525 C   0  0  0  0  0  0
  -29.5319  -18.8873   20.1854 C   0  0  0  0  0  0
  -29.9237  -17.4382   20.9121 C   0  0  0  0  0  0
  -29.1956  -20.2308   21.0722 C   0  0  0  0  0  0
  -29.7857  -16.0412   20.2355 N   0  0  0  0  0  0
  -29.2305  -21.7149   20.5546 N   0  3  1  0  0  0
  -31.4754  -12.6748   19.1607 H   0  0  0  0  0  0
  -30.4364  -11.5746   20.0285 H   0  0  0  0  0  0
  -29.8120  -11.6035   17.6125 H   0  0  0  0  0  0
  -29.6408  -13.3302   17.6254 H   0  0  0  0  0  0
  -27.9030  -11.2431   18.9600 H   0  0  0  0  0  0
  -27.3836  -12.4402   17.8061 H   0  0  0  0  0  0
  -27.5620  -14.2049   19.4078 H   0  0  0  0  0  0
  -28.7555  -12.2789   21.4598 H   0  0  0  0  0  0
  -28.4003  -13.9741   21.7221 H   0  0  0  0  0  0
  -25.2740   -9.5657   22.4777 H   0  0  0  0  0  0
  -23.9998   -7.4593   22.7457 H   0  0  0  0  0  0
  -21.0831   -8.8769   19.8945 H   0  0  0  0  0  0
  -22.3691  -10.9669   19.6190 H   0  0  0  0  0  0
  -21.1999   -7.6138   23.9704 H   0  0  0  0  0  0
  -21.1487   -6.0514   25.9074 H   0  0  0  0  0  0
  -22.0609   -2.7601   23.2841 H   0  0  0  0  0  0
  -22.4068  -11.9856   22.4808 H   0  0  0  0  0  0
  -21.1080  -13.1243   22.2674 H   0  0  0  0  0  0
  -24.6762  -15.8509   20.5479 H   0  0  0  0  0  0
  -26.3020  -15.6156   20.1456 H   0  0  0  0  0  0
  -26.7220  -32.5374   23.1029 H   0  0  0  0  0  0
  -25.0064  -33.9661   25.0355 H   0  0  0  0  0  0
  -22.7321  -31.2909   21.3830 H   0  0  0  0  0  0
  -23.3774  -35.9575   23.3237 H   0  0  0  0  0  0
  -24.3597  -36.8962   22.2066 H   0  0  0  0  0  0
  -23.7209  -37.6434   23.6705 H   0  0  0  0  0  0
  -26.1238  -31.5114   20.6035 H   0  0  0  0  0  0
  -26.8574  -30.8061   22.0115 H   0  0  0  0  0  0
  -28.1329  -28.9054   21.1950 H   0  0  0  0  0  0
  -25.9742  -25.8489   19.0538 H   0  0  0  0  0  0
  -23.9813  -27.2712   19.0218 H   0  0  0  0  0  0
  -23.7839  -30.5633   19.3957 H   0  0  0  0  0  0
  -22.7750  -29.2260   19.8529 H   0  0  0  0  0  0
  -25.1288  -36.1875   25.0812 H   0  0  0  0  0  0
  -20.9984  -28.3295   24.1384 H   0  0  0  0  0  0
  -20.5686  -26.2322   23.3621 H   0  0  0  0  0  0
  -21.6653  -26.7449   22.1203 H   0  0  0  0  0  0
  -19.6925  -25.6290   21.1258 H   0  0  0  0  0  0
  -19.6697  -27.3181   20.6732 H   0  0  0  0  0  0
  -17.4209  -26.6673   21.4023 H   0  0  0  0  0  0
  -18.0338  -26.0083   22.9026 H   0  0  0  0  0  0
  -19.7945  -30.7286   24.2248 H   0  0  0  0  0  0
  -17.5022  -31.6270   24.5162 H   0  0  0  0  0  0
  -15.5357  -30.2982   23.7671 H   0  0  0  0  0  0
  -15.8682  -28.0822   22.7073 H   0  0  0  0  0  0
  -24.5891  -30.7091   25.7738 H   0  0  0  0  0  0
  -24.8907  -32.2915   26.4812 H   0  0  0  0  0  0
  -25.8022  -30.8929   27.0208 H   0  0  0  0  0  0
  -26.2963  -29.6717   24.1234 H   0  0  0  0  0  0
  -27.4021  -29.7264   25.4757 H   0  0  0  0  0  0
  -27.8844  -30.4243   23.9486 H   0  0  0  0  0  0
  -27.2628  -33.3634   26.2037 H   0  0  0  0  0  0
  -28.3858  -32.6903   25.0320 H   0  0  0  0  0  0
  -28.0707  -31.8483   26.5418 H   0  0  0  0  0  0
  -28.2528  -38.0143   24.7610 H   0  0  0  0  0  0
  -28.1166  -36.2681   24.6116 H   0  0  0  0  0  0
  -27.2333  -37.1221   25.8851 H   0  0  0  0  0  0
  -20.9431  -29.8743   21.6817 H   0  0  0  0  0  0
  -26.0140  -38.2823   24.1504 H   0  0  0  0  0  0
  -27.3404  -24.0125   18.6122 H   0  0  0  0  0  0
  -29.0677  -23.9665   18.6590 H   0  0  0  0  0  0
  -30.3010  -24.4530   20.7965 H   0  0  0  0  0  0
  -29.4212  -24.8323   22.2381 H   0  0  0  0  0  0
  -28.1482  -21.6338   18.7333 H   0  0  0  0  0  0
  -27.1715  -22.0119   20.1229 H   0  0  0  0  0  0
  -28.4297  -22.5543   22.3320 H   0  0  0  0  0  0
  -30.1664  -22.4772   22.3064 H   0  0  0  0  0  0
  -27.2649  -24.7025   21.0264 H   0  0  0  0  0  0
  -29.5859  -16.9630   18.3376 H   0  0  0  0  0  0
  -28.0623  -16.5141   19.1180 H   0  0  0  0  0  0
  -29.0778  -15.3101   18.3410 H   0  0  0  0  0  0
  -28.6623  -18.7451   19.5454 H   0  0  0  0  0  0
  -30.3454  -19.1324   19.5024 H   0  0  0  0  0  0
  -29.3112  -17.3661   21.8110 H   0  0  0  0  0  0
  -30.9450  -17.5189   21.2867 H   0  0  0  0  0  0
  -29.9143  -20.1986   21.8912 H   0  0  0  0  0  0
  -28.2283  -20.0794   21.5537 H   0  0  0  0  0  0
  -30.0971  -21.8079   20.0451 H   0  0  0  0  0  0
  1 25  1  0  0  0
  1 30  2  0  0  0
  1 80  1  0  0  0
  2  3  1  0  0  0
  2 25  1  0  0  0
  2 82  1  0  0  0
  2 83  1  0  0  0
  3  4  1  0  0  0
  3 84  1  0  0  0
  3 85  1  0  0  0
  4  5  1  0  0  0
  4 86  1  0  0  0
  4 87  1  0  0  0
  5  6  1  0  0  0
  5 26  1  0  0  0
  5 88  1  0  0  0
  6 25  1  0  0  0
  6 89  1  0  0  0
  6 90  1  0  0  0
  7  8  2  0  0  0
  7 26  1  0  0  0
  7 29  1  0  0  0
  8  9  1  0  0  0
  8 22  1  0  0  0
  9 10  1  0  0  0
  9 27  2  0  0  0
 10 11  2  0  0  0
 10 15  1  0  0  0
 11 12  1  0  0  0
 11 91  1  0  0  0
 12 13  2  0  0  0
 12 92  1  0  0  0
 13 14  1  0  0  0
 13 31  1  0  0  0
 14 15  2  0  0  0
 14 93  1  0  0  0
 15 94  1  0  0  0
 16 17  2  0  0  0
 16 21  1  0  0  0
 16 31  1  0  0  0
 17 18  1  0  0  0
 17 95  1  0  0  0
 18 19  2  0  0  0
 18 96  1  0  0  0
 19 20  1  0  0  0
 19 24  1  0  0  0
 20 21  2  0  0  0
 20 97  1  0  0  0
 21 23  1  0  0  0
 22 28  1  0  0  0
 22 32  2  0  0  0
 26 27  1  0  0  0
 28 98  1  0  0  0
 28 99  1  0  0  0
 29100  1  0  0  0
 29101  1  0  0  0
 33 34  1  0  0  0
 33 66  1  0  0  0
 33 70  2  0  0  0
 34 36  1  0  0  0
 34 59  1  0  0  0
 34102  1  0  0  0
 35 44  2  0  0  0
 35 45  1  0  0  0
 35 68  1  0  0  0
 36 56  1  0  0  0
 36103  1  0  0  0
 37 39  1  0  0  0
 37 47  1  0  0  0
 37 66  1  0  0  0
 37104  1  0  0  0
 38 43  2  0  0  0
 38 46  1  0  0  0
 38 47  1  0  0  0
 39 64  1  0  0  0
 39 67  2  0  0  0
 40 52  1  0  0  0
 40 53  2  0  0  0
 40 58  1  0  0  0
 41105  1  0  0  0
 41106  1  0  0  0
 41107  1  0  0  0
 41 48  1  0  0  0
 42 43  1  0  0  0
 42 66  1  0  0  0
 42108  1  0  0  0
 42109  1  0  0  0
 43 44  1  0  0  0
 44110  1  0  0  0
 45 46  2  0  0  0
 45111  1  0  0  0
 46112  1  0  0  0
 47113  1  0  0  0
 47114  1  0  0  0
 48 56  1  0  0  0
 48 65  1  0  0  0
 48115  1  0  0  0
 49 50  1  0  0  0
 49 53  1  0  0  0
 49 64  1  0  0  0
 49116  1  0  0  0
 50 51  1  0  0  0
 50117  1  0  0  0
 50118  1  0  0  0
 51 52  1  0  0  0
 51119  1  0  0  0
 51120  1  0  0  0
 52121  1  0  0  0
 52122  1  0  0  0
 53 54  1  0  0  0
 54 55  2  0  0  0
 54123  1  0  0  0
 55 57  1  0  0  0
 55124  1  0  0  0
 56 69  2  0  0  0
 57 58  2  0  0  0
 57125  1  0  0  0
 58126  1  0  0  0
 59 60  1  0  0  0
 59 61  1  0  0  0
 59 62  1  0  0  0
 60127  1  0  0  0
 60128  1  0  0  0
 60129  1  0  0  0
 61130  1  0  0  0
 61131  1  0  0  0
 61132  1  0  0  0
 62133  1  0  0  0
 62134  1  0  0  0
 62135  1  0  0  0
 63 65  1  0  0  0
 63136  1  0  0  0
 63137  1  0  0  0
 63138  1  0  0  0
 64139  1  0  0  0
 65140  1  0  0  0
 68 75  1  0  0  0
 71 73  1  0  0  0
 71 75  1  0  0  0
 71141  1  0  0  0
 71142  1  0  0  0
 72 74  1  0  0  0
 72 75  1  0  0  0
 72143  1  0  0  0
 72144  1  0  0  0
 73 81  1  0  0  0
 73145  1  0  0  0
 73146  1  0  0  0
 74 81  1  0  0  0
 74147  1  0  0  0
 74148  1  0  0  0
 75149  1  0  0  0
 76 80  1  0  0  0
 76150  1  0  0  0
 76151  1  0  0  0
 76152  1  0  0  0
 77 78  1  0  0  0
 77 79  1  0  0  0
 77153  1  0  0  0
 77154  1  0  0  0
 78 80  1  0  0  0
 78155  1  0  0  0
 78156  1  0  0  0
 79157  1  0  0  0
 79158  1  0  0  0
 79 81  1  0  0  0
 81159  1  0  0  0
M  CHG  1  81   1
M  ISO  4   1 100  68 101  75 101  80 100
M  END
> <chiral flag>
0

> <version>
0

> <s_m_source_file>
/data/baiqing/PycharmProjects/Reinvent-master-3.2/result/LINK_invent/BTK/process_docking_weight1_custom_sum_contain_oxygen_bond_distance_aromatic_linkinvent_7_9_3/rearranged_h_0109.sdf

> <i_m_source_file_index>
63

> <r_mmod_Potential_Energy-OPLS-2005>
395.347473144531

> <r_mmod_Stretch_Energy-OPLS-2005>
172.185089111328

> <r_mmod_Bend_Energy-OPLS-2005>
224.558013916016

> <r_mmod_Torsional_Energy-OPLS-2005>
345.388122558594

> <r_mmod_Improper_Torsional_Energy-OPLS-2005>
8.27445697784424

> <r_mmod_Van_der_Waal_Energy-OPLS-2005>
123.164398193359

> <r_mmod_Electrostatic_Energy-OPLS-2005>
-169.893173217773

> <r_mmod_Solvation_Energy-OPLS-2005>
-444.832336425781

> <b_mmod_Minimization_Converged-OPLS-2005>
0

> <r_mmod_RMS_Derivative-OPLS-2005>
1.43490469455719

$$$$
63
                    3D
 Structure written by MMmdl.
159167  0  0  1  0            999 V2000
  -30.5857  -14.8287   20.4425 C   0  0  0  0  0  0
  -30.4341  -12.5088   19.4895 C   0  0  0  0  0  0
  -29.5147  -12.5182   18.2477 C   0  0  0  0  0  0
  -28.0446  -12.3228   18.6628 C   0  0  0  0  0  0
  -27.6357  -13.2399   19.8449 C   0  0  2  0  0  0
  -28.6783  -13.2200   20.9835 C   0  0  0  0  0  0
  -25.2475  -13.8214   20.5681 C   0  0  0  0  0  0
  -24.1787  -13.0453   20.9214 C   0  0  0  0  0  0
  -24.6394  -11.6934   20.8759 C   0  0  0  0  0  0
  -23.9079  -10.4307   21.0418 C   0  0  0  0  0  0
  -24.3631   -9.4216   21.9187 C   0  0  0  0  0  0
  -23.6302   -8.2253   22.0755 C   0  0  0  0  0  0
  -22.4285   -8.0293   21.3551 C   0  0  0  0  0  0
  -21.9926   -9.0267   20.4653 C   0  0  0  0  0  0
  -22.7255  -10.2146   20.3057 C   0  0  0  0  0  0
  -21.6858   -6.0747   22.5281 C   0  0  0  0  0  0
  -21.4021   -6.5648   23.8214 C   0  0  0  0  0  0
  -21.3651   -5.6795   24.9169 C   0  0  0  0  0  0
  -21.6038   -4.3059   24.7224 C   0  0  0  0  0  0
  -21.8820   -3.8156   23.4343 C   0  0  0  0  0  0
  -21.9197   -4.6975   22.3400 C   0  0  0  0  0  0
  -22.7808  -13.5222   21.1872 C   0  0  0  0  0  0
  -22.1668   -4.2164   21.0978 F   0  0  0  0  0  0
  -21.5618   -3.4536   25.7732 F   0  0  0  0  0  0
  -29.9709  -13.5910   20.3945 N   0  0  0  0  0  0
  -26.2908  -12.9436   20.3251 N   0  0  0  0  0  0
  -25.9325  -11.6578   20.5748 N   0  0  0  0  0  0
  -22.0471  -12.8191   22.0420 N   0  0  0  0  0  0
  -25.4146  -15.1938   20.4100 N   0  0  0  0  0  0
  -31.7818  -14.9094   20.1479 O   0  0  0  0  0  0
  -21.6642   -6.8894   21.4245 O   0  0  0  0  0  0
  -22.3481  -14.5529   20.6727 O   0  0  0  0  0  0
  -24.6363  -31.8495   23.1929 C   0  0  0  0  0  0
  -25.9160  -32.4726   23.8299 C   0  0  1  0  0  0
  -27.2195  -27.2015   20.1375 C   0  0  0  0  0  0
  -25.5934  -33.8529   24.2214 N   0  0  0  0  0  0
  -23.4358  -30.4699   21.5372 C   0  0  2  0  0  0
  -24.8820  -28.9023   20.1118 C   0  0  0  0  0  0
  -22.7518  -29.4582   22.4891 C   0  0  0  0  0  0
  -18.0297  -28.1395   22.8476 C   0  0  0  0  0  0
  -24.1490  -36.7266   23.2644 C   0  0  0  0  0  0
  -25.9860  -30.7426   21.3814 C   0  0  0  0  0  0
  -26.0559  -29.3601   20.7215 C   0  0  0  0  0  0
  -27.2245  -28.5235   20.7179 C   0  0  0  0  0  0
  -26.0157  -26.8181   19.5063 C   0  0  0  0  0  0
  -24.8703  -27.6422   19.4934 C   0  0  0  0  0  0
  -23.6570  -29.7982   20.1557 C   0  0  0  0  0  0
  -25.4121  -36.3050   24.0322 C   0  0  1  0  0  0
  -20.5898  -28.3716   23.1261 C   0  0  2  0  0  0
  -20.6786  -26.9423   22.5415 C   0  0  0  0  0  0
  -19.5773  -26.6384   21.5216 C   0  0  0  0  0  0
  -18.1949  -26.7936   22.1620 C   0  0  0  0  0  0
  -19.1547  -28.8873   23.2861 C   0  0  0  0  0  0
  -18.9467  -30.1474   23.8880 C   0  0  0  0  0  0
  -17.6461  -30.6595   24.0555 C   0  0  0  0  0  0
  -25.9063  -34.9425   23.5075 C   0  0  0  0  0  0
  -16.5355  -29.9085   23.6332 C   0  0  0  0  0  0
  -16.7283  -28.6505   23.0350 C   0  0  0  0  0  0
  -26.4504  -31.6584   25.0723 C   0  0  0  0  0  0
  -25.3708  -31.3753   26.1432 C   0  0  0  0  0  0
  -27.0368  -30.2992   24.6275 C   0  0  0  0  0  0
  -27.6039  -32.4347   25.7504 C   0  0  0  0  0  0
  -27.5577  -37.1793   24.8465 C   0  0  0  0  0  0
  -21.4217  -29.3060   22.3642 N   0  0  0  0  0  0
  -26.4291  -37.3756   23.9405 N   0  0  0  0  0  0
  -24.7054  -31.0405   22.0928 N   0  0  0  0  0  0
  -23.4193  -28.8127   23.3011 O   0  0  0  0  0  0
  -28.3259  -26.3037   20.2009 O   0  0  0  0  0  0
  -26.5645  -34.8911   22.4652 O   0  0  0  0  0  0
  -23.5498  -32.1336   23.7195 O   0  0  0  0  0  0
  -28.3710  -22.3816   21.2696 C   0  0  0  0  0  0
  -29.6950  -22.6031   19.1872 C   0  0  0  0  0  0
  -27.6601  -23.8061   20.9810 C   0  0  0  0  0  0
  -29.6570  -24.1546   19.5829 C   0  0  0  0  0  0
  -28.9034  -21.5298   20.0494 C   0  0  1  0  0  0
  -28.2686  -24.8020   19.9061 C   0  0  2  0  0  0
  -28.1524  -18.4577   19.2904 C   0  0  0  0  0  0
  -30.2322  -17.4893   20.5176 C   0  0  0  0  0  0
  -29.1511  -18.7472   20.4243 C   0  0  2  0  0  0
  -29.8185  -15.9909   20.6115 N   0  0  0  0  0  0
  -29.7139  -20.2084   20.3299 N   0  3  0  0  0  0
  -31.4735  -12.6409   19.1861 H   0  0  0  0  0  0
  -30.3916  -11.5433   19.9964 H   0  0  0  0  0  0
  -29.8140  -11.7372   17.5469 H   0  0  0  0  0  0
  -29.6234  -13.4657   17.7169 H   0  0  0  0  0  0
  -27.9200  -11.2776   18.9469 H   0  0  0  0  0  0
  -27.3828  -12.4864   17.8111 H   0  0  0  0  0  0
  -27.6155  -14.2522   19.4397 H   0  0  0  0  0  0
  -28.7322  -12.2354   21.4505 H   0  0  0  0  0  0
  -28.3987  -13.9199   21.7722 H   0  0  0  0  0  0
  -25.2787   -9.5690   22.4747 H   0  0  0  0  0  0
  -24.0021   -7.4637   22.7462 H   0  0  0  0  0  0
  -21.0860   -8.8789   19.8950 H   0  0  0  0  0  0
  -22.3723  -10.9682   19.6155 H   0  0  0  0  0  0
  -21.2024   -7.6158   23.9724 H   0  0  0  0  0  0
  -21.1463   -6.0524   25.9072 H   0  0  0  0  0  0
  -22.0610   -2.7621   23.2836 H   0  0  0  0  0  0
  -22.4122  -11.9851   22.4786 H   0  0  0  0  0  0
  -21.1094  -13.1206   22.2666 H   0  0  0  0  0  0
  -24.6440  -15.8447   20.5145 H   0  0  0  0  0  0
  -26.2533  -15.6299   20.0533 H   0  0  0  0  0  0
  -26.7223  -32.5343   23.1030 H   0  0  0  0  0  0
  -25.0054  -33.9655   25.0343 H   0  0  0  0  0  0
  -22.7366  -31.2946   21.3862 H   0  0  0  0  0  0
  -23.3760  -35.9591   23.3303 H   0  0  0  0  0  0
  -24.3571  -36.8899   22.2060 H   0  0  0  0  0  0
  -23.7244  -37.6464   23.6676 H   0  0  0  0  0  0
  -26.1354  -31.5018   20.6130 H   0  0  0  0  0  0
  -26.8587  -30.7883   22.0209 H   0  0  0  0  0  0
  -28.1233  -28.8692   21.2088 H   0  0  0  0  0  0
  -25.9235  -25.8515   19.0366 H   0  0  0  0  0  0
  -23.9681  -27.2843   19.0171 H   0  0  0  0  0  0
  -23.7888  -30.5722   19.3988 H   0  0  0  0  0  0
  -22.7725  -29.2372   19.8488 H   0  0  0  0  0  0
  -25.1313  -36.1887   25.0818 H   0  0  0  0  0  0
  -20.9994  -28.3308   24.1381 H   0  0  0  0  0  0
  -20.5676  -26.2328   23.3626 H   0  0  0  0  0  0
  -21.6657  -26.7448   22.1219 H   0  0  0  0  0  0
  -19.6936  -25.6290   21.1258 H   0  0  0  0  0  0
  -19.6717  -27.3184   20.6743 H   0  0  0  0  0  0
  -17.4216  -26.6671   21.4025 H   0  0  0  0  0  0
  -18.0357  -26.0085   22.9025 H   0  0  0  0  0  0
  -19.7935  -30.7297   24.2244 H   0  0  0  0  0  0
  -17.5011  -31.6274   24.5156 H   0  0  0  0  0  0
  -15.5353  -30.2974   23.7675 H   0  0  0  0  0  0
  -15.8681  -28.0816   22.7076 H   0  0  0  0  0  0
  -24.5884  -30.7107   25.7756 H   0  0  0  0  0  0
  -24.8898  -32.2926   26.4837 H   0  0  0  0  0  0
  -25.8007  -30.8942   27.0226 H   0  0  0  0  0  0
  -26.2977  -29.6722   24.1280 H   0  0  0  0  0  0
  -27.3994  -29.7289   25.4839 H   0  0  0  0  0  0
  -27.8875  -30.4249   23.9573 H   0  0  0  0  0  0
  -27.2632  -33.3653   26.2053 H   0  0  0  0  0  0
  -28.3862  -32.6905   25.0345 H   0  0  0  0  0  0
  -28.0693  -31.8499   26.5447 H   0  0  0  0  0  0
  -28.2597  -38.0087   24.7504 H   0  0  0  0  0  0
  -28.1074  -36.2621   24.6305 H   0  0  0  0  0  0
  -27.2290  -37.1453   25.8867 H   0  0  0  0  0  0
  -20.9416  -29.8763   21.6817 H   0  0  0  0  0  0
  -26.0166  -38.2829   24.1404 H   0  0  0  0  0  0
  -27.6863  -21.7660   21.8543 H   0  0  0  0  0  0
  -29.2167  -22.5698   21.9323 H   0  0  0  0  0  0
  -30.7460  -22.3167   19.1488 H   0  0  0  0  0  0
  -29.3497  -22.5157   18.1564 H   0  0  0  0  0  0
  -27.6025  -24.3385   21.9310 H   0  0  0  0  0  0
  -26.6206  -23.6244   20.7048 H   0  0  0  0  0  0
  -30.1260  -24.7253   18.7802 H   0  0  0  0  0  0
  -30.3034  -24.3054   20.4488 H   0  0  0  0  0  0
  -28.0331  -21.2490   19.4575 H   0  0  0  0  0  0
  -27.7000  -24.6789   18.9852 H   0  0  0  0  0  0
  -27.7727  -17.4375   19.3511 H   0  0  0  0  0  0
  -28.6152  -18.5753   18.3104 H   0  0  0  0  0  0
  -27.2866  -19.1169   19.3387 H   0  0  0  0  0  0
  -30.8782  -17.6778   21.3768 H   0  0  0  0  0  0
  -30.8925  -17.5637   19.6526 H   0  0  0  0  0  0
  -28.5793  -18.7283   21.3525 H   0  0  0  0  0  0
  -28.8446  -15.8232   20.8122 H   0  0  0  0  0  0
  -30.2733  -20.3675   21.1530 H   0  0  0  0  0  0
  -30.3740  -20.1614   19.5697 H   0  0  0  0  0  0
  1 25  1  0  0  0
  1 30  2  0  0  0
  1 80  1  0  0  0
  2  3  1  0  0  0
  2 25  1  0  0  0
  2 82  1  0  0  0
  2 83  1  0  0  0
  3  4  1  0  0  0
  3 84  1  0  0  0
  3 85  1  0  0  0
  4  5  1  0  0  0
  4 86  1  0  0  0
  4 87  1  0  0  0
  5  6  1  0  0  0
  5 26  1  0  0  0
  5 88  1  0  0  0
  6 25  1  0  0  0
  6 89  1  0  0  0
  6 90  1  0  0  0
  7  8  2  0  0  0
  7 26  1  0  0  0
  7 29  1  0  0  0
  8  9  1  0  0  0
  8 22  1  0  0  0
  9 10  1  0  0  0
  9 27  2  0  0  0
 10 11  2  0  0  0
 10 15  1  0  0  0
 11 12  1  0  0  0
 11 91  1  0  0  0
 12 13  2  0  0  0
 12 92  1  0  0  0
 13 14  1  0  0  0
 13 31  1  0  0  0
 14 15  2  0  0  0
 14 93  1  0  0  0
 15 94  1  0  0  0
 16 17  2  0  0  0
 16 21  1  0  0  0
 16 31  1  0  0  0
 17 18  1  0  0  0
 17 95  1  0  0  0
 18 19  2  0  0  0
 18 96  1  0  0  0
 19 20  1  0  0  0
 19 24  1  0  0  0
 20 21  2  0  0  0
 20 97  1  0  0  0
 21 23  1  0  0  0
 22 28  1  0  0  0
 22 32  2  0  0  0
 26 27  1  0  0  0
 28 98  1  0  0  0
 28 99  1  0  0  0
 29100  1  0  0  0
 29101  1  0  0  0
 33 34  1  0  0  0
 33 66  1  0  0  0
 33 70  2  0  0  0
 34 36  1  0  0  0
 34 59  1  0  0  0
 34102  1  0  0  0
 35 44  2  0  0  0
 35 45  1  0  0  0
 35 68  1  0  0  0
 36 56  1  0  0  0
 36103  1  0  0  0
 37 39  1  0  0  0
 37 47  1  0  0  0
 37 66  1  0  0  0
 37104  1  0  0  0
 38 43  2  0  0  0
 38 46  1  0  0  0
 38 47  1  0  0  0
 39 64  1  0  0  0
 39 67  2  0  0  0
 40 52  1  0  0  0
 40 53  2  0  0  0
 40 58  1  0  0  0
 41105  1  0  0  0
 41106  1  0  0  0
 41107  1  0  0  0
 41 48  1  0  0  0
 42 43  1  0  0  0
 42 66  1  0  0  0
 42108  1  0  0  0
 42109  1  0  0  0
 43 44  1  0  0  0
 44110  1  0  0  0
 45 46  2  0  0  0
 45111  1  0  0  0
 46112  1  0  0  0
 47113  1  0  0  0
 47114  1  0  0  0
 48 56  1  0  0  0
 48 65  1  0  0  0
 48115  1  0  0  0
 49 50  1  0  0  0
 49 53  1  0  0  0
 49 64  1  0  0  0
 49116  1  0  0  0
 50 51  1  0  0  0
 50117  1  0  0  0
 50118  1  0  0  0
 51 52  1  0  0  0
 51119  1  0  0  0
 51120  1  0  0  0
 52121  1  0  0  0
 52122  1  0  0  0
 53 54  1  0  0  0
 54 55  2  0  0  0
 54123  1  0  0  0
 55 57  1  0  0  0
 55124  1  0  0  0
 56 69  2  0  0  0
 57 58  2  0  0  0
 57125  1  0  0  0
 58126  1  0  0  0
 59 60  1  0  0  0
 59 61  1  0  0  0
 59 62  1  0  0  0
 60127  1  0  0  0
 60128  1  0  0  0
 60129  1  0  0  0
 61130  1  0  0  0
 61131  1  0  0  0
 61132  1  0  0  0
 62133  1  0  0  0
 62134  1  0  0  0
 62135  1  0  0  0
 63 65  1  0  0  0
 63136  1  0  0  0
 63137  1  0  0  0
 63138  1  0  0  0
 64139  1  0  0  0
 65140  1  0  0  0
 68 76  1  0  0  0
 71 73  1  0  0  0
 71 75  1  0  0  0
 71141  1  0  0  0
 71142  1  0  0  0
 72 74  1  0  0  0
 72 75  1  0  0  0
 72143  1  0  0  0
 72144  1  0  0  0
 73 76  1  0  0  0
 73145  1  0  0  0
 73146  1  0  0  0
 74 76  1  0  0  0
 74147  1  0  0  0
 74148  1  0  0  0
 75 81  1  0  0  0
 75149  1  0  0  0
 76150  1  0  0  0
 77151  1  0  0  0
 77152  1  0  0  0
 77153  1  0  0  0
 77 79  1  0  0  0
 78 79  1  0  0  0
 78 80  1  0  0  0
 78154  1  0  0  0
 78155  1  0  0  0
 79 81  1  0  0  0
 79156  1  0  0  0
 80157  1  0  0  0
 81158  1  0  0  0
 81159  1  0  0  0
M  CHG  1  81   1
M  ISO  4   1 100  68 101  76 101  80 100
M  END
> <chiral flag>
0

> <version>
0

> <s_m_source_file>
/data/baiqing/PycharmProjects/Reinvent-master-3.2/result/LINK_invent/BTK/process_docking_weight1_custom_sum_contain_oxygen_bond_distance_aromatic_linkinvent_7_9_3/rearranged_h_0109.sdf

> <i_m_source_file_index>
64

> <r_mmod_Potential_Energy-OPLS-2005>
121.241889953613

> <r_mmod_Stretch_Energy-OPLS-2005>
172.976181030273

> <r_mmod_Bend_Energy-OPLS-2005>
227.301223754883

> <r_mmod_Torsional_Energy-OPLS-2005>
259.246826171875

> <r_mmod_Improper_Torsional_Energy-OPLS-2005>
4.5541820526123

> <r_mmod_Van_der_Waal_Energy-OPLS-2005>
118.133972167969

> <r_mmod_Electrostatic_Energy-OPLS-2005>
-304.081665039062

> <r_mmod_Solvation_Energy-OPLS-2005>
-480.384613037109

> <b_mmod_Minimization_Converged-OPLS-2005>
0

> <r_mmod_RMS_Derivative-OPLS-2005>
1.48868644237518

$$$$
64
                    3D
 Structure written by MMmdl.
168176  0  0  1  0            999 V2000
  -30.6470  -14.5398   20.5472 C   0  0  0  0  0  0
  -30.4391  -12.3403   19.4340 C   0  0  0  0  0  0
  -29.5049  -12.4982   18.2141 C   0  0  0  0  0  0
  -28.0254  -12.3481   18.6237 C   0  0  0  0  0  0
  -27.6600  -13.2013   19.8675 C   0  0  2  0  0  0
  -28.6990  -13.0031   20.9952 C   0  0  0  0  0  0
  -25.2602  -13.8152   20.5645 C   0  0  0  0  0  0
  -24.1845  -13.0441   20.9155 C   0  0  0  0  0  0
  -24.6379  -11.6899   20.8707 C   0  0  0  0  0  0
  -23.9039  -10.4291   21.0377 C   0  0  0  0  0  0
  -24.3600   -9.4213   21.9168 C   0  0  0  0  0  0
  -23.6280   -8.2248   22.0755 C   0  0  0  0  0  0
  -22.4269   -8.0270   21.3543 C   0  0  0  0  0  0
  -21.9886   -9.0236   20.4647 C   0  0  0  0  0  0
  -22.7204  -10.2122   20.3036 C   0  0  0  0  0  0
  -21.6853   -6.0713   22.5264 C   0  0  0  0  0  0
  -21.4020   -6.5619   23.8199 C   0  0  0  0  0  0
  -21.3667   -5.6774   24.9163 C   0  0  0  0  0  0
  -21.6041   -4.3036   24.7214 C   0  0  0  0  0  0
  -21.8830   -3.8127   23.4341 C   0  0  0  0  0  0
  -21.9203   -4.6940   22.3394 C   0  0  0  0  0  0
  -22.7872  -13.5245   21.1818 C   0  0  0  0  0  0
  -22.1666   -4.2130   21.0975 F   0  0  0  0  0  0
  -21.5630   -3.4522   25.7728 F   0  0  0  0  0  0
  -30.0299  -13.3279   20.4481 N   0  0  0  0  0  0
  -26.3012  -12.9295   20.3286 N   0  0  0  0  0  0
  -25.9303  -11.6457   20.5718 N   0  0  0  0  0  0
  -22.0510  -12.8248   22.0378 N   0  0  0  0  0  0
  -25.4361  -15.1872   20.4073 N   0  0  0  0  0  0
  -31.7797  -14.7505   20.1035 O   0  0  0  0  0  0
  -21.6645   -6.8859   21.4232 O   0  0  0  0  0  0
  -22.3555  -14.5552   20.6660 O   0  0  0  0  0  0
  -24.6183  -31.8675   23.2089 C   0  0  0  0  0  0
  -25.9079  -32.4825   23.8356 C   0  0  1  0  0  0
  -27.2064  -27.3788   20.1101 C   0  0  0  0  0  0
  -25.5940  -33.8624   24.2313 N   0  0  0  0  0  0
  -23.4068  -30.4938   21.5504 C   0  0  2  0  0  0
  -24.8486  -28.9605   20.1131 C   0  0  0  0  0  0
  -22.7439  -29.4628   22.4930 C   0  0  0  0  0  0
  -18.0304  -28.1401   22.8462 C   0  0  0  0  0  0
  -24.1501  -36.7305   23.2629 C   0  0  0  0  0  0
  -25.9433  -30.8147   21.3736 C   0  0  0  0  0  0
  -26.0155  -29.4477   20.7194 C   0  0  0  0  0  0
  -27.1998  -28.6641   20.7158 C   0  0  0  0  0  0
  -26.0264  -26.9338   19.4872 C   0  0  0  0  0  0
  -24.8536  -27.7047   19.4931 C   0  0  0  0  0  0
  -23.6186  -29.8383   20.1611 C   0  0  0  0  0  0
  -25.4115  -36.3095   24.0339 C   0  0  1  0  0  0
  -20.5892  -28.3670   23.1315 C   0  0  2  0  0  0
  -20.6784  -26.9394   22.5426 C   0  0  0  0  0  0
  -19.5761  -26.6384   21.5239 C   0  0  0  0  0  0
  -18.1924  -26.7934   22.1626 C   0  0  0  0  0  0
  -19.1547  -28.8841   23.2887 C   0  0  0  0  0  0
  -18.9476  -30.1441   23.8898 C   0  0  0  0  0  0
  -17.6469  -30.6581   24.0554 C   0  0  0  0  0  0
  -25.9047  -34.9480   23.5109 C   0  0  0  0  0  0
  -16.5357  -29.9071   23.6346 C   0  0  0  0  0  0
  -16.7269  -28.6510   23.0311 C   0  0  0  0  0  0
  -26.4488  -31.6600   25.0692 C   0  0  0  0  0  0
  -25.3724  -31.3758   26.1420 C   0  0  0  0  0  0
  -27.0307  -30.3015   24.6105 C   0  0  0  0  0  0
  -27.6027  -32.4334   25.7461 C   0  0  0  0  0  0
  -27.5580  -37.1800   24.8461 C   0  0  0  0  0  0
  -21.4143  -29.3043   22.3692 N   0  0  0  0  0  0
  -26.4298  -37.3793   23.9403 N   0  0  0  0  0  0
  -24.6754  -31.0715   22.1028 N   0  0  0  0  0  0
  -23.4201  -28.8107   23.2920 O   0  0  0  0  0  0
  -28.3351  -26.5723   20.0745 O   0  0  0  0  0  0
  -26.5582  -34.8930   22.4656 O   0  0  0  0  0  0
  -23.5362  -32.1469   23.7450 O   0  0  0  0  0  0
  -29.6573  -22.6347   21.9186 C   0  0  0  0  0  0
  -30.4015  -21.2893   21.8505 C   0  0  0  0  0  0
  -28.8008  -21.3777   20.1067 C   0  0  0  0  0  0
  -29.1688  -22.8528   20.4863 C   0  0  1  0  0  0
  -27.4805  -23.9224   18.8661 C   0  0  0  0  0  0
  -30.9014  -18.1716   22.7188 C   0  0  0  0  0  0
  -28.6255  -17.2132   22.8802 C   0  0  0  0  0  0
  -29.9140  -17.0013   20.6960 C   0  0  0  0  0  0
  -28.8761  -19.3072   21.5458 C   0  0  0  0  0  0
  -28.3161  -25.3765   20.9086 C   0  0  0  0  0  0
  -28.0249  -23.9289   20.3125 C   0  0  2  0  0  0
  -29.6019  -17.9424   21.9234 C   0  0  0  0  0  0
  -29.8428  -15.5419   20.9718 N   0  0  0  0  0  0
  -29.6474  -20.4287   20.9047 N   0  3  2  0  0  0
  -31.4788  -12.4701   19.1289 H   0  0  0  0  0  0
  -30.3743  -11.3312   19.8433 H   0  0  0  0  0  0
  -29.7564  -11.7597   17.4510 H   0  0  0  0  0  0
  -29.6606  -13.4747   17.7541 H   0  0  0  0  0  0
  -27.8456  -11.2925   18.8319 H   0  0  0  0  0  0
  -27.3754  -12.6027   17.7857 H   0  0  0  0  0  0
  -27.6974  -14.2436   19.5512 H   0  0  0  0  0  0
  -28.6841  -11.9718   21.3476 H   0  0  0  0  0  0
  -28.4463  -13.6098   21.8666 H   0  0  0  0  0  0
  -25.2751   -9.5688   22.4729 H   0  0  0  0  0  0
  -23.9986   -7.4641   22.7478 H   0  0  0  0  0  0
  -21.0817   -8.8749   19.8949 H   0  0  0  0  0  0
  -22.3665  -10.9653   19.6136 H   0  0  0  0  0  0
  -21.2016   -7.6126   23.9698 H   0  0  0  0  0  0
  -21.1471   -6.0499   25.9067 H   0  0  0  0  0  0
  -22.0609   -2.7584   23.2840 H   0  0  0  0  0  0
  -22.4114  -11.9907   22.4765 H   0  0  0  0  0  0
  -21.1114  -13.1274   22.2564 H   0  0  0  0  0  0
  -24.6701  -15.8430   20.5088 H   0  0  0  0  0  0
  -26.2835  -15.6181   20.0608 H   0  0  0  0  0  0
  -26.7103  -32.5508   23.1061 H   0  0  0  0  0  0
  -25.0162  -33.9793   25.0489 H   0  0  0  0  0  0
  -22.6998  -31.3139   21.4125 H   0  0  0  0  0  0
  -23.3782  -35.9619   23.3319 H   0  0  0  0  0  0
  -24.3572  -36.8906   22.2041 H   0  0  0  0  0  0
  -23.7279  -37.6521   23.6630 H   0  0  0  0  0  0
  -26.0707  -31.5791   20.6068 H   0  0  0  0  0  0
  -26.8293  -30.8602   21.9949 H   0  0  0  0  0  0
  -28.0978  -29.0312   21.1916 H   0  0  0  0  0  0
  -25.9920  -25.9948   18.9701 H   0  0  0  0  0  0
  -23.9619  -27.3292   19.0108 H   0  0  0  0  0  0
  -23.7331  -30.6220   19.4120 H   0  0  0  0  0  0
  -22.7414  -29.2641   19.8548 H   0  0  0  0  0  0
  -25.1306  -36.1943   25.0835 H   0  0  0  0  0  0
  -21.0000  -28.3230   24.1437 H   0  0  0  0  0  0
  -20.5771  -26.2229   23.3597 H   0  0  0  0  0  0
  -21.6629  -26.7457   22.1161 H   0  0  0  0  0  0
  -19.6936  -25.6314   21.1228 H   0  0  0  0  0  0
  -19.6741  -27.3225   20.6796 H   0  0  0  0  0  0
  -17.4213  -26.6729   21.3999 H   0  0  0  0  0  0
  -18.0261  -26.0101   22.9039 H   0  0  0  0  0  0
  -19.7946  -30.7256   24.2264 H   0  0  0  0  0  0
  -17.5021  -31.6261   24.5136 H   0  0  0  0  0  0
  -15.5346  -30.2946   23.7688 H   0  0  0  0  0  0
  -15.8687  -28.0831   22.6992 H   0  0  0  0  0  0
  -24.5917  -30.7089   25.7752 H   0  0  0  0  0  0
  -24.8878  -32.2925   26.4760 H   0  0  0  0  0  0
  -25.8035  -30.8995   27.0217 H   0  0  0  0  0  0
  -26.2864  -29.6810   24.1097 H   0  0  0  0  0  0
  -27.4000  -29.7220   25.4565 H   0  0  0  0  0  0
  -27.8721  -30.4334   23.9310 H   0  0  0  0  0  0
  -27.2653  -33.3646   26.2006 H   0  0  0  0  0  0
  -28.3845  -32.6899   25.0314 H   0  0  0  0  0  0
  -28.0677  -31.8494   26.5407 H   0  0  0  0  0  0
  -28.2588  -38.0101   24.7488 H   0  0  0  0  0  0
  -28.1104  -36.2633   24.6314 H   0  0  0  0  0  0
  -27.2276  -37.1455   25.8857 H   0  0  0  0  0  0
  -20.9264  -29.8797   21.6965 H   0  0  0  0  0  0
  -26.0206  -38.2871   24.1390 H   0  0  0  0  0  0
  -30.2832  -23.4442   22.2967 H   0  0  0  0  0  0
  -28.8014  -22.5352   22.5891 H   0  0  0  0  0  0
  -30.5321  -20.8566   22.8413 H   0  0  0  0  0  0
  -31.3969  -21.4458   21.4331 H   0  0  0  0  0  0
  -28.9427  -21.1862   19.0427 H   0  0  0  0  0  0
  -27.7420  -21.2120   20.3141 H   0  0  0  0  0  0
  -30.0243  -23.1560   19.8814 H   0  0  0  0  0  0
  -26.3913  -23.9789   18.8652 H   0  0  0  0  0  0
  -27.7041  -23.0045   18.3239 H   0  0  0  0  0  0
  -27.8819  -24.7425   18.2721 H   0  0  0  0  0  0
  -31.3537  -17.2234   23.0116 H   0  0  0  0  0  0
  -30.7155  -18.7290   23.6386 H   0  0  0  0  0  0
  -31.6468  -18.7149   22.1370 H   0  0  0  0  0  0
  -29.0594  -16.3097   23.3079 H   0  0  0  0  0  0
  -27.7010  -16.9333   22.3755 H   0  0  0  0  0  0
  -28.3512  -17.8408   23.7295 H   0  0  0  0  0  0
  -30.8749  -17.2620   20.2493 H   0  0  0  0  0  0
  -29.1748  -17.1879   19.9131 H   0  0  0  0  0  0
  -28.4154  -19.7363   22.4393 H   0  0  0  0  0  0
  -28.0362  -19.0461   20.8982 H   0  0  0  0  0  0
  -29.3029  -25.3585   21.3707 H   0  0  0  0  0  0
  -27.6423  -25.5482   21.7515 H   0  0  0  0  0  0
  -27.1986  -23.5450   20.9192 H   0  0  0  0  0  0
  -28.9532  -15.2231   21.3238 H   0  0  0  0  0  0
  -30.3096  -20.0117   20.2675 H   0  0  0  0  0  0
  1 25  1  0  0  0
  1 30  2  0  0  0
  1 83  1  0  0  0
  2  3  1  0  0  0
  2 25  1  0  0  0
  2 85  1  0  0  0
  2 86  1  0  0  0
  3  4  1  0  0  0
  3 87  1  0  0  0
  3 88  1  0  0  0
  4  5  1  0  0  0
  4 89  1  0  0  0
  4 90  1  0  0  0
  5  6  1  0  0  0
  5 26  1  0  0  0
  5 91  1  0  0  0
  6 25  1  0  0  0
  6 92  1  0  0  0
  6 93  1  0  0  0
  7  8  2  0  0  0
  7 26  1  0  0  0
  7 29  1  0  0  0
  8  9  1  0  0  0
  8 22  1  0  0  0
  9 10  1  0  0  0
  9 27  2  0  0  0
 10 11  2  0  0  0
 10 15  1  0  0  0
 11 12  1  0  0  0
 11 94  1  0  0  0
 12 13  2  0  0  0
 12 95  1  0  0  0
 13 14  1  0  0  0
 13 31  1  0  0  0
 14 15  2  0  0  0
 14 96  1  0  0  0
 15 97  1  0  0  0
 16 17  2  0  0  0
 16 21  1  0  0  0
 16 31  1  0  0  0
 17 18  1  0  0  0
 17 98  1  0  0  0
 18 19  2  0  0  0
 18 99  1  0  0  0
 19 20  1  0  0  0
 19 24  1  0  0  0
 20 21  2  0  0  0
 20100  1  0  0  0
 21 23  1  0  0  0
 22 28  1  0  0  0
 22 32  2  0  0  0
 26 27  1  0  0  0
 28101  1  0  0  0
 28102  1  0  0  0
 29103  1  0  0  0
 29104  1  0  0  0
 33 34  1  0  0  0
 33 66  1  0  0  0
 33 70  2  0  0  0
 34 36  1  0  0  0
 34 59  1  0  0  0
 34105  1  0  0  0
 35 44  2  0  0  0
 35 45  1  0  0  0
 35 68  1  0  0  0
 36 56  1  0  0  0
 36106  1  0  0  0
 37 39  1  0  0  0
 37 47  1  0  0  0
 37 66  1  0  0  0
 37107  1  0  0  0
 38 43  2  0  0  0
 38 46  1  0  0  0
 38 47  1  0  0  0
 39 64  1  0  0  0
 39 67  2  0  0  0
 40 52  1  0  0  0
 40 53  2  0  0  0
 40 58  1  0  0  0
 41108  1  0  0  0
 41109  1  0  0  0
 41110  1  0  0  0
 41 48  1  0  0  0
 42 43  1  0  0  0
 42 66  1  0  0  0
 42111  1  0  0  0
 42112  1  0  0  0
 43 44  1  0  0  0
 44113  1  0  0  0
 45 46  2  0  0  0
 45114  1  0  0  0
 46115  1  0  0  0
 47116  1  0  0  0
 47117  1  0  0  0
 48 56  1  0  0  0
 48 65  1  0  0  0
 48118  1  0  0  0
 49 50  1  0  0  0
 49 53  1  0  0  0
 49 64  1  0  0  0
 49119  1  0  0  0
 50 51  1  0  0  0
 50120  1  0  0  0
 50121  1  0  0  0
 51 52  1  0  0  0
 51122  1  0  0  0
 51123  1  0  0  0
 52124  1  0  0  0
 52125  1  0  0  0
 53 54  1  0  0  0
 54 55  2  0  0  0
 54126  1  0  0  0
 55 57  1  0  0  0
 55127  1  0  0  0
 56 69  2  0  0  0
 57 58  2  0  0  0
 57128  1  0  0  0
 58129  1  0  0  0
 59 60  1  0  0  0
 59 61  1  0  0  0
 59 62  1  0  0  0
 60130  1  0  0  0
 60131  1  0  0  0
 60132  1  0  0  0
 61133  1  0  0  0
 61134  1  0  0  0
 61135  1  0  0  0
 62136  1  0  0  0
 62137  1  0  0  0
 62138  1  0  0  0
 63 65  1  0  0  0
 63139  1  0  0  0
 63140  1  0  0  0
 63141  1  0  0  0
 64142  1  0  0  0
 65143  1  0  0  0
 68 80  1  0  0  0
 71 72  1  0  0  0
 71144  1  0  0  0
 71145  1  0  0  0
 71 74  1  0  0  0
 72 84  1  0  0  0
 72146  1  0  0  0
 72147  1  0  0  0
 73 74  1  0  0  0
 73 84  1  0  0  0
 73148  1  0  0  0
 73149  1  0  0  0
 74 81  1  0  0  0
 74150  1  0  0  0
 75151  1  0  0  0
 75152  1  0  0  0
 75153  1  0  0  0
 75 81  1  0  0  0
 76154  1  0  0  0
 76155  1  0  0  0
 76156  1  0  0  0
 76 82  1  0  0  0
 77 82  1  0  0  0
 77157  1  0  0  0
 77158  1  0  0  0
 77159  1  0  0  0
 78 82  1  0  0  0
 78 83  1  0  0  0
 78160  1  0  0  0
 78161  1  0  0  0
 79 82  1  0  0  0
 79162  1  0  0  0
 79163  1  0  0  0
 79 84  1  0  0  0
 80 81  1  0  0  0
 80164  1  0  0  0
 80165  1  0  0  0
 81166  1  0  0  0
 83167  1  0  0  0
 84168  1  0  0  0
M  CHG  1  84   1
M  ISO  4   1 100  68 101  80 101  83 100
M  END
> <chiral flag>
0

> <version>
0

> <s_m_source_file>
/data/baiqing/PycharmProjects/Reinvent-master-3.2/result/LINK_invent/BTK/process_docking_weight1_custom_sum_contain_oxygen_bond_distance_aromatic_linkinvent_7_9_3/rearranged_h_0109.sdf

> <i_m_source_file_index>
65

> <r_mmod_Potential_Energy-OPLS-2005>
33.6079788208008

> <r_mmod_Stretch_Energy-OPLS-2005>
58.2973365783691

> <r_mmod_Bend_Energy-OPLS-2005>
162.976852416992

> <r_mmod_Torsional_Energy-OPLS-2005>
354.371459960938

> <r_mmod_Improper_Torsional_Energy-OPLS-2005>
5.64218521118164

> <r_mmod_Van_der_Waal_Energy-OPLS-2005>
134.499252319336

> <r_mmod_Electrostatic_Energy-OPLS-2005>
-266.211486816406

> <r_mmod_Solvation_Energy-OPLS-2005>
-440.107299804688

> <b_mmod_Minimization_Converged-OPLS-2005>
0

> <r_mmod_RMS_Derivative-OPLS-2005>
3.50714945793152

$$$$
65
                    3D
 Structure written by MMmdl.
165173  0  0  1  0            999 V2000
  -30.4229  -15.1698   20.4064 C   0  0  0  0  0  0
  -30.4529  -12.7313   19.5344 C   0  0  0  0  0  0
  -29.5604  -12.5541   18.2806 C   0  0  0  0  0  0
  -28.0955  -12.2875   18.6850 C   0  0  0  0  0  0
  -27.6246  -13.2366   19.8138 C   0  0  2  0  0  0
  -28.6446  -13.3684   20.9610 C   0  0  0  0  0  0
  -25.2468  -13.7780   20.5348 C   0  0  0  0  0  0
  -24.1836  -13.0239   20.9296 C   0  0  0  0  0  0
  -24.6449  -11.6738   20.8884 C   0  0  0  0  0  0
  -23.9080  -10.4185   21.0495 C   0  0  0  0  0  0
  -24.3610   -9.4083   21.9261 C   0  0  0  0  0  0
  -23.6240   -8.2147   22.0797 C   0  0  0  0  0  0
  -22.4245   -8.0221   21.3545 C   0  0  0  0  0  0
  -21.9906   -9.0217   20.4678 C   0  0  0  0  0  0
  -22.7253  -10.2086   20.3114 C   0  0  0  0  0  0
  -21.6808   -6.0711   22.5290 C   0  0  0  0  0  0
  -21.3960   -6.5595   23.8226 C   0  0  0  0  0  0
  -21.3679   -5.6762   24.9183 C   0  0  0  0  0  0
  -21.6069   -4.3029   24.7223 C   0  0  0  0  0  0
  -21.8805   -3.8118   23.4332 C   0  0  0  0  0  0
  -21.9147   -4.6948   22.3394 C   0  0  0  0  0  0
  -22.7902  -13.5192   21.1874 C   0  0  0  0  0  0
  -22.1637   -4.2149   21.0976 F   0  0  0  0  0  0
  -21.5672   -3.4511   25.7730 F   0  0  0  0  0  0
  -29.8977  -13.8578   20.3634 N   0  0  0  0  0  0
  -26.2901  -12.9112   20.3052 N   0  0  0  0  0  0
  -25.9388  -11.6317   20.5794 N   0  0  0  0  0  0
  -22.0383  -12.8308   22.0393 N   0  0  0  0  0  0
  -25.4027  -15.1194   20.2604 N   0  0  0  0  0  0
  -31.6372  -15.2452   20.1578 O   0  0  0  0  0  0
  -21.6572   -6.8858   21.4252 O   0  0  0  0  0  0
  -22.3830  -14.5592   20.6697 O   0  0  0  0  0  0
  -24.6582  -31.8274   23.1693 C   0  0  0  0  0  0
  -25.9294  -32.4596   23.8151 C   0  0  1  0  0  0
  -27.2184  -26.9640   20.2167 C   0  0  0  0  0  0
  -25.6006  -33.8391   24.2070 N   0  0  0  0  0  0
  -23.4683  -30.4347   21.5216 C   0  0  2  0  0  0
  -24.9182  -28.8220   20.1140 C   0  0  0  0  0  0
  -22.7612  -29.4439   22.4831 C   0  0  0  0  0  0
  -18.0277  -28.1401   22.8410 C   0  0  0  0  0  0
  -24.1494  -36.7204   23.2634 C   0  0  0  0  0  0
  -26.0296  -30.6495   21.3823 C   0  0  0  0  0  0
  -26.1004  -29.2392   20.7375 C   0  0  0  0  0  0
  -27.2488  -28.3346   20.7543 C   0  0  0  0  0  0
  -26.0057  -26.6763   19.5478 C   0  0  0  0  0  0
  -24.8953  -27.5608   19.4935 C   0  0  0  0  0  0
  -23.6972  -29.7424   20.1494 C   0  0  0  0  0  0
  -25.4141  -36.2975   24.0294 C   0  0  1  0  0  0
  -20.5886  -28.3757   23.1170 C   0  0  2  0  0  0
  -20.6756  -26.9450   22.5352 C   0  0  0  0  0  0
  -19.5773  -26.6416   21.5117 C   0  0  0  0  0  0
  -18.1963  -26.7946   22.1548 C   0  0  0  0  0  0
  -19.1542  -28.8903   23.2768 C   0  0  0  0  0  0
  -18.9489  -30.1485   23.8830 C   0  0  0  0  0  0
  -17.6514  -30.6616   24.0541 C   0  0  0  0  0  0
  -25.9115  -34.9353   23.5019 C   0  0  0  0  0  0
  -16.5381  -29.9117   23.6345 C   0  0  0  0  0  0
  -16.7268  -28.6505   23.0384 C   0  0  0  0  0  0
  -26.4580  -31.6513   25.0649 C   0  0  0  0  0  0
  -25.3719  -31.3757   26.1321 C   0  0  0  0  0  0
  -27.0416  -30.2874   24.6310 C   0  0  0  0  0  0
  -27.6083  -32.4300   25.7455 C   0  0  0  0  0  0
  -27.5578  -37.1754   24.8476 C   0  0  0  0  0  0
  -21.4284  -29.3037   22.3522 N   0  0  0  0  0  0
  -26.4297  -37.3709   23.9432 N   0  0  0  0  0  0
  -24.7406  -30.9963   22.0800 N   0  0  0  0  0  0
  -23.4123  -28.8019   23.3090 O   0  0  0  0  0  0
  -28.2520  -25.9050   20.3120 O   0  0  0  0  0  0
  -26.5710  -34.8884   22.4590 O   0  0  0  0  0  0
  -23.5669  -32.1220   23.6853 O   0  0  0  0  0  0
  -30.2996  -20.3990   20.0516 C   0  0  0  0  0  0
  -30.4752  -18.9268   20.1032 C   0  0  0  0  0  0
  -29.1742  -21.2010   20.5188 C   0  0  0  0  0  0
  -28.2519  -20.2520   21.1144 C   0  0  0  0  0  0
  -28.3597  -18.7550   21.0628 C   0  0  0  0  0  0
  -29.5070  -17.9573   20.5762 C   0  0  0  0  0  0
  -27.1522  -20.9366   21.9204 C   0  0  0  0  0  0
  -23.9955  -17.8100   19.2049 C   0  0  0  0  0  0
  -24.2597  -19.3008   21.2275 C   0  0  0  0  0  0
  -29.1753  -22.9439   20.5657 C   0  0  0  0  0  0
  -27.1129  -17.9651   21.4725 C   0  0  0  0  0  0
  -28.0361  -24.2827   20.3167 C   0  0  0  0  0  0
  -24.7365  -18.0105   20.5461 C   0  0  0  0  0  0
  -29.5568  -16.3457   20.5507 N   0  0  0  0  0  0
  -26.2008  -17.9344   20.3109 N   0  3  0  0  0  0
  -31.4845  -12.9281   19.2358 H   0  0  0  0  0  0
  -30.4834  -11.8045   20.1117 H   0  0  0  0  0  0
  -29.9338  -11.7376   17.6624 H   0  0  0  0  0  0
  -29.6239  -13.4523   17.6612 H   0  0  0  0  0  0
  -28.0270  -11.2537   19.0254 H   0  0  0  0  0  0
  -27.4489  -12.3658   17.8104 H   0  0  0  0  0  0
  -27.5616  -14.2142   19.3340 H   0  0  0  0  0  0
  -28.7801  -12.4157   21.4749 H   0  0  0  0  0  0
  -28.2842  -14.0746   21.7080 H   0  0  0  0  0  0
  -25.2735   -9.5504   22.4882 H   0  0  0  0  0  0
  -23.9907   -7.4493   22.7484 H   0  0  0  0  0  0
  -21.0859   -8.8734   19.8945 H   0  0  0  0  0  0
  -22.3713  -10.9647   19.6242 H   0  0  0  0  0  0
  -21.1918   -7.6110   23.9725 H   0  0  0  0  0  0
  -21.1556   -6.0496   25.9111 H   0  0  0  0  0  0
  -22.0565   -2.7582   23.2815 H   0  0  0  0  0  0
  -22.3805  -11.9875   22.4768 H   0  0  0  0  0  0
  -21.1054  -13.1527   22.2534 H   0  0  0  0  0  0
  -24.4394  -15.4438   20.2360 H   0  0  0  0  0  0
  -25.7606  -15.1057   19.3122 H   0  0  0  0  0  0
  -26.7307  -32.5130   23.0797 H   0  0  0  0  0  0
  -25.0115  -33.9508   25.0211 H   0  0  0  0  0  0
  -22.7766  -31.2629   21.3518 H   0  0  0  0  0  0
  -23.3779  -35.9513   23.3298 H   0  0  0  0  0  0
  -24.3532  -36.8857   22.2042 H   0  0  0  0  0  0
  -23.7215  -37.6386   23.6670 H   0  0  0  0  0  0
  -26.1919  -31.3861   20.5950 H   0  0  0  0  0  0
  -26.8945  -30.7145   22.0283 H   0  0  0  0  0  0
  -28.1494  -28.6626   21.2561 H   0  0  0  0  0  0
  -25.8803  -25.7018   19.0968 H   0  0  0  0  0  0
  -23.9952  -27.2338   18.9880 H   0  0  0  0  0  0
  -23.8287  -30.5053   19.3814 H   0  0  0  0  0  0
  -22.8100  -29.1838   19.8493 H   0  0  0  0  0  0
  -25.1310  -36.1782   25.0783 H   0  0  0  0  0  0
  -20.9933  -28.3396   24.1316 H   0  0  0  0  0  0
  -20.5595  -26.2396   23.3588 H   0  0  0  0  0  0
  -21.6662  -26.7431   22.1233 H   0  0  0  0  0  0
  -19.7001  -25.6333   21.1172 H   0  0  0  0  0  0
  -19.6774  -27.3199   20.6631 H   0  0  0  0  0  0
  -17.4218  -26.6607   21.3970 H   0  0  0  0  0  0
  -18.0467  -26.0073   22.8945 H   0  0  0  0  0  0
  -19.7983  -30.7256   24.2208 H   0  0  0  0  0  0
  -17.5094  -31.6307   24.5166 H   0  0  0  0  0  0
  -15.5392  -30.3040   23.7751 H   0  0  0  0  0  0
  -15.8619  -28.0813   22.7228 H   0  0  0  0  0  0
  -24.5962  -30.7018   25.7676 H   0  0  0  0  0  0
  -24.8837  -32.2937   26.4588 H   0  0  0  0  0  0
  -25.7995  -30.9072   27.0196 H   0  0  0  0  0  0
  -26.3035  -29.6607   24.1289 H   0  0  0  0  0  0
  -27.3931  -29.7176   25.4934 H   0  0  0  0  0  0
  -27.8988  -30.4063   23.9671 H   0  0  0  0  0  0
  -27.2678  -33.3669   26.1869 H   0  0  0  0  0  0
  -28.3980  -32.6758   25.0336 H   0  0  0  0  0  0
  -28.0623  -31.8517   26.5518 H   0  0  0  0  0  0
  -28.2594  -38.0062   24.7527 H   0  0  0  0  0  0
  -28.1089  -36.2583   24.6294 H   0  0  0  0  0  0
  -27.2296  -37.1377   25.8886 H   0  0  0  0  0  0
  -20.9590  -29.8640   21.6562 H   0  0  0  0  0  0
  -26.0156  -38.2780   24.1438 H   0  0  0  0  0  0
  -31.1398  -20.9583   19.6635 H   0  0  0  0  0  0
  -31.4172  -18.5323   19.7454 H   0  0  0  0  0  0
  -27.5553  -21.8246   22.4060 H   0  0  0  0  0  0
  -26.7765  -20.3520   22.7545 H   0  0  0  0  0  0
  -26.3304  -21.2654   21.2876 H   0  0  0  0  0  0
  -24.2128  -18.6257   18.5154 H   0  0  0  0  0  0
  -22.9144  -17.7713   19.3435 H   0  0  0  0  0  0
  -24.2826  -16.8923   18.6912 H   0  0  0  0  0  0
  -24.7161  -19.4456   22.2042 H   0  0  0  0  0  0
  -23.1852  -19.2552   21.3911 H   0  0  0  0  0  0
  -24.4428  -20.1745   20.6074 H   0  0  0  0  0  0
  -30.0185  -23.1997   19.9255 H   0  0  0  0  0  0
  -29.5513  -23.1287   21.5712 H   0  0  0  0  0  0
  -26.6340  -18.3395   22.3729 H   0  0  0  0  0  0
  -27.3755  -16.9434   21.7416 H   0  0  0  0  0  0
  -27.2680  -24.1193   21.0741 H   0  0  0  0  0  0
  -27.5346  -24.0692   19.3753 H   0  0  0  0  0  0
  -24.4689  -17.2051   21.2293 H   0  0  0  0  0  0
  -28.6364  -15.9572   20.6744 H   0  0  0  0  0  0
  -26.3460  -17.0201   19.9062 H   0  0  0  0  0  0
  -26.4925  -18.6241   19.6343 H   0  0  0  0  0  0
  1 25  1  0  0  0
  1 30  2  0  0  0
  1 84  1  0  0  0
  2  3  1  0  0  0
  2 25  1  0  0  0
  2 86  1  0  0  0
  2 87  1  0  0  0
  3  4  1  0  0  0
  3 88  1  0  0  0
  3 89  1  0  0  0
  4  5  1  0  0  0
  4 90  1  0  0  0
  4 91  1  0  0  0
  5  6  1  0  0  0
  5 26  1  0  0  0
  5 92  1  0  0  0
  6 25  1  0  0  0
  6 93  1  0  0  0
  6 94  1  0  0  0
  7  8  2  0  0  0
  7 26  1  0  0  0
  7 29  1  0  0  0
  8  9  1  0  0  0
  8 22  1  0  0  0
  9 10  1  0  0  0
  9 27  2  0  0  0
 10 11  2  0  0  0
 10 15  1  0  0  0
 11 12  1  0  0  0
 11 95  1  0  0  0
 12 13  2  0  0  0
 12 96  1  0  0  0
 13 14  1  0  0  0
 13 31  1  0  0  0
 14 15  2  0  0  0
 14 97  1  0  0  0
 15 98  1  0  0  0
 16 17  2  0  0  0
 16 21  1  0  0  0
 16 31  1  0  0  0
 17 18  1  0  0  0
 17 99  1  0  0  0
 18 19  2  0  0  0
 18100  1  0  0  0
 19 20  1  0  0  0
 19 24  1  0  0  0
 20 21  2  0  0  0
 20101  1  0  0  0
 21 23  1  0  0  0
 22 28  1  0  0  0
 22 32  2  0  0  0
 26 27  1  0  0  0
 28102  1  0  0  0
 28103  1  0  0  0
 29104  1  0  0  0
 29105  1  0  0  0
 33 34  1  0  0  0
 33 66  1  0  0  0
 33 70  2  0  0  0
 34 36  1  0  0  0
 34 59  1  0  0  0
 34106  1  0  0  0
 35 44  2  0  0  0
 35 45  1  0  0  0
 35 68  1  0  0  0
 36 56  1  0  0  0
 36107  1  0  0  0
 37 39  1  0  0  0
 37 47  1  0  0  0
 37 66  1  0  0  0
 37108  1  0  0  0
 38 43  2  0  0  0
 38 46  1  0  0  0
 38 47  1  0  0  0
 39 64  1  0  0  0
 39 67  2  0  0  0
 40 52  1  0  0  0
 40 53  2  0  0  0
 40 58  1  0  0  0
 41109  1  0  0  0
 41110  1  0  0  0
 41111  1  0  0  0
 41 48  1  0  0  0
 42 43  1  0  0  0
 42 66  1  0  0  0
 42112  1  0  0  0
 42113  1  0  0  0
 43 44  1  0  0  0
 44114  1  0  0  0
 45 46  2  0  0  0
 45115  1  0  0  0
 46116  1  0  0  0
 47117  1  0  0  0
 47118  1  0  0  0
 48 56  1  0  0  0
 48 65  1  0  0  0
 48119  1  0  0  0
 49 50  1  0  0  0
 49 53  1  0  0  0
 49 64  1  0  0  0
 49120  1  0  0  0
 50 51  1  0  0  0
 50121  1  0  0  0
 50122  1  0  0  0
 51 52  1  0  0  0
 51123  1  0  0  0
 51124  1  0  0  0
 52125  1  0  0  0
 52126  1  0  0  0
 53 54  1  0  0  0
 54 55  2  0  0  0
 54127  1  0  0  0
 55 57  1  0  0  0
 55128  1  0  0  0
 56 69  2  0  0  0
 57 58  2  0  0  0
 57129  1  0  0  0
 58130  1  0  0  0
 59 60  1  0  0  0
 59 61  1  0  0  0
 59 62  1  0  0  0
 60131  1  0  0  0
 60132  1  0  0  0
 60133  1  0  0  0
 61134  1  0  0  0
 61135  1  0  0  0
 61136  1  0  0  0
 62137  1  0  0  0
 62138  1  0  0  0
 62139  1  0  0  0
 63 65  1  0  0  0
 63140  1  0  0  0
 63141  1  0  0  0
 63142  1  0  0  0
 64143  1  0  0  0
 65144  1  0  0  0
 68 82  1  0  0  0
 71 72  2  0  0  0
 71 73  1  0  0  0
 71145  1  0  0  0
 72 76  1  0  0  0
 72146  1  0  0  0
 73 74  2  0  0  0
 73 80  1  0  0  0
 74 75  1  0  0  0
 74 77  1  0  0  0
 75 76  2  0  0  0
 75 81  1  0  0  0
 76 84  1  0  0  0
 77147  1  0  0  0
 77148  1  0  0  0
 77149  1  0  0  0
 78150  1  0  0  0
 78151  1  0  0  0
 78152  1  0  0  0
 78 83  1  0  0  0
 79 83  1  0  0  0
 79153  1  0  0  0
 79154  1  0  0  0
 79155  1  0  0  0
 80 82  1  0  0  0
 80156  1  0  0  0
 80157  1  0  0  0
 81 85  1  0  0  0
 81158  1  0  0  0
 81159  1  0  0  0
 82160  1  0  0  0
 82161  1  0  0  0
 83 85  1  0  0  0
 83162  1  0  0  0
 84163  1  0  0  0
 85164  1  0  0  0
 85165  1  0  0  0
M  CHG  1  85   1
M  ISO  4   1 100  68 101  82 101  84 100
M  END
> <chiral flag>
0

> <version>
0

> <s_m_source_file>
/data/baiqing/PycharmProjects/Reinvent-master-3.2/result/LINK_invent/BTK/process_docking_weight1_custom_sum_contain_oxygen_bond_distance_aromatic_linkinvent_7_9_3/rearranged_h_0109.sdf

> <i_m_source_file_index>
66

> <r_mmod_Potential_Energy-OPLS-2005>
921.733215332031

> <r_mmod_Stretch_Energy-OPLS-2005>
473.128692626953

> <r_mmod_Bend_Energy-OPLS-2005>
422.174743652344

> <r_mmod_Torsional_Energy-OPLS-2005>
245.623764038086

> <r_mmod_Improper_Torsional_Energy-OPLS-2005>
13.2337884902954

> <r_mmod_Van_der_Waal_Energy-OPLS-2005>
137.127838134766

> <r_mmod_Electrostatic_Energy-OPLS-2005>
-306.324035644531

> <r_mmod_Solvation_Energy-OPLS-2005>
-450.668487548828

> <b_mmod_Minimization_Converged-OPLS-2005>
0

> <r_mmod_RMS_Derivative-OPLS-2005>
6.8496732711792

$$$$
66
                    3D
 Structure written by MMmdl.
158165  0  0  1  0            999 V2000
  -30.4156  -15.2308   20.3294 C   0  0  0  0  0  0
  -30.4465  -12.7803   19.5164 C   0  0  0  0  0  0
  -29.5329  -12.5577   18.2849 C   0  0  0  0  0  0
  -28.0775  -12.3032   18.7130 C   0  0  0  0  0  0
  -27.6187  -13.2656   19.8345 C   0  0  2  0  0  0
  -28.6550  -13.4063   20.9691 C   0  0  0  0  0  0
  -25.2442  -13.8267   20.5734 C   0  0  0  0  0  0
  -24.1803  -13.0431   20.9299 C   0  0  0  0  0  0
  -24.6425  -11.6935   20.8807 C   0  0  0  0  0  0
  -23.9121  -10.4289   21.0421 C   0  0  0  0  0  0
  -24.3649   -9.4218   21.9201 C   0  0  0  0  0  0
  -23.6320   -8.2249   22.0746 C   0  0  0  0  0  0
  -22.4329   -8.0287   21.3514 C   0  0  0  0  0  0
  -21.9955   -9.0287   20.4640 C   0  0  0  0  0  0
  -22.7299  -10.2154   20.3081 C   0  0  0  0  0  0
  -21.6833   -6.0767   22.5267 C   0  0  0  0  0  0
  -21.4029   -6.5646   23.8206 C   0  0  0  0  0  0
  -21.3664   -5.6793   24.9173 C   0  0  0  0  0  0
  -21.6029   -4.3051   24.7200 C   0  0  0  0  0  0
  -21.8834   -3.8161   23.4327 C   0  0  0  0  0  0
  -21.9204   -4.6982   22.3370 C   0  0  0  0  0  0
  -22.7823  -13.5219   21.1874 C   0  0  0  0  0  0
  -22.1665   -4.2166   21.0955 F   0  0  0  0  0  0
  -21.5614   -3.4541   25.7721 F   0  0  0  0  0  0
  -29.8916  -13.9116   20.3485 N   0  0  0  0  0  0
  -26.2838  -12.9480   20.3244 N   0  0  0  0  0  0
  -25.9357  -11.6602   20.5793 N   0  0  0  0  0  0
  -22.0464  -12.8219   22.0427 N   0  0  0  0  0  0
  -25.4085  -15.1977   20.3966 N   0  0  0  0  0  0
  -31.6238  -15.2567   20.0436 O   0  0  0  0  0  0
  -21.6638   -6.8913   21.4232 O   0  0  0  0  0  0
  -22.3505  -14.5499   20.6700 O   0  0  0  0  0  0
  -24.6684  -31.8237   23.1580 C   0  0  0  0  0  0
  -25.9343  -32.4568   23.8085 C   0  0  1  0  0  0
  -27.1940  -26.8904   20.1867 C   0  0  0  0  0  0
  -25.5984  -33.8365   24.2020 N   0  0  0  0  0  0
  -23.4879  -30.4295   21.5143 C   0  0  2  0  0  0
  -24.9338  -28.8168   20.0956 C   0  0  0  0  0  0
  -22.7744  -29.4421   22.4744 C   0  0  0  0  0  0
  -18.0363  -28.1428   22.8410 C   0  0  0  0  0  0
  -24.1530  -36.7192   23.2663 C   0  0  0  0  0  0
  -26.0560  -30.6191   21.3931 C   0  0  0  0  0  0
  -26.1174  -29.2043   20.7333 C   0  0  0  0  0  0
  -27.2464  -28.2649   20.7512 C   0  0  0  0  0  0
  -25.9824  -26.6586   19.5079 C   0  0  0  0  0  0
  -24.8922  -27.5650   19.4567 C   0  0  0  0  0  0
  -23.7308  -29.7541   20.1384 C   0  0  0  0  0  0
  -25.4131  -36.2889   24.0335 C   0  0  1  0  0  0
  -20.6006  -28.3791   23.1130 C   0  0  2  0  0  0
  -20.6850  -26.9482   22.5347 C   0  0  0  0  0  0
  -19.5785  -26.6408   21.5186 C   0  0  0  0  0  0
  -18.1970  -26.7958   22.1618 C   0  0  0  0  0  0
  -19.1634  -28.8924   23.2733 C   0  0  0  0  0  0
  -18.9554  -30.1512   23.8776 C   0  0  0  0  0  0
  -17.6534  -30.6575   24.0551 C   0  0  0  0  0  0
  -25.9125  -34.9314   23.4991 C   0  0  0  0  0  0
  -16.5423  -29.9088   23.6298 C   0  0  0  0  0  0
  -16.7342  -28.6550   23.0250 C   0  0  0  0  0  0
  -26.4539  -31.6497   25.0613 C   0  0  0  0  0  0
  -25.3613  -31.3733   26.1239 C   0  0  0  0  0  0
  -27.0412  -30.2832   24.6355 C   0  0  0  0  0  0
  -27.6034  -32.4360   25.7350 C   0  0  0  0  0  0
  -27.5559  -37.1726   24.8492 C   0  0  0  0  0  0
  -21.4416  -29.3061   22.3468 N   0  0  0  0  0  0
  -26.4252  -37.3630   23.9468 N   0  0  0  0  0  0
  -24.7575  -30.9894   22.0735 N   0  0  0  0  0  0
  -23.4231  -28.7965   23.3018 O   0  0  0  0  0  0
  -28.1672  -25.7593   20.2772 O   0  0  0  0  0  0
  -26.5756  -34.8853   22.4586 O   0  0  0  0  0  0
  -23.5764  -32.1289   23.6697 O   0  0  0  0  0  0
  -26.0628  -19.6573   19.8932 C   0  0  0  0  0  0
  -28.6251  -17.9300   18.6048 C   0  0  0  0  0  0
  -30.9435  -18.3453   19.3104 C   0  0  0  0  0  0
  -26.8447  -20.9013   20.3935 C   0  0  0  0  0  0
  -28.7244  -22.5720   20.4550 C   0  0  0  0  0  0
  -29.0206  -19.5661   20.6837 C   0  0  0  0  0  0
  -27.8987  -24.1366   20.0236 C   0  0  0  0  0  0
  -29.5299  -18.0439   19.8541 C   0  0  0  0  0  0
  -29.6041  -16.4690   20.4356 N   0  0  0  0  0  0
  -28.3209  -20.9786   20.1044 N   0  3  1  0  0  0
  -31.4495  -13.0140   19.1597 H   0  0  0  0  0  0
  -30.5489  -11.8664   20.1039 H   0  0  0  0  0  0
  -29.8965  -11.7147   17.6955 H   0  0  0  0  0  0
  -29.5813  -13.4299   17.6295 H   0  0  0  0  0  0
  -28.0239  -11.2792   19.0832 H   0  0  0  0  0  0
  -27.4078  -12.3599   17.8523 H   0  0  0  0  0  0
  -27.5541  -14.2433   19.3573 H   0  0  0  0  0  0
  -28.8165  -12.4663   21.5004 H   0  0  0  0  0  0
  -28.3095  -14.1234   21.7126 H   0  0  0  0  0  0
  -25.2791   -9.5660   22.4782 H   0  0  0  0  0  0
  -24.0000   -7.4654   22.7490 H   0  0  0  0  0  0
  -21.0877   -8.8888   19.8947 H   0  0  0  0  0  0
  -22.3810  -10.9737   19.6212 H   0  0  0  0  0  0
  -21.2036   -7.6161   23.9723 H   0  0  0  0  0  0
  -21.1450   -6.0507   25.9063 H   0  0  0  0  0  0
  -22.0603   -2.7622   23.2812 H   0  0  0  0  0  0
  -22.4027  -11.9874   22.4831 H   0  0  0  0  0  0
  -21.1074  -13.1250   22.2567 H   0  0  0  0  0  0
  -24.6189  -15.8372   20.4402 H   0  0  0  0  0  0
  -26.2038  -15.5900   19.9055 H   0  0  0  0  0  0
  -26.7467  -32.5112   23.0843 H   0  0  0  0  0  0
  -24.9940  -33.9431   25.0040 H   0  0  0  0  0  0
  -22.7954  -31.2525   21.3397 H   0  0  0  0  0  0
  -23.3767  -35.9545   23.3269 H   0  0  0  0  0  0
  -24.3635  -36.8925   22.2093 H   0  0  0  0  0  0
  -23.7343  -37.6369   23.6787 H   0  0  0  0  0  0
  -26.2360  -31.3668   20.6154 H   0  0  0  0  0  0
  -26.9157  -30.6779   22.0501 H   0  0  0  0  0  0
  -28.1450  -28.5676   21.2662 H   0  0  0  0  0  0
  -25.8330  -25.6947   19.0457 H   0  0  0  0  0  0
  -23.9948  -27.2535   18.9371 H   0  0  0  0  0  0
  -23.8966  -30.5336   19.3920 H   0  0  0  0  0  0
  -22.8376  -29.2194   19.8119 H   0  0  0  0  0  0
  -25.1319  -36.1626   25.0824 H   0  0  0  0  0  0
  -21.0055  -28.3475   24.1271 H   0  0  0  0  0  0
  -20.5825  -26.2412   23.3616 H   0  0  0  0  0  0
  -21.6694  -26.7484   22.1073 H   0  0  0  0  0  0
  -19.6951  -25.6303   21.1243 H   0  0  0  0  0  0
  -19.6725  -27.3208   20.6704 H   0  0  0  0  0  0
  -17.4243  -26.6675   21.4023 H   0  0  0  0  0  0
  -18.0354  -26.0130   22.9045 H   0  0  0  0  0  0
  -19.8046  -30.7321   24.2113 H   0  0  0  0  0  0
  -17.5110  -31.6252   24.5211 H   0  0  0  0  0  0
  -15.5410  -30.2926   23.7742 H   0  0  0  0  0  0
  -15.8761  -28.0904   22.6865 H   0  0  0  0  0  0
  -24.5845  -30.7044   25.7513 H   0  0  0  0  0  0
  -24.8691  -32.2901   26.4473 H   0  0  0  0  0  0
  -25.7807  -30.8994   27.0123 H   0  0  0  0  0  0
  -26.3032  -29.6451   24.1453 H   0  0  0  0  0  0
  -27.3996  -29.7236   25.5002 H   0  0  0  0  0  0
  -27.8966  -30.3944   23.9694 H   0  0  0  0  0  0
  -27.2637  -33.3837   26.1522 H   0  0  0  0  0  0
  -28.3920  -32.6657   25.0191 H   0  0  0  0  0  0
  -28.0525  -31.8716   26.5550 H   0  0  0  0  0  0
  -28.2490  -38.0081   24.7490 H   0  0  0  0  0  0
  -28.1129  -36.2598   24.6334 H   0  0  0  0  0  0
  -27.2286  -37.1333   25.8890 H   0  0  0  0  0  0
  -20.9743  -29.8780   21.6592 H   0  0  0  0  0  0
  -26.0090  -38.2674   24.1482 H   0  0  0  0  0  0
  -26.0969  -19.5416   18.8091 H   0  0  0  0  0  0
  -25.0007  -19.7457   20.1399 H   0  0  0  0  0  0
  -26.3759  -18.7245   20.3621 H   0  0  0  0  0  0
  -28.6479  -18.8499   18.0154 H   0  0  0  0  0  0
  -27.5885  -17.7173   18.8532 H   0  0  0  0  0  0
  -28.9451  -17.1178   17.9499 H   0  0  0  0  0  0
  -30.9898  -19.3292   18.8380 H   0  0  0  0  0  0
  -31.2386  -17.6260   18.5438 H   0  0  0  0  0  0
  -31.7047  -18.3184   20.0877 H   0  0  0  0  0  0
  -26.7037  -20.9964   21.4739 H   0  0  0  0  0  0
  -26.3544  -21.7672   19.9575 H   0  0  0  0  0  0
  -28.8069  -22.5921   21.5428 H   0  0  0  0  0  0
  -29.7479  -22.6657   20.0966 H   0  0  0  0  0  0
  -29.8741  -19.9169   21.2627 H   0  0  0  0  0  0
  -28.3399  -19.2323   21.4649 H   0  0  0  0  0  0
  -26.8710  -24.0056   20.3514 H   0  0  0  0  0  0
  -27.7988  -24.0853   18.9397 H   0  0  0  0  0  0
  -28.7143  -16.2228   20.8442 H   0  0  0  0  0  0
  -28.4268  -20.9079   19.1016 H   0  0  0  0  0  0
  1 25  1  0  0  0
  1 30  2  0  0  0
  1 79  1  0  0  0
  2  3  1  0  0  0
  2 25  1  0  0  0
  2 81  1  0  0  0
  2 82  1  0  0  0
  3  4  1  0  0  0
  3 83  1  0  0  0
  3 84  1  0  0  0
  4  5  1  0  0  0
  4 85  1  0  0  0
  4 86  1  0  0  0
  5  6  1  0  0  0
  5 26  1  0  0  0
  5 87  1  0  0  0
  6 25  1  0  0  0
  6 88  1  0  0  0
  6 89  1  0  0  0
  7  8  2  0  0  0
  7 26  1  0  0  0
  7 29  1  0  0  0
  8  9  1  0  0  0
  8 22  1  0  0  0
  9 10  1  0  0  0
  9 27  2  0  0  0
 10 11  2  0  0  0
 10 15  1  0  0  0
 11 12  1  0  0  0
 11 90  1  0  0  0
 12 13  2  0  0  0
 12 91  1  0  0  0
 13 14  1  0  0  0
 13 31  1  0  0  0
 14 15  2  0  0  0
 14 92  1  0  0  0
 15 93  1  0  0  0
 16 17  2  0  0  0
 16 21  1  0  0  0
 16 31  1  0  0  0
 17 18  1  0  0  0
 17 94  1  0  0  0
 18 19  2  0  0  0
 18 95  1  0  0  0
 19 20  1  0  0  0
 19 24  1  0  0  0
 20 21  2  0  0  0
 20 96  1  0  0  0
 21 23  1  0  0  0
 22 28  1  0  0  0
 22 32  2  0  0  0
 26 27  1  0  0  0
 28 97  1  0  0  0
 28 98  1  0  0  0
 29 99  1  0  0  0
 29100  1  0  0  0
 33 34  1  0  0  0
 33 66  1  0  0  0
 33 70  2  0  0  0
 34 36  1  0  0  0
 34 59  1  0  0  0
 34101  1  0  0  0
 35 44  2  0  0  0
 35 45  1  0  0  0
 35 68  1  0  0  0
 36 56  1  0  0  0
 36102  1  0  0  0
 37 39  1  0  0  0
 37 47  1  0  0  0
 37 66  1  0  0  0
 37103  1  0  0  0
 38 43  2  0  0  0
 38 46  1  0  0  0
 38 47  1  0  0  0
 39 64  1  0  0  0
 39 67  2  0  0  0
 40 52  1  0  0  0
 40 53  2  0  0  0
 40 58  1  0  0  0
 41104  1  0  0  0
 41105  1  0  0  0
 41106  1  0  0  0
 41 48  1  0  0  0
 42 43  1  0  0  0
 42 66  1  0  0  0
 42107  1  0  0  0
 42108  1  0  0  0
 43 44  1  0  0  0
 44109  1  0  0  0
 45 46  2  0  0  0
 45110  1  0  0  0
 46111  1  0  0  0
 47112  1  0  0  0
 47113  1  0  0  0
 48 56  1  0  0  0
 48 65  1  0  0  0
 48114  1  0  0  0
 49 50  1  0  0  0
 49 53  1  0  0  0
 49 64  1  0  0  0
 49115  1  0  0  0
 50 51  1  0  0  0
 50116  1  0  0  0
 50117  1  0  0  0
 51 52  1  0  0  0
 51118  1  0  0  0
 51119  1  0  0  0
 52120  1  0  0  0
 52121  1  0  0  0
 53 54  1  0  0  0
 54 55  2  0  0  0
 54122  1  0  0  0
 55 57  1  0  0  0
 55123  1  0  0  0
 56 69  2  0  0  0
 57 58  2  0  0  0
 57124  1  0  0  0
 58125  1  0  0  0
 59 60  1  0  0  0
 59 61  1  0  0  0
 59 62  1  0  0  0
 60126  1  0  0  0
 60127  1  0  0  0
 60128  1  0  0  0
 61129  1  0  0  0
 61130  1  0  0  0
 61131  1  0  0  0
 62132  1  0  0  0
 62133  1  0  0  0
 62134  1  0  0  0
 63 65  1  0  0  0
 63135  1  0  0  0
 63136  1  0  0  0
 63137  1  0  0  0
 64138  1  0  0  0
 65139  1  0  0  0
 68 77  1  0  0  0
 71 74  1  0  0  0
 71140  1  0  0  0
 71141  1  0  0  0
 71142  1  0  0  0
 72143  1  0  0  0
 72144  1  0  0  0
 72145  1  0  0  0
 72 78  1  0  0  0
 73 78  1  0  0  0
 73146  1  0  0  0
 73147  1  0  0  0
 73148  1  0  0  0
 74149  1  0  0  0
 74150  1  0  0  0
 74 80  1  0  0  0
 75 77  1  0  0  0
 75 80  1  0  0  0
 75151  1  0  0  0
 75152  1  0  0  0
 76 78  1  0  0  0
 76 80  1  0  0  0
 76153  1  0  0  0
 76154  1  0  0  0
 77155  1  0  0  0
 77156  1  0  0  0
 78 79  1  0  0  0
 79157  1  0  0  0
 80158  1  0  0  0
M  CHG  1  80   1
M  ISO  4   1 100  68 101  77 101  79 100
M  END
> <chiral flag>
0

> <version>
0

> <s_m_source_file>
/data/baiqing/PycharmProjects/Reinvent-master-3.2/result/LINK_invent/BTK/process_docking_weight1_custom_sum_contain_oxygen_bond_distance_aromatic_linkinvent_7_9_3/rearranged_h_0109.sdf

> <i_m_source_file_index>
67

> <r_mmod_Potential_Energy-OPLS-2005>
1275.70886230469

> <r_mmod_Stretch_Energy-OPLS-2005>
640.120666503906

> <r_mmod_Bend_Energy-OPLS-2005>
458.5498046875

> <r_mmod_Torsional_Energy-OPLS-2005>
256.113677978516

> <r_mmod_Improper_Torsional_Energy-OPLS-2005>
5.86557912826538

> <r_mmod_Van_der_Waal_Energy-OPLS-2005>
109.785079956055

> <r_mmod_Electrostatic_Energy-OPLS-2005>
-216.159591674805

> <r_mmod_Solvation_Energy-OPLS-2005>
-446.161743164062

> <b_mmod_Minimization_Converged-OPLS-2005>
0

> <r_mmod_RMS_Derivative-OPLS-2005>
8.2355432510376

$$$$
67
                    3D
 Structure written by MMmdl.
164172  0  0  1  0            999 V2000
  -30.5465  -14.9651   20.4049 C   0  0  0  0  0  0
  -30.4362  -12.5902   19.5146 C   0  0  0  0  0  0
  -29.5260  -12.5287   18.2660 C   0  0  0  0  0  0
  -28.0569  -12.3163   18.6771 C   0  0  0  0  0  0
  -27.6288  -13.2515   19.8377 C   0  0  2  0  0  0
  -28.6683  -13.2913   20.9795 C   0  0  0  0  0  0
  -25.2457  -13.8231   20.5699 C   0  0  0  0  0  0
  -24.1772  -13.0451   20.9221 C   0  0  0  0  0  0
  -24.6390  -11.6934   20.8751 C   0  0  0  0  0  0
  -23.9071  -10.4301   21.0411 C   0  0  0  0  0  0
  -24.3621   -9.4213   21.9188 C   0  0  0  0  0  0
  -23.6294   -8.2250   22.0757 C   0  0  0  0  0  0
  -22.4279   -8.0287   21.3546 C   0  0  0  0  0  0
  -21.9912   -9.0259   20.4647 C   0  0  0  0  0  0
  -22.7244  -10.2139   20.3058 C   0  0  0  0  0  0
  -21.6852   -6.0734   22.5276 C   0  0  0  0  0  0
  -21.4015   -6.5638   23.8210 C   0  0  0  0  0  0
  -21.3661   -5.6791   24.9170 C   0  0  0  0  0  0
  -21.6048   -4.3053   24.7225 C   0  0  0  0  0  0
  -21.8819   -3.8145   23.4345 C   0  0  0  0  0  0
  -21.9193   -4.6960   22.3400 C   0  0  0  0  0  0
  -22.7790  -13.5215   21.1870 C   0  0  0  0  0  0
  -22.1663   -4.2143   21.0979 F   0  0  0  0  0  0
  -21.5626   -3.4537   25.7737 F   0  0  0  0  0  0
  -29.9465  -13.7019   20.3845 N   0  0  0  0  0  0
  -26.2876  -12.9462   20.3225 N   0  0  0  0  0  0
  -25.9323  -11.6588   20.5735 N   0  0  0  0  0  0
  -22.0424  -12.8211   22.0418 N   0  0  0  0  0  0
  -25.4135  -15.1959   20.4112 N   0  0  0  0  0  0
  -31.7529  -14.9866   20.1294 O   0  0  0  0  0  0
  -21.6645   -6.8882   21.4241 O   0  0  0  0  0  0
  -22.3475  -14.5525   20.6716 O   0  0  0  0  0  0
  -24.6458  -31.8430   23.1867 C   0  0  0  0  0  0
  -25.9224  -32.4685   23.8259 C   0  0  1  0  0  0
  -27.2120  -27.1133   20.1545 C   0  0  0  0  0  0
  -25.5968  -33.8491   24.2180 N   0  0  0  0  0  0
  -23.4498  -30.4626   21.5333 C   0  0  2  0  0  0
  -24.8988  -28.8863   20.1118 C   0  0  0  0  0  0
  -22.7574  -29.4547   22.4856 C   0  0  0  0  0  0
  -18.0307  -28.1397   22.8476 C   0  0  0  0  0  0
  -24.1490  -36.7249   23.2639 C   0  0  0  0  0  0
  -26.0068  -30.7105   21.3874 C   0  0  0  0  0  0
  -26.0785  -29.3186   20.7307 C   0  0  0  0  0  0
  -27.2372  -28.4492   20.7329 C   0  0  0  0  0  0
  -26.0085  -26.7944   19.4879 C   0  0  0  0  0  0
  -24.8779  -27.6386   19.4739 C   0  0  0  0  0  0
  -23.6777  -29.7916   20.1536 C   0  0  0  0  0  0
  -25.4121  -36.3021   24.0313 C   0  0  1  0  0  0
  -20.5919  -28.3732   23.1227 C   0  0  2  0  0  0
  -20.6790  -26.9436   22.5399 C   0  0  0  0  0  0
  -19.5762  -26.6385   21.5207 C   0  0  0  0  0  0
  -18.1946  -26.7935   22.1622 C   0  0  0  0  0  0
  -19.1563  -28.8883   23.2843 C   0  0  0  0  0  0
  -18.9480  -30.1478   23.8871 C   0  0  0  0  0  0
  -17.6477  -30.6595   24.0560 C   0  0  0  0  0  0
  -25.9077  -34.9402   23.5056 C   0  0  0  0  0  0
  -16.5369  -29.9087   23.6338 C   0  0  0  0  0  0
  -16.7292  -28.6506   23.0357 C   0  0  0  0  0  0
  -26.4537  -31.6552   25.0706 C   0  0  0  0  0  0
  -25.3715  -31.3763   26.1400 C   0  0  0  0  0  0
  -27.0398  -30.2938   24.6303 C   0  0  0  0  0  0
  -27.6057  -32.4322   25.7502 C   0  0  0  0  0  0
  -27.5572  -37.1780   24.8466 C   0  0  0  0  0  0
  -21.4264  -29.3057   22.3598 N   0  0  0  0  0  0
  -26.4279  -37.3741   23.9416 N   0  0  0  0  0  0
  -24.7209  -31.0268   22.0913 N   0  0  0  0  0  0
  -23.4208  -28.8093   23.3012 O   0  0  0  0  0  0
  -28.2526  -26.1043   20.2120 O   0  0  0  0  0  0
  -26.5659  -34.8910   22.4632 O   0  0  0  0  0  0
  -23.5572  -32.1319   23.7080 O   0  0  0  0  0  0
  -30.6003  -20.3654   19.4367 C   0  0  0  0  0  0
  -29.1789  -18.8206   20.6037 C   0  0  0  0  0  0
  -29.4374  -20.2382   20.2141 C   0  0  0  0  0  0
  -31.3920  -19.2365   19.1142 C   0  0  0  0  0  0
  -30.0311  -17.6493   20.2472 C   0  0  0  0  0  0
  -34.1375  -20.5047   19.9443 C   0  0  0  0  0  0
  -32.1735  -19.3832   16.7251 C   0  0  0  0  0  0
  -27.3692  -24.5016   21.8389 C   0  0  0  0  0  0
  -28.5435  -21.6029   20.5158 C   0  0  0  0  0  0
  -33.5301  -20.5646   18.5345 C   0  0  0  0  0  0
  -28.9586  -23.2268   20.2067 C   0  0  0  0  0  0
  -32.6092  -19.3703   18.1988 C   0  0  1  0  0  0
  -27.9389  -24.5744   20.4136 C   0  0  2  0  0  0
  -31.1137  -17.9649   19.5019 N   0  0  0  0  0  0
  -29.7830  -16.1653   20.5784 N   0  0  0  0  0  0
  -31.4737  -12.7290   19.2078 H   0  0  0  0  0  0
  -30.4168  -11.6431   20.0567 H   0  0  0  0  0  0
  -29.8485  -11.7271   17.6004 H   0  0  0  0  0  0
  -29.6200  -13.4557   17.6976 H   0  0  0  0  0  0
  -27.9506  -11.2756   18.9855 H   0  0  0  0  0  0
  -27.3982  -12.4468   17.8177 H   0  0  0  0  0  0
  -27.5905  -14.2512   19.4041 H   0  0  0  0  0  0
  -28.7550  -12.3192   21.4675 H   0  0  0  0  0  0
  -28.3633  -13.9976   21.7530 H   0  0  0  0  0  0
  -25.2761   -9.5687   22.4762 H   0  0  0  0  0  0
  -23.9998   -7.4642   22.7477 H   0  0  0  0  0  0
  -21.0839   -8.8784   19.8951 H   0  0  0  0  0  0
  -22.3705  -10.9681   19.6167 H   0  0  0  0  0  0
  -21.2014   -7.6146   23.9709 H   0  0  0  0  0  0
  -21.1480   -6.0521   25.9072 H   0  0  0  0  0  0
  -22.0596   -2.7603   23.2845 H   0  0  0  0  0  0
  -22.4038  -11.9896   22.4848 H   0  0  0  0  0  0
  -21.1037  -13.1238   22.2599 H   0  0  0  0  0  0
  -24.6421  -15.8466   20.5139 H   0  0  0  0  0  0
  -26.2451  -15.6287   20.0311 H   0  0  0  0  0  0
  -26.7289  -32.5299   23.0986 H   0  0  0  0  0  0
  -25.0097  -33.9590   25.0316 H   0  0  0  0  0  0
  -22.7535  -31.2894   21.3770 H   0  0  0  0  0  0
  -23.3758  -35.9574   23.3284 H   0  0  0  0  0  0
  -24.3574  -36.8902   22.2057 H   0  0  0  0  0  0
  -23.7245  -37.6440   23.6688 H   0  0  0  0  0  0
  -26.1605  -31.4628   20.6123 H   0  0  0  0  0  0
  -26.8770  -30.7656   22.0296 H   0  0  0  0  0  0
  -28.1353  -28.7753   21.2387 H   0  0  0  0  0  0
  -25.9069  -25.8512   18.9753 H   0  0  0  0  0  0
  -23.9802  -27.3037   18.9729 H   0  0  0  0  0  0
  -23.8172  -30.5647   19.3971 H   0  0  0  0  0  0
  -22.7919  -29.2355   19.8421 H   0  0  0  0  0  0
  -25.1307  -36.1838   25.0803 H   0  0  0  0  0  0
  -21.0011  -28.3325   24.1348 H   0  0  0  0  0  0
  -20.5676  -26.2349   23.3621 H   0  0  0  0  0  0
  -21.6657  -26.7437   22.1201 H   0  0  0  0  0  0
  -19.6925  -25.6288   21.1255 H   0  0  0  0  0  0
  -19.6693  -27.3174   20.6719 H   0  0  0  0  0  0
  -17.4211  -26.6677   21.4031 H   0  0  0  0  0  0
  -18.0357  -26.0080   22.9023 H   0  0  0  0  0  0
  -19.7959  -30.7299   24.2226 H   0  0  0  0  0  0
  -17.5035  -31.6271   24.5166 H   0  0  0  0  0  0
  -15.5371  -30.2982   23.7675 H   0  0  0  0  0  0
  -15.8694  -28.0816   22.7087 H   0  0  0  0  0  0
  -24.5897  -30.7103   25.7734 H   0  0  0  0  0  0
  -24.8903  -32.2955   26.4751 H   0  0  0  0  0  0
  -25.7994  -30.8994   27.0227 H   0  0  0  0  0  0
  -26.3020  -29.6658   24.1295 H   0  0  0  0  0  0
  -27.3981  -29.7244   25.4890 H   0  0  0  0  0  0
  -27.8940  -30.4156   23.9639 H   0  0  0  0  0  0
  -27.2636  -33.3647   26.2006 H   0  0  0  0  0  0
  -28.3910  -32.6844   25.0362 H   0  0  0  0  0  0
  -28.0669  -31.8493   26.5488 H   0  0  0  0  0  0
  -28.2572  -38.0089   24.7514 H   0  0  0  0  0  0
  -28.1082  -36.2623   24.6282 H   0  0  0  0  0  0
  -27.2294  -37.1414   25.8867 H   0  0  0  0  0  0
  -20.9480  -29.8787   21.6788 H   0  0  0  0  0  0
  -26.0142  -38.2804   24.1429 H   0  0  0  0  0  0
  -30.8763  -21.3416   19.0638 H   0  0  0  0  0  0
  -28.2904  -18.6253   21.1888 H   0  0  0  0  0  0
  -34.8097  -21.3462   20.1120 H   0  0  0  0  0  0
  -34.7132  -19.5895   20.0878 H   0  0  0  0  0  0
  -33.3669  -20.5388   20.7147 H   0  0  0  0  0  0
  -31.5943  -18.4919   16.4832 H   0  0  0  0  0  0
  -33.0345  -19.4054   16.0573 H   0  0  0  0  0  0
  -31.5514  -20.2511   16.5040 H   0  0  0  0  0  0
  -26.9786  -23.5093   22.0620 H   0  0  0  0  0  0
  -26.5473  -25.2022   21.9861 H   0  0  0  0  0  0
  -28.1372  -24.7321   22.5770 H   0  0  0  0  0  0
  -28.2885  -21.5420   21.5738 H   0  0  0  0  0  0
  -27.5986  -21.4297   20.0008 H   0  0  0  0  0  0
  -34.3462  -20.5931   17.8121 H   0  0  0  0  0  0
  -32.9956  -21.5059   18.4057 H   0  0  0  0  0  0
  -29.2861  -23.2632   19.1677 H   0  0  0  0  0  0
  -29.8618  -23.4236   20.7852 H   0  0  0  0  0  0
  -33.2148  -18.4711   18.3322 H   0  0  0  0  0  0
  -27.1178  -24.3420   19.7404 H   0  0  0  0  0  0
  -28.8492  -15.9819   20.9071 H   0  0  0  0  0  0
  1 25  1  0  0  0
  1 30  2  0  0  0
  1 85  1  0  0  0
  2  3  1  0  0  0
  2 25  1  0  0  0
  2 86  1  0  0  0
  2 87  1  0  0  0
  3  4  1  0  0  0
  3 88  1  0  0  0
  3 89  1  0  0  0
  4  5  1  0  0  0
  4 90  1  0  0  0
  4 91  1  0  0  0
  5  6  1  0  0  0
  5 26  1  0  0  0
  5 92  1  0  0  0
  6 25  1  0  0  0
  6 93  1  0  0  0
  6 94  1  0  0  0
  7  8  2  0  0  0
  7 26  1  0  0  0
  7 29  1  0  0  0
  8  9  1  0  0  0
  8 22  1  0  0  0
  9 10  1  0  0  0
  9 27  2  0  0  0
 10 11  2  0  0  0
 10 15  1  0  0  0
 11 12  1  0  0  0
 11 95  1  0  0  0
 12 13  2  0  0  0
 12 96  1  0  0  0
 13 14  1  0  0  0
 13 31  1  0  0  0
 14 15  2  0  0  0
 14 97  1  0  0  0
 15 98  1  0  0  0
 16 17  2  0  0  0
 16 21  1  0  0  0
 16 31  1  0  0  0
 17 18  1  0  0  0
 17 99  1  0  0  0
 18 19  2  0  0  0
 18100  1  0  0  0
 19 20  1  0  0  0
 19 24  1  0  0  0
 20 21  2  0  0  0
 20101  1  0  0  0
 21 23  1  0  0  0
 22 28  1  0  0  0
 22 32  2  0  0  0
 26 27  1  0  0  0
 28102  1  0  0  0
 28103  1  0  0  0
 29104  1  0  0  0
 29105  1  0  0  0
 33 34  1  0  0  0
 33 66  1  0  0  0
 33 70  2  0  0  0
 34 36  1  0  0  0
 34 59  1  0  0  0
 34106  1  0  0  0
 35 44  2  0  0  0
 35 45  1  0  0  0
 35 68  1  0  0  0
 36 56  1  0  0  0
 36107  1  0  0  0
 37 39  1  0  0  0
 37 47  1  0  0  0
 37 66  1  0  0  0
 37108  1  0  0  0
 38 43  2  0  0  0
 38 46  1  0  0  0
 38 47  1  0  0  0
 39 64  1  0  0  0
 39 67  2  0  0  0
 40 52  1  0  0  0
 40 53  2  0  0  0
 40 58  1  0  0  0
 41109  1  0  0  0
 41110  1  0  0  0
 41111  1  0  0  0
 41 48  1  0  0  0
 42 43  1  0  0  0
 42 66  1  0  0  0
 42112  1  0  0  0
 42113  1  0  0  0
 43 44  1  0  0  0
 44114  1  0  0  0
 45 46  2  0  0  0
 45115  1  0  0  0
 46116  1  0  0  0
 47117  1  0  0  0
 47118  1  0  0  0
 48 56  1  0  0  0
 48 65  1  0  0  0
 48119  1  0  0  0
 49 50  1  0  0  0
 49 53  1  0  0  0
 49 64  1  0  0  0
 49120  1  0  0  0
 50 51  1  0  0  0
 50121  1  0  0  0
 50122  1  0  0  0
 51 52  1  0  0  0
 51123  1  0  0  0
 51124  1  0  0  0
 52125  1  0  0  0
 52126  1  0  0  0
 53 54  1  0  0  0
 54 55  2  0  0  0
 54127  1  0  0  0
 55 57  1  0  0  0
 55128  1  0  0  0
 56 69  2  0  0  0
 57 58  2  0  0  0
 57129  1  0  0  0
 58130  1  0  0  0
 59 60  1  0  0  0
 59 61  1  0  0  0
 59 62  1  0  0  0
 60131  1  0  0  0
 60132  1  0  0  0
 60133  1  0  0  0
 61134  1  0  0  0
 61135  1  0  0  0
 61136  1  0  0  0
 62137  1  0  0  0
 62138  1  0  0  0
 62139  1  0  0  0
 63 65  1  0  0  0
 63140  1  0  0  0
 63141  1  0  0  0
 63142  1  0  0  0
 64143  1  0  0  0
 65144  1  0  0  0
 68 83  1  0  0  0
 71 73  2  0  0  0
 71 74  1  0  0  0
 71145  1  0  0  0
 72 73  1  0  0  0
 72 75  2  0  0  0
 72146  1  0  0  0
 73 79  1  0  0  0
 74 82  1  0  0  0
 74 84  2  0  0  0
 75 84  1  0  0  0
 75 85  1  0  0  0
 76 80  1  0  0  0
 76147  1  0  0  0
 76148  1  0  0  0
 76149  1  0  0  0
 77150  1  0  0  0
 77151  1  0  0  0
 77152  1  0  0  0
 77 82  1  0  0  0
 78153  1  0  0  0
 78154  1  0  0  0
 78155  1  0  0  0
 78 83  1  0  0  0
 79 81  1  0  0  0
 79156  1  0  0  0
 79157  1  0  0  0
 80 82  1  0  0  0
 80158  1  0  0  0
 80159  1  0  0  0
 81 83  1  0  0  0
 81160  1  0  0  0
 81161  1  0  0  0
 82162  1  0  0  0
 83163  1  0  0  0
 85164  1  0  0  0
M  ISO  4   1 100  68 101  83 101  85 100
M  END
> <chiral flag>
0

> <version>
0

> <s_m_source_file>
/data/baiqing/PycharmProjects/Reinvent-master-3.2/result/LINK_invent/BTK/process_docking_weight1_custom_sum_contain_oxygen_bond_distance_aromatic_linkinvent_7_9_3/rearranged_h_0109.sdf

> <i_m_source_file_index>
68

> <r_mmod_Potential_Energy-OPLS-2005>
359.283264160156

> <r_mmod_Stretch_Energy-OPLS-2005>
284.730072021484

> <r_mmod_Bend_Energy-OPLS-2005>
260.615997314453

> <r_mmod_Torsional_Energy-OPLS-2005>
209.995056152344

> <r_mmod_Improper_Torsional_Energy-OPLS-2005>
3.70981645584106

> <r_mmod_Van_der_Waal_Energy-OPLS-2005>
131.162796020508

> <r_mmod_Electrostatic_Energy-OPLS-2005>
-513.549011230469

> <r_mmod_Solvation_Energy-OPLS-2005>
-223.856719970703

> <b_mmod_Minimization_Converged-OPLS-2005>
0

> <r_mmod_RMS_Derivative-OPLS-2005>
1.23154246807098

$$$$
68
                    3D
 Structure written by MMmdl.
177185  0  0  1  0            999 V2000
  -30.5974  -14.5261   20.6026 C   0  0  0  0  0  0
  -30.4377  -12.3592   19.4224 C   0  0  0  0  0  0
  -29.4813  -12.4937   18.2159 C   0  0  0  0  0  0
  -28.0076  -12.3397   18.6334 C   0  0  0  0  0  0
  -27.6473  -13.1939   19.8737 C   0  0  2  0  0  0
  -28.6802  -12.9484   20.9922 C   0  0  0  0  0  0
  -25.2473  -13.8153   20.5634 C   0  0  0  0  0  0
  -24.1721  -13.0450   20.9216 C   0  0  0  0  0  0
  -24.6260  -11.6931   20.8823 C   0  0  0  0  0  0
  -23.8970  -10.4320   21.0459 C   0  0  0  0  0  0
  -24.3561   -9.4222   21.9171 C   0  0  0  0  0  0
  -23.6279   -8.2233   22.0736 C   0  0  0  0  0  0
  -22.4244   -8.0265   21.3541 C   0  0  0  0  0  0
  -21.9875   -9.0234   20.4622 C   0  0  0  0  0  0
  -22.7193  -10.2126   20.3066 C   0  0  0  0  0  0
  -21.6831   -6.0741   22.5283 C   0  0  0  0  0  0
  -21.3999   -6.5631   23.8225 C   0  0  0  0  0  0
  -21.3667   -5.6784   24.9196 C   0  0  0  0  0  0
  -21.6032   -4.3039   24.7226 C   0  0  0  0  0  0
  -21.8827   -3.8134   23.4336 C   0  0  0  0  0  0
  -21.9184   -4.6973   22.3399 C   0  0  0  0  0  0
  -22.7763  -13.5232   21.1889 C   0  0  0  0  0  0
  -22.1656   -4.2142   21.0990 F   0  0  0  0  0  0
  -21.5644   -3.4534   25.7747 F   0  0  0  0  0  0
  -30.0021  -13.3111   20.4560 N   0  0  0  0  0  0
  -26.2899  -12.9274   20.3354 N   0  0  0  0  0  0
  -25.9183  -11.6479   20.5822 N   0  0  0  0  0  0
  -22.0418  -12.8218   22.0487 N   0  0  0  0  0  0
  -25.4249  -15.1870   20.3866 N   0  0  0  0  0  0
  -31.7392  -14.7703   20.1845 O   0  0  0  0  0  0
  -21.6619   -6.8847   21.4244 O   0  0  0  0  0  0
  -22.3460  -14.5545   20.6723 O   0  0  0  0  0  0
  -24.6346  -31.8608   23.2026 C   0  0  0  0  0  0
  -25.9170  -32.4717   23.8347 C   0  0  1  0  0  0
  -27.1779  -27.2849   20.1247 C   0  0  0  0  0  0
  -25.6012  -33.8520   24.2237 N   0  0  0  0  0  0
  -23.4235  -30.4817   21.5563 C   0  0  2  0  0  0
  -24.8489  -28.9542   20.1069 C   0  0  0  0  0  0
  -22.7612  -29.4487   22.5010 C   0  0  0  0  0  0
  -18.0341  -28.1267   22.8511 C   0  0  0  0  0  0
  -24.1497  -36.7251   23.2633 C   0  0  0  0  0  0
  -25.9720  -30.7748   21.3820 C   0  0  0  0  0  0
  -26.0249  -29.4140   20.7103 C   0  0  0  0  0  0
  -27.1974  -28.5930   20.7021 C   0  0  0  0  0  0
  -25.9933  -26.8999   19.4636 C   0  0  0  0  0  0
  -24.8285  -27.6903   19.4908 C   0  0  0  0  0  0
  -23.6262  -29.8421   20.1686 C   0  0  0  0  0  0
  -25.4108  -36.3029   24.0311 C   0  0  1  0  0  0
  -20.5984  -28.3477   23.1340 C   0  0  2  0  0  0
  -20.6659  -26.9116   22.5552 C   0  0  0  0  0  0
  -19.5845  -26.6122   21.5229 C   0  0  0  0  0  0
  -18.1934  -26.7888   22.1417 C   0  0  0  0  0  0
  -19.1624  -28.8733   23.2836 C   0  0  0  0  0  0
  -18.9548  -30.1440   23.8594 C   0  0  0  0  0  0
  -17.6600  -30.6648   24.0303 C   0  0  0  0  0  0
  -25.9066  -34.9399   23.5062 C   0  0  0  0  0  0
  -16.5492  -29.9028   23.6459 C   0  0  0  0  0  0
  -16.7388  -28.6359   23.0612 C   0  0  0  0  0  0
  -26.4453  -31.6527   25.0770 C   0  0  0  0  0  0
  -25.3659  -31.3704   26.1498 C   0  0  0  0  0  0
  -27.0402  -30.2958   24.6318 C   0  0  0  0  0  0
  -27.6003  -32.4341   25.7514 C   0  0  0  0  0  0
  -27.5571  -37.1794   24.8473 C   0  0  0  0  0  0
  -21.4301  -29.2779   22.3668 N   0  0  0  0  0  0
  -26.4305  -37.3716   23.9416 N   0  0  0  0  0  0
  -24.6977  -31.0612   22.1020 N   0  0  0  0  0  0
  -23.4271  -28.8041   23.3109 O   0  0  0  0  0  0
  -28.2446  -26.3748   20.2577 O   0  0  0  0  0  0
  -26.5640  -34.8893   22.4643 O   0  0  0  0  0  0
  -23.5526  -32.1452   23.7331 O   0  0  0  0  0  0
  -26.9430  -20.4489   20.9891 C   0  0  0  0  0  0
  -28.8694  -21.3601   21.6476 C   0  0  0  0  0  0
  -28.1943  -20.1686   21.5753 C   0  0  0  0  0  0
  -26.8015  -21.8121   20.8956 C   0  0  0  0  0  0
  -24.8463  -22.9263   21.9944 C   0  0  0  0  0  0
  -24.4482  -21.6550   19.9100 C   0  0  0  0  0  0
  -25.9970  -18.2141   24.9582 C   0  0  0  0  0  0
  -27.0350  -20.4658   24.6573 C   0  0  0  0  0  0
  -28.1821  -24.4212   18.7415 C   0  0  0  0  0  0
  -28.4614  -23.8794   21.2744 C   0  0  0  0  0  0
  -30.0020  -16.9412   21.2026 C   0  0  0  0  0  0
  -28.7114  -17.8204   21.0589 C   0  0  0  0  0  0
  -28.0895  -18.4642   23.4156 C   0  0  0  0  0  0
  -25.4803  -22.5043   20.6598 C   0  0  0  0  0  0
  -26.7716  -19.1128   23.9610 C   0  0  0  0  0  0
  -27.9312  -24.9111   20.1809 C   0  0  1  0  0  0
  -28.0454  -22.4173   21.2004 N   0  0  0  0  0  0
  -29.7697  -15.4832   21.0905 N   0  0  0  0  0  0
  -28.5767  -18.8910   22.0664 N   0  0  0  0  0  0
  -31.4561  -12.5515   19.0938 H   0  0  0  0  0  0
  -30.4376  -11.3450   19.8213 H   0  0  0  0  0  0
  -29.7327  -11.7546   17.4547 H   0  0  0  0  0  0
  -29.6166  -13.4692   17.7509 H   0  0  0  0  0  0
  -27.8357  -11.2861   18.8627 H   0  0  0  0  0  0
  -27.3472  -12.5814   17.8017 H   0  0  0  0  0  0
  -27.6981  -14.2397   19.5734 H   0  0  0  0  0  0
  -28.6725  -11.8950   21.2742 H   0  0  0  0  0  0
  -28.4214  -13.4968   21.9011 H   0  0  0  0  0  0
  -25.2697   -9.5692   22.4772 H   0  0  0  0  0  0
  -23.9989   -7.4599   22.7419 H   0  0  0  0  0  0
  -21.0822   -8.8712   19.8915 H   0  0  0  0  0  0
  -22.3601  -10.9670   19.6175 H   0  0  0  0  0  0
  -21.1979   -7.6130   23.9723 H   0  0  0  0  0  0
  -21.1493   -6.0509   25.9078 H   0  0  0  0  0  0
  -22.0592   -2.7607   23.2851 H   0  0  0  0  0  0
  -22.4012  -11.9862   22.4844 H   0  0  0  0  0  0
  -21.1030  -13.1280   22.2714 H   0  0  0  0  0  0
  -24.6533  -15.8448   20.4362 H   0  0  0  0  0  0
  -26.2424  -15.5782   19.9375 H   0  0  0  0  0  0
  -26.7289  -32.5277   23.1116 H   0  0  0  0  0  0
  -25.0196  -33.9579   25.0440 H   0  0  0  0  0  0
  -22.7168  -31.3056   21.4428 H   0  0  0  0  0  0
  -23.3773  -35.9586   23.3308 H   0  0  0  0  0  0
  -24.3581  -36.8870   22.2051 H   0  0  0  0  0  0
  -23.7274  -37.6455   23.6663 H   0  0  0  0  0  0
  -26.1494  -31.5418   20.6244 H   0  0  0  0  0  0
  -26.8440  -30.7813   22.0339 H   0  0  0  0  0  0
  -28.0934  -28.9498   21.1865 H   0  0  0  0  0  0
  -25.8982  -25.9554   18.9553 H   0  0  0  0  0  0
  -23.9367  -27.3169   19.0134 H   0  0  0  0  0  0
  -23.7414  -30.6293   19.4213 H   0  0  0  0  0  0
  -22.7402  -29.2704   19.8711 H   0  0  0  0  0  0
  -25.1314  -36.1825   25.0815 H   0  0  0  0  0  0
  -20.9911  -28.2973   24.1517 H   0  0  0  0  0  0
  -20.5302  -26.2052   23.3726 H   0  0  0  0  0  0
  -21.6554  -26.6672   22.1578 H   0  0  0  0  0  0
  -19.6926  -27.2857   20.6763 H   0  0  0  0  0  0
  -19.6862  -25.5983   21.1196 H   0  0  0  0  0  0
  -17.4420  -26.6837   21.3533 H   0  0  0  0  0  0
  -17.9843  -25.9959   22.8484 H   0  0  0  0  0  0
  -19.8108  -30.7299   24.1577 H   0  0  0  0  0  0
  -17.5317  -31.6468   24.4625 H   0  0  0  0  0  0
  -15.5495  -30.3015   23.7869 H   0  0  0  0  0  0
  -15.8738  -28.0571   22.7657 H   0  0  0  0  0  0
  -24.5767  -30.7103   25.7834 H   0  0  0  0  0  0
  -24.8905  -32.2893   26.4943 H   0  0  0  0  0  0
  -25.7927  -30.8847   27.0282 H   0  0  0  0  0  0
  -26.3069  -29.6668   24.1241 H   0  0  0  0  0  0
  -27.4017  -29.7199   25.4849 H   0  0  0  0  0  0
  -27.8927  -30.4285   23.9660 H   0  0  0  0  0  0
  -27.2528  -33.3634   26.2038 H   0  0  0  0  0  0
  -28.3734  -32.6922   25.0278 H   0  0  0  0  0  0
  -28.0733  -31.8547   26.5433 H   0  0  0  0  0  0
  -28.2613  -38.0076   24.7523 H   0  0  0  0  0  0
  -28.1070  -36.2612   24.6313 H   0  0  0  0  0  0
  -27.2313  -37.1449   25.8891 H   0  0  0  0  0  0
  -20.9426  -29.8527   21.6962 H   0  0  0  0  0  0
  -26.0163  -38.2826   24.1355 H   0  0  0  0  0  0
  -26.1621  -19.7357   20.7862 H   0  0  0  0  0  0
  -29.8552  -21.5808   22.0529 H   0  0  0  0  0  0
  -25.4656  -23.6681   22.4972 H   0  0  0  0  0  0
  -24.7241  -22.0775   22.6712 H   0  0  0  0  0  0
  -23.8572  -23.3546   21.8454 H   0  0  0  0  0  0
  -24.8124  -21.3053   18.9448 H   0  0  0  0  0  0
  -23.5492  -22.2299   19.7181 H   0  0  0  0  0  0
  -24.1283  -20.7986   20.4966 H   0  0  0  0  0  0
  -25.0974  -18.7152   25.3105 H   0  0  0  0  0  0
  -26.5858  -17.9834   25.8503 H   0  0  0  0  0  0
  -25.6707  -17.2644   24.5187 H   0  0  0  0  0  0
  -26.1438  -21.0942   24.6392 H   0  0  0  0  0  0
  -27.8475  -21.0199   24.1943 H   0  0  0  0  0  0
  -27.3476  -20.3356   25.6875 H   0  0  0  0  0  0
  -28.6932  -23.4560   18.7299 H   0  0  0  0  0  0
  -28.8059  -25.1268   18.1922 H   0  0  0  0  0  0
  -27.2394  -24.2731   18.2038 H   0  0  0  0  0  0
  -28.2474  -24.2236   22.2818 H   0  0  0  0  0  0
  -29.5492  -23.9059   21.2379 H   0  0  0  0  0  0
  -30.4586  -17.1331   22.1720 H   0  0  0  0  0  0
  -30.7275  -17.2571   20.4543 H   0  0  0  0  0  0
  -27.8243  -17.1928   21.1272 H   0  0  0  0  0  0
  -28.6642  -18.2532   20.0556 H   0  0  0  0  0  0
  -27.9048  -17.3859   23.3792 H   0  0  0  0  0  0
  -28.9040  -18.6008   24.1285 H   0  0  0  0  0  0
  -25.5896  -23.3589   20.0194 H   0  0  0  0  0  0
  -26.0890  -19.2561   23.1221 H   0  0  0  0  0  0
  -26.8858  -24.8358   20.4074 H   0  0  0  0  0  0
  -28.8577  -15.1607   21.3876 H   0  0  0  0  0  0
  1 25  1  0  0  0
  1 30  2  0  0  0
  1 88  1  0  0  0
  2  3  1  0  0  0
  2 25  1  0  0  0
  2 90  1  0  0  0
  2 91  1  0  0  0
  3  4  1  0  0  0
  3 92  1  0  0  0
  3 93  1  0  0  0
  4  5  1  0  0  0
  4 94  1  0  0  0
  4 95  1  0  0  0
  5  6  1  0  0  0
  5 26  1  0  0  0
  5 96  1  0  0  0
  6 25  1  0  0  0
  6 97  1  0  0  0
  6 98  1  0  0  0
  7  8  2  0  0  0
  7 26  1  0  0  0
  7 29  1  0  0  0
  8  9  1  0  0  0
  8 22  1  0  0  0
  9 10  1  0  0  0
  9 27  2  0  0  0
 10 11  2  0  0  0
 10 15  1  0  0  0
 11 12  1  0  0  0
 11 99  1  0  0  0
 12 13  2  0  0  0
 12100  1  0  0  0
 13 14  1  0  0  0
 13 31  1  0  0  0
 14 15  2  0  0  0
 14101  1  0  0  0
 15102  1  0  0  0
 16 17  2  0  0  0
 16 21  1  0  0  0
 16 31  1  0  0  0
 17 18  1  0  0  0
 17103  1  0  0  0
 18 19  2  0  0  0
 18104  1  0  0  0
 19 20  1  0  0  0
 19 24  1  0  0  0
 20 21  2  0  0  0
 20105  1  0  0  0
 21 23  1  0  0  0
 22 28  1  0  0  0
 22 32  2  0  0  0
 26 27  1  0  0  0
 28106  1  0  0  0
 28107  1  0  0  0
 29108  1  0  0  0
 29109  1  0  0  0
 33 34  1  0  0  0
 33 66  1  0  0  0
 33 70  2  0  0  0
 34 36  1  0  0  0
 34 59  1  0  0  0
 34110  1  0  0  0
 35 44  2  0  0  0
 35 45  1  0  0  0
 35 68  1  0  0  0
 36 56  1  0  0  0
 36111  1  0  0  0
 37 39  1  0  0  0
 37 47  1  0  0  0
 37 66  1  0  0  0
 37112  1  0  0  0
 38 43  2  0  0  0
 38 46  1  0  0  0
 38 47  1  0  0  0
 39 64  1  0  0  0
 39 67  2  0  0  0
 40 52  1  0  0  0
 40 53  2  0  0  0
 40 58  1  0  0  0
 41113  1  0  0  0
 41114  1  0  0  0
 41115  1  0  0  0
 41 48  1  0  0  0
 42 43  1  0  0  0
 42 66  1  0  0  0
 42116  1  0  0  0
 42117  1  0  0  0
 43 44  1  0  0  0
 44118  1  0  0  0
 45 46  2  0  0  0
 45119  1  0  0  0
 46120  1  0  0  0
 47121  1  0  0  0
 47122  1  0  0  0
 48 56  1  0  0  0
 48 65  1  0  0  0
 48123  1  0  0  0
 49 50  1  0  0  0
 49 53  1  0  0  0
 49 64  1  0  0  0
 49124  1  0  0  0
 50 51  1  0  0  0
 50125  1  0  0  0
 50126  1  0  0  0
 51 52  1  0  0  0
 51127  1  0  0  0
 51128  1  0  0  0
 52129  1  0  0  0
 52130  1  0  0  0
 53 54  1  0  0  0
 54 55  2  0  0  0
 54131  1  0  0  0
 55 57  1  0  0  0
 55132  1  0  0  0
 56 69  2  0  0  0
 57 58  2  0  0  0
 57133  1  0  0  0
 58134  1  0  0  0
 59 60  1  0  0  0
 59 61  1  0  0  0
 59 62  1  0  0  0
 60135  1  0  0  0
 60136  1  0  0  0
 60137  1  0  0  0
 61138  1  0  0  0
 61139  1  0  0  0
 61140  1  0  0  0
 62141  1  0  0  0
 62142  1  0  0  0
 62143  1  0  0  0
 63 65  1  0  0  0
 63144  1  0  0  0
 63145  1  0  0  0
 63146  1  0  0  0
 64147  1  0  0  0
 65148  1  0  0  0
 68 86  1  0  0  0
 71 73  1  0  0  0
 71 74  2  0  0  0
 71149  1  0  0  0
 72 73  2  0  0  0
 72 87  1  0  0  0
 72150  1  0  0  0
 73 89  1  0  0  0
 74 84  1  0  0  0
 74 87  1  0  0  0
 75151  1  0  0  0
 75152  1  0  0  0
 75153  1  0  0  0
 75 84  1  0  0  0
 76 84  1  0  0  0
 76154  1  0  0  0
 76155  1  0  0  0
 76156  1  0  0  0
 77157  1  0  0  0
 77158  1  0  0  0
 77159  1  0  0  0
 77 85  1  0  0  0
 78 85  1  0  0  0
 78160  1  0  0  0
 78161  1  0  0  0
 78162  1  0  0  0
 79163  1  0  0  0
 79164  1  0  0  0
 79165  1  0  0  0
 79 86  1  0  0  0
 80 86  1  0  0  0
 80 87  1  0  0  0
 80166  1  0  0  0
 80167  1  0  0  0
 81 82  1  0  0  0
 81 88  1  0  0  0
 81168  1  0  0  0
 81169  1  0  0  0
 82 89  1  0  0  0
 82170  1  0  0  0
 82171  1  0  0  0
 83 85  1  0  0  0
 83 89  1  0  0  0
 83172  1  0  0  0
 83173  1  0  0  0
 84174  1  0  0  0
 85175  1  0  0  0
 86176  1  0  0  0
 88177  1  0  0  0
M  ISO  4   1 100  68 101  86 101  88 100
M  END
> <chiral flag>
0

> <version>
0

> <s_m_source_file>
/data/baiqing/PycharmProjects/Reinvent-master-3.2/result/LINK_invent/BTK/process_docking_weight1_custom_sum_contain_oxygen_bond_distance_aromatic_linkinvent_7_9_3/rearranged_h_0109.sdf

> <i_m_source_file_index>
69

> <r_mmod_Potential_Energy-OPLS-2005>
61.2778434753418

> <r_mmod_Stretch_Energy-OPLS-2005>
80.471305847168

> <r_mmod_Bend_Energy-OPLS-2005>
166.472015380859

> <r_mmod_Torsional_Energy-OPLS-2005>
301.320037841797

> <r_mmod_Improper_Torsional_Energy-OPLS-2005>
9.50010585784912

> <r_mmod_Van_der_Waal_Energy-OPLS-2005>
130.671356201172

> <r_mmod_Electrostatic_Energy-OPLS-2005>
-473.195190429688

> <r_mmod_Solvation_Energy-OPLS-2005>
-208.458450317383

> <b_mmod_Minimization_Converged-OPLS-2005>
0

> <r_mmod_RMS_Derivative-OPLS-2005>
14.9151372909546

$$$$
69
                    3D
 Structure written by MMmdl.
147155  0  0  1  0            999 V2000
  -30.3280  -15.5636   20.3371 C   0  0  0  0  0  0
  -30.4311  -13.0276   19.5356 C   0  0  0  0  0  0
  -29.5497  -12.6384   18.3156 C   0  0  0  0  0  0
  -28.1127  -12.3074   18.7498 C   0  0  0  0  0  0
  -27.5992  -13.3043   19.8140 C   0  0  2  0  0  0
  -28.6223  -13.6011   20.9349 C   0  0  0  0  0  0
  -25.2340  -13.8291   20.5793 C   0  0  0  0  0  0
  -24.1724  -13.0440   20.9290 C   0  0  0  0  0  0
  -24.6417  -11.6952   20.8761 C   0  0  0  0  0  0
  -23.9119  -10.4295   21.0392 C   0  0  0  0  0  0
  -24.3657   -9.4206   21.9175 C   0  0  0  0  0  0
  -23.6317   -8.2243   22.0741 C   0  0  0  0  0  0
  -22.4299   -8.0285   21.3535 C   0  0  0  0  0  0
  -21.9946   -9.0262   20.4631 C   0  0  0  0  0  0
  -22.7286  -10.2136   20.3044 C   0  0  0  0  0  0
  -21.6861   -6.0740   22.5275 C   0  0  0  0  0  0
  -21.4020   -6.5638   23.8212 C   0  0  0  0  0  0
  -21.3667   -5.6787   24.9170 C   0  0  0  0  0  0
  -21.6048   -4.3051   24.7217 C   0  0  0  0  0  0
  -21.8820   -3.8145   23.4336 C   0  0  0  0  0  0
  -21.9196   -4.6966   22.3395 C   0  0  0  0  0  0
  -22.7732  -13.5170   21.1924 C   0  0  0  0  0  0
  -22.1664   -4.2152   21.0971 F   0  0  0  0  0  0
  -21.5631   -3.4533   25.7729 F   0  0  0  0  0  0
  -29.8057  -14.2047   20.2837 N   0  0  0  0  0  0
  -26.2787  -12.9614   20.3233 N   0  0  0  0  0  0
  -25.9365  -11.6689   20.5705 N   0  0  0  0  0  0
  -22.0398  -12.8143   22.0469 N   0  0  0  0  0  0
  -25.3951  -15.2029   20.4230 N   0  0  0  0  0  0
  -31.5613  -15.5198   20.1714 O   0  0  0  0  0  0
  -21.6648   -6.8888   21.4241 O   0  0  0  0  0  0
  -22.3403  -14.5462   20.6750 O   0  0  0  0  0  0
  -24.6816  -31.8026   23.1530 C   0  0  0  0  0  0
  -25.9411  -32.4474   23.8071 C   0  0  1  0  0  0
  -27.2280  -26.7363   20.2096 C   0  0  0  0  0  0
  -25.5999  -33.8294   24.1967 N   0  0  0  0  0  0
  -23.5060  -30.4053   21.5071 C   0  0  2  0  0  0
  -24.9616  -28.7501   20.1181 C   0  0  0  0  0  0
  -22.7764  -29.4335   22.4729 C   0  0  0  0  0  0
  -18.0346  -28.1426   22.8464 C   0  0  0  0  0  0
  -24.1497  -36.7159   23.2653 C   0  0  0  0  0  0
  -26.0840  -30.5480   21.4095 C   0  0  0  0  0  0
  -26.1507  -29.1156   20.7599 C   0  0  0  0  0  0
  -27.2703  -28.1361   20.7720 C   0  0  0  0  0  0
  -26.0045  -26.5696   19.5140 C   0  0  0  0  0  0
  -24.9251  -27.5018   19.4724 C   0  0  0  0  0  0
  -23.7568  -29.7018   20.1421 C   0  0  0  0  0  0
  -25.4143  -36.2899   24.0289 C   0  0  1  0  0  0
  -20.5977  -28.3786   23.1155 C   0  0  2  0  0  0
  -20.6806  -26.9449   22.5407 C   0  0  0  0  0  0
  -19.5776  -26.6381   21.5225 C   0  0  0  0  0  0
  -18.1965  -26.7958   22.1630 C   0  0  0  0  0  0
  -19.1610  -28.8935   23.2790 C   0  0  0  0  0  0
  -18.9510  -30.1519   23.8832 C   0  0  0  0  0  0
  -17.6495  -30.6602   24.0558 C   0  0  0  0  0  0
  -25.9121  -34.9286   23.4962 C   0  0  0  0  0  0
  -16.5390  -29.9082   23.6347 C   0  0  0  0  0  0
  -16.7328  -28.6506   23.0362 C   0  0  0  0  0  0
  -26.4591  -31.6487   25.0679 C   0  0  0  0  0  0
  -25.3669  -31.3783   26.1306 C   0  0  0  0  0  0
  -27.0510  -30.2828   24.6537 C   0  0  0  0  0  0
  -27.6049  -32.4341   25.7494 C   0  0  0  0  0  0
  -27.5570  -37.1739   24.8467 C   0  0  0  0  0  0
  -21.4414  -29.3032   22.3478 N   0  0  0  0  0  0
  -26.4271  -37.3661   23.9413 N   0  0  0  0  0  0
  -24.7809  -30.9508   22.0761 N   0  0  0  0  0  0
  -23.4222  -28.7942   23.3064 O   0  0  0  0  0  0
  -28.2103  -25.5458   20.2740 O   0  0  0  0  0  0
  -26.5756  -34.8862   22.4576 O   0  0  0  0  0  0
  -23.5845  -32.1083   23.6501 O   0  0  0  0  0  0
  -28.9819  -19.4122   21.4230 C   0  0  0  0  0  0
  -28.8547  -20.3117   20.2135 C   0  0  2  0  0  0
  -29.7637  -18.6343   20.3650 C   0  0  2  0  0  0
  -29.9617  -22.4482   21.5483 C   0  0  0  0  0  0
  -28.0243  -23.8093   20.2039 C   0  0  0  0  0  0
  -29.0745  -22.2004   20.3226 C   0  0  2  0  0  0
  -29.5504  -16.9019   20.4010 N   0  0  0  0  0  0
  -31.4284  -13.2821   19.1751 H   0  0  0  0  0  0
  -30.5788  -12.1733   20.1983 H   0  0  0  0  0  0
  -29.9861  -11.7934   17.7817 H   0  0  0  0  0  0
  -29.5322  -13.4700   17.6098 H   0  0  0  0  0  0
  -28.1126  -11.2991   19.1645 H   0  0  0  0  0  0
  -27.4463  -12.2875   17.8862 H   0  0  0  0  0  0
  -27.4724  -14.2374   19.2640 H   0  0  0  0  0  0
  -28.8677  -12.7049   21.5067 H   0  0  0  0  0  0
  -28.2077  -14.3184   21.6444 H   0  0  0  0  0  0
  -25.2798   -9.5683   22.4757 H   0  0  0  0  0  0
  -24.0026   -7.4633   22.7461 H   0  0  0  0  0  0
  -21.0879   -8.8785   19.8933 H   0  0  0  0  0  0
  -22.3743  -10.9678   19.6153 H   0  0  0  0  0  0
  -21.2015   -7.6147   23.9722 H   0  0  0  0  0  0
  -21.1490   -6.0508   25.9076 H   0  0  0  0  0  0
  -22.0595   -2.7608   23.2830 H   0  0  0  0  0  0
  -22.4046  -11.9837   22.4893 H   0  0  0  0  0  0
  -21.0995  -13.1126   22.2649 H   0  0  0  0  0  0
  -24.6251  -15.8536   20.5347 H   0  0  0  0  0  0
  -26.2326  -15.6407   20.0639 H   0  0  0  0  0  0
  -26.7502  -32.4959   23.0794 H   0  0  0  0  0  0
  -25.0059  -33.9326   25.0062 H   0  0  0  0  0  0
  -22.8298  -31.2417   21.3180 H   0  0  0  0  0  0
  -23.3775  -35.9472   23.3254 H   0  0  0  0  0  0
  -24.3573  -36.8876   22.2079 H   0  0  0  0  0  0
  -23.7236  -37.6318   23.6759 H   0  0  0  0  0  0
  -26.2801  -31.2760   20.6211 H   0  0  0  0  0  0
  -26.9375  -30.6160   22.0717 H   0  0  0  0  0  0
  -28.1674  -28.4233   21.3017 H   0  0  0  0  0  0
  -25.8454  -25.6240   19.0150 H   0  0  0  0  0  0
  -24.0250  -27.2140   18.9466 H   0  0  0  0  0  0
  -23.9292  -30.4603   19.3779 H   0  0  0  0  0  0
  -22.8620  -29.1657   19.8209 H   0  0  0  0  0  0
  -25.1349  -36.1663   25.0779 H   0  0  0  0  0  0
  -21.0058  -28.3405   24.1281 H   0  0  0  0  0  0
  -20.5677  -26.2412   23.3671 H   0  0  0  0  0  0
  -21.6668  -26.7402   22.1218 H   0  0  0  0  0  0
  -19.6925  -25.6274   21.1299 H   0  0  0  0  0  0
  -19.6703  -27.3158   20.6727 H   0  0  0  0  0  0
  -17.4234  -26.6721   21.4031 H   0  0  0  0  0  0
  -18.0339  -26.0120   22.9040 H   0  0  0  0  0  0
  -19.7980  -30.7364   24.2163 H   0  0  0  0  0  0
  -17.5036  -31.6270   24.5178 H   0  0  0  0  0  0
  -15.5381  -30.2950   23.7703 H   0  0  0  0  0  0
  -15.8738  -28.0797   22.7098 H   0  0  0  0  0  0
  -24.5879  -30.7106   25.7608 H   0  0  0  0  0  0
  -24.8830  -32.2992   26.4568 H   0  0  0  0  0  0
  -25.7864  -30.9056   27.0197 H   0  0  0  0  0  0
  -26.3213  -29.6463   24.1524 H   0  0  0  0  0  0
  -27.3948  -29.7247   25.5255 H   0  0  0  0  0  0
  -27.9190  -30.3958   24.0040 H   0  0  0  0  0  0
  -27.2597  -33.3709   26.1877 H   0  0  0  0  0  0
  -28.3956  -32.6797   25.0393 H   0  0  0  0  0  0
  -28.0613  -31.8604   26.5570 H   0  0  0  0  0  0
  -28.2548  -38.0072   24.7531 H   0  0  0  0  0  0
  -28.1109  -36.2598   24.6272 H   0  0  0  0  0  0
  -27.2296  -37.1349   25.8871 H   0  0  0  0  0  0
  -20.9723  -29.8676   21.6537 H   0  0  0  0  0  0
  -26.0101  -38.2712   24.1417 H   0  0  0  0  0  0
  -28.0470  -18.9731   21.7652 H   0  0  0  0  0  0
  -29.5840  -19.7763   22.2527 H   0  0  0  0  0  0
  -27.9894  -20.1496   19.5738 H   0  0  0  0  0  0
  -30.8289  -18.8471   20.2856 H   0  0  0  0  0  0
  -30.8214  -21.7777   21.5630 H   0  0  0  0  0  0
  -29.4002  -22.3036   22.4708 H   0  0  0  0  0  0
  -30.3472  -23.4680   21.5545 H   0  0  0  0  0  0
  -27.2567  -23.6504   20.9613 H   0  0  0  0  0  0
  -27.4811  -23.6834   19.2669 H   0  0  0  0  0  0
  -29.7361  -22.3626   19.4703 H   0  0  0  0  0  0
  -28.5690  -16.6802   20.4915 H   0  0  0  0  0  0
  1 25  1  0  0  0
  1 30  2  0  0  0
  1 77  1  0  0  0
  2  3  1  0  0  0
  2 25  1  0  0  0
  2 78  1  0  0  0
  2 79  1  0  0  0
  3  4  1  0  0  0
  3 80  1  0  0  0
  3 81  1  0  0  0
  4  5  1  0  0  0
  4 82  1  0  0  0
  4 83  1  0  0  0
  5  6  1  0  0  0
  5 26  1  0  0  0
  5 84  1  0  0  0
  6 25  1  0  0  0
  6 85  1  0  0  0
  6 86  1  0  0  0
  7  8  2  0  0  0
  7 26  1  0  0  0
  7 29  1  0  0  0
  8  9  1  0  0  0
  8 22  1  0  0  0
  9 10  1  0  0  0
  9 27  2  0  0  0
 10 11  2  0  0  0
 10 15  1  0  0  0
 11 12  1  0  0  0
 11 87  1  0  0  0
 12 13  2  0  0  0
 12 88  1  0  0  0
 13 14  1  0  0  0
 13 31  1  0  0  0
 14 15  2  0  0  0
 14 89  1  0  0  0
 15 90  1  0  0  0
 16 17  2  0  0  0
 16 21  1  0  0  0
 16 31  1  0  0  0
 17 18  1  0  0  0
 17 91  1  0  0  0
 18 19  2  0  0  0
 18 92  1  0  0  0
 19 20  1  0  0  0
 19 24  1  0  0  0
 20 21  2  0  0  0
 20 93  1  0  0  0
 21 23  1  0  0  0
 22 28  1  0  0  0
 22 32  2  0  0  0
 26 27  1  0  0  0
 28 94  1  0  0  0
 28 95  1  0  0  0
 29 96  1  0  0  0
 29 97  1  0  0  0
 33 34  1  0  0  0
 33 66  1  0  0  0
 33 70  2  0  0  0
 34 36  1  0  0  0
 34 59  1  0  0  0
 34 98  1  0  0  0
 35 44  2  0  0  0
 35 45  1  0  0  0
 35 68  1  0  0  0
 36 56  1  0  0  0
 36 99  1  0  0  0
 37 39  1  0  0  0
 37 47  1  0  0  0
 37 66  1  0  0  0
 37100  1  0  0  0
 38 43  2  0  0  0
 38 46  1  0  0  0
 38 47  1  0  0  0
 39 64  1  0  0  0
 39 67  2  0  0  0
 40 52  1  0  0  0
 40 53  2  0  0  0
 40 58  1  0  0  0
 41101  1  0  0  0
 41102  1  0  0  0
 41103  1  0  0  0
 41 48  1  0  0  0
 42 43  1  0  0  0
 42 66  1  0  0  0
 42104  1  0  0  0
 42105  1  0  0  0
 43 44  1  0  0  0
 44106  1  0  0  0
 45 46  2  0  0  0
 45107  1  0  0  0
 46108  1  0  0  0
 47109  1  0  0  0
 47110  1  0  0  0
 48 56  1  0  0  0
 48 65  1  0  0  0
 48111  1  0  0  0
 49 50  1  0  0  0
 49 53  1  0  0  0
 49 64  1  0  0  0
 49112  1  0  0  0
 50 51  1  0  0  0
 50113  1  0  0  0
 50114  1  0  0  0
 51 52  1  0  0  0
 51115  1  0  0  0
 51116  1  0  0  0
 52117  1  0  0  0
 52118  1  0  0  0
 53 54  1  0  0  0
 54 55  2  0  0  0
 54119  1  0  0  0
 55 57  1  0  0  0
 55120  1  0  0  0
 56 69  2  0  0  0
 57 58  2  0  0  0
 57121  1  0  0  0
 58122  1  0  0  0
 59 60  1  0  0  0
 59 61  1  0  0  0
 59 62  1  0  0  0
 60123  1  0  0  0
 60124  1  0  0  0
 60125  1  0  0  0
 61126  1  0  0  0
 61127  1  0  0  0
 61128  1  0  0  0
 62129  1  0  0  0
 62130  1  0  0  0
 62131  1  0  0  0
 63 65  1  0  0  0
 63132  1  0  0  0
 63133  1  0  0  0
 63134  1  0  0  0
 64135  1  0  0  0
 65136  1  0  0  0
 68 75  1  0  0  0
 71 73  1  0  0  0
 71137  1  0  0  0
 71138  1  0  0  0
 71 72  1  0  0  0
 72 73  1  0  0  0
 72 76  1  0  0  0
 72139  1  0  0  0
 73 77  1  0  0  0
 73140  1  0  0  0
 74141  1  0  0  0
 74142  1  0  0  0
 74143  1  0  0  0
 74 76  1  0  0  0
 75 76  1  0  0  0
 75144  1  0  0  0
 75145  1  0  0  0
 76146  1  0  0  0
 77147  1  0  0  0
M  ISO  4   1 100  68 101  75 101  77 100
M  END
> <chiral flag>
0

> <version>
0

> <s_m_source_file>
/data/baiqing/PycharmProjects/Reinvent-master-3.2/result/LINK_invent/BTK/process_docking_weight1_custom_sum_contain_oxygen_bond_distance_aromatic_linkinvent_7_9_3/rearranged_h_0109.sdf

> <i_m_source_file_index>
70

> <r_mmod_Potential_Energy-OPLS-2005>
2330.20971679688

> <r_mmod_Stretch_Energy-OPLS-2005>
1112.13061523438

> <r_mmod_Bend_Energy-OPLS-2005>
581.097534179688

> <r_mmod_Torsional_Energy-OPLS-2005>
273.314666748047

> <r_mmod_Improper_Torsional_Energy-OPLS-2005>
3.32979106903076

> <r_mmod_Van_der_Waal_Energy-OPLS-2005>
108.057510375977

> <r_mmod_Electrostatic_Energy-OPLS-2005>
-345.133422851562

> <r_mmod_Solvation_Energy-OPLS-2005>
-211.018630981445

> <b_mmod_Minimization_Converged-OPLS-2005>
0

> <r_mmod_RMS_Derivative-OPLS-2005>
1.13946783542633

$$$$
70
                    3D
 Structure written by MMmdl.
167174  0  0  1  0            999 V2000
  -31.4412  -14.5453   21.0474 C   0  0  0  0  0  0
  -30.6049  -14.2739   18.8409 C   0  0  0  0  0  0
  -29.1334  -14.5964   17.7120 C   0  0  0  0  0  0
  -27.3592  -14.4378   18.4504 C   0  0  0  0  0  0
  -27.2501  -14.0613   20.3439 C   0  0  2  0  0  0
  -28.8241  -13.7821   21.3344 C   0  0  0  0  0  0
  -24.9281  -13.9164   20.5711 C   0  0  0  0  0  0
  -24.0040  -13.0258   20.9348 C   0  0  0  0  0  0
  -24.6209  -11.7356   20.9001 C   0  0  0  0  0  0
  -23.9466  -10.4300   21.0343 C   0  0  0  0  0  0
  -24.3927   -9.4242   21.9195 C   0  0  0  0  0  0
  -23.6522   -8.2295   22.0783 C   0  0  0  0  0  0
  -22.4487   -8.0327   21.3564 C   0  0  0  0  0  0
  -22.0214   -9.0269   20.4598 C   0  0  0  0  0  0
  -22.7636  -10.2079   20.2970 C   0  0  0  0  0  0
  -21.6918   -6.0806   22.5296 C   0  0  0  0  0  0
  -21.4054   -6.5688   23.8239 C   0  0  0  0  0  0
  -21.3672   -5.6818   24.9182 C   0  0  0  0  0  0
  -21.6039   -4.3082   24.7212 C   0  0  0  0  0  0
  -21.8809   -3.8191   23.4331 C   0  0  0  0  0  0
  -21.9219   -4.7028   22.3401 C   0  0  0  0  0  0
  -22.6012  -13.4339   21.1965 C   0  0  0  0  0  0
  -22.1679   -4.2214   21.0975 F   0  0  0  0  0  0
  -21.5618   -3.4555   25.7718 F   0  0  0  0  0  0
  -30.3273  -14.0995   20.5246 N   0  0  0  0  0  0
  -26.0951  -13.2358   20.5513 N   0  0  0  0  0  0
  -25.9472  -11.8734   20.6882 N   0  0  0  0  0  0
  -21.9215  -12.7297   22.0848 N   0  0  0  0  0  0
  -24.8567  -15.2883   20.3040 N   0  0  0  0  0  0
  -32.5048  -14.2042   20.5772 O   0  0  0  0  0  0
  -21.6766   -6.8970   21.4274 O   0  0  0  0  0  0
  -22.1452  -14.4584   20.6855 O   0  0  0  0  0  0
  -24.7396  -31.7294   23.1042 C   0  0  0  0  0  0
  -25.9715  -32.4101   23.7790 C   0  0  1  0  0  0
  -27.0843  -26.1070   20.1210 C   0  0  0  0  0  0
  -25.6052  -33.7968   24.1606 N   0  0  0  0  0  0
  -23.5748  -30.3244   21.4788 C   0  0  2  0  0  0
  -24.9884  -28.5553   20.0934 C   0  0  0  0  0  0
  -22.7948  -29.3986   22.4563 C   0  0  0  0  0  0
  -18.0366  -28.1442   22.8426 C   0  0  0  0  0  0
  -24.1507  -36.7012   23.2666 C   0  0  0  0  0  0
  -26.1709  -30.2476   21.4468 C   0  0  0  0  0  0
  -26.1922  -28.7597   20.7730 C   0  0  0  0  0  0
  -27.2059  -27.5775   20.7483 C   0  0  0  0  0  0
  -25.8686  -26.2713   19.3863 C   0  0  0  0  0  0
  -24.9022  -27.3471   19.3774 C   0  0  0  0  0  0
  -23.8335  -29.5964   20.1229 C   0  0  0  0  0  0
  -25.4176  -36.2686   24.0236 C   0  0  1  0  0  0
  -20.6016  -28.3821   23.1060 C   0  0  2  0  0  0
  -20.6800  -26.9435   22.5416 C   0  0  0  0  0  0
  -19.5790  -26.6345   21.5221 C   0  0  0  0  0  0
  -18.1975  -26.7958   22.1604 C   0  0  0  0  0  0
  -19.1642  -28.8966   23.2711 C   0  0  0  0  0  0
  -18.9541  -30.1538   23.8778 C   0  0  0  0  0  0
  -17.6526  -30.6615   24.0539 C   0  0  0  0  0  0
  -25.9196  -34.9094   23.4800 C   0  0  0  0  0  0
  -16.5414  -29.9091   23.6358 C   0  0  0  0  0  0
  -16.7341  -28.6514   23.0373 C   0  0  0  0  0  0
  -26.4683  -31.6405   25.0661 C   0  0  0  0  0  0
  -25.3614  -31.3901   26.1187 C   0  0  0  0  0  0
  -27.0690  -30.2686   24.6976 C   0  0  0  0  0  0
  -27.6025  -32.4421   25.7504 C   0  0  0  0  0  0
  -27.5554  -37.1653   24.8459 C   0  0  0  0  0  0
  -21.4553  -29.2969   22.3317 N   0  0  0  0  0  0
  -26.4249  -37.3516   23.9404 N   0  0  0  0  0  0
  -24.8643  -30.8158   22.0595 N   0  0  0  0  0  0
  -23.4172  -28.7656   23.3119 O   0  0  0  0  0  0
  -27.8593  -24.5812   20.1319 O   0  0  0  0  0  0
  -26.5919  -34.8795   22.4478 O   0  0  0  0  0  0
  -23.6319  -32.0670   23.5674 O   0  0  0  0  0  0
  -26.7895  -18.0212   18.8510 C   0  0  0  0  0  0
  -28.8211  -12.8735   19.1915 C   0  0  0  0  0  0
  -29.4916  -16.3530   23.5853 C   0  0  0  0  0  0
  -28.2508  -18.2622   22.7881 C   0  0  0  0  0  0
  -30.6057  -17.8712   21.8894 C   0  0  0  0  0  0
  -28.2358  -20.3508   19.9427 C   0  0  0  0  0  0
  -31.8227  -16.9238   21.8907 C   0  0  0  0  0  0
  -27.7469  -22.5799   19.6819 C   0  0  0  0  0  0
  -28.2326  -18.1154   19.3553 C   0  0  1  0  0  0
  -28.7757  -15.9086   19.7712 C   0  0  1  0  0  0
  -29.2537  -17.1922   22.2967 C   0  0  0  0  0  0
  -31.3835  -15.8638   21.0355 N   0  0  0  0  0  0
  -28.5088  -16.3649   21.2510 N   0  3  0  0  0  0
  -31.3173  -15.0661   18.5909 H   0  0  0  0  0  0
  -31.1553  -13.4007   18.4853 H   0  0  0  0  0  0
  -29.2146  -13.9962   16.8020 H   0  0  0  0  0  0
  -29.2356  -15.6007   17.2950 H   0  0  0  0  0  0
  -26.7962  -13.6843   17.8935 H   0  0  0  0  0  0
  -26.7735  -15.3257   18.2217 H   0  0  0  0  0  0
  -26.9357  -14.8776   20.9515 H   0  0  0  0  0  0
  -28.8397  -12.7381   21.6627 H   0  0  0  0  0  0
  -28.7732  -14.2136   22.3282 H   0  0  0  0  0  0
  -25.2978   -9.5809   22.4904 H   0  0  0  0  0  0
  -24.0175   -7.4736   22.7594 H   0  0  0  0  0  0
  -21.1147   -8.8852   19.8890 H   0  0  0  0  0  0
  -22.4094  -10.9626   19.6090 H   0  0  0  0  0  0
  -21.2048   -7.6197   23.9757 H   0  0  0  0  0  0
  -21.1493   -6.0544   25.9093 H   0  0  0  0  0  0
  -22.0562   -2.7654   23.2806 H   0  0  0  0  0  0
  -22.3240  -11.9183   22.5288 H   0  0  0  0  0  0
  -20.9805  -13.0044   22.3275 H   0  0  0  0  0  0
  -23.8937  -15.6070   20.2335 H   0  0  0  0  0  0
  -25.4159  -15.6496   19.5440 H   0  0  0  0  0  0
  -26.7858  -32.4409   23.0540 H   0  0  0  0  0  0
  -24.9995  -33.8892   24.9625 H   0  0  0  0  0  0
  -22.9339  -31.1830   21.2632 H   0  0  0  0  0  0
  -23.3798  -35.9307   23.3199 H   0  0  0  0  0  0
  -24.3570  -36.8847   22.2108 H   0  0  0  0  0  0
  -23.7241  -37.6117   23.6886 H   0  0  0  0  0  0
  -26.4558  -30.9405   20.6540 H   0  0  0  0  0  0
  -27.0015  -30.2941   22.1380 H   0  0  0  0  0  0
  -28.1027  -27.7442   21.3272 H   0  0  0  0  0  0
  -25.5712  -25.4046   18.8122 H   0  0  0  0  0  0
  -24.0086  -27.1855   18.7894 H   0  0  0  0  0  0
  -24.0578  -30.3456   19.3627 H   0  0  0  0  0  0
  -22.9138  -29.1158   19.7843 H   0  0  0  0  0  0
  -25.1413  -36.1357   25.0720 H   0  0  0  0  0  0
  -21.0089  -28.3485   24.1194 H   0  0  0  0  0  0
  -20.5606  -26.2461   23.3722 H   0  0  0  0  0  0
  -21.6662  -26.7289   22.1278 H   0  0  0  0  0  0
  -19.6940  -25.6224   21.1331 H   0  0  0  0  0  0
  -19.6758  -27.3087   20.6700 H   0  0  0  0  0  0
  -17.4245  -26.6709   21.4001 H   0  0  0  0  0  0
  -18.0345  -26.0133   22.9024 H   0  0  0  0  0  0
  -19.8022  -30.7376   24.2101 H   0  0  0  0  0  0
  -17.5081  -31.6280   24.5166 H   0  0  0  0  0  0
  -15.5415  -30.2956   23.7752 H   0  0  0  0  0  0
  -15.8739  -28.0790   22.7163 H   0  0  0  0  0  0
  -24.5855  -30.7179   25.7491 H   0  0  0  0  0  0
  -24.8743  -32.3169   26.4221 H   0  0  0  0  0  0
  -25.7674  -30.9323   27.0216 H   0  0  0  0  0  0
  -26.3465  -29.6112   24.2119 H   0  0  0  0  0  0
  -27.4015  -29.7384   25.5912 H   0  0  0  0  0  0
  -27.9491  -30.3671   24.0630 H   0  0  0  0  0  0
  -27.2483  -33.3876   26.1625 H   0  0  0  0  0  0
  -28.4043  -32.6736   25.0483 H   0  0  0  0  0  0
  -28.0453  -31.8868   26.5775 H   0  0  0  0  0  0
  -28.2478  -38.0029   24.7525 H   0  0  0  0  0  0
  -28.1139  -36.2542   24.6259 H   0  0  0  0  0  0
  -27.2277  -37.1246   25.8861 H   0  0  0  0  0  0
  -20.9974  -29.8560   21.6250 H   0  0  0  0  0  0
  -26.0019  -38.2534   24.1427 H   0  0  0  0  0  0
  -26.3954  -19.0077   18.6048 H   0  0  0  0  0  0
  -26.1220  -17.5880   19.5953 H   0  0  0  0  0  0
  -26.7284  -17.4385   17.9332 H   0  0  0  0  0  0
  -29.1434  -12.4444   18.2309 H   0  0  0  0  0  0
  -27.9207  -12.2478   19.1767 H   0  0  0  0  0  0
  -29.4434  -12.1571   19.7533 H   0  0  0  0  0  0
  -29.8786  -16.9897   24.3832 H   0  0  0  0  0  0
  -30.2051  -15.5400   23.4721 H   0  0  0  0  0  0
  -28.5746  -15.9001   23.9692 H   0  0  0  0  0  0
  -28.7416  -19.1350   23.2181 H   0  0  0  0  0  0
  -27.5917  -17.8818   23.5721 H   0  0  0  0  0  0
  -27.5737  -18.5850   22.0077 H   0  0  0  0  0  0
  -30.5077  -18.3583   20.9197 H   0  0  0  0  0  0
  -30.8435  -18.6778   22.5857 H   0  0  0  0  0  0
  -27.6899  -20.2727   20.8765 H   0  0  0  0  0  0
  -29.2759  -20.4462   20.2496 H   0  0  0  0  0  0
  -32.6977  -17.4180   21.4644 H   0  0  0  0  0  0
  -32.1051  -16.5629   22.8805 H   0  0  0  0  0  0
  -26.6668  -22.5144   19.5454 H   0  0  0  0  0  0
  -28.1291  -22.6824   18.6668 H   0  0  0  0  0  0
  -28.8296  -18.2379   18.4486 H   0  0  0  0  0  0
  -29.7346  -16.2994   19.4674 H   0  0  0  0  0  0
  -30.7648  -16.1901   20.3157 H   0  0  0  0  0  0
  -28.2661  -15.5074   21.7255 H   0  0  0  0  0  0
  -27.6365  -16.8681   21.1736 H   0  0  0  0  0  0
  1 25  1  0  0  0
  1 30  2  0  0  0
  1 82  1  0  0  0
  2  3  1  0  0  0
  2 25  1  0  0  0
  2 84  1  0  0  0
  2 85  1  0  0  0
  3  4  1  0  0  0
  3 86  1  0  0  0
  3 87  1  0  0  0
  4  5  1  0  0  0
  4 88  1  0  0  0
  4 89  1  0  0  0
  5  6  1  0  0  0
  5 26  1  0  0  0
  5 90  1  0  0  0
  6 25  1  0  0  0
  6 91  1  0  0  0
  6 92  1  0  0  0
  7  8  2  0  0  0
  7 26  1  0  0  0
  7 29  1  0  0  0
  8  9  1  0  0  0
  8 22  1  0  0  0
  9 10  1  0  0  0
  9 27  2  0  0  0
 10 11  2  0  0  0
 10 15  1  0  0  0
 11 12  1  0  0  0
 11 93  1  0  0  0
 12 13  2  0  0  0
 12 94  1  0  0  0
 13 14  1  0  0  0
 13 31  1  0  0  0
 14 15  2  0  0  0
 14 95  1  0  0  0
 15 96  1  0  0  0
 16 17  2  0  0  0
 16 21  1  0  0  0
 16 31  1  0  0  0
 17 18  1  0  0  0
 17 97  1  0  0  0
 18 19  2  0  0  0
 18 98  1  0  0  0
 19 20  1  0  0  0
 19 24  1  0  0  0
 20 21  2  0  0  0
 20 99  1  0  0  0
 21 23  1  0  0  0
 22 28  1  0  0  0
 22 32  2  0  0  0
 26 27  1  0  0  0
 28100  1  0  0  0
 28101  1  0  0  0
 29102  1  0  0  0
 29103  1  0  0  0
 33 34  1  0  0  0
 33 66  1  0  0  0
 33 70  2  0  0  0
 34 36  1  0  0  0
 34 59  1  0  0  0
 34104  1  0  0  0
 35 44  2  0  0  0
 35 45  1  0  0  0
 35 68  1  0  0  0
 36 56  1  0  0  0
 36105  1  0  0  0
 37 39  1  0  0  0
 37 47  1  0  0  0
 37 66  1  0  0  0
 37106  1  0  0  0
 38 43  2  0  0  0
 38 46  1  0  0  0
 38 47  1  0  0  0
 39 64  1  0  0  0
 39 67  2  0  0  0
 40 52  1  0  0  0
 40 53  2  0  0  0
 40 58  1  0  0  0
 41107  1  0  0  0
 41108  1  0  0  0
 41109  1  0  0  0
 41 48  1  0  0  0
 42 43  1  0  0  0
 42 66  1  0  0  0
 42110  1  0  0  0
 42111  1  0  0  0
 43 44  1  0  0  0
 44112  1  0  0  0
 45 46  2  0  0  0
 45113  1  0  0  0
 46114  1  0  0  0
 47115  1  0  0  0
 47116  1  0  0  0
 48 56  1  0  0  0
 48 65  1  0  0  0
 48117  1  0  0  0
 49 50  1  0  0  0
 49 53  1  0  0  0
 49 64  1  0  0  0
 49118  1  0  0  0
 50 51  1  0  0  0
 50119  1  0  0  0
 50120  1  0  0  0
 51 52  1  0  0  0
 51121  1  0  0  0
 51122  1  0  0  0
 52123  1  0  0  0
 52124  1  0  0  0
 53 54  1  0  0  0
 54 55  2  0  0  0
 54125  1  0  0  0
 55 57  1  0  0  0
 55126  1  0  0  0
 56 69  2  0  0  0
 57 58  2  0  0  0
 57127  1  0  0  0
 58128  1  0  0  0
 59 60  1  0  0  0
 59 61  1  0  0  0
 59 62  1  0  0  0
 60129  1  0  0  0
 60130  1  0  0  0
 60131  1  0  0  0
 61132  1  0  0  0
 61133  1  0  0  0
 61134  1  0  0  0
 62135  1  0  0  0
 62136  1  0  0  0
 62137  1  0  0  0
 63 65  1  0  0  0
 63138  1  0  0  0
 63139  1  0  0  0
 63140  1  0  0  0
 64141  1  0  0  0
 65142  1  0  0  0
 68 78  1  0  0  0
 71143  1  0  0  0
 71144  1  0  0  0
 71145  1  0  0  0
 71 79  1  0  0  0
 72146  1  0  0  0
 72147  1  0  0  0
 72148  1  0  0  0
 72 80  1  0  0  0
 73149  1  0  0  0
 73150  1  0  0  0
 73151  1  0  0  0
 73 81  1  0  0  0
 74 81  1  0  0  0
 74152  1  0  0  0
 74153  1  0  0  0
 74154  1  0  0  0
 75 77  1  0  0  0
 75 81  1  0  0  0
 75155  1  0  0  0
 75156  1  0  0  0
 76 78  1  0  0  0
 76 79  1  0  0  0
 76157  1  0  0  0
 76158  1  0  0  0
 77 82  1  0  0  0
 77159  1  0  0  0
 77160  1  0  0  0
 78161  1  0  0  0
 78162  1  0  0  0
 79 80  1  0  0  0
 79163  1  0  0  0
 80 83  1  0  0  0
 80164  1  0  0  0
 81 83  1  0  0  0
 82165  1  0  0  0
 83166  1  0  0  0
 83167  1  0  0  0
M  CHG  1  83   1
M  ISO  4   1 100  68 101  78 101  82 100
M  END
> <chiral flag>
0

> <version>
0

> <s_m_source_file>
/data/baiqing/PycharmProjects/Reinvent-master-3.2/result/LINK_invent/BTK/process_docking_weight1_custom_sum_contain_oxygen_bond_distance_aromatic_linkinvent_7_9_3/rearranged_h_0109.sdf

> <i_m_source_file_index>
71

> <r_mmod_Potential_Energy-OPLS-2005>
12494.1083984375

> <r_mmod_Stretch_Energy-OPLS-2005>
6647.658203125

> <r_mmod_Bend_Energy-OPLS-2005>
1429.80883789062

> <r_mmod_Torsional_Energy-OPLS-2005>
415.420379638672

> <r_mmod_Improper_Torsional_Energy-OPLS-2005>
58.3710708618164

> <r_mmod_Van_der_Waal_Energy-OPLS-2005>
1631.59777832031

> <r_mmod_Electrostatic_Energy-OPLS-2005>
-219.920181274414

> <r_mmod_Solvation_Energy-OPLS-2005>
-440.301147460938

> <b_mmod_Minimization_Converged-OPLS-2005>
0

> <r_mmod_RMS_Derivative-OPLS-2005>
5.03104496002197

$$$$
71
                    3D
 Structure written by MMmdl.
163170  0  0  1  0            999 V2000
  -30.5960  -14.6939   20.4960 C   0  0  0  0  0  0
  -30.4496  -12.4166   19.4724 C   0  0  0  0  0  0
  -29.5199  -12.4946   18.2380 C   0  0  0  0  0  0
  -28.0412  -12.3252   18.6454 C   0  0  0  0  0  0
  -27.6492  -13.2169   19.8513 C   0  0  2  0  0  0
  -28.6923  -13.1078   20.9852 C   0  0  0  0  0  0
  -25.2548  -13.8169   20.5685 C   0  0  0  0  0  0
  -24.1819  -13.0422   20.9206 C   0  0  0  0  0  0
  -24.6404  -11.6907   20.8750 C   0  0  0  0  0  0
  -23.9069  -10.4284   21.0426 C   0  0  0  0  0  0
  -24.3623   -9.4192   21.9196 C   0  0  0  0  0  0
  -23.6294   -8.2225   22.0757 C   0  0  0  0  0  0
  -22.4273   -8.0280   21.3543 C   0  0  0  0  0  0
  -21.9905   -9.0259   20.4643 C   0  0  0  0  0  0
  -22.7243  -10.2139   20.3065 C   0  0  0  0  0  0
  -21.6846   -6.0733   22.5290 C   0  0  0  0  0  0
  -21.4011   -6.5644   23.8223 C   0  0  0  0  0  0
  -21.3653   -5.6804   24.9190 C   0  0  0  0  0  0
  -21.6046   -4.3068   24.7238 C   0  0  0  0  0  0
  -21.8824   -3.8147   23.4365 C   0  0  0  0  0  0
  -21.9188   -4.6955   22.3415 C   0  0  0  0  0  0
  -22.7839  -13.5222   21.1879 C   0  0  0  0  0  0
  -22.1655   -4.2140   21.0988 F   0  0  0  0  0  0
  -21.5614   -3.4554   25.7743 F   0  0  0  0  0  0
  -30.0065  -13.4530   20.4299 N   0  0  0  0  0  0
  -26.2974  -12.9352   20.3268 N   0  0  0  0  0  0
  -25.9330  -11.6512   20.5738 N   0  0  0  0  0  0
  -22.0480  -12.8200   22.0439 N   0  0  0  0  0  0
  -25.4229  -15.1888   20.4102 N   0  0  0  0  0  0
  -31.7533  -14.8476   20.0920 O   0  0  0  0  0  0
  -21.6629   -6.8882   21.4257 O   0  0  0  0  0  0
  -22.3524  -14.5525   20.6737 O   0  0  0  0  0  0
  -24.6309  -31.8584   23.2032 C   0  0  0  0  0  0
  -25.9152  -32.4780   23.8364 C   0  0  1  0  0  0
  -27.2140  -27.2988   20.1260 C   0  0  0  0  0  0
  -25.5986  -33.8586   24.2312 N   0  0  0  0  0  0
  -23.4234  -30.4817   21.5491 C   0  0  2  0  0  0
  -24.8659  -28.9325   20.1147 C   0  0  0  0  0  0
  -22.7499  -29.4611   22.4973 C   0  0  0  0  0  0
  -18.0287  -28.1397   22.8484 C   0  0  0  0  0  0
  -24.1502  -36.7267   23.2644 C   0  0  0  0  0  0
  -25.9657  -30.7845   21.3759 C   0  0  0  0  0  0
  -26.0381  -29.4106   20.7154 C   0  0  0  0  0  0
  -27.2200  -28.6073   20.7046 C   0  0  0  0  0  0
  -26.0238  -26.8776   19.4965 C   0  0  0  0  0  0
  -24.8619  -27.6730   19.4943 C   0  0  0  0  0  0
  -23.6344  -29.8145   20.1658 C   0  0  0  0  0  0
  -25.4129  -36.3086   24.0340 C   0  0  1  0  0  0
  -20.5889  -28.3697   23.1308 C   0  0  2  0  0  0
  -20.6786  -26.9423   22.5423 C   0  0  0  0  0  0
  -19.5752  -26.6373   21.5236 C   0  0  0  0  0  0
  -18.1921  -26.7940   22.1622 C   0  0  0  0  0  0
  -19.1542  -28.8854   23.2888 C   0  0  0  0  0  0
  -18.9465  -30.1453   23.8903 C   0  0  0  0  0  0
  -17.6470  -30.6599   24.0565 C   0  0  0  0  0  0
  -25.9057  -34.9449   23.5106 C   0  0  0  0  0  0
  -16.5356  -29.9099   23.6336 C   0  0  0  0  0  0
  -16.7276  -28.6517   23.0354 C   0  0  0  0  0  0
  -26.4523  -31.6590   25.0740 C   0  0  0  0  0  0
  -25.3738  -31.3737   26.1455 C   0  0  0  0  0  0
  -27.0400  -30.3024   24.6203 C   0  0  0  0  0  0
  -27.6103  -32.4322   25.7494 C   0  0  0  0  0  0
  -27.5592  -37.1797   24.8468 C   0  0  0  0  0  0
  -21.4203  -29.3057   22.3721 N   0  0  0  0  0  0
  -26.4317  -37.3775   23.9394 N   0  0  0  0  0  0
  -24.6922  -31.0586   22.0988 N   0  0  0  0  0  0
  -23.4215  -28.8154   23.3071 O   0  0  0  0  0  0
  -28.3201  -26.4324   20.1435 O   0  0  0  0  0  0
  -26.5596  -34.8925   22.4656 O   0  0  0  0  0  0
  -23.5473  -32.1382   23.7361 O   0  0  0  0  0  0
  -29.2631  -22.4377   20.6580 C   0  0  0  0  0  0
  -27.9697  -21.4401   17.7289 C   0  0  0  0  0  0
  -26.4470  -21.6387   19.7825 C   0  0  0  0  0  0
  -28.2991  -25.1424   22.1717 C   0  0  0  0  0  0
  -29.7866  -15.9829   20.9713 C   0  0  0  0  0  0
  -29.0230  -23.8762   19.9886 C   0  0  0  0  0  0
  -29.8290  -19.9842   20.0894 C   0  0  0  0  0  0
  -29.3695  -18.5864   20.7529 C   0  0  0  0  0  0
  -27.7411  -21.0343   19.1982 C   0  0  0  0  0  0
  -28.1284  -25.0384   20.6490 C   0  0  2  0  0  0
  -28.9246  -21.2235   20.0695 N   0  0  0  0  0  0
  -30.2270  -17.3499   20.4484 N   0  3  0  0  0  0
  -29.9399  -22.4214   21.6889 O   0  0  0  0  0  0
  -31.4894  -12.5514   19.1683 H   0  0  0  0  0  0
  -30.3996  -11.4286   19.9309 H   0  0  0  0  0  0
  -29.7926  -11.7286   17.5112 H   0  0  0  0  0  0
  -29.6550  -13.4542   17.7363 H   0  0  0  0  0  0
  -27.8901  -11.2768   18.9015 H   0  0  0  0  0  0
  -27.3890  -12.5294   17.7953 H   0  0  0  0  0  0
  -27.6536  -14.2396   19.4789 H   0  0  0  0  0  0
  -28.7121  -12.0956   21.3912 H   0  0  0  0  0  0
  -28.4320  -13.7607   21.8203 H   0  0  0  0  0  0
  -25.2782   -9.5666   22.4764 H   0  0  0  0  0  0
  -24.0001   -7.4612   22.7476 H   0  0  0  0  0  0
  -21.0829   -8.8798   19.8943 H   0  0  0  0  0  0
  -22.3714  -10.9687   19.6174 H   0  0  0  0  0  0
  -21.2016   -7.6156   23.9728 H   0  0  0  0  0  0
  -21.1458   -6.0530   25.9093 H   0  0  0  0  0  0
  -22.0604   -2.7609   23.2874 H   0  0  0  0  0  0
  -22.4086  -11.9866   22.4841 H   0  0  0  0  0  0
  -21.1102  -13.1234   22.2632 H   0  0  0  0  0  0
  -24.6539  -15.8415   20.5172 H   0  0  0  0  0  0
  -26.2635  -15.6278   20.0585 H   0  0  0  0  0  0
  -26.7216  -32.5442   23.1116 H   0  0  0  0  0  0
  -25.0257  -33.9714   25.0539 H   0  0  0  0  0  0
  -22.7186  -31.3040   21.4074 H   0  0  0  0  0  0
  -23.3800  -35.9571   23.3306 H   0  0  0  0  0  0
  -24.3586  -36.8872   22.2057 H   0  0  0  0  0  0
  -23.7198  -37.6448   23.6649 H   0  0  0  0  0  0
  -26.1025  -31.5537   20.6154 H   0  0  0  0  0  0
  -26.8441  -30.8277   22.0080 H   0  0  0  0  0  0
  -28.1246  -28.9683   21.1734 H   0  0  0  0  0  0
  -25.9786  -25.9143   19.0078 H   0  0  0  0  0  0
  -23.9604  -27.3010   19.0263 H   0  0  0  0  0  0
  -23.7504  -30.5887   19.4066 H   0  0  0  0  0  0
  -22.7534  -29.2426   19.8698 H   0  0  0  0  0  0
  -25.1302  -36.1964   25.0834 H   0  0  0  0  0  0
  -20.9959  -28.3273   24.1447 H   0  0  0  0  0  0
  -20.5737  -26.2304   23.3633 H   0  0  0  0  0  0
  -21.6654  -26.7485   22.1199 H   0  0  0  0  0  0
  -19.6922  -25.6274   21.1290 H   0  0  0  0  0  0
  -19.6702  -27.3176   20.6766 H   0  0  0  0  0  0
  -17.4216  -26.6743   21.3993 H   0  0  0  0  0  0
  -18.0254  -26.0068   22.8992 H   0  0  0  0  0  0
  -19.7937  -30.7257   24.2302 H   0  0  0  0  0  0
  -17.5025  -31.6289   24.5157 H   0  0  0  0  0  0
  -15.5356  -30.3018   23.7627 H   0  0  0  0  0  0
  -15.8675  -28.0833   22.7077 H   0  0  0  0  0  0
  -24.5948  -30.7054   25.7765 H   0  0  0  0  0  0
  -24.8905  -32.2919   26.4814 H   0  0  0  0  0  0
  -25.8052  -30.8959   27.0260 H   0  0  0  0  0  0
  -26.3005  -29.6736   24.1246 H   0  0  0  0  0  0
  -27.4128  -29.7312   25.4711 H   0  0  0  0  0  0
  -27.8844  -30.4329   23.9436 H   0  0  0  0  0  0
  -27.2736  -33.3618   26.2090 H   0  0  0  0  0  0
  -28.3895  -32.6868   25.0298 H   0  0  0  0  0  0
  -28.0802  -31.8434   26.5378 H   0  0  0  0  0  0
  -28.2627  -38.0083   24.7518 H   0  0  0  0  0  0
  -28.1076  -36.2609   24.6317 H   0  0  0  0  0  0
  -27.2306  -37.1471   25.8875 H   0  0  0  0  0  0
  -20.9398  -29.8800   21.6928 H   0  0  0  0  0  0
  -26.0215  -38.2860   24.1396 H   0  0  0  0  0  0
  -27.2928  -20.8773   17.0837 H   0  0  0  0  0  0
  -28.9830  -21.2209   17.3885 H   0  0  0  0  0  0
  -27.7651  -22.4932   17.5367 H   0  0  0  0  0  0
  -25.5753  -21.2798   19.2339 H   0  0  0  0  0  0
  -26.4215  -22.7252   19.7309 H   0  0  0  0  0  0
  -26.3090  -21.3484   20.8256 H   0  0  0  0  0  0
  -28.0616  -24.1997   22.6669 H   0  0  0  0  0  0
  -27.6343  -25.8988   22.5897 H   0  0  0  0  0  0
  -29.3195  -25.4147   22.4360 H   0  0  0  0  0  0
  -28.7475  -15.8609   20.6726 H   0  0  0  0  0  0
  -29.7920  -16.0038   22.0608 H   0  0  0  0  0  0
  -28.7370  -23.7621   18.9488 H   0  0  0  0  0  0
  -30.0304  -24.2910   19.9250 H   0  0  0  0  0  0
  -30.0762  -19.7799   19.0475 H   0  0  0  0  0  0
  -30.7840  -20.2594   20.5402 H   0  0  0  0  0  0
  -28.3495  -18.3489   20.4561 H   0  0  0  0  0  0
  -29.3350  -18.7129   21.8352 H   0  0  0  0  0  0
  -27.5471  -19.9620   19.1677 H   0  0  0  0  0  0
  -27.0985  -24.7362   20.4806 H   0  0  0  0  0  0
  -30.2903  -17.2627   19.4473 H   0  0  0  0  0  0
  -31.1653  -17.5099   20.7756 H   0  0  0  0  0  0
  1 25  1  0  0  0
  1 30  2  0  0  0
  1 75  1  0  0  0
  2  3  1  0  0  0
  2 25  1  0  0  0
  2 84  1  0  0  0
  2 85  1  0  0  0
  3  4  1  0  0  0
  3 86  1  0  0  0
  3 87  1  0  0  0
  4  5  1  0  0  0
  4 88  1  0  0  0
  4 89  1  0  0  0
  5  6  1  0  0  0
  5 26  1  0  0  0
  5 90  1  0  0  0
  6 25  1  0  0  0
  6 91  1  0  0  0
  6 92  1  0  0  0
  7  8  2  0  0  0
  7 26  1  0  0  0
  7 29  1  0  0  0
  8  9  1  0  0  0
  8 22  1  0  0  0
  9 10  1  0  0  0
  9 27  2  0  0  0
 10 11  2  0  0  0
 10 15  1  0  0  0
 11 12  1  0  0  0
 11 93  1  0  0  0
 12 13  2  0  0  0
 12 94  1  0  0  0
 13 14  1  0  0  0
 13 31  1  0  0  0
 14 15  2  0  0  0
 14 95  1  0  0  0
 15 96  1  0  0  0
 16 17  2  0  0  0
 16 21  1  0  0  0
 16 31  1  0  0  0
 17 18  1  0  0  0
 17 97  1  0  0  0
 18 19  2  0  0  0
 18 98  1  0  0  0
 19 20  1  0  0  0
 19 24  1  0  0  0
 20 21  2  0  0  0
 20 99  1  0  0  0
 21 23  1  0  0  0
 22 28  1  0  0  0
 22 32  2  0  0  0
 26 27  1  0  0  0
 28100  1  0  0  0
 28101  1  0  0  0
 29102  1  0  0  0
 29103  1  0  0  0
 33 34  1  0  0  0
 33 66  1  0  0  0
 33 70  2  0  0  0
 34 36  1  0  0  0
 34 59  1  0  0  0
 34104  1  0  0  0
 35 44  2  0  0  0
 35 45  1  0  0  0
 35 68  1  0  0  0
 36 56  1  0  0  0
 36105  1  0  0  0
 37 39  1  0  0  0
 37 47  1  0  0  0
 37 66  1  0  0  0
 37106  1  0  0  0
 38 43  2  0  0  0
 38 46  1  0  0  0
 38 47  1  0  0  0
 39 64  1  0  0  0
 39 67  2  0  0  0
 40 52  1  0  0  0
 40 53  2  0  0  0
 40 58  1  0  0  0
 41107  1  0  0  0
 41108  1  0  0  0
 41109  1  0  0  0
 41 48  1  0  0  0
 42 43  1  0  0  0
 42 66  1  0  0  0
 42110  1  0  0  0
 42111  1  0  0  0
 43 44  1  0  0  0
 44112  1  0  0  0
 45 46  2  0  0  0
 45113  1  0  0  0
 46114  1  0  0  0
 47115  1  0  0  0
 47116  1  0  0  0
 48 56  1  0  0  0
 48 65  1  0  0  0
 48117  1  0  0  0
 49 50  1  0  0  0
 49 53  1  0  0  0
 49 64  1  0  0  0
 49118  1  0  0  0
 50 51  1  0  0  0
 50119  1  0  0  0
 50120  1  0  0  0
 51 52  1  0  0  0
 51121  1  0  0  0
 51122  1  0  0  0
 52123  1  0  0  0
 52124  1  0  0  0
 53 54  1  0  0  0
 54 55  2  0  0  0
 54125  1  0  0  0
 55 57  1  0  0  0
 55126  1  0  0  0
 56 69  2  0  0  0
 57 58  2  0  0  0
 57127  1  0  0  0
 58128  1  0  0  0
 59 60  1  0  0  0
 59 61  1  0  0  0
 59 62  1  0  0  0
 60129  1  0  0  0
 60130  1  0  0  0
 60131  1  0  0  0
 61132  1  0  0  0
 61133  1  0  0  0
 61134  1  0  0  0
 62135  1  0  0  0
 62136  1  0  0  0
 62137  1  0  0  0
 63 65  1  0  0  0
 63138  1  0  0  0
 63139  1  0  0  0
 63140  1  0  0  0
 64141  1  0  0  0
 65142  1  0  0  0
 68 80  1  0  0  0
 71 76  1  0  0  0
 71 81  1  0  0  0
 71 83  2  0  0  0
 72143  1  0  0  0
 72144  1  0  0  0
 72145  1  0  0  0
 72 79  1  0  0  0
 73 79  1  0  0  0
 73146  1  0  0  0
 73147  1  0  0  0
 73148  1  0  0  0
 74149  1  0  0  0
 74150  1  0  0  0
 74151  1  0  0  0
 74 80  1  0  0  0
 75 82  1  0  0  0
 75152  1  0  0  0
 75153  1  0  0  0
 76 80  1  0  0  0
 76154  1  0  0  0
 76155  1  0  0  0
 77 78  1  0  0  0
 77 81  1  0  0  0
 77156  1  0  0  0
 77157  1  0  0  0
 78 82  1  0  0  0
 78158  1  0  0  0
 78159  1  0  0  0
 79 81  1  0  0  0
 79160  1  0  0  0
 80161  1  0  0  0
 82162  1  0  0  0
 82163  1  0  0  0
M  CHG  1  82   1
M  ISO  4   1 100  68 101  75 100  80 101
M  END
> <chiral flag>
0

> <version>
0

> <s_m_source_file>
/data/baiqing/PycharmProjects/Reinvent-master-3.2/result/LINK_invent/BTK/process_docking_weight1_custom_sum_contain_oxygen_bond_distance_aromatic_linkinvent_7_9_3/rearranged_h_0109.sdf

> <i_m_source_file_index>
72

> <r_mmod_Potential_Energy-OPLS-2005>
-106.181747436523

> <r_mmod_Stretch_Energy-OPLS-2005>
110.156806945801

> <r_mmod_Bend_Energy-OPLS-2005>
161.499145507812

> <r_mmod_Torsional_Energy-OPLS-2005>
243.737213134766

> <r_mmod_Improper_Torsional_Energy-OPLS-2005>
5.20440673828125

> <r_mmod_Van_der_Waal_Energy-OPLS-2005>
121.528182983398

> <r_mmod_Electrostatic_Energy-OPLS-2005>
-328.20166015625

> <r_mmod_Solvation_Energy-OPLS-2005>
-482.983520507812

> <b_mmod_Minimization_Converged-OPLS-2005>
0

> <r_mmod_RMS_Derivative-OPLS-2005>
2.9605348110199

$$$$
72
                    3D
 Structure written by MMmdl.
168176  0  0  1  0            999 V2000
  -30.6695  -14.5219   20.5414 C   0  0  0  0  0  0
  -30.4228  -12.3298   19.4304 C   0  0  0  0  0  0
  -29.4944  -12.5043   18.2097 C   0  0  0  0  0  0
  -28.0155  -12.3605   18.6206 C   0  0  0  0  0  0
  -27.6550  -13.2078   19.8699 C   0  0  2  0  0  0
  -28.6980  -13.0148   20.9941 C   0  0  0  0  0  0
  -25.2549  -13.8150   20.5674 C   0  0  0  0  0  0
  -24.1814  -13.0432   20.9206 C   0  0  0  0  0  0
  -24.6372  -11.6898   20.8750 C   0  0  0  0  0  0
  -23.9043  -10.4283   21.0409 C   0  0  0  0  0  0
  -24.3600   -9.4195   21.9179 C   0  0  0  0  0  0
  -23.6285   -8.2229   22.0745 C   0  0  0  0  0  0
  -22.4266   -8.0272   21.3539 C   0  0  0  0  0  0
  -21.9896   -9.0242   20.4641 C   0  0  0  0  0  0
  -22.7219  -10.2125   20.3057 C   0  0  0  0  0  0
  -21.6850   -6.0730   22.5282 C   0  0  0  0  0  0
  -21.4009   -6.5637   23.8215 C   0  0  0  0  0  0
  -21.3657   -5.6789   24.9178 C   0  0  0  0  0  0
  -21.6049   -4.3052   24.7224 C   0  0  0  0  0  0
  -21.8819   -3.8145   23.4344 C   0  0  0  0  0  0
  -21.9188   -4.6961   22.3399 C   0  0  0  0  0  0
  -22.7839  -13.5235   21.1870 C   0  0  0  0  0  0
  -22.1660   -4.2146   21.0976 F   0  0  0  0  0  0
  -21.5631   -3.4534   25.7735 F   0  0  0  0  0  0
  -30.0227  -13.3278   20.4353 N   0  0  0  0  0  0
  -26.2981  -12.9325   20.3341 N   0  0  0  0  0  0
  -25.9295  -11.6488   20.5762 N   0  0  0  0  0  0
  -22.0473  -12.8229   22.0423 N   0  0  0  0  0  0
  -25.4256  -15.1864   20.4030 N   0  0  0  0  0  0
  -31.8136  -14.6972   20.1155 O   0  0  0  0  0  0
  -21.6632   -6.8871   21.4241 O   0  0  0  0  0  0
  -22.3526  -14.5537   20.6709 O   0  0  0  0  0  0
  -24.6169  -31.8646   23.2056 C   0  0  0  0  0  0
  -25.9051  -32.4801   23.8359 C   0  0  1  0  0  0
  -27.2376  -27.4048   20.0863 C   0  0  0  0  0  0
  -25.5900  -33.8600   24.2298 N   0  0  0  0  0  0
  -23.4050  -30.4864   21.5474 C   0  0  2  0  0  0
  -24.8488  -28.9409   20.1152 C   0  0  0  0  0  0
  -22.7410  -29.4646   22.4981 C   0  0  0  0  0  0
  -18.0273  -28.1378   22.8487 C   0  0  0  0  0  0
  -24.1489  -36.7310   23.2636 C   0  0  0  0  0  0
  -25.9346  -30.8196   21.3599 C   0  0  0  0  0  0
  -26.0092  -29.4489   20.7106 C   0  0  0  0  0  0
  -27.2004  -28.6849   20.6968 C   0  0  0  0  0  0
  -26.0489  -26.9040   19.5129 C   0  0  0  0  0  0
  -24.8636  -27.6676   19.5179 C   0  0  0  0  0  0
  -23.6127  -29.8129   20.1636 C   0  0  0  0  0  0
  -25.4109  -36.3099   24.0333 C   0  0  1  0  0  0
  -20.5862  -28.3663   23.1318 C   0  0  2  0  0  0
  -20.6767  -26.9398   22.5417 C   0  0  0  0  0  0
  -19.5748  -26.6383   21.5211 C   0  0  0  0  0  0
  -18.1925  -26.7924   22.1621 C   0  0  0  0  0  0
  -19.1522  -28.8837   23.2900 C   0  0  0  0  0  0
  -18.9449  -30.1442   23.8909 C   0  0  0  0  0  0
  -17.6452  -30.6584   24.0565 C   0  0  0  0  0  0
  -25.9038  -34.9463   23.5117 C   0  0  0  0  0  0
  -16.5342  -29.9086   23.6325 C   0  0  0  0  0  0
  -16.7263  -28.6506   23.0341 C   0  0  0  0  0  0
  -26.4473  -31.6586   25.0696 C   0  0  0  0  0  0
  -25.3736  -31.3692   26.1443 C   0  0  0  0  0  0
  -27.0297  -30.3026   24.6069 C   0  0  0  0  0  0
  -27.6049  -32.4299   25.7464 C   0  0  0  0  0  0
  -27.5580  -37.1810   24.8464 C   0  0  0  0  0  0
  -21.4138  -29.3029   22.3723 N   0  0  0  0  0  0
  -26.4294  -37.3785   23.9406 N   0  0  0  0  0  0
  -24.6709  -31.0723   22.0964 N   0  0  0  0  0  0
  -23.4170  -28.8196   23.3043 O   0  0  0  0  0  0
  -28.4325  -26.7020   20.1003 O   0  0  0  0  0  0
  -26.5605  -34.8925   22.4681 O   0  0  0  0  0  0
  -23.5357  -32.1409   23.7441 O   0  0  0  0  0  0
  -28.3209  -22.4235   21.3382 C   0  0  0  0  0  0
  -27.9054  -21.8213   19.0349 C   0  0  0  0  0  0
  -28.5075  -23.7762   20.9552 C   0  0  0  0  0  0
  -28.0953  -23.1724   18.6528 C   0  0  0  0  0  0
  -28.0118  -21.4177   20.3871 C   0  0  0  0  0  0
  -28.3909  -24.1798   19.6056 C   0  0  0  0  0  0
  -28.4566  -18.0239   17.7750 C   0  0  0  0  0  0
  -26.3399  -19.4390   20.2037 C   0  0  0  0  0  0
  -28.4947  -25.9974   17.7037 C   0  0  0  0  0  0
  -28.4610  -17.3302   19.1472 C   0  0  0  0  0  0
  -30.2824  -17.0003   21.0094 C   0  0  0  0  0  0
  -27.6274  -19.9864   20.8547 C   0  0  1  0  0  0
  -28.7485  -25.6277   19.1812 C   0  0  2  0  0  0
  -29.3691  -18.0201   20.2083 C   0  0  2  0  0  0
  -29.9161  -15.5579   20.9780 N   0  0  0  0  0  0
  -28.7144  -18.9874   21.1658 N   0  3  0  0  0  0
  -31.4668  -12.4357   19.1304 H   0  0  0  0  0  0
  -30.3315  -11.3237   19.8432 H   0  0  0  0  0  0
  -29.7400  -11.7698   17.4412 H   0  0  0  0  0  0
  -29.6553  -13.4849   17.7587 H   0  0  0  0  0  0
  -27.8303  -11.3055   18.8234 H   0  0  0  0  0  0
  -27.3651  -12.6269   17.7869 H   0  0  0  0  0  0
  -27.6888  -14.2507   19.5571 H   0  0  0  0  0  0
  -28.6839  -11.9852   21.3541 H   0  0  0  0  0  0
  -28.4574  -13.6321   21.8608 H   0  0  0  0  0  0
  -25.2736   -9.5680   22.4760 H   0  0  0  0  0  0
  -23.9999   -7.4618   22.7458 H   0  0  0  0  0  0
  -21.0831   -8.8761   19.8941 H   0  0  0  0  0  0
  -22.3674  -10.9669   19.6174 H   0  0  0  0  0  0
  -21.2006   -7.6147   23.9720 H   0  0  0  0  0  0
  -21.1481   -6.0516   25.9081 H   0  0  0  0  0  0
  -22.0602   -2.7607   23.2846 H   0  0  0  0  0  0
  -22.4078  -11.9884   22.4807 H   0  0  0  0  0  0
  -21.1086  -13.1251   22.2619 H   0  0  0  0  0  0
  -24.6408  -15.8251   20.4686 H   0  0  0  0  0  0
  -26.2460  -15.6025   19.9863 H   0  0  0  0  0  0
  -26.7115  -32.5499   23.1113 H   0  0  0  0  0  0
  -25.0056  -33.9753   25.0448 H   0  0  0  0  0  0
  -22.6954  -31.3039   21.4055 H   0  0  0  0  0  0
  -23.3744  -35.9651   23.3308 H   0  0  0  0  0  0
  -24.3583  -36.8914   22.2049 H   0  0  0  0  0  0
  -23.7252  -37.6522   23.6645 H   0  0  0  0  0  0
  -26.0449  -31.5808   20.5864 H   0  0  0  0  0  0
  -26.8239  -30.8778   21.9758 H   0  0  0  0  0  0
  -28.0988  -29.0767   21.1531 H   0  0  0  0  0  0
  -26.0215  -25.9169   19.0763 H   0  0  0  0  0  0
  -23.9662  -27.2632   19.0704 H   0  0  0  0  0  0
  -23.7216  -30.5844   19.4007 H   0  0  0  0  0  0
  -22.7353  -29.2333   19.8707 H   0  0  0  0  0  0
  -25.1289  -36.1961   25.0827 H   0  0  0  0  0  0
  -20.9952  -28.3231   24.1439 H   0  0  0  0  0  0
  -20.5674  -26.2269   23.3599 H   0  0  0  0  0  0
  -21.6641  -26.7449   22.1211 H   0  0  0  0  0  0
  -19.6915  -25.6297   21.1233 H   0  0  0  0  0  0
  -19.6698  -27.3200   20.6745 H   0  0  0  0  0  0
  -17.4198  -26.6666   21.4020 H   0  0  0  0  0  0
  -18.0333  -26.0064   22.9016 H   0  0  0  0  0  0
  -19.7925  -30.7254   24.2286 H   0  0  0  0  0  0
  -17.5009  -31.6266   24.5162 H   0  0  0  0  0  0
  -15.5345  -30.2994   23.7645 H   0  0  0  0  0  0
  -15.8660  -28.0836   22.7042 H   0  0  0  0  0  0
  -24.5921  -30.7025   25.7782 H   0  0  0  0  0  0
  -24.8915  -32.2844   26.4886 H   0  0  0  0  0  0
  -25.8095  -30.8870   27.0202 H   0  0  0  0  0  0
  -26.2835  -29.6794   24.1128 H   0  0  0  0  0  0
  -27.4073  -29.7256   25.4521 H   0  0  0  0  0  0
  -27.8667  -30.4345   23.9207 H   0  0  0  0  0  0
  -27.2673  -33.3593   26.2061 H   0  0  0  0  0  0
  -28.3855  -32.6860   25.0289 H   0  0  0  0  0  0
  -28.0716  -31.8403   26.5364 H   0  0  0  0  0  0
  -28.2602  -38.0101   24.7501 H   0  0  0  0  0  0
  -28.1070  -36.2633   24.6301 H   0  0  0  0  0  0
  -27.2297  -37.1475   25.8865 H   0  0  0  0  0  0
  -20.9295  -29.8743   21.6939 H   0  0  0  0  0  0
  -26.0182  -38.2866   24.1393 H   0  0  0  0  0  0
  -28.3887  -22.1725   22.3880 H   0  0  0  0  0  0
  -27.6390  -21.1092   18.2699 H   0  0  0  0  0  0
  -28.7548  -24.5126   21.7075 H   0  0  0  0  0  0
  -28.0149  -23.4178   17.6039 H   0  0  0  0  0  0
  -27.7589  -17.5339   17.0949 H   0  0  0  0  0  0
  -29.4438  -17.9781   17.3128 H   0  0  0  0  0  0
  -28.1819  -19.0716   17.8312 H   0  0  0  0  0  0
  -25.5237  -20.1492   20.3373 H   0  0  0  0  0  0
  -26.0196  -18.5071   20.6693 H   0  0  0  0  0  0
  -26.4286  -19.2754   19.1340 H   0  0  0  0  0  0
  -29.0875  -25.3719   17.0358 H   0  0  0  0  0  0
  -28.7863  -27.0294   17.5093 H   0  0  0  0  0  0
  -27.4532  -25.8859   17.4087 H   0  0  0  0  0  0
  -28.8330  -16.3340   18.9167 H   0  0  0  0  0  0
  -27.4560  -17.1604   19.5241 H   0  0  0  0  0  0
  -30.3695  -17.2943   22.0563 H   0  0  0  0  0  0
  -31.2973  -17.1070   20.6210 H   0  0  0  0  0  0
  -27.2825  -20.1822   21.8716 H   0  0  0  0  0  0
  -29.8366  -25.6074   19.2515 H   0  0  0  0  0  0
  -30.0627  -18.6493   19.6471 H   0  0  0  0  0  0
  -28.9888  -15.3166   21.2943 H   0  0  0  0  0  0
  -28.3262  -18.4168   21.8985 H   0  0  0  0  0  0
  -29.4543  -19.5144   21.6020 H   0  0  0  0  0  0
  1 25  1  0  0  0
  1 30  2  0  0  0
  1 85  1  0  0  0
  2  3  1  0  0  0
  2 25  1  0  0  0
  2 87  1  0  0  0
  2 88  1  0  0  0
  3  4  1  0  0  0
  3 89  1  0  0  0
  3 90  1  0  0  0
  4  5  1  0  0  0
  4 91  1  0  0  0
  4 92  1  0  0  0
  5  6  1  0  0  0
  5 26  1  0  0  0
  5 93  1  0  0  0
  6 25  1  0  0  0
  6 94  1  0  0  0
  6 95  1  0  0  0
  7  8  2  0  0  0
  7 26  1  0  0  0
  7 29  1  0  0  0
  8  9  1  0  0  0
  8 22  1  0  0  0
  9 10  1  0  0  0
  9 27  2  0  0  0
 10 11  2  0  0  0
 10 15  1  0  0  0
 11 12  1  0  0  0
 11 96  1  0  0  0
 12 13  2  0  0  0
 12 97  1  0  0  0
 13 14  1  0  0  0
 13 31  1  0  0  0
 14 15  2  0  0  0
 14 98  1  0  0  0
 15 99  1  0  0  0
 16 17  2  0  0  0
 16 21  1  0  0  0
 16 31  1  0  0  0
 17 18  1  0  0  0
 17100  1  0  0  0
 18 19  2  0  0  0
 18101  1  0  0  0
 19 20  1  0  0  0
 19 24  1  0  0  0
 20 21  2  0  0  0
 20102  1  0  0  0
 21 23  1  0  0  0
 22 28  1  0  0  0
 22 32  2  0  0  0
 26 27  1  0  0  0
 28103  1  0  0  0
 28104  1  0  0  0
 29105  1  0  0  0
 29106  1  0  0  0
 33 34  1  0  0  0
 33 66  1  0  0  0
 33 70  2  0  0  0
 34 36  1  0  0  0
 34 59  1  0  0  0
 34107  1  0  0  0
 35 44  2  0  0  0
 35 45  1  0  0  0
 35 68  1  0  0  0
 36 56  1  0  0  0
 36108  1  0  0  0
 37 39  1  0  0  0
 37 47  1  0  0  0
 37 66  1  0  0  0
 37109  1  0  0  0
 38 43  2  0  0  0
 38 46  1  0  0  0
 38 47  1  0  0  0
 39 64  1  0  0  0
 39 67  2  0  0  0
 40 52  1  0  0  0
 40 53  2  0  0  0
 40 58  1  0  0  0
 41110  1  0  0  0
 41111  1  0  0  0
 41112  1  0  0  0
 41 48  1  0  0  0
 42 43  1  0  0  0
 42 66  1  0  0  0
 42113  1  0  0  0
 42114  1  0  0  0
 43 44  1  0  0  0
 44115  1  0  0  0
 45 46  2  0  0  0
 45116  1  0  0  0
 46117  1  0  0  0
 47118  1  0  0  0
 47119  1  0  0  0
 48 56  1  0  0  0
 48 65  1  0  0  0
 48120  1  0  0  0
 49 50  1  0  0  0
 49 53  1  0  0  0
 49 64  1  0  0  0
 49121  1  0  0  0
 50 51  1  0  0  0
 50122  1  0  0  0
 50123  1  0  0  0
 51 52  1  0  0  0
 51124  1  0  0  0
 51125  1  0  0  0
 52126  1  0  0  0
 52127  1  0  0  0
 53 54  1  0  0  0
 54 55  2  0  0  0
 54128  1  0  0  0
 55 57  1  0  0  0
 55129  1  0  0  0
 56 69  2  0  0  0
 57 58  2  0  0  0
 57130  1  0  0  0
 58131  1  0  0  0
 59 60  1  0  0  0
 59 61  1  0  0  0
 59 62  1  0  0  0
 60132  1  0  0  0
 60133  1  0  0  0
 60134  1  0  0  0
 61135  1  0  0  0
 61136  1  0  0  0
 61137  1  0  0  0
 62138  1  0  0  0
 62139  1  0  0  0
 62140  1  0  0  0
 63 65  1  0  0  0
 63141  1  0  0  0
 63142  1  0  0  0
 63143  1  0  0  0
 64144  1  0  0  0
 65145  1  0  0  0
 68 83  1  0  0  0
 71 73  2  0  0  0
 71 75  1  0  0  0
 71146  1  0  0  0
 72 74  1  0  0  0
 72 75  2  0  0  0
 72147  1  0  0  0
 73 76  1  0  0  0
 73148  1  0  0  0
 74 76  2  0  0  0
 74149  1  0  0  0
 75 82  1  0  0  0
 76 83  1  0  0  0
 77 80  1  0  0  0
 77150  1  0  0  0
 77151  1  0  0  0
 77152  1  0  0  0
 78153  1  0  0  0
 78154  1  0  0  0
 78155  1  0  0  0
 78 82  1  0  0  0
 79156  1  0  0  0
 79157  1  0  0  0
 79158  1  0  0  0
 79 83  1  0  0  0
 80159  1  0  0  0
 80160  1  0  0  0
 80 84  1  0  0  0
 81 84  1  0  0  0
 81 85  1  0  0  0
 81161  1  0  0  0
 81162  1  0  0  0
 82 86  1  0  0  0
 82163  1  0  0  0
 83164  1  0  0  0
 84 86  1  0  0  0
 84165  1  0  0  0
 85166  1  0  0  0
 86167  1  0  0  0
 86168  1  0  0  0
M  CHG  1  86   1
M  ISO  4   1 100  68 101  83 101  85 100
M  END
> <chiral flag>
0

> <version>
0

> <s_m_source_file>
/data/baiqing/PycharmProjects/Reinvent-master-3.2/result/LINK_invent/BTK/process_docking_weight1_custom_sum_contain_oxygen_bond_distance_aromatic_linkinvent_7_9_3/rearranged_h_0109.sdf

> <i_m_source_file_index>
73

> <r_mmod_Potential_Energy-OPLS-2005>
-144.030731201172

> <r_mmod_Stretch_Energy-OPLS-2005>
53.6711158752441

> <r_mmod_Bend_Energy-OPLS-2005>
181.10026550293

> <r_mmod_Torsional_Energy-OPLS-2005>
260.689483642578

> <r_mmod_Improper_Torsional_Energy-OPLS-2005>
5.78311586380005

> <r_mmod_Van_der_Waal_Energy-OPLS-2005>
147.942260742188

> <r_mmod_Electrostatic_Energy-OPLS-2005>
-337.9716796875

> <r_mmod_Solvation_Energy-OPLS-2005>
-473.703674316406

> <b_mmod_Minimization_Converged-OPLS-2005>
0

> <r_mmod_RMS_Derivative-OPLS-2005>
0.91621732711792

$$$$
73
                    3D
 Structure written by MMmdl.
160168  0  0  1  0            999 V2000
  -30.5302  -14.8863   20.4371 C   0  0  0  0  0  0
  -30.4483  -12.5428   19.4918 C   0  0  0  0  0  0
  -29.5239  -12.5302   18.2511 C   0  0  0  0  0  0
  -28.0525  -12.3277   18.6627 C   0  0  0  0  0  0
  -27.6391  -13.2376   19.8488 C   0  0  2  0  0  0
  -28.6825  -13.2078   20.9873 C   0  0  0  0  0  0
  -25.2505  -13.8202   20.5698 C   0  0  0  0  0  0
  -24.1803  -13.0442   20.9215 C   0  0  0  0  0  0
  -24.6400  -11.6918   20.8748 C   0  0  0  0  0  0
  -23.9078  -10.4297   21.0409 C   0  0  0  0  0  0
  -24.3624   -9.4208   21.9187 C   0  0  0  0  0  0
  -23.6292   -8.2248   22.0758 C   0  0  0  0  0  0
  -22.4276   -8.0293   21.3543 C   0  0  0  0  0  0
  -21.9913   -9.0266   20.4648 C   0  0  0  0  0  0
  -22.7248  -10.2140   20.3057 C   0  0  0  0  0  0
  -21.6858   -6.0738   22.5273 C   0  0  0  0  0  0
  -21.4024   -6.5639   23.8208 C   0  0  0  0  0  0
  -21.3655   -5.6789   24.9168 C   0  0  0  0  0  0
  -21.6039   -4.3052   24.7219 C   0  0  0  0  0  0
  -21.8821   -3.8145   23.4340 C   0  0  0  0  0  0
  -21.9194   -4.6964   22.3396 C   0  0  0  0  0  0
  -22.7825  -13.5223   21.1864 C   0  0  0  0  0  0
  -22.1659   -4.2148   21.0974 F   0  0  0  0  0  0
  -21.5618   -3.4535   25.7732 F   0  0  0  0  0  0
  -29.9710  -13.6138   20.4075 N   0  0  0  0  0  0
  -26.2927  -12.9409   20.3266 N   0  0  0  0  0  0
  -25.9335  -11.6548   20.5742 N   0  0  0  0  0  0
  -22.0459  -12.8227   22.0420 N   0  0  0  0  0  0
  -25.4188  -15.1930   20.4104 N   0  0  0  0  0  0
  -31.7169  -15.0040   20.1055 O   0  0  0  0  0  0
  -21.6639   -6.8887   21.4240 O   0  0  0  0  0  0
  -22.3515  -14.5522   20.6698 O   0  0  0  0  0  0
  -24.6395  -31.8454   23.1900 C   0  0  0  0  0  0
  -25.9183  -32.4698   23.8277 C   0  0  1  0  0  0
  -27.2257  -27.1694   20.1372 C   0  0  0  0  0  0
  -25.5942  -33.8503   24.2194 N   0  0  0  0  0  0
  -23.4417  -30.4645   21.5349 C   0  0  2  0  0  0
  -24.8914  -28.8960   20.1057 C   0  0  0  0  0  0
  -22.7545  -29.4548   22.4872 C   0  0  0  0  0  0
  -18.0297  -28.1394   22.8475 C   0  0  0  0  0  0
  -24.1488  -36.7255   23.2644 C   0  0  0  0  0  0
  -25.9942  -30.7286   21.3837 C   0  0  0  0  0  0
  -26.0648  -29.3433   20.7234 C   0  0  0  0  0  0
  -27.2281  -28.4928   20.7277 C   0  0  0  0  0  0
  -26.0221  -26.8081   19.4912 C   0  0  0  0  0  0
  -24.8805  -27.6401   19.4773 C   0  0  0  0  0  0
  -23.6649  -29.7934   20.1530 C   0  0  0  0  0  0
  -25.4121  -36.3031   24.0315 C   0  0  1  0  0  0
  -20.5905  -28.3709   23.1242 C   0  0  2  0  0  0
  -20.6781  -26.9414   22.5408 C   0  0  0  0  0  0
  -19.5759  -26.6379   21.5210 C   0  0  0  0  0  0
  -18.1940  -26.7934   22.1619 C   0  0  0  0  0  0
  -19.1554  -28.8872   23.2851 C   0  0  0  0  0  0
  -18.9471  -30.1469   23.8879 C   0  0  0  0  0  0
  -17.6468  -30.6589   24.0560 C   0  0  0  0  0  0
  -25.9071  -34.9408   23.5063 C   0  0  0  0  0  0
  -16.5359  -29.9082   23.6337 C   0  0  0  0  0  0
  -16.7282  -28.6502   23.0354 C   0  0  0  0  0  0
  -26.4515  -31.6564   25.0714 C   0  0  0  0  0  0
  -25.3709  -31.3744   26.1416 C   0  0  0  0  0  0
  -27.0375  -30.2964   24.6281 C   0  0  0  0  0  0
  -27.6049  -32.4330   25.7495 C   0  0  0  0  0  0
  -27.5572  -37.1784   24.8464 C   0  0  0  0  0  0
  -21.4242  -29.3033   22.3616 N   0  0  0  0  0  0
  -26.4285  -37.3743   23.9406 N   0  0  0  0  0  0
  -24.7114  -31.0335   22.0918 N   0  0  0  0  0  0
  -23.4202  -28.8102   23.3018 O   0  0  0  0  0  0
  -28.3057  -26.2294   20.2499 O   0  0  0  0  0  0
  -26.5661  -34.8901   22.4645 O   0  0  0  0  0  0
  -23.5524  -32.1319   23.7141 O   0  0  0  0  0  0
  -28.5714  -18.2106   21.1635 C   0  0  0  0  0  0
  -28.4175  -19.6496   21.1391 C   0  0  0  0  0  0
  -29.3612  -20.5235   20.4981 C   0  0  0  0  0  0
  -29.6653  -17.4973   20.5844 C   0  0  0  0  0  0
  -30.4122  -19.7261   19.8939 C   0  0  0  0  0  0
  -27.2097  -20.2283   21.8516 C   0  0  0  0  0  0
  -30.7441  -22.8066   20.4279 C   0  0  0  0  0  0
  -32.5049  -19.6410   18.6803 C   0  0  0  0  0  0
  -28.4032  -24.8612   19.5489 C   0  0  0  0  0  0
  -29.3556  -22.1884   20.6590 C   0  0  1  0  0  0
  -28.2232  -23.2644   20.0616 C   0  0  1  0  0  0
  -30.5443  -18.3327   19.9465 N   0  0  0  0  0  0
  -29.6795  -15.9802   20.7044 N   0  0  0  0  0  0
  -27.0408  -23.2282   20.8363 O   0  0  0  0  0  0
  -31.4065  -20.3855   19.2018 O   0  0  0  0  0  0
  -31.4833  -12.7016   19.1847 H   0  0  0  0  0  0
  -30.4341  -11.5752   19.9950 H   0  0  0  0  0  0
  -29.8301  -11.7459   17.5575 H   0  0  0  0  0  0
  -29.6256  -13.4734   17.7118 H   0  0  0  0  0  0
  -27.9303  -11.2805   18.9422 H   0  0  0  0  0  0
  -27.3944  -12.4945   17.8093 H   0  0  0  0  0  0
  -27.6194  -14.2515   19.4492 H   0  0  0  0  0  0
  -28.7517  -12.2109   21.4253 H   0  0  0  0  0  0
  -28.3904  -13.8759   21.7993 H   0  0  0  0  0  0
  -25.2768   -9.5676   22.4765 H   0  0  0  0  0  0
  -23.9988   -7.4640   22.7485 H   0  0  0  0  0  0
  -21.0836   -8.8795   19.8959 H   0  0  0  0  0  0
  -22.3710  -10.9681   19.6165 H   0  0  0  0  0  0
  -21.2032   -7.6149   23.9712 H   0  0  0  0  0  0
  -21.1466   -6.0518   25.9068 H   0  0  0  0  0  0
  -22.0605   -2.7609   23.2842 H   0  0  0  0  0  0
  -22.4070  -11.9888   22.4812 H   0  0  0  0  0  0
  -21.1079  -13.1262   22.2616 H   0  0  0  0  0  0
  -24.6444  -15.8398   20.5158 H   0  0  0  0  0  0
  -26.2430  -15.6288   20.0185 H   0  0  0  0  0  0
  -26.7249  -32.5309   23.1007 H   0  0  0  0  0  0
  -25.0053  -33.9617   25.0317 H   0  0  0  0  0  0
  -22.7430  -31.2901   21.3835 H   0  0  0  0  0  0
  -23.3749  -35.9586   23.3299 H   0  0  0  0  0  0
  -24.3573  -36.8896   22.2060 H   0  0  0  0  0  0
  -23.7245  -37.6451   23.6685 H   0  0  0  0  0  0
  -26.1477  -31.4851   20.6129 H   0  0  0  0  0  0
  -26.8658  -30.7761   22.0250 H   0  0  0  0  0  0
  -28.1215  -28.8297   21.2347 H   0  0  0  0  0  0
  -25.9137  -25.8377   19.0321 H   0  0  0  0  0  0
  -23.9796  -27.2876   18.9945 H   0  0  0  0  0  0
  -23.7949  -30.5690   19.3972 H   0  0  0  0  0  0
  -22.7801  -29.2324   19.8469 H   0  0  0  0  0  0
  -25.1308  -36.1862   25.0807 H   0  0  0  0  0  0
  -20.9998  -28.3302   24.1362 H   0  0  0  0  0  0
  -20.5667  -26.2320   23.3622 H   0  0  0  0  0  0
  -21.6648  -26.7418   22.1210 H   0  0  0  0  0  0
  -19.6916  -25.6286   21.1250 H   0  0  0  0  0  0
  -19.6700  -27.3178   20.6731 H   0  0  0  0  0  0
  -17.4205  -26.6672   21.4028 H   0  0  0  0  0  0
  -18.0339  -26.0085   22.9024 H   0  0  0  0  0  0
  -19.7944  -30.7291   24.2242 H   0  0  0  0  0  0
  -17.5016  -31.6267   24.5161 H   0  0  0  0  0  0
  -15.5358  -30.2973   23.7676 H   0  0  0  0  0  0
  -15.8682  -28.0813   22.7082 H   0  0  0  0  0  0
  -24.5887  -30.7093   25.7738 H   0  0  0  0  0  0
  -24.8895  -32.2919   26.4809 H   0  0  0  0  0  0
  -25.7996  -30.8940   27.0218 H   0  0  0  0  0  0
  -26.2982  -29.6695   24.1285 H   0  0  0  0  0  0
  -27.3990  -29.7259   25.4847 H   0  0  0  0  0  0
  -27.8887  -30.4208   23.9584 H   0  0  0  0  0  0
  -27.2644  -33.3645   26.2028 H   0  0  0  0  0  0
  -28.3878  -32.6872   25.0336 H   0  0  0  0  0  0
  -28.0694  -31.8489   26.5450 H   0  0  0  0  0  0
  -28.2586  -38.0084   24.7504 H   0  0  0  0  0  0
  -28.1072  -36.2612   24.6296 H   0  0  0  0  0  0
  -27.2288  -37.1436   25.8868 H   0  0  0  0  0  0
  -20.9450  -29.8738   21.6790 H   0  0  0  0  0  0
  -26.0150  -38.2809   24.1413 H   0  0  0  0  0  0
  -27.8140  -17.6311   21.6746 H   0  0  0  0  0  0
  -26.6761  -19.4677   22.4215 H   0  0  0  0  0  0
  -26.5098  -20.6415   21.1260 H   0  0  0  0  0  0
  -27.4964  -21.0135   22.5501 H   0  0  0  0  0  0
  -31.5182  -22.2745   20.9820 H   0  0  0  0  0  0
  -30.7746  -23.8413   20.7701 H   0  0  0  0  0  0
  -31.0130  -22.8109   19.3717 H   0  0  0  0  0  0
  -33.2049  -20.3210   18.1960 H   0  0  0  0  0  0
  -32.1798  -18.9157   17.9328 H   0  0  0  0  0  0
  -33.0480  -19.1214   19.4714 H   0  0  0  0  0  0
  -27.7811  -24.9422   18.6596 H   0  0  0  0  0  0
  -29.3989  -24.8944   19.1081 H   0  0  0  0  0  0
  -29.2490  -22.2936   21.7392 H   0  0  0  0  0  0
  -27.9567  -22.7688   19.1268 H   0  0  0  0  0  0
  -28.7965  -15.6295   21.0355 H   0  0  0  0  0  0
  -27.1819  -23.7884   21.5933 H   0  0  0  0  0  0
  1 25  1  0  0  0
  1 30  2  0  0  0
  1 83  1  0  0  0
  2  3  1  0  0  0
  2 25  1  0  0  0
  2 86  1  0  0  0
  2 87  1  0  0  0
  3  4  1  0  0  0
  3 88  1  0  0  0
  3 89  1  0  0  0
  4  5  1  0  0  0
  4 90  1  0  0  0
  4 91  1  0  0  0
  5  6  1  0  0  0
  5 26  1  0  0  0
  5 92  1  0  0  0
  6 25  1  0  0  0
  6 93  1  0  0  0
  6 94  1  0  0  0
  7  8  2  0  0  0
  7 26  1  0  0  0
  7 29  1  0  0  0
  8  9  1  0  0  0
  8 22  1  0  0  0
  9 10  1  0  0  0
  9 27  2  0  0  0
 10 11  2  0  0  0
 10 15  1  0  0  0
 11 12  1  0  0  0
 11 95  1  0  0  0
 12 13  2  0  0  0
 12 96  1  0  0  0
 13 14  1  0  0  0
 13 31  1  0  0  0
 14 15  2  0  0  0
 14 97  1  0  0  0
 15 98  1  0  0  0
 16 17  2  0  0  0
 16 21  1  0  0  0
 16 31  1  0  0  0
 17 18  1  0  0  0
 17 99  1  0  0  0
 18 19  2  0  0  0
 18100  1  0  0  0
 19 20  1  0  0  0
 19 24  1  0  0  0
 20 21  2  0  0  0
 20101  1  0  0  0
 21 23  1  0  0  0
 22 28  1  0  0  0
 22 32  2  0  0  0
 26 27  1  0  0  0
 28102  1  0  0  0
 28103  1  0  0  0
 29104  1  0  0  0
 29105  1  0  0  0
 33 34  1  0  0  0
 33 66  1  0  0  0
 33 70  2  0  0  0
 34 36  1  0  0  0
 34 59  1  0  0  0
 34106  1  0  0  0
 35 44  2  0  0  0
 35 45  1  0  0  0
 35 68  1  0  0  0
 36 56  1  0  0  0
 36107  1  0  0  0
 37 39  1  0  0  0
 37 47  1  0  0  0
 37 66  1  0  0  0
 37108  1  0  0  0
 38 43  2  0  0  0
 38 46  1  0  0  0
 38 47  1  0  0  0
 39 64  1  0  0  0
 39 67  2  0  0  0
 40 52  1  0  0  0
 40 53  2  0  0  0
 40 58  1  0  0  0
 41109  1  0  0  0
 41110  1  0  0  0
 41111  1  0  0  0
 41 48  1  0  0  0
 42 43  1  0  0  0
 42 66  1  0  0  0
 42112  1  0  0  0
 42113  1  0  0  0
 43 44  1  0  0  0
 44114  1  0  0  0
 45 46  2  0  0  0
 45115  1  0  0  0
 46116  1  0  0  0
 47117  1  0  0  0
 47118  1  0  0  0
 48 56  1  0  0  0
 48 65  1  0  0  0
 48119  1  0  0  0
 49 50  1  0  0  0
 49 53  1  0  0  0
 49 64  1  0  0  0
 49120  1  0  0  0
 50 51  1  0  0  0
 50121  1  0  0  0
 50122  1  0  0  0
 51 52  1  0  0  0
 51123  1  0  0  0
 51124  1  0  0  0
 52125  1  0  0  0
 52126  1  0  0  0
 53 54  1  0  0  0
 54 55  2  0  0  0
 54127  1  0  0  0
 55 57  1  0  0  0
 55128  1  0  0  0
 56 69  2  0  0  0
 57 58  2  0  0  0
 57129  1  0  0  0
 58130  1  0  0  0
 59 60  1  0  0  0
 59 61  1  0  0  0
 59 62  1  0  0  0
 60131  1  0  0  0
 60132  1  0  0  0
 60133  1  0  0  0
 61134  1  0  0  0
 61135  1  0  0  0
 61136  1  0  0  0
 62137  1  0  0  0
 62138  1  0  0  0
 62139  1  0  0  0
 63 65  1  0  0  0
 63140  1  0  0  0
 63141  1  0  0  0
 63142  1  0  0  0
 64143  1  0  0  0
 65144  1  0  0  0
 68 79  1  0  0  0
 71 72  2  0  0  0
 71 74  1  0  0  0
 71145  1  0  0  0
 72 73  1  0  0  0
 72 76  1  0  0  0
 73 75  2  0  0  0
 73 80  1  0  0  0
 74 82  2  0  0  0
 74 83  1  0  0  0
 75 82  1  0  0  0
 75 85  1  0  0  0
 76146  1  0  0  0
 76147  1  0  0  0
 76148  1  0  0  0
 77149  1  0  0  0
 77150  1  0  0  0
 77151  1  0  0  0
 77 80  1  0  0  0
 78 85  1  0  0  0
 78152  1  0  0  0
 78153  1  0  0  0
 78154  1  0  0  0
 79 81  1  0  0  0
 79155  1  0  0  0
 79156  1  0  0  0
 80 81  1  0  0  0
 80157  1  0  0  0
 81 84  1  0  0  0
 81158  1  0  0  0
 83159  1  0  0  0
 84160  1  0  0  0
M  ISO  4   1 100  68 101  79 101  83 100
M  END
> <chiral flag>
0

> <version>
0

> <s_m_source_file>
/data/baiqing/PycharmProjects/Reinvent-master-3.2/result/LINK_invent/BTK/process_docking_weight1_custom_sum_contain_oxygen_bond_distance_aromatic_linkinvent_7_9_3/rearranged_h_0109.sdf

> <i_m_source_file_index>
74

> <r_mmod_Potential_Energy-OPLS-2005>
290.263397216797

> <r_mmod_Stretch_Energy-OPLS-2005>
222.730270385742

> <r_mmod_Bend_Energy-OPLS-2005>
310.957122802734

> <r_mmod_Torsional_Energy-OPLS-2005>
220.436187744141

> <r_mmod_Improper_Torsional_Energy-OPLS-2005>
4.90000247955322

> <r_mmod_Van_der_Waal_Energy-OPLS-2005>
146.782150268555

> <r_mmod_Electrostatic_Energy-OPLS-2005>
-535.237854003906

> <r_mmod_Solvation_Energy-OPLS-2005>
-235.618530273438

> <b_mmod_Minimization_Converged-OPLS-2005>
0

> <r_mmod_RMS_Derivative-OPLS-2005>
1.05880534648895

$$$$
74
                    3D
 Structure written by MMmdl.
162170  0  0  1  0            999 V2000
  -30.5295  -14.9864   20.3906 C   0  0  0  0  0  0
  -30.4417  -12.6156   19.4730 C   0  0  0  0  0  0
  -29.5199  -12.5604   18.2350 C   0  0  0  0  0  0
  -28.0547  -12.3327   18.6581 C   0  0  0  0  0  0
  -27.6253  -13.2584   19.8274 C   0  0  2  0  0  0
  -28.6760  -13.2981   20.9572 C   0  0  0  0  0  0
  -25.2458  -13.8245   20.5799 C   0  0  0  0  0  0
  -24.1801  -13.0461   20.9258 C   0  0  0  0  0  0
  -24.6373  -11.6935   20.8702 C   0  0  0  0  0  0
  -23.9063  -10.4310   21.0358 C   0  0  0  0  0  0
  -24.3617   -9.4239   21.9138 C   0  0  0  0  0  0
  -23.6318   -8.2278   22.0735 C   0  0  0  0  0  0
  -22.4275   -8.0339   21.3573 C   0  0  0  0  0  0
  -21.9899   -9.0262   20.4650 C   0  0  0  0  0  0
  -22.7215  -10.2138   20.3034 C   0  0  0  0  0  0
  -21.6857   -6.0771   22.5294 C   0  0  0  0  0  0
  -21.3986   -6.5645   23.8245 C   0  0  0  0  0  0
  -21.3679   -5.6800   24.9187 C   0  0  0  0  0  0
  -21.6061   -4.3065   24.7240 C   0  0  0  0  0  0
  -21.8804   -3.8162   23.4337 C   0  0  0  0  0  0
  -21.9175   -4.6982   22.3388 C   0  0  0  0  0  0
  -22.7818  -13.5240   21.1891 C   0  0  0  0  0  0
  -22.1621   -4.2185   21.0976 F   0  0  0  0  0  0
  -21.5632   -3.4543   25.7724 F   0  0  0  0  0  0
  -29.9363  -13.7236   20.3358 N   0  0  0  0  0  0
  -26.2874  -12.9481   20.3210 N   0  0  0  0  0  0
  -25.9300  -11.6605   20.5623 N   0  0  0  0  0  0
  -22.0421  -12.8294   22.0441 N   0  0  0  0  0  0
  -25.4056  -15.2026   20.4316 N   0  0  0  0  0  0
  -31.7539  -15.0334   20.2326 O   0  0  0  0  0  0
  -21.6634   -6.8922   21.4300 O   0  0  0  0  0  0
  -22.3512  -14.5523   20.6689 O   0  0  0  0  0  0
  -24.6412  -31.8441   23.1789 C   0  0  0  0  0  0
  -25.9168  -32.4694   23.8174 C   0  0  1  0  0  0
  -27.2117  -27.1039   20.1411 C   0  0  0  0  0  0
  -25.5951  -33.8497   24.2099 N   0  0  0  0  0  0
  -23.4482  -30.4562   21.5350 C   0  0  2  0  0  0
  -24.8916  -28.8762   20.1030 C   0  0  0  0  0  0
  -22.7520  -29.4569   22.4931 C   0  0  0  0  0  0
  -18.0302  -28.1457   22.8495 C   0  0  0  0  0  0
  -24.1561  -36.7269   23.2608 C   0  0  0  0  0  0
  -25.9986  -30.7133   21.3648 C   0  0  0  0  0  0
  -26.0703  -29.3148   20.7198 C   0  0  0  0  0  0
  -27.2237  -28.4393   20.7289 C   0  0  0  0  0  0
  -26.0125  -26.7872   19.4617 C   0  0  0  0  0  0
  -24.8775  -27.6280   19.4594 C   0  0  0  0  0  0
  -23.6658  -29.7764   20.1586 C   0  0  0  0  0  0
  -25.4188  -36.3005   24.0270 C   0  0  1  0  0  0
  -20.5901  -28.3770   23.1296 C   0  0  2  0  0  0
  -20.6796  -26.9504   22.5431 C   0  0  0  0  0  0
  -19.5789  -26.6463   21.5236 C   0  0  0  0  0  0
  -18.1962  -26.7999   22.1652 C   0  0  0  0  0  0
  -19.1548  -28.8932   23.2906 C   0  0  0  0  0  0
  -18.9443  -30.1519   23.8955 C   0  0  0  0  0  0
  -17.6423  -30.6630   24.0598 C   0  0  0  0  0  0
  -25.9124  -34.9396   23.4994 C   0  0  0  0  0  0
  -16.5336  -29.9121   23.6321 C   0  0  0  0  0  0
  -16.7284  -28.6554   23.0344 C   0  0  0  0  0  0
  -26.4513  -31.6473   25.0515 C   0  0  0  0  0  0
  -25.3730  -31.3609   26.1209 C   0  0  0  0  0  0
  -27.0212  -30.2859   24.5884 C   0  0  0  0  0  0
  -27.6101  -32.4107   25.7327 C   0  0  0  0  0  0
  -27.5613  -37.1814   24.8469 C   0  0  0  0  0  0
  -21.4217  -29.3078   22.3630 N   0  0  0  0  0  0
  -26.4348  -37.3700   23.9356 N   0  0  0  0  0  0
  -24.7209  -31.0225   22.0866 N   0  0  0  0  0  0
  -23.4105  -28.8118   23.3133 O   0  0  0  0  0  0
  -28.2695  -26.1135   20.2538 O   0  0  0  0  0  0
  -26.5725  -34.8902   22.4586 O   0  0  0  0  0  0
  -23.5527  -32.1388   23.6970 O   0  0  0  0  0  0
  -29.2779  -20.4141   20.6643 C   0  0  0  0  0  0
  -29.5603  -19.1095   20.0025 C   0  0  0  0  0  0
  -29.5315  -19.2383   18.5885 C   0  0  0  0  0  0
  -28.9505  -21.6950   19.9831 C   0  0  0  0  0  0
  -29.1523  -20.4695   17.9828 C   0  0  0  0  0  0
  -30.0335  -18.0893   17.7118 C   0  0  0  0  0  0
  -30.2395  -23.6138   21.1092 C   0  0  0  0  0  0
  -27.9193  -23.0868   21.9217 C   0  0  0  0  0  0
  -27.8900  -20.2223   16.0139 C   0  0  0  0  0  0
  -30.1154  -17.7053   20.7037 C   0  0  0  0  0  0
  -28.2119  -24.5942   19.8258 C   0  0  0  0  0  0
  -28.8125  -23.2260   20.6588 C   0  0  0  0  0  0
  -28.8866  -21.6340   18.6345 N   0  0  0  0  0  0
  -29.7540  -16.1872   20.4178 N   0  0  0  0  0  0
  -29.1289  -20.5852   16.6160 O   0  0  0  0  0  0
  -31.4737  -12.7789   19.1596 H   0  0  0  0  0  0
  -30.4362  -11.6546   19.9969 H   0  0  0  0  0  0
  -29.8501  -11.7881   17.5368 H   0  0  0  0  0  0
  -29.5935  -13.5095   17.7006 H   0  0  0  0  0  0
  -27.9605  -11.2903   18.9581 H   0  0  0  0  0  0
  -27.3909  -12.4699   17.7994 H   0  0  0  0  0  0
  -27.5801  -14.2612   19.4011 H   0  0  0  0  0  0
  -28.7838  -12.3277   21.4439 H   0  0  0  0  0  0
  -28.3808  -14.0042   21.7327 H   0  0  0  0  0  0
  -25.2755   -9.5700   22.4733 H   0  0  0  0  0  0
  -24.0037   -7.4669   22.7446 H   0  0  0  0  0  0
  -21.0825   -8.8802   19.8962 H   0  0  0  0  0  0
  -22.3680  -10.9692   19.6143 H   0  0  0  0  0  0
  -21.1959   -7.6154   23.9746 H   0  0  0  0  0  0
  -21.1536   -6.0517   25.9125 H   0  0  0  0  0  0
  -22.0560   -2.7637   23.2823 H   0  0  0  0  0  0
  -22.3933  -11.9907   22.4790 H   0  0  0  0  0  0
  -21.1055  -13.1419   22.2581 H   0  0  0  0  0  0
  -24.6452  -15.8473   20.6201 H   0  0  0  0  0  0
  -26.2192  -15.6569   20.0395 H   0  0  0  0  0  0
  -26.7185  -32.5253   23.0875 H   0  0  0  0  0  0
  -24.9918  -33.9657   25.0114 H   0  0  0  0  0  0
  -22.7564  -31.2859   21.3769 H   0  0  0  0  0  0
  -23.3776  -35.9644   23.3246 H   0  0  0  0  0  0
  -24.3695  -36.8910   22.2025 H   0  0  0  0  0  0
  -23.7381  -37.6490   23.6673 H   0  0  0  0  0  0
  -26.1050  -31.4611   20.5756 H   0  0  0  0  0  0
  -26.8939  -30.8039   21.9688 H   0  0  0  0  0  0
  -28.1191  -28.7671   21.2369 H   0  0  0  0  0  0
  -25.9101  -25.8459   18.9465 H   0  0  0  0  0  0
  -23.9788  -27.2957   18.9550 H   0  0  0  0  0  0
  -23.7859  -30.5522   19.4042 H   0  0  0  0  0  0
  -22.7815  -29.2060   19.8612 H   0  0  0  0  0  0
  -25.1391  -36.1850   25.0757 H   0  0  0  0  0  0
  -21.0026  -28.3417   24.1419 H   0  0  0  0  0  0
  -20.5753  -26.2405   23.3649 H   0  0  0  0  0  0
  -21.6652  -26.7598   22.1210 H   0  0  0  0  0  0
  -19.6993  -25.6382   21.1272 H   0  0  0  0  0  0
  -19.6716  -27.3283   20.6772 H   0  0  0  0  0  0
  -17.4219  -26.6761   21.4060 H   0  0  0  0  0  0
  -18.0384  -26.0179   22.9089 H   0  0  0  0  0  0
  -19.7909  -30.7338   24.2372 H   0  0  0  0  0  0
  -17.4961  -31.6319   24.5176 H   0  0  0  0  0  0
  -15.5341  -30.3007   23.7603 H   0  0  0  0  0  0
  -15.8718  -28.0859   22.7014 H   0  0  0  0  0  0
  -24.6175  -30.6625   25.7582 H   0  0  0  0  0  0
  -24.8605  -32.2695   26.4335 H   0  0  0  0  0  0
  -25.8096  -30.9106   27.0119 H   0  0  0  0  0  0
  -26.2745  -29.6853   24.0679 H   0  0  0  0  0  0
  -27.3618  -29.6858   25.4312 H   0  0  0  0  0  0
  -27.8730  -30.4011   23.9194 H   0  0  0  0  0  0
  -27.2843  -33.3540   26.1706 H   0  0  0  0  0  0
  -28.4074  -32.6415   25.0247 H   0  0  0  0  0  0
  -28.0551  -31.8272   26.5410 H   0  0  0  0  0  0
  -28.2584  -38.0133   24.7446 H   0  0  0  0  0  0
  -28.1172  -36.2661   24.6400 H   0  0  0  0  0  0
  -27.2338  -37.1542   25.8872 H   0  0  0  0  0  0
  -20.9413  -29.8650   21.6696 H   0  0  0  0  0  0
  -26.0215  -38.2763   24.1311 H   0  0  0  0  0  0
  -29.3860  -20.4474   21.7396 H   0  0  0  0  0  0
  -31.0147  -17.7627   18.0605 H   0  0  0  0  0  0
  -30.1566  -18.3740   16.6647 H   0  0  0  0  0  0
  -29.3571  -17.2363   17.7415 H   0  0  0  0  0  0
  -30.9239  -23.6616   20.2563 H   0  0  0  0  0  0
  -30.2548  -24.5932   21.5886 H   0  0  0  0  0  0
  -30.6488  -22.8998   21.8245 H   0  0  0  0  0  0
  -28.3100  -22.3423   22.6168 H   0  0  0  0  0  0
  -26.9002  -22.7892   21.6582 H   0  0  0  0  0  0
  -27.8303  -24.0145   22.4911 H   0  0  0  0  0  0
  -27.5070  -19.2741   16.3964 H   0  0  0  0  0  0
  -28.0228  -20.1143   14.9311 H   0  0  0  0  0  0
  -27.1367  -20.9929   16.1939 H   0  0  0  0  0  0
  -31.1958  -17.7571   20.5703 H   0  0  0  0  0  0
  -29.9897  -17.8341   21.7755 H   0  0  0  0  0  0
  -28.7786  -24.6113   18.8965 H   0  0  0  0  0  0
  -27.2051  -24.3229   19.5168 H   0  0  0  0  0  0
  -28.7599  -16.0288   20.3546 H   0  0  0  0  0  0
  1 25  1  0  0  0
  1 30  2  0  0  0
  1 84  1  0  0  0
  2  3  1  0  0  0
  2 25  1  0  0  0
  2 86  1  0  0  0
  2 87  1  0  0  0
  3  4  1  0  0  0
  3 88  1  0  0  0
  3 89  1  0  0  0
  4  5  1  0  0  0
  4 90  1  0  0  0
  4 91  1  0  0  0
  5  6  1  0  0  0
  5 26  1  0  0  0
  5 92  1  0  0  0
  6 25  1  0  0  0
  6 93  1  0  0  0
  6 94  1  0  0  0
  7  8  2  0  0  0
  7 26  1  0  0  0
  7 29  1  0  0  0
  8  9  1  0  0  0
  8 22  1  0  0  0
  9 10  1  0  0  0
  9 27  2  0  0  0
 10 11  2  0  0  0
 10 15  1  0  0  0
 11 12  1  0  0  0
 11 95  1  0  0  0
 12 13  2  0  0  0
 12 96  1  0  0  0
 13 14  1  0  0  0
 13 31  1  0  0  0
 14 15  2  0  0  0
 14 97  1  0  0  0
 15 98  1  0  0  0
 16 17  2  0  0  0
 16 21  1  0  0  0
 16 31  1  0  0  0
 17 18  1  0  0  0
 17 99  1  0  0  0
 18 19  2  0  0  0
 18100  1  0  0  0
 19 20  1  0  0  0
 19 24  1  0  0  0
 20 21  2  0  0  0
 20101  1  0  0  0
 21 23  1  0  0  0
 22 28  1  0  0  0
 22 32  2  0  0  0
 26 27  1  0  0  0
 28102  1  0  0  0
 28103  1  0  0  0
 29104  1  0  0  0
 29105  1  0  0  0
 33 34  1  0  0  0
 33 66  1  0  0  0
 33 70  2  0  0  0
 34 36  1  0  0  0
 34 59  1  0  0  0
 34106  1  0  0  0
 35 44  2  0  0  0
 35 45  1  0  0  0
 35 68  1  0  0  0
 36 56  1  0  0  0
 36107  1  0  0  0
 37 39  1  0  0  0
 37 47  1  0  0  0
 37 66  1  0  0  0
 37108  1  0  0  0
 38 43  2  0  0  0
 38 46  1  0  0  0
 38 47  1  0  0  0
 39 64  1  0  0  0
 39 67  2  0  0  0
 40 52  1  0  0  0
 40 53  2  0  0  0
 40 58  1  0  0  0
 41109  1  0  0  0
 41110  1  0  0  0
 41111  1  0  0  0
 41 48  1  0  0  0
 42 43  1  0  0  0
 42 66  1  0  0  0
 42112  1  0  0  0
 42113  1  0  0  0
 43 44  1  0  0  0
 44114  1  0  0  0
 45 46  2  0  0  0
 45115  1  0  0  0
 46116  1  0  0  0
 47117  1  0  0  0
 47118  1  0  0  0
 48 56  1  0  0  0
 48 65  1  0  0  0
 48119  1  0  0  0
 49 50  1  0  0  0
 49 53  1  0  0  0
 49 64  1  0  0  0
 49120  1  0  0  0
 50 51  1  0  0  0
 50121  1  0  0  0
 50122  1  0  0  0
 51 52  1  0  0  0
 51123  1  0  0  0
 51124  1  0  0  0
 52125  1  0  0  0
 52126  1  0  0  0
 53 54  1  0  0  0
 54 55  2  0  0  0
 54127  1  0  0  0
 55 57  1  0  0  0
 55128  1  0  0  0
 56 69  2  0  0  0
 57 58  2  0  0  0
 57129  1  0  0  0
 58130  1  0  0  0
 59 60  1  0  0  0
 59 61  1  0  0  0
 59 62  1  0  0  0
 60131  1  0  0  0
 60132  1  0  0  0
 60133  1  0  0  0
 61134  1  0  0  0
 61135  1  0  0  0
 61136  1  0  0  0
 62137  1  0  0  0
 62138  1  0  0  0
 62139  1  0  0  0
 63 65  1  0  0  0
 63140  1  0  0  0
 63141  1  0  0  0
 63142  1  0  0  0
 64143  1  0  0  0
 65144  1  0  0  0
 68 81  1  0  0  0
 71 72  2  0  0  0
 71 74  1  0  0  0
 71145  1  0  0  0
 72 73  1  0  0  0
 72 80  1  0  0  0
 73 75  2  0  0  0
 73 76  1  0  0  0
 74 82  1  0  0  0
 74 83  2  0  0  0
 75 83  1  0  0  0
 75 85  1  0  0  0
 76146  1  0  0  0
 76147  1  0  0  0
 76148  1  0  0  0
 77149  1  0  0  0
 77150  1  0  0  0
 77151  1  0  0  0
 77 82  1  0  0  0
 78 82  1  0  0  0
 78152  1  0  0  0
 78153  1  0  0  0
 78154  1  0  0  0
 79 85  1  0  0  0
 79155  1  0  0  0
 79156  1  0  0  0
 79157  1  0  0  0
 80 84  1  0  0  0
 80158  1  0  0  0
 80159  1  0  0  0
 81 82  1  0  0  0
 81160  1  0  0  0
 81161  1  0  0  0
 84162  1  0  0  0
M  ISO  4   1 100  68 101  81 101  84 100
M  END
> <chiral flag>
0

> <version>
0

> <s_m_source_file>
/data/baiqing/PycharmProjects/Reinvent-master-3.2/result/LINK_invent/BTK/process_docking_weight1_custom_sum_contain_oxygen_bond_distance_aromatic_linkinvent_7_9_3/rearranged_h_0109.sdf

> <i_m_source_file_index>
75

> <r_mmod_Potential_Energy-OPLS-2005>
299.650024414062

> <r_mmod_Stretch_Energy-OPLS-2005>
293.590545654297

> <r_mmod_Bend_Energy-OPLS-2005>
277.734893798828

> <r_mmod_Torsional_Energy-OPLS-2005>
252.274856567383

> <r_mmod_Improper_Torsional_Energy-OPLS-2005>
6.75413465499878

> <r_mmod_Van_der_Waal_Energy-OPLS-2005>
127.582939147949

> <r_mmod_Electrostatic_Energy-OPLS-2005>
-658.770812988281

> <r_mmod_Solvation_Energy-OPLS-2005>
-222.012008666992

> <b_mmod_Minimization_Converged-OPLS-2005>
0

> <r_mmod_RMS_Derivative-OPLS-2005>
7.83340120315552

$$$$
75
                    3D
 Structure written by MMmdl.
177185  0  0  1  0            999 V2000
  -30.7971  -14.3216   20.7229 C   0  0  0  0  0  0
  -30.4168  -12.2851   19.3885 C   0  0  0  0  0  0
  -29.4804  -12.5206   18.1911 C   0  0  0  0  0  0
  -28.0072  -12.3764   18.6118 C   0  0  0  0  0  0
  -27.6677  -13.2020   19.8790 C   0  0  2  0  0  0
  -28.7028  -12.9444   20.9949 C   0  0  0  0  0  0
  -25.2618  -13.8163   20.5679 C   0  0  0  0  0  0
  -24.1863  -13.0448   20.9161 C   0  0  0  0  0  0
  -24.6404  -11.6909   20.8723 C   0  0  0  0  0  0
  -23.9063  -10.4299   21.0403 C   0  0  0  0  0  0
  -24.3614   -9.4216   21.9188 C   0  0  0  0  0  0
  -23.6292   -8.2250   22.0756 C   0  0  0  0  0  0
  -22.4274   -8.0286   21.3543 C   0  0  0  0  0  0
  -21.9915   -9.0260   20.4644 C   0  0  0  0  0  0
  -22.7236  -10.2139   20.3055 C   0  0  0  0  0  0
  -21.6854   -6.0739   22.5277 C   0  0  0  0  0  0
  -21.4014   -6.5641   23.8212 C   0  0  0  0  0  0
  -21.3659   -5.6793   24.9173 C   0  0  0  0  0  0
  -21.6043   -4.3057   24.7225 C   0  0  0  0  0  0
  -21.8821   -3.8148   23.4346 C   0  0  0  0  0  0
  -21.9195   -4.6967   22.3401 C   0  0  0  0  0  0
  -22.7881  -13.5245   21.1828 C   0  0  0  0  0  0
  -22.1663   -4.2152   21.0980 F   0  0  0  0  0  0
  -21.5629   -3.4541   25.7737 F   0  0  0  0  0  0
  -30.0513  -13.2198   20.4613 N   0  0  0  0  0  0
  -26.3058  -12.9328   20.3377 N   0  0  0  0  0  0
  -25.9329  -11.6487   20.5758 N   0  0  0  0  0  0
  -22.0520  -12.8239   22.0372 N   0  0  0  0  0  0
  -25.4366  -15.1883   20.4097 N   0  0  0  0  0  0
  -31.7902  -14.6442   20.0619 O   0  0  0  0  0  0
  -21.6638   -6.8885   21.4240 O   0  0  0  0  0  0
  -22.3566  -14.5555   20.6674 O   0  0  0  0  0  0
  -24.6113  -31.8695   23.2141 C   0  0  0  0  0  0
  -25.9016  -32.4834   23.8417 C   0  0  1  0  0  0
  -27.2278  -27.4759   20.0771 C   0  0  0  0  0  0
  -25.5908  -33.8629   24.2370 N   0  0  0  0  0  0
  -23.3947  -30.4942   21.5592 C   0  0  2  0  0  0
  -24.8364  -28.9717   20.1146 C   0  0  0  0  0  0
  -22.7401  -29.4632   22.5050 C   0  0  0  0  0  0
  -18.0277  -28.1356   22.8477 C   0  0  0  0  0  0
  -24.1492  -36.7307   23.2642 C   0  0  0  0  0  0
  -25.9175  -30.8571   21.3497 C   0  0  0  0  0  0
  -25.9983  -29.4950   20.6943 C   0  0  0  0  0  0
  -27.1998  -28.7565   20.6661 C   0  0  0  0  0  0
  -26.0506  -26.9679   19.4797 C   0  0  0  0  0  0
  -24.8563  -27.7077   19.5029 C   0  0  0  0  0  0
  -23.5952  -29.8282   20.1733 C   0  0  0  0  0  0
  -25.4101  -36.3108   24.0354 C   0  0  1  0  0  0
  -20.5858  -28.3622   23.1375 C   0  0  2  0  0  0
  -20.6761  -26.9355   22.5489 C   0  0  0  0  0  0
  -19.5772  -26.6321   21.5264 C   0  0  0  0  0  0
  -18.1932  -26.7905   22.1618 C   0  0  0  0  0  0
  -19.1518  -28.8816   23.2910 C   0  0  0  0  0  0
  -18.9428  -30.1430   23.8891 C   0  0  0  0  0  0
  -17.6420  -30.6559   24.0528 C   0  0  0  0  0  0
  -25.9022  -34.9475   23.5145 C   0  0  0  0  0  0
  -16.5321  -29.9025   23.6314 C   0  0  0  0  0  0
  -16.7261  -28.6459   23.0318 C   0  0  0  0  0  0
  -26.4507  -31.6587   25.0701 C   0  0  0  0  0  0
  -25.3835  -31.3589   26.1477 C   0  0  0  0  0  0
  -27.0370  -30.3088   24.5956 C   0  0  0  0  0  0
  -27.6095  -32.4309   25.7448 C   0  0  0  0  0  0
  -27.5585  -37.1784   24.8472 C   0  0  0  0  0  0
  -21.4140  -29.2987   22.3803 N   0  0  0  0  0  0
  -26.4289  -37.3793   23.9432 N   0  0  0  0  0  0
  -24.6612  -31.0830   22.1027 N   0  0  0  0  0  0
  -23.4212  -28.8127   23.3027 O   0  0  0  0  0  0
  -28.3975  -26.7533   20.1318 O   0  0  0  0  0  0
  -26.5560  -34.8913   22.4689 O   0  0  0  0  0  0
  -23.5320  -32.1421   23.7576 O   0  0  0  0  0  0
  -28.9109  -18.4167   22.5413 C   0  0  0  0  0  0
  -29.6019  -18.9462   20.1501 C   0  0  0  0  0  0
  -27.5343  -19.0452   22.2653 C   0  0  0  0  0  0
  -28.2103  -19.5382   19.8980 C   0  0  0  0  0  0
  -29.5882  -17.8795   21.2607 C   0  0  1  0  0  0
  -27.6366  -20.1449   21.1892 C   0  0  1  0  0  0
  -29.5126  -25.2647   22.6262 C   0  0  0  0  0  0
  -27.1231  -25.9480   22.7161 C   0  0  0  0  0  0
  -31.0282  -17.4008   21.5363 C   0  0  0  0  0  0
  -26.2946  -20.8600   20.9193 C   0  0  0  0  0  0
  -27.7292  -23.5561   22.1337 C   0  0  0  0  0  0
  -31.1383  -16.1326   22.4046 C   0  0  0  0  0  0
  -26.2469  -23.2140   21.8166 C   0  0  0  0  0  0
  -28.2792  -25.3627   20.4470 C   0  0  0  0  0  0
  -28.1357  -25.0474   21.9693 C   0  0  0  0  0  0
  -30.4357  -14.9923   21.8221 N   0  0  0  0  0  0
  -25.8995  -21.7845   22.0059 N   0  3  0  0  0  0
  -31.4573  -12.3945   19.0771 H   0  0  0  0  0  0
  -30.3270  -11.2605   19.7522 H   0  0  0  0  0  0
  -29.7104  -11.8136   17.3930 H   0  0  0  0  0  0
  -29.6513  -13.5163   17.7795 H   0  0  0  0  0  0
  -27.8160  -11.3187   18.7968 H   0  0  0  0  0  0
  -27.3513  -12.6644   17.7897 H   0  0  0  0  0  0
  -27.7287  -14.2557   19.6056 H   0  0  0  0  0  0
  -28.6565  -11.9050   21.3232 H   0  0  0  0  0  0
  -28.4439  -13.5357   21.8732 H   0  0  0  0  0  0
  -25.2763   -9.5690   22.4761 H   0  0  0  0  0  0
  -23.9996   -7.4648   22.7485 H   0  0  0  0  0  0
  -21.0847   -8.8781   19.8954 H   0  0  0  0  0  0
  -22.3705  -10.9678   19.6160 H   0  0  0  0  0  0
  -21.2004   -7.6150   23.9715 H   0  0  0  0  0  0
  -21.1479   -6.0526   25.9077 H   0  0  0  0  0  0
  -22.0600   -2.7613   23.2845 H   0  0  0  0  0  0
  -22.4122  -11.9885   22.4743 H   0  0  0  0  0  0
  -21.1141  -13.1271   22.2577 H   0  0  0  0  0  0
  -24.6780  -15.8498   20.5308 H   0  0  0  0  0  0
  -26.2995  -15.6239   20.1087 H   0  0  0  0  0  0
  -26.7049  -32.5598   23.1160 H   0  0  0  0  0  0
  -25.0185  -33.9808   25.0600 H   0  0  0  0  0  0
  -22.6818  -31.3111   21.4265 H   0  0  0  0  0  0
  -23.3770  -35.9622   23.3307 H   0  0  0  0  0  0
  -24.3599  -36.8927   22.2055 H   0  0  0  0  0  0
  -23.7219  -37.6505   23.6648 H   0  0  0  0  0  0
  -26.0057  -31.6242   20.5785 H   0  0  0  0  0  0
  -26.8153  -30.9232   21.9518 H   0  0  0  0  0  0
  -28.0985  -29.1505   21.1215 H   0  0  0  0  0  0
  -26.0277  -26.0086   18.9866 H   0  0  0  0  0  0
  -23.9633  -27.3026   19.0471 H   0  0  0  0  0  0
  -23.6949  -30.6012   19.4119 H   0  0  0  0  0  0
  -22.7194  -29.2432   19.8851 H   0  0  0  0  0  0
  -25.1266  -36.1975   25.0847 H   0  0  0  0  0  0
  -20.9926  -28.3168   24.1504 H   0  0  0  0  0  0
  -20.5701  -26.2218   23.3682 H   0  0  0  0  0  0
  -21.6618  -26.7426   22.1251 H   0  0  0  0  0  0
  -19.6918  -25.6205   21.1361 H   0  0  0  0  0  0
  -19.6764  -27.3069   20.6746 H   0  0  0  0  0  0
  -17.4243  -26.6696   21.3970 H   0  0  0  0  0  0
  -18.0248  -26.0064   22.9013 H   0  0  0  0  0  0
  -19.7899  -30.7257   24.2269 H   0  0  0  0  0  0
  -17.4954  -31.6238   24.5114 H   0  0  0  0  0  0
  -15.5301  -30.2869   23.7670 H   0  0  0  0  0  0
  -15.8693  -28.0749   22.7002 H   0  0  0  0  0  0
  -24.5996  -30.6969   25.7781 H   0  0  0  0  0  0
  -24.9059  -32.2713   26.5058 H   0  0  0  0  0  0
  -25.8260  -30.8656   27.0142 H   0  0  0  0  0  0
  -26.2864  -29.6752   24.1216 H   0  0  0  0  0  0
  -27.4488  -29.7379   25.4282 H   0  0  0  0  0  0
  -27.8506  -30.4538   23.8845 H   0  0  0  0  0  0
  -27.2733  -33.3598   26.2061 H   0  0  0  0  0  0
  -28.3858  -32.6891   25.0234 H   0  0  0  0  0  0
  -28.0805  -31.8422   26.5335 H   0  0  0  0  0  0
  -28.2565  -38.0116   24.7551 H   0  0  0  0  0  0
  -28.1121  -36.2649   24.6245 H   0  0  0  0  0  0
  -27.2323  -37.1345   25.8880 H   0  0  0  0  0  0
  -20.9287  -29.8729   21.7064 H   0  0  0  0  0  0
  -26.0197  -38.2874   24.1470 H   0  0  0  0  0  0
  -28.7945  -17.6118   23.2676 H   0  0  0  0  0  0
  -29.5548  -19.1602   23.0134 H   0  0  0  0  0  0
  -30.2917  -19.7488   20.4146 H   0  0  0  0  0  0
  -29.9818  -18.5140   19.2239 H   0  0  0  0  0  0
  -27.1399  -19.4539   23.1965 H   0  0  0  0  0  0
  -26.8331  -18.2696   21.9507 H   0  0  0  0  0  0
  -27.5403  -18.7694   19.5089 H   0  0  0  0  0  0
  -28.2870  -20.3012   19.1229 H   0  0  0  0  0  0
  -28.9977  -17.0412   20.8883 H   0  0  0  0  0  0
  -28.3620  -20.8749   21.5407 H   0  0  0  0  0  0
  -29.4854  -25.0613   23.6962 H   0  0  0  0  0  0
  -29.8527  -26.2946   22.5048 H   0  0  0  0  0  0
  -30.2725  -24.6163   22.1886 H   0  0  0  0  0  0
  -26.9158  -25.5760   23.7204 H   0  0  0  0  0  0
  -26.1694  -26.0208   22.1926 H   0  0  0  0  0  0
  -27.5026  -26.9629   22.8408 H   0  0  0  0  0  0
  -31.5953  -18.2058   22.0059 H   0  0  0  0  0  0
  -31.5322  -17.2164   20.5867 H   0  0  0  0  0  0
  -25.5087  -20.1133   20.7941 H   0  0  0  0  0  0
  -26.3302  -21.4082   19.9764 H   0  0  0  0  0  0
  -28.3896  -22.9783   21.4900 H   0  0  0  0  0  0
  -27.9424  -23.2324   23.1537 H   0  0  0  0  0  0
  -30.7366  -16.3193   23.4010 H   0  0  0  0  0  0
  -32.1879  -15.8739   22.5519 H   0  0  0  0  0  0
  -25.9652  -23.5313   20.8121 H   0  0  0  0  0  0
  -25.5991  -23.7704   22.4939 H   0  0  0  0  0  0
  -27.5043  -24.8726   19.8675 H   0  0  0  0  0  0
  -29.1902  -24.8893   20.0801 H   0  0  0  0  0  0
  -29.6267  -14.6453   22.3169 H   0  0  0  0  0  0
  -26.2254  -21.4517   22.8981 H   0  0  0  0  0  0
  -24.8927  -21.7488   22.0437 H   0  0  0  0  0  0
  1 25  1  0  0  0
  1 30  2  0  0  0
  1 86  1  0  0  0
  2  3  1  0  0  0
  2 25  1  0  0  0
  2 88  1  0  0  0
  2 89  1  0  0  0
  3  4  1  0  0  0
  3 90  1  0  0  0
  3 91  1  0  0  0
  4  5  1  0  0  0
  4 92  1  0  0  0
  4 93  1  0  0  0
  5  6  1  0  0  0
  5 26  1  0  0  0
  5 94  1  0  0  0
  6 25  1  0  0  0
  6 95  1  0  0  0
  6 96  1  0  0  0
  7  8  2  0  0  0
  7 26  1  0  0  0
  7 29  1  0  0  0
  8  9  1  0  0  0
  8 22  1  0  0  0
  9 10  1  0  0  0
  9 27  2  0  0  0
 10 11  2  0  0  0
 10 15  1  0  0  0
 11 12  1  0  0  0
 11 97  1  0  0  0
 12 13  2  0  0  0
 12 98  1  0  0  0
 13 14  1  0  0  0
 13 31  1  0  0  0
 14 15  2  0  0  0
 14 99  1  0  0  0
 15100  1  0  0  0
 16 17  2  0  0  0
 16 21  1  0  0  0
 16 31  1  0  0  0
 17 18  1  0  0  0
 17101  1  0  0  0
 18 19  2  0  0  0
 18102  1  0  0  0
 19 20  1  0  0  0
 19 24  1  0  0  0
 20 21  2  0  0  0
 20103  1  0  0  0
 21 23  1  0  0  0
 22 28  1  0  0  0
 22 32  2  0  0  0
 26 27  1  0  0  0
 28104  1  0  0  0
 28105  1  0  0  0
 29106  1  0  0  0
 29107  1  0  0  0
 33 34  1  0  0  0
 33 66  1  0  0  0
 33 70  2  0  0  0
 34 36  1  0  0  0
 34 59  1  0  0  0
 34108  1  0  0  0
 35 44  2  0  0  0
 35 45  1  0  0  0
 35 68  1  0  0  0
 36 56  1  0  0  0
 36109  1  0  0  0
 37 39  1  0  0  0
 37 47  1  0  0  0
 37 66  1  0  0  0
 37110  1  0  0  0
 38 43  2  0  0  0
 38 46  1  0  0  0
 38 47  1  0  0  0
 39 64  1  0  0  0
 39 67  2  0  0  0
 40 52  1  0  0  0
 40 53  2  0  0  0
 40 58  1  0  0  0
 41111  1  0  0  0
 41112  1  0  0  0
 41113  1  0  0  0
 41 48  1  0  0  0
 42 43  1  0  0  0
 42 66  1  0  0  0
 42114  1  0  0  0
 42115  1  0  0  0
 43 44  1  0  0  0
 44116  1  0  0  0
 45 46  2  0  0  0
 45117  1  0  0  0
 46118  1  0  0  0
 47119  1  0  0  0
 47120  1  0  0  0
 48 56  1  0  0  0
 48 65  1  0  0  0
 48121  1  0  0  0
 49 50  1  0  0  0
 49 53  1  0  0  0
 49 64  1  0  0  0
 49122  1  0  0  0
 50 51  1  0  0  0
 50123  1  0  0  0
 50124  1  0  0  0
 51 52  1  0  0  0
 51125  1  0  0  0
 51126  1  0  0  0
 52127  1  0  0  0
 52128  1  0  0  0
 53 54  1  0  0  0
 54 55  2  0  0  0
 54129  1  0  0  0
 55 57  1  0  0  0
 55130  1  0  0  0
 56 69  2  0  0  0
 57 58  2  0  0  0
 57131  1  0  0  0
 58132  1  0  0  0
 59 60  1  0  0  0
 59 61  1  0  0  0
 59 62  1  0  0  0
 60133  1  0  0  0
 60134  1  0  0  0
 60135  1  0  0  0
 61136  1  0  0  0
 61137  1  0  0  0
 61138  1  0  0  0
 62139  1  0  0  0
 62140  1  0  0  0
 62141  1  0  0  0
 63 65  1  0  0  0
 63142  1  0  0  0
 63143  1  0  0  0
 63144  1  0  0  0
 64145  1  0  0  0
 65146  1  0  0  0
 68 84  1  0  0  0
 71 73  1  0  0  0
 71 75  1  0  0  0
 71147  1  0  0  0
 71148  1  0  0  0
 72 74  1  0  0  0
 72 75  1  0  0  0
 72149  1  0  0  0
 72150  1  0  0  0
 73 76  1  0  0  0
 73151  1  0  0  0
 73152  1  0  0  0
 74 76  1  0  0  0
 74153  1  0  0  0
 74154  1  0  0  0
 75 79  1  0  0  0
 75155  1  0  0  0
 76 80  1  0  0  0
 76156  1  0  0  0
 77157  1  0  0  0
 77158  1  0  0  0
 77159  1  0  0  0
 77 85  1  0  0  0
 78 85  1  0  0  0
 78160  1  0  0  0
 78161  1  0  0  0
 78162  1  0  0  0
 79 82  1  0  0  0
 79163  1  0  0  0
 79164  1  0  0  0
 80 87  1  0  0  0
 80165  1  0  0  0
 80166  1  0  0  0
 81 83  1  0  0  0
 81 85  1  0  0  0
 81167  1  0  0  0
 81168  1  0  0  0
 82 86  1  0  0  0
 82169  1  0  0  0
 82170  1  0  0  0
 83 87  1  0  0  0
 83171  1  0  0  0
 83172  1  0  0  0
 84 85  1  0  0  0
 84173  1  0  0  0
 84174  1  0  0  0
 86175  1  0  0  0
 87176  1  0  0  0
 87177  1  0  0  0
M  CHG  1  87   1
M  ISO  4   1 100  68 101  84 101  86 100
M  END
> <chiral flag>
0

> <version>
0

> <s_m_source_file>
/data/baiqing/PycharmProjects/Reinvent-master-3.2/result/LINK_invent/BTK/process_docking_weight1_custom_sum_contain_oxygen_bond_distance_aromatic_linkinvent_7_9_3/rearranged_h_0109.sdf

> <i_m_source_file_index>
76

> <r_mmod_Potential_Energy-OPLS-2005>
-164.138549804688

> <r_mmod_Stretch_Energy-OPLS-2005>
33.810619354248

> <r_mmod_Bend_Energy-OPLS-2005>
107.956573486328

> <r_mmod_Torsional_Energy-OPLS-2005>
256.072143554688

> <r_mmod_Improper_Torsional_Energy-OPLS-2005>
2.10372996330261

> <r_mmod_Van_der_Waal_Energy-OPLS-2005>
140.953903198242

> <r_mmod_Electrostatic_Energy-OPLS-2005>
-262.680389404297

> <r_mmod_Solvation_Energy-OPLS-2005>
-451.052642822266

> <b_mmod_Minimization_Converged-OPLS-2005>
0

> <r_mmod_RMS_Derivative-OPLS-2005>
2.24020338058472

$$$$
76
                    3D
 Structure written by MMmdl.
171179  0  0  1  0            999 V2000
  -30.6826  -14.4695   20.6012 C   0  0  0  0  0  0
  -30.4264  -12.3163   19.4191 C   0  0  0  0  0  0
  -29.4932  -12.5368   18.2078 C   0  0  0  0  0  0
  -28.0100  -12.4085   18.6116 C   0  0  0  0  0  0
  -27.6665  -13.2036   19.8992 C   0  0  2  0  0  0
  -28.7105  -12.8926   20.9912 C   0  0  0  0  0  0
  -25.2588  -13.8174   20.5698 C   0  0  0  0  0  0
  -24.1830  -13.0442   20.9180 C   0  0  0  0  0  0
  -24.6385  -11.6915   20.8756 C   0  0  0  0  0  0
  -23.9049  -10.4310   21.0413 C   0  0  0  0  0  0
  -24.3613   -9.4224   21.9174 C   0  0  0  0  0  0
  -23.6300   -8.2247   22.0738 C   0  0  0  0  0  0
  -22.4270   -8.0292   21.3542 C   0  0  0  0  0  0
  -21.9918   -9.0262   20.4638 C   0  0  0  0  0  0
  -22.7242  -10.2143   20.3046 C   0  0  0  0  0  0
  -21.6862   -6.0739   22.5267 C   0  0  0  0  0  0
  -21.4035   -6.5645   23.8204 C   0  0  0  0  0  0
  -21.3654   -5.6795   24.9159 C   0  0  0  0  0  0
  -21.6045   -4.3059   24.7216 C   0  0  0  0  0  0
  -21.8823   -3.8155   23.4340 C   0  0  0  0  0  0
  -21.9203   -4.6971   22.3397 C   0  0  0  0  0  0
  -22.7867  -13.5248   21.1856 C   0  0  0  0  0  0
  -22.1672   -4.2159   21.0977 F   0  0  0  0  0  0
  -21.5616   -3.4539   25.7731 F   0  0  0  0  0  0
  -30.0267  -13.2757   20.4666 N   0  0  0  0  0  0
  -26.3043  -12.9321   20.3499 N   0  0  0  0  0  0
  -25.9318  -11.6485   20.5836 N   0  0  0  0  0  0
  -22.0508  -12.8198   22.0398 N   0  0  0  0  0  0
  -25.4310  -15.1886   20.4104 N   0  0  0  0  0  0
  -31.8147  -14.5890   20.1174 O   0  0  0  0  0  0
  -21.6639   -6.8882   21.4227 O   0  0  0  0  0  0
  -22.3557  -14.5571   20.6747 O   0  0  0  0  0  0
  -24.6115  -31.8685   23.2088 C   0  0  0  0  0  0
  -25.9010  -32.4827   23.8390 C   0  0  1  0  0  0
  -27.2510  -27.4614   20.0984 C   0  0  0  0  0  0
  -25.5873  -33.8622   24.2327 N   0  0  0  0  0  0
  -23.3982  -30.4879   21.5497 C   0  0  2  0  0  0
  -24.8466  -28.9492   20.1197 C   0  0  0  0  0  0
  -22.7384  -29.4651   22.5007 C   0  0  0  0  0  0
  -18.0264  -28.1367   22.8501 C   0  0  0  0  0  0
  -24.1483  -36.7318   23.2642 C   0  0  0  0  0  0
  -25.9199  -30.8469   21.3503 C   0  0  0  0  0  0
  -26.0019  -29.4790   20.7054 C   0  0  0  0  0  0
  -27.2038  -28.7434   20.6865 C   0  0  0  0  0  0
  -26.0755  -26.9314   19.5205 C   0  0  0  0  0  0
  -24.8767  -27.6739   19.5250 C   0  0  0  0  0  0
  -23.6046  -29.8105   20.1669 C   0  0  0  0  0  0
  -25.4101  -36.3113   24.0342 C   0  0  1  0  0  0
  -20.5856  -28.3640   23.1338 C   0  0  2  0  0  0
  -20.6751  -26.9381   22.5426 C   0  0  0  0  0  0
  -19.5733  -26.6377   21.5216 C   0  0  0  0  0  0
  -18.1909  -26.7914   22.1623 C   0  0  0  0  0  0
  -19.1516  -28.8821   23.2919 C   0  0  0  0  0  0
  -18.9439  -30.1429   23.8923 C   0  0  0  0  0  0
  -17.6444  -30.6577   24.0564 C   0  0  0  0  0  0
  -25.9024  -34.9478   23.5135 C   0  0  0  0  0  0
  -16.5338  -29.9081   23.6323 C   0  0  0  0  0  0
  -16.7255  -28.6499   23.0348 C   0  0  0  0  0  0
  -26.4466  -31.6595   25.0698 C   0  0  0  0  0  0
  -25.3759  -31.3656   26.1458 C   0  0  0  0  0  0
  -27.0300  -30.3065   24.6009 C   0  0  0  0  0  0
  -27.6040  -32.4308   25.7461 C   0  0  0  0  0  0
  -27.5576  -37.1811   24.8466 C   0  0  0  0  0  0
  -21.4116  -29.3015   22.3754 N   0  0  0  0  0  0
  -26.4287  -37.3796   23.9413 N   0  0  0  0  0  0
  -24.6620  -31.0817   22.0966 N   0  0  0  0  0  0
  -23.4167  -28.8203   23.3043 O   0  0  0  0  0  0
  -28.4619  -26.8063   20.0924 O   0  0  0  0  0  0
  -26.5594  -34.8928   22.4700 O   0  0  0  0  0  0
  -23.5312  -32.1406   23.7516 O   0  0  0  0  0  0
  -31.9710  -16.6323   22.4840 C   0  0  0  0  0  0
  -32.2237  -19.0015   21.1472 C   0  0  0  0  0  0
  -31.0737  -16.8752   21.4185 C   0  0  0  0  0  0
  -31.1932  -18.1283   20.7402 C   0  0  0  0  0  0
  -32.9645  -17.5699   22.7975 C   0  0  0  0  0  0
  -33.9551  -17.3003   23.9125 C   0  0  0  0  0  0
  -28.6319  -17.0754   22.9657 C   0  0  0  0  0  0
  -30.2998  -18.5903   19.5831 C   0  0  0  0  0  0
  -28.9966  -15.7276   22.3056 C   0  0  0  0  0  0
  -29.4681  -19.8579   19.8976 C   0  0  0  0  0  0
  -28.7178  -24.7598   18.7690 C   0  0  0  0  0  0
  -29.9784  -21.1276   19.1806 C   0  0  0  0  0  0
  -29.6635  -23.5376   18.7472 C   0  0  0  0  0  0
  -28.5012  -25.3829   20.1601 C   0  0  0  0  0  0
  -30.0047  -15.7966   21.1227 C   0  0  2  0  0  0
  -33.0933  -18.7366   22.1411 N   0  0  0  0  0  0
  -29.1433  -22.3282   19.4328 N   0  3  0  0  0  0
  -31.4695  -12.4137   19.1153 H   0  0  0  0  0  0
  -30.3356  -11.2946   19.7913 H   0  0  0  0  0  0
  -29.7301  -11.8237   17.4166 H   0  0  0  0  0  0
  -29.6712  -13.5289   17.7893 H   0  0  0  0  0  0
  -27.7998  -11.3495   18.7704 H   0  0  0  0  0  0
  -27.3669  -12.7304   17.7922 H   0  0  0  0  0  0
  -27.7322  -14.2636   19.6583 H   0  0  0  0  0  0
  -28.7025  -11.8178   21.1872 H   0  0  0  0  0  0
  -28.4754  -13.3050   21.9635 H   0  0  0  0  0  0
  -25.2758   -9.5715   22.4742 H   0  0  0  0  0  0
  -24.0040   -7.4641   22.7435 H   0  0  0  0  0  0
  -21.0861   -8.8786   19.8928 H   0  0  0  0  0  0
  -22.3703  -10.9685   19.6170 H   0  0  0  0  0  0
  -21.2026   -7.6154   23.9716 H   0  0  0  0  0  0
  -21.1474   -6.0518   25.9055 H   0  0  0  0  0  0
  -22.0601   -2.7614   23.2846 H   0  0  0  0  0  0
  -22.4128  -11.9888   22.4815 H   0  0  0  0  0  0
  -21.1135  -13.1216   22.2624 H   0  0  0  0  0  0
  -24.6612  -15.8435   20.4999 H   0  0  0  0  0  0
  -26.2951  -15.6353   20.1351 H   0  0  0  0  0  0
  -26.7081  -32.5560   23.1161 H   0  0  0  0  0  0
  -25.0020  -33.9785   25.0471 H   0  0  0  0  0  0
  -22.6853  -31.3027   21.4069 H   0  0  0  0  0  0
  -23.3740  -35.9655   23.3308 H   0  0  0  0  0  0
  -24.3576  -36.8929   22.2054 H   0  0  0  0  0  0
  -23.7241  -37.6528   23.6651 H   0  0  0  0  0  0
  -26.0130  -31.6089   20.5753 H   0  0  0  0  0  0
  -26.8151  -30.9153   21.9564 H   0  0  0  0  0  0
  -28.0999  -29.1572   21.1268 H   0  0  0  0  0  0
  -26.0788  -25.9588   19.0532 H   0  0  0  0  0  0
  -23.9858  -27.2574   19.0746 H   0  0  0  0  0  0
  -23.7055  -30.5795   19.4005 H   0  0  0  0  0  0
  -22.7325  -29.2213   19.8789 H   0  0  0  0  0  0
  -25.1276  -36.1981   25.0839 H   0  0  0  0  0  0
  -20.9941  -28.3197   24.1461 H   0  0  0  0  0  0
  -20.5645  -26.2242   23.3603 H   0  0  0  0  0  0
  -21.6623  -26.7418   22.1229 H   0  0  0  0  0  0
  -19.6890  -25.6298   21.1221 H   0  0  0  0  0  0
  -19.6678  -27.3208   20.6763 H   0  0  0  0  0  0
  -17.4184  -26.6678   21.4021 H   0  0  0  0  0  0
  -18.0300  -26.0049   22.9009 H   0  0  0  0  0  0
  -19.7917  -30.7239   24.2302 H   0  0  0  0  0  0
  -17.5000  -31.6260   24.5159 H   0  0  0  0  0  0
  -15.5340  -30.2989   23.7626 H   0  0  0  0  0  0
  -15.8653  -28.0821   22.7044 H   0  0  0  0  0  0
  -24.5926  -30.7016   25.7786 H   0  0  0  0  0  0
  -24.8960  -32.2793   26.4968 H   0  0  0  0  0  0
  -25.8144  -30.8778   27.0171 H   0  0  0  0  0  0
  -26.2817  -29.6808   24.1130 H   0  0  0  0  0  0
  -27.4192  -29.7304   25.4412 H   0  0  0  0  0  0
  -27.8585  -30.4424   23.9054 H   0  0  0  0  0  0
  -27.2659  -33.3584   26.2082 H   0  0  0  0  0  0
  -28.3829  -32.6901   25.0282 H   0  0  0  0  0  0
  -28.0729  -31.8408   26.5342 H   0  0  0  0  0  0
  -28.2594  -38.0108   24.7519 H   0  0  0  0  0  0
  -28.1073  -36.2641   24.6285 H   0  0  0  0  0  0
  -27.2295  -37.1456   25.8870 H   0  0  0  0  0  0
  -20.9262  -29.8748   21.6996 H   0  0  0  0  0  0
  -26.0180  -38.2872   24.1420 H   0  0  0  0  0  0
  -31.9041  -15.7133   23.0519 H   0  0  0  0  0  0
  -32.3583  -19.9560   20.6601 H   0  0  0  0  0  0
  -34.3730  -16.2976   23.8235 H   0  0  0  0  0  0
  -33.4620  -17.3810   24.8803 H   0  0  0  0  0  0
  -34.7835  -18.0079   23.8974 H   0  0  0  0  0  0
  -27.8016  -16.9479   23.6624 H   0  0  0  0  0  0
  -28.3212  -17.8100   22.2224 H   0  0  0  0  0  0
  -29.4625  -17.4989   23.5309 H   0  0  0  0  0  0
  -29.6255  -17.8131   19.2371 H   0  0  0  0  0  0
  -30.9435  -18.7729   18.7201 H   0  0  0  0  0  0
  -28.0536  -15.3304   21.9412 H   0  0  0  0  0  0
  -29.3725  -15.0569   23.0772 H   0  0  0  0  0  0
  -29.4019  -20.0162   20.9740 H   0  0  0  0  0  0
  -28.4465  -19.6761   19.5638 H   0  0  0  0  0  0
  -27.7631  -24.5236   18.2982 H   0  0  0  0  0  0
  -29.1763  -25.5160   18.1313 H   0  0  0  0  0  0
  -30.0120  -20.9467   18.1051 H   0  0  0  0  0  0
  -31.0017  -21.3391   19.4916 H   0  0  0  0  0  0
  -30.6340  -23.8079   19.1674 H   0  0  0  0  0  0
  -29.8554  -23.2791   17.7052 H   0  0  0  0  0  0
  -29.3555  -25.1505   20.7982 H   0  0  0  0  0  0
  -27.6297  -24.9611   20.6630 H   0  0  0  0  0  0
  -29.4020  -16.0990   20.2761 H   0  0  0  0  0  0
  -29.1033  -22.4937   20.4262 H   0  0  0  0  0  0
  -28.2081  -22.1411   19.1097 H   0  0  0  0  0  0
  1 25  1  0  0  0
  1 30  2  0  0  0
  1 85  1  0  0  0
  2  3  1  0  0  0
  2 25  1  0  0  0
  2 88  1  0  0  0
  2 89  1  0  0  0
  3  4  1  0  0  0
  3 90  1  0  0  0
  3 91  1  0  0  0
  4  5  1  0  0  0
  4 92  1  0  0  0
  4 93  1  0  0  0
  5  6  1  0  0  0
  5 26  1  0  0  0
  5 94  1  0  0  0
  6 25  1  0  0  0
  6 95  1  0  0  0
  6 96  1  0  0  0
  7  8  2  0  0  0
  7 26  1  0  0  0
  7 29  1  0  0  0
  8  9  1  0  0  0
  8 22  1  0  0  0
  9 10  1  0  0  0
  9 27  2  0  0  0
 10 11  2  0  0  0
 10 15  1  0  0  0
 11 12  1  0  0  0
 11 97  1  0  0  0
 12 13  2  0  0  0
 12 98  1  0  0  0
 13 14  1  0  0  0
 13 31  1  0  0  0
 14 15  2  0  0  0
 14 99  1  0  0  0
 15100  1  0  0  0
 16 17  2  0  0  0
 16 21  1  0  0  0
 16 31  1  0  0  0
 17 18  1  0  0  0
 17101  1  0  0  0
 18 19  2  0  0  0
 18102  1  0  0  0
 19 20  1  0  0  0
 19 24  1  0  0  0
 20 21  2  0  0  0
 20103  1  0  0  0
 21 23  1  0  0  0
 22 28  1  0  0  0
 22 32  2  0  0  0
 26 27  1  0  0  0
 28104  1  0  0  0
 28105  1  0  0  0
 29106  1  0  0  0
 29107  1  0  0  0
 33 34  1  0  0  0
 33 66  1  0  0  0
 33 70  2  0  0  0
 34 36  1  0  0  0
 34 59  1  0  0  0
 34108  1  0  0  0
 35 44  2  0  0  0
 35 45  1  0  0  0
 35 68  1  0  0  0
 36 56  1  0  0  0
 36109  1  0  0  0
 37 39  1  0  0  0
 37 47  1  0  0  0
 37 66  1  0  0  0
 37110  1  0  0  0
 38 43  2  0  0  0
 38 46  1  0  0  0
 38 47  1  0  0  0
 39 64  1  0  0  0
 39 67  2  0  0  0
 40 52  1  0  0  0
 40 53  2  0  0  0
 40 58  1  0  0  0
 41111  1  0  0  0
 41112  1  0  0  0
 41113  1  0  0  0
 41 48  1  0  0  0
 42 43  1  0  0  0
 42 66  1  0  0  0
 42114  1  0  0  0
 42115  1  0  0  0
 43 44  1  0  0  0
 44116  1  0  0  0
 45 46  2  0  0  0
 45117  1  0  0  0
 46118  1  0  0  0
 47119  1  0  0  0
 47120  1  0  0  0
 48 56  1  0  0  0
 48 65  1  0  0  0
 48121  1  0  0  0
 49 50  1  0  0  0
 49 53  1  0  0  0
 49 64  1  0  0  0
 49122  1  0  0  0
 50 51  1  0  0  0
 50123  1  0  0  0
 50124  1  0  0  0
 51 52  1  0  0  0
 51125  1  0  0  0
 51126  1  0  0  0
 52127  1  0  0  0
 52128  1  0  0  0
 53 54  1  0  0  0
 54 55  2  0  0  0
 54129  1  0  0  0
 55 57  1  0  0  0
 55130  1  0  0  0
 56 69  2  0  0  0
 57 58  2  0  0  0
 57131  1  0  0  0
 58132  1  0  0  0
 59 60  1  0  0  0
 59 61  1  0  0  0
 59 62  1  0  0  0
 60133  1  0  0  0
 60134  1  0  0  0
 60135  1  0  0  0
 61136  1  0  0  0
 61137  1  0  0  0
 61138  1  0  0  0
 62139  1  0  0  0
 62140  1  0  0  0
 62141  1  0  0  0
 63 65  1  0  0  0
 63142  1  0  0  0
 63143  1  0  0  0
 63144  1  0  0  0
 64145  1  0  0  0
 65146  1  0  0  0
 68 84  1  0  0  0
 71 73  2  0  0  0
 71 75  1  0  0  0
 71147  1  0  0  0
 72 74  2  0  0  0
 72 86  1  0  0  0
 72148  1  0  0  0
 73 74  1  0  0  0
 73 85  1  0  0  0
 74 78  1  0  0  0
 75 76  1  0  0  0
 75 86  2  0  0  0
 76149  1  0  0  0
 76150  1  0  0  0
 76151  1  0  0  0
 77 79  1  0  0  0
 77152  1  0  0  0
 77153  1  0  0  0
 77154  1  0  0  0
 78 80  1  0  0  0
 78155  1  0  0  0
 78156  1  0  0  0
 79157  1  0  0  0
 79158  1  0  0  0
 79 85  1  0  0  0
 80 82  1  0  0  0
 80159  1  0  0  0
 80160  1  0  0  0
 81 83  1  0  0  0
 81 84  1  0  0  0
 81161  1  0  0  0
 81162  1  0  0  0
 82 87  1  0  0  0
 82163  1  0  0  0
 82164  1  0  0  0
 83 87  1  0  0  0
 83165  1  0  0  0
 83166  1  0  0  0
 84167  1  0  0  0
 84168  1  0  0  0
 85169  1  0  0  0
 87170  1  0  0  0
 87171  1  0  0  0
M  CHG  1  87   1
M  ISO  4   1 100  68 101  84 101  85 100
M  END
> <chiral flag>
0

> <version>
0

> <s_m_source_file>
/data/baiqing/PycharmProjects/Reinvent-master-3.2/result/LINK_invent/BTK/process_docking_weight1_custom_sum_contain_oxygen_bond_distance_aromatic_linkinvent_7_9_3/rearranged_h_0109.sdf

> <i_m_source_file_index>
77

> <r_mmod_Potential_Energy-OPLS-2005>
-156.73518371582

> <r_mmod_Stretch_Energy-OPLS-2005>
42.7192306518555

> <r_mmod_Bend_Energy-OPLS-2005>
131.219848632812

> <r_mmod_Torsional_Energy-OPLS-2005>
213.029357910156

> <r_mmod_Improper_Torsional_Energy-OPLS-2005>
4.93140602111816

> <r_mmod_Van_der_Waal_Energy-OPLS-2005>
161.394058227539

> <r_mmod_Electrostatic_Energy-OPLS-2005>
-243.848297119141

> <r_mmod_Solvation_Energy-OPLS-2005>
-478.659912109375

> <b_mmod_Minimization_Converged-OPLS-2005>
0

> <r_mmod_RMS_Derivative-OPLS-2005>
2.73638796806335

$$$$
77
                    3D
 Structure written by MMmdl.
180188  0  0  1  0            999 V2000
  -30.5100  -14.9713   20.4190 C   0  0  0  0  0  0
  -30.4484  -12.6079   19.4779 C   0  0  0  0  0  0
  -29.5184  -12.5265   18.2452 C   0  0  0  0  0  0
  -28.0539  -12.3048   18.6729 C   0  0  0  0  0  0
  -27.6270  -13.2426   19.8316 C   0  0  2  0  0  0
  -28.6750  -13.2735   20.9624 C   0  0  0  0  0  0
  -25.2464  -13.8202   20.5713 C   0  0  0  0  0  0
  -24.1782  -13.0434   20.9247 C   0  0  0  0  0  0
  -24.6391  -11.6920   20.8768 C   0  0  0  0  0  0
  -23.9071  -10.4293   21.0416 C   0  0  0  0  0  0
  -24.3620   -9.4205   21.9189 C   0  0  0  0  0  0
  -23.6296   -8.2237   22.0750 C   0  0  0  0  0  0
  -22.4279   -8.0278   21.3538 C   0  0  0  0  0  0
  -21.9918   -9.0253   20.4640 C   0  0  0  0  0  0
  -22.7244  -10.2134   20.3058 C   0  0  0  0  0  0
  -21.6849   -6.0737   22.5279 C   0  0  0  0  0  0
  -21.4014   -6.5639   23.8215 C   0  0  0  0  0  0
  -21.3661   -5.6790   24.9177 C   0  0  0  0  0  0
  -21.6044   -4.3054   24.7225 C   0  0  0  0  0  0
  -21.8818   -3.8149   23.4345 C   0  0  0  0  0  0
  -21.9193   -4.6966   22.3403 C   0  0  0  0  0  0
  -22.7803  -13.5207   21.1900 C   0  0  0  0  0  0
  -22.1661   -4.2153   21.0979 F   0  0  0  0  0  0
  -21.5630   -3.4539   25.7738 F   0  0  0  0  0  0
  -29.9404  -13.7012   20.3507 N   0  0  0  0  0  0
  -26.2873  -12.9418   20.3223 N   0  0  0  0  0  0
  -25.9317  -11.6556   20.5734 N   0  0  0  0  0  0
  -22.0450  -12.8189   22.0449 N   0  0  0  0  0  0
  -25.4119  -15.1928   20.4115 N   0  0  0  0  0  0
  -31.7261  -15.0562   20.2194 O   0  0  0  0  0  0
  -21.6637   -6.8880   21.4240 O   0  0  0  0  0  0
  -22.3489  -14.5514   20.6745 O   0  0  0  0  0  0
  -24.6437  -31.8425   23.1841 C   0  0  0  0  0  0
  -25.9200  -32.4689   23.8248 C   0  0  1  0  0  0
  -27.2249  -27.1244   20.1674 C   0  0  0  0  0  0
  -25.5945  -33.8495   24.2164 N   0  0  0  0  0  0
  -23.4477  -30.4589   21.5303 C   0  0  2  0  0  0
  -24.8979  -28.8705   20.1211 C   0  0  0  0  0  0
  -22.7570  -29.4540   22.4857 C   0  0  0  0  0  0
  -18.0307  -28.1397   22.8472 C   0  0  0  0  0  0
  -24.1486  -36.7259   23.2643 C   0  0  0  0  0  0
  -26.0036  -30.7120   21.3827 C   0  0  0  0  0  0
  -26.0756  -29.3177   20.7346 C   0  0  0  0  0  0
  -27.2417  -28.4638   20.7318 C   0  0  0  0  0  0
  -26.0188  -26.7670   19.5317 C   0  0  0  0  0  0
  -24.8816  -27.6072   19.5060 C   0  0  0  0  0  0
  -23.6764  -29.7781   20.1537 C   0  0  0  0  0  0
  -25.4120  -36.3024   24.0310 C   0  0  1  0  0  0
  -20.5920  -28.3723   23.1233 C   0  0  2  0  0  0
  -20.6796  -26.9425   22.5405 C   0  0  0  0  0  0
  -19.5768  -26.6372   21.5216 C   0  0  0  0  0  0
  -18.1944  -26.7933   22.1620 C   0  0  0  0  0  0
  -19.1562  -28.8877   23.2842 C   0  0  0  0  0  0
  -18.9482  -30.1473   23.8871 C   0  0  0  0  0  0
  -17.6477  -30.6593   24.0559 C   0  0  0  0  0  0
  -25.9070  -34.9401   23.5042 C   0  0  0  0  0  0
  -16.5369  -29.9086   23.6339 C   0  0  0  0  0  0
  -16.7290  -28.6506   23.0357 C   0  0  0  0  0  0
  -26.4511  -31.6572   25.0699 C   0  0  0  0  0  0
  -25.3688  -31.3767   26.1396 C   0  0  0  0  0  0
  -27.0385  -30.2973   24.6283 C   0  0  0  0  0  0
  -27.6025  -32.4362   25.7487 C   0  0  0  0  0  0
  -27.5568  -37.1779   24.8460 C   0  0  0  0  0  0
  -21.4262  -29.3047   22.3606 N   0  0  0  0  0  0
  -26.4279  -37.3741   23.9406 N   0  0  0  0  0  0
  -24.7184  -31.0271   22.0877 N   0  0  0  0  0  0
  -23.4212  -28.8093   23.3008 O   0  0  0  0  0  0
  -28.3213  -26.1937   20.1104 O   0  0  0  0  0  0
  -26.5660  -34.8899   22.4628 O   0  0  0  0  0  0
  -23.5551  -32.1308   23.7051 O   0  0  0  0  0  0
  -32.3555  -16.1128   25.6807 C   0  0  0  0  0  0
  -31.0963  -15.5163   25.0387 C   0  0  0  0  0  0
  -32.3867  -17.6364   25.4992 C   0  0  0  0  0  0
  -30.9904  -15.9020   23.5546 C   0  0  0  0  0  0
  -32.2754  -18.0199   24.0150 C   0  0  0  0  0  0
  -31.0087  -17.4341   23.3506 C   0  0  0  0  0  0
  -30.6871  -19.2425   19.1287 C   0  0  0  0  0  0
  -26.8566  -22.7641   19.9375 C   0  0  0  0  0  0
  -28.7368  -23.4866   18.4712 C   0  0  0  0  0  0
  -28.3911  -17.6899   21.9141 C   0  0  0  0  0  0
  -30.9305  -17.9102   21.8703 C   0  0  0  0  0  0
  -29.2651  -21.8643   20.4303 C   0  0  0  0  0  0
  -28.3576  -24.7392   20.6808 C   0  0  0  0  0  0
  -29.4389  -18.9854   19.9915 C   0  0  1  0  0  0
  -28.3311  -23.2111   19.9297 C   0  0  0  0  0  0
  -29.6478  -17.6371   21.0159 C   0  0  2  0  0  0
  -29.6611  -16.1159   20.5192 N   0  0  0  0  0  0
  -28.7533  -20.3539   20.4748 N   0  3  0  0  0  0
  -31.4744  -12.7938   19.1568 H   0  0  0  0  0  0
  -30.4679  -11.6596   20.0177 H   0  0  0  0  0  0
  -29.8398  -11.7241   17.5795 H   0  0  0  0  0  0
  -29.5939  -13.4505   17.6697 H   0  0  0  0  0  0
  -27.9601  -11.2659   18.9908 H   0  0  0  0  0  0
  -27.3850  -12.4227   17.8192 H   0  0  0  0  0  0
  -27.5854  -14.2412   19.3964 H   0  0  0  0  0  0
  -28.7743  -12.2951   21.4347 H   0  0  0  0  0  0
  -28.3736  -13.9673   21.7489 H   0  0  0  0  0  0
  -25.2764   -9.5682   22.4767 H   0  0  0  0  0  0
  -24.0009   -7.4626   22.7466 H   0  0  0  0  0  0
  -21.0852   -8.8770   19.8941 H   0  0  0  0  0  0
  -22.3702  -10.9675   19.6171 H   0  0  0  0  0  0
  -21.2003   -7.6146   23.9720 H   0  0  0  0  0  0
  -21.1481   -6.0520   25.9079 H   0  0  0  0  0  0
  -22.0597   -2.7613   23.2843 H   0  0  0  0  0  0
  -22.4071  -11.9853   22.4839 H   0  0  0  0  0  0
  -21.1058  -13.1194   22.2645 H   0  0  0  0  0  0
  -24.6342  -15.8354   20.5133 H   0  0  0  0  0  0
  -26.2356  -15.6313   20.0243 H   0  0  0  0  0  0
  -26.7268  -32.5292   23.0981 H   0  0  0  0  0  0
  -25.0093  -33.9610   25.0310 H   0  0  0  0  0  0
  -22.7496  -31.2832   21.3696 H   0  0  0  0  0  0
  -23.3744  -35.9593   23.3291 H   0  0  0  0  0  0
  -24.3574  -36.8914   22.2061 H   0  0  0  0  0  0
  -23.7249  -37.6449   23.6706 H   0  0  0  0  0  0
  -26.1544  -31.4599   20.6032 H   0  0  0  0  0  0
  -26.8760  -30.7699   22.0221 H   0  0  0  0  0  0
  -28.1500  -28.8133   21.2023 H   0  0  0  0  0  0
  -25.9509  -25.8041   19.0470 H   0  0  0  0  0  0
  -23.9829  -27.2591   19.0153 H   0  0  0  0  0  0
  -23.8180  -30.5477   19.3942 H   0  0  0  0  0  0
  -22.7906  -29.2213   19.8432 H   0  0  0  0  0  0
  -25.1304  -36.1837   25.0798 H   0  0  0  0  0  0
  -21.0009  -28.3319   24.1358 H   0  0  0  0  0  0
  -20.5703  -26.2334   23.3623 H   0  0  0  0  0  0
  -21.6659  -26.7437   22.1192 H   0  0  0  0  0  0
  -19.6933  -25.6273   21.1268 H   0  0  0  0  0  0
  -19.6714  -27.3165   20.6730 H   0  0  0  0  0  0
  -17.4221  -26.6684   21.4017 H   0  0  0  0  0  0
  -18.0338  -26.0076   22.9014 H   0  0  0  0  0  0
  -19.7960  -30.7295   24.2229 H   0  0  0  0  0  0
  -17.5035  -31.6277   24.5162 H   0  0  0  0  0  0
  -15.5370  -30.2983   23.7680 H   0  0  0  0  0  0
  -15.8688  -28.0823   22.7082 H   0  0  0  0  0  0
  -24.5870  -30.7109   25.7715 H   0  0  0  0  0  0
  -24.8871  -32.2948   26.4766 H   0  0  0  0  0  0
  -25.7960  -30.8975   27.0215 H   0  0  0  0  0  0
  -26.3008  -29.6690   24.1279 H   0  0  0  0  0  0
  -27.3992  -29.7275   25.4859 H   0  0  0  0  0  0
  -27.8909  -30.4213   23.9599 H   0  0  0  0  0  0
  -27.2608  -33.3694   26.1984 H   0  0  0  0  0  0
  -28.3870  -32.6893   25.0336 H   0  0  0  0  0  0
  -28.0664  -31.8555   26.5471 H   0  0  0  0  0  0
  -28.2557  -38.0098   24.7515 H   0  0  0  0  0  0
  -28.1084  -36.2623   24.6274 H   0  0  0  0  0  0
  -27.2287  -37.1415   25.8862 H   0  0  0  0  0  0
  -20.9480  -29.8766   21.6786 H   0  0  0  0  0  0
  -26.0132  -38.2794   24.1438 H   0  0  0  0  0  0
  -33.2446  -15.6703   25.2286 H   0  0  0  0  0  0
  -32.3910  -15.8614   26.7414 H   0  0  0  0  0  0
  -30.2108  -15.8655   25.5721 H   0  0  0  0  0  0
  -31.1066  -14.4301   25.1400 H   0  0  0  0  0  0
  -33.3082  -18.0415   25.9195 H   0  0  0  0  0  0
  -31.5678  -18.0910   26.0590 H   0  0  0  0  0  0
  -30.0713  -15.4715   23.1619 H   0  0  0  0  0  0
  -31.8147  -15.4445   23.0061 H   0  0  0  0  0  0
  -33.1640  -17.6727   23.4848 H   0  0  0  0  0  0
  -32.2764  -19.1076   23.9294 H   0  0  0  0  0  0
  -30.1574  -17.8512   23.8890 H   0  0  0  0  0  0
  -31.0608  -18.3094   18.7054 H   0  0  0  0  0  0
  -31.4968  -19.6895   19.7053 H   0  0  0  0  0  0
  -30.4657  -19.9106   18.2961 H   0  0  0  0  0  0
  -26.6913  -21.8842   19.3157 H   0  0  0  0  0  0
  -26.2018  -23.5471   19.5562 H   0  0  0  0  0  0
  -26.5204  -22.5279   20.9475 H   0  0  0  0  0  0
  -28.6546  -22.5932   17.8507 H   0  0  0  0  0  0
  -29.7673  -23.8378   18.4111 H   0  0  0  0  0  0
  -28.1089  -24.2571   18.0217 H   0  0  0  0  0  0
  -28.3410  -18.6092   22.4978 H   0  0  0  0  0  0
  -28.3504  -16.8657   22.6259 H   0  0  0  0  0  0
  -27.4776  -17.6292   21.3205 H   0  0  0  0  0  0
  -31.8075  -17.5566   21.3267 H   0  0  0  0  0  0
  -31.0597  -18.9923   21.9136 H   0  0  0  0  0  0
  -29.5806  -22.0748   21.4524 H   0  0  0  0  0  0
  -30.2013  -21.8772   19.8726 H   0  0  0  0  0  0
  -29.3046  -24.7445   21.2205 H   0  0  0  0  0  0
  -27.6192  -24.7192   21.4837 H   0  0  0  0  0  0
  -28.6949  -18.6284   19.2776 H   0  0  0  0  0  0
  -28.7107  -15.7968   20.4184 H   0  0  0  0  0  0
  -27.8936  -20.3777   19.9506 H   0  0  0  0  0  0
  -28.4603  -20.1950   21.4253 H   0  0  0  0  0  0
  1 25  1  0  0  0
  1 30  2  0  0  0
  1 87  1  0  0  0
  2  3  1  0  0  0
  2 25  1  0  0  0
  2 89  1  0  0  0
  2 90  1  0  0  0
  3  4  1  0  0  0
  3 91  1  0  0  0
  3 92  1  0  0  0
  4  5  1  0  0  0
  4 93  1  0  0  0
  4 94  1  0  0  0
  5  6  1  0  0  0
  5 26  1  0  0  0
  5 95  1  0  0  0
  6 25  1  0  0  0
  6 96  1  0  0  0
  6 97  1  0  0  0
  7  8  2  0  0  0
  7 26  1  0  0  0
  7 29  1  0  0  0
  8  9  1  0  0  0
  8 22  1  0  0  0
  9 10  1  0  0  0
  9 27  2  0  0  0
 10 11  2  0  0  0
 10 15  1  0  0  0
 11 12  1  0  0  0
 11 98  1  0  0  0
 12 13  2  0  0  0
 12 99  1  0  0  0
 13 14  1  0  0  0
 13 31  1  0  0  0
 14 15  2  0  0  0
 14100  1  0  0  0
 15101  1  0  0  0
 16 17  2  0  0  0
 16 21  1  0  0  0
 16 31  1  0  0  0
 17 18  1  0  0  0
 17102  1  0  0  0
 18 19  2  0  0  0
 18103  1  0  0  0
 19 20  1  0  0  0
 19 24  1  0  0  0
 20 21  2  0  0  0
 20104  1  0  0  0
 21 23  1  0  0  0
 22 28  1  0  0  0
 22 32  2  0  0  0
 26 27  1  0  0  0
 28105  1  0  0  0
 28106  1  0  0  0
 29107  1  0  0  0
 29108  1  0  0  0
 33 34  1  0  0  0
 33 66  1  0  0  0
 33 70  2  0  0  0
 34 36  1  0  0  0
 34 59  1  0  0  0
 34109  1  0  0  0
 35 44  2  0  0  0
 35 45  1  0  0  0
 35 68  1  0  0  0
 36 56  1  0  0  0
 36110  1  0  0  0
 37 39  1  0  0  0
 37 47  1  0  0  0
 37 66  1  0  0  0
 37111  1  0  0  0
 38 43  2  0  0  0
 38 46  1  0  0  0
 38 47  1  0  0  0
 39 64  1  0  0  0
 39 67  2  0  0  0
 40 52  1  0  0  0
 40 53  2  0  0  0
 40 58  1  0  0  0
 41112  1  0  0  0
 41113  1  0  0  0
 41114  1  0  0  0
 41 48  1  0  0  0
 42 43  1  0  0  0
 42 66  1  0  0  0
 42115  1  0  0  0
 42116  1  0  0  0
 43 44  1  0  0  0
 44117  1  0  0  0
 45 46  2  0  0  0
 45118  1  0  0  0
 46119  1  0  0  0
 47120  1  0  0  0
 47121  1  0  0  0
 48 56  1  0  0  0
 48 65  1  0  0  0
 48122  1  0  0  0
 49 50  1  0  0  0
 49 53  1  0  0  0
 49 64  1  0  0  0
 49123  1  0  0  0
 50 51  1  0  0  0
 50124  1  0  0  0
 50125  1  0  0  0
 51 52  1  0  0  0
 51126  1  0  0  0
 51127  1  0  0  0
 52128  1  0  0  0
 52129  1  0  0  0
 53 54  1  0  0  0
 54 55  2  0  0  0
 54130  1  0  0  0
 55 57  1  0  0  0
 55131  1  0  0  0
 56 69  2  0  0  0
 57 58  2  0  0  0
 57132  1  0  0  0
 58133  1  0  0  0
 59 60  1  0  0  0
 59 61  1  0  0  0
 59 62  1  0  0  0
 60134  1  0  0  0
 60135  1  0  0  0
 60136  1  0  0  0
 61137  1  0  0  0
 61138  1  0  0  0
 61139  1  0  0  0
 62140  1  0  0  0
 62141  1  0  0  0
 62142  1  0  0  0
 63 65  1  0  0  0
 63143  1  0  0  0
 63144  1  0  0  0
 63145  1  0  0  0
 64146  1  0  0  0
 65147  1  0  0  0
 68 83  1  0  0  0
 71 72  1  0  0  0
 71 73  1  0  0  0
 71148  1  0  0  0
 71149  1  0  0  0
 72 74  1  0  0  0
 72150  1  0  0  0
 72151  1  0  0  0
 73 75  1  0  0  0
 73152  1  0  0  0
 73153  1  0  0  0
 74 76  1  0  0  0
 74154  1  0  0  0
 74155  1  0  0  0
 75 76  1  0  0  0
 75156  1  0  0  0
 75157  1  0  0  0
 76 81  1  0  0  0
 76158  1  0  0  0
 77159  1  0  0  0
 77160  1  0  0  0
 77161  1  0  0  0
 77 84  1  0  0  0
 78162  1  0  0  0
 78163  1  0  0  0
 78164  1  0  0  0
 78 85  1  0  0  0
 79 85  1  0  0  0
 79165  1  0  0  0
 79166  1  0  0  0
 79167  1  0  0  0
 80168  1  0  0  0
 80169  1  0  0  0
 80170  1  0  0  0
 80 86  1  0  0  0
 81 86  1  0  0  0
 81171  1  0  0  0
 81172  1  0  0  0
 82 85  1  0  0  0
 82 88  1  0  0  0
 82173  1  0  0  0
 82174  1  0  0  0
 83 85  1  0  0  0
 83175  1  0  0  0
 83176  1  0  0  0
 84 86  1  0  0  0
 84 88  1  0  0  0
 84177  1  0  0  0
 86 87  1  0  0  0
 87178  1  0  0  0
 88179  1  0  0  0
 88180  1  0  0  0
M  CHG  1  88   1
M  ISO  4   1 100  68 101  83 101  87 100
M  END
> <chiral flag>
0

> <version>
0

> <s_m_source_file>
/data/baiqing/PycharmProjects/Reinvent-master-3.2/result/LINK_invent/BTK/process_docking_weight1_custom_sum_contain_oxygen_bond_distance_aromatic_linkinvent_7_9_3/rearranged_h_0109.sdf

> <i_m_source_file_index>
78

> <r_mmod_Potential_Energy-OPLS-2005>
565.201416015625

> <r_mmod_Stretch_Energy-OPLS-2005>
304.482543945312

> <r_mmod_Bend_Energy-OPLS-2005>
360.466796875

> <r_mmod_Torsional_Energy-OPLS-2005>
362.295318603516

> <r_mmod_Improper_Torsional_Energy-OPLS-2005>
5.02014255523682

> <r_mmod_Van_der_Waal_Energy-OPLS-2005>
103.99137878418

> <r_mmod_Electrostatic_Energy-OPLS-2005>
-311.460052490234

> <r_mmod_Solvation_Energy-OPLS-2005>
-459.310089111328

> <b_mmod_Minimization_Converged-OPLS-2005>
0

> <r_mmod_RMS_Derivative-OPLS-2005>
1.1958441734314

$$$$
78
                    3D
 Structure written by MMmdl.
179187  0  0  1  0            999 V2000
  -30.6676  -14.5183   20.3902 C   0  0  0  0  0  0
  -30.4252  -12.2728   19.3931 C   0  0  0  0  0  0
  -29.4813  -12.4555   18.1816 C   0  0  0  0  0  0
  -28.0131  -12.3108   18.6115 C   0  0  0  0  0  0
  -27.6629  -13.1898   19.8410 C   0  0  2  0  0  0
  -28.7287  -13.0316   20.9613 C   0  0  0  0  0  0
  -25.2691  -13.8145   20.5607 C   0  0  0  0  0  0
  -24.1936  -13.0378   20.9140 C   0  0  0  0  0  0
  -24.6529  -11.6874   20.8838 C   0  0  0  0  0  0
  -23.9133  -10.4236   21.0452 C   0  0  0  0  0  0
  -24.3665   -9.4192   21.9229 C   0  0  0  0  0  0
  -23.6308   -8.2252   22.0849 C   0  0  0  0  0  0
  -22.4284   -8.0304   21.3602 C   0  0  0  0  0  0
  -21.9886   -9.0281   20.4705 C   0  0  0  0  0  0
  -22.7275  -10.2141   20.3107 C   0  0  0  0  0  0
  -21.6883   -6.0716   22.5259 C   0  0  0  0  0  0
  -21.3990   -6.5645   23.8176 C   0  0  0  0  0  0
  -21.3643   -5.6803   24.9155 C   0  0  0  0  0  0
  -21.6087   -4.3065   24.7214 C   0  0  0  0  0  0
  -21.8820   -3.8162   23.4332 C   0  0  0  0  0  0
  -21.9156   -4.6941   22.3399 C   0  0  0  0  0  0
  -22.7951  -13.5322   21.1733 C   0  0  0  0  0  0
  -22.1657   -4.2186   21.0990 F   0  0  0  0  0  0
  -21.5613   -3.4525   25.7724 F   0  0  0  0  0  0
  -30.0390  -13.3177   20.3551 N   0  0  0  0  0  0
  -26.3054  -12.9214   20.3272 N   0  0  0  0  0  0
  -25.9469  -11.6453   20.5847 N   0  0  0  0  0  0
  -22.0553  -12.8365   22.0294 N   0  0  0  0  0  0
  -25.4389  -15.1884   20.4113 N   0  0  0  0  0  0
  -31.8793  -14.6673   20.1930 O   0  0  0  0  0  0
  -21.6682   -6.8890   21.4255 O   0  0  0  0  0  0
  -22.3600  -14.5506   20.6495 O   0  0  0  0  0  0
  -24.6161  -31.8554   23.1906 C   0  0  0  0  0  0
  -25.9125  -32.4709   23.8288 C   0  0  1  0  0  0
  -27.2474  -27.2932   20.0832 C   0  0  0  0  0  0
  -25.5972  -33.8497   24.2160 N   0  0  0  0  0  0
  -23.4053  -30.4750   21.5479 C   0  0  2  0  0  0
  -24.8701  -28.9108   20.1195 C   0  0  0  0  0  0
  -22.7333  -29.4599   22.4990 C   0  0  0  0  0  0
  -18.0269  -28.1309   22.8457 C   0  0  0  0  0  0
  -24.1578  -36.7238   23.2630 C   0  0  0  0  0  0
  -25.9574  -30.7655   21.3727 C   0  0  0  0  0  0
  -26.0457  -29.3882   20.7151 C   0  0  0  0  0  0
  -27.2257  -28.5911   20.6911 C   0  0  0  0  0  0
  -26.0294  -26.8597   19.5149 C   0  0  0  0  0  0
  -24.8540  -27.6382   19.5437 C   0  0  0  0  0  0
  -23.6268  -29.7765   20.1769 C   0  0  0  0  0  0
  -25.4202  -36.2992   24.0253 C   0  0  1  0  0  0
  -20.5804  -28.3683   23.1274 C   0  0  2  0  0  0
  -20.6738  -26.9412   22.5444 C   0  0  0  0  0  0
  -19.5790  -26.6360   21.5174 C   0  0  0  0  0  0
  -18.1957  -26.7842   22.1573 C   0  0  0  0  0  0
  -19.1509  -28.8800   23.2848 C   0  0  0  0  0  0
  -18.9456  -30.1378   23.8873 C   0  0  0  0  0  0
  -17.6462  -30.6543   24.0523 C   0  0  0  0  0  0
  -25.9095  -34.9376   23.4997 C   0  0  0  0  0  0
  -16.5339  -29.9057   23.6321 C   0  0  0  0  0  0
  -16.7246  -28.6455   23.0373 C   0  0  0  0  0  0
  -26.4537  -31.6454   25.0612 C   0  0  0  0  0  0
  -25.3744  -31.3602   26.1301 C   0  0  0  0  0  0
  -27.0349  -30.2815   24.6076 C   0  0  0  0  0  0
  -27.6137  -32.4116   25.7396 C   0  0  0  0  0  0
  -27.5599  -37.1767   24.8445 C   0  0  0  0  0  0
  -21.4065  -29.3038   22.3664 N   0  0  0  0  0  0
  -26.4359  -37.3676   23.9330 N   0  0  0  0  0  0
  -24.6859  -31.0517   22.0991 N   0  0  0  0  0  0
  -23.4084  -28.8144   23.3051 O   0  0  0  0  0  0
  -28.4216  -26.4843   20.0274 O   0  0  0  0  0  0
  -26.5697  -34.8858   22.4549 O   0  0  0  0  0  0
  -23.5401  -32.1469   23.7253 O   0  0  0  0  0  0
  -29.3801  -18.5005   18.5852 C   0  0  0  0  0  0
  -29.8027  -19.8098   18.1642 C   0  0  0  0  0  0
  -30.1803  -18.0749   19.6262 C   0  0  0  0  0  0
  -30.5632  -20.2773   19.2280 C   0  0  0  0  0  0
  -35.9751  -18.5825   19.1723 C   0  0  0  0  0  0
  -33.9582  -18.4882   17.6015 C   0  0  0  0  0  0
  -28.2850  -21.4663   16.9322 C   0  0  0  0  0  0
  -29.2542  -19.3777   15.7723 C   0  0  0  0  0  0
  -30.7684  -21.2496   16.3326 C   0  0  0  0  0  0
  -30.0475  -16.9476   20.6733 C   0  0  0  0  0  0
  -33.7036  -19.4181   19.9863 C   0  0  0  0  0  0
  -29.4707  -23.9640   19.4178 C   0  0  0  0  0  0
  -32.3624  -19.0618   20.6721 C   0  0  0  0  0  0
  -28.3599  -24.9864   20.0787 C   0  0  0  0  0  0
  -30.5383  -22.7823   19.8570 C   0  0  0  0  0  0
  -34.4283  -18.3925   19.0719 C   0  0  0  0  0  0
  -29.5017  -20.4976   16.8254 C   0  0  0  0  0  0
  -31.1351  -19.0998   19.8072 N   0  0  0  0  0  0
  -29.8032  -15.5541   20.3230 N   0  0  0  0  0  0
  -30.2270  -21.3380   20.0651 O   0  0  0  0  0  0
  -31.4773  -12.3438   19.1059 H   0  0  0  0  0  0
  -30.3004  -11.2754   19.8203 H   0  0  0  0  0  0
  -29.7391  -11.7473   17.3914 H   0  0  0  0  0  0
  -29.6463  -13.4346   17.7493 H   0  0  0  0  0  0
  -27.8401  -11.2567   18.8265 H   0  0  0  0  0  0
  -27.3546  -12.5559   17.7884 H   0  0  0  0  0  0
  -27.6763  -14.2174   19.4974 H   0  0  0  0  0  0
  -28.7430  -12.0095   21.3542 H   0  0  0  0  0  0
  -28.5472  -13.6931   21.8141 H   0  0  0  0  0  0
  -25.2817   -9.5590   22.4694 H   0  0  0  0  0  0
  -23.9991   -7.4666   22.7575 H   0  0  0  0  0  0
  -21.0757   -8.8758   19.9054 H   0  0  0  0  0  0
  -22.3732  -10.9635   19.6139 H   0  0  0  0  0  0
  -21.2029   -7.6170   23.9695 H   0  0  0  0  0  0
  -21.1453   -6.0566   25.9093 H   0  0  0  0  0  0
  -22.0629   -2.7627   23.2828 H   0  0  0  0  0  0
  -22.4253  -12.0039   22.4592 H   0  0  0  0  0  0
  -21.1265  -13.1443   22.2658 H   0  0  0  0  0  0
  -24.6411  -15.8159   20.5014 H   0  0  0  0  0  0
  -26.2939  -15.6493   20.1431 H   0  0  0  0  0  0
  -26.7057  -32.5364   23.0955 H   0  0  0  0  0  0
  -25.0100  -33.9660   25.0301 H   0  0  0  0  0  0
  -22.7044  -31.2996   21.3820 H   0  0  0  0  0  0
  -23.3804  -35.9616   23.3339 H   0  0  0  0  0  0
  -24.3665  -36.8820   22.2041 H   0  0  0  0  0  0
  -23.7378  -37.6462   23.6637 H   0  0  0  0  0  0
  -26.0828  -31.5345   20.6128 H   0  0  0  0  0  0
  -26.8393  -30.8235   22.0050 H   0  0  0  0  0  0
  -28.1232  -28.9484   21.1774 H   0  0  0  0  0  0
  -25.9242  -25.9084   19.0285 H   0  0  0  0  0  0
  -23.9362  -27.2385   19.1605 H   0  0  0  0  0  0
  -23.7112  -30.5368   19.3975 H   0  0  0  0  0  0
  -22.7473  -29.1873   19.8954 H   0  0  0  0  0  0
  -25.1415  -36.1864   25.0730 H   0  0  0  0  0  0
  -20.9927  -28.3309   24.1372 H   0  0  0  0  0  0
  -20.5615  -26.2273   23.3645 H   0  0  0  0  0  0
  -21.6631  -26.7439   22.1257 H   0  0  0  0  0  0
  -19.7014  -25.6304   21.1168 H   0  0  0  0  0  0
  -19.6713  -27.3197   20.6733 H   0  0  0  0  0  0
  -17.4210  -26.6562   21.4000 H   0  0  0  0  0  0
  -18.0410  -25.9995   22.8993 H   0  0  0  0  0  0
  -19.7947  -30.7173   24.2268 H   0  0  0  0  0  0
  -17.5046  -31.6261   24.5116 H   0  0  0  0  0  0
  -15.5343  -30.2970   23.7639 H   0  0  0  0  0  0
  -15.8625  -28.0720   22.7150 H   0  0  0  0  0  0
  -24.6035  -30.6824   25.7554 H   0  0  0  0  0  0
  -24.8894  -32.2821   26.4527 H   0  0  0  0  0  0
  -25.8127  -30.8895   27.0131 H   0  0  0  0  0  0
  -26.2921  -29.6588   24.1064 H   0  0  0  0  0  0
  -27.3944  -29.6999   25.4603 H   0  0  0  0  0  0
  -27.8860  -30.3967   23.9338 H   0  0  0  0  0  0
  -27.2738  -33.3364   26.2048 H   0  0  0  0  0  0
  -28.3979  -32.6675   25.0245 H   0  0  0  0  0  0
  -28.0775  -31.8155   26.5286 H   0  0  0  0  0  0
  -28.2594  -38.0104   24.7464 H   0  0  0  0  0  0
  -28.1121  -36.2586   24.6347 H   0  0  0  0  0  0
  -27.2242  -37.1435   25.8839 H   0  0  0  0  0  0
  -20.9240  -29.8636   21.6742 H   0  0  0  0  0  0
  -26.0243  -38.2729   24.1374 H   0  0  0  0  0  0
  -28.5377  -17.9677   18.1603 H   0  0  0  0  0  0
  -36.3414  -19.4105   18.5771 H   0  0  0  0  0  0
  -36.5268  -17.6986   18.8635 H   0  0  0  0  0  0
  -36.3039  -18.8144   20.1883 H   0  0  0  0  0  0
  -34.4379  -17.7278   17.0055 H   0  0  0  0  0  0
  -34.1824  -19.4715   17.1607 H   0  0  0  0  0  0
  -32.8864  -18.3170   17.4707 H   0  0  0  0  0  0
  -27.4913  -21.0307   17.5346 H   0  0  0  0  0  0
  -27.8223  -21.7173   15.9734 H   0  0  0  0  0  0
  -28.5314  -22.4253   17.4083 H   0  0  0  0  0  0
  -28.3415  -18.8088   15.9716 H   0  0  0  0  0  0
  -30.0791  -18.6612   15.7732 H   0  0  0  0  0  0
  -29.2255  -19.7110   14.7351 H   0  0  0  0  0  0
  -30.9449  -21.1599   15.2632 H   0  0  0  0  0  0
  -31.6786  -20.8335   16.7652 H   0  0  0  0  0  0
  -30.7939  -22.3242   16.5520 H   0  0  0  0  0  0
  -30.8256  -16.9680   21.4158 H   0  0  0  0  0  0
  -29.1563  -17.2035   21.2475 H   0  0  0  0  0  0
  -34.3911  -19.6751   20.7889 H   0  0  0  0  0  0
  -33.5505  -20.3514   19.4616 H   0  0  0  0  0  0
  -28.7868  -23.2254   19.8425 H   0  0  0  0  0  0
  -30.2000  -24.6272   19.8907 H   0  0  0  0  0  0
  -32.2238  -19.8067   21.4711 H   0  0  0  0  0  0
  -32.5877  -18.0885   21.1397 H   0  0  0  0  0  0
  -28.1923  -24.7660   21.1343 H   0  0  0  0  0  0
  -27.4466  -24.6973   19.5564 H   0  0  0  0  0  0
  -30.8926  -23.0388   20.8634 H   0  0  0  0  0  0
  -31.4403  -22.8538   19.2464 H   0  0  0  0  0  0
  -34.2290  -17.3868   19.4592 H   0  0  0  0  0  0
  -28.8301  -15.2821   20.3326 H   0  0  0  0  0  0
  1 25  1  0  0  0
  1 30  2  0  0  0
  1 89  1  0  0  0
  2  3  1  0  0  0
  2 25  1  0  0  0
  2 91  1  0  0  0
  2 92  1  0  0  0
  3  4  1  0  0  0
  3 93  1  0  0  0
  3 94  1  0  0  0
  4  5  1  0  0  0
  4 95  1  0  0  0
  4 96  1  0  0  0
  5  6  1  0  0  0
  5 26  1  0  0  0
  5 97  1  0  0  0
  6 25  1  0  0  0
  6 98  1  0  0  0
  6 99  1  0  0  0
  7  8  2  0  0  0
  7 26  1  0  0  0
  7 29  1  0  0  0
  8  9  1  0  0  0
  8 22  1  0  0  0
  9 10  1  0  0  0
  9 27  2  0  0  0
 10 11  2  0  0  0
 10 15  1  0  0  0
 11 12  1  0  0  0
 11100  1  0  0  0
 12 13  2  0  0  0
 12101  1  0  0  0
 13 14  1  0  0  0
 13 31  1  0  0  0
 14 15  2  0  0  0
 14102  1  0  0  0
 15103  1  0  0  0
 16 17  2  0  0  0
 16 21  1  0  0  0
 16 31  1  0  0  0
 17 18  1  0  0  0
 17104  1  0  0  0
 18 19  2  0  0  0
 18105  1  0  0  0
 19 20  1  0  0  0
 19 24  1  0  0  0
 20 21  2  0  0  0
 20106  1  0  0  0
 21 23  1  0  0  0
 22 28  1  0  0  0
 22 32  2  0  0  0
 26 27  1  0  0  0
 28107  1  0  0  0
 28108  1  0  0  0
 29109  1  0  0  0
 29110  1  0  0  0
 33 34  1  0  0  0
 33 66  1  0  0  0
 33 70  2  0  0  0
 34 36  1  0  0  0
 34 59  1  0  0  0
 34111  1  0  0  0
 35 44  2  0  0  0
 35 45  1  0  0  0
 35 68  1  0  0  0
 36 56  1  0  0  0
 36112  1  0  0  0
 37 39  1  0  0  0
 37 47  1  0  0  0
 37 66  1  0  0  0
 37113  1  0  0  0
 38 43  2  0  0  0
 38 46  1  0  0  0
 38 47  1  0  0  0
 39 64  1  0  0  0
 39 67  2  0  0  0
 40 52  1  0  0  0
 40 53  2  0  0  0
 40 58  1  0  0  0
 41114  1  0  0  0
 41115  1  0  0  0
 41116  1  0  0  0
 41 48  1  0  0  0
 42 43  1  0  0  0
 42 66  1  0  0  0
 42117  1  0  0  0
 42118  1  0  0  0
 43 44  1  0  0  0
 44119  1  0  0  0
 45 46  2  0  0  0
 45120  1  0  0  0
 46121  1  0  0  0
 47122  1  0  0  0
 47123  1  0  0  0
 48 56  1  0  0  0
 48 65  1  0  0  0
 48124  1  0  0  0
 49 50  1  0  0  0
 49 53  1  0  0  0
 49 64  1  0  0  0
 49125  1  0  0  0
 50 51  1  0  0  0
 50126  1  0  0  0
 50127  1  0  0  0
 51 52  1  0  0  0
 51128  1  0  0  0
 51129  1  0  0  0
 52130  1  0  0  0
 52131  1  0  0  0
 53 54  1  0  0  0
 54 55  2  0  0  0
 54132  1  0  0  0
 55 57  1  0  0  0
 55133  1  0  0  0
 56 69  2  0  0  0
 57 58  2  0  0  0
 57134  1  0  0  0
 58135  1  0  0  0
 59 60  1  0  0  0
 59 61  1  0  0  0
 59 62  1  0  0  0
 60136  1  0  0  0
 60137  1  0  0  0
 60138  1  0  0  0
 61139  1  0  0  0
 61140  1  0  0  0
 61141  1  0  0  0
 62142  1  0  0  0
 62143  1  0  0  0
 62144  1  0  0  0
 63 65  1  0  0  0
 63145  1  0  0  0
 63146  1  0  0  0
 63147  1  0  0  0
 64148  1  0  0  0
 65149  1  0  0  0
 68 84  1  0  0  0
 71 72  1  0  0  0
 71 73  2  0  0  0
 71150  1  0  0  0
 72 74  2  0  0  0
 72 87  1  0  0  0
 73 80  1  0  0  0
 73 88  1  0  0  0
 74 88  1  0  0  0
 74 90  1  0  0  0
 75151  1  0  0  0
 75152  1  0  0  0
 75153  1  0  0  0
 75 86  1  0  0  0
 76 86  1  0  0  0
 76154  1  0  0  0
 76155  1  0  0  0
 76156  1  0  0  0
 77157  1  0  0  0
 77158  1  0  0  0
 77159  1  0  0  0
 77 87  1  0  0  0
 78 87  1  0  0  0
 78160  1  0  0  0
 78161  1  0  0  0
 78162  1  0  0  0
 79 87  1  0  0  0
 79163  1  0  0  0
 79164  1  0  0  0
 79165  1  0  0  0
 80 89  1  0  0  0
 80166  1  0  0  0
 80167  1  0  0  0
 81 83  1  0  0  0
 81 86  1  0  0  0
 81168  1  0  0  0
 81169  1  0  0  0
 82 84  1  0  0  0
 82 85  1  0  0  0
 82170  1  0  0  0
 82171  1  0  0  0
 83 88  1  0  0  0
 83172  1  0  0  0
 83173  1  0  0  0
 84174  1  0  0  0
 84175  1  0  0  0
 85 90  1  0  0  0
 85176  1  0  0  0
 85177  1  0  0  0
 86178  1  0  0  0
 89179  1  0  0  0
M  ISO  4   1 100  68 101  84 101  89 100
M  END
> <chiral flag>
0

> <version>
0

> <s_m_source_file>
/data/baiqing/PycharmProjects/Reinvent-master-3.2/result/LINK_invent/BTK/process_docking_weight1_custom_sum_contain_oxygen_bond_distance_aromatic_linkinvent_7_9_3/rearranged_h_0109.sdf

> <i_m_source_file_index>
79

> <r_mmod_Potential_Energy-OPLS-2005>
587.311157226562

> <r_mmod_Stretch_Energy-OPLS-2005>
126.64720916748

> <r_mmod_Bend_Energy-OPLS-2005>
473.235260009766

> <r_mmod_Torsional_Energy-OPLS-2005>
447.190002441406

> <r_mmod_Improper_Torsional_Energy-OPLS-2005>
27.3013896942139

> <r_mmod_Van_der_Waal_Energy-OPLS-2005>
119.643096923828

> <r_mmod_Electrostatic_Energy-OPLS-2005>
-446.477722167969

> <r_mmod_Solvation_Energy-OPLS-2005>
-205.072937011719

> <b_mmod_Minimization_Converged-OPLS-2005>
0

> <r_mmod_RMS_Derivative-OPLS-2005>
26.4257678985596

$$$$
79
                    3D
 Structure written by MMmdl.
165173  0  0  1  0            999 V2000
  -30.7151  -14.6070   20.5293 C   0  0  0  0  0  0
  -30.4087  -12.3920   19.4465 C   0  0  0  0  0  0
  -29.4848  -12.5231   18.2187 C   0  0  0  0  0  0
  -28.0134  -12.3626   18.6374 C   0  0  0  0  0  0
  -27.6432  -13.2384   19.8647 C   0  0  2  0  0  0
  -28.6951  -13.1219   20.9865 C   0  0  0  0  0  0
  -25.2419  -13.8215   20.5457 C   0  0  0  0  0  0
  -24.1786  -13.0443   20.9146 C   0  0  0  0  0  0
  -24.6424  -11.6954   20.8820 C   0  0  0  0  0  0
  -23.9116  -10.4326   21.0460 C   0  0  0  0  0  0
  -24.3615   -9.4228   21.9248 C   0  0  0  0  0  0
  -23.6233   -8.2306   22.0842 C   0  0  0  0  0  0
  -22.4260   -8.0331   21.3572 C   0  0  0  0  0  0
  -21.9970   -9.0319   20.4623 C   0  0  0  0  0  0
  -22.7329  -10.2193   20.3049 C   0  0  0  0  0  0
  -21.6839   -6.0746   22.5292 C   0  0  0  0  0  0
  -21.4019   -6.5674   23.8208 C   0  0  0  0  0  0
  -21.3683   -5.6838   24.9173 C   0  0  0  0  0  0
  -21.6064   -4.3109   24.7283 C   0  0  0  0  0  0
  -21.8874   -3.8204   23.4393 C   0  0  0  0  0  0
  -21.9236   -4.6969   22.3414 C   0  0  0  0  0  0
  -22.7777  -13.5134   21.1757 C   0  0  0  0  0  0
  -22.1682   -4.2175   21.1005 F   0  0  0  0  0  0
  -21.5602   -3.4588   25.7771 F   0  0  0  0  0  0
  -30.0057  -13.4385   20.4106 N   0  0  0  0  0  0
  -26.2951  -12.9474   20.3403 N   0  0  0  0  0  0
  -25.9396  -11.6616   20.5930 N   0  0  0  0  0  0
  -22.0396  -12.8133   22.0232 N   0  0  0  0  0  0
  -25.3875  -15.1872   20.3342 N   0  0  0  0  0  0
  -31.8398  -14.7240   20.0531 O   0  0  0  0  0  0
  -21.6628   -6.8930   21.4263 O   0  0  0  0  0  0
  -22.3462  -14.5437   20.6564 O   0  0  0  0  0  0
  -24.6250  -31.8630   23.2031 C   0  0  0  0  0  0
  -25.9091  -32.4784   23.8363 C   0  0  1  0  0  0
  -27.2107  -27.2965   20.1492 C   0  0  0  0  0  0
  -25.5938  -33.8586   24.2311 N   0  0  0  0  0  0
  -23.4200  -30.4813   21.5515 C   0  0  2  0  0  0
  -24.8610  -28.9269   20.1240 C   0  0  0  0  0  0
  -22.7477  -29.4626   22.5003 C   0  0  0  0  0  0
  -18.0253  -28.1436   22.8481 C   0  0  0  0  0  0
  -24.1500  -36.7230   23.2613 C   0  0  0  0  0  0
  -25.9614  -30.7858   21.3741 C   0  0  0  0  0  0
  -26.0344  -29.4052   20.7294 C   0  0  0  0  0  0
  -27.2177  -28.6065   20.7192 C   0  0  0  0  0  0
  -26.0189  -26.8608   19.5368 C   0  0  0  0  0  0
  -24.8602  -27.6579   19.5193 C   0  0  0  0  0  0
  -23.6359  -29.8172   20.1676 C   0  0  0  0  0  0
  -25.4103  -36.3068   24.0323 C   0  0  1  0  0  0
  -20.5853  -28.3705   23.1300 C   0  0  2  0  0  0
  -20.6743  -26.9429   22.5412 C   0  0  0  0  0  0
  -19.5747  -26.6408   21.5205 C   0  0  0  0  0  0
  -18.1915  -26.7960   22.1616 C   0  0  0  0  0  0
  -19.1518  -28.8868   23.2900 C   0  0  0  0  0  0
  -18.9436  -30.1430   23.8951 C   0  0  0  0  0  0
  -17.6451  -30.6625   24.0547 C   0  0  0  0  0  0
  -25.9017  -34.9442   23.5114 C   0  0  0  0  0  0
  -16.5336  -29.9120   23.6336 C   0  0  0  0  0  0
  -16.7236  -28.6539   23.0366 C   0  0  0  0  0  0
  -26.4524  -31.6586   25.0707 C   0  0  0  0  0  0
  -25.3778  -31.3702   26.1468 C   0  0  0  0  0  0
  -27.0330  -30.3012   24.6070 C   0  0  0  0  0  0
  -27.6141  -32.4276   25.7465 C   0  0  0  0  0  0
  -27.5592  -37.1745   24.8474 C   0  0  0  0  0  0
  -21.4181  -29.3066   22.3704 N   0  0  0  0  0  0
  -26.4281  -37.3766   23.9419 N   0  0  0  0  0  0
  -24.6886  -31.0587   22.1036 N   0  0  0  0  0  0
  -23.4161  -28.8144   23.3085 O   0  0  0  0  0  0
  -28.3489  -26.4854   20.0864 O   0  0  0  0  0  0
  -26.5585  -34.8895   22.4674 O   0  0  0  0  0  0
  -23.5378  -32.1476   23.7320 O   0  0  0  0  0  0
  -28.1719  -19.1202   23.1490 C   0  0  0  0  0  0
  -28.3807  -20.3525   22.5128 C   0  0  0  0  0  0
  -28.5282  -17.9199   22.5103 C   0  0  0  0  0  0
  -28.9208  -20.3823   21.2249 C   0  0  0  0  0  0
  -29.0951  -17.9784   21.2028 C   0  0  0  0  0  0
  -26.0900  -16.5342   24.6918 C   0  0  0  0  0  0
  -27.5808  -21.5608   18.8128 C   0  0  0  0  0  0
  -28.2245  -16.6432   23.3012 C   0  0  0  0  0  0
  -26.7335  -16.2777   23.3251 C   0  0  0  0  0  0
  -27.7318  -23.8307   20.0634 C   0  0  0  0  0  0
  -28.4022  -25.1337   20.7070 C   0  0  0  0  0  0
  -28.5064  -22.4681   19.6578 C   0  0  1  0  0  0
  -29.2671  -19.2065   20.5825 N   0  0  0  0  0  0
  -29.2159  -21.6912   20.7209 N   0  0  0  0  0  0
  -29.4436  -16.7749   20.5039 N   0  0  0  0  0  0
  -30.1645  -15.6787   21.1597 N   0  0  0  0  0  0
  -31.4543  -12.4760   19.1517 H   0  0  0  0  0  0
  -30.3182  -11.4036   19.8996 H   0  0  0  0  0  0
  -29.7394  -11.7824   17.4612 H   0  0  0  0  0  0
  -29.6239  -13.5006   17.7605 H   0  0  0  0  0  0
  -27.8444  -11.3070   18.8616 H   0  0  0  0  0  0
  -27.3611  -12.6073   17.7985 H   0  0  0  0  0  0
  -27.6511  -14.2764   19.5276 H   0  0  0  0  0  0
  -28.6900  -12.1107   21.3932 H   0  0  0  0  0  0
  -28.4431  -13.7851   21.8168 H   0  0  0  0  0  0
  -25.2785   -9.5671   22.4800 H   0  0  0  0  0  0
  -23.9851   -7.4727   22.7652 H   0  0  0  0  0  0
  -21.0951   -8.8926   19.8843 H   0  0  0  0  0  0
  -22.3891  -10.9726   19.6122 H   0  0  0  0  0  0
  -21.1979   -7.6174   23.9694 H   0  0  0  0  0  0
  -21.1376   -6.0566   25.9062 H   0  0  0  0  0  0
  -22.0597   -2.7657   23.2927 H   0  0  0  0  0  0
  -22.3984  -11.9868   22.4792 H   0  0  0  0  0  0
  -21.0901  -13.1081   22.2169 H   0  0  0  0  0  0
  -24.5749  -15.7917   20.3299 H   0  0  0  0  0  0
  -26.1903  -15.6016   19.8800 H   0  0  0  0  0  0
  -26.7149  -32.5467   23.1095 H   0  0  0  0  0  0
  -25.0173  -33.9800   25.0516 H   0  0  0  0  0  0
  -22.7132  -31.2997   21.4081 H   0  0  0  0  0  0
  -23.3789  -35.9549   23.3289 H   0  0  0  0  0  0
  -24.3577  -36.8810   22.2035 H   0  0  0  0  0  0
  -23.7266  -37.6402   23.6646 H   0  0  0  0  0  0
  -26.0650  -31.5374   20.5935 H   0  0  0  0  0  0
  -26.8552  -30.8561   21.9833 H   0  0  0  0  0  0
  -28.1328  -28.9717   21.1656 H   0  0  0  0  0  0
  -25.9861  -25.8984   19.0495 H   0  0  0  0  0  0
  -23.9662  -27.2860   19.0328 H   0  0  0  0  0  0
  -23.7544  -30.6046   19.4232 H   0  0  0  0  0  0
  -22.7560  -29.2500   19.8573 H   0  0  0  0  0  0
  -25.1274  -36.1901   25.0806 H   0  0  0  0  0  0
  -20.9918  -28.3316   24.1425 H   0  0  0  0  0  0
  -20.5655  -26.2311   23.3604 H   0  0  0  0  0  0
  -21.6616  -26.7490   22.1204 H   0  0  0  0  0  0
  -19.6944  -25.6311   21.1254 H   0  0  0  0  0  0
  -19.6733  -27.3213   20.6734 H   0  0  0  0  0  0
  -17.4167  -26.6650   21.4032 H   0  0  0  0  0  0
  -18.0348  -26.0130   22.9044 H   0  0  0  0  0  0
  -19.7897  -30.7213   24.2436 H   0  0  0  0  0  0
  -17.4997  -31.6335   24.5097 H   0  0  0  0  0  0
  -15.5327  -30.3059   23.7632 H   0  0  0  0  0  0
  -15.8609  -28.0844   22.7127 H   0  0  0  0  0  0
  -24.6004  -30.6974   25.7822 H   0  0  0  0  0  0
  -24.8878  -32.2838   26.4873 H   0  0  0  0  0  0
  -25.8119  -30.8947   27.0284 H   0  0  0  0  0  0
  -26.2856  -29.6801   24.1101 H   0  0  0  0  0  0
  -27.4095  -29.7223   25.4520 H   0  0  0  0  0  0
  -27.8741  -30.4292   23.9228 H   0  0  0  0  0  0
  -27.2838  -33.3610   26.2059 H   0  0  0  0  0  0
  -28.3974  -32.6761   25.0280 H   0  0  0  0  0  0
  -28.0815  -31.8361   26.5367 H   0  0  0  0  0  0
  -28.2558  -38.0078   24.7471 H   0  0  0  0  0  0
  -28.1127  -36.2580   24.6347 H   0  0  0  0  0  0
  -27.2277  -37.1441   25.8865 H   0  0  0  0  0  0
  -20.9366  -29.8736   21.6867 H   0  0  0  0  0  0
  -26.0162  -38.2796   24.1505 H   0  0  0  0  0  0
  -27.7303  -19.0934   24.1337 H   0  0  0  0  0  0
  -28.1124  -21.2648   23.0292 H   0  0  0  0  0  0
  -25.0569  -16.1830   24.6920 H   0  0  0  0  0  0
  -26.0911  -17.5940   24.9405 H   0  0  0  0  0  0
  -26.6286  -16.0029   25.4801 H   0  0  0  0  0  0
  -27.1488  -22.1022   17.9724 H   0  0  0  0  0  0
  -26.7513  -21.1644   19.4017 H   0  0  0  0  0  0
  -28.1178  -20.7060   18.3970 H   0  0  0  0  0  0
  -28.5901  -16.7914   24.3157 H   0  0  0  0  0  0
  -28.7633  -15.7700   22.9816 H   0  0  0  0  0  0
  -26.1872  -16.7980   22.5363 H   0  0  0  0  0  0
  -26.6397  -15.2132   23.1031 H   0  0  0  0  0  0
  -27.2878  -24.1760   19.1334 H   0  0  0  0  0  0
  -26.8726  -23.5630   20.6853 H   0  0  0  0  0  0
  -29.4680  -24.9205   20.8179 H   0  0  0  0  0  0
  -28.0373  -25.2327   21.7336 H   0  0  0  0  0  0
  -29.3039  -22.7803   18.9819 H   0  0  0  0  0  0
  -29.4477  -22.3212   21.4798 H   0  0  0  0  0  0
  -28.8872  -16.5615   19.6665 H   0  0  0  0  0  0
  -30.8587  -16.0819   21.7852 H   0  0  0  0  0  0
  1 25  1  0  0  0
  1 30  2  0  0  0
  1 86  1  0  0  0
  2  3  1  0  0  0
  2 25  1  0  0  0
  2 87  1  0  0  0
  2 88  1  0  0  0
  3  4  1  0  0  0
  3 89  1  0  0  0
  3 90  1  0  0  0
  4  5  1  0  0  0
  4 91  1  0  0  0
  4 92  1  0  0  0
  5  6  1  0  0  0
  5 26  1  0  0  0
  5 93  1  0  0  0
  6 25  1  0  0  0
  6 94  1  0  0  0
  6 95  1  0  0  0
  7  8  2  0  0  0
  7 26  1  0  0  0
  7 29  1  0  0  0
  8  9  1  0  0  0
  8 22  1  0  0  0
  9 10  1  0  0  0
  9 27  2  0  0  0
 10 11  2  0  0  0
 10 15  1  0  0  0
 11 12  1  0  0  0
 11 96  1  0  0  0
 12 13  2  0  0  0
 12 97  1  0  0  0
 13 14  1  0  0  0
 13 31  1  0  0  0
 14 15  2  0  0  0
 14 98  1  0  0  0
 15 99  1  0  0  0
 16 17  2  0  0  0
 16 21  1  0  0  0
 16 31  1  0  0  0
 17 18  1  0  0  0
 17100  1  0  0  0
 18 19  2  0  0  0
 18101  1  0  0  0
 19 20  1  0  0  0
 19 24  1  0  0  0
 20 21  2  0  0  0
 20102  1  0  0  0
 21 23  1  0  0  0
 22 28  1  0  0  0
 22 32  2  0  0  0
 26 27  1  0  0  0
 28103  1  0  0  0
 28104  1  0  0  0
 29105  1  0  0  0
 29106  1  0  0  0
 33 34  1  0  0  0
 33 66  1  0  0  0
 33 70  2  0  0  0
 34 36  1  0  0  0
 34 59  1  0  0  0
 34107  1  0  0  0
 35 44  2  0  0  0
 35 45  1  0  0  0
 35 68  1  0  0  0
 36 56  1  0  0  0
 36108  1  0  0  0
 37 39  1  0  0  0
 37 47  1  0  0  0
 37 66  1  0  0  0
 37109  1  0  0  0
 38 43  2  0  0  0
 38 46  1  0  0  0
 38 47  1  0  0  0
 39 64  1  0  0  0
 39 67  2  0  0  0
 40 52  1  0  0  0
 40 53  2  0  0  0
 40 58  1  0  0  0
 41110  1  0  0  0
 41111  1  0  0  0
 41112  1  0  0  0
 41 48  1  0  0  0
 42 43  1  0  0  0
 42 66  1  0  0  0
 42113  1  0  0  0
 42114  1  0  0  0
 43 44  1  0  0  0
 44115  1  0  0  0
 45 46  2  0  0  0
 45116  1  0  0  0
 46117  1  0  0  0
 47118  1  0  0  0
 47119  1  0  0  0
 48 56  1  0  0  0
 48 65  1  0  0  0
 48120  1  0  0  0
 49 50  1  0  0  0
 49 53  1  0  0  0
 49 64  1  0  0  0
 49121  1  0  0  0
 50 51  1  0  0  0
 50122  1  0  0  0
 50123  1  0  0  0
 51 52  1  0  0  0
 51124  1  0  0  0
 51125  1  0  0  0
 52126  1  0  0  0
 52127  1  0  0  0
 53 54  1  0  0  0
 54 55  2  0  0  0
 54128  1  0  0  0
 55 57  1  0  0  0
 55129  1  0  0  0
 56 69  2  0  0  0
 57 58  2  0  0  0
 57130  1  0  0  0
 58131  1  0  0  0
 59 60  1  0  0  0
 59 61  1  0  0  0
 59 62  1  0  0  0
 60132  1  0  0  0
 60133  1  0  0  0
 60134  1  0  0  0
 61135  1  0  0  0
 61136  1  0  0  0
 61137  1  0  0  0
 62138  1  0  0  0
 62139  1  0  0  0
 62140  1  0  0  0
 63 65  1  0  0  0
 63141  1  0  0  0
 63142  1  0  0  0
 63143  1  0  0  0
 64144  1  0  0  0
 65145  1  0  0  0
 68 81  1  0  0  0
 71 72  2  0  0  0
 71 73  1  0  0  0
 71146  1  0  0  0
 72 74  1  0  0  0
 72147  1  0  0  0
 73 75  2  0  0  0
 73 78  1  0  0  0
 74 83  2  0  0  0
 74 84  1  0  0  0
 75 83  1  0  0  0
 75 85  1  0  0  0
 76 79  1  0  0  0
 76148  1  0  0  0
 76149  1  0  0  0
 76150  1  0  0  0
 77151  1  0  0  0
 77152  1  0  0  0
 77153  1  0  0  0
 77 82  1  0  0  0
 78 79  1  0  0  0
 78154  1  0  0  0
 78155  1  0  0  0
 79156  1  0  0  0
 79157  1  0  0  0
 80 81  1  0  0  0
 80 82  1  0  0  0
 80158  1  0  0  0
 80159  1  0  0  0
 81160  1  0  0  0
 81161  1  0  0  0
 82 84  1  0  0  0
 82162  1  0  0  0
 84163  1  0  0  0
 85 86  1  0  0  0
 85164  1  0  0  0
 86165  1  0  0  0
M  ISO  4   1 100  68 101  81 101  86 100
M  END
> <chiral flag>
0

> <version>
0

> <s_m_source_file>
/data/baiqing/PycharmProjects/Reinvent-master-3.2/result/LINK_invent/BTK/process_docking_weight1_custom_sum_contain_oxygen_bond_distance_aromatic_linkinvent_7_9_3/rearranged_h_0109.sdf

> <i_m_source_file_index>
80

> <r_mmod_Potential_Energy-OPLS-2005>
-40.9466133117676

> <r_mmod_Stretch_Energy-OPLS-2005>
92.1459121704102

> <r_mmod_Bend_Energy-OPLS-2005>
206.169281005859

> <r_mmod_Torsional_Energy-OPLS-2005>
348.345764160156

> <r_mmod_Improper_Torsional_Energy-OPLS-2005>
13.3768138885498

> <r_mmod_Van_der_Waal_Energy-OPLS-2005>
136.322952270508

> <r_mmod_Electrostatic_Energy-OPLS-2005>
-650.42138671875

> <r_mmod_Solvation_Energy-OPLS-2005>
-232.816146850586

> <b_mmod_Minimization_Converged-OPLS-2005>
0

> <r_mmod_RMS_Derivative-OPLS-2005>
9.21337699890137

$$$$
80
                    3D
 Structure written by MMmdl.
161169  0  0  1  0            999 V2000
  -29.3174  -15.0088   20.1068 C   0  0  0  0  0  0
  -30.3512  -12.7735   19.3526 C   0  0  0  0  0  0
  -29.4101  -12.3913   18.1853 C   0  0  0  0  0  0
  -28.0267  -11.9101   18.7154 C   0  0  0  0  0  0
  -27.6014  -12.7730   19.9152 C   0  0  2  0  0  0
  -28.6693  -12.8476   20.9820 C   0  0  0  0  0  0
  -25.8052  -13.5191   21.4311 C   0  0  0  0  0  0
  -24.5219  -13.4429   21.2626 C   0  0  0  0  0  0
  -24.4395  -12.0122   20.7469 C   0  0  0  0  0  0
  -23.7265  -10.6941   21.0473 C   0  0  0  0  0  0
  -24.2473   -9.6716   21.9175 C   0  0  0  0  0  0
  -23.6151   -8.4034   22.0750 C   0  0  0  0  0  0
  -22.4303   -8.1090   21.3581 C   0  0  0  0  0  0
  -21.9686   -9.0652   20.4365 C   0  0  0  0  0  0
  -22.6132  -10.3149   20.2750 C   0  0  0  0  0  0
  -21.7257   -6.1023   22.5306 C   0  0  0  0  0  0
  -21.4235   -6.5824   23.8246 C   0  0  0  0  0  0
  -21.3724   -5.6888   24.9141 C   0  0  0  0  0  0
  -21.6018   -4.3142   24.7147 C   0  0  0  0  0  0
  -21.8715   -3.8279   23.4235 C   0  0  0  0  0  0
  -21.9309   -4.7181   22.3371 C   0  0  0  0  0  0
  -24.1212  -14.9935   20.9204 C   0  0  0  0  0  0
  -22.1739   -4.2324   21.0955 F   0  0  0  0  0  0
  -21.5505   -3.4583   25.7626 F   0  0  0  0  0  0
  -29.5443  -13.6499   20.2529 N   0  0  0  0  0  0
  -26.3844  -12.6329   20.5700 N   0  0  0  0  0  0
  -25.6159  -11.6219   20.2986 N   0  0  0  0  0  0
  -23.0231  -14.6097   21.7402 N   0  0  0  0  0  0
  -26.4254  -14.5573   22.0779 N   0  0  0  0  0  0
  -30.4894  -15.4896   19.9921 O   0  0  0  0  0  0
  -21.7306   -6.9197   21.4212 O   0  0  0  0  0  0
  -24.2819  -16.2801   19.1074 O   0  0  0  0  0  0
  -24.7033  -31.7774   23.1511 C   0  0  0  0  0  0
  -25.9566  -32.4302   23.7999 C   0  0  1  0  0  0
  -26.6286  -26.2403   20.3497 C   0  0  0  0  0  0
  -25.6142  -33.8151   24.1852 N   0  0  0  0  0  0
  -23.5040  -30.4244   21.5130 C   0  0  2  0  0  0
  -24.8625  -28.7201   20.0828 C   0  0  0  0  0  0
  -22.7704  -29.4361   22.4587 C   0  0  0  0  0  0
  -18.0359  -28.1409   22.8455 C   0  0  0  0  0  0
  -24.1486  -36.7048   23.2651 C   0  0  0  0  0  0
  -26.0874  -30.3391   21.4798 C   0  0  0  0  0  0
  -26.0294  -28.8791   20.8247 C   0  0  0  0  0  0
  -26.9298  -27.6565   20.9196 C   0  0  0  0  0  0
  -25.5914  -26.4286   19.4272 C   0  0  0  0  0  0
  -24.7281  -27.5498   19.3270 C   0  0  0  0  0  0
  -23.7405  -29.7754   20.1195 C   0  0  0  0  0  0
  -25.4152  -36.2805   24.0251 C   0  0  1  0  0  0
  -20.5972  -28.3784   23.1075 C   0  0  2  0  0  0
  -20.6811  -26.9442   22.5365 C   0  0  0  0  0  0
  -19.5777  -26.6360   21.5189 C   0  0  0  0  0  0
  -18.1966  -26.7931   22.1609 C   0  0  0  0  0  0
  -19.1617  -28.8932   23.2759 C   0  0  0  0  0  0
  -18.9543  -30.1512   23.8822 C   0  0  0  0  0  0
  -17.6548  -30.6610   24.0557 C   0  0  0  0  0  0
  -25.9190  -34.9208   23.4897 C   0  0  0  0  0  0
  -16.5432  -29.9090   23.6374 C   0  0  0  0  0  0
  -16.7347  -28.6492   23.0407 C   0  0  0  0  0  0
  -26.4663  -31.6529   25.0782 C   0  0  0  0  0  0
  -25.3683  -31.4012   26.1409 C   0  0  0  0  0  0
  -27.0676  -30.2836   24.6963 C   0  0  0  0  0  0
  -27.5997  -32.4531   25.7638 C   0  0  0  0  0  0
  -27.5548  -37.1683   24.8448 C   0  0  0  0  0  0
  -21.4346  -29.3080   22.3375 N   0  0  0  0  0  0
  -26.4226  -37.3621   23.9437 N   0  0  0  0  0  0
  -24.8000  -30.8967   22.0938 N   0  0  0  0  0  0
  -23.4120  -28.7944   23.2946 O   0  0  0  0  0  0
  -27.0738  -24.6883   20.4854 O   0  0  0  0  0  0
  -26.5826  -34.8825   22.4507 O   0  0  0  0  0  0
  -23.6049  -32.1058   23.6397 O   0  0  0  0  0  0
  -24.9947  -14.3842   18.8366 C   0  0  0  0  0  0
  -22.9287  -16.9677   20.4722 C   0  0  0  0  0  0
  -26.1734  -15.7723   19.8337 C   0  0  0  0  0  0
  -24.9110  -17.4363   20.7144 C   0  0  0  0  0  0
  -18.4069  -13.7082   19.5464 C   0  0  0  0  0  0
  -19.3946  -12.0108   21.1567 C   0  0  0  0  0  0
  -20.8948  -13.6386   19.9793 C   0  0  0  0  0  0
  -21.5069  -14.3023   18.7327 C   0  0  0  0  0  0
  -26.2180  -22.9463   20.6938 C   0  0  0  0  0  0
  -26.0944  -20.7972   20.4762 C   0  0  0  0  0  0
  -19.6135  -12.8105   19.8534 C   0  0  0  0  0  0
  -22.7223  -15.0059   19.1310 N   0  0  0  0  0  0
  -27.9230  -15.7469   19.9770 N   0  0  0  0  0  0
  -25.3218  -19.1010   21.0099 O   0  0  0  0  0  0
  -31.2267  -13.2958   18.9695 H   0  0  0  0  0  0
  -30.7297  -11.8861   19.8602 H   0  0  0  0  0  0
  -29.8640  -11.6315   17.5477 H   0  0  0  0  0  0
  -29.2558  -13.2629   17.5487 H   0  0  0  0  0  0
  -28.1132  -10.8711   19.0407 H   0  0  0  0  0  0
  -27.2813  -11.9255   17.9217 H   0  0  0  0  0  0
  -27.3949  -13.6309   19.3075 H   0  0  0  0  0  0
  -29.0536  -11.8555   21.2356 H   0  0  0  0  0  0
  -28.4592  -13.3168   21.9382 H   0  0  0  0  0  0
  -25.1653   -9.8712   22.4527 H   0  0  0  0  0  0
  -24.0523   -7.6739   22.7427 H   0  0  0  0  0  0
  -21.1117   -8.8305   19.8220 H   0  0  0  0  0  0
  -22.2387  -10.9931   19.5262 H   0  0  0  0  0  0
  -21.2243   -7.6314   23.9790 H   0  0  0  0  0  0
  -21.1589   -6.0562   25.9068 H   0  0  0  0  0  0
  -22.0300   -2.7719   23.2690 H   0  0  0  0  0  0
  -23.1120  -13.8319   22.3737 H   0  0  0  0  0  0
  -22.1880  -15.1718   21.7410 H   0  0  0  0  0  0
  -25.9674  -15.1520   22.7569 H   0  0  0  0  0  0
  -27.4296  -14.6497   22.1065 H   0  0  0  0  0  0
  -26.7588  -32.4573   23.0598 H   0  0  0  0  0  0
  -25.0241  -33.9161   24.9991 H   0  0  0  0  0  0
  -22.8488  -31.2877   21.3582 H   0  0  0  0  0  0
  -23.3823  -35.9301   23.3175 H   0  0  0  0  0  0
  -24.3542  -36.8868   22.2104 H   0  0  0  0  0  0
  -23.7165  -37.6132   23.6827 H   0  0  0  0  0  0
  -26.3646  -31.0233   20.6765 H   0  0  0  0  0  0
  -26.9306  -30.3709   22.1568 H   0  0  0  0  0  0
  -27.7823  -27.7305   21.5751 H   0  0  0  0  0  0
  -25.2924  -25.5658   18.8489 H   0  0  0  0  0  0
  -23.8696  -27.4505   18.6755 H   0  0  0  0  0  0
  -24.0009  -30.5651   19.4133 H   0  0  0  0  0  0
  -22.8096  -29.3490   19.7417 H   0  0  0  0  0  0
  -25.1364  -36.1485   25.0728 H   0  0  0  0  0  0
  -21.0080  -28.3451   24.1194 H   0  0  0  0  0  0
  -20.5627  -26.2475   23.3651 H   0  0  0  0  0  0
  -21.6682  -26.7409   22.1232 H   0  0  0  0  0  0
  -19.6936  -25.6237   21.1305 H   0  0  0  0  0  0
  -19.6674  -27.3100   20.6636 H   0  0  0  0  0  0
  -17.4235  -26.6702   21.4013 H   0  0  0  0  0  0
  -18.0382  -26.0064   22.8997 H   0  0  0  0  0  0
  -19.8044  -30.7316   24.2115 H   0  0  0  0  0  0
  -17.5139  -31.6260   24.5171 H   0  0  0  0  0  0
  -15.5425  -30.3002   23.7702 H   0  0  0  0  0  0
  -15.8739  -28.0768   22.7201 H   0  0  0  0  0  0
  -24.5797  -30.7389   25.7823 H   0  0  0  0  0  0
  -24.8997  -32.3336   26.4575 H   0  0  0  0  0  0
  -25.7872  -30.9397   27.0354 H   0  0  0  0  0  0
  -26.3458  -29.6328   24.2040 H   0  0  0  0  0  0
  -27.4031  -29.7410   25.5809 H   0  0  0  0  0  0
  -27.9454  -30.3932   24.0588 H   0  0  0  0  0  0
  -27.2364  -33.3872   26.1895 H   0  0  0  0  0  0
  -28.3975  -32.7026   25.0651 H   0  0  0  0  0  0
  -28.0425  -31.8905   26.5857 H   0  0  0  0  0  0
  -28.2452  -38.0093   24.7626 H   0  0  0  0  0  0
  -28.1154  -36.2624   24.6103 H   0  0  0  0  0  0
  -27.2264  -37.1092   25.8840 H   0  0  0  0  0  0
  -20.9625  -29.8766   21.6479 H   0  0  0  0  0  0
  -26.0001  -38.2597   24.1599 H   0  0  0  0  0  0
  -25.2414  -13.5059   18.2636 H   0  0  0  0  0  0
  -22.0436  -17.5325   20.7207 H   0  0  0  0  0  0
  -17.4724  -13.1592   19.6690 H   0  0  0  0  0  0
  -18.4418  -14.0782   18.5213 H   0  0  0  0  0  0
  -18.3658  -14.5672   20.2197 H   0  0  0  0  0  0
  -18.5369  -11.3422   21.0817 H   0  0  0  0  0  0
  -19.2376  -12.6669   22.0173 H   0  0  0  0  0  0
  -20.2587  -11.3845   21.3971 H   0  0  0  0  0  0
  -20.7041  -14.4097   20.7261 H   0  0  0  0  0  0
  -21.6602  -12.9852   20.3925 H   0  0  0  0  0  0
  -20.8147  -15.0121   18.2799 H   0  0  0  0  0  0
  -21.7630  -13.5636   17.9735 H   0  0  0  0  0  0
  -26.2276  -22.9689   21.7851 H   0  0  0  0  0  0
  -25.1975  -23.2352   20.4626 H   0  0  0  0  0  0
  -27.1321  -20.5332   20.6779 H   0  0  0  0  0  0
  -26.0372  -20.6844   19.3915 H   0  0  0  0  0  0
  -19.7485  -12.0962   19.0394 H   0  0  0  0  0  0
  -28.2043  -16.7165   19.9945 H   0  0  0  0  0  0
  1 25  1  0  0  0
  1 30  2  0  0  0
  1 83  1  0  0  0
  2  3  1  0  0  0
  2 25  1  0  0  0
  2 85  1  0  0  0
  2 86  1  0  0  0
  3  4  1  0  0  0
  3 87  1  0  0  0
  3 88  1  0  0  0
  4  5  1  0  0  0
  4 89  1  0  0  0
  4 90  1  0  0  0
  5  6  1  0  0  0
  5 26  1  0  0  0
  5 91  1  0  0  0
  6 25  1  0  0  0
  6 92  1  0  0  0
  6 93  1  0  0  0
  7  8  2  0  0  0
  7 26  1  0  0  0
  7 29  1  0  0  0
  8  9  1  0  0  0
  8 22  1  0  0  0
  9 10  1  0  0  0
  9 27  2  0  0  0
 10 11  2  0  0  0
 10 15  1  0  0  0
 11 12  1  0  0  0
 11 94  1  0  0  0
 12 13  2  0  0  0
 12 95  1  0  0  0
 13 14  1  0  0  0
 13 31  1  0  0  0
 14 15  2  0  0  0
 14 96  1  0  0  0
 15 97  1  0  0  0
 16 17  2  0  0  0
 16 21  1  0  0  0
 16 31  1  0  0  0
 17 18  1  0  0  0
 17 98  1  0  0  0
 18 19  2  0  0  0
 18 99  1  0  0  0
 19 20  1  0  0  0
 19 24  1  0  0  0
 20 21  2  0  0  0
 20100  1  0  0  0
 21 23  1  0  0  0
 22 28  1  0  0  0
 22 32  2  0  0  0
 26 27  1  0  0  0
 28101  1  0  0  0
 28102  1  0  0  0
 29103  1  0  0  0
 29104  1  0  0  0
 33 34  1  0  0  0
 33 66  1  0  0  0
 33 70  2  0  0  0
 34 36  1  0  0  0
 34 59  1  0  0  0
 34105  1  0  0  0
 35 44  2  0  0  0
 35 45  1  0  0  0
 35 68  1  0  0  0
 36 56  1  0  0  0
 36106  1  0  0  0
 37 39  1  0  0  0
 37 47  1  0  0  0
 37 66  1  0  0  0
 37107  1  0  0  0
 38 43  2  0  0  0
 38 46  1  0  0  0
 38 47  1  0  0  0
 39 64  1  0  0  0
 39 67  2  0  0  0
 40 52  1  0  0  0
 40 53  2  0  0  0
 40 58  1  0  0  0
 41108  1  0  0  0
 41109  1  0  0  0
 41110  1  0  0  0
 41 48  1  0  0  0
 42 43  1  0  0  0
 42 66  1  0  0  0
 42111  1  0  0  0
 42112  1  0  0  0
 43 44  1  0  0  0
 44113  1  0  0  0
 45 46  2  0  0  0
 45114  1  0  0  0
 46115  1  0  0  0
 47116  1  0  0  0
 47117  1  0  0  0
 48 56  1  0  0  0
 48 65  1  0  0  0
 48118  1  0  0  0
 49 50  1  0  0  0
 49 53  1  0  0  0
 49 64  1  0  0  0
 49119  1  0  0  0
 50 51  1  0  0  0
 50120  1  0  0  0
 50121  1  0  0  0
 51 52  1  0  0  0
 51122  1  0  0  0
 51123  1  0  0  0
 52124  1  0  0  0
 52125  1  0  0  0
 53 54  1  0  0  0
 54 55  2  0  0  0
 54126  1  0  0  0
 55 57  1  0  0  0
 55127  1  0  0  0
 56 69  2  0  0  0
 57 58  2  0  0  0
 57128  1  0  0  0
 58129  1  0  0  0
 59 60  1  0  0  0
 59 61  1  0  0  0
 59 62  1  0  0  0
 60130  1  0  0  0
 60131  1  0  0  0
 60132  1  0  0  0
 61133  1  0  0  0
 61134  1  0  0  0
 61135  1  0  0  0
 62136  1  0  0  0
 62137  1  0  0  0
 62138  1  0  0  0
 63 65  1  0  0  0
 63139  1  0  0  0
 63140  1  0  0  0
 63141  1  0  0  0
 64142  1  0  0  0
 65143  1  0  0  0
 68 79  1  0  0  0
 71 73  2  0  0  0
 71 82  1  0  0  0
 71144  1  0  0  0
 72 74  2  0  0  0
 72 82  1  0  0  0
 72145  1  0  0  0
 73 74  1  0  0  0
 73 83  1  0  0  0
 74 84  1  0  0  0
 75146  1  0  0  0
 75147  1  0  0  0
 75148  1  0  0  0
 75 81  1  0  0  0
 76 81  1  0  0  0
 76149  1  0  0  0
 76150  1  0  0  0
 76151  1  0  0  0
 77 78  1  0  0  0
 77 81  1  0  0  0
 77152  1  0  0  0
 77153  1  0  0  0
 78 82  1  0  0  0
 78154  1  0  0  0
 78155  1  0  0  0
 79 80  1  0  0  0
 79156  1  0  0  0
 79157  1  0  0  0
 80 84  1  0  0  0
 80158  1  0  0  0
 80159  1  0  0  0
 81160  1  0  0  0
 83161  1  0  0  0
M  ISO  4   1 100  68 101  79 101  83 100
M  END
> <chiral flag>
0

> <version>
0

> <s_m_source_file>
/data/baiqing/PycharmProjects/Reinvent-master-3.2/result/LINK_invent/BTK/process_docking_weight1_custom_sum_contain_oxygen_bond_distance_aromatic_linkinvent_7_9_3/rearranged_h_0109.sdf

> <i_m_source_file_index>
81

> <r_mmod_Potential_Energy-OPLS-2005>
20895.75390625

> <r_mmod_Stretch_Energy-OPLS-2005>
11733.033203125

> <r_mmod_Bend_Energy-OPLS-2005>
1251.41320800781

> <r_mmod_Torsional_Energy-OPLS-2005>
511.503540039062

> <r_mmod_Improper_Torsional_Energy-OPLS-2005>
76.4892272949219

> <r_mmod_Van_der_Waal_Energy-OPLS-2005>
3760.1044921875

> <r_mmod_Electrostatic_Energy-OPLS-2005>
-320.389739990234

> <r_mmod_Solvation_Energy-OPLS-2005>
-241.052444458008

> <b_mmod_Minimization_Converged-OPLS-2005>
0

> <r_mmod_RMS_Derivative-OPLS-2005>
14.8713483810425

$$$$
81
                    3D
 Structure written by MMmdl.
163171  0  0  1  0            999 V2000
  -30.0138  -13.4639   21.3478 C   0  0  0  0  0  0
  -30.6265  -12.4413   19.1204 C   0  0  0  0  0  0
  -29.7469  -12.8328   17.8579 C   0  0  0  0  0  0
  -28.1862  -12.9888   18.0254 C   0  0  0  0  0  0
  -27.8942  -13.4423   19.4447 C   0  0  2  0  0  0
  -28.5562  -12.2361   20.0823 C   0  0  0  0  0  0
  -25.5911  -14.5576   20.0176 C   0  0  0  0  0  0
  -24.4064  -13.9624   20.1405 C   0  0  0  0  0  0
  -25.0683  -12.7300   20.6575 C   0  0  0  0  0  0
  -24.0497  -10.7866   22.5189 C   0  0  0  0  0  0
  -24.5154   -9.3837   22.7847 C   0  0  0  0  0  0
  -23.9681   -8.1159   22.2954 C   0  0  0  0  0  0
  -22.7058   -8.0286   21.6460 C   0  0  0  0  0  0
  -22.0508   -9.2200   21.5614 C   0  0  0  0  0  0
  -22.6185  -10.2076   22.4475 C   0  0  0  0  0  0
  -21.7649   -6.0595   22.5154 C   0  0  0  0  0  0
  -21.4414   -6.5556   23.8025 C   0  0  0  0  0  0
  -21.3540   -5.6747   24.8995 C   0  0  0  0  0  0
  -21.5787   -4.2978   24.7136 C   0  0  0  0  0  0
  -21.8547   -3.7978   23.4287 C   0  0  0  0  0  0
  -21.9361   -4.6763   22.3340 C   0  0  0  0  0  0
  -22.9216  -14.6321   20.2672 C   0  0  0  0  0  0
  -22.2005   -4.1921   21.0969 F   0  0  0  0  0  0
  -21.5306   -3.4501   25.7686 F   0  0  0  0  0  0
  -29.8901  -12.5962   20.3661 N   0  0  0  0  0  0
  -26.5362  -13.5767   19.8116 N   0  0  0  0  0  0
  -25.8983  -12.5370   19.6448 N   0  0  0  0  0  0
  -21.9917  -14.5551   21.2893 N   0  0  0  0  0  0
  -25.9077  -15.8623   19.9983 N   0  0  0  0  0  0
  -30.9041  -14.3632   21.1861 O   0  0  0  0  0  0
  -21.9712   -6.8824   21.4306 O   0  0  0  0  0  0
  -22.4439  -15.2362   19.3774 O   0  0  0  0  0  0
  -24.6935  -31.7795   23.1493 C   0  0  0  0  0  0
  -25.9507  -32.4303   23.8013 C   0  0  1  0  0  0
  -26.5981  -26.2220   20.5843 C   0  0  0  0  0  0
  -25.6052  -33.8168   24.1841 N   0  0  0  0  0  0
  -23.5067  -30.4057   21.5028 C   0  0  2  0  0  0
  -24.8901  -28.6950   20.1067 C   0  0  0  0  0  0
  -22.7712  -29.4253   22.4591 C   0  0  0  0  0  0
  -18.0324  -28.1405   22.8459 C   0  0  0  0  0  0
  -24.1526  -36.7086   23.2648 C   0  0  0  0  0  0
  -26.0802  -30.3555   21.4913 C   0  0  0  0  0  0
  -26.0325  -28.8797   20.8856 C   0  0  0  0  0  0
  -26.8998  -27.6596   21.0900 C   0  0  0  0  0  0
  -25.6546  -26.3886   19.5525 C   0  0  0  0  0  0
  -24.7939  -27.5058   19.3728 C   0  0  0  0  0  0
  -23.7648  -29.7381   20.1174 C   0  0  0  0  0  0
  -25.4178  -36.2801   24.0261 C   0  0  1  0  0  0
  -20.5947  -28.3773   23.1116 C   0  0  2  0  0  0
  -20.6788  -26.9424   22.5411 C   0  0  0  0  0  0
  -19.5774  -26.6356   21.5216 C   0  0  0  0  0  0
  -18.1951  -26.7941   22.1615 C   0  0  0  0  0  0
  -19.1585  -28.8912   23.2787 C   0  0  0  0  0  0
  -18.9499  -30.1495   23.8841 C   0  0  0  0  0  0
  -17.6488  -30.6594   24.0552 C   0  0  0  0  0  0
  -25.9186  -34.9194   23.4896 C   0  0  0  0  0  0
  -16.5378  -29.9076   23.6348 C   0  0  0  0  0  0
  -16.7307  -28.6491   23.0382 C   0  0  0  0  0  0
  -26.4624  -31.6456   25.0739 C   0  0  0  0  0  0
  -25.3632  -31.3855   26.1321 C   0  0  0  0  0  0
  -27.0575  -30.2727   24.6918 C   0  0  0  0  0  0
  -27.6054  -32.4377   25.7510 C   0  0  0  0  0  0
  -27.5580  -37.1692   24.8449 C   0  0  0  0  0  0
  -21.4353  -29.3005   22.3383 N   0  0  0  0  0  0
  -26.4270  -37.3593   23.9416 N   0  0  0  0  0  0
  -24.7891  -30.8976   22.0930 N   0  0  0  0  0  0
  -23.4132  -28.7848   23.2959 O   0  0  0  0  0  0
  -26.9718  -24.6821   20.9599 O   0  0  0  0  0  0
  -26.5844  -34.8804   22.4524 O   0  0  0  0  0  0
  -23.5957  -32.1091   23.6329 O   0  0  0  0  0  0
  -25.4276  -12.7252   22.9917 C   0  0  0  0  0  0
  -25.5855  -10.4871   20.8292 C   0  0  0  0  0  0
  -26.3438  -11.5149   22.1969 C   0  0  0  0  0  0
  -23.9080  -13.3476   22.5510 C   0  0  0  0  0  0
  -22.9446  -12.1953   21.1429 C   0  0  0  0  0  0
  -21.4412  -12.0880   20.6730 C   0  0  0  0  0  0
  -25.2616  -17.0920   24.1232 C   0  0  0  0  0  0
  -27.9749  -11.8410   22.6725 C   0  0  0  0  0  0
  -26.0081  -20.8489   21.8261 C   0  0  0  0  0  0
  -25.0838  -18.8607   21.8820 C   0  0  0  0  0  0
  -26.1121  -22.9152   21.0957 C   0  0  0  0  0  0
  -25.0431  -16.8029   22.6312 C   0  0  2  0  0  0
  -23.8920  -10.8631   20.2633 N   0  0  0  0  0  0
  -24.0993  -15.1389   22.6741 N   0  0  0  0  0  0
  -29.0025  -13.1211   22.3607 N   0  0  0  0  0  0
  -31.5548  -13.0176   19.1301 H   0  0  0  0  0  0
  -30.9301  -11.3938   19.0482 H   0  0  0  0  0  0
  -29.9621  -12.1536   17.0337 H   0  0  0  0  0  0
  -30.1095  -13.8016   17.5156 H   0  0  0  0  0  0
  -27.6605  -12.0748   17.7404 H   0  0  0  0  0  0
  -27.8225  -13.7453   17.3302 H   0  0  0  0  0  0
  -28.3678  -14.4090   19.6225 H   0  0  0  0  0  0
  -28.6737  -11.3715   19.4195 H   0  0  0  0  0  0
  -27.9812  -11.4605   20.5148 H   0  0  0  0  0  0
  -25.5329   -9.2788   23.1408 H   0  0  0  0  0  0
  -24.5259   -7.2083   22.4825 H   0  0  0  0  0  0
  -20.9906   -9.1948   21.3510 H   0  0  0  0  0  0
  -21.8532  -10.8639   22.8380 H   0  0  0  0  0  0
  -21.2972   -7.6138   23.9640 H   0  0  0  0  0  0
  -21.1300   -6.0512   25.8878 H   0  0  0  0  0  0
  -22.0119   -2.7389   23.2849 H   0  0  0  0  0  0
  -22.2839  -14.1516   22.1740 H   0  0  0  0  0  0
  -21.1045  -15.0342   21.2035 H   0  0  0  0  0  0
  -25.2417  -16.5858   20.2390 H   0  0  0  0  0  0
  -26.8550  -16.2044   19.9032 H   0  0  0  0  0  0
  -26.7542  -32.4607   23.0664 H   0  0  0  0  0  0
  -25.0081  -33.9187   24.9916 H   0  0  0  0  0  0
  -22.8440  -31.2567   21.3300 H   0  0  0  0  0  0
  -23.3825  -35.9371   23.3177 H   0  0  0  0  0  0
  -24.3614  -36.8896   22.2090 H   0  0  0  0  0  0
  -23.7250  -37.6202   23.6829 H   0  0  0  0  0  0
  -26.3539  -31.0293   20.6774 H   0  0  0  0  0  0
  -26.9249  -30.4063   22.1632 H   0  0  0  0  0  0
  -27.6943  -27.7616   21.8153 H   0  0  0  0  0  0
  -25.3946  -25.5003   18.9959 H   0  0  0  0  0  0
  -23.9652  -27.3835   18.6886 H   0  0  0  0  0  0
  -24.0215  -30.5089   19.3894 H   0  0  0  0  0  0
  -22.8437  -29.2848   19.7461 H   0  0  0  0  0  0
  -25.1396  -36.1526   25.0747 H   0  0  0  0  0  0
  -21.0062  -28.3419   24.1225 H   0  0  0  0  0  0
  -20.5631  -26.2393   23.3678 H   0  0  0  0  0  0
  -21.6653  -26.7364   22.1232 H   0  0  0  0  0  0
  -19.6937  -25.6242   21.1300 H   0  0  0  0  0  0
  -19.6721  -27.3119   20.6702 H   0  0  0  0  0  0
  -17.4225  -26.6683   21.4012 H   0  0  0  0  0  0
  -18.0345  -26.0089   22.9012 H   0  0  0  0  0  0
  -19.7973  -30.7328   24.2185 H   0  0  0  0  0  0
  -17.5037  -31.6276   24.5164 H   0  0  0  0  0  0
  -15.5373  -30.2971   23.7705 H   0  0  0  0  0  0
  -15.8702  -28.0796   22.7146 H   0  0  0  0  0  0
  -24.5897  -30.7098   25.7645 H   0  0  0  0  0  0
  -24.8734  -32.3082   26.4426 H   0  0  0  0  0  0
  -25.7780  -30.9256   27.0303 H   0  0  0  0  0  0
  -26.3272  -29.6197   24.2118 H   0  0  0  0  0  0
  -27.3993  -29.7377   25.5794 H   0  0  0  0  0  0
  -27.9319  -30.3708   24.0482 H   0  0  0  0  0  0
  -27.2603  -33.3813   26.1748 H   0  0  0  0  0  0
  -28.4006  -32.6709   25.0413 H   0  0  0  0  0  0
  -28.0562  -31.8738   26.5689 H   0  0  0  0  0  0
  -28.2487  -38.0091   24.7581 H   0  0  0  0  0  0
  -28.1193  -36.2614   24.6176 H   0  0  0  0  0  0
  -27.2304  -37.1188   25.8846 H   0  0  0  0  0  0
  -20.9627  -29.8680   21.6486 H   0  0  0  0  0  0
  -26.0069  -38.2619   24.1461 H   0  0  0  0  0  0
  -26.0055  -13.3637   23.6424 H   0  0  0  0  0  0
  -26.1578   -9.7742   20.2548 H   0  0  0  0  0  0
  -21.1618  -12.7508   19.8528 H   0  0  0  0  0  0
  -20.7497  -12.2462   21.5038 H   0  0  0  0  0  0
  -21.2248  -11.1238   20.2322 H   0  0  0  0  0  0
  -25.9870  -17.8942   24.2682 H   0  0  0  0  0  0
  -25.6471  -16.2208   24.6532 H   0  0  0  0  0  0
  -24.3362  -17.4031   24.6117 H   0  0  0  0  0  0
  -28.5397  -10.9194   22.4985 H   0  0  0  0  0  0
  -27.9164  -11.8567   23.7604 H   0  0  0  0  0  0
  -27.0467  -20.5586   21.6713 H   0  0  0  0  0  0
  -25.9662  -21.0591   22.8952 H   0  0  0  0  0  0
  -25.0515  -18.6584   20.8120 H   0  0  0  0  0  0
  -24.0564  -19.1553   22.1007 H   0  0  0  0  0  0
  -25.1089  -23.2530   21.3583 H   0  0  0  0  0  0
  -26.0525  -22.7207   20.0254 H   0  0  0  0  0  0
  -26.0285  -16.4528   22.3262 H   0  0  0  0  0  0
  -23.1747  -15.4860   22.4200 H   0  0  0  0  0  0
  -29.0290  -13.7754   23.1313 H   0  0  0  0  0  0
  1 25  1  0  0  0
  1 30  2  0  0  0
  1 85  1  0  0  0
  2  3  1  0  0  0
  2 25  1  0  0  0
  2 86  1  0  0  0
  2 87  1  0  0  0
  3  4  1  0  0  0
  3 88  1  0  0  0
  3 89  1  0  0  0
  4  5  1  0  0  0
  4 90  1  0  0  0
  4 91  1  0  0  0
  5  6  1  0  0  0
  5 26  1  0  0  0
  5 92  1  0  0  0
  6 25  1  0  0  0
  6 93  1  0  0  0
  6 94  1  0  0  0
  7  8  2  0  0  0
  7 26  1  0  0  0
  7 29  1  0  0  0
  8  9  1  0  0  0
  8 22  1  0  0  0
  9 10  1  0  0  0
  9 27  2  0  0  0
 10 11  2  0  0  0
 10 15  1  0  0  0
 11 12  1  0  0  0
 11 95  1  0  0  0
 12 13  2  0  0  0
 12 96  1  0  0  0
 13 14  1  0  0  0
 13 31  1  0  0  0
 14 15  2  0  0  0
 14 97  1  0  0  0
 15 98  1  0  0  0
 16 17  2  0  0  0
 16 21  1  0  0  0
 16 31  1  0  0  0
 17 18  1  0  0  0
 17 99  1  0  0  0
 18 19  2  0  0  0
 18100  1  0  0  0
 19 20  1  0  0  0
 19 24  1  0  0  0
 20 21  2  0  0  0
 20101  1  0  0  0
 21 23  1  0  0  0
 22 28  1  0  0  0
 22 32  2  0  0  0
 26 27  1  0  0  0
 28102  1  0  0  0
 28103  1  0  0  0
 29104  1  0  0  0
 29105  1  0  0  0
 33 34  1  0  0  0
 33 66  1  0  0  0
 33 70  2  0  0  0
 34 36  1  0  0  0
 34 59  1  0  0  0
 34106  1  0  0  0
 35 44  2  0  0  0
 35 45  1  0  0  0
 35 68  1  0  0  0
 36 56  1  0  0  0
 36107  1  0  0  0
 37 39  1  0  0  0
 37 47  1  0  0  0
 37 66  1  0  0  0
 37108  1  0  0  0
 38 43  2  0  0  0
 38 46  1  0  0  0
 38 47  1  0  0  0
 39 64  1  0  0  0
 39 67  2  0  0  0
 40 52  1  0  0  0
 40 53  2  0  0  0
 40 58  1  0  0  0
 41109  1  0  0  0
 41110  1  0  0  0
 41111  1  0  0  0
 41 48  1  0  0  0
 42 43  1  0  0  0
 42 66  1  0  0  0
 42112  1  0  0  0
 42113  1  0  0  0
 43 44  1  0  0  0
 44114  1  0  0  0
 45 46  2  0  0  0
 45115  1  0  0  0
 46116  1  0  0  0
 47117  1  0  0  0
 47118  1  0  0  0
 48 56  1  0  0  0
 48 65  1  0  0  0
 48119  1  0  0  0
 49 50  1  0  0  0
 49 53  1  0  0  0
 49 64  1  0  0  0
 49120  1  0  0  0
 50 51  1  0  0  0
 50121  1  0  0  0
 50122  1  0  0  0
 51 52  1  0  0  0
 51123  1  0  0  0
 51124  1  0  0  0
 52125  1  0  0  0
 52126  1  0  0  0
 53 54  1  0  0  0
 54 55  2  0  0  0
 54127  1  0  0  0
 55 57  1  0  0  0
 55128  1  0  0  0
 56 69  2  0  0  0
 57 58  2  0  0  0
 57129  1  0  0  0
 58130  1  0  0  0
 59 60  1  0  0  0
 59 61  1  0  0  0
 59 62  1  0  0  0
 60131  1  0  0  0
 60132  1  0  0  0
 60133  1  0  0  0
 61134  1  0  0  0
 61135  1  0  0  0
 61136  1  0  0  0
 62137  1  0  0  0
 62138  1  0  0  0
 62139  1  0  0  0
 63 65  1  0  0  0
 63140  1  0  0  0
 63141  1  0  0  0
 63142  1  0  0  0
 64143  1  0  0  0
 65144  1  0  0  0
 68 81  1  0  0  0
 71 73  2  0  0  0
 71 74  1  0  0  0
 71145  1  0  0  0
 72 73  1  0  0  0
 72 83  2  0  0  0
 72146  1  0  0  0
 73 78  1  0  0  0
 74 75  2  0  0  0
 74 84  1  0  0  0
 75 76  1  0  0  0
 75 83  1  0  0  0
 76147  1  0  0  0
 76148  1  0  0  0
 76149  1  0  0  0
 77150  1  0  0  0
 77151  1  0  0  0
 77152  1  0  0  0
 77 82  1  0  0  0
 78 85  1  0  0  0
 78153  1  0  0  0
 78154  1  0  0  0
 79 80  1  0  0  0
 79 81  1  0  0  0
 79155  1  0  0  0
 79156  1  0  0  0
 80 82  1  0  0  0
 80157  1  0  0  0
 80158  1  0  0  0
 81159  1  0  0  0
 81160  1  0  0  0
 82 84  1  0  0  0
 82161  1  0  0  0
 84162  1  0  0  0
 85163  1  0  0  0
M  ISO  4   1 100  68 101  81 101  85 100
M  END
> <chiral flag>
0

> <version>
0

> <s_m_source_file>
/data/baiqing/PycharmProjects/Reinvent-master-3.2/result/LINK_invent/BTK/process_docking_weight1_custom_sum_contain_oxygen_bond_distance_aromatic_linkinvent_7_9_3/rearranged_h_0109.sdf

> <i_m_source_file_index>
82

> <r_mmod_Potential_Energy-OPLS-2005>
17969.50390625

> <r_mmod_Stretch_Energy-OPLS-2005>
8667.0654296875

> <r_mmod_Bend_Energy-OPLS-2005>
1559.85803222656

> <r_mmod_Torsional_Energy-OPLS-2005>
735.989929199219

> <r_mmod_Improper_Torsional_Energy-OPLS-2005>
67.9335250854492

> <r_mmod_Van_der_Waal_Energy-OPLS-2005>
3262.09716796875

> <r_mmod_Electrostatic_Energy-OPLS-2005>
-483.184478759766

> <r_mmod_Solvation_Energy-OPLS-2005>
-240.172943115234

> <b_mmod_Minimization_Converged-OPLS-2005>
0

> <r_mmod_RMS_Derivative-OPLS-2005>
7.81487321853638

$$$$
82
                    3D
 Structure written by MMmdl.
171179  0  0  1  0            999 V2000
  -30.7081  -14.5266   20.5700 C   0  0  0  0  0  0
  -30.4218  -12.3429   19.4442 C   0  0  0  0  0  0
  -29.4999  -12.5142   18.2194 C   0  0  0  0  0  0
  -28.0236  -12.3634   18.6303 C   0  0  0  0  0  0
  -27.6591  -13.2165   19.8745 C   0  0  2  0  0  0
  -28.7012  -13.0453   21.0046 C   0  0  0  0  0  0
  -25.2575  -13.8177   20.5698 C   0  0  0  0  0  0
  -24.1842  -13.0432   20.9177 C   0  0  0  0  0  0
  -24.6407  -11.6912   20.8728 C   0  0  0  0  0  0
  -23.9072  -10.4290   21.0392 C   0  0  0  0  0  0
  -24.3615   -9.4218   21.9177 C   0  0  0  0  0  0
  -23.6293   -8.2251   22.0755 C   0  0  0  0  0  0
  -22.4278   -8.0282   21.3539 C   0  0  0  0  0  0
  -21.9911   -9.0256   20.4641 C   0  0  0  0  0  0
  -22.7244  -10.2135   20.3049 C   0  0  0  0  0  0
  -21.6857   -6.0740   22.5277 C   0  0  0  0  0  0
  -21.4017   -6.5640   23.8209 C   0  0  0  0  0  0
  -21.3660   -5.6794   24.9175 C   0  0  0  0  0  0
  -21.6044   -4.3053   24.7223 C   0  0  0  0  0  0
  -21.8822   -3.8152   23.4345 C   0  0  0  0  0  0
  -21.9196   -4.6963   22.3401 C   0  0  0  0  0  0
  -22.7866  -13.5240   21.1839 C   0  0  0  0  0  0
  -22.1666   -4.2154   21.0978 F   0  0  0  0  0  0
  -21.5626   -3.4540   25.7739 F   0  0  0  0  0  0
  -30.0290  -13.3488   20.4474 N   0  0  0  0  0  0
  -26.3020  -12.9365   20.3372 N   0  0  0  0  0  0
  -25.9336  -11.6515   20.5759 N   0  0  0  0  0  0
  -22.0509  -12.8209   22.0380 N   0  0  0  0  0  0
  -25.4292  -15.1892   20.4127 N   0  0  0  0  0  0
  -31.8293  -14.6894   20.0865 O   0  0  0  0  0  0
  -21.6640   -6.8872   21.4238 O   0  0  0  0  0  0
  -22.3565  -14.5554   20.6714 O   0  0  0  0  0  0
  -24.6171  -31.8646   23.2090 C   0  0  0  0  0  0
  -25.9040  -32.4814   23.8388 C   0  0  1  0  0  0
  -27.2362  -27.3971   20.1005 C   0  0  0  0  0  0
  -25.5888  -33.8612   24.2321 N   0  0  0  0  0  0
  -23.4078  -30.4851   21.5513 C   0  0  2  0  0  0
  -24.8552  -28.9429   20.1194 C   0  0  0  0  0  0
  -22.7420  -29.4635   22.5016 C   0  0  0  0  0  0
  -18.0268  -28.1367   22.8480 C   0  0  0  0  0  0
  -24.1480  -36.7301   23.2651 C   0  0  0  0  0  0
  -25.9396  -30.8178   21.3669 C   0  0  0  0  0  0
  -26.0193  -29.4495   20.7126 C   0  0  0  0  0  0
  -27.2149  -28.6856   20.6944 C   0  0  0  0  0  0
  -26.0524  -26.9149   19.5000 C   0  0  0  0  0  0
  -24.8672  -27.6759   19.5100 C   0  0  0  0  0  0
  -23.6189  -29.8148   20.1679 C   0  0  0  0  0  0
  -25.4107  -36.3104   24.0341 C   0  0  1  0  0  0
  -20.5856  -28.3651   23.1317 C   0  0  2  0  0  0
  -20.6754  -26.9384   22.5427 C   0  0  0  0  0  0
  -19.5744  -26.6372   21.5208 C   0  0  0  0  0  0
  -18.1910  -26.7919   22.1597 C   0  0  0  0  0  0
  -19.1523  -28.8824   23.2889 C   0  0  0  0  0  0
  -18.9452  -30.1429   23.8907 C   0  0  0  0  0  0
  -17.6460  -30.6584   24.0561 C   0  0  0  0  0  0
  -25.9026  -34.9468   23.5127 C   0  0  0  0  0  0
  -16.5344  -29.9072   23.6335 C   0  0  0  0  0  0
  -16.7263  -28.6488   23.0357 C   0  0  0  0  0  0
  -26.4469  -31.6612   25.0730 C   0  0  0  0  0  0
  -25.3734  -31.3724   26.1487 C   0  0  0  0  0  0
  -27.0299  -30.3052   24.6124 C   0  0  0  0  0  0
  -27.6064  -32.4329   25.7459 C   0  0  0  0  0  0
  -27.5583  -37.1807   24.8466 C   0  0  0  0  0  0
  -21.4155  -29.3008   22.3733 N   0  0  0  0  0  0
  -26.4300  -37.3791   23.9398 N   0  0  0  0  0  0
  -24.6733  -31.0700   22.1013 N   0  0  0  0  0  0
  -23.4174  -28.8168   23.3073 O   0  0  0  0  0  0
  -28.3936  -26.6339   20.0819 O   0  0  0  0  0  0
  -26.5609  -34.8928   22.4697 O   0  0  0  0  0  0
  -23.5348  -32.1422   23.7458 O   0  0  0  0  0  0
  -27.5594  -19.0369   17.7553 C   0  0  0  0  0  0
  -28.7296  -19.3035   16.8198 C   0  0  0  0  0  0
  -27.8089  -19.9846   18.9313 C   0  0  0  0  0  0
  -29.9155  -19.5904   17.7432 C   0  0  0  0  0  0
  -29.3498  -20.1658   19.0847 C   0  0  0  0  0  0
  -31.2582  -21.9174   19.4000 C   0  0  0  0  0  0
  -30.6214  -17.4615   22.6105 C   0  0  0  0  0  0
  -28.9250  -24.2085   19.5504 C   0  0  0  0  0  0
  -28.9123  -22.7141   20.0454 C   0  0  0  0  0  0
  -29.4839  -17.9137   20.3468 C   0  0  0  0  0  0
  -28.2959  -25.2535   20.5233 C   0  0  0  0  0  0
  -29.7434  -21.7132   19.1541 C   0  0  2  0  0  0
  -30.4627  -16.9942   21.1506 C   0  0  2  0  0  0
  -30.0346  -15.5665   21.1191 N   0  0  0  0  0  0
  -29.8981  -19.3571   20.2364 N   0  3  0  0  0  0
  -31.4695  -12.4313   19.1500 H   0  0  0  0  0  0
  -30.3173  -11.3423   19.8652 H   0  0  0  0  0  0
  -29.7515  -11.7793   17.4544 H   0  0  0  0  0  0
  -29.6604  -13.4941   17.7668 H   0  0  0  0  0  0
  -27.8461  -11.3086   18.8410 H   0  0  0  0  0  0
  -27.3720  -12.6200   17.7946 H   0  0  0  0  0  0
  -27.6879  -14.2581   19.5546 H   0  0  0  0  0  0
  -28.6876  -12.0257   21.3916 H   0  0  0  0  0  0
  -28.4570  -13.6839   21.8546 H   0  0  0  0  0  0
  -25.2756   -9.5704   22.4756 H   0  0  0  0  0  0
  -24.0012   -7.4647   22.7479 H   0  0  0  0  0  0
  -21.0850   -8.8772   19.8943 H   0  0  0  0  0  0
  -22.3698  -10.9673   19.6160 H   0  0  0  0  0  0
  -21.2010   -7.6149   23.9716 H   0  0  0  0  0  0
  -21.1477   -6.0523   25.9076 H   0  0  0  0  0  0
  -22.0597   -2.7613   23.2846 H   0  0  0  0  0  0
  -22.4130  -11.9842   22.4714 H   0  0  0  0  0  0
  -21.1130  -13.1230   22.2597 H   0  0  0  0  0  0
  -24.6580  -15.8408   20.5087 H   0  0  0  0  0  0
  -26.2788  -15.6272   20.0827 H   0  0  0  0  0  0
  -26.7096  -32.5504   23.1135 H   0  0  0  0  0  0
  -25.0022  -33.9772   25.0447 H   0  0  0  0  0  0
  -22.6979  -31.3031   21.4088 H   0  0  0  0  0  0
  -23.3736  -35.9642   23.3348 H   0  0  0  0  0  0
  -24.3553  -36.8891   22.2058 H   0  0  0  0  0  0
  -23.7239  -37.6517   23.6641 H   0  0  0  0  0  0
  -26.0533  -31.5827   20.5985 H   0  0  0  0  0  0
  -26.8246  -30.8733   21.9878 H   0  0  0  0  0  0
  -28.1144  -29.0748   21.1519 H   0  0  0  0  0  0
  -26.0446  -25.9479   19.0164 H   0  0  0  0  0  0
  -23.9715  -27.2805   19.0491 H   0  0  0  0  0  0
  -23.7276  -30.5890   19.4070 H   0  0  0  0  0  0
  -22.7428  -29.2363   19.8743 H   0  0  0  0  0  0
  -25.1280  -36.1998   25.0840 H   0  0  0  0  0  0
  -20.9933  -28.3233   24.1449 H   0  0  0  0  0  0
  -20.5646  -26.2265   23.3619 H   0  0  0  0  0  0
  -21.6633  -26.7429   22.1241 H   0  0  0  0  0  0
  -19.6920  -25.6287   21.1233 H   0  0  0  0  0  0
  -19.6711  -27.3195   20.6742 H   0  0  0  0  0  0
  -17.4201  -26.6691   21.3977 H   0  0  0  0  0  0
  -18.0283  -26.0039   22.8968 H   0  0  0  0  0  0
  -19.7936  -30.7214   24.2313 H   0  0  0  0  0  0
  -17.5025  -31.6276   24.5135 H   0  0  0  0  0  0
  -15.5353  -30.2977   23.7668 H   0  0  0  0  0  0
  -15.8657  -28.0815   22.7081 H   0  0  0  0  0  0
  -24.5881  -30.7114   25.7807 H   0  0  0  0  0  0
  -24.8953  -32.2884   26.4976 H   0  0  0  0  0  0
  -25.8078  -30.8846   27.0223 H   0  0  0  0  0  0
  -26.2838  -29.6794   24.1219 H   0  0  0  0  0  0
  -27.4105  -29.7328   25.4588 H   0  0  0  0  0  0
  -27.8659  -30.4356   23.9248 H   0  0  0  0  0  0
  -27.2735  -33.3664   26.2002 H   0  0  0  0  0  0
  -28.3876  -32.6833   25.0269 H   0  0  0  0  0  0
  -28.0716  -31.8461   26.5392 H   0  0  0  0  0  0
  -28.2629  -38.0081   24.7484 H   0  0  0  0  0  0
  -28.1048  -36.2604   24.6317 H   0  0  0  0  0  0
  -27.2288  -37.1521   25.8873 H   0  0  0  0  0  0
  -20.9329  -29.8733   21.6952 H   0  0  0  0  0  0
  -26.0196  -38.2874   24.1397 H   0  0  0  0  0  0
  -27.5601  -17.9982   18.0857 H   0  0  0  0  0  0
  -26.5976  -19.2185   17.2723 H   0  0  0  0  0  0
  -28.5193  -20.1857   16.2135 H   0  0  0  0  0  0
  -28.9228  -18.4740   16.1383 H   0  0  0  0  0  0
  -27.3092  -19.6582   19.8444 H   0  0  0  0  0  0
  -27.3374  -20.9260   18.6526 H   0  0  0  0  0  0
  -30.6076  -20.2633   17.2353 H   0  0  0  0  0  0
  -30.4865  -18.6741   17.8905 H   0  0  0  0  0  0
  -31.8817  -21.2867   18.7660 H   0  0  0  0  0  0
  -31.5344  -21.7092   20.4338 H   0  0  0  0  0  0
  -31.5573  -22.9438   19.1897 H   0  0  0  0  0  0
  -31.0317  -18.4712   22.6625 H   0  0  0  0  0  0
  -31.3073  -16.8222   23.1681 H   0  0  0  0  0  0
  -29.6660  -17.4702   23.1370 H   0  0  0  0  0  0
  -28.4011  -24.2704   18.5954 H   0  0  0  0  0  0
  -29.9474  -24.5195   19.3427 H   0  0  0  0  0  0
  -27.8666  -22.4174   20.1028 H   0  0  0  0  0  0
  -29.2717  -22.6671   21.0738 H   0  0  0  0  0  0
  -28.4928  -17.8725   20.7989 H   0  0  0  0  0  0
  -29.3807  -17.4768   19.3559 H   0  0  0  0  0  0
  -28.8352  -25.2002   21.4698 H   0  0  0  0  0  0
  -27.2723  -24.9621   20.7610 H   0  0  0  0  0  0
  -29.5556  -22.0717   18.1402 H   0  0  0  0  0  0
  -31.4453  -17.0766   20.6825 H   0  0  0  0  0  0
  -29.1200  -15.3483   21.4871 H   0  0  0  0  0  0
  -29.6653  -19.8130   21.1049 H   0  0  0  0  0  0
  -30.9021  -19.3765   20.1548 H   0  0  0  0  0  0
  1 25  1  0  0  0
  1 30  2  0  0  0
  1 84  1  0  0  0
  2  3  1  0  0  0
  2 25  1  0  0  0
  2 86  1  0  0  0
  2 87  1  0  0  0
  3  4  1  0  0  0
  3 88  1  0  0  0
  3 89  1  0  0  0
  4  5  1  0  0  0
  4 90  1  0  0  0
  4 91  1  0  0  0
  5  6  1  0  0  0
  5 26  1  0  0  0
  5 92  1  0  0  0
  6 25  1  0  0  0
  6 93  1  0  0  0
  6 94  1  0  0  0
  7  8  2  0  0  0
  7 26  1  0  0  0
  7 29  1  0  0  0
  8  9  1  0  0  0
  8 22  1  0  0  0
  9 10  1  0  0  0
  9 27  2  0  0  0
 10 11  2  0  0  0
 10 15  1  0  0  0
 11 12  1  0  0  0
 11 95  1  0  0  0
 12 13  2  0  0  0
 12 96  1  0  0  0
 13 14  1  0  0  0
 13 31  1  0  0  0
 14 15  2  0  0  0
 14 97  1  0  0  0
 15 98  1  0  0  0
 16 17  2  0  0  0
 16 21  1  0  0  0
 16 31  1  0  0  0
 17 18  1  0  0  0
 17 99  1  0  0  0
 18 19  2  0  0  0
 18100  1  0  0  0
 19 20  1  0  0  0
 19 24  1  0  0  0
 20 21  2  0  0  0
 20101  1  0  0  0
 21 23  1  0  0  0
 22 28  1  0  0  0
 22 32  2  0  0  0
 26 27  1  0  0  0
 28102  1  0  0  0
 28103  1  0  0  0
 29104  1  0  0  0
 29105  1  0  0  0
 33 34  1  0  0  0
 33 66  1  0  0  0
 33 70  2  0  0  0
 34 36  1  0  0  0
 34 59  1  0  0  0
 34106  1  0  0  0
 35 44  2  0  0  0
 35 45  1  0  0  0
 35 68  1  0  0  0
 36 56  1  0  0  0
 36107  1  0  0  0
 37 39  1  0  0  0
 37 47  1  0  0  0
 37 66  1  0  0  0
 37108  1  0  0  0
 38 43  2  0  0  0
 38 46  1  0  0  0
 38 47  1  0  0  0
 39 64  1  0  0  0
 39 67  2  0  0  0
 40 52  1  0  0  0
 40 53  2  0  0  0
 40 58  1  0  0  0
 41109  1  0  0  0
 41110  1  0  0  0
 41111  1  0  0  0
 41 48  1  0  0  0
 42 43  1  0  0  0
 42 66  1  0  0  0
 42112  1  0  0  0
 42113  1  0  0  0
 43 44  1  0  0  0
 44114  1  0  0  0
 45 46  2  0  0  0
 45115  1  0  0  0
 46116  1  0  0  0
 47117  1  0  0  0
 47118  1  0  0  0
 48 56  1  0  0  0
 48 65  1  0  0  0
 48119  1  0  0  0
 49 50  1  0  0  0
 49 53  1  0  0  0
 49 64  1  0  0  0
 49120  1  0  0  0
 50 51  1  0  0  0
 50121  1  0  0  0
 50122  1  0  0  0
 51 52  1  0  0  0
 51123  1  0  0  0
 51124  1  0  0  0
 52125  1  0  0  0
 52126  1  0  0  0
 53 54  1  0  0  0
 54 55  2  0  0  0
 54127  1  0  0  0
 55 57  1  0  0  0
 55128  1  0  0  0
 56 69  2  0  0  0
 57 58  2  0  0  0
 57129  1  0  0  0
 58130  1  0  0  0
 59 60  1  0  0  0
 59 61  1  0  0  0
 59 62  1  0  0  0
 60131  1  0  0  0
 60132  1  0  0  0
 60133  1  0  0  0
 61134  1  0  0  0
 61135  1  0  0  0
 61136  1  0  0  0
 62137  1  0  0  0
 62138  1  0  0  0
 62139  1  0  0  0
 63 65  1  0  0  0
 63140  1  0  0  0
 63141  1  0  0  0
 63142  1  0  0  0
 64143  1  0  0  0
 65144  1  0  0  0
 68 81  1  0  0  0
 71 72  1  0  0  0
 71 73  1  0  0  0
 71145  1  0  0  0
 71146  1  0  0  0
 72 74  1  0  0  0
 72147  1  0  0  0
 72148  1  0  0  0
 73 75  1  0  0  0
 73149  1  0  0  0
 73150  1  0  0  0
 74 75  1  0  0  0
 74151  1  0  0  0
 74152  1  0  0  0
 75 82  1  0  0  0
 75 85  1  0  0  0
 76153  1  0  0  0
 76154  1  0  0  0
 76155  1  0  0  0
 76 82  1  0  0  0
 77156  1  0  0  0
 77157  1  0  0  0
 77158  1  0  0  0
 77 83  1  0  0  0
 78 79  1  0  0  0
 78 81  1  0  0  0
 78159  1  0  0  0
 78160  1  0  0  0
 79 82  1  0  0  0
 79161  1  0  0  0
 79162  1  0  0  0
 80 83  1  0  0  0
 80 85  1  0  0  0
 80163  1  0  0  0
 80164  1  0  0  0
 81165  1  0  0  0
 81166  1  0  0  0
 82167  1  0  0  0
 83 84  1  0  0  0
 83168  1  0  0  0
 84169  1  0  0  0
 85170  1  0  0  0
 85171  1  0  0  0
M  CHG  1  85   1
M  ISO  4   1 100  68 101  81 101  84 100
M  END
> <chiral flag>
0

> <version>
0

> <s_m_source_file>
/data/baiqing/PycharmProjects/Reinvent-master-3.2/result/LINK_invent/BTK/process_docking_weight1_custom_sum_contain_oxygen_bond_distance_aromatic_linkinvent_7_9_3/rearranged_h_0109.sdf

> <i_m_source_file_index>
83

> <r_mmod_Potential_Energy-OPLS-2005>
-83.2656402587891

> <r_mmod_Stretch_Energy-OPLS-2005>
57.6273727416992

> <r_mmod_Bend_Energy-OPLS-2005>
138.833557128906

> <r_mmod_Torsional_Energy-OPLS-2005>
318.550231933594

> <r_mmod_Improper_Torsional_Energy-OPLS-2005>
3.27766871452332

> <r_mmod_Van_der_Waal_Energy-OPLS-2005>
132.586013793945

> <r_mmod_Electrostatic_Energy-OPLS-2005>
-306.912078857422

> <r_mmod_Solvation_Energy-OPLS-2005>
-446.391143798828

> <b_mmod_Minimization_Converged-OPLS-2005>
0

> <r_mmod_RMS_Derivative-OPLS-2005>
2.67079997062683

$$$$
83
                    3D
 Structure written by MMmdl.
163171  0  0  1  0            999 V2000
  -30.5171  -15.0461   20.4154 C   0  0  0  0  0  0
  -30.4392  -12.6630   19.4975 C   0  0  0  0  0  0
  -29.5229  -12.5353   18.2591 C   0  0  0  0  0  0
  -28.0615  -12.2995   18.6846 C   0  0  0  0  0  0
  -27.6190  -13.2552   19.8227 C   0  0  2  0  0  0
  -28.6604  -13.3401   20.9569 C   0  0  0  0  0  0
  -25.2427  -13.8221   20.5717 C   0  0  0  0  0  0
  -24.1762  -13.0436   20.9243 C   0  0  0  0  0  0
  -24.6387  -11.6921   20.8755 C   0  0  0  0  0  0
  -23.9074  -10.4290   21.0405 C   0  0  0  0  0  0
  -24.3631   -9.4202   21.9178 C   0  0  0  0  0  0
  -23.6306   -8.2237   22.0750 C   0  0  0  0  0  0
  -22.4288   -8.0278   21.3540 C   0  0  0  0  0  0
  -21.9915   -9.0248   20.4645 C   0  0  0  0  0  0
  -22.7244  -10.2127   20.3050 C   0  0  0  0  0  0
  -21.6851   -6.0737   22.5280 C   0  0  0  0  0  0
  -21.4013   -6.5638   23.8214 C   0  0  0  0  0  0
  -21.3668   -5.6790   24.9176 C   0  0  0  0  0  0
  -21.6046   -4.3050   24.7227 C   0  0  0  0  0  0
  -21.8823   -3.8146   23.4345 C   0  0  0  0  0  0
  -21.9189   -4.6966   22.3399 C   0  0  0  0  0  0
  -22.7778  -13.5201   21.1884 C   0  0  0  0  0  0
  -22.1659   -4.2150   21.0978 F   0  0  0  0  0  0
  -21.5624   -3.4535   25.7738 F   0  0  0  0  0  0
  -29.9169  -13.7826   20.3394 N   0  0  0  0  0  0
  -26.2838  -12.9458   20.3189 N   0  0  0  0  0  0
  -25.9317  -11.6587   20.5715 N   0  0  0  0  0  0
  -22.0424  -12.8197   22.0446 N   0  0  0  0  0  0
  -25.4082  -15.1950   20.4153 N   0  0  0  0  0  0
  -31.7389  -15.0707   20.2342 O   0  0  0  0  0  0
  -21.6642   -6.8881   21.4241 O   0  0  0  0  0  0
  -22.3468  -14.5502   20.6720 O   0  0  0  0  0  0
  -24.6479  -31.8370   23.1818 C   0  0  0  0  0  0
  -25.9223  -32.4653   23.8227 C   0  0  1  0  0  0
  -27.2241  -27.0706   20.1856 C   0  0  0  0  0  0
  -25.5943  -33.8457   24.2143 N   0  0  0  0  0  0
  -23.4553  -30.4502   21.5283 C   0  0  2  0  0  0
  -24.9056  -28.8515   20.1263 C   0  0  0  0  0  0
  -22.7586  -29.4502   22.4855 C   0  0  0  0  0  0
  -18.0299  -28.1393   22.8467 C   0  0  0  0  0  0
  -24.1497  -36.7240   23.2646 C   0  0  0  0  0  0
  -26.0134  -30.6916   21.3876 C   0  0  0  0  0  0
  -26.0846  -29.2906   20.7422 C   0  0  0  0  0  0
  -27.2461  -28.4217   20.7402 C   0  0  0  0  0  0
  -26.0154  -26.7327   19.5457 C   0  0  0  0  0  0
  -24.8866  -27.5885   19.5104 C   0  0  0  0  0  0
  -23.6871  -29.7661   20.1535 C   0  0  0  0  0  0
  -25.4130  -36.3000   24.0309 C   0  0  1  0  0  0
  -20.5914  -28.3720   23.1234 C   0  0  2  0  0  0
  -20.6782  -26.9420   22.5407 C   0  0  0  0  0  0
  -19.5761  -26.6376   21.5208 C   0  0  0  0  0  0
  -18.1941  -26.7928   22.1615 C   0  0  0  0  0  0
  -19.1556  -28.8877   23.2838 C   0  0  0  0  0  0
  -18.9470  -30.1471   23.8869 C   0  0  0  0  0  0
  -17.6467  -30.6590   24.0554 C   0  0  0  0  0  0
  -25.9076  -34.9381   23.5041 C   0  0  0  0  0  0
  -16.5362  -29.9081   23.6336 C   0  0  0  0  0  0
  -16.7283  -28.6498   23.0356 C   0  0  0  0  0  0
  -26.4536  -31.6543   25.0693 C   0  0  0  0  0  0
  -25.3707  -31.3751   26.1381 C   0  0  0  0  0  0
  -27.0410  -30.2932   24.6304 C   0  0  0  0  0  0
  -27.6056  -32.4329   25.7481 C   0  0  0  0  0  0
  -27.5576  -37.1777   24.8465 C   0  0  0  0  0  0
  -21.4274  -29.3043   22.3607 N   0  0  0  0  0  0
  -26.4284  -37.3726   23.9406 N   0  0  0  0  0  0
  -24.7260  -31.0168   22.0877 N   0  0  0  0  0  0
  -23.4200  -28.8057   23.3039 O   0  0  0  0  0  0
  -28.3227  -26.1252   20.1091 O   0  0  0  0  0  0
  -26.5676  -34.8894   22.4630 O   0  0  0  0  0  0
  -23.5585  -32.1269   23.7005 O   0  0  0  0  0  0
  -30.4440  -20.0712   19.3726 C   0  0  0  0  0  0
  -28.7857  -20.3659   20.7294 C   0  0  0  0  0  0
  -29.6979  -19.3215   20.3424 C   0  0  0  0  0  0
  -30.0463  -21.3975   19.2449 C   0  0  0  0  0  0
  -30.0146  -22.2446   16.8887 C   0  0  0  0  0  0
  -32.1292  -22.4287   18.2582 C   0  0  0  0  0  0
  -28.1083  -23.0659   20.0537 C   0  0  0  0  0  0
  -30.2872  -17.8272   22.4251 C   0  0  0  0  0  0
  -28.4618  -24.6371   20.6505 C   0  0  0  0  0  0
  -30.1841  -17.7750   20.8836 C   0  0  1  0  0  0
  -30.5943  -22.4297   18.2984 C   0  0  0  0  0  0
  -28.9663  -21.6840   20.0862 N   0  0  0  0  0  0
  -29.7639  -16.2752   20.5066 N   0  0  0  0  0  0
  -31.0119  -19.0222   22.8921 N   0  3  0  0  0  0
  -31.4667  -12.8412   19.1777 H   0  0  0  0  0  0
  -30.4638  -11.7309   20.0633 H   0  0  0  0  0  0
  -29.8642  -11.7213   17.6173 H   0  0  0  0  0  0
  -29.5868  -13.4445   17.6596 H   0  0  0  0  0  0
  -27.9823  -11.2658   19.0230 H   0  0  0  0  0  0
  -27.3960  -12.3887   17.8247 H   0  0  0  0  0  0
  -27.5620  -14.2427   19.3629 H   0  0  0  0  0  0
  -28.7772  -12.3814   21.4638 H   0  0  0  0  0  0
  -28.3393  -14.0549   21.7161 H   0  0  0  0  0  0
  -25.2776   -9.5676   22.4753 H   0  0  0  0  0  0
  -24.0010   -7.4631   22.7477 H   0  0  0  0  0  0
  -21.0836   -8.8774   19.8962 H   0  0  0  0  0  0
  -22.3701  -10.9667   19.6162 H   0  0  0  0  0  0
  -21.2008   -7.6148   23.9720 H   0  0  0  0  0  0
  -21.1483   -6.0517   25.9079 H   0  0  0  0  0  0
  -22.0593   -2.7611   23.2839 H   0  0  0  0  0  0
  -22.4043  -11.9875   22.4859 H   0  0  0  0  0  0
  -21.1037  -13.1213   22.2634 H   0  0  0  0  0  0
  -24.6336  -15.8413   20.5242 H   0  0  0  0  0  0
  -26.2428  -15.6366   20.0528 H   0  0  0  0  0  0
  -26.7282  -32.5246   23.0946 H   0  0  0  0  0  0
  -25.0058  -33.9555   25.0265 H   0  0  0  0  0  0
  -22.7609  -31.2769   21.3649 H   0  0  0  0  0  0
  -23.3753  -35.9577   23.3296 H   0  0  0  0  0  0
  -24.3582  -36.8886   22.2064 H   0  0  0  0  0  0
  -23.7267  -37.6433   23.6701 H   0  0  0  0  0  0
  -26.1712  -31.4375   20.6074 H   0  0  0  0  0  0
  -26.8832  -30.7507   22.0306 H   0  0  0  0  0  0
  -28.1573  -28.7689   21.2061 H   0  0  0  0  0  0
  -25.9382  -25.7667   19.0669 H   0  0  0  0  0  0
  -23.9884  -27.2475   19.0149 H   0  0  0  0  0  0
  -23.8360  -30.5341   19.3932 H   0  0  0  0  0  0
  -22.8005  -29.2111   19.8415 H   0  0  0  0  0  0
  -25.1329  -36.1813   25.0801 H   0  0  0  0  0  0
  -20.9996  -28.3309   24.1360 H   0  0  0  0  0  0
  -20.5670  -26.2333   23.3625 H   0  0  0  0  0  0
  -21.6649  -26.7421   22.1217 H   0  0  0  0  0  0
  -19.6928  -25.6281   21.1257 H   0  0  0  0  0  0
  -19.6705  -27.3173   20.6728 H   0  0  0  0  0  0
  -17.4214  -26.6668   21.4014 H   0  0  0  0  0  0
  -18.0342  -26.0074   22.9018 H   0  0  0  0  0  0
  -19.7946  -30.7286   24.2234 H   0  0  0  0  0  0
  -17.5022  -31.6269   24.5157 H   0  0  0  0  0  0
  -15.5360  -30.2976   23.7672 H   0  0  0  0  0  0
  -15.8679  -28.0808   22.7096 H   0  0  0  0  0  0
  -24.5879  -30.7109   25.7700 H   0  0  0  0  0  0
  -24.8903  -32.2939   26.4752 H   0  0  0  0  0  0
  -25.7975  -30.8952   27.0193 H   0  0  0  0  0  0
  -26.3036  -29.6639   24.1306 H   0  0  0  0  0  0
  -27.4002  -29.7256   25.4899 H   0  0  0  0  0  0
  -27.8953  -30.4160   23.9645 H   0  0  0  0  0  0
  -27.2631  -33.3650   26.1988 H   0  0  0  0  0  0
  -28.3896  -32.6852   25.0329 H   0  0  0  0  0  0
  -28.0683  -31.8494   26.5449 H   0  0  0  0  0  0
  -28.2581  -38.0083   24.7498 H   0  0  0  0  0  0
  -28.1079  -36.2606   24.6305 H   0  0  0  0  0  0
  -27.2286  -37.1440   25.8865 H   0  0  0  0  0  0
  -20.9497  -29.8734   21.6758 H   0  0  0  0  0  0
  -26.0137  -38.2787   24.1402 H   0  0  0  0  0  0
  -31.2788  -19.6673   18.8159 H   0  0  0  0  0  0
  -27.9891  -20.2938   21.4589 H   0  0  0  0  0  0
  -28.9280  -22.3354   16.8939 H   0  0  0  0  0  0
  -30.2622  -21.2605   16.4868 H   0  0  0  0  0  0
  -30.4033  -22.9919   16.1966 H   0  0  0  0  0  0
  -32.5426  -22.6024   19.2518 H   0  0  0  0  0  0
  -32.5047  -23.2178   17.6059 H   0  0  0  0  0  0
  -32.5279  -21.4834   17.8886 H   0  0  0  0  0  0
  -27.8749  -23.2197   19.0007 H   0  0  0  0  0  0
  -27.1376  -22.8071   20.4777 H   0  0  0  0  0  0
  -30.7818  -16.9380   22.8200 H   0  0  0  0  0  0
  -29.2856  -17.8452   22.8550 H   0  0  0  0  0  0
  -29.5339  -24.5866   20.8442 H   0  0  0  0  0  0
  -28.0324  -24.6716   21.6514 H   0  0  0  0  0  0
  -31.2182  -17.7658   20.5367 H   0  0  0  0  0  0
  -30.3060  -23.4239   18.6415 H   0  0  0  0  0  0
  -28.7650  -16.1312   20.4996 H   0  0  0  0  0  0
  -30.9936  -19.0742   23.8951 H   0  0  0  0  0  0
  -30.5811  -19.8473   22.5090 H   0  0  0  0  0  0
  -31.9702  -18.9939   22.5941 H   0  0  0  0  0  0
  1 25  1  0  0  0
  1 30  2  0  0  0
  1 83  1  0  0  0
  2  3  1  0  0  0
  2 25  1  0  0  0
  2 85  1  0  0  0
  2 86  1  0  0  0
  3  4  1  0  0  0
  3 87  1  0  0  0
  3 88  1  0  0  0
  4  5  1  0  0  0
  4 89  1  0  0  0
  4 90  1  0  0  0
  5  6  1  0  0  0
  5 26  1  0  0  0
  5 91  1  0  0  0
  6 25  1  0  0  0
  6 92  1  0  0  0
  6 93  1  0  0  0
  7  8  2  0  0  0
  7 26  1  0  0  0
  7 29  1  0  0  0
  8  9  1  0  0  0
  8 22  1  0  0  0
  9 10  1  0  0  0
  9 27  2  0  0  0
 10 11  2  0  0  0
 10 15  1  0  0  0
 11 12  1  0  0  0
 11 94  1  0  0  0
 12 13  2  0  0  0
 12 95  1  0  0  0
 13 14  1  0  0  0
 13 31  1  0  0  0
 14 15  2  0  0  0
 14 96  1  0  0  0
 15 97  1  0  0  0
 16 17  2  0  0  0
 16 21  1  0  0  0
 16 31  1  0  0  0
 17 18  1  0  0  0
 17 98  1  0  0  0
 18 19  2  0  0  0
 18 99  1  0  0  0
 19 20  1  0  0  0
 19 24  1  0  0  0
 20 21  2  0  0  0
 20100  1  0  0  0
 21 23  1  0  0  0
 22 28  1  0  0  0
 22 32  2  0  0  0
 26 27  1  0  0  0
 28101  1  0  0  0
 28102  1  0  0  0
 29103  1  0  0  0
 29104  1  0  0  0
 33 34  1  0  0  0
 33 66  1  0  0  0
 33 70  2  0  0  0
 34 36  1  0  0  0
 34 59  1  0  0  0
 34105  1  0  0  0
 35 44  2  0  0  0
 35 45  1  0  0  0
 35 68  1  0  0  0
 36 56  1  0  0  0
 36106  1  0  0  0
 37 39  1  0  0  0
 37 47  1  0  0  0
 37 66  1  0  0  0
 37107  1  0  0  0
 38 43  2  0  0  0
 38 46  1  0  0  0
 38 47  1  0  0  0
 39 64  1  0  0  0
 39 67  2  0  0  0
 40 52  1  0  0  0
 40 53  2  0  0  0
 40 58  1  0  0  0
 41108  1  0  0  0
 41109  1  0  0  0
 41110  1  0  0  0
 41 48  1  0  0  0
 42 43  1  0  0  0
 42 66  1  0  0  0
 42111  1  0  0  0
 42112  1  0  0  0
 43 44  1  0  0  0
 44113  1  0  0  0
 45 46  2  0  0  0
 45114  1  0  0  0
 46115  1  0  0  0
 47116  1  0  0  0
 47117  1  0  0  0
 48 56  1  0  0  0
 48 65  1  0  0  0
 48118  1  0  0  0
 49 50  1  0  0  0
 49 53  1  0  0  0
 49 64  1  0  0  0
 49119  1  0  0  0
 50 51  1  0  0  0
 50120  1  0  0  0
 50121  1  0  0  0
 51 52  1  0  0  0
 51122  1  0  0  0
 51123  1  0  0  0
 52124  1  0  0  0
 52125  1  0  0  0
 53 54  1  0  0  0
 54 55  2  0  0  0
 54126  1  0  0  0
 55 57  1  0  0  0
 55127  1  0  0  0
 56 69  2  0  0  0
 57 58  2  0  0  0
 57128  1  0  0  0
 58129  1  0  0  0
 59 60  1  0  0  0
 59 61  1  0  0  0
 59 62  1  0  0  0
 60130  1  0  0  0
 60131  1  0  0  0
 60132  1  0  0  0
 61133  1  0  0  0
 61134  1  0  0  0
 61135  1  0  0  0
 62136  1  0  0  0
 62137  1  0  0  0
 62138  1  0  0  0
 63 65  1  0  0  0
 63139  1  0  0  0
 63140  1  0  0  0
 63141  1  0  0  0
 64142  1  0  0  0
 65143  1  0  0  0
 68 79  1  0  0  0
 71 73  1  0  0  0
 71 74  2  0  0  0
 71144  1  0  0  0
 72 73  2  0  0  0
 72 82  1  0  0  0
 72145  1  0  0  0
 73 80  1  0  0  0
 74 81  1  0  0  0
 74 82  1  0  0  0
 75146  1  0  0  0
 75147  1  0  0  0
 75148  1  0  0  0
 75 81  1  0  0  0
 76 81  1  0  0  0
 76149  1  0  0  0
 76150  1  0  0  0
 76151  1  0  0  0
 77 79  1  0  0  0
 77 82  1  0  0  0
 77152  1  0  0  0
 77153  1  0  0  0
 78 84  1  0  0  0
 78154  1  0  0  0
 78155  1  0  0  0
 78 80  1  0  0  0
 79156  1  0  0  0
 79157  1  0  0  0
 80 83  1  0  0  0
 80158  1  0  0  0
 81159  1  0  0  0
 83160  1  0  0  0
 84161  1  0  0  0
 84162  1  0  0  0
 84163  1  0  0  0
M  CHG  1  84   1
M  ISO  4   1 100  68 101  79 101  83 100
M  END
> <chiral flag>
0

> <version>
0

> <s_m_source_file>
/data/baiqing/PycharmProjects/Reinvent-master-3.2/result/LINK_invent/BTK/process_docking_weight1_custom_sum_contain_oxygen_bond_distance_aromatic_linkinvent_7_9_3/rearranged_h_0109.sdf

> <i_m_source_file_index>
84

> <r_mmod_Potential_Energy-OPLS-2005>
417.704864501953

> <r_mmod_Stretch_Energy-OPLS-2005>
339.430053710938

> <r_mmod_Bend_Energy-OPLS-2005>
378.566162109375

> <r_mmod_Torsional_Energy-OPLS-2005>
276.349273681641

> <r_mmod_Improper_Torsional_Energy-OPLS-2005>
8.28157520294189

> <r_mmod_Van_der_Waal_Energy-OPLS-2005>
104.579154968262

> <r_mmod_Electrostatic_Energy-OPLS-2005>
-453.544708251953

> <r_mmod_Solvation_Energy-OPLS-2005>
-487.356872558594

> <b_mmod_Minimization_Converged-OPLS-2005>
0

> <r_mmod_RMS_Derivative-OPLS-2005>
1.74379527568817

$$$$
84
                    3D
 Structure written by MMmdl.
176185  0  0  1  0            999 V2000
  -30.6425  -14.5863   20.5084 C   0  0  0  0  0  0
  -30.4382  -12.3531   19.4652 C   0  0  0  0  0  0
  -29.5252  -12.5035   18.2286 C   0  0  0  0  0  0
  -28.0421  -12.3468   18.6246 C   0  0  0  0  0  0
  -27.6589  -13.1974   19.8675 C   0  0  2  0  0  0
  -28.6991  -13.0553   21.0016 C   0  0  0  0  0  0
  -25.2626  -13.7810   20.5895 C   0  0  0  0  0  0
  -24.1833  -13.0197   20.9213 C   0  0  0  0  0  0
  -24.6413  -11.6667   20.8701 C   0  0  0  0  0  0
  -23.9060  -10.4121   21.0358 C   0  0  0  0  0  0
  -24.3586   -9.4048   21.9153 C   0  0  0  0  0  0
  -23.6249   -8.2122   22.0728 C   0  0  0  0  0  0
  -22.4245   -8.0182   21.3510 C   0  0  0  0  0  0
  -21.9871   -9.0153   20.4627 C   0  0  0  0  0  0
  -22.7217  -10.2010   20.3022 C   0  0  0  0  0  0
  -21.6815   -6.0681   22.5267 C   0  0  0  0  0  0
  -21.3974   -6.5583   23.8200 C   0  0  0  0  0  0
  -21.3644   -5.6743   24.9169 C   0  0  0  0  0  0
  -21.6053   -4.3013   24.7211 C   0  0  0  0  0  0
  -21.8835   -3.8094   23.4340 C   0  0  0  0  0  0
  -21.9172   -4.6920   22.3388 C   0  0  0  0  0  0
  -22.7866  -13.5043   21.1836 C   0  0  0  0  0  0
  -22.1671   -4.2108   21.0983 F   0  0  0  0  0  0
  -21.5638   -3.4504   25.7738 F   0  0  0  0  0  0
  -30.0181  -13.3721   20.4428 N   0  0  0  0  0  0
  -26.3051  -12.9081   20.3325 N   0  0  0  0  0  0
  -25.9333  -11.6255   20.5630 N   0  0  0  0  0  0
  -22.0471  -12.8094   22.0409 N   0  0  0  0  0  0
  -25.4437  -15.1393   20.4654 N   0  0  0  0  0  0
  -31.7989  -14.7414   20.1145 O   0  0  0  0  0  0
  -21.6578   -6.8810   21.4228 O   0  0  0  0  0  0
  -22.3575  -14.5359   20.6632 O   0  0  0  0  0  0
  -24.6208  -31.8593   23.2004 C   0  0  0  0  0  0
  -25.9085  -32.4761   23.8332 C   0  0  1  0  0  0
  -27.2266  -27.3813   20.1122 C   0  0  0  0  0  0
  -25.5938  -33.8562   24.2256 N   0  0  0  0  0  0
  -23.4101  -30.4865   21.5342 C   0  0  2  0  0  0
  -24.8567  -28.9405   20.1075 C   0  0  0  0  0  0
  -22.7444  -29.4651   22.4870 C   0  0  0  0  0  0
  -18.0279  -28.1418   22.8487 C   0  0  0  0  0  0
  -24.1497  -36.7314   23.2626 C   0  0  0  0  0  0
  -25.9460  -30.8116   21.3568 C   0  0  0  0  0  0
  -26.0237  -29.4464   20.6974 C   0  0  0  0  0  0
  -27.2209  -28.6855   20.6761 C   0  0  0  0  0  0
  -26.0392  -26.8919   19.5345 C   0  0  0  0  0  0
  -24.8612  -27.6617   19.5218 C   0  0  0  0  0  0
  -23.6255  -29.8179   20.1497 C   0  0  0  0  0  0
  -25.4109  -36.3062   24.0319 C   0  0  1  0  0  0
  -20.5870  -28.3707   23.1270 C   0  0  2  0  0  0
  -20.6776  -26.9451   22.5378 C   0  0  0  0  0  0
  -19.5737  -26.6422   21.5196 C   0  0  0  0  0  0
  -18.1923  -26.7966   22.1623 C   0  0  0  0  0  0
  -19.1534  -28.8886   23.2862 C   0  0  0  0  0  0
  -18.9458  -30.1489   23.8879 C   0  0  0  0  0  0
  -17.6468  -30.6613   24.0605 C   0  0  0  0  0  0
  -25.9039  -34.9429   23.5071 C   0  0  0  0  0  0
  -16.5351  -29.9107   23.6364 C   0  0  0  0  0  0
  -16.7266  -28.6535   23.0367 C   0  0  0  0  0  0
  -26.4495  -31.6586   25.0711 C   0  0  0  0  0  0
  -25.3794  -31.3757   26.1495 C   0  0  0  0  0  0
  -27.0319  -30.2995   24.6173 C   0  0  0  0  0  0
  -27.6045  -32.4338   25.7492 C   0  0  0  0  0  0
  -27.5582  -37.1797   24.8458 C   0  0  0  0  0  0
  -21.4158  -29.3046   22.3654 N   0  0  0  0  0  0
  -26.4278  -37.3769   23.9431 N   0  0  0  0  0  0
  -24.6772  -31.0691   22.0890 N   0  0  0  0  0  0
  -23.4210  -28.8242   23.2969 O   0  0  0  0  0  0
  -28.3458  -26.5651   20.1123 O   0  0  0  0  0  0
  -26.5594  -34.8908   22.4624 O   0  0  0  0  0  0
  -23.5381  -32.1344   23.7391 O   0  0  0  0  0  0
  -27.1089  -20.4546   19.5219 C   0  0  0  0  0  0
  -28.9983  -20.6740   20.6472 C   0  0  0  0  0  0
  -28.0202  -21.4212   20.0120 C   0  0  0  0  0  0
  -27.5053  -19.1945   19.8499 C   0  0  0  0  0  0
  -26.2237  -17.6866   15.8113 C   0  0  0  0  0  0
  -27.3860  -16.7113   16.0467 C   0  0  0  0  0  0
  -25.9155  -18.3326   17.1672 C   0  0  0  0  0  0
  -27.7205  -16.7804   17.5460 C   0  0  0  0  0  0
  -26.4836  -17.3840   18.2311 C   0  0  0  0  0  0
  -27.3281  -23.1448   18.3351 C   0  0  0  0  0  0
  -25.3198  -18.2451   20.3581 C   0  0  0  0  0  0
  -28.7864  -23.9925   20.2831 C   0  0  0  0  0  0
  -29.4000  -18.1967   21.2997 C   0  0  0  0  0  0
  -30.1330  -17.0835   20.4593 C   0  0  0  0  0  0
  -28.2090  -25.3355   20.8797 C   0  0  0  0  0  0
  -27.7353  -22.9305   19.8098 C   0  0  2  0  0  0
  -26.6775  -17.9524   19.6828 C   0  0  2  0  0  0
  -28.6914  -19.2976   20.5755 N   0  0  0  0  0  0
  -29.8494  -15.6545   20.8065 N   0  0  0  0  0  0
  -31.4874  -12.4519   19.1801 H   0  0  0  0  0  0
  -30.3452  -11.3541   19.8951 H   0  0  0  0  0  0
  -29.8046  -11.7740   17.4660 H   0  0  0  0  0  0
  -29.6743  -13.4867   17.7788 H   0  0  0  0  0  0
  -27.8724  -11.2908   18.8317 H   0  0  0  0  0  0
  -27.4046  -12.5996   17.7768 H   0  0  0  0  0  0
  -27.6754  -14.2359   19.5459 H   0  0  0  0  0  0
  -28.7021  -12.0450   21.4172 H   0  0  0  0  0  0
  -28.4478  -13.7196   21.8277 H   0  0  0  0  0  0
  -25.2748   -9.5488   22.4713 H   0  0  0  0  0  0
  -23.9904   -7.4509   22.7464 H   0  0  0  0  0  0
  -21.0763   -8.8651   19.9002 H   0  0  0  0  0  0
  -22.3657  -10.9521   19.6105 H   0  0  0  0  0  0
  -21.1980   -7.6091   23.9683 H   0  0  0  0  0  0
  -21.1453   -6.0481   25.9066 H   0  0  0  0  0  0
  -22.0653   -2.7561   23.2842 H   0  0  0  0  0  0
  -22.4006  -11.9698   22.4758 H   0  0  0  0  0  0
  -21.1117  -13.1156   22.2659 H   0  0  0  0  0  0
  -24.6534  -15.7724   20.5099 H   0  0  0  0  0  0
  -26.2664  -15.5641   20.0673 H   0  0  0  0  0  0
  -26.7153  -32.5444   23.1081 H   0  0  0  0  0  0
  -25.0219  -33.9696   25.0491 H   0  0  0  0  0  0
  -22.6977  -31.3025   21.3871 H   0  0  0  0  0  0
  -23.3745  -35.9667   23.3276 H   0  0  0  0  0  0
  -24.3591  -36.8945   22.2043 H   0  0  0  0  0  0
  -23.7281  -37.6527   23.6654 H   0  0  0  0  0  0
  -26.0727  -31.5805   20.5923 H   0  0  0  0  0  0
  -26.8288  -30.8502   21.9829 H   0  0  0  0  0  0
  -28.1276  -29.0865   21.1084 H   0  0  0  0  0  0
  -26.0240  -25.8976   19.1124 H   0  0  0  0  0  0
  -23.9696  -27.2444   19.0737 H   0  0  0  0  0  0
  -23.7577  -30.5921   19.3927 H   0  0  0  0  0  0
  -22.7504  -29.2449   19.8366 H   0  0  0  0  0  0
  -25.1284  -36.1877   25.0812 H   0  0  0  0  0  0
  -20.9934  -28.3290   24.1399 H   0  0  0  0  0  0
  -20.5694  -26.2335   23.3571 H   0  0  0  0  0  0
  -21.6655  -26.7516   22.1173 H   0  0  0  0  0  0
  -19.6884  -25.6315   21.1250 H   0  0  0  0  0  0
  -19.6676  -27.3232   20.6714 H   0  0  0  0  0  0
  -17.4203  -26.6725   21.4019 H   0  0  0  0  0  0
  -18.0330  -26.0097   22.8999 H   0  0  0  0  0  0
  -19.7926  -30.7335   24.2225 H   0  0  0  0  0  0
  -17.5009  -31.6288   24.5236 H   0  0  0  0  0  0
  -15.5347  -30.3033   23.7677 H   0  0  0  0  0  0
  -15.8656  -28.0864   22.7068 H   0  0  0  0  0  0
  -24.5958  -30.7061   25.7939 H   0  0  0  0  0  0
  -24.9025  -32.2942   26.4917 H   0  0  0  0  0  0
  -25.8196  -30.9014   27.0275 H   0  0  0  0  0  0
  -26.2849  -29.6747   24.1251 H   0  0  0  0  0  0
  -27.4052  -29.7237   25.4663 H   0  0  0  0  0  0
  -27.8731  -30.4274   23.9353 H   0  0  0  0  0  0
  -27.2621  -33.3629   26.2067 H   0  0  0  0  0  0
  -28.3881  -32.6919   25.0354 H   0  0  0  0  0  0
  -28.0705  -31.8498   26.5435 H   0  0  0  0  0  0
  -28.2571  -38.0118   24.7527 H   0  0  0  0  0  0
  -28.1092  -36.2649   24.6228 H   0  0  0  0  0  0
  -27.2322  -37.1401   25.8863 H   0  0  0  0  0  0
  -20.9319  -29.8763   21.6874 H   0  0  0  0  0  0
  -26.0138  -38.2830   24.1463 H   0  0  0  0  0  0
  -26.1717  -20.6710   19.0319 H   0  0  0  0  0  0
  -29.8652  -20.9982   21.2041 H   0  0  0  0  0  0
  -25.3544  -17.1467   15.4304 H   0  0  0  0  0  0
  -26.4721  -18.4487   15.0722 H   0  0  0  0  0  0
  -28.2542  -16.9715   15.4382 H   0  0  0  0  0  0
  -27.0933  -15.7013   15.7508 H   0  0  0  0  0  0
  -24.8439  -18.4959   17.2886 H   0  0  0  0  0  0
  -26.4097  -19.3000   17.2145 H   0  0  0  0  0  0
  -28.5843  -17.4313   17.6841 H   0  0  0  0  0  0
  -27.9843  -15.7967   17.9333 H   0  0  0  0  0  0
  -25.7733  -16.5592   18.2968 H   0  0  0  0  0  0
  -27.9709  -22.5872   17.6519 H   0  0  0  0  0  0
  -27.3701  -24.1916   18.0404 H   0  0  0  0  0  0
  -26.3107  -22.7906   18.1568 H   0  0  0  0  0  0
  -24.8141  -19.1160   19.9395 H   0  0  0  0  0  0
  -25.4685  -18.4307   21.4240 H   0  0  0  0  0  0
  -24.6094  -17.4335   20.2645 H   0  0  0  0  0  0
  -29.3803  -23.5303   21.0716 H   0  0  0  0  0  0
  -29.4894  -24.2076   19.4803 H   0  0  0  0  0  0
  -30.1436  -18.6641   21.9452 H   0  0  0  0  0  0
  -28.6860  -17.7468   21.9879 H   0  0  0  0  0  0
  -29.9183  -17.2303   19.4056 H   0  0  0  0  0  0
  -31.2087  -17.2493   20.5473 H   0  0  0  0  0  0
  -28.7568  -25.5418   21.8006 H   0  0  0  0  0  0
  -27.1854  -25.1749   21.2219 H   0  0  0  0  0  0
  -26.8340  -23.1035   20.4051 H   0  0  0  0  0  0
  -27.1445  -17.1687   20.2729 H   0  0  0  0  0  0
  -28.9074  -15.4372   21.0905 H   0  0  0  0  0  0
  1 25  1  0  0  0
  1 30  2  0  0  0
  1 89  1  0  0  0
  2  3  1  0  0  0
  2 25  1  0  0  0
  2 90  1  0  0  0
  2 91  1  0  0  0
  3  4  1  0  0  0
  3 92  1  0  0  0
  3 93  1  0  0  0
  4  5  1  0  0  0
  4 94  1  0  0  0
  4 95  1  0  0  0
  5  6  1  0  0  0
  5 26  1  0  0  0
  5 96  1  0  0  0
  6 25  1  0  0  0
  6 97  1  0  0  0
  6 98  1  0  0  0
  7  8  2  0  0  0
  7 26  1  0  0  0
  7 29  1  0  0  0
  8  9  1  0  0  0
  8 22  1  0  0  0
  9 10  1  0  0  0
  9 27  2  0  0  0
 10 11  2  0  0  0
 10 15  1  0  0  0
 11 12  1  0  0  0
 11 99  1  0  0  0
 12 13  2  0  0  0
 12100  1  0  0  0
 13 14  1  0  0  0
 13 31  1  0  0  0
 14 15  2  0  0  0
 14101  1  0  0  0
 15102  1  0  0  0
 16 17  2  0  0  0
 16 21  1  0  0  0
 16 31  1  0  0  0
 17 18  1  0  0  0
 17103  1  0  0  0
 18 19  2  0  0  0
 18104  1  0  0  0
 19 20  1  0  0  0
 19 24  1  0  0  0
 20 21  2  0  0  0
 20105  1  0  0  0
 21 23  1  0  0  0
 22 28  1  0  0  0
 22 32  2  0  0  0
 26 27  1  0  0  0
 28106  1  0  0  0
 28107  1  0  0  0
 29108  1  0  0  0
 29109  1  0  0  0
 33 34  1  0  0  0
 33 66  1  0  0  0
 33 70  2  0  0  0
 34 36  1  0  0  0
 34 59  1  0  0  0
 34110  1  0  0  0
 35 44  2  0  0  0
 35 45  1  0  0  0
 35 68  1  0  0  0
 36 56  1  0  0  0
 36111  1  0  0  0
 37 39  1  0  0  0
 37 47  1  0  0  0
 37 66  1  0  0  0
 37112  1  0  0  0
 38 43  2  0  0  0
 38 46  1  0  0  0
 38 47  1  0  0  0
 39 64  1  0  0  0
 39 67  2  0  0  0
 40 52  1  0  0  0
 40 53  2  0  0  0
 40 58  1  0  0  0
 41113  1  0  0  0
 41114  1  0  0  0
 41115  1  0  0  0
 41 48  1  0  0  0
 42 43  1  0  0  0
 42 66  1  0  0  0
 42116  1  0  0  0
 42117  1  0  0  0
 43 44  1  0  0  0
 44118  1  0  0  0
 45 46  2  0  0  0
 45119  1  0  0  0
 46120  1  0  0  0
 47121  1  0  0  0
 47122  1  0  0  0
 48 56  1  0  0  0
 48 65  1  0  0  0
 48123  1  0  0  0
 49 50  1  0  0  0
 49 53  1  0  0  0
 49 64  1  0  0  0
 49124  1  0  0  0
 50 51  1  0  0  0
 50125  1  0  0  0
 50126  1  0  0  0
 51 52  1  0  0  0
 51127  1  0  0  0
 51128  1  0  0  0
 52129  1  0  0  0
 52130  1  0  0  0
 53 54  1  0  0  0
 54 55  2  0  0  0
 54131  1  0  0  0
 55 57  1  0  0  0
 55132  1  0  0  0
 56 69  2  0  0  0
 57 58  2  0  0  0
 57133  1  0  0  0
 58134  1  0  0  0
 59 60  1  0  0  0
 59 61  1  0  0  0
 59 62  1  0  0  0
 60135  1  0  0  0
 60136  1  0  0  0
 60137  1  0  0  0
 61138  1  0  0  0
 61139  1  0  0  0
 61140  1  0  0  0
 62141  1  0  0  0
 62142  1  0  0  0
 62143  1  0  0  0
 63 65  1  0  0  0
 63144  1  0  0  0
 63145  1  0  0  0
 63146  1  0  0  0
 64147  1  0  0  0
 65148  1  0  0  0
 68 85  1  0  0  0
 71 73  1  0  0  0
 71 74  2  0  0  0
 71149  1  0  0  0
 72 73  2  0  0  0
 72 88  1  0  0  0
 72150  1  0  0  0
 73 86  1  0  0  0
 74 87  1  0  0  0
 74 88  1  0  0  0
 75 76  1  0  0  0
 75 77  1  0  0  0
 75151  1  0  0  0
 75152  1  0  0  0
 76 78  1  0  0  0
 76153  1  0  0  0
 76154  1  0  0  0
 77155  1  0  0  0
 77156  1  0  0  0
 77 79  1  0  0  0
 78 79  1  0  0  0
 78157  1  0  0  0
 78158  1  0  0  0
 79 87  1  0  0  0
 79159  1  0  0  0
 80160  1  0  0  0
 80161  1  0  0  0
 80162  1  0  0  0
 80 86  1  0  0  0
 81163  1  0  0  0
 81164  1  0  0  0
 81165  1  0  0  0
 81 87  1  0  0  0
 82 85  1  0  0  0
 82 86  1  0  0  0
 82166  1  0  0  0
 82167  1  0  0  0
 83 84  1  0  0  0
 83 88  1  0  0  0
 83168  1  0  0  0
 83169  1  0  0  0
 84 89  1  0  0  0
 84170  1  0  0  0
 84171  1  0  0  0
 85172  1  0  0  0
 85173  1  0  0  0
 86174  1  0  0  0
 87175  1  0  0  0
 89176  1  0  0  0
M  ISO  4   1 100  68 101  85 101  89 100
M  END
> <chiral flag>
0

> <version>
0

> <s_m_source_file>
/data/baiqing/PycharmProjects/Reinvent-master-3.2/result/LINK_invent/BTK/process_docking_weight1_custom_sum_contain_oxygen_bond_distance_aromatic_linkinvent_7_9_3/rearranged_h_0109.sdf

> <i_m_source_file_index>
85

> <r_mmod_Potential_Energy-OPLS-2005>
134.303405761719

> <r_mmod_Stretch_Energy-OPLS-2005>
59.7182083129883

> <r_mmod_Bend_Energy-OPLS-2005>
171.939514160156

> <r_mmod_Torsional_Energy-OPLS-2005>
346.524810791016

> <r_mmod_Improper_Torsional_Energy-OPLS-2005>
8.72465896606445

> <r_mmod_Van_der_Waal_Energy-OPLS-2005>
114.680976867676

> <r_mmod_Electrostatic_Energy-OPLS-2005>
-403.326995849609

> <r_mmod_Solvation_Energy-OPLS-2005>
-196.607604980469

> <b_mmod_Minimization_Converged-OPLS-2005>
0

> <r_mmod_RMS_Derivative-OPLS-2005>
6.74435663223267

$$$$
85
                    3D
 Structure written by MMmdl.
156164  0  0  1  0            999 V2000
  -30.5125  -14.9501   20.4324 C   0  0  0  0  0  0
  -30.4355  -12.5922   19.5044 C   0  0  0  0  0  0
  -29.5193  -12.5310   18.2587 C   0  0  0  0  0  0
  -28.0546  -12.2954   18.6762 C   0  0  0  0  0  0
  -27.6191  -13.2406   19.8268 C   0  0  2  0  0  0
  -28.6521  -13.2763   20.9710 C   0  0  0  0  0  0
  -25.2405  -13.8208   20.5663 C   0  0  0  0  0  0
  -24.1732  -13.0446   20.9235 C   0  0  0  0  0  0
  -24.6341  -11.6933   20.8757 C   0  0  0  0  0  0
  -23.9034  -10.4327   21.0429 C   0  0  0  0  0  0
  -24.3583   -9.4223   21.9201 C   0  0  0  0  0  0
  -23.6270   -8.2245   22.0755 C   0  0  0  0  0  0
  -22.4267   -8.0280   21.3524 C   0  0  0  0  0  0
  -21.9908   -9.0259   20.4649 C   0  0  0  0  0  0
  -22.7227  -10.2149   20.3064 C   0  0  0  0  0  0
  -21.6867   -6.0723   22.5268 C   0  0  0  0  0  0
  -21.4030   -6.5624   23.8206 C   0  0  0  0  0  0
  -21.3677   -5.6765   24.9165 C   0  0  0  0  0  0
  -21.6054   -4.3025   24.7210 C   0  0  0  0  0  0
  -21.8828   -3.8136   23.4331 C   0  0  0  0  0  0
  -21.9177   -4.6952   22.3382 C   0  0  0  0  0  0
  -22.7744  -13.5247   21.1848 C   0  0  0  0  0  0
  -22.1663   -4.2137   21.0959 F   0  0  0  0  0  0
  -21.5614   -3.4513   25.7720 F   0  0  0  0  0  0
  -29.9303  -13.6862   20.3774 N   0  0  0  0  0  0
  -26.2799  -12.9412   20.3131 N   0  0  0  0  0  0
  -25.9252  -11.6560   20.5703 N   0  0  0  0  0  0
  -22.0371  -12.8258   22.0428 N   0  0  0  0  0  0
  -25.4102  -15.1951   20.4067 N   0  0  0  0  0  0
  -31.7235  -15.0297   20.2003 O   0  0  0  0  0  0
  -21.6639   -6.8880   21.4237 O   0  0  0  0  0  0
  -22.3439  -14.5534   20.6683 O   0  0  0  0  0  0
  -24.6463  -31.8470   23.1932 C   0  0  0  0  0  0
  -25.9270  -32.4704   23.8296 C   0  0  1  0  0  0
  -27.1874  -27.1255   20.1423 C   0  0  0  0  0  0
  -25.6010  -33.8510   24.2207 N   0  0  0  0  0  0
  -23.4450  -30.4722   21.5385 C   0  0  2  0  0  0
  -24.8860  -28.9056   20.1047 C   0  0  0  0  0  0
  -22.7552  -29.4573   22.4859 C   0  0  0  0  0  0
  -18.0341  -28.1380   22.8487 C   0  0  0  0  0  0
  -24.1481  -36.7267   23.2625 C   0  0  0  0  0  0
  -26.0014  -30.7179   21.3887 C   0  0  0  0  0  0
  -26.0653  -29.3289   20.7281 C   0  0  0  0  0  0
  -27.2161  -28.4555   20.7327 C   0  0  0  0  0  0
  -25.9917  -26.8217   19.4549 C   0  0  0  0  0  0
  -24.8649  -27.6677   19.4544 C   0  0  0  0  0  0
  -23.6704  -29.8187   20.1508 C   0  0  0  0  0  0
  -25.4113  -36.3026   24.0304 C   0  0  1  0  0  0
  -20.5931  -28.3744   23.1274 C   0  0  2  0  0  0
  -20.6843  -26.9430   22.5452 C   0  0  0  0  0  0
  -19.5831  -26.6392   21.5241 C   0  0  0  0  0  0
  -18.2006  -26.7928   22.1619 C   0  0  0  0  0  0
  -19.1569  -28.8871   23.2879 C   0  0  0  0  0  0
  -18.9481  -30.1442   23.8932 C   0  0  0  0  0  0
  -17.6464  -30.6553   24.0599 C   0  0  0  0  0  0
  -25.9078  -34.9412   23.5047 C   0  0  0  0  0  0
  -16.5369  -29.9065   23.6306 C   0  0  0  0  0  0
  -16.7325  -28.6492   23.0335 C   0  0  0  0  0  0
  -26.4554  -31.6577   25.0749 C   0  0  0  0  0  0
  -25.3733  -31.3846   26.1465 C   0  0  0  0  0  0
  -27.0423  -30.2963   24.6357 C   0  0  0  0  0  0
  -27.6066  -32.4357   25.7553 C   0  0  0  0  0  0
  -27.5571  -37.1783   24.8465 C   0  0  0  0  0  0
  -21.4236  -29.3115   22.3650 N   0  0  0  0  0  0
  -26.4276  -37.3745   23.9390 N   0  0  0  0  0  0
  -24.7179  -31.0356   22.0945 N   0  0  0  0  0  0
  -23.4213  -28.8101   23.3004 O   0  0  0  0  0  0
  -28.2233  -26.1249   20.2532 O   0  0  0  0  0  0
  -26.5625  -34.8908   22.4601 O   0  0  0  0  0  0
  -23.5597  -32.1325   23.7184 O   0  0  0  0  0  0
  -27.7787  -21.5577   22.4710 C   0  0  0  0  0  0
  -27.7034  -22.9874   21.8630 C   0  0  0  0  0  0
  -29.0986  -20.7903   22.1721 C   0  0  0  0  0  0
  -28.7009  -21.7025   19.8978 C   0  0  0  0  0  0
  -28.5898  -23.2211   20.6115 C   0  0  1  0  0  0
  -28.0675  -24.6263   19.8323 C   0  0  0  0  0  0
  -30.0320  -17.6708   20.6333 C   0  0  0  0  0  0
  -28.9493  -18.9500   20.3771 C   0  0  0  0  0  0
  -29.7056  -16.1195   20.5464 N   0  0  0  0  0  0
  -29.2703  -20.4759   20.7218 N   0  3  2  0  0  0
  -31.4671  -12.7685   19.2025 H   0  0  0  0  0  0
  -30.4353  -11.6443   20.0414 H   0  0  0  0  0  0
  -29.8454  -11.7407   17.5802 H   0  0  0  0  0  0
  -29.5971  -13.4690   17.7070 H   0  0  0  0  0  0
  -27.9798  -11.2581   19.0019 H   0  0  0  0  0  0
  -27.3901  -12.3929   17.8169 H   0  0  0  0  0  0
  -27.5821  -14.2394   19.3869 H   0  0  0  0  0  0
  -28.7282  -12.3098   21.4637 H   0  0  0  0  0  0
  -28.3422  -13.9834   21.7422 H   0  0  0  0  0  0
  -25.2736   -9.5683   22.4756 H   0  0  0  0  0  0
  -23.9964   -7.4641   22.7480 H   0  0  0  0  0  0
  -21.0830   -8.8791   19.8983 H   0  0  0  0  0  0
  -22.3692  -10.9654   19.6149 H   0  0  0  0  0  0
  -21.2079   -7.6134   23.9722 H   0  0  0  0  0  0
  -21.1466   -6.0482   25.9054 H   0  0  0  0  0  0
  -22.0589   -2.7601   23.2808 H   0  0  0  0  0  0
  -22.3946  -11.9953   22.4891 H   0  0  0  0  0  0
  -21.1002  -13.1326   22.2615 H   0  0  0  0  0  0
  -24.6341  -15.8432   20.4954 H   0  0  0  0  0  0
  -26.2411  -15.6307   20.0304 H   0  0  0  0  0  0
  -26.7333  -32.5305   23.1024 H   0  0  0  0  0  0
  -25.0250  -33.9604   25.0427 H   0  0  0  0  0  0
  -22.7462  -31.2992   21.3989 H   0  0  0  0  0  0
  -23.3727  -35.9611   23.3271 H   0  0  0  0  0  0
  -24.3567  -36.8923   22.2043 H   0  0  0  0  0  0
  -23.7272  -37.6475   23.6676 H   0  0  0  0  0  0
  -26.1552  -31.4713   20.6156 H   0  0  0  0  0  0
  -26.8731  -30.7643   22.0283 H   0  0  0  0  0  0
  -28.1140  -28.7810   21.2381 H   0  0  0  0  0  0
  -25.8667  -25.8968   18.9157 H   0  0  0  0  0  0
  -23.9706  -27.3432   18.9413 H   0  0  0  0  0  0
  -23.8253  -30.6074   19.4126 H   0  0  0  0  0  0
  -22.7761  -29.2823   19.8297 H   0  0  0  0  0  0
  -25.1289  -36.1829   25.0796 H   0  0  0  0  0  0
  -21.0048  -28.3353   24.1405 H   0  0  0  0  0  0
  -20.5804  -26.2326   23.3652 H   0  0  0  0  0  0
  -21.6706  -26.7502   22.1232 H   0  0  0  0  0  0
  -19.7022  -25.6320   21.1254 H   0  0  0  0  0  0
  -19.6808  -27.3214   20.6794 H   0  0  0  0  0  0
  -17.4284  -26.6706   21.4008 H   0  0  0  0  0  0
  -18.0401  -26.0050   22.9000 H   0  0  0  0  0  0
  -19.7938  -30.7255   24.2364 H   0  0  0  0  0  0
  -17.4997  -31.6208   24.5256 H   0  0  0  0  0  0
  -15.5361  -30.2948   23.7620 H   0  0  0  0  0  0
  -15.8739  -28.0787   22.7034 H   0  0  0  0  0  0
  -24.5877  -30.7221   25.7829 H   0  0  0  0  0  0
  -24.8994  -32.3095   26.4761 H   0  0  0  0  0  0
  -25.8017  -30.9120   27.0323 H   0  0  0  0  0  0
  -26.3085  -29.6683   24.1314 H   0  0  0  0  0  0
  -27.3966  -29.7258   25.4952 H   0  0  0  0  0  0
  -27.9001  -30.4166   23.9742 H   0  0  0  0  0  0
  -27.2612  -33.3645   26.2095 H   0  0  0  0  0  0
  -28.3914  -32.6940   25.0441 H   0  0  0  0  0  0
  -28.0699  -31.8538   26.5527 H   0  0  0  0  0  0
  -28.2570  -38.0082   24.7462 H   0  0  0  0  0  0
  -28.1057  -36.2611   24.6315 H   0  0  0  0  0  0
  -27.2282  -37.1491   25.8863 H   0  0  0  0  0  0
  -20.9443  -29.8860   21.6869 H   0  0  0  0  0  0
  -26.0124  -38.2800   24.1408 H   0  0  0  0  0  0
  -26.9367  -20.9682   22.1037 H   0  0  0  0  0  0
  -27.6235  -21.6324   23.5476 H   0  0  0  0  0  0
  -27.9391  -23.7363   22.6184 H   0  0  0  0  0  0
  -26.6596  -23.1625   21.5982 H   0  0  0  0  0  0
  -29.1534  -19.8818   22.7790 H   0  0  0  0  0  0
  -29.9380  -21.4081   22.5010 H   0  0  0  0  0  0
  -29.3001  -21.7783   18.9893 H   0  0  0  0  0  0
  -27.6962  -21.4385   19.5600 H   0  0  0  0  0  0
  -29.5990  -23.4486   20.9491 H   0  0  0  0  0  0
  -27.0183  -24.4210   19.6577 H   0  0  0  0  0  0
  -28.5145  -24.5969   18.8392 H   0  0  0  0  0  0
  -30.8585  -17.8308   19.9383 H   0  0  0  0  0  0
  -30.4670  -17.8173   21.6215 H   0  0  0  0  0  0
  -28.0142  -18.7036   20.8850 H   0  0  0  0  0  0
  -28.6797  -18.9301   19.3233 H   0  0  0  0  0  0
  -28.7207  -15.9080   20.6053 H   0  0  0  0  0  0
  -30.2646  -20.5328   20.5607 H   0  0  0  0  0  0
  1 25  1  0  0  0
  1 30  2  0  0  0
  1 79  1  0  0  0
  2  3  1  0  0  0
  2 25  1  0  0  0
  2 81  1  0  0  0
  2 82  1  0  0  0
  3  4  1  0  0  0
  3 83  1  0  0  0
  3 84  1  0  0  0
  4  5  1  0  0  0
  4 85  1  0  0  0
  4 86  1  0  0  0
  5  6  1  0  0  0
  5 26  1  0  0  0
  5 87  1  0  0  0
  6 25  1  0  0  0
  6 88  1  0  0  0
  6 89  1  0  0  0
  7  8  2  0  0  0
  7 26  1  0  0  0
  7 29  1  0  0  0
  8  9  1  0  0  0
  8 22  1  0  0  0
  9 10  1  0  0  0
  9 27  2  0  0  0
 10 11  2  0  0  0
 10 15  1  0  0  0
 11 12  1  0  0  0
 11 90  1  0  0  0
 12 13  2  0  0  0
 12 91  1  0  0  0
 13 14  1  0  0  0
 13 31  1  0  0  0
 14 15  2  0  0  0
 14 92  1  0  0  0
 15 93  1  0  0  0
 16 17  2  0  0  0
 16 21  1  0  0  0
 16 31  1  0  0  0
 17 18  1  0  0  0
 17 94  1  0  0  0
 18 19  2  0  0  0
 18 95  1  0  0  0
 19 20  1  0  0  0
 19 24  1  0  0  0
 20 21  2  0  0  0
 20 96  1  0  0  0
 21 23  1  0  0  0
 22 28  1  0  0  0
 22 32  2  0  0  0
 26 27  1  0  0  0
 28 97  1  0  0  0
 28 98  1  0  0  0
 29 99  1  0  0  0
 29100  1  0  0  0
 33 34  1  0  0  0
 33 66  1  0  0  0
 33 70  2  0  0  0
 34 36  1  0  0  0
 34 59  1  0  0  0
 34101  1  0  0  0
 35 44  2  0  0  0
 35 45  1  0  0  0
 35 68  1  0  0  0
 36 56  1  0  0  0
 36102  1  0  0  0
 37 39  1  0  0  0
 37 47  1  0  0  0
 37 66  1  0  0  0
 37103  1  0  0  0
 38 43  2  0  0  0
 38 46  1  0  0  0
 38 47  1  0  0  0
 39 64  1  0  0  0
 39 67  2  0  0  0
 40 52  1  0  0  0
 40 53  2  0  0  0
 40 58  1  0  0  0
 41104  1  0  0  0
 41105  1  0  0  0
 41106  1  0  0  0
 41 48  1  0  0  0
 42 43  1  0  0  0
 42 66  1  0  0  0
 42107  1  0  0  0
 42108  1  0  0  0
 43 44  1  0  0  0
 44109  1  0  0  0
 45 46  2  0  0  0
 45110  1  0  0  0
 46111  1  0  0  0
 47112  1  0  0  0
 47113  1  0  0  0
 48 56  1  0  0  0
 48 65  1  0  0  0
 48114  1  0  0  0
 49 50  1  0  0  0
 49 53  1  0  0  0
 49 64  1  0  0  0
 49115  1  0  0  0
 50 51  1  0  0  0
 50116  1  0  0  0
 50117  1  0  0  0
 51 52  1  0  0  0
 51118  1  0  0  0
 51119  1  0  0  0
 52120  1  0  0  0
 52121  1  0  0  0
 53 54  1  0  0  0
 54 55  2  0  0  0
 54122  1  0  0  0
 55 57  1  0  0  0
 55123  1  0  0  0
 56 69  2  0  0  0
 57 58  2  0  0  0
 57124  1  0  0  0
 58125  1  0  0  0
 59 60  1  0  0  0
 59 61  1  0  0  0
 59 62  1  0  0  0
 60126  1  0  0  0
 60127  1  0  0  0
 60128  1  0  0  0
 61129  1  0  0  0
 61130  1  0  0  0
 61131  1  0  0  0
 62132  1  0  0  0
 62133  1  0  0  0
 62134  1  0  0  0
 63 65  1  0  0  0
 63135  1  0  0  0
 63136  1  0  0  0
 63137  1  0  0  0
 64138  1  0  0  0
 65139  1  0  0  0
 68 76  1  0  0  0
 71 72  1  0  0  0
 71 73  1  0  0  0
 71140  1  0  0  0
 71141  1  0  0  0
 72 75  1  0  0  0
 72142  1  0  0  0
 72143  1  0  0  0
 73 80  1  0  0  0
 73144  1  0  0  0
 73145  1  0  0  0
 74 75  1  0  0  0
 74 80  1  0  0  0
 74146  1  0  0  0
 74147  1  0  0  0
 75 76  1  0  0  0
 75148  1  0  0  0
 76149  1  0  0  0
 76150  1  0  0  0
 77 78  1  0  0  0
 77 79  1  0  0  0
 77151  1  0  0  0
 77152  1  0  0  0
 78153  1  0  0  0
 78154  1  0  0  0
 78 80  1  0  0  0
 79155  1  0  0  0
 80156  1  0  0  0
M  CHG  1  80   1
M  ISO  4   1 100  68 101  76 101  79 100
M  END
> <chiral flag>
0

> <version>
0

> <s_m_source_file>
/data/baiqing/PycharmProjects/Reinvent-master-3.2/result/LINK_invent/BTK/process_docking_weight1_custom_sum_contain_oxygen_bond_distance_aromatic_linkinvent_7_9_3/rearranged_h_0109.sdf

> <i_m_source_file_index>
86

> <r_mmod_Potential_Energy-OPLS-2005>
416.371643066406

> <r_mmod_Stretch_Energy-OPLS-2005>
270.226806640625

> <r_mmod_Bend_Energy-OPLS-2005>
264.719390869141

> <r_mmod_Torsional_Energy-OPLS-2005>
264.244415283203

> <r_mmod_Improper_Torsional_Energy-OPLS-2005>
4.41637325286865

> <r_mmod_Van_der_Waal_Energy-OPLS-2005>
124.865646362305

> <r_mmod_Electrostatic_Energy-OPLS-2005>
-246.307601928711

> <r_mmod_Solvation_Energy-OPLS-2005>
-471.07080078125

> <b_mmod_Minimization_Converged-OPLS-2005>
0

> <r_mmod_RMS_Derivative-OPLS-2005>
5.12699174880981

$$$$
86
                    3D
 Structure written by MMmdl.
154162  0  0  1  0            999 V2000
  -30.2673  -15.7053   20.3202 C   0  0  0  0  0  0
  -30.4123  -13.1385   19.5291 C   0  0  0  0  0  0
  -29.5422  -12.6755   18.3236 C   0  0  0  0  0  0
  -28.1249  -12.3010   18.7740 C   0  0  0  0  0  0
  -27.5867  -13.3129   19.8082 C   0  0  2  0  0  0
  -28.5958  -13.6857   20.9190 C   0  0  0  0  0  0
  -25.2304  -13.8306   20.5802 C   0  0  0  0  0  0
  -24.1711  -13.0459   20.9281 C   0  0  0  0  0  0
  -24.6424  -11.6961   20.8708 C   0  0  0  0  0  0
  -23.9138  -10.4317   21.0333 C   0  0  0  0  0  0
  -24.3680   -9.4240   21.9121 C   0  0  0  0  0  0
  -23.6339   -8.2281   22.0720 C   0  0  0  0  0  0
  -22.4317   -8.0304   21.3513 C   0  0  0  0  0  0
  -21.9944   -9.0285   20.4613 C   0  0  0  0  0  0
  -22.7297  -10.2147   20.2998 C   0  0  0  0  0  0
  -21.6892   -6.0751   22.5286 C   0  0  0  0  0  0
  -21.4027   -6.5638   23.8224 C   0  0  0  0  0  0
  -21.3649   -5.6771   24.9180 C   0  0  0  0  0  0
  -21.6035   -4.3041   24.7203 C   0  0  0  0  0  0
  -21.8827   -3.8138   23.4326 C   0  0  0  0  0  0
  -21.9210   -4.6974   22.3396 C   0  0  0  0  0  0
  -22.7712  -13.5178   21.1939 C   0  0  0  0  0  0
  -22.1678   -4.2150   21.0975 F   0  0  0  0  0  0
  -21.5614   -3.4524   25.7722 F   0  0  0  0  0  0
  -29.7559  -14.3273   20.2539 N   0  0  0  0  0  0
  -26.2744  -12.9646   20.3232 N   0  0  0  0  0  0
  -25.9358  -11.6711   20.5640 N   0  0  0  0  0  0
  -22.0396  -12.8128   22.0463 N   0  0  0  0  0  0
  -25.3927  -15.2042   20.4276 N   0  0  0  0  0  0
  -31.5063  -15.6307   20.1827 O   0  0  0  0  0  0
  -21.6658   -6.8907   21.4258 O   0  0  0  0  0  0
  -22.3386  -14.5497   20.6811 O   0  0  0  0  0  0
  -24.6878  -31.7922   23.1485 C   0  0  0  0  0  0
  -25.9440  -32.4420   23.8033 C   0  0  1  0  0  0
  -27.2175  -26.6540   20.1909 C   0  0  0  0  0  0
  -25.6007  -33.8247   24.1908 N   0  0  0  0  0  0
  -23.5143  -30.3961   21.5040 C   0  0  2  0  0  0
  -24.9681  -28.7284   20.1094 C   0  0  0  0  0  0
  -22.7773  -29.4299   22.4709 C   0  0  0  0  0  0
  -18.0344  -28.1408   22.8457 C   0  0  0  0  0  0
  -24.1502  -36.7131   23.2661 C   0  0  0  0  0  0
  -26.0963  -30.5085   21.4175 C   0  0  0  0  0  0
  -26.1573  -29.0689   20.7622 C   0  0  0  0  0  0
  -27.2637  -28.0593   20.7731 C   0  0  0  0  0  0
  -25.9973  -26.5398   19.4745 C   0  0  0  0  0  0
  -24.9298  -27.4911   19.4430 C   0  0  0  0  0  0
  -23.7661  -29.6898   20.1398 C   0  0  0  0  0  0
  -25.4151  -36.2857   24.0278 C   0  0  1  0  0  0
  -20.5972  -28.3770   23.1136 C   0  0  2  0  0  0
  -20.6804  -26.9429   22.5403 C   0  0  0  0  0  0
  -19.5774  -26.6360   21.5218 C   0  0  0  0  0  0
  -18.1957  -26.7938   22.1619 C   0  0  0  0  0  0
  -19.1605  -28.8915   23.2778 C   0  0  0  0  0  0
  -18.9519  -30.1504   23.8816 C   0  0  0  0  0  0
  -17.6508  -30.6590   24.0550 C   0  0  0  0  0  0
  -25.9130  -34.9253   23.4922 C   0  0  0  0  0  0
  -16.5399  -29.9072   23.6340 C   0  0  0  0  0  0
  -16.7332  -28.6491   23.0370 C   0  0  0  0  0  0
  -26.4615  -31.6478   25.0674 C   0  0  0  0  0  0
  -25.3678  -31.3804   26.1291 C   0  0  0  0  0  0
  -27.0553  -30.2809   24.6607 C   0  0  0  0  0  0
  -27.6039  -32.4373   25.7504 C   0  0  0  0  0  0
  -27.5553  -37.1717   24.8465 C   0  0  0  0  0  0
  -21.4419  -29.3021   22.3457 N   0  0  0  0  0  0
  -26.4259  -37.3630   23.9410 N   0  0  0  0  0  0
  -24.7908  -30.9335   22.0763 N   0  0  0  0  0  0
  -23.4205  -28.7916   23.3068 O   0  0  0  0  0  0
  -28.1580  -25.4042   20.3049 O   0  0  0  0  0  0
  -26.5776  -34.8854   22.4545 O   0  0  0  0  0  0
  -23.5896  -32.1033   23.6417 O   0  0  0  0  0  0
  -27.1003  -20.8444   21.7736 C   0  0  0  0  0  0
  -27.4048  -20.0269   20.7258 C   0  0  0  0  0  0
  -28.0594  -21.9050   21.8924 C   0  0  0  0  0  0
  -28.6102  -22.0172   20.6344 C   0  0  0  0  0  0
  -27.6147  -24.2405   22.9326 C   0  0  0  0  0  0
  -27.5481  -22.1815   24.3665 C   0  0  0  0  0  0
  -28.0772  -23.6716   19.8784 C   0  0  0  0  0  0
  -29.7205  -18.8806   20.3310 C   0  0  0  0  0  0
  -28.1740  -22.8192   23.1143 C   0  0  0  0  0  0
  -28.6807  -20.3659   20.3596 N   0  0  0  0  0  0
  -29.5097  -17.0891   20.3547 N   0  0  0  0  0  0
  -31.3918  -13.4230   19.1429 H   0  0  0  0  0  0
  -30.6040  -12.3112   20.2151 H   0  0  0  0  0  0
  -30.0139  -11.8423   17.8007 H   0  0  0  0  0  0
  -29.4798  -13.4873   17.5994 H   0  0  0  0  0  0
  -28.1656  -11.3089   19.2203 H   0  0  0  0  0  0
  -27.4521  -12.2258   17.9203 H   0  0  0  0  0  0
  -27.4368  -14.2229   19.2253 H   0  0  0  0  0  0
  -28.8744  -12.8208   21.5238 H   0  0  0  0  0  0
  -28.1459  -14.4091   21.6006 H   0  0  0  0  0  0
  -25.2823   -9.5719   22.4698 H   0  0  0  0  0  0
  -24.0047   -7.4671   22.7436 H   0  0  0  0  0  0
  -21.0878   -8.8793   19.8922 H   0  0  0  0  0  0
  -22.3746  -10.9688   19.6088 H   0  0  0  0  0  0
  -21.2024   -7.6142   23.9721 H   0  0  0  0  0  0
  -21.1452   -6.0496   25.9085 H   0  0  0  0  0  0
  -22.0604   -2.7601   23.2827 H   0  0  0  0  0  0
  -22.4123  -11.9837   22.4851 H   0  0  0  0  0  0
  -21.0972  -13.1005   22.2633 H   0  0  0  0  0  0
  -24.6216  -15.8527   20.5488 H   0  0  0  0  0  0
  -26.2357  -15.6509   20.0941 H   0  0  0  0  0  0
  -26.7513  -32.4876   23.0732 H   0  0  0  0  0  0
  -25.0053  -33.9267   25.0000 H   0  0  0  0  0  0
  -22.8416  -31.2363   21.3129 H   0  0  0  0  0  0
  -23.3766  -35.9447   23.3251 H   0  0  0  0  0  0
  -24.3573  -36.8870   22.2086 H   0  0  0  0  0  0
  -23.7259  -37.6290   23.6793 H   0  0  0  0  0  0
  -26.3052  -31.2327   20.6295 H   0  0  0  0  0  0
  -26.9443  -30.5760   22.0850 H   0  0  0  0  0  0
  -28.1600  -28.3254   21.3168 H   0  0  0  0  0  0
  -25.8153  -25.6041   18.9645 H   0  0  0  0  0  0
  -24.0294  -27.2257   18.9044 H   0  0  0  0  0  0
  -23.9421  -30.4482   19.3778 H   0  0  0  0  0  0
  -22.8672  -29.1610   19.8189 H   0  0  0  0  0  0
  -25.1365  -36.1586   25.0764 H   0  0  0  0  0  0
  -21.0067  -28.3400   24.1259 H   0  0  0  0  0  0
  -20.5638  -26.2410   23.3673 H   0  0  0  0  0  0
  -21.6670  -26.7348   22.1241 H   0  0  0  0  0  0
  -19.6928  -25.6251   21.1293 H   0  0  0  0  0  0
  -19.6710  -27.3126   20.6712 H   0  0  0  0  0  0
  -17.4234  -26.6689   21.4025 H   0  0  0  0  0  0
  -18.0355  -26.0091   22.9023 H   0  0  0  0  0  0
  -19.8000  -30.7346   24.2141 H   0  0  0  0  0  0
  -17.5057  -31.6269   24.5167 H   0  0  0  0  0  0
  -15.5386  -30.2950   23.7710 H   0  0  0  0  0  0
  -15.8740  -28.0787   22.7123 H   0  0  0  0  0  0
  -24.5897  -30.7114   25.7614 H   0  0  0  0  0  0
  -24.8838  -32.3019   26.4519 H   0  0  0  0  0  0
  -25.7863  -30.9115   27.0196 H   0  0  0  0  0  0
  -26.3272  -29.6414   24.1609 H   0  0  0  0  0  0
  -27.3962  -29.7280   25.5366 H   0  0  0  0  0  0
  -27.9261  -30.3919   24.0147 H   0  0  0  0  0  0
  -27.2546  -33.3752   26.1832 H   0  0  0  0  0  0
  -28.3976  -32.6805   25.0432 H   0  0  0  0  0  0
  -28.0555  -31.8670   26.5627 H   0  0  0  0  0  0
  -28.2525  -38.0057   24.7510 H   0  0  0  0  0  0
  -28.1088  -36.2565   24.6279 H   0  0  0  0  0  0
  -27.2263  -37.1345   25.8871 H   0  0  0  0  0  0
  -20.9722  -29.8679   21.6526 H   0  0  0  0  0  0
  -26.0058  -38.2661   24.1441 H   0  0  0  0  0  0
  -26.3160  -20.6032   22.4764 H   0  0  0  0  0  0
  -26.9928  -19.0484   20.5114 H   0  0  0  0  0  0
  -28.3870  -24.8964   22.5377 H   0  0  0  0  0  0
  -27.3197  -24.6929   23.8806 H   0  0  0  0  0  0
  -26.7403  -24.2654   22.2806 H   0  0  0  0  0  0
  -27.9957  -21.2109   24.5804 H   0  0  0  0  0  0
  -26.4708  -22.0421   24.2595 H   0  0  0  0  0  0
  -27.7020  -22.8101   25.2445 H   0  0  0  0  0  0
  -27.0092  -23.5403   19.7041 H   0  0  0  0  0  0
  -28.4900  -23.6658   18.8706 H   0  0  0  0  0  0
  -30.4102  -19.0532   19.5050 H   0  0  0  0  0  0
  -30.3448  -19.0227   21.2142 H   0  0  0  0  0  0
  -29.2439  -22.9057   23.3116 H   0  0  0  0  0  0
  -28.5210  -16.8941   20.4100 H   0  0  0  0  0  0
  1 25  1  0  0  0
  1 30  2  0  0  0
  1 81  1  0  0  0
  2  3  1  0  0  0
  2 25  1  0  0  0
  2 82  1  0  0  0
  2 83  1  0  0  0
  3  4  1  0  0  0
  3 84  1  0  0  0
  3 85  1  0  0  0
  4  5  1  0  0  0
  4 86  1  0  0  0
  4 87  1  0  0  0
  5  6  1  0  0  0
  5 26  1  0  0  0
  5 88  1  0  0  0
  6 25  1  0  0  0
  6 89  1  0  0  0
  6 90  1  0  0  0
  7  8  2  0  0  0
  7 26  1  0  0  0
  7 29  1  0  0  0
  8  9  1  0  0  0
  8 22  1  0  0  0
  9 10  1  0  0  0
  9 27  2  0  0  0
 10 11  2  0  0  0
 10 15  1  0  0  0
 11 12  1  0  0  0
 11 91  1  0  0  0
 12 13  2  0  0  0
 12 92  1  0  0  0
 13 14  1  0  0  0
 13 31  1  0  0  0
 14 15  2  0  0  0
 14 93  1  0  0  0
 15 94  1  0  0  0
 16 17  2  0  0  0
 16 21  1  0  0  0
 16 31  1  0  0  0
 17 18  1  0  0  0
 17 95  1  0  0  0
 18 19  2  0  0  0
 18 96  1  0  0  0
 19 20  1  0  0  0
 19 24  1  0  0  0
 20 21  2  0  0  0
 20 97  1  0  0  0
 21 23  1  0  0  0
 22 28  1  0  0  0
 22 32  2  0  0  0
 26 27  1  0  0  0
 28 98  1  0  0  0
 28 99  1  0  0  0
 29100  1  0  0  0
 29101  1  0  0  0
 33 34  1  0  0  0
 33 66  1  0  0  0
 33 70  2  0  0  0
 34 36  1  0  0  0
 34 59  1  0  0  0
 34102  1  0  0  0
 35 44  2  0  0  0
 35 45  1  0  0  0
 35 68  1  0  0  0
 36 56  1  0  0  0
 36103  1  0  0  0
 37 39  1  0  0  0
 37 47  1  0  0  0
 37 66  1  0  0  0
 37104  1  0  0  0
 38 43  2  0  0  0
 38 46  1  0  0  0
 38 47  1  0  0  0
 39 64  1  0  0  0
 39 67  2  0  0  0
 40 52  1  0  0  0
 40 53  2  0  0  0
 40 58  1  0  0  0
 41105  1  0  0  0
 41106  1  0  0  0
 41107  1  0  0  0
 41 48  1  0  0  0
 42 43  1  0  0  0
 42 66  1  0  0  0
 42108  1  0  0  0
 42109  1  0  0  0
 43 44  1  0  0  0
 44110  1  0  0  0
 45 46  2  0  0  0
 45111  1  0  0  0
 46112  1  0  0  0
 47113  1  0  0  0
 47114  1  0  0  0
 48 56  1  0  0  0
 48 65  1  0  0  0
 48115  1  0  0  0
 49 50  1  0  0  0
 49 53  1  0  0  0
 49 64  1  0  0  0
 49116  1  0  0  0
 50 51  1  0  0  0
 50117  1  0  0  0
 50118  1  0  0  0
 51 52  1  0  0  0
 51119  1  0  0  0
 51120  1  0  0  0
 52121  1  0  0  0
 52122  1  0  0  0
 53 54  1  0  0  0
 54 55  2  0  0  0
 54123  1  0  0  0
 55 57  1  0  0  0
 55124  1  0  0  0
 56 69  2  0  0  0
 57 58  2  0  0  0
 57125  1  0  0  0
 58126  1  0  0  0
 59 60  1  0  0  0
 59 61  1  0  0  0
 59 62  1  0  0  0
 60127  1  0  0  0
 60128  1  0  0  0
 60129  1  0  0  0
 61130  1  0  0  0
 61131  1  0  0  0
 61132  1  0  0  0
 62133  1  0  0  0
 62134  1  0  0  0
 62135  1  0  0  0
 63 65  1  0  0  0
 63136  1  0  0  0
 63137  1  0  0  0
 63138  1  0  0  0
 64139  1  0  0  0
 65140  1  0  0  0
 68 77  1  0  0  0
 71 72  2  0  0  0
 71 73  1  0  0  0
 71141  1  0  0  0
 72 80  1  0  0  0
 72142  1  0  0  0
 73 74  2  0  0  0
 73 79  1  0  0  0
 74 77  1  0  0  0
 74 80  1  0  0  0
 75143  1  0  0  0
 75144  1  0  0  0
 75145  1  0  0  0
 75 79  1  0  0  0
 76 79  1  0  0  0
 76146  1  0  0  0
 76147  1  0  0  0
 76148  1  0  0  0
 77149  1  0  0  0
 77150  1  0  0  0
 78 80  1  0  0  0
 78 81  1  0  0  0
 78151  1  0  0  0
 78152  1  0  0  0
 79153  1  0  0  0
 81154  1  0  0  0
M  ISO  4   1 100  68 101  77 101  81 100
M  END
> <chiral flag>
0

> <version>
0

> <s_m_source_file>
/data/baiqing/PycharmProjects/Reinvent-master-3.2/result/LINK_invent/BTK/process_docking_weight1_custom_sum_contain_oxygen_bond_distance_aromatic_linkinvent_7_9_3/rearranged_h_0109.sdf

> <i_m_source_file_index>
87

> <r_mmod_Potential_Energy-OPLS-2005>
2961.98754882812

> <r_mmod_Stretch_Energy-OPLS-2005>
1257.73315429688

> <r_mmod_Bend_Energy-OPLS-2005>
722.271179199219

> <r_mmod_Torsional_Energy-OPLS-2005>
446.359588623047

> <r_mmod_Improper_Torsional_Energy-OPLS-2005>
36.0787963867188

> <r_mmod_Van_der_Waal_Energy-OPLS-2005>
112.005325317383

> <r_mmod_Electrostatic_Energy-OPLS-2005>
-409.418151855469

> <r_mmod_Solvation_Energy-OPLS-2005>
-218.596038818359

> <b_mmod_Minimization_Converged-OPLS-2005>
0

> <r_mmod_RMS_Derivative-OPLS-2005>
4.32320404052734

$$$$
87
                    3D
 Structure written by MMmdl.
161168  0  0  1  0            999 V2000
  -30.4900  -14.9503   20.4351 C   0  0  0  0  0  0
  -30.4557  -12.5810   19.5135 C   0  0  0  0  0  0
  -29.5360  -12.5523   18.2685 C   0  0  0  0  0  0
  -28.0648  -12.3277   18.6694 C   0  0  0  0  0  0
  -27.6420  -13.2289   19.8562 C   0  0  2  0  0  0
  -28.6843  -13.2201   20.9999 C   0  0  0  0  0  0
  -25.2517  -13.8148   20.5701 C   0  0  0  0  0  0
  -24.1801  -13.0408   20.9197 C   0  0  0  0  0  0
  -24.6394  -11.6882   20.8720 C   0  0  0  0  0  0
  -23.9059  -10.4277   21.0387 C   0  0  0  0  0  0
  -24.3625   -9.4211   21.9185 C   0  0  0  0  0  0
  -23.6303   -8.2249   22.0765 C   0  0  0  0  0  0
  -22.4278   -8.0281   21.3561 C   0  0  0  0  0  0
  -21.9895   -9.0244   20.4655 C   0  0  0  0  0  0
  -22.7221  -10.2124   20.3055 C   0  0  0  0  0  0
  -21.6857   -6.0719   22.5284 C   0  0  0  0  0  0
  -21.4001   -6.5628   23.8208 C   0  0  0  0  0  0
  -21.3663   -5.6787   24.9180 C   0  0  0  0  0  0
  -21.6063   -4.3055   24.7221 C   0  0  0  0  0  0
  -21.8826   -3.8127   23.4345 C   0  0  0  0  0  0
  -21.9199   -4.6949   22.3397 C   0  0  0  0  0  0
  -22.7836  -13.5201   21.1866 C   0  0  0  0  0  0
  -22.1674   -4.2133   21.0972 F   0  0  0  0  0  0
  -21.5652   -3.4541   25.7739 F   0  0  0  0  0  0
  -29.9695  -13.6534   20.4292 N   0  0  0  0  0  0
  -26.2943  -12.9341   20.3284 N   0  0  0  0  0  0
  -25.9331  -11.6491   20.5717 N   0  0  0  0  0  0
  -22.0486  -12.8203   22.0427 N   0  0  0  0  0  0
  -25.4203  -15.1859   20.4135 N   0  0  0  0  0  0
  -31.6333  -15.1123   19.9935 O   0  0  0  0  0  0
  -21.6660   -6.8865   21.4243 O   0  0  0  0  0  0
  -22.3532  -14.5520   20.6706 O   0  0  0  0  0  0
  -24.6418  -31.8421   23.1879 C   0  0  0  0  0  0
  -25.9190  -32.4693   23.8267 C   0  0  1  0  0  0
  -27.2231  -27.1251   20.1593 C   0  0  0  0  0  0
  -25.5952  -33.8508   24.2184 N   0  0  0  0  0  0
  -23.4482  -30.4587   21.5300 C   0  0  2  0  0  0
  -24.9026  -28.8822   20.1100 C   0  0  0  0  0  0
  -22.7567  -29.4521   22.4835 C   0  0  0  0  0  0
  -18.0307  -28.1376   22.8473 C   0  0  0  0  0  0
  -24.1499  -36.7245   23.2638 C   0  0  0  0  0  0
  -26.0052  -30.7095   21.3943 C   0  0  0  0  0  0
  -26.0765  -29.3205   20.7354 C   0  0  0  0  0  0
  -27.2336  -28.4544   20.7478 C   0  0  0  0  0  0
  -26.0296  -26.7981   19.4768 C   0  0  0  0  0  0
  -24.8911  -27.6345   19.4677 C   0  0  0  0  0  0
  -23.6786  -29.7836   20.1516 C   0  0  0  0  0  0
  -25.4136  -36.3032   24.0309 C   0  0  1  0  0  0
  -20.5915  -28.3711   23.1216 C   0  0  2  0  0  0
  -20.6786  -26.9406   22.5391 C   0  0  0  0  0  0
  -19.5762  -26.6364   21.5198 C   0  0  0  0  0  0
  -18.1946  -26.7916   22.1615 C   0  0  0  0  0  0
  -19.1564  -28.8865   23.2837 C   0  0  0  0  0  0
  -18.9485  -30.1463   23.8855 C   0  0  0  0  0  0
  -17.6484  -30.6580   24.0553 C   0  0  0  0  0  0
  -25.9080  -34.9410   23.5053 C   0  0  0  0  0  0
  -16.5371  -29.9068   23.6337 C   0  0  0  0  0  0
  -16.7296  -28.6484   23.0359 C   0  0  0  0  0  0
  -26.4519  -31.6583   25.0723 C   0  0  0  0  0  0
  -25.3702  -31.3783   26.1418 C   0  0  0  0  0  0
  -27.0391  -30.2973   24.6338 C   0  0  0  0  0  0
  -27.6040  -32.4365   25.7509 C   0  0  0  0  0  0
  -27.5580  -37.1779   24.8459 C   0  0  0  0  0  0
  -21.4256  -29.3045   22.3589 N   0  0  0  0  0  0
  -26.4292  -37.3745   23.9404 N   0  0  0  0  0  0
  -24.7174  -31.0256   22.0919 N   0  0  0  0  0  0
  -23.4204  -28.8072   23.2988 O   0  0  0  0  0  0
  -28.2776  -26.1420   20.2696 O   0  0  0  0  0  0
  -26.5653  -34.8895   22.4625 O   0  0  0  0  0  0
  -23.5535  -32.1320   23.7068 O   0  0  0  0  0  0
  -26.8206  -18.2476   19.5436 C   0  0  0  0  0  0
  -30.2760  -23.7891   21.1065 C   0  0  0  0  0  0
  -29.0951  -20.5601   22.2784 C   0  0  0  0  0  0
  -28.0802  -17.3752   19.4101 C   0  0  0  0  0  0
  -29.0508  -21.7303   20.0116 C   0  0  0  0  0  0
  -29.8405  -19.0202   20.4371 C   0  0  0  0  0  0
  -28.1172  -24.6202   19.9412 C   0  0  0  0  0  0
  -28.8816  -23.2974   20.6785 C   0  0  2  0  0  0
  -29.1090  -17.5037   20.5604 C   0  0  2  0  0  0
  -29.6400  -16.0152   20.8284 N   0  0  0  0  0  0
  -29.0278  -20.3476   20.8164 N   0  3  1  0  0  0
  -31.4929  -12.7458   19.2175 H   0  0  0  0  0  0
  -30.4446  -11.6128   20.0188 H   0  0  0  0  0  0
  -29.8586  -11.7732   17.5770 H   0  0  0  0  0  0
  -29.6277  -13.4963   17.7311 H   0  0  0  0  0  0
  -27.9528  -11.2783   18.9468 H   0  0  0  0  0  0
  -27.4103  -12.4948   17.8122 H   0  0  0  0  0  0
  -27.6108  -14.2321   19.4426 H   0  0  0  0  0  0
  -28.7746  -12.2228   21.4360 H   0  0  0  0  0  0
  -28.3759  -13.8814   21.8096 H   0  0  0  0  0  0
  -25.2783   -9.5713   22.4742 H   0  0  0  0  0  0
  -24.0050   -7.4635   22.7467 H   0  0  0  0  0  0
  -21.0846   -8.8729   19.8933 H   0  0  0  0  0  0
  -22.3679  -10.9667   19.6157 H   0  0  0  0  0  0
  -21.1970   -7.6136   23.9699 H   0  0  0  0  0  0
  -21.1499   -6.0525   25.9087 H   0  0  0  0  0  0
  -22.0598   -2.7585   23.2845 H   0  0  0  0  0  0
  -22.4093  -11.9853   22.4811 H   0  0  0  0  0  0
  -21.1098  -13.1236   22.2611 H   0  0  0  0  0  0
  -24.6463  -15.8340   20.5063 H   0  0  0  0  0  0
  -26.2643  -15.6253   20.0738 H   0  0  0  0  0  0
  -26.7250  -32.5292   23.0985 H   0  0  0  0  0  0
  -25.0126  -33.9643   25.0350 H   0  0  0  0  0  0
  -22.7513  -31.2842   21.3702 H   0  0  0  0  0  0
  -23.3778  -35.9556   23.3281 H   0  0  0  0  0  0
  -24.3577  -36.8900   22.2053 H   0  0  0  0  0  0
  -23.7237  -37.6427   23.6694 H   0  0  0  0  0  0
  -26.1684  -31.4655   20.6249 H   0  0  0  0  0  0
  -26.8715  -30.7553   22.0430 H   0  0  0  0  0  0
  -28.1233  -28.7751   21.2709 H   0  0  0  0  0  0
  -25.9381  -25.8538   18.9623 H   0  0  0  0  0  0
  -23.9952  -27.2954   18.9672 H   0  0  0  0  0  0
  -23.8153  -30.5546   19.3924 H   0  0  0  0  0  0
  -22.7958  -29.2209   19.8424 H   0  0  0  0  0  0
  -25.1330  -36.1849   25.0799 H   0  0  0  0  0  0
  -21.0013  -28.3296   24.1333 H   0  0  0  0  0  0
  -20.5660  -26.2324   23.3615 H   0  0  0  0  0  0
  -21.6654  -26.7394   22.1191 H   0  0  0  0  0  0
  -19.6916  -25.6265   21.1250 H   0  0  0  0  0  0
  -19.6697  -27.3153   20.6709 H   0  0  0  0  0  0
  -17.4209  -26.6657   21.4023 H   0  0  0  0  0  0
  -18.0351  -26.0063   22.9016 H   0  0  0  0  0  0
  -19.7967  -30.7286   24.2198 H   0  0  0  0  0  0
  -17.5042  -31.6260   24.5148 H   0  0  0  0  0  0
  -15.5367  -30.2958   23.7690 H   0  0  0  0  0  0
  -15.8695  -28.0792   22.7096 H   0  0  0  0  0  0
  -24.5858  -30.7164   25.7734 H   0  0  0  0  0  0
  -24.8921  -32.2975   26.4816 H   0  0  0  0  0  0
  -25.7971  -30.8960   27.0222 H   0  0  0  0  0  0
  -26.3020  -29.6693   24.1322 H   0  0  0  0  0  0
  -27.3960  -29.7282   25.4934 H   0  0  0  0  0  0
  -27.8950  -30.4204   23.9698 H   0  0  0  0  0  0
  -27.2616  -33.3667   26.2059 H   0  0  0  0  0  0
  -28.3864  -32.6938   25.0357 H   0  0  0  0  0  0
  -28.0706  -31.8529   26.5454 H   0  0  0  0  0  0
  -28.2574  -38.0101   24.7530 H   0  0  0  0  0  0
  -28.1102  -36.2625   24.6264 H   0  0  0  0  0  0
  -27.2288  -37.1390   25.8858 H   0  0  0  0  0  0
  -20.9456  -29.8776   21.6792 H   0  0  0  0  0  0
  -26.0152  -38.2804   24.1437 H   0  0  0  0  0  0
  -26.3733  -18.1689   20.5355 H   0  0  0  0  0  0
  -26.0572  -17.9255   18.8306 H   0  0  0  0  0  0
  -27.0244  -19.2968   19.3410 H   0  0  0  0  0  0
  -30.7738  -23.0942   21.7825 H   0  0  0  0  0  0
  -30.2122  -24.7487   21.6211 H   0  0  0  0  0  0
  -30.9262  -23.9283   20.2415 H   0  0  0  0  0  0
  -28.2964  -21.2139   22.6264 H   0  0  0  0  0  0
  -30.0533  -20.9925   22.5670 H   0  0  0  0  0  0
  -28.9878  -19.6139   22.8139 H   0  0  0  0  0  0
  -28.5617  -17.5603   18.4495 H   0  0  0  0  0  0
  -27.7359  -16.3493   19.3453 H   0  0  0  0  0  0
  -29.9602  -21.7278   19.4088 H   0  0  0  0  0  0
  -28.2546  -21.6199   19.2749 H   0  0  0  0  0  0
  -30.1942  -19.1374   19.4103 H   0  0  0  0  0  0
  -30.7507  -19.0129   21.0378 H   0  0  0  0  0  0
  -27.0586  -24.3895   20.0516 H   0  0  0  0  0  0
  -28.3067  -24.5378   18.8708 H   0  0  0  0  0  0
  -28.3105  -23.1732   21.5983 H   0  0  0  0  0  0
  -28.5238  -17.6074   21.4751 H   0  0  0  0  0  0
  -28.9129  -15.5566   21.3588 H   0  0  0  0  0  0
  -28.0719  -20.0577   20.6697 H   0  0  0  0  0  0
  1 25  1  0  0  0
  1 30  2  0  0  0
  1 80  1  0  0  0
  2  3  1  0  0  0
  2 25  1  0  0  0
  2 82  1  0  0  0
  2 83  1  0  0  0
  3  4  1  0  0  0
  3 84  1  0  0  0
  3 85  1  0  0  0
  4  5  1  0  0  0
  4 86  1  0  0  0
  4 87  1  0  0  0
  5  6  1  0  0  0
  5 26  1  0  0  0
  5 88  1  0  0  0
  6 25  1  0  0  0
  6 89  1  0  0  0
  6 90  1  0  0  0
  7  8  2  0  0  0
  7 26  1  0  0  0
  7 29  1  0  0  0
  8  9  1  0  0  0
  8 22  1  0  0  0
  9 10  1  0  0  0
  9 27  2  0  0  0
 10 11  2  0  0  0
 10 15  1  0  0  0
 11 12  1  0  0  0
 11 91  1  0  0  0
 12 13  2  0  0  0
 12 92  1  0  0  0
 13 14  1  0  0  0
 13 31  1  0  0  0
 14 15  2  0  0  0
 14 93  1  0  0  0
 15 94  1  0  0  0
 16 17  2  0  0  0
 16 21  1  0  0  0
 16 31  1  0  0  0
 17 18  1  0  0  0
 17 95  1  0  0  0
 18 19  2  0  0  0
 18 96  1  0  0  0
 19 20  1  0  0  0
 19 24  1  0  0  0
 20 21  2  0  0  0
 20 97  1  0  0  0
 21 23  1  0  0  0
 22 28  1  0  0  0
 22 32  2  0  0  0
 26 27  1  0  0  0
 28 98  1  0  0  0
 28 99  1  0  0  0
 29100  1  0  0  0
 29101  1  0  0  0
 33 34  1  0  0  0
 33 66  1  0  0  0
 33 70  2  0  0  0
 34 36  1  0  0  0
 34 59  1  0  0  0
 34102  1  0  0  0
 35 44  2  0  0  0
 35 45  1  0  0  0
 35 68  1  0  0  0
 36 56  1  0  0  0
 36103  1  0  0  0
 37 39  1  0  0  0
 37 47  1  0  0  0
 37 66  1  0  0  0
 37104  1  0  0  0
 38 43  2  0  0  0
 38 46  1  0  0  0
 38 47  1  0  0  0
 39 64  1  0  0  0
 39 67  2  0  0  0
 40 52  1  0  0  0
 40 53  2  0  0  0
 40 58  1  0  0  0
 41105  1  0  0  0
 41106  1  0  0  0
 41107  1  0  0  0
 41 48  1  0  0  0
 42 43  1  0  0  0
 42 66  1  0  0  0
 42108  1  0  0  0
 42109  1  0  0  0
 43 44  1  0  0  0
 44110  1  0  0  0
 45 46  2  0  0  0
 45111  1  0  0  0
 46112  1  0  0  0
 47113  1  0  0  0
 47114  1  0  0  0
 48 56  1  0  0  0
 48 65  1  0  0  0
 48115  1  0  0  0
 49 50  1  0  0  0
 49 53  1  0  0  0
 49 64  1  0  0  0
 49116  1  0  0  0
 50 51  1  0  0  0
 50117  1  0  0  0
 50118  1  0  0  0
 51 52  1  0  0  0
 51119  1  0  0  0
 51120  1  0  0  0
 52121  1  0  0  0
 52122  1  0  0  0
 53 54  1  0  0  0
 54 55  2  0  0  0
 54123  1  0  0  0
 55 57  1  0  0  0
 55124  1  0  0  0
 56 69  2  0  0  0
 57 58  2  0  0  0
 57125  1  0  0  0
 58126  1  0  0  0
 59 60  1  0  0  0
 59 61  1  0  0  0
 59 62  1  0  0  0
 60127  1  0  0  0
 60128  1  0  0  0
 60129  1  0  0  0
 61130  1  0  0  0
 61131  1  0  0  0
 61132  1  0  0  0
 62133  1  0  0  0
 62134  1  0  0  0
 62135  1  0  0  0
 63 65  1  0  0  0
 63136  1  0  0  0
 63137  1  0  0  0
 63138  1  0  0  0
 64139  1  0  0  0
 65140  1  0  0  0
 68 77  1  0  0  0
 71 74  1  0  0  0
 71141  1  0  0  0
 71142  1  0  0  0
 71143  1  0  0  0
 72144  1  0  0  0
 72145  1  0  0  0
 72146  1  0  0  0
 72 78  1  0  0  0
 73147  1  0  0  0
 73148  1  0  0  0
 73149  1  0  0  0
 73 81  1  0  0  0
 74150  1  0  0  0
 74151  1  0  0  0
 74 79  1  0  0  0
 75 78  1  0  0  0
 75 81  1  0  0  0
 75152  1  0  0  0
 75153  1  0  0  0
 76 79  1  0  0  0
 76 81  1  0  0  0
 76154  1  0  0  0
 76155  1  0  0  0
 77 78  1  0  0  0
 77156  1  0  0  0
 77157  1  0  0  0
 78158  1  0  0  0
 79 80  1  0  0  0
 79159  1  0  0  0
 80160  1  0  0  0
 81161  1  0  0  0
M  CHG  1  81   1
M  ISO  4   1 100  68 101  77 101  80 100
M  END
> <chiral flag>
0

> <version>
0

> <s_m_source_file>
/data/baiqing/PycharmProjects/Reinvent-master-3.2/result/LINK_invent/BTK/process_docking_weight1_custom_sum_contain_oxygen_bond_distance_aromatic_linkinvent_7_9_3/rearranged_h_0109.sdf

> <i_m_source_file_index>
88

> <r_mmod_Potential_Energy-OPLS-2005>
531.537719726562

> <r_mmod_Stretch_Energy-OPLS-2005>
293.735198974609

> <r_mmod_Bend_Energy-OPLS-2005>
360.749664306641

> <r_mmod_Torsional_Energy-OPLS-2005>
275.156311035156

> <r_mmod_Improper_Torsional_Energy-OPLS-2005>
4.48025465011597

> <r_mmod_Van_der_Waal_Energy-OPLS-2005>
109.223999023438

> <r_mmod_Electrostatic_Energy-OPLS-2005>
-257.263793945312

> <r_mmod_Solvation_Energy-OPLS-2005>
-457.132568359375

> <b_mmod_Minimization_Converged-OPLS-2005>
0

> <r_mmod_RMS_Derivative-OPLS-2005>
3.3896803855896

$$$$
88
                    3D
 Structure written by MMmdl.
168176  0  0  1  0            999 V2000
  -30.6690  -14.5145   20.5655 C   0  0  0  0  0  0
  -30.4303  -12.3291   19.4298 C   0  0  0  0  0  0
  -29.4979  -12.5141   18.2124 C   0  0  0  0  0  0
  -28.0198  -12.3647   18.6220 C   0  0  0  0  0  0
  -27.6607  -13.2041   19.8771 C   0  0  2  0  0  0
  -28.7034  -12.9861   20.9981 C   0  0  0  0  0  0
  -25.2577  -13.8157   20.5671 C   0  0  0  0  0  0
  -24.1842  -13.0440   20.9198 C   0  0  0  0  0  0
  -24.6394  -11.6900   20.8748 C   0  0  0  0  0  0
  -23.9068  -10.4296   21.0425 C   0  0  0  0  0  0
  -24.3620   -9.4207   21.9191 C   0  0  0  0  0  0
  -23.6287   -8.2243   22.0759 C   0  0  0  0  0  0
  -22.4273   -8.0286   21.3542 C   0  0  0  0  0  0
  -21.9918   -9.0262   20.4647 C   0  0  0  0  0  0
  -22.7250  -10.2140   20.3057 C   0  0  0  0  0  0
  -21.6844   -6.0739   22.5281 C   0  0  0  0  0  0
  -21.4013   -6.5644   23.8218 C   0  0  0  0  0  0
  -21.3652   -5.6795   24.9174 C   0  0  0  0  0  0
  -21.6046   -4.3063   24.7225 C   0  0  0  0  0  0
  -21.8816   -3.8153   23.4348 C   0  0  0  0  0  0
  -21.9192   -4.6970   22.3403 C   0  0  0  0  0  0
  -22.7871  -13.5238   21.1849 C   0  0  0  0  0  0
  -22.1661   -4.2160   21.0975 F   0  0  0  0  0  0
  -21.5630   -3.4540   25.7739 F   0  0  0  0  0  0
  -30.0299  -13.3133   20.4485 N   0  0  0  0  0  0
  -26.3008  -12.9312   20.3366 N   0  0  0  0  0  0
  -25.9316  -11.6483   20.5774 N   0  0  0  0  0  0
  -22.0486  -12.8224   22.0390 N   0  0  0  0  0  0
  -25.4311  -15.1860   20.4017 N   0  0  0  0  0  0
  -31.8098  -14.6920   20.1249 O   0  0  0  0  0  0
  -21.6628   -6.8885   21.4246 O   0  0  0  0  0  0
  -22.3562  -14.5548   20.6707 O   0  0  0  0  0  0
  -24.6073  -31.8672   23.2132 C   0  0  0  0  0  0
  -25.9000  -32.4803   23.8363 C   0  0  1  0  0  0
  -27.2406  -27.4283   20.0881 C   0  0  0  0  0  0
  -25.5882  -33.8600   24.2292 N   0  0  0  0  0  0
  -23.3940  -30.4895   21.5570 C   0  0  2  0  0  0
  -24.8441  -28.9571   20.1175 C   0  0  0  0  0  0
  -22.7354  -29.4608   22.5056 C   0  0  0  0  0  0
  -18.0250  -28.1310   22.8526 C   0  0  0  0  0  0
  -24.1487  -36.7317   23.2639 C   0  0  0  0  0  0
  -25.9214  -30.8318   21.3669 C   0  0  0  0  0  0
  -26.0030  -29.4611   20.7214 C   0  0  0  0  0  0
  -27.1943  -28.6968   20.7200 C   0  0  0  0  0  0
  -26.0536  -26.9377   19.4911 C   0  0  0  0  0  0
  -24.8644  -27.6914   19.5088 C   0  0  0  0  0  0
  -23.6031  -29.8219   20.1710 C   0  0  0  0  0  0
  -25.4115  -36.3091   24.0321 C   0  0  1  0  0  0
  -20.5830  -28.3565   23.1378 C   0  0  2  0  0  0
  -20.6749  -26.9313   22.5454 C   0  0  0  0  0  0
  -19.5734  -26.6355   21.5233 C   0  0  0  0  0  0
  -18.1896  -26.7870   22.1643 C   0  0  0  0  0  0
  -19.1498  -28.8766   23.2937 C   0  0  0  0  0  0
  -18.9450  -30.1390   23.8910 C   0  0  0  0  0  0
  -17.6458  -30.6547   24.0545 C   0  0  0  0  0  0
  -25.9054  -34.9454   23.5110 C   0  0  0  0  0  0
  -16.5342  -29.9047   23.6321 C   0  0  0  0  0  0
  -16.7245  -28.6462   23.0349 C   0  0  0  0  0  0
  -26.4444  -31.6575   25.0666 C   0  0  0  0  0  0
  -25.3720  -31.3712   26.1415 C   0  0  0  0  0  0
  -27.0252  -30.3009   24.6014 C   0  0  0  0  0  0
  -27.5972  -32.4297   25.7473 C   0  0  0  0  0  0
  -27.5578  -37.1796   24.8442 C   0  0  0  0  0  0
  -21.4089  -29.2950   22.3803 N   0  0  0  0  0  0
  -26.4285  -37.3789   23.9405 N   0  0  0  0  0  0
  -24.6589  -31.0762   22.1046 N   0  0  0  0  0  0
  -23.4133  -28.8133   23.3072 O   0  0  0  0  0  0
  -28.4261  -26.7094   20.0925 O   0  0  0  0  0  0
  -26.5630  -34.8920   22.4676 O   0  0  0  0  0  0
  -23.5289  -32.1424   23.7573 O   0  0  0  0  0  0
  -28.9763  -19.1292   20.8288 C   0  0  0  0  0  0
  -28.9033  -17.7161   20.8169 C   0  0  0  0  0  0
  -30.2148  -19.7745   21.0505 C   0  0  0  0  0  0
  -31.3358  -18.9099   21.1912 C   0  0  0  0  0  0
  -30.0675  -16.9344   20.9958 C   0  0  0  0  0  0
  -30.7235  -21.7799   22.3849 C   0  0  0  0  0  0
  -30.3191  -21.2698   21.2025 C   0  0  0  0  0  0
  -32.7413  -19.4507   21.3754 C   0  0  0  0  0  0
  -32.4787  -22.9045   19.5068 C   0  0  0  0  0  0
  -30.7791  -22.6933   17.6373 C   0  0  0  0  0  0
  -28.4918  -24.2379   19.4603 C   0  0  0  0  0  0
  -29.5752  -23.6238   20.4022 C   0  0  0  0  0  0
  -28.6787  -25.7333   19.0627 C   0  0  0  0  0  0
  -31.1793  -22.2060   19.0407 C   0  0  0  0  0  0
  -31.2578  -17.5543   21.1648 N   0  0  0  0  0  0
  -29.8899  -15.5146   21.0449 N   0  0  0  0  0  0
  -30.0601  -22.2345   20.0444 N   0  3  1  0  0  0
  -31.4752  -12.4388   19.1321 H   0  0  0  0  0  0
  -30.3411  -11.3177   19.8314 H   0  0  0  0  0  0
  -29.7446  -11.7914   17.4337 H   0  0  0  0  0  0
  -29.6563  -13.5009   17.7727 H   0  0  0  0  0  0
  -27.8363  -11.3077   18.8190 H   0  0  0  0  0  0
  -27.3678  -12.6349   17.7911 H   0  0  0  0  0  0
  -27.7017  -14.2511   19.5760 H   0  0  0  0  0  0
  -28.6920  -11.9452   21.3244 H   0  0  0  0  0  0
  -28.4610  -13.5700   21.8872 H   0  0  0  0  0  0
  -25.2756   -9.5673   22.4777 H   0  0  0  0  0  0
  -23.9990   -7.4631   22.7476 H   0  0  0  0  0  0
  -21.0849   -8.8777   19.8946 H   0  0  0  0  0  0
  -22.3705  -10.9681   19.6168 H   0  0  0  0  0  0
  -21.2002   -7.6150   23.9722 H   0  0  0  0  0  0
  -21.1476   -6.0523   25.9077 H   0  0  0  0  0  0
  -22.0602   -2.7619   23.2838 H   0  0  0  0  0  0
  -22.4078  -11.9851   22.4750 H   0  0  0  0  0  0
  -21.1105  -13.1268   22.2608 H   0  0  0  0  0  0
  -24.6579  -15.8367   20.4871 H   0  0  0  0  0  0
  -26.2602  -15.6098   20.0073 H   0  0  0  0  0  0
  -26.7041  -32.5544   23.1106 H   0  0  0  0  0  0
  -24.9889  -33.9742   25.0333 H   0  0  0  0  0  0
  -22.6799  -31.3052   21.4214 H   0  0  0  0  0  0
  -23.3740  -35.9653   23.3267 H   0  0  0  0  0  0
  -24.3599  -36.8983   22.2062 H   0  0  0  0  0  0
  -23.7229  -37.6500   23.6701 H   0  0  0  0  0  0
  -26.0152  -31.5978   20.5953 H   0  0  0  0  0  0
  -26.8125  -30.8959   21.9797 H   0  0  0  0  0  0
  -28.0806  -29.0856   21.2039 H   0  0  0  0  0  0
  -26.0253  -25.9679   19.0158 H   0  0  0  0  0  0
  -23.9687  -27.2921   19.0509 H   0  0  0  0  0  0
  -23.6985  -30.5972   19.4093 H   0  0  0  0  0  0
  -22.7276  -29.2379   19.8813 H   0  0  0  0  0  0
  -25.1278  -36.1944   25.0813 H   0  0  0  0  0  0
  -20.9912  -28.3144   24.1507 H   0  0  0  0  0  0
  -20.5696  -26.2145   23.3616 H   0  0  0  0  0  0
  -21.6615  -26.7387   22.1216 H   0  0  0  0  0  0
  -19.6898  -25.6297   21.1198 H   0  0  0  0  0  0
  -19.6696  -27.3237   20.6811 H   0  0  0  0  0  0
  -17.4174  -26.6630   21.4028 H   0  0  0  0  0  0
  -18.0265  -25.9969   22.9002 H   0  0  0  0  0  0
  -19.7941  -30.7170   24.2297 H   0  0  0  0  0  0
  -17.5031  -31.6252   24.5082 H   0  0  0  0  0  0
  -15.5344  -30.2943   23.7666 H   0  0  0  0  0  0
  -15.8644  -28.0804   22.7035 H   0  0  0  0  0  0
  -24.5905  -30.7013   25.7800 H   0  0  0  0  0  0
  -24.8886  -32.2886   26.4786 H   0  0  0  0  0  0
  -25.8074  -30.8967   27.0217 H   0  0  0  0  0  0
  -26.2772  -29.6808   24.1036 H   0  0  0  0  0  0
  -27.3975  -29.7181   25.4450 H   0  0  0  0  0  0
  -27.8638  -30.4284   23.9154 H   0  0  0  0  0  0
  -27.2514  -33.3604   26.1993 H   0  0  0  0  0  0
  -28.3845  -32.6842   25.0365 H   0  0  0  0  0  0
  -28.0531  -31.8434   26.5466 H   0  0  0  0  0  0
  -28.2517  -38.0160   24.7543 H   0  0  0  0  0  0
  -28.1127  -36.2674   24.6185 H   0  0  0  0  0  0
  -27.2291  -37.1347   25.8838 H   0  0  0  0  0  0
  -20.9217  -29.8694   21.7077 H   0  0  0  0  0  0
  -26.0157  -38.2842   24.1486 H   0  0  0  0  0  0
  -28.0708  -19.7045   20.7038 H   0  0  0  0  0  0
  -27.9411  -17.2433   20.6747 H   0  0  0  0  0  0
  -30.9241  -21.1360   23.2296 H   0  0  0  0  0  0
  -30.8698  -22.8359   22.5544 H   0  0  0  0  0  0
  -32.8281  -20.0051   22.3089 H   0  0  0  0  0  0
  -33.0030  -20.1114   20.5507 H   0  0  0  0  0  0
  -33.4767  -18.6458   21.3984 H   0  0  0  0  0  0
  -33.2888  -22.6863   18.8102 H   0  0  0  0  0  0
  -32.8023  -22.5633   20.4894 H   0  0  0  0  0  0
  -32.3868  -23.9903   19.5416 H   0  0  0  0  0  0
  -31.5486  -22.4174   16.9161 H   0  0  0  0  0  0
  -30.6797  -23.7772   17.5900 H   0  0  0  0  0  0
  -29.8469  -22.2431   17.2952 H   0  0  0  0  0  0
  -27.5088  -24.0988   19.9113 H   0  0  0  0  0  0
  -28.4429  -23.6663   18.5353 H   0  0  0  0  0  0
  -29.1070  -23.5975   21.3860 H   0  0  0  0  0  0
  -30.4150  -24.3078   20.5207 H   0  0  0  0  0  0
  -28.0727  -25.9507   18.1828 H   0  0  0  0  0  0
  -29.6988  -25.8920   18.7096 H   0  0  0  0  0  0
  -31.4297  -21.1531   18.9086 H   0  0  0  0  0  0
  -28.9731  -15.2085   21.3232 H   0  0  0  0  0  0
  -29.2794  -21.8396   19.5441 H   0  0  0  0  0  0
  1 25  1  0  0  0
  1 30  2  0  0  0
  1 86  1  0  0  0
  2  3  1  0  0  0
  2 25  1  0  0  0
  2 88  1  0  0  0
  2 89  1  0  0  0
  3  4  1  0  0  0
  3 90  1  0  0  0
  3 91  1  0  0  0
  4  5  1  0  0  0
  4 92  1  0  0  0
  4 93  1  0  0  0
  5  6  1  0  0  0
  5 26  1  0  0  0
  5 94  1  0  0  0
  6 25  1  0  0  0
  6 95  1  0  0  0
  6 96  1  0  0  0
  7  8  2  0  0  0
  7 26  1  0  0  0
  7 29  1  0  0  0
  8  9  1  0  0  0
  8 22  1  0  0  0
  9 10  1  0  0  0
  9 27  2  0  0  0
 10 11  2  0  0  0
 10 15  1  0  0  0
 11 12  1  0  0  0
 11 97  1  0  0  0
 12 13  2  0  0  0
 12 98  1  0  0  0
 13 14  1  0  0  0
 13 31  1  0  0  0
 14 15  2  0  0  0
 14 99  1  0  0  0
 15100  1  0  0  0
 16 17  2  0  0  0
 16 21  1  0  0  0
 16 31  1  0  0  0
 17 18  1  0  0  0
 17101  1  0  0  0
 18 19  2  0  0  0
 18102  1  0  0  0
 19 20  1  0  0  0
 19 24  1  0  0  0
 20 21  2  0  0  0
 20103  1  0  0  0
 21 23  1  0  0  0
 22 28  1  0  0  0
 22 32  2  0  0  0
 26 27  1  0  0  0
 28104  1  0  0  0
 28105  1  0  0  0
 29106  1  0  0  0
 29107  1  0  0  0
 33 34  1  0  0  0
 33 66  1  0  0  0
 33 70  2  0  0  0
 34 36  1  0  0  0
 34 59  1  0  0  0
 34108  1  0  0  0
 35 44  2  0  0  0
 35 45  1  0  0  0
 35 68  1  0  0  0
 36 56  1  0  0  0
 36109  1  0  0  0
 37 39  1  0  0  0
 37 47  1  0  0  0
 37 66  1  0  0  0
 37110  1  0  0  0
 38 43  2  0  0  0
 38 46  1  0  0  0
 38 47  1  0  0  0
 39 64  1  0  0  0
 39 67  2  0  0  0
 40 52  1  0  0  0
 40 53  2  0  0  0
 40 58  1  0  0  0
 41111  1  0  0  0
 41112  1  0  0  0
 41113  1  0  0  0
 41 48  1  0  0  0
 42 43  1  0  0  0
 42 66  1  0  0  0
 42114  1  0  0  0
 42115  1  0  0  0
 43 44  1  0  0  0
 44116  1  0  0  0
 45 46  2  0  0  0
 45117  1  0  0  0
 46118  1  0  0  0
 47119  1  0  0  0
 47120  1  0  0  0
 48 56  1  0  0  0
 48 65  1  0  0  0
 48121  1  0  0  0
 49 50  1  0  0  0
 49 53  1  0  0  0
 49 64  1  0  0  0
 49122  1  0  0  0
 50 51  1  0  0  0
 50123  1  0  0  0
 50124  1  0  0  0
 51 52  1  0  0  0
 51125  1  0  0  0
 51126  1  0  0  0
 52127  1  0  0  0
 52128  1  0  0  0
 53 54  1  0  0  0
 54 55  2  0  0  0
 54129  1  0  0  0
 55 57  1  0  0  0
 55130  1  0  0  0
 56 69  2  0  0  0
 57 58  2  0  0  0
 57131  1  0  0  0
 58132  1  0  0  0
 59 60  1  0  0  0
 59 61  1  0  0  0
 59 62  1  0  0  0
 60133  1  0  0  0
 60134  1  0  0  0
 60135  1  0  0  0
 61136  1  0  0  0
 61137  1  0  0  0
 61138  1  0  0  0
 62139  1  0  0  0
 62140  1  0  0  0
 62141  1  0  0  0
 63 65  1  0  0  0
 63142  1  0  0  0
 63143  1  0  0  0
 63144  1  0  0  0
 64145  1  0  0  0
 65146  1  0  0  0
 68 83  1  0  0  0
 71 72  2  0  0  0
 71 73  1  0  0  0
 71147  1  0  0  0
 72 75  1  0  0  0
 72148  1  0  0  0
 73 74  2  0  0  0
 73 77  1  0  0  0
 74 78  1  0  0  0
 74 85  1  0  0  0
 75 85  2  0  0  0
 75 86  1  0  0  0
 76 77  2  0  0  0
 76149  1  0  0  0
 76150  1  0  0  0
 77 87  1  0  0  0
 78151  1  0  0  0
 78152  1  0  0  0
 78153  1  0  0  0
 79154  1  0  0  0
 79155  1  0  0  0
 79156  1  0  0  0
 79 84  1  0  0  0
 80 84  1  0  0  0
 80157  1  0  0  0
 80158  1  0  0  0
 80159  1  0  0  0
 81 82  1  0  0  0
 81 83  1  0  0  0
 81160  1  0  0  0
 81161  1  0  0  0
 82162  1  0  0  0
 82163  1  0  0  0
 82 87  1  0  0  0
 83164  1  0  0  0
 83165  1  0  0  0
 84 87  1  0  0  0
 84166  1  0  0  0
 86167  1  0  0  0
 87168  1  0  0  0
M  CHG  1  87   1
M  ISO  4   1 100  68 101  83 101  86 100
M  END
> <chiral flag>
0

> <version>
0

> <s_m_source_file>
/data/baiqing/PycharmProjects/Reinvent-master-3.2/result/LINK_invent/BTK/process_docking_weight1_custom_sum_contain_oxygen_bond_distance_aromatic_linkinvent_7_9_3/rearranged_h_0109.sdf

> <i_m_source_file_index>
89

> <r_mmod_Potential_Energy-OPLS-2005>
-157.576766967773

> <r_mmod_Stretch_Energy-OPLS-2005>
51.5178146362305

> <r_mmod_Bend_Energy-OPLS-2005>
126.003753662109

> <r_mmod_Torsional_Energy-OPLS-2005>
253.887908935547

> <r_mmod_Improper_Torsional_Energy-OPLS-2005>
5.16904973983765

> <r_mmod_Van_der_Waal_Energy-OPLS-2005>
155.822799682617

> <r_mmod_Electrostatic_Energy-OPLS-2005>
-314.403961181641

> <r_mmod_Solvation_Energy-OPLS-2005>
-450.756988525391

> <b_mmod_Minimization_Converged-OPLS-2005>
0

> <r_mmod_RMS_Derivative-OPLS-2005>
3.42133092880249

$$$$
89
                    3D
 Structure written by MMmdl.
167175  0  0  1  0            999 V2000
  -30.4734  -15.1961   20.3809 C   0  0  0  0  0  0
  -30.4360  -12.7601   19.5240 C   0  0  0  0  0  0
  -29.5313  -12.5671   18.2820 C   0  0  0  0  0  0
  -28.0751  -12.3070   18.7062 C   0  0  0  0  0  0
  -27.6141  -13.2724   19.8270 C   0  0  2  0  0  0
  -28.6502  -13.4186   20.9622 C   0  0  0  0  0  0
  -25.2381  -13.8238   20.5703 C   0  0  0  0  0  0
  -24.1743  -13.0441   20.9270 C   0  0  0  0  0  0
  -24.6399  -11.6940   20.8787 C   0  0  0  0  0  0
  -23.9093  -10.4297   21.0421 C   0  0  0  0  0  0
  -24.3635   -9.4203   21.9196 C   0  0  0  0  0  0
  -23.6303   -8.2240   22.0760 C   0  0  0  0  0  0
  -22.4286   -8.0283   21.3546 C   0  0  0  0  0  0
  -21.9925   -9.0260   20.4652 C   0  0  0  0  0  0
  -22.7261  -10.2139   20.3067 C   0  0  0  0  0  0
  -21.6857   -6.0737   22.5280 C   0  0  0  0  0  0
  -21.4013   -6.5640   23.8213 C   0  0  0  0  0  0
  -21.3660   -5.6792   24.9174 C   0  0  0  0  0  0
  -21.6040   -4.3054   24.7223 C   0  0  0  0  0  0
  -21.8819   -3.8148   23.4345 C   0  0  0  0  0  0
  -21.9190   -4.6962   22.3401 C   0  0  0  0  0  0
  -22.7764  -13.5200   21.1910 C   0  0  0  0  0  0
  -22.1661   -4.2150   21.0980 F   0  0  0  0  0  0
  -21.5624   -3.4541   25.7733 F   0  0  0  0  0  0
  -29.8928  -13.9028   20.3411 N   0  0  0  0  0  0
  -26.2823  -12.9515   20.3230 N   0  0  0  0  0  0
  -25.9337  -11.6625   20.5757 N   0  0  0  0  0  0
  -22.0419  -12.8182   22.0459 N   0  0  0  0  0  0
  -25.3979  -15.1957   20.4000 N   0  0  0  0  0  0
  -31.6904  -15.1953   20.1531 O   0  0  0  0  0  0
  -21.6646   -6.8883   21.4238 O   0  0  0  0  0  0
  -22.3445  -14.5498   20.6744 O   0  0  0  0  0  0
  -24.6592  -31.8278   23.1749 C   0  0  0  0  0  0
  -25.9291  -32.4610   23.8192 C   0  0  1  0  0  0
  -27.2154  -26.9670   20.1791 C   0  0  0  0  0  0
  -25.5982  -33.8419   24.2100 N   0  0  0  0  0  0
  -23.4721  -30.4432   21.5230 C   0  0  2  0  0  0
  -24.9252  -28.8413   20.1112 C   0  0  0  0  0  0
  -22.7650  -29.4471   22.4788 C   0  0  0  0  0  0
  -18.0322  -28.1412   22.8473 C   0  0  0  0  0  0
  -24.1492  -36.7209   23.2647 C   0  0  0  0  0  0
  -26.0402  -30.6480   21.3999 C   0  0  0  0  0  0
  -26.1086  -29.2425   20.7434 C   0  0  0  0  0  0
  -27.2501  -28.3256   20.7558 C   0  0  0  0  0  0
  -26.0034  -26.7152   19.4947 C   0  0  0  0  0  0
  -24.8957  -27.5970   19.4662 C   0  0  0  0  0  0
  -23.7097  -29.7647   20.1468 C   0  0  0  0  0  0
  -25.4131  -36.2975   24.0307 C   0  0  1  0  0  0
  -20.5949  -28.3753   23.1198 C   0  0  2  0  0  0
  -20.6805  -26.9438   22.5408 C   0  0  0  0  0  0
  -19.5778  -26.6386   21.5219 C   0  0  0  0  0  0
  -18.1956  -26.7949   22.1619 C   0  0  0  0  0  0
  -19.1585  -28.8901   23.2822 C   0  0  0  0  0  0
  -18.9497  -30.1491   23.8856 C   0  0  0  0  0  0
  -17.6491  -30.6603   24.0557 C   0  0  0  0  0  0
  -25.9096  -34.9362   23.5022 C   0  0  0  0  0  0
  -16.5379  -29.9094   23.6346 C   0  0  0  0  0  0
  -16.7304  -28.6514   23.0364 C   0  0  0  0  0  0
  -26.4558  -31.6536   25.0701 C   0  0  0  0  0  0
  -25.3703  -31.3778   26.1372 C   0  0  0  0  0  0
  -27.0453  -30.2912   24.6413 C   0  0  0  0  0  0
  -27.6053  -32.4346   25.7497 C   0  0  0  0  0  0
  -27.5566  -37.1761   24.8463 C   0  0  0  0  0  0
  -21.4323  -29.3048   22.3542 N   0  0  0  0  0  0
  -26.4268  -37.3717   23.9415 N   0  0  0  0  0  0
  -24.7449  -30.9989   22.0862 N   0  0  0  0  0  0
  -23.4217  -28.8035   23.3008 O   0  0  0  0  0  0
  -28.2057  -25.8618   20.2627 O   0  0  0  0  0  0
  -26.5695  -34.8893   22.4612 O   0  0  0  0  0  0
  -23.5671  -32.1217   23.6879 O   0  0  0  0  0  0
  -28.7139  -21.9072   21.4361 C   0  0  0  0  0  0
  -29.2597  -20.5544   19.1903 C   0  0  0  0  0  0
  -29.1165  -20.4744   21.4806 C   0  0  0  0  0  0
  -29.4033  -19.6382   20.3171 C   0  0  0  0  0  0
  -28.6037  -22.7429   20.2516 C   0  0  0  0  0  0
  -27.1742  -16.2542   25.6406 C   0  0  0  0  0  0
  -25.7556  -18.2369   25.0866 C   0  0  0  0  0  0
  -26.3854  -16.5748   23.2951 C   0  0  0  0  0  0
  -30.1343  -18.0515   20.2253 C   0  0  0  0  0  0
  -29.2485  -19.8284   22.8490 C   0  0  0  0  0  0
  -27.8178  -24.2894   20.0757 C   0  0  0  0  0  0
  -28.1667  -18.1158   24.2779 C   0  0  0  0  0  0
  -26.8705  -17.3108   24.5604 C   0  0  0  0  0  0
  -28.8874  -21.9267   19.1566 N   0  0  0  0  0  0
  -29.7300  -16.4680   20.4653 N   0  0  0  0  0  0
  -28.0208  -19.0845   23.1700 N   0  3  0  0  0  0
  -31.4605  -12.9458   19.1994 H   0  0  0  0  0  0
  -30.4800  -11.8452   20.1164 H   0  0  0  0  0  0
  -29.8967  -11.7428   17.6684 H   0  0  0  0  0  0
  -29.5765  -13.4599   17.6564 H   0  0  0  0  0  0
  -28.0167  -11.2783   19.0631 H   0  0  0  0  0  0
  -27.4074  -12.3701   17.8459 H   0  0  0  0  0  0
  -27.5381  -14.2475   19.3443 H   0  0  0  0  0  0
  -28.8004  -12.4749   21.4889 H   0  0  0  0  0  0
  -28.3031  -14.1369   21.7056 H   0  0  0  0  0  0
  -25.2775   -9.5674   22.4779 H   0  0  0  0  0  0
  -24.0004   -7.4628   22.7482 H   0  0  0  0  0  0
  -21.0852   -8.8782   19.8965 H   0  0  0  0  0  0
  -22.3714  -10.9678   19.6182 H   0  0  0  0  0  0
  -21.2013   -7.6151   23.9712 H   0  0  0  0  0  0
  -21.1480   -6.0528   25.9076 H   0  0  0  0  0  0
  -22.0597   -2.7611   23.2844 H   0  0  0  0  0  0
  -22.4042  -11.9844   22.4835 H   0  0  0  0  0  0
  -21.1035  -13.1191   22.2667 H   0  0  0  0  0  0
  -24.6138  -15.8324   20.4877 H   0  0  0  0  0  0
  -26.2163  -15.6279   19.9954 H   0  0  0  0  0  0
  -26.7352  -32.5160   23.0900 H   0  0  0  0  0  0
  -25.0099  -33.9506   25.0232 H   0  0  0  0  0  0
  -22.7840  -31.2746   21.3567 H   0  0  0  0  0  0
  -23.3772  -35.9519   23.3273 H   0  0  0  0  0  0
  -24.3574  -36.8885   22.2068 H   0  0  0  0  0  0
  -23.7228  -37.6382   23.6719 H   0  0  0  0  0  0
  -26.2189  -31.3921   20.6230 H   0  0  0  0  0  0
  -26.9011  -30.7016   22.0541 H   0  0  0  0  0  0
  -28.1436  -28.6312   21.2818 H   0  0  0  0  0  0
  -25.8658  -25.7697   18.9932 H   0  0  0  0  0  0
  -23.9971  -27.2839   18.9527 H   0  0  0  0  0  0
  -23.8630  -30.5360   19.3912 H   0  0  0  0  0  0
  -22.8199  -29.2190   19.8283 H   0  0  0  0  0  0
  -25.1329  -36.1767   25.0800 H   0  0  0  0  0  0
  -21.0036  -28.3354   24.1318 H   0  0  0  0  0  0
  -20.5697  -26.2369   23.3648 H   0  0  0  0  0  0
  -21.6670  -26.7425   22.1206 H   0  0  0  0  0  0
  -19.6939  -25.6287   21.1273 H   0  0  0  0  0  0
  -19.6718  -27.3179   20.6736 H   0  0  0  0  0  0
  -17.4232  -26.6702   21.4014 H   0  0  0  0  0  0
  -18.0330  -26.0101   22.9022 H   0  0  0  0  0  0
  -19.7972  -30.7320   24.2205 H   0  0  0  0  0  0
  -17.5045  -31.6276   24.5168 H   0  0  0  0  0  0
  -15.5379  -30.2982   23.7704 H   0  0  0  0  0  0
  -15.8702  -28.0820   22.7102 H   0  0  0  0  0  0
  -24.5910  -30.7089   25.7703 H   0  0  0  0  0  0
  -24.8860  -32.2973   26.4668 H   0  0  0  0  0  0
  -25.7963  -30.9047   27.0229 H   0  0  0  0  0  0
  -26.3111  -29.6601   24.1399 H   0  0  0  0  0  0
  -27.3975  -29.7262   25.5051 H   0  0  0  0  0  0
  -27.9058  -30.4108   23.9832 H   0  0  0  0  0  0
  -27.2622  -33.3701   26.1931 H   0  0  0  0  0  0
  -28.3942  -32.6821   25.0382 H   0  0  0  0  0  0
  -28.0635  -31.8563   26.5531 H   0  0  0  0  0  0
  -28.2561  -38.0080   24.7530 H   0  0  0  0  0  0
  -28.1085  -36.2611   24.6262 H   0  0  0  0  0  0
  -27.2289  -37.1363   25.8866 H   0  0  0  0  0  0
  -20.9565  -29.8734   21.6677 H   0  0  0  0  0  0
  -26.0114  -38.2769   24.1447 H   0  0  0  0  0  0
  -28.4634  -22.3901   22.3721 H   0  0  0  0  0  0
  -29.4980  -20.1652   18.2113 H   0  0  0  0  0  0
  -26.2858  -15.6741   25.8937 H   0  0  0  0  0  0
  -27.5353  -16.7135   26.5615 H   0  0  0  0  0  0
  -27.9364  -15.5476   25.3081 H   0  0  0  0  0  0
  -24.8531  -17.6733   25.3264 H   0  0  0  0  0  0
  -25.4703  -18.9959   24.3579 H   0  0  0  0  0  0
  -26.0621  -18.7542   25.9968 H   0  0  0  0  0  0
  -25.5223  -15.9433   23.5094 H   0  0  0  0  0  0
  -27.1600  -15.9260   22.8854 H   0  0  0  0  0  0
  -26.0782  -17.2620   22.5062 H   0  0  0  0  0  0
  -31.0449  -18.1626   20.8151 H   0  0  0  0  0  0
  -30.5108  -18.0290   19.2018 H   0  0  0  0  0  0
  -29.4403  -20.5814   23.6146 H   0  0  0  0  0  0
  -30.1118  -19.1622   22.8480 H   0  0  0  0  0  0
  -26.9177  -24.1748   20.6792 H   0  0  0  0  0  0
  -27.4588  -24.2428   19.0482 H   0  0  0  0  0  0
  -28.9761  -17.4264   24.0307 H   0  0  0  0  0  0
  -28.4830  -18.6462   25.1787 H   0  0  0  0  0  0
  -28.7417  -16.3156   20.5934 H   0  0  0  0  0  0
  -27.7472  -18.5950   22.3353 H   0  0  0  0  0  0
  -27.3005  -19.7531   23.3851 H   0  0  0  0  0  0
  1 25  1  0  0  0
  1 30  2  0  0  0
  1 85  1  0  0  0
  2  3  1  0  0  0
  2 25  1  0  0  0
  2 87  1  0  0  0
  2 88  1  0  0  0
  3  4  1  0  0  0
  3 89  1  0  0  0
  3 90  1  0  0  0
  4  5  1  0  0  0
  4 91  1  0  0  0
  4 92  1  0  0  0
  5  6  1  0  0  0
  5 26  1  0  0  0
  5 93  1  0  0  0
  6 25  1  0  0  0
  6 94  1  0  0  0
  6 95  1  0  0  0
  7  8  2  0  0  0
  7 26  1  0  0  0
  7 29  1  0  0  0
  8  9  1  0  0  0
  8 22  1  0  0  0
  9 10  1  0  0  0
  9 27  2  0  0  0
 10 11  2  0  0  0
 10 15  1  0  0  0
 11 12  1  0  0  0
 11 96  1  0  0  0
 12 13  2  0  0  0
 12 97  1  0  0  0
 13 14  1  0  0  0
 13 31  1  0  0  0
 14 15  2  0  0  0
 14 98  1  0  0  0
 15 99  1  0  0  0
 16 17  2  0  0  0
 16 21  1  0  0  0
 16 31  1  0  0  0
 17 18  1  0  0  0
 17100  1  0  0  0
 18 19  2  0  0  0
 18101  1  0  0  0
 19 20  1  0  0  0
 19 24  1  0  0  0
 20 21  2  0  0  0
 20102  1  0  0  0
 21 23  1  0  0  0
 22 28  1  0  0  0
 22 32  2  0  0  0
 26 27  1  0  0  0
 28103  1  0  0  0
 28104  1  0  0  0
 29105  1  0  0  0
 29106  1  0  0  0
 33 34  1  0  0  0
 33 66  1  0  0  0
 33 70  2  0  0  0
 34 36  1  0  0  0
 34 59  1  0  0  0
 34107  1  0  0  0
 35 44  2  0  0  0
 35 45  1  0  0  0
 35 68  1  0  0  0
 36 56  1  0  0  0
 36108  1  0  0  0
 37 39  1  0  0  0
 37 47  1  0  0  0
 37 66  1  0  0  0
 37109  1  0  0  0
 38 43  2  0  0  0
 38 46  1  0  0  0
 38 47  1  0  0  0
 39 64  1  0  0  0
 39 67  2  0  0  0
 40 52  1  0  0  0
 40 53  2  0  0  0
 40 58  1  0  0  0
 41110  1  0  0  0
 41111  1  0  0  0
 41112  1  0  0  0
 41 48  1  0  0  0
 42 43  1  0  0  0
 42 66  1  0  0  0
 42113  1  0  0  0
 42114  1  0  0  0
 43 44  1  0  0  0
 44115  1  0  0  0
 45 46  2  0  0  0
 45116  1  0  0  0
 46117  1  0  0  0
 47118  1  0  0  0
 47119  1  0  0  0
 48 56  1  0  0  0
 48 65  1  0  0  0
 48120  1  0  0  0
 49 50  1  0  0  0
 49 53  1  0  0  0
 49 64  1  0  0  0
 49121  1  0  0  0
 50 51  1  0  0  0
 50122  1  0  0  0
 50123  1  0  0  0
 51 52  1  0  0  0
 51124  1  0  0  0
 51125  1  0  0  0
 52126  1  0  0  0
 52127  1  0  0  0
 53 54  1  0  0  0
 54 55  2  0  0  0
 54128  1  0  0  0
 55 57  1  0  0  0
 55129  1  0  0  0
 56 69  2  0  0  0
 57 58  2  0  0  0
 57130  1  0  0  0
 58131  1  0  0  0
 59 60  1  0  0  0
 59 61  1  0  0  0
 59 62  1  0  0  0
 60132  1  0  0  0
 60133  1  0  0  0
 60134  1  0  0  0
 61135  1  0  0  0
 61136  1  0  0  0
 61137  1  0  0  0
 62138  1  0  0  0
 62139  1  0  0  0
 62140  1  0  0  0
 63 65  1  0  0  0
 63141  1  0  0  0
 63142  1  0  0  0
 63143  1  0  0  0
 64144  1  0  0  0
 65145  1  0  0  0
 68 81  1  0  0  0
 71 73  2  0  0  0
 71 75  1  0  0  0
 71146  1  0  0  0
 72 74  2  0  0  0
 72 84  1  0  0  0
 72147  1  0  0  0
 73 74  1  0  0  0
 73 80  1  0  0  0
 74 79  1  0  0  0
 75 81  1  0  0  0
 75 84  2  0  0  0
 76148  1  0  0  0
 76149  1  0  0  0
 76150  1  0  0  0
 76 83  1  0  0  0
 77 83  1  0  0  0
 77151  1  0  0  0
 77152  1  0  0  0
 77153  1  0  0  0
 78 83  1  0  0  0
 78154  1  0  0  0
 78155  1  0  0  0
 78156  1  0  0  0
 79 85  1  0  0  0
 79157  1  0  0  0
 79158  1  0  0  0
 80 86  1  0  0  0
 80159  1  0  0  0
 80160  1  0  0  0
 81161  1  0  0  0
 81162  1  0  0  0
 82 83  1  0  0  0
 82 86  1  0  0  0
 82163  1  0  0  0
 82164  1  0  0  0
 85165  1  0  0  0
 86166  1  0  0  0
 86167  1  0  0  0
M  CHG  1  86   1
M  ISO  4   1 100  68 101  81 101  85 100
M  END
> <chiral flag>
0

> <version>
0

> <s_m_source_file>
/data/baiqing/PycharmProjects/Reinvent-master-3.2/result/LINK_invent/BTK/process_docking_weight1_custom_sum_contain_oxygen_bond_distance_aromatic_linkinvent_7_9_3/rearranged_h_0109.sdf

> <i_m_source_file_index>
90

> <r_mmod_Potential_Energy-OPLS-2005>
713.443969726562

> <r_mmod_Stretch_Energy-OPLS-2005>
470.510131835938

> <r_mmod_Bend_Energy-OPLS-2005>
428.389556884766

> <r_mmod_Torsional_Energy-OPLS-2005>
234.13232421875

> <r_mmod_Improper_Torsional_Energy-OPLS-2005>
10.0778837203979

> <r_mmod_Van_der_Waal_Energy-OPLS-2005>
123.178764343262

> <r_mmod_Electrostatic_Energy-OPLS-2005>
-452.009796142578

> <r_mmod_Solvation_Energy-OPLS-2005>
-497.552185058594

> <b_mmod_Minimization_Converged-OPLS-2005>
0

> <r_mmod_RMS_Derivative-OPLS-2005>
1.12578189373016

$$$$
90
                    3D
 Structure written by MMmdl.
160168  0  0  1  0            999 V2000
  -30.7289  -14.4205   20.5889 C   0  0  0  0  0  0
  -30.4191  -12.2764   19.4168 C   0  0  0  0  0  0
  -29.4929  -12.4858   18.2006 C   0  0  0  0  0  0
  -28.0090  -12.3749   18.6085 C   0  0  0  0  0  0
  -27.6656  -13.1997   19.8774 C   0  0  2  0  0  0
  -28.7048  -12.9464   20.9905 C   0  0  0  0  0  0
  -25.2630  -13.8166   20.5706 C   0  0  0  0  0  0
  -24.1864  -13.0460   20.9168 C   0  0  0  0  0  0
  -24.6376  -11.6907   20.8711 C   0  0  0  0  0  0
  -23.9015  -10.4307   21.0386 C   0  0  0  0  0  0
  -24.3572   -9.4239   21.9175 C   0  0  0  0  0  0
  -23.6277   -8.2262   22.0744 C   0  0  0  0  0  0
  -22.4268   -8.0268   21.3525 C   0  0  0  0  0  0
  -21.9876   -9.0236   20.4635 C   0  0  0  0  0  0
  -22.7182  -10.2132   20.3043 C   0  0  0  0  0  0
  -21.6868   -6.0697   22.5256 C   0  0  0  0  0  0
  -21.4042   -6.5607   23.8186 C   0  0  0  0  0  0
  -21.3672   -5.6766   24.9153 C   0  0  0  0  0  0
  -21.6046   -4.3027   24.7221 C   0  0  0  0  0  0
  -21.8826   -3.8104   23.4352 C   0  0  0  0  0  0
  -21.9213   -4.6919   22.3404 C   0  0  0  0  0  0
  -22.7884  -13.5250   21.1859 C   0  0  0  0  0  0
  -22.1673   -4.2077   21.0987 F   0  0  0  0  0  0
  -21.5625   -3.4541   25.7758 F   0  0  0  0  0  0
  -30.0372  -13.2572   20.4448 N   0  0  0  0  0  0
  -26.3041  -12.9318   20.3359 N   0  0  0  0  0  0
  -25.9292  -11.6476   20.5724 N   0  0  0  0  0  0
  -22.0532  -12.8210   22.0388 N   0  0  0  0  0  0
  -25.4438  -15.1889   20.4174 N   0  0  0  0  0  0
  -31.8370  -14.6148   20.0902 O   0  0  0  0  0  0
  -21.6662   -6.8843   21.4215 O   0  0  0  0  0  0
  -22.3572  -14.5579   20.6731 O   0  0  0  0  0  0
  -24.6139  -31.8697   23.2137 C   0  0  0  0  0  0
  -25.9051  -32.4819   23.8412 C   0  0  1  0  0  0
  -27.2296  -27.4412   20.0826 C   0  0  0  0  0  0
  -25.5933  -33.8621   24.2353 N   0  0  0  0  0  0
  -23.3992  -30.4969   21.5521 C   0  0  2  0  0  0
  -24.8397  -28.9627   20.1160 C   0  0  0  0  0  0
  -22.7408  -29.4680   22.4992 C   0  0  0  0  0  0
  -18.0277  -28.1376   22.8476 C   0  0  0  0  0  0
  -24.1487  -36.7291   23.2637 C   0  0  0  0  0  0
  -25.9306  -30.8296   21.3716 C   0  0  0  0  0  0
  -26.0010  -29.4706   20.7090 C   0  0  0  0  0  0
  -27.1951  -28.7195   20.6842 C   0  0  0  0  0  0
  -26.0409  -26.9371   19.5025 C   0  0  0  0  0  0
  -24.8543  -27.6938   19.5153 C   0  0  0  0  0  0
  -23.6049  -29.8332   20.1641 C   0  0  0  0  0  0
  -25.4107  -36.3115   24.0350 C   0  0  1  0  0  0
  -20.5871  -28.3666   23.1320 C   0  0  2  0  0  0
  -20.6766  -26.9400   22.5421 C   0  0  0  0  0  0
  -19.5759  -26.6386   21.5203 C   0  0  0  0  0  0
  -18.1928  -26.7931   22.1589 C   0  0  0  0  0  0
  -19.1527  -28.8830   23.2897 C   0  0  0  0  0  0
  -18.9462  -30.1432   23.8914 C   0  0  0  0  0  0
  -17.6468  -30.6578   24.0567 C   0  0  0  0  0  0
  -25.9040  -34.9477   23.5143 C   0  0  0  0  0  0
  -16.5355  -29.9083   23.6332 C   0  0  0  0  0  0
  -16.7269  -28.6500   23.0350 C   0  0  0  0  0  0
  -26.4476  -31.6609   25.0751 C   0  0  0  0  0  0
  -25.3746  -31.3747   26.1513 C   0  0  0  0  0  0
  -27.0291  -30.3034   24.6155 C   0  0  0  0  0  0
  -27.6078  -32.4327   25.7479 C   0  0  0  0  0  0
  -27.5592  -37.1796   24.8462 C   0  0  0  0  0  0
  -21.4141  -29.3034   22.3722 N   0  0  0  0  0  0
  -26.4293  -37.3804   23.9422 N   0  0  0  0  0  0
  -24.6653  -31.0816   22.1024 N   0  0  0  0  0  0
  -23.4188  -28.8230   23.3034 O   0  0  0  0  0  0
  -28.4378  -26.7743   20.0579 O   0  0  0  0  0  0
  -26.5590  -34.8933   22.4694 O   0  0  0  0  0  0
  -23.5338  -32.1451   23.7541 O   0  0  0  0  0  0
  -28.0063  -19.9939   22.9968 C   0  0  0  0  0  0
  -30.5844  -19.3510   22.3525 C   0  0  0  0  0  0
  -29.7426  -18.3041   22.7853 C   0  0  0  0  0  0
  -28.4114  -18.6499   23.1529 C   0  0  0  0  0  0
  -28.9233  -20.9570   22.5380 C   0  0  0  0  0  0
  -30.3586  -16.9481   22.8984 C   0  0  0  0  0  0
  -27.4091  -17.6786   23.7641 C   0  0  0  0  0  0
  -28.5580  -22.4372   22.4987 C   0  0  0  0  0  0
  -29.5974  -15.7339   22.3581 C   0  0  0  0  0  0
  -28.6146  -23.0989   21.1042 C   0  0  0  0  0  0
  -28.3059  -24.6124   21.1713 C   0  0  0  0  0  0
  -28.4956  -25.3605   19.8402 C   0  0  0  0  0  0
  -30.1963  -20.6408   22.2298 N   0  0  0  0  0  0
  -30.0301  -15.4863   20.9888 N   0  0  0  0  0  0
  -31.5162  -16.7754   23.2884 O   0  0  0  0  0  0
  -31.4653  -12.3615   19.1160 H   0  0  0  0  0  0
  -30.3094  -11.2618   19.8047 H   0  0  0  0  0  0
  -29.7151  -11.7457   17.4309 H   0  0  0  0  0  0
  -29.6836  -13.4633   17.7513 H   0  0  0  0  0  0
  -27.7904  -11.3201   18.7820 H   0  0  0  0  0  0
  -27.3691  -12.6807   17.7800 H   0  0  0  0  0  0
  -27.7210  -14.2538   19.6011 H   0  0  0  0  0  0
  -28.6773  -11.9019   21.3056 H   0  0  0  0  0  0
  -28.4532  -13.5142   21.8816 H   0  0  0  0  0  0
  -25.2721   -9.5743   22.4729 H   0  0  0  0  0  0
  -23.9997   -7.4669   22.7469 H   0  0  0  0  0  0
  -21.0796   -8.8727   19.8956 H   0  0  0  0  0  0
  -22.3614  -10.9646   19.6133 H   0  0  0  0  0  0
  -21.2049   -7.6119   23.9666 H   0  0  0  0  0  0
  -21.1480   -6.0511   25.9049 H   0  0  0  0  0  0
  -22.0606   -2.7558   23.2888 H   0  0  0  0  0  0
  -22.4139  -11.9839   22.4731 H   0  0  0  0  0  0
  -21.1150  -13.1218   22.2591 H   0  0  0  0  0  0
  -24.6935  -15.8590   20.5515 H   0  0  0  0  0  0
  -26.3061  -15.6184   20.1057 H   0  0  0  0  0  0
  -26.7109  -32.5501   23.1149 H   0  0  0  0  0  0
  -25.0153  -33.9786   25.0544 H   0  0  0  0  0  0
  -22.6889  -31.3149   21.4161 H   0  0  0  0  0  0
  -23.3778  -35.9592   23.3307 H   0  0  0  0  0  0
  -24.3579  -36.8893   22.2050 H   0  0  0  0  0  0
  -23.7201  -37.6485   23.6633 H   0  0  0  0  0  0
  -26.0685  -31.6043   20.6165 H   0  0  0  0  0  0
  -26.8089  -30.8572   22.0055 H   0  0  0  0  0  0
  -28.0970  -29.1176   21.1278 H   0  0  0  0  0  0
  -25.9982  -25.9723   19.0235 H   0  0  0  0  0  0
  -23.9585  -27.2970   19.0585 H   0  0  0  0  0  0
  -23.7174  -30.6129   19.4093 H   0  0  0  0  0  0
  -22.7252  -29.2601   19.8651 H   0  0  0  0  0  0
  -25.1270  -36.1987   25.0844 H   0  0  0  0  0  0
  -20.9957  -28.3224   24.1447 H   0  0  0  0  0  0
  -20.5663  -26.2267   23.3604 H   0  0  0  0  0  0
  -21.6644  -26.7434   22.1229 H   0  0  0  0  0  0
  -19.6941  -25.6308   21.1214 H   0  0  0  0  0  0
  -19.6735  -27.3210   20.6757 H   0  0  0  0  0  0
  -17.4221  -26.6723   21.3965 H   0  0  0  0  0  0
  -18.0305  -26.0039   22.8952 H   0  0  0  0  0  0
  -19.7939  -30.7236   24.2302 H   0  0  0  0  0  0
  -17.5025  -31.6262   24.5164 H   0  0  0  0  0  0
  -15.5361  -30.2990   23.7649 H   0  0  0  0  0  0
  -15.8670  -28.0822   22.7068 H   0  0  0  0  0  0
  -24.5980  -30.6983   25.7924 H   0  0  0  0  0  0
  -24.8837  -32.2894   26.4854 H   0  0  0  0  0  0
  -25.8115  -30.9066   27.0340 H   0  0  0  0  0  0
  -26.2841  -29.6820   24.1162 H   0  0  0  0  0  0
  -27.4002  -29.7255   25.4631 H   0  0  0  0  0  0
  -27.8714  -30.4346   23.9353 H   0  0  0  0  0  0
  -27.2739  -33.3653   26.2033 H   0  0  0  0  0  0
  -28.3875  -32.6836   25.0279 H   0  0  0  0  0  0
  -28.0741  -31.8453   26.5397 H   0  0  0  0  0  0
  -28.2618  -38.0092   24.7530 H   0  0  0  0  0  0
  -28.1091  -36.2630   24.6248 H   0  0  0  0  0  0
  -27.2328  -37.1409   25.8873 H   0  0  0  0  0  0
  -20.9309  -29.8753   21.6932 H   0  0  0  0  0  0
  -26.0197  -38.2889   24.1437 H   0  0  0  0  0  0
  -27.0055  -20.2927   23.2799 H   0  0  0  0  0  0
  -31.6146  -19.1601   22.0915 H   0  0  0  0  0  0
  -26.7315  -18.2063   24.4357 H   0  0  0  0  0  0
  -27.8849  -16.8988   24.3575 H   0  0  0  0  0  0
  -26.7977  -17.2116   22.9913 H   0  0  0  0  0  0
  -29.2384  -22.9562   23.1750 H   0  0  0  0  0  0
  -27.5608  -22.5690   22.9193 H   0  0  0  0  0  0
  -28.5229  -15.8836   22.3383 H   0  0  0  0  0  0
  -29.8011  -14.8826   23.0101 H   0  0  0  0  0  0
  -27.9227  -22.6036   20.4216 H   0  0  0  0  0  0
  -29.6119  -22.9582   20.6848 H   0  0  0  0  0  0
  -28.9649  -25.0696   21.9122 H   0  0  0  0  0  0
  -27.2899  -24.7688   21.5340 H   0  0  0  0  0  0
  -27.8200  -24.9987   19.0669 H   0  0  0  0  0  0
  -29.4951  -25.1490   19.4570 H   0  0  0  0  0  0
  -30.4268  -16.3288   20.5978 H   0  0  0  0  0  0
  1 25  1  0  0  0
  1 30  2  0  0  0
  1 84  1  0  0  0
  2  3  1  0  0  0
  2 25  1  0  0  0
  2 86  1  0  0  0
  2 87  1  0  0  0
  3  4  1  0  0  0
  3 88  1  0  0  0
  3 89  1  0  0  0
  4  5  1  0  0  0
  4 90  1  0  0  0
  4 91  1  0  0  0
  5  6  1  0  0  0
  5 26  1  0  0  0
  5 92  1  0  0  0
  6 25  1  0  0  0
  6 93  1  0  0  0
  6 94  1  0  0  0
  7  8  2  0  0  0
  7 26  1  0  0  0
  7 29  1  0  0  0
  8  9  1  0  0  0
  8 22  1  0  0  0
  9 10  1  0  0  0
  9 27  2  0  0  0
 10 11  2  0  0  0
 10 15  1  0  0  0
 11 12  1  0  0  0
 11 95  1  0  0  0
 12 13  2  0  0  0
 12 96  1  0  0  0
 13 14  1  0  0  0
 13 31  1  0  0  0
 14 15  2  0  0  0
 14 97  1  0  0  0
 15 98  1  0  0  0
 16 17  2  0  0  0
 16 21  1  0  0  0
 16 31  1  0  0  0
 17 18  1  0  0  0
 17 99  1  0  0  0
 18 19  2  0  0  0
 18100  1  0  0  0
 19 20  1  0  0  0
 19 24  1  0  0  0
 20 21  2  0  0  0
 20101  1  0  0  0
 21 23  1  0  0  0
 22 28  1  0  0  0
 22 32  2  0  0  0
 26 27  1  0  0  0
 28102  1  0  0  0
 28103  1  0  0  0
 29104  1  0  0  0
 29105  1  0  0  0
 33 34  1  0  0  0
 33 66  1  0  0  0
 33 70  2  0  0  0
 34 36  1  0  0  0
 34 59  1  0  0  0
 34106  1  0  0  0
 35 44  2  0  0  0
 35 45  1  0  0  0
 35 68  1  0  0  0
 36 56  1  0  0  0
 36107  1  0  0  0
 37 39  1  0  0  0
 37 47  1  0  0  0
 37 66  1  0  0  0
 37108  1  0  0  0
 38 43  2  0  0  0
 38 46  1  0  0  0
 38 47  1  0  0  0
 39 64  1  0  0  0
 39 67  2  0  0  0
 40 52  1  0  0  0
 40 53  2  0  0  0
 40 58  1  0  0  0
 41109  1  0  0  0
 41110  1  0  0  0
 41111  1  0  0  0
 41 48  1  0  0  0
 42 43  1  0  0  0
 42 66  1  0  0  0
 42112  1  0  0  0
 42113  1  0  0  0
 43 44  1  0  0  0
 44114  1  0  0  0
 45 46  2  0  0  0
 45115  1  0  0  0
 46116  1  0  0  0
 47117  1  0  0  0
 47118  1  0  0  0
 48 56  1  0  0  0
 48 65  1  0  0  0
 48119  1  0  0  0
 49 50  1  0  0  0
 49 53  1  0  0  0
 49 64  1  0  0  0
 49120  1  0  0  0
 50 51  1  0  0  0
 50121  1  0  0  0
 50122  1  0  0  0
 51 52  1  0  0  0
 51123  1  0  0  0
 51124  1  0  0  0
 52125  1  0  0  0
 52126  1  0  0  0
 53 54  1  0  0  0
 54 55  2  0  0  0
 54127  1  0  0  0
 55 57  1  0  0  0
 55128  1  0  0  0
 56 69  2  0  0  0
 57 58  2  0  0  0
 57129  1  0  0  0
 58130  1  0  0  0
 59 60  1  0  0  0
 59 61  1  0  0  0
 59 62  1  0  0  0
 60131  1  0  0  0
 60132  1  0  0  0
 60133  1  0  0  0
 61134  1  0  0  0
 61135  1  0  0  0
 61136  1  0  0  0
 62137  1  0  0  0
 62138  1  0  0  0
 62139  1  0  0  0
 63 65  1  0  0  0
 63140  1  0  0  0
 63141  1  0  0  0
 63142  1  0  0  0
 64143  1  0  0  0
 65144  1  0  0  0
 68 82  1  0  0  0
 71 74  2  0  0  0
 71 75  1  0  0  0
 71145  1  0  0  0
 72 73  2  0  0  0
 72 83  1  0  0  0
 72146  1  0  0  0
 73 74  1  0  0  0
 73 76  1  0  0  0
 74 77  1  0  0  0
 75 78  1  0  0  0
 75 83  2  0  0  0
 76 79  1  0  0  0
 76 85  2  0  0  0
 77147  1  0  0  0
 77148  1  0  0  0
 77149  1  0  0  0
 78 80  1  0  0  0
 78150  1  0  0  0
 78151  1  0  0  0
 79 84  1  0  0  0
 79152  1  0  0  0
 79153  1  0  0  0
 80 81  1  0  0  0
 80154  1  0  0  0
 80155  1  0  0  0
 81 82  1  0  0  0
 81156  1  0  0  0
 81157  1  0  0  0
 82158  1  0  0  0
 82159  1  0  0  0
 84160  1  0  0  0
M  ISO  4   1 100  68 101  82 101  84 100
M  END
> <chiral flag>
0

> <version>
0

> <s_m_source_file>
/data/baiqing/PycharmProjects/Reinvent-master-3.2/result/LINK_invent/BTK/process_docking_weight1_custom_sum_contain_oxygen_bond_distance_aromatic_linkinvent_7_9_3/rearranged_h_0109.sdf

> <i_m_source_file_index>
91

> <r_mmod_Potential_Energy-OPLS-2005>
-205.639495849609

> <r_mmod_Stretch_Energy-OPLS-2005>
34.915943145752

> <r_mmod_Bend_Energy-OPLS-2005>
117.689529418945

> <r_mmod_Torsional_Energy-OPLS-2005>
272.899597167969

> <r_mmod_Improper_Torsional_Energy-OPLS-2005>
15.0851821899414

> <r_mmod_Van_der_Waal_Energy-OPLS-2005>
155.80744934082

> <r_mmod_Electrostatic_Energy-OPLS-2005>
-581.282104492188

> <r_mmod_Solvation_Energy-OPLS-2005>
-231.449645996094

> <b_mmod_Minimization_Converged-OPLS-2005>
0

> <r_mmod_RMS_Derivative-OPLS-2005>
2.75328397750854

$$$$
91
                    3D
 Structure written by MMmdl.
163171  0  0  1  0            999 V2000
  -30.6358  -14.8138   20.4294 C   0  0  0  0  0  0
  -30.4213  -12.4987   19.4873 C   0  0  0  0  0  0
  -29.5123  -12.5009   18.2414 C   0  0  0  0  0  0
  -28.0350  -12.3295   18.6470 C   0  0  0  0  0  0
  -27.6301  -13.2451   19.8345 C   0  0  2  0  0  0
  -28.6758  -13.2355   20.9683 C   0  0  0  0  0  0
  -25.2455  -13.8208   20.5713 C   0  0  0  0  0  0
  -24.1776  -13.0437   20.9226 C   0  0  0  0  0  0
  -24.6388  -11.6921   20.8738 C   0  0  0  0  0  0
  -23.9073  -10.4293   21.0385 C   0  0  0  0  0  0
  -24.3641   -9.4213   21.9156 C   0  0  0  0  0  0
  -23.6332   -8.2243   22.0724 C   0  0  0  0  0  0
  -22.4310   -8.0285   21.3537 C   0  0  0  0  0  0
  -21.9909   -9.0257   20.4653 C   0  0  0  0  0  0
  -22.7227  -10.2142   20.3061 C   0  0  0  0  0  0
  -21.6860   -6.0737   22.5274 C   0  0  0  0  0  0
  -21.3997   -6.5640   23.8211 C   0  0  0  0  0  0
  -21.3667   -5.6803   24.9175 C   0  0  0  0  0  0
  -21.6057   -4.3058   24.7216 C   0  0  0  0  0  0
  -21.8824   -3.8142   23.4332 C   0  0  0  0  0  0
  -21.9187   -4.6962   22.3390 C   0  0  0  0  0  0
  -22.7808  -13.5223   21.1890 C   0  0  0  0  0  0
  -22.1673   -4.2155   21.0965 F   0  0  0  0  0  0
  -21.5643   -3.4542   25.7726 F   0  0  0  0  0  0
  -29.9597  -13.6063   20.3641 N   0  0  0  0  0  0
  -26.2883  -12.9432   20.3207 N   0  0  0  0  0  0
  -25.9310  -11.6563   20.5692 N   0  0  0  0  0  0
  -22.0462  -12.8230   22.0474 N   0  0  0  0  0  0
  -25.4115  -15.1929   20.4177 N   0  0  0  0  0  0
  -31.8442  -14.7915   20.1785 O   0  0  0  0  0  0
  -21.6649   -6.8881   21.4243 O   0  0  0  0  0  0
  -22.3471  -14.5521   20.6731 O   0  0  0  0  0  0
  -24.6346  -31.8531   23.2013 C   0  0  0  0  0  0
  -25.9161  -32.4731   23.8348 C   0  0  1  0  0  0
  -27.1896  -27.2040   20.1457 C   0  0  0  0  0  0
  -25.5953  -33.8549   24.2244 N   0  0  0  0  0  0
  -23.4326  -30.4817   21.5417 C   0  0  2  0  0  0
  -24.8771  -28.9295   20.1002 C   0  0  0  0  0  0
  -22.7516  -29.4594   22.4861 C   0  0  0  0  0  0
  -18.0301  -28.1388   22.8478 C   0  0  0  0  0  0
  -24.1498  -36.7281   23.2639 C   0  0  0  0  0  0
  -25.9860  -30.7410   21.4010 C   0  0  0  0  0  0
  -26.0490  -29.3667   20.7314 C   0  0  0  0  0  0
  -27.2071  -28.5167   20.7450 C   0  0  0  0  0  0
  -26.0069  -26.8674   19.4484 C   0  0  0  0  0  0
  -24.8662  -27.6926   19.4431 C   0  0  0  0  0  0
  -23.6549  -29.8291   20.1524 C   0  0  0  0  0  0
  -25.4121  -36.3057   24.0322 C   0  0  1  0  0  0
  -20.5903  -28.3710   23.1243 C   0  0  2  0  0  0
  -20.6777  -26.9416   22.5415 C   0  0  0  0  0  0
  -19.5764  -26.6378   21.5211 C   0  0  0  0  0  0
  -18.1939  -26.7937   22.1607 C   0  0  0  0  0  0
  -19.1554  -28.8867   23.2853 C   0  0  0  0  0  0
  -18.9473  -30.1455   23.8885 C   0  0  0  0  0  0
  -17.6463  -30.6584   24.0565 C   0  0  0  0  0  0
  -25.9070  -34.9426   23.5078 C   0  0  0  0  0  0
  -16.5358  -29.9080   23.6332 C   0  0  0  0  0  0
  -16.7280  -28.6500   23.0355 C   0  0  0  0  0  0
  -26.4513  -31.6618   25.0791 C   0  0  0  0  0  0
  -25.3731  -31.3915   26.1552 C   0  0  0  0  0  0
  -27.0305  -30.2958   24.6438 C   0  0  0  0  0  0
  -27.6090  -32.4383   25.7479 C   0  0  0  0  0  0
  -27.5589  -37.1778   24.8449 C   0  0  0  0  0  0
  -21.4225  -29.3043   22.3619 N   0  0  0  0  0  0
  -26.4291  -37.3755   23.9412 N   0  0  0  0  0  0
  -24.7018  -31.0469   22.1011 N   0  0  0  0  0  0
  -23.4209  -28.8115   23.2954 O   0  0  0  0  0  0
  -28.2337  -26.2410   20.2587 O   0  0  0  0  0  0
  -26.5638  -34.8904   22.4652 O   0  0  0  0  0  0
  -23.5477  -32.1382   23.7272 O   0  0  0  0  0  0
  -28.8762  -16.6679   21.0894 C   0  0  0  0  0  0
  -30.3977  -17.0694   19.2643 C   0  0  0  0  0  0
  -28.9083  -18.2468   21.4196 C   0  0  0  0  0  0
  -30.5352  -18.5896   19.7047 C   0  0  0  0  0  0
  -29.6534  -24.1398   23.0529 C   0  0  0  0  0  0
  -29.5267  -20.7190   20.7782 C   0  0  0  0  0  0
  -27.9481  -24.7534   20.0338 C   0  0  0  0  0  0
  -28.7386  -23.5252   20.7896 C   0  0  2  0  0  0
  -28.4665  -21.9259   20.3989 C   0  0  2  0  0  0
  -29.9663  -16.0523   20.2763 N   0  0  0  0  0  0
  -29.3307  -19.2215   20.3435 N   0  3  0  0  0  0
  -28.4914  -23.7307   22.2406 N   0  3  0  0  0  0
  -27.1832  -21.5645   20.9056 O   0  0  0  0  0  0
  -31.4654  -12.6052   19.1866 H   0  0  0  0  0  0
  -30.3628  -11.5420   20.0096 H   0  0  0  0  0  0
  -29.8115  -11.7098   17.5528 H   0  0  0  0  0  0
  -29.6369  -13.4399   17.7022 H   0  0  0  0  0  0
  -27.8863  -11.2837   18.9172 H   0  0  0  0  0  0
  -27.3857  -12.5156   17.7897 H   0  0  0  0  0  0
  -27.6053  -14.2568   19.4290 H   0  0  0  0  0  0
  -28.7355  -12.2530   21.4394 H   0  0  0  0  0  0
  -28.3978  -13.9333   21.7559 H   0  0  0  0  0  0
  -25.2796   -9.5718   22.4709 H   0  0  0  0  0  0
  -24.0070   -7.4630   22.7437 H   0  0  0  0  0  0
  -21.0815   -8.8789   19.8997 H   0  0  0  0  0  0
  -22.3655  -10.9695   19.6199 H   0  0  0  0  0  0
  -21.1980   -7.6150   23.9715 H   0  0  0  0  0  0
  -21.1500   -6.0518   25.9091 H   0  0  0  0  0  0
  -22.0591   -2.7602   23.2806 H   0  0  0  0  0  0
  -22.4116  -11.9936   22.4904 H   0  0  0  0  0  0
  -21.1098  -13.1264   22.2713 H   0  0  0  0  0  0
  -24.6424  -15.8426   20.5363 H   0  0  0  0  0  0
  -26.2533  -15.6310   20.0686 H   0  0  0  0  0  0
  -26.7217  -32.5330   23.1068 H   0  0  0  0  0  0
  -25.0097  -33.9685   25.0386 H   0  0  0  0  0  0
  -22.7289  -31.3061   21.4024 H   0  0  0  0  0  0
  -23.3745  -35.9632   23.3319 H   0  0  0  0  0  0
  -24.3580  -36.8884   22.2049 H   0  0  0  0  0  0
  -23.7271  -37.6501   23.6647 H   0  0  0  0  0  0
  -26.1624  -31.5083   20.6460 H   0  0  0  0  0  0
  -26.8470  -30.7620   22.0576 H   0  0  0  0  0  0
  -28.0922  -28.8393   21.2750 H   0  0  0  0  0  0
  -25.9219  -25.9364   18.9086 H   0  0  0  0  0  0
  -23.9776  -27.3650   18.9204 H   0  0  0  0  0  0
  -23.7934  -30.6163   19.4105 H   0  0  0  0  0  0
  -22.7675  -29.2803   19.8327 H   0  0  0  0  0  0
  -25.1309  -36.1899   25.0811 H   0  0  0  0  0  0
  -20.9996  -28.3301   24.1365 H   0  0  0  0  0  0
  -20.5650  -26.2330   23.3634 H   0  0  0  0  0  0
  -21.6647  -26.7417   22.1230 H   0  0  0  0  0  0
  -19.6929  -25.6287   21.1254 H   0  0  0  0  0  0
  -19.6719  -27.3173   20.6730 H   0  0  0  0  0  0
  -17.4222  -26.6685   21.3992 H   0  0  0  0  0  0
  -18.0322  -26.0074   22.8992 H   0  0  0  0  0  0
  -19.7945  -30.7268   24.2248 H   0  0  0  0  0  0
  -17.5027  -31.6261   24.5173 H   0  0  0  0  0  0
  -15.5356  -30.2974   23.7682 H   0  0  0  0  0  0
  -15.8676  -28.0817   22.7070 H   0  0  0  0  0  0
  -24.5730  -30.7468   25.7914 H   0  0  0  0  0  0
  -24.9165  -32.3179   26.5055 H   0  0  0  0  0  0
  -25.8008  -30.8982   27.0293 H   0  0  0  0  0  0
  -26.2911  -29.6725   24.1404 H   0  0  0  0  0  0
  -27.3759  -29.7261   25.5082 H   0  0  0  0  0  0
  -27.8923  -30.4098   23.9856 H   0  0  0  0  0  0
  -27.2674  -33.3598   26.2206 H   0  0  0  0  0  0
  -28.3760  -32.7120   25.0220 H   0  0  0  0  0  0
  -28.0951  -31.8480   26.5259 H   0  0  0  0  0  0
  -28.2648  -38.0031   24.7434 H   0  0  0  0  0  0
  -28.1032  -36.2570   24.6309 H   0  0  0  0  0  0
  -27.2331  -37.1489   25.8859 H   0  0  0  0  0  0
  -20.9406  -29.8781   21.6843 H   0  0  0  0  0  0
  -26.0177  -38.2835   24.1409 H   0  0  0  0  0  0
  -27.9458  -16.4613   20.5610 H   0  0  0  0  0  0
  -28.8094  -16.1333   22.0364 H   0  0  0  0  0  0
  -31.3441  -16.7731   18.8078 H   0  0  0  0  0  0
  -29.6762  -17.0192   18.4455 H   0  0  0  0  0  0
  -29.5698  -18.3927   22.2734 H   0  0  0  0  0  0
  -27.9194  -18.5454   21.7675 H   0  0  0  0  0  0
  -30.8053  -19.1784   18.8270 H   0  0  0  0  0  0
  -31.3831  -18.6735   20.3861 H   0  0  0  0  0  0
  -29.3396  -24.3060   24.0844 H   0  0  0  0  0  0
  -30.0884  -25.0696   22.6844 H   0  0  0  0  0  0
  -30.4247  -23.3702   23.0560 H   0  0  0  0  0  0
  -29.7180  -20.7378   21.8506 H   0  0  0  0  0  0
  -30.4753  -21.0416   20.3477 H   0  0  0  0  0  0
  -26.8991  -24.5737   20.2720 H   0  0  0  0  0  0
  -28.0314  -24.5867   18.9600 H   0  0  0  0  0  0
  -29.7963  -23.6978   20.5879 H   0  0  0  0  0  0
  -28.3855  -21.8946   19.3127 H   0  0  0  0  0  0
  -28.6078  -19.2301   19.6411 H   0  0  0  0  0  0
  -27.8041  -24.4642   22.3253 H   0  0  0  0  0  0
  -28.0686  -22.9124   22.6458 H   0  0  0  0  0  0
  -27.2617  -21.1592   21.7647 H   0  0  0  0  0  0
  1 25  1  0  0  0
  1 30  2  0  0  0
  1 80  1  0  0  0
  2  3  1  0  0  0
  2 25  1  0  0  0
  2 84  1  0  0  0
  2 85  1  0  0  0
  3  4  1  0  0  0
  3 86  1  0  0  0
  3 87  1  0  0  0
  4  5  1  0  0  0
  4 88  1  0  0  0
  4 89  1  0  0  0
  5  6  1  0  0  0
  5 26  1  0  0  0
  5 90  1  0  0  0
  6 25  1  0  0  0
  6 91  1  0  0  0
  6 92  1  0  0  0
  7  8  2  0  0  0
  7 26  1  0  0  0
  7 29  1  0  0  0
  8  9  1  0  0  0
  8 22  1  0  0  0
  9 10  1  0  0  0
  9 27  2  0  0  0
 10 11  2  0  0  0
 10 15  1  0  0  0
 11 12  1  0  0  0
 11 93  1  0  0  0
 12 13  2  0  0  0
 12 94  1  0  0  0
 13 14  1  0  0  0
 13 31  1  0  0  0
 14 15  2  0  0  0
 14 95  1  0  0  0
 15 96  1  0  0  0
 16 17  2  0  0  0
 16 21  1  0  0  0
 16 31  1  0  0  0
 17 18  1  0  0  0
 17 97  1  0  0  0
 18 19  2  0  0  0
 18 98  1  0  0  0
 19 20  1  0  0  0
 19 24  1  0  0  0
 20 21  2  0  0  0
 20 99  1  0  0  0
 21 23  1  0  0  0
 22 28  1  0  0  0
 22 32  2  0  0  0
 26 27  1  0  0  0
 28100  1  0  0  0
 28101  1  0  0  0
 29102  1  0  0  0
 29103  1  0  0  0
 33 34  1  0  0  0
 33 66  1  0  0  0
 33 70  2  0  0  0
 34 36  1  0  0  0
 34 59  1  0  0  0
 34104  1  0  0  0
 35 44  2  0  0  0
 35 45  1  0  0  0
 35 68  1  0  0  0
 36 56  1  0  0  0
 36105  1  0  0  0
 37 39  1  0  0  0
 37 47  1  0  0  0
 37 66  1  0  0  0
 37106  1  0  0  0
 38 43  2  0  0  0
 38 46  1  0  0  0
 38 47  1  0  0  0
 39 64  1  0  0  0
 39 67  2  0  0  0
 40 52  1  0  0  0
 40 53  2  0  0  0
 40 58  1  0  0  0
 41107  1  0  0  0
 41108  1  0  0  0
 41109  1  0  0  0
 41 48  1  0  0  0
 42 43  1  0  0  0
 42 66  1  0  0  0
 42110  1  0  0  0
 42111  1  0  0  0
 43 44  1  0  0  0
 44112  1  0  0  0
 45 46  2  0  0  0
 45113  1  0  0  0
 46114  1  0  0  0
 47115  1  0  0  0
 47116  1  0  0  0
 48 56  1  0  0  0
 48 65  1  0  0  0
 48117  1  0  0  0
 49 50  1  0  0  0
 49 53  1  0  0  0
 49 64  1  0  0  0
 49118  1  0  0  0
 50 51  1  0  0  0
 50119  1  0  0  0
 50120  1  0  0  0
 51 52  1  0  0  0
 51121  1  0  0  0
 51122  1  0  0  0
 52123  1  0  0  0
 52124  1  0  0  0
 53 54  1  0  0  0
 54 55  2  0  0  0
 54125  1  0  0  0
 55 57  1  0  0  0
 55126  1  0  0  0
 56 69  2  0  0  0
 57 58  2  0  0  0
 57127  1  0  0  0
 58128  1  0  0  0
 59 60  1  0  0  0
 59 61  1  0  0  0
 59 62  1  0  0  0
 60129  1  0  0  0
 60130  1  0  0  0
 60131  1  0  0  0
 61132  1  0  0  0
 61133  1  0  0  0
 61134  1  0  0  0
 62135  1  0  0  0
 62136  1  0  0  0
 62137  1  0  0  0
 63 65  1  0  0  0
 63138  1  0  0  0
 63139  1  0  0  0
 63140  1  0  0  0
 64141  1  0  0  0
 65142  1  0  0  0
 68 77  1  0  0  0
 71 73  1  0  0  0
 71 80  1  0  0  0
 71143  1  0  0  0
 71144  1  0  0  0
 72 74  1  0  0  0
 72 80  1  0  0  0
 72145  1  0  0  0
 72146  1  0  0  0
 73 81  1  0  0  0
 73147  1  0  0  0
 73148  1  0  0  0
 74 81  1  0  0  0
 74149  1  0  0  0
 74150  1  0  0  0
 75 82  1  0  0  0
 75151  1  0  0  0
 75152  1  0  0  0
 75153  1  0  0  0
 76 79  1  0  0  0
 76154  1  0  0  0
 76155  1  0  0  0
 76 81  1  0  0  0
 77156  1  0  0  0
 77157  1  0  0  0
 77 78  1  0  0  0
 78 79  1  0  0  0
 78 82  1  0  0  0
 78158  1  0  0  0
 79 83  1  0  0  0
 79159  1  0  0  0
 81160  1  0  0  0
 82161  1  0  0  0
 82162  1  0  0  0
 83163  1  0  0  0
M  CHG  2  81   1  82   1
M  ISO  4   1 100  68 101  77 101  80 100
M  END
> <chiral flag>
0

> <version>
0

> <s_m_source_file>
/data/baiqing/PycharmProjects/Reinvent-master-3.2/result/LINK_invent/BTK/process_docking_weight1_custom_sum_contain_oxygen_bond_distance_aromatic_linkinvent_7_9_3/rearranged_h_0109.sdf

> <i_m_source_file_index>
92

> <r_mmod_Potential_Energy-OPLS-2005>
248.112747192383

> <r_mmod_Stretch_Energy-OPLS-2005>
173.981033325195

> <r_mmod_Bend_Energy-OPLS-2005>
227.733291625977

> <r_mmod_Torsional_Energy-OPLS-2005>
425.618286132812

> <r_mmod_Improper_Torsional_Energy-OPLS-2005>
15.8200073242188

> <r_mmod_Van_der_Waal_Energy-OPLS-2005>
122.00301361084

> <r_mmod_Electrostatic_Energy-OPLS-2005>
114.046104431152

> <r_mmod_Solvation_Energy-OPLS-2005>
-961.905517578125

> <b_mmod_Minimization_Converged-OPLS-2005>
0

> <r_mmod_RMS_Derivative-OPLS-2005>
3.59219813346863

$$$$
92
                    3D
 Structure written by MMmdl.
164172  0  0  1  0            999 V2000
  -30.6682  -14.5257   20.4958 C   0  0  0  0  0  0
  -30.4215  -12.3133   19.4484 C   0  0  0  0  0  0
  -29.5006  -12.4816   18.2200 C   0  0  0  0  0  0
  -28.0214  -12.3412   18.6294 C   0  0  0  0  0  0
  -27.6561  -13.2040   19.8670 C   0  0  2  0  0  0
  -28.6969  -13.0345   20.9991 C   0  0  0  0  0  0
  -25.2578  -13.8125   20.5657 C   0  0  0  0  0  0
  -24.1844  -13.0425   20.9210 C   0  0  0  0  0  0
  -24.6385  -11.6887   20.8763 C   0  0  0  0  0  0
  -23.9050  -10.4282   21.0424 C   0  0  0  0  0  0
  -24.3605   -9.4193   21.9192 C   0  0  0  0  0  0
  -23.6284   -8.2230   22.0757 C   0  0  0  0  0  0
  -22.4265   -8.0274   21.3548 C   0  0  0  0  0  0
  -21.9906   -9.0249   20.4647 C   0  0  0  0  0  0
  -22.7231  -10.2128   20.3063 C   0  0  0  0  0  0
  -21.6847   -6.0726   22.5273 C   0  0  0  0  0  0
  -21.4007   -6.5631   23.8207 C   0  0  0  0  0  0
  -21.3661   -5.6788   24.9172 C   0  0  0  0  0  0
  -21.6046   -4.3052   24.7225 C   0  0  0  0  0  0
  -21.8822   -3.8141   23.4344 C   0  0  0  0  0  0
  -21.9191   -4.6956   22.3398 C   0  0  0  0  0  0
  -22.7871  -13.5238   21.1854 C   0  0  0  0  0  0
  -22.1661   -4.2140   21.0977 F   0  0  0  0  0  0
  -21.5636   -3.4535   25.7739 F   0  0  0  0  0  0
  -30.0255  -13.3264   20.4417 N   0  0  0  0  0  0
  -26.2994  -12.9288   20.3323 N   0  0  0  0  0  0
  -25.9302  -11.6459   20.5771 N   0  0  0  0  0  0
  -22.0498  -12.8237   22.0397 N   0  0  0  0  0  0
  -25.4319  -15.1820   20.3891 N   0  0  0  0  0  0
  -31.8289  -14.6693   20.1028 O   0  0  0  0  0  0
  -21.6636   -6.8866   21.4234 O   0  0  0  0  0  0
  -22.3586  -14.5558   20.6694 O   0  0  0  0  0  0
  -24.6167  -31.8657   23.2073 C   0  0  0  0  0  0
  -25.9055  -32.4813   23.8368 C   0  0  1  0  0  0
  -27.2297  -27.3993   20.0984 C   0  0  0  0  0  0
  -25.5911  -33.8610   24.2313 N   0  0  0  0  0  0
  -23.4043  -30.4903   21.5484 C   0  0  2  0  0  0
  -24.8491  -28.9532   20.1111 C   0  0  0  0  0  0
  -22.7416  -29.4646   22.4970 C   0  0  0  0  0  0
  -18.0265  -28.1356   22.8472 C   0  0  0  0  0  0
  -24.1499  -36.7302   23.2641 C   0  0  0  0  0  0
  -25.9363  -30.8221   21.3640 C   0  0  0  0  0  0
  -26.0113  -29.4543   20.7095 C   0  0  0  0  0  0
  -27.1995  -28.6836   20.7004 C   0  0  0  0  0  0
  -26.0472  -26.9285   19.4808 C   0  0  0  0  0  0
  -24.8642  -27.6911   19.4945 C   0  0  0  0  0  0
  -23.6130  -29.8238   20.1628 C   0  0  0  0  0  0
  -25.4117  -36.3105   24.0338 C   0  0  1  0  0  0
  -20.5856  -28.3655   23.1294 C   0  0  2  0  0  0
  -20.6771  -26.9392   22.5400 C   0  0  0  0  0  0
  -19.5755  -26.6375   21.5191 C   0  0  0  0  0  0
  -18.1928  -26.7906   22.1600 C   0  0  0  0  0  0
  -19.1513  -28.8817   23.2885 C   0  0  0  0  0  0
  -18.9455  -30.1419   23.8894 C   0  0  0  0  0  0
  -17.6470  -30.6571   24.0551 C   0  0  0  0  0  0
  -25.9044  -34.9475   23.5120 C   0  0  0  0  0  0
  -16.5351  -29.9078   23.6324 C   0  0  0  0  0  0
  -16.7258  -28.6489   23.0338 C   0  0  0  0  0  0
  -26.4480  -31.6590   25.0694 C   0  0  0  0  0  0
  -25.3752  -31.3688   26.1448 C   0  0  0  0  0  0
  -27.0330  -30.3047   24.6047 C   0  0  0  0  0  0
  -27.6042  -32.4319   25.7469 C   0  0  0  0  0  0
  -27.5590  -37.1807   24.8471 C   0  0  0  0  0  0
  -21.4140  -29.3031   22.3715 N   0  0  0  0  0  0
  -26.4309  -37.3785   23.9404 N   0  0  0  0  0  0
  -24.6704  -31.0747   22.0975 N   0  0  0  0  0  0
  -23.4177  -28.8190   23.3021 O   0  0  0  0  0  0
  -28.4070  -26.6653   20.1486 O   0  0  0  0  0  0
  -26.5610  -34.8930   22.4685 O   0  0  0  0  0  0
  -23.5360  -32.1421   23.7475 O   0  0  0  0  0  0
  -30.4166  -18.6310   21.8732 C   0  0  0  0  0  0
  -29.9992  -19.8971   22.1706 C   0  0  0  0  0  0
  -29.7413  -18.1892   20.7003 C   0  0  0  0  0  0
  -28.8823  -19.2171   20.3450 C   0  0  0  0  0  0
  -26.6771  -24.0879   21.0512 C   0  0  0  0  0  0
  -30.0132  -16.8705   19.9641 C   0  0  0  0  0  0
  -27.8864  -19.2865   19.2181 C   0  0  0  0  0  0
  -28.3109  -21.5711   21.3175 C   0  0  0  0  0  0
  -28.4892  -25.2862   19.7014 C   0  0  0  0  0  0
  -28.1919  -24.1756   20.7739 C   0  0  2  0  0  0
  -28.8043  -22.7608   20.4200 C   0  0  1  0  0  0
  -29.0471  -20.2843   21.2430 N   0  0  0  0  0  0
  -29.8742  -15.6000   20.7126 N   0  0  0  0  0  0
  -26.5573  -18.8348   19.6532 N   0  3  0  0  0  0
  -30.2177  -22.8314   20.5214 O   0  0  0  0  0  0
  -31.4683  -12.4025   19.1525 H   0  0  0  0  0  0
  -30.3159  -11.3130   19.8712 H   0  0  0  0  0  0
  -29.7472  -11.7363   17.4619 H   0  0  0  0  0  0
  -29.6673  -13.4555   17.7564 H   0  0  0  0  0  0
  -27.8424  -11.2877   18.8485 H   0  0  0  0  0  0
  -27.3710  -12.5885   17.7895 H   0  0  0  0  0  0
  -27.6868  -14.2419   19.5365 H   0  0  0  0  0  0
  -28.6748  -12.0164   21.3902 H   0  0  0  0  0  0
  -28.4618  -13.6834   21.8441 H   0  0  0  0  0  0
  -25.2746   -9.5668   22.4771 H   0  0  0  0  0  0
  -23.9990   -7.4620   22.7477 H   0  0  0  0  0  0
  -21.0842   -8.8760   19.8947 H   0  0  0  0  0  0
  -22.3688  -10.9669   19.6181 H   0  0  0  0  0  0
  -21.1991   -7.6141   23.9706 H   0  0  0  0  0  0
  -21.1487   -6.0520   25.9076 H   0  0  0  0  0  0
  -22.0600   -2.7600   23.2847 H   0  0  0  0  0  0
  -22.4112  -11.9884   22.4757 H   0  0  0  0  0  0
  -21.1122  -13.1271   22.2608 H   0  0  0  0  0  0
  -24.6060  -15.7695   20.3518 H   0  0  0  0  0  0
  -26.1833  -15.4999   19.7939 H   0  0  0  0  0  0
  -26.7125  -32.5528   23.1130 H   0  0  0  0  0  0
  -25.0075  -33.9759   25.0470 H   0  0  0  0  0  0
  -22.6936  -31.3072   21.4105 H   0  0  0  0  0  0
  -23.3769  -35.9632   23.3316 H   0  0  0  0  0  0
  -24.3589  -36.8899   22.2052 H   0  0  0  0  0  0
  -23.7252  -37.6508   23.6652 H   0  0  0  0  0  0
  -26.0530  -31.5889   20.5964 H   0  0  0  0  0  0
  -26.8227  -30.8739   21.9853 H   0  0  0  0  0  0
  -28.0952  -29.0644   21.1715 H   0  0  0  0  0  0
  -26.0046  -25.9639   19.0009 H   0  0  0  0  0  0
  -23.9684  -27.2981   19.0327 H   0  0  0  0  0  0
  -23.7247  -30.5985   19.4041 H   0  0  0  0  0  0
  -22.7349  -29.2477   19.8666 H   0  0  0  0  0  0
  -25.1305  -36.1975   25.0835 H   0  0  0  0  0  0
  -20.9935  -28.3234   24.1417 H   0  0  0  0  0  0
  -20.5681  -26.2257   23.3584 H   0  0  0  0  0  0
  -21.6642  -26.7453   22.1183 H   0  0  0  0  0  0
  -19.6937  -25.6294   21.1199 H   0  0  0  0  0  0
  -19.6701  -27.3196   20.6733 H   0  0  0  0  0  0
  -17.4200  -26.6626   21.4003 H   0  0  0  0  0  0
  -18.0350  -26.0037   22.8988 H   0  0  0  0  0  0
  -19.7945  -30.7210   24.2276 H   0  0  0  0  0  0
  -17.5041  -31.6257   24.5152 H   0  0  0  0  0  0
  -15.5357  -30.2990   23.7661 H   0  0  0  0  0  0
  -15.8650  -28.0829   22.7056 H   0  0  0  0  0  0
  -24.5911  -30.7044   25.7787 H   0  0  0  0  0  0
  -24.8959  -32.2848   26.4916 H   0  0  0  0  0  0
  -25.8112  -30.8842   27.0192 H   0  0  0  0  0  0
  -26.2870  -29.6784   24.1133 H   0  0  0  0  0  0
  -27.4174  -29.7288   25.4474 H   0  0  0  0  0  0
  -27.8668  -30.4389   23.9150 H   0  0  0  0  0  0
  -27.2631  -33.3606   26.2058 H   0  0  0  0  0  0
  -28.3845  -32.6893   25.0293 H   0  0  0  0  0  0
  -28.0715  -31.8435   26.5376 H   0  0  0  0  0  0
  -28.2613  -38.0102   24.7518 H   0  0  0  0  0  0
  -28.1082  -36.2631   24.6315 H   0  0  0  0  0  0
  -27.2292  -37.1458   25.8869 H   0  0  0  0  0  0
  -20.9311  -29.8762   21.6944 H   0  0  0  0  0  0
  -26.0209  -38.2870   24.1390 H   0  0  0  0  0  0
  -31.1622  -18.0805   22.4302 H   0  0  0  0  0  0
  -30.2874  -20.5586   22.9781 H   0  0  0  0  0  0
  -26.2741  -25.0490   21.3636 H   0  0  0  0  0  0
  -26.4443  -23.3997   21.8617 H   0  0  0  0  0  0
  -26.1273  -23.7626   20.1675 H   0  0  0  0  0  0
  -31.0216  -16.9632   19.5565 H   0  0  0  0  0  0
  -29.3629  -16.8011   19.0923 H   0  0  0  0  0  0
  -28.2164  -18.6674   18.3841 H   0  0  0  0  0  0
  -27.8151  -20.2980   18.8201 H   0  0  0  0  0  0
  -27.2613  -21.3701   21.1082 H   0  0  0  0  0  0
  -28.3343  -21.8928   22.3603 H   0  0  0  0  0  0
  -27.9331  -25.1121   18.7805 H   0  0  0  0  0  0
  -29.5292  -25.1735   19.3954 H   0  0  0  0  0  0
  -28.6587  -24.4960   21.7061 H   0  0  0  0  0  0
  -28.5607  -22.5219   19.3835 H   0  0  0  0  0  0
  -28.9572  -15.3978   21.0798 H   0  0  0  0  0  0
  -26.6155  -17.9133   20.0432 H   0  0  0  0  0  0
  -25.9255  -18.8214   18.8727 H   0  0  0  0  0  0
  -26.1848  -19.4481   20.3540 H   0  0  0  0  0  0
  -30.5490  -21.9395   20.4482 H   0  0  0  0  0  0
  1 25  1  0  0  0
  1 30  2  0  0  0
  1 83  1  0  0  0
  2  3  1  0  0  0
  2 25  1  0  0  0
  2 86  1  0  0  0
  2 87  1  0  0  0
  3  4  1  0  0  0
  3 88  1  0  0  0
  3 89  1  0  0  0
  4  5  1  0  0  0
  4 90  1  0  0  0
  4 91  1  0  0  0
  5  6  1  0  0  0
  5 26  1  0  0  0
  5 92  1  0  0  0
  6 25  1  0  0  0
  6 93  1  0  0  0
  6 94  1  0  0  0
  7  8  2  0  0  0
  7 26  1  0  0  0
  7 29  1  0  0  0
  8  9  1  0  0  0
  8 22  1  0  0  0
  9 10  1  0  0  0
  9 27  2  0  0  0
 10 11  2  0  0  0
 10 15  1  0  0  0
 11 12  1  0  0  0
 11 95  1  0  0  0
 12 13  2  0  0  0
 12 96  1  0  0  0
 13 14  1  0  0  0
 13 31  1  0  0  0
 14 15  2  0  0  0
 14 97  1  0  0  0
 15 98  1  0  0  0
 16 17  2  0  0  0
 16 21  1  0  0  0
 16 31  1  0  0  0
 17 18  1  0  0  0
 17 99  1  0  0  0
 18 19  2  0  0  0
 18100  1  0  0  0
 19 20  1  0  0  0
 19 24  1  0  0  0
 20 21  2  0  0  0
 20101  1  0  0  0
 21 23  1  0  0  0
 22 28  1  0  0  0
 22 32  2  0  0  0
 26 27  1  0  0  0
 28102  1  0  0  0
 28103  1  0  0  0
 29104  1  0  0  0
 29105  1  0  0  0
 33 34  1  0  0  0
 33 66  1  0  0  0
 33 70  2  0  0  0
 34 36  1  0  0  0
 34 59  1  0  0  0
 34106  1  0  0  0
 35 44  2  0  0  0
 35 45  1  0  0  0
 35 68  1  0  0  0
 36 56  1  0  0  0
 36107  1  0  0  0
 37 39  1  0  0  0
 37 47  1  0  0  0
 37 66  1  0  0  0
 37108  1  0  0  0
 38 43  2  0  0  0
 38 46  1  0  0  0
 38 47  1  0  0  0
 39 64  1  0  0  0
 39 67  2  0  0  0
 40 52  1  0  0  0
 40 53  2  0  0  0
 40 58  1  0  0  0
 41109  1  0  0  0
 41110  1  0  0  0
 41111  1  0  0  0
 41 48  1  0  0  0
 42 43  1  0  0  0
 42 66  1  0  0  0
 42112  1  0  0  0
 42113  1  0  0  0
 43 44  1  0  0  0
 44114  1  0  0  0
 45 46  2  0  0  0
 45115  1  0  0  0
 46116  1  0  0  0
 47117  1  0  0  0
 47118  1  0  0  0
 48 56  1  0  0  0
 48 65  1  0  0  0
 48119  1  0  0  0
 49 50  1  0  0  0
 49 53  1  0  0  0
 49 64  1  0  0  0
 49120  1  0  0  0
 50 51  1  0  0  0
 50121  1  0  0  0
 50122  1  0  0  0
 51 52  1  0  0  0
 51123  1  0  0  0
 51124  1  0  0  0
 52125  1  0  0  0
 52126  1  0  0  0
 53 54  1  0  0  0
 54 55  2  0  0  0
 54127  1  0  0  0
 55 57  1  0  0  0
 55128  1  0  0  0
 56 69  2  0  0  0
 57 58  2  0  0  0
 57129  1  0  0  0
 58130  1  0  0  0
 59 60  1  0  0  0
 59 61  1  0  0  0
 59 62  1  0  0  0
 60131  1  0  0  0
 60132  1  0  0  0
 60133  1  0  0  0
 61134  1  0  0  0
 61135  1  0  0  0
 61136  1  0  0  0
 62137  1  0  0  0
 62138  1  0  0  0
 62139  1  0  0  0
 63 65  1  0  0  0
 63140  1  0  0  0
 63141  1  0  0  0
 63142  1  0  0  0
 64143  1  0  0  0
 65144  1  0  0  0
 68 79  1  0  0  0
 71 72  2  0  0  0
 71 73  1  0  0  0
 71145  1  0  0  0
 72 82  1  0  0  0
 72146  1  0  0  0
 73 74  2  0  0  0
 73 76  1  0  0  0
 74 77  1  0  0  0
 74 82  1  0  0  0
 75147  1  0  0  0
 75148  1  0  0  0
 75149  1  0  0  0
 75 80  1  0  0  0
 76 83  1  0  0  0
 76150  1  0  0  0
 76151  1  0  0  0
 77 84  1  0  0  0
 77152  1  0  0  0
 77153  1  0  0  0
 78 81  1  0  0  0
 78 82  1  0  0  0
 78154  1  0  0  0
 78155  1  0  0  0
 79 80  1  0  0  0
 79156  1  0  0  0
 79157  1  0  0  0
 80 81  1  0  0  0
 80158  1  0  0  0
 81 85  1  0  0  0
 81159  1  0  0  0
 83160  1  0  0  0
 84161  1  0  0  0
 84162  1  0  0  0
 84163  1  0  0  0
 85164  1  0  0  0
M  CHG  1  84   1
M  ISO  4   1 100  68 101  79 101  83 100
M  END
> <chiral flag>
0

> <version>
0

> <s_m_source_file>
/data/baiqing/PycharmProjects/Reinvent-master-3.2/result/LINK_invent/BTK/process_docking_weight1_custom_sum_contain_oxygen_bond_distance_aromatic_linkinvent_7_9_3/rearranged_h_0109.sdf

> <i_m_source_file_index>
93

> <r_mmod_Potential_Energy-OPLS-2005>
-335.207702636719

> <r_mmod_Stretch_Energy-OPLS-2005>
49.1600151062012

> <r_mmod_Bend_Energy-OPLS-2005>
117.16015625

> <r_mmod_Torsional_Energy-OPLS-2005>
227.366912841797

> <r_mmod_Improper_Torsional_Energy-OPLS-2005>
12.4727811813354

> <r_mmod_Van_der_Waal_Energy-OPLS-2005>
122.619468688965

> <r_mmod_Electrostatic_Energy-OPLS-2005>
-326.039306640625

> <r_mmod_Solvation_Energy-OPLS-2005>
-559.619873046875

> <b_mmod_Minimization_Converged-OPLS-2005>
0

> <r_mmod_RMS_Derivative-OPLS-2005>
1.57847619056702

$$$$
93
                    3D
 Structure written by MMmdl.
166174  0  0  1  0            999 V2000
  -30.7101  -14.4967   20.5777 C   0  0  0  0  0  0
  -30.4241  -12.3258   19.4247 C   0  0  0  0  0  0
  -29.4973  -12.5040   18.2063 C   0  0  0  0  0  0
  -28.0177  -12.3599   18.6195 C   0  0  0  0  0  0
  -27.6621  -13.2078   19.8716 C   0  0  2  0  0  0
  -28.7047  -13.0134   20.9937 C   0  0  0  0  0  0
  -25.2595  -13.8168   20.5647 C   0  0  0  0  0  0
  -24.1832  -13.0458   20.9150 C   0  0  0  0  0  0
  -24.6393  -11.6922   20.8733 C   0  0  0  0  0  0
  -23.9060  -10.4308   21.0402 C   0  0  0  0  0  0
  -24.3621   -9.4225   21.9172 C   0  0  0  0  0  0
  -23.6303   -8.2258   22.0749 C   0  0  0  0  0  0
  -22.4278   -8.0294   21.3546 C   0  0  0  0  0  0
  -21.9912   -9.0261   20.4645 C   0  0  0  0  0  0
  -22.7238  -10.2141   20.3047 C   0  0  0  0  0  0
  -21.6860   -6.0748   22.5271 C   0  0  0  0  0  0
  -21.4016   -6.5642   23.8205 C   0  0  0  0  0  0
  -21.3659   -5.6790   24.9159 C   0  0  0  0  0  0
  -21.6047   -4.3056   24.7210 C   0  0  0  0  0  0
  -21.8818   -3.8154   23.4331 C   0  0  0  0  0  0
  -21.9190   -4.6974   22.3391 C   0  0  0  0  0  0
  -22.7853  -13.5273   21.1814 C   0  0  0  0  0  0
  -22.1657   -4.2160   21.0969 F   0  0  0  0  0  0
  -21.5630   -3.4539   25.7727 F   0  0  0  0  0  0
  -30.0287  -13.3242   20.4321 N   0  0  0  0  0  0
  -26.3041  -12.9342   20.3364 N   0  0  0  0  0  0
  -25.9325  -11.6506   20.5767 N   0  0  0  0  0  0
  -22.0481  -12.8274   22.0372 N   0  0  0  0  0  0
  -25.4355  -15.1874   20.4033 N   0  0  0  0  0  0
  -31.8448  -14.6566   20.1243 O   0  0  0  0  0  0
  -21.6640   -6.8896   21.4239 O   0  0  0  0  0  0
  -22.3552  -14.5597   20.6689 O   0  0  0  0  0  0
  -24.6193  -31.8640   23.2060 C   0  0  0  0  0  0
  -25.9073  -32.4795   23.8371 C   0  0  1  0  0  0
  -27.2379  -27.3813   20.0996 C   0  0  0  0  0  0
  -25.5920  -33.8597   24.2304 N   0  0  0  0  0  0
  -23.4092  -30.4864   21.5468 C   0  0  2  0  0  0
  -24.8540  -28.9399   20.1174 C   0  0  0  0  0  0
  -22.7428  -29.4652   22.4974 C   0  0  0  0  0  0
  -18.0277  -28.1381   22.8488 C   0  0  0  0  0  0
  -24.1485  -36.7289   23.2637 C   0  0  0  0  0  0
  -25.9436  -30.8097   21.3694 C   0  0  0  0  0  0
  -26.0164  -29.4406   20.7145 C   0  0  0  0  0  0
  -27.2055  -28.6687   20.7002 C   0  0  0  0  0  0
  -26.0466  -26.9017   19.5064 C   0  0  0  0  0  0
  -24.8666  -27.6715   19.5129 C   0  0  0  0  0  0
  -23.6197  -29.8138   20.1637 C   0  0  0  0  0  0
  -25.4109  -36.3089   24.0333 C   0  0  1  0  0  0
  -20.5869  -28.3679   23.1299 C   0  0  2  0  0  0
  -20.6771  -26.9413   22.5406 C   0  0  0  0  0  0
  -19.5750  -26.6387   21.5205 C   0  0  0  0  0  0
  -18.1928  -26.7925   22.1616 C   0  0  0  0  0  0
  -19.1524  -28.8847   23.2887 C   0  0  0  0  0  0
  -18.9458  -30.1449   23.8900 C   0  0  0  0  0  0
  -17.6461  -30.6591   24.0560 C   0  0  0  0  0  0
  -25.9044  -34.9460   23.5115 C   0  0  0  0  0  0
  -16.5347  -29.9086   23.6332 C   0  0  0  0  0  0
  -16.7267  -28.6497   23.0360 C   0  0  0  0  0  0
  -26.4486  -31.6598   25.0726 C   0  0  0  0  0  0
  -25.3740  -31.3727   26.1470 C   0  0  0  0  0  0
  -27.0337  -30.3034   24.6156 C   0  0  0  0  0  0
  -27.6056  -32.4333   25.7488 C   0  0  0  0  0  0
  -27.5579  -37.1796   24.8465 C   0  0  0  0  0  0
  -21.4154  -29.3041   22.3704 N   0  0  0  0  0  0
  -26.4289  -37.3781   23.9413 N   0  0  0  0  0  0
  -24.6754  -31.0695   22.0982 N   0  0  0  0  0  0
  -23.4176  -28.8202   23.3041 O   0  0  0  0  0  0
  -28.4299  -26.6645   20.1203 O   0  0  0  0  0  0
  -26.5598  -34.8921   22.4673 O   0  0  0  0  0  0
  -23.5375  -32.1425   23.7423 O   0  0  0  0  0  0
  -29.6114  -19.2102   21.6654 C   0  0  0  0  0  0
  -29.2976  -19.7180   19.5282 C   0  0  0  0  0  0
  -29.9996  -18.1008   20.9520 C   0  0  0  0  0  0
  -29.7987  -18.4353   19.5729 C   0  0  0  0  0  0
  -31.6137  -17.6722   18.0215 C   0  0  0  0  0  0
  -29.2419  -17.8852   17.1671 C   0  0  0  0  0  0
  -29.6774  -24.5781   21.8003 C   0  0  0  0  0  0
  -30.6102  -16.8214   21.5519 C   0  0  0  0  0  0
  -28.8796  -22.7393   20.2062 C   0  0  0  0  0  0
  -28.7100  -21.5605   21.2283 C   0  0  0  0  0  0
  -28.5554  -25.2961   19.6395 C   0  0  0  0  0  0
  -30.1252  -17.5628   18.3789 C   0  0  0  0  0  0
  -28.6118  -24.1934   20.7549 C   0  0  2  0  0  0
  -29.2020  -20.2274   20.8095 N   0  0  0  0  0  0
  -30.0389  -15.5165   21.1552 N   0  0  0  0  0  0
  -31.4678  -12.4289   19.1208 H   0  0  0  0  0  0
  -30.3334  -11.3190   19.8348 H   0  0  0  0  0  0
  -29.7469  -11.7738   17.4337 H   0  0  0  0  0  0
  -29.6589  -13.4878   17.7634 H   0  0  0  0  0  0
  -27.8252  -11.3036   18.8137 H   0  0  0  0  0  0
  -27.3710  -12.6329   17.7854 H   0  0  0  0  0  0
  -27.7064  -14.2533   19.5650 H   0  0  0  0  0  0
  -28.6874  -11.9832   21.3536 H   0  0  0  0  0  0
  -28.4667  -13.6294   21.8620 H   0  0  0  0  0  0
  -25.2764   -9.5710   22.4746 H   0  0  0  0  0  0
  -24.0009   -7.4660   22.7478 H   0  0  0  0  0  0
  -21.0843   -8.8785   19.8966 H   0  0  0  0  0  0
  -22.3694  -10.9676   19.6161 H   0  0  0  0  0  0
  -21.2006   -7.6148   23.9717 H   0  0  0  0  0  0
  -21.1487   -6.0509   25.9064 H   0  0  0  0  0  0
  -22.0604   -2.7624   23.2813 H   0  0  0  0  0  0
  -22.4099  -11.9953   22.4786 H   0  0  0  0  0  0
  -21.1101  -13.1323   22.2575 H   0  0  0  0  0  0
  -24.6771  -15.8485   20.5236 H   0  0  0  0  0  0
  -26.2961  -15.6229   20.0956 H   0  0  0  0  0  0
  -26.7137  -32.5479   23.1119 H   0  0  0  0  0  0
  -25.0107  -33.9759   25.0474 H   0  0  0  0  0  0
  -22.7001  -31.3046   21.4027 H   0  0  0  0  0  0
  -23.3755  -35.9614   23.3306 H   0  0  0  0  0  0
  -24.3573  -36.8900   22.2050 H   0  0  0  0  0  0
  -23.7232  -37.6492   23.6649 H   0  0  0  0  0  0
  -26.0705  -31.5753   20.6027 H   0  0  0  0  0  0
  -26.8263  -30.8557   21.9963 H   0  0  0  0  0  0
  -28.1040  -29.0520   21.1634 H   0  0  0  0  0  0
  -25.9894  -25.9327   19.0372 H   0  0  0  0  0  0
  -23.9696  -27.2762   19.0562 H   0  0  0  0  0  0
  -23.7336  -30.5850   19.4012 H   0  0  0  0  0  0
  -22.7425  -29.2358   19.8673 H   0  0  0  0  0  0
  -25.1286  -36.1943   25.0826 H   0  0  0  0  0  0
  -20.9957  -28.3250   24.1419 H   0  0  0  0  0  0
  -20.5677  -26.2291   23.3598 H   0  0  0  0  0  0
  -21.6644  -26.7459   22.1202 H   0  0  0  0  0  0
  -19.6918  -25.6297   21.1238 H   0  0  0  0  0  0
  -19.6688  -27.3193   20.6730 H   0  0  0  0  0  0
  -17.4199  -26.6672   21.4017 H   0  0  0  0  0  0
  -18.0332  -26.0063   22.9010 H   0  0  0  0  0  0
  -19.7937  -30.7259   24.2273 H   0  0  0  0  0  0
  -17.5022  -31.6272   24.5157 H   0  0  0  0  0  0
  -15.5353  -30.2993   23.7660 H   0  0  0  0  0  0
  -15.8662  -28.0815   22.7091 H   0  0  0  0  0  0
  -24.5902  -30.7087   25.7804 H   0  0  0  0  0  0
  -24.8946  -32.2893   26.4916 H   0  0  0  0  0  0
  -25.8083  -30.8892   27.0230 H   0  0  0  0  0  0
  -26.2909  -29.6780   24.1191 H   0  0  0  0  0  0
  -27.4068  -29.7289   25.4644 H   0  0  0  0  0  0
  -27.8756  -30.4340   23.9354 H   0  0  0  0  0  0
  -27.2673  -33.3630   26.2077 H   0  0  0  0  0  0
  -28.3857  -32.6906   25.0310 H   0  0  0  0  0  0
  -28.0737  -31.8457   26.5395 H   0  0  0  0  0  0
  -28.2595  -38.0096   24.7523 H   0  0  0  0  0  0
  -28.1076  -36.2628   24.6273 H   0  0  0  0  0  0
  -27.2298  -37.1430   25.8868 H   0  0  0  0  0  0
  -20.9326  -29.8747   21.6904 H   0  0  0  0  0  0
  -26.0172  -38.2856   24.1423 H   0  0  0  0  0  0
  -29.6143  -19.3806   22.7349 H   0  0  0  0  0  0
  -29.0158  -20.3264   18.6798 H   0  0  0  0  0  0
  -32.2424  -17.3980   18.8690 H   0  0  0  0  0  0
  -31.8782  -18.6888   17.7303 H   0  0  0  0  0  0
  -31.8735  -17.0105   17.1948 H   0  0  0  0  0  0
  -28.1852  -17.8069   17.4218 H   0  0  0  0  0  0
  -29.4350  -17.1951   16.3454 H   0  0  0  0  0  0
  -29.4278  -18.8945   16.7977 H   0  0  0  0  0  0
  -29.6712  -23.9095   22.6598 H   0  0  0  0  0  0
  -29.5067  -25.5832   22.1867 H   0  0  0  0  0  0
  -30.6792  -24.5560   21.3696 H   0  0  0  0  0  0
  -30.5237  -16.8889   22.6373 H   0  0  0  0  0  0
  -31.6832  -16.8492   21.3511 H   0  0  0  0  0  0
  -28.2019  -22.5522   19.3724 H   0  0  0  0  0  0
  -29.8845  -22.7003   19.7854 H   0  0  0  0  0  0
  -27.6561  -21.4602   21.4899 H   0  0  0  0  0  0
  -29.2198  -21.8029   22.1592 H   0  0  0  0  0  0
  -27.8281  -25.0330   18.8744 H   0  0  0  0  0  0
  -29.5079  -25.2674   19.1082 H   0  0  0  0  0  0
  -29.9199  -16.5310   18.6596 H   0  0  0  0  0  0
  -27.6408  -24.1888   21.2524 H   0  0  0  0  0  0
  -29.0924  -15.3298   21.4482 H   0  0  0  0  0  0
  1 25  1  0  0  0
  1 30  2  0  0  0
  1 85  1  0  0  0
  2  3  1  0  0  0
  2 25  1  0  0  0
  2 86  1  0  0  0
  2 87  1  0  0  0
  3  4  1  0  0  0
  3 88  1  0  0  0
  3 89  1  0  0  0
  4  5  1  0  0  0
  4 90  1  0  0  0
  4 91  1  0  0  0
  5  6  1  0  0  0
  5 26  1  0  0  0
  5 92  1  0  0  0
  6 25  1  0  0  0
  6 93  1  0  0  0
  6 94  1  0  0  0
  7  8  2  0  0  0
  7 26  1  0  0  0
  7 29  1  0  0  0
  8  9  1  0  0  0
  8 22  1  0  0  0
  9 10  1  0  0  0
  9 27  2  0  0  0
 10 11  2  0  0  0
 10 15  1  0  0  0
 11 12  1  0  0  0
 11 95  1  0  0  0
 12 13  2  0  0  0
 12 96  1  0  0  0
 13 14  1  0  0  0
 13 31  1  0  0  0
 14 15  2  0  0  0
 14 97  1  0  0  0
 15 98  1  0  0  0
 16 17  2  0  0  0
 16 21  1  0  0  0
 16 31  1  0  0  0
 17 18  1  0  0  0
 17 99  1  0  0  0
 18 19  2  0  0  0
 18100  1  0  0  0
 19 20  1  0  0  0
 19 24  1  0  0  0
 20 21  2  0  0  0
 20101  1  0  0  0
 21 23  1  0  0  0
 22 28  1  0  0  0
 22 32  2  0  0  0
 26 27  1  0  0  0
 28102  1  0  0  0
 28103  1  0  0  0
 29104  1  0  0  0
 29105  1  0  0  0
 33 34  1  0  0  0
 33 66  1  0  0  0
 33 70  2  0  0  0
 34 36  1  0  0  0
 34 59  1  0  0  0
 34106  1  0  0  0
 35 44  2  0  0  0
 35 45  1  0  0  0
 35 68  1  0  0  0
 36 56  1  0  0  0
 36107  1  0  0  0
 37 39  1  0  0  0
 37 47  1  0  0  0
 37 66  1  0  0  0
 37108  1  0  0  0
 38 43  2  0  0  0
 38 46  1  0  0  0
 38 47  1  0  0  0
 39 64  1  0  0  0
 39 67  2  0  0  0
 40 52  1  0  0  0
 40 53  2  0  0  0
 40 58  1  0  0  0
 41109  1  0  0  0
 41110  1  0  0  0
 41111  1  0  0  0
 41 48  1  0  0  0
 42 43  1  0  0  0
 42 66  1  0  0  0
 42112  1  0  0  0
 42113  1  0  0  0
 43 44  1  0  0  0
 44114  1  0  0  0
 45 46  2  0  0  0
 45115  1  0  0  0
 46116  1  0  0  0
 47117  1  0  0  0
 47118  1  0  0  0
 48 56  1  0  0  0
 48 65  1  0  0  0
 48119  1  0  0  0
 49 50  1  0  0  0
 49 53  1  0  0  0
 49 64  1  0  0  0
 49120  1  0  0  0
 50 51  1  0  0  0
 50121  1  0  0  0
 50122  1  0  0  0
 51 52  1  0  0  0
 51123  1  0  0  0
 51124  1  0  0  0
 52125  1  0  0  0
 52126  1  0  0  0
 53 54  1  0  0  0
 54 55  2  0  0  0
 54127  1  0  0  0
 55 57  1  0  0  0
 55128  1  0  0  0
 56 69  2  0  0  0
 57 58  2  0  0  0
 57129  1  0  0  0
 58130  1  0  0  0
 59 60  1  0  0  0
 59 61  1  0  0  0
 59 62  1  0  0  0
 60131  1  0  0  0
 60132  1  0  0  0
 60133  1  0  0  0
 61134  1  0  0  0
 61135  1  0  0  0
 61136  1  0  0  0
 62137  1  0  0  0
 62138  1  0  0  0
 62139  1  0  0  0
 63 65  1  0  0  0
 63140  1  0  0  0
 63141  1  0  0  0
 63142  1  0  0  0
 64143  1  0  0  0
 65144  1  0  0  0
 68 81  1  0  0  0
 71 73  2  0  0  0
 71 84  1  0  0  0
 71145  1  0  0  0
 72 74  2  0  0  0
 72 84  1  0  0  0
 72146  1  0  0  0
 73 74  1  0  0  0
 73 78  1  0  0  0
 74 82  1  0  0  0
 75147  1  0  0  0
 75148  1  0  0  0
 75149  1  0  0  0
 75 82  1  0  0  0
 76 82  1  0  0  0
 76150  1  0  0  0
 76151  1  0  0  0
 76152  1  0  0  0
 77153  1  0  0  0
 77154  1  0  0  0
 77155  1  0  0  0
 77 83  1  0  0  0
 78 85  1  0  0  0
 78156  1  0  0  0
 78157  1  0  0  0
 79 80  1  0  0  0
 79 83  1  0  0  0
 79158  1  0  0  0
 79159  1  0  0  0
 80 84  1  0  0  0
 80160  1  0  0  0
 80161  1  0  0  0
 81 83  1  0  0  0
 81162  1  0  0  0
 81163  1  0  0  0
 82164  1  0  0  0
 83165  1  0  0  0
 85166  1  0  0  0
M  ISO  4   1 100  68 101  81 101  85 100
M  END
> <chiral flag>
0

> <version>
0

> <s_m_source_file>
/data/baiqing/PycharmProjects/Reinvent-master-3.2/result/LINK_invent/BTK/process_docking_weight1_custom_sum_contain_oxygen_bond_distance_aromatic_linkinvent_7_9_3/rearranged_h_0109.sdf

> <i_m_source_file_index>
94

> <r_mmod_Potential_Energy-OPLS-2005>
-117.327842712402

> <r_mmod_Stretch_Energy-OPLS-2005>
47.9239463806152

> <r_mmod_Bend_Energy-OPLS-2005>
125.294998168945

> <r_mmod_Torsional_Energy-OPLS-2005>
207.294418334961

> <r_mmod_Improper_Torsional_Energy-OPLS-2005>
2.85952258110046

> <r_mmod_Van_der_Waal_Energy-OPLS-2005>
118.176231384277

> <r_mmod_Electrostatic_Energy-OPLS-2005>
-436.579162597656

> <r_mmod_Solvation_Energy-OPLS-2005>
-200.875930786133

> <b_mmod_Minimization_Converged-OPLS-2005>
0

> <r_mmod_RMS_Derivative-OPLS-2005>
2.2545804977417

$$$$
94
                    3D
 Structure written by MMmdl.
161168  0  0  1  0            999 V2000
  -30.5380  -14.9423   20.4298 C   0  0  0  0  0  0
  -30.4417  -12.5868   19.5055 C   0  0  0  0  0  0
  -29.5243  -12.5340   18.2619 C   0  0  0  0  0  0
  -28.0531  -12.3252   18.6726 C   0  0  0  0  0  0
  -27.6296  -13.2500   19.8444 C   0  0  2  0  0  0
  -28.6720  -13.2679   20.9828 C   0  0  0  0  0  0
  -25.2452  -13.8220   20.5717 C   0  0  0  0  0  0
  -24.1774  -13.0438   20.9243 C   0  0  0  0  0  0
  -24.6406  -11.6924   20.8760 C   0  0  0  0  0  0
  -23.9090  -10.4277   21.0391 C   0  0  0  0  0  0
  -24.3625   -9.4203   21.9184 C   0  0  0  0  0  0
  -23.6300   -8.2236   22.0757 C   0  0  0  0  0  0
  -22.4275   -8.0276   21.3548 C   0  0  0  0  0  0
  -21.9911   -9.0250   20.4646 C   0  0  0  0  0  0
  -22.7245  -10.2136   20.3054 C   0  0  0  0  0  0
  -21.6864   -6.0723   22.5268 C   0  0  0  0  0  0
  -21.4012   -6.5626   23.8196 C   0  0  0  0  0  0
  -21.3675   -5.6787   24.9164 C   0  0  0  0  0  0
  -21.6059   -4.3048   24.7212 C   0  0  0  0  0  0
  -21.8830   -3.8138   23.4332 C   0  0  0  0  0  0
  -21.9197   -4.6947   22.3390 C   0  0  0  0  0  0
  -22.7790  -13.5199   21.1873 C   0  0  0  0  0  0
  -22.1666   -4.2136   21.0968 F   0  0  0  0  0  0
  -21.5634   -3.4545   25.7731 F   0  0  0  0  0  0
  -29.9474  -13.6810   20.3875 N   0  0  0  0  0  0
  -26.2886  -12.9468   20.3276 N   0  0  0  0  0  0
  -25.9338  -11.6592   20.5746 N   0  0  0  0  0  0
  -22.0451  -12.8191   22.0446 N   0  0  0  0  0  0
  -25.4095  -15.1954   20.4111 N   0  0  0  0  0  0
  -31.7374  -15.0130   20.1476 O   0  0  0  0  0  0
  -21.6651   -6.8877   21.4234 O   0  0  0  0  0  0
  -22.3461  -14.5504   20.6704 O   0  0  0  0  0  0
  -24.6424  -31.8448   23.1901 C   0  0  0  0  0  0
  -25.9200  -32.4703   23.8283 C   0  0  1  0  0  0
  -27.2185  -27.1418   20.1523 C   0  0  0  0  0  0
  -25.5947  -33.8510   24.2199 N   0  0  0  0  0  0
  -23.4447  -30.4642   21.5362 C   0  0  2  0  0  0
  -24.8954  -28.8922   20.1125 C   0  0  0  0  0  0
  -22.7564  -29.4542   22.4877 C   0  0  0  0  0  0
  -18.0300  -28.1384   22.8472 C   0  0  0  0  0  0
  -24.1494  -36.7262   23.2640 C   0  0  0  0  0  0
  -26.0012  -30.7198   21.3891 C   0  0  0  0  0  0
  -26.0731  -29.3309   20.7309 C   0  0  0  0  0  0
  -27.2359  -28.4730   20.7306 C   0  0  0  0  0  0
  -26.0184  -26.8099   19.4844 C   0  0  0  0  0  0
  -24.8820  -27.6453   19.4725 C   0  0  0  0  0  0
  -23.6712  -29.7925   20.1558 C   0  0  0  0  0  0
  -25.4127  -36.3045   24.0313 C   0  0  1  0  0  0
  -20.5907  -28.3713   23.1237 C   0  0  2  0  0  0
  -20.6786  -26.9419   22.5406 C   0  0  0  0  0  0
  -19.5769  -26.6378   21.5205 C   0  0  0  0  0  0
  -18.1936  -26.7925   22.1613 C   0  0  0  0  0  0
  -19.1555  -28.8871   23.2842 C   0  0  0  0  0  0
  -18.9471  -30.1468   23.8867 C   0  0  0  0  0  0
  -17.6470  -30.6588   24.0558 C   0  0  0  0  0  0
  -25.9073  -34.9414   23.5073 C   0  0  0  0  0  0
  -16.5364  -29.9076   23.6338 C   0  0  0  0  0  0
  -16.7282  -28.6495   23.0354 C   0  0  0  0  0  0
  -26.4529  -31.6556   25.0716 C   0  0  0  0  0  0
  -25.3721  -31.3726   26.1417 C   0  0  0  0  0  0
  -27.0387  -30.2949   24.6292 C   0  0  0  0  0  0
  -27.6052  -32.4324   25.7508 C   0  0  0  0  0  0
  -27.5580  -37.1788   24.8461 C   0  0  0  0  0  0
  -21.4249  -29.3046   22.3620 N   0  0  0  0  0  0
  -26.4296  -37.3754   23.9406 N   0  0  0  0  0  0
  -24.7151  -31.0315   22.0927 N   0  0  0  0  0  0
  -23.4210  -28.8090   23.3028 O   0  0  0  0  0  0
  -28.2781  -26.1637   20.1975 O   0  0  0  0  0  0
  -26.5656  -34.8909   22.4650 O   0  0  0  0  0  0
  -23.5545  -32.1316   23.7129 O   0  0  0  0  0  0
  -29.4842  -23.4099   18.6919 C   0  0  0  0  0  0
  -30.2705  -23.6275   21.0563 C   0  0  0  0  0  0
  -28.3248  -18.8073   21.8996 C   0  0  0  0  0  0
  -27.9472  -18.6581   19.4443 C   0  0  0  0  0  0
  -30.1199  -17.6573   20.4361 C   0  0  0  0  0  0
  -28.5578  -21.7392   20.4710 C   0  0  0  0  0  0
  -27.9891  -24.6385   20.3729 C   0  0  0  0  0  0
  -29.0463  -23.3373   20.1675 C   0  0  0  0  0  0
  -29.0129  -18.9415   20.5235 C   0  0  0  0  0  0
  -29.7588  -16.1216   20.5802 N   0  0  0  0  0  0
  -29.4981  -20.4554   20.3493 N   0  3  0  0  0  0
  -31.4753  -12.7457   19.1941 H   0  0  0  0  0  0
  -30.4361  -11.6326   20.0349 H   0  0  0  0  0  0
  -29.8368  -11.7359   17.5881 H   0  0  0  0  0  0
  -29.6209  -13.4660   17.7025 H   0  0  0  0  0  0
  -27.9405  -11.2797   18.9676 H   0  0  0  0  0  0
  -27.3955  -12.4729   17.8152 H   0  0  0  0  0  0
  -27.5942  -14.2559   19.4248 H   0  0  0  0  0  0
  -28.7574  -12.2867   21.4509 H   0  0  0  0  0  0
  -28.3698  -13.9605   21.7711 H   0  0  0  0  0  0
  -25.2771   -9.5687   22.4748 H   0  0  0  0  0  0
  -24.0017   -7.4634   22.7488 H   0  0  0  0  0  0
  -21.0837   -8.8767   19.8940 H   0  0  0  0  0  0
  -22.3700  -10.9672   19.6157 H   0  0  0  0  0  0
  -21.1998   -7.6131   23.9693 H   0  0  0  0  0  0
  -21.1494   -6.0513   25.9071 H   0  0  0  0  0  0
  -22.0598   -2.7589   23.2836 H   0  0  0  0  0  0
  -22.4079  -11.9843   22.4818 H   0  0  0  0  0  0
  -21.1056  -13.1193   22.2642 H   0  0  0  0  0  0
  -24.6351  -15.8404   20.5178 H   0  0  0  0  0  0
  -26.2347  -15.6354   20.0283 H   0  0  0  0  0  0
  -26.7257  -32.5305   23.0994 H   0  0  0  0  0  0
  -25.0057  -33.9638   25.0326 H   0  0  0  0  0  0
  -22.7457  -31.2887   21.3803 H   0  0  0  0  0  0
  -23.3768  -35.9580   23.3280 H   0  0  0  0  0  0
  -24.3576  -36.8924   22.2058 H   0  0  0  0  0  0
  -23.7236  -37.6447   23.6693 H   0  0  0  0  0  0
  -26.1566  -31.4762   20.6187 H   0  0  0  0  0  0
  -26.8725  -30.7668   22.0306 H   0  0  0  0  0  0
  -28.1343  -28.8101   21.2271 H   0  0  0  0  0  0
  -25.9286  -25.8725   18.9581 H   0  0  0  0  0  0
  -23.9885  -27.3095   18.9632 H   0  0  0  0  0  0
  -23.8059  -30.5663   19.3995 H   0  0  0  0  0  0
  -22.7871  -29.2325   19.8448 H   0  0  0  0  0  0
  -25.1320  -36.1867   25.0806 H   0  0  0  0  0  0
  -20.9979  -28.3293   24.1369 H   0  0  0  0  0  0
  -20.5675  -26.2323   23.3619 H   0  0  0  0  0  0
  -21.6657  -26.7427   22.1200 H   0  0  0  0  0  0
  -19.6934  -25.6283   21.1254 H   0  0  0  0  0  0
  -19.6714  -27.3181   20.6723 H   0  0  0  0  0  0
  -17.4210  -26.6654   21.4009 H   0  0  0  0  0  0
  -18.0349  -26.0073   22.9017 H   0  0  0  0  0  0
  -19.7946  -30.7287   24.2223 H   0  0  0  0  0  0
  -17.5024  -31.6272   24.5156 H   0  0  0  0  0  0
  -15.5360  -30.2976   23.7695 H   0  0  0  0  0  0
  -15.8668  -28.0819   22.7088 H   0  0  0  0  0  0
  -24.5910  -30.7063   25.7735 H   0  0  0  0  0  0
  -24.8910  -32.2903   26.4818 H   0  0  0  0  0  0
  -25.8034  -30.8915   27.0207 H   0  0  0  0  0  0
  -26.2994  -29.6665   24.1310 H   0  0  0  0  0  0
  -27.3997  -29.7260   25.4871 H   0  0  0  0  0  0
  -27.8915  -30.4182   23.9608 H   0  0  0  0  0  0
  -27.2636  -33.3645   26.2032 H   0  0  0  0  0  0
  -28.3907  -32.6848   25.0364 H   0  0  0  0  0  0
  -28.0666  -31.8471   26.5477 H   0  0  0  0  0  0
  -28.2579  -38.0102   24.7529 H   0  0  0  0  0  0
  -28.1098  -36.2633   24.6269 H   0  0  0  0  0  0
  -27.2294  -37.1415   25.8862 H   0  0  0  0  0  0
  -20.9454  -29.8755   21.6788 H   0  0  0  0  0  0
  -26.0156  -38.2819   24.1421 H   0  0  0  0  0  0
  -30.2432  -22.6675   18.4496 H   0  0  0  0  0  0
  -29.9004  -24.3899   18.4486 H   0  0  0  0  0  0
  -28.6380  -23.2466   18.0239 H   0  0  0  0  0  0
  -31.0988  -22.9528   20.8387 H   0  0  0  0  0  0
  -30.0286  -23.5285   22.1146 H   0  0  0  0  0  0
  -30.6360  -24.6443   20.9027 H   0  0  0  0  0  0
  -27.9048  -17.8113   22.0375 H   0  0  0  0  0  0
  -27.4986  -19.5080   22.0187 H   0  0  0  0  0  0
  -29.0249  -18.9801   22.7178 H   0  0  0  0  0  0
  -27.5364  -17.6543   19.5448 H   0  0  0  0  0  0
  -28.3648  -18.7404   18.4397 H   0  0  0  0  0  0
  -27.1027  -19.3439   19.5111 H   0  0  0  0  0  0
  -30.8836  -17.8417   21.1924 H   0  0  0  0  0  0
  -30.6531  -17.7399   19.4880 H   0  0  0  0  0  0
  -27.6905  -21.5585   19.8366 H   0  0  0  0  0  0
  -28.1600  -21.7230   21.4858 H   0  0  0  0  0  0
  -27.6091  -24.5535   21.3918 H   0  0  0  0  0  0
  -27.1312  -24.3852   19.7553 H   0  0  0  0  0  0
  -28.7873  -15.9439   20.7869 H   0  0  0  0  0  0
  -30.2371  -20.5944   21.0210 H   0  0  0  0  0  0
  -29.9384  -20.5137   19.4439 H   0  0  0  0  0  0
  1 25  1  0  0  0
  1 30  2  0  0  0
  1 80  1  0  0  0
  2  3  1  0  0  0
  2 25  1  0  0  0
  2 82  1  0  0  0
  2 83  1  0  0  0
  3  4  1  0  0  0
  3 84  1  0  0  0
  3 85  1  0  0  0
  4  5  1  0  0  0
  4 86  1  0  0  0
  4 87  1  0  0  0
  5  6  1  0  0  0
  5 26  1  0  0  0
  5 88  1  0  0  0
  6 25  1  0  0  0
  6 89  1  0  0  0
  6 90  1  0  0  0
  7  8  2  0  0  0
  7 26  1  0  0  0
  7 29  1  0  0  0
  8  9  1  0  0  0
  8 22  1  0  0  0
  9 10  1  0  0  0
  9 27  2  0  0  0
 10 11  2  0  0  0
 10 15  1  0  0  0
 11 12  1  0  0  0
 11 91  1  0  0  0
 12 13  2  0  0  0
 12 92  1  0  0  0
 13 14  1  0  0  0
 13 31  1  0  0  0
 14 15  2  0  0  0
 14 93  1  0  0  0
 15 94  1  0  0  0
 16 17  2  0  0  0
 16 21  1  0  0  0
 16 31  1  0  0  0
 17 18  1  0  0  0
 17 95  1  0  0  0
 18 19  2  0  0  0
 18 96  1  0  0  0
 19 20  1  0  0  0
 19 24  1  0  0  0
 20 21  2  0  0  0
 20 97  1  0  0  0
 21 23  1  0  0  0
 22 28  1  0  0  0
 22 32  2  0  0  0
 26 27  1  0  0  0
 28 98  1  0  0  0
 28 99  1  0  0  0
 29100  1  0  0  0
 29101  1  0  0  0
 33 34  1  0  0  0
 33 66  1  0  0  0
 33 70  2  0  0  0
 34 36  1  0  0  0
 34 59  1  0  0  0
 34102  1  0  0  0
 35 44  2  0  0  0
 35 45  1  0  0  0
 35 68  1  0  0  0
 36 56  1  0  0  0
 36103  1  0  0  0
 37 39  1  0  0  0
 37 47  1  0  0  0
 37 66  1  0  0  0
 37104  1  0  0  0
 38 43  2  0  0  0
 38 46  1  0  0  0
 38 47  1  0  0  0
 39 64  1  0  0  0
 39 67  2  0  0  0
 40 52  1  0  0  0
 40 53  2  0  0  0
 40 58  1  0  0  0
 41105  1  0  0  0
 41106  1  0  0  0
 41107  1  0  0  0
 41 48  1  0  0  0
 42 43  1  0  0  0
 42 66  1  0  0  0
 42108  1  0  0  0
 42109  1  0  0  0
 43 44  1  0  0  0
 44110  1  0  0  0
 45 46  2  0  0  0
 45111  1  0  0  0
 46112  1  0  0  0
 47113  1  0  0  0
 47114  1  0  0  0
 48 56  1  0  0  0
 48 65  1  0  0  0
 48115  1  0  0  0
 49 50  1  0  0  0
 49 53  1  0  0  0
 49 64  1  0  0  0
 49116  1  0  0  0
 50 51  1  0  0  0
 50117  1  0  0  0
 50118  1  0  0  0
 51 52  1  0  0  0
 51119  1  0  0  0
 51120  1  0  0  0
 52121  1  0  0  0
 52122  1  0  0  0
 53 54  1  0  0  0
 54 55  2  0  0  0
 54123  1  0  0  0
 55 57  1  0  0  0
 55124  1  0  0  0
 56 69  2  0  0  0
 57 58  2  0  0  0
 57125  1  0  0  0
 58126  1  0  0  0
 59 60  1  0  0  0
 59 61  1  0  0  0
 59 62  1  0  0  0
 60127  1  0  0  0
 60128  1  0  0  0
 60129  1  0  0  0
 61130  1  0  0  0
 61131  1  0  0  0
 61132  1  0  0  0
 62133  1  0  0  0
 62134  1  0  0  0
 62135  1  0  0  0
 63 65  1  0  0  0
 63136  1  0  0  0
 63137  1  0  0  0
 63138  1  0  0  0
 64139  1  0  0  0
 65140  1  0  0  0
 68 77  1  0  0  0
 71141  1  0  0  0
 71142  1  0  0  0
 71143  1  0  0  0
 71 78  1  0  0  0
 72 78  1  0  0  0
 72144  1  0  0  0
 72145  1  0  0  0
 72146  1  0  0  0
 73147  1  0  0  0
 73148  1  0  0  0
 73149  1  0  0  0
 73 79  1  0  0  0
 74 79  1  0  0  0
 74150  1  0  0  0
 74151  1  0  0  0
 74152  1  0  0  0
 75 79  1  0  0  0
 75 80  1  0  0  0
 75153  1  0  0  0
 75154  1  0  0  0
 76 78  1  0  0  0
 76 81  1  0  0  0
 76155  1  0  0  0
 76156  1  0  0  0
 77 78  1  0  0  0
 77157  1  0  0  0
 77158  1  0  0  0
 79 81  1  0  0  0
 80159  1  0  0  0
 81160  1  0  0  0
 81161  1  0  0  0
M  CHG  1  81   1
M  ISO  4   1 100  68 101  77 101  80 100
M  END
> <chiral flag>
0

> <version>
0

> <s_m_source_file>
/data/baiqing/PycharmProjects/Reinvent-master-3.2/result/LINK_invent/BTK/process_docking_weight1_custom_sum_contain_oxygen_bond_distance_aromatic_linkinvent_7_9_3/rearranged_h_0109.sdf

> <i_m_source_file_index>
95

> <r_mmod_Potential_Energy-OPLS-2005>
269.01220703125

> <r_mmod_Stretch_Energy-OPLS-2005>
275.555877685547

> <r_mmod_Bend_Energy-OPLS-2005>
254.237640380859

> <r_mmod_Torsional_Energy-OPLS-2005>
246.34553527832

> <r_mmod_Improper_Torsional_Energy-OPLS-2005>
4.51583194732666

> <r_mmod_Van_der_Waal_Energy-OPLS-2005>
108.830635070801

> <r_mmod_Electrostatic_Energy-OPLS-2005>
-335.990264892578

> <r_mmod_Solvation_Energy-OPLS-2005>
-470.558135986328

> <b_mmod_Minimization_Converged-OPLS-2005>
0

> <r_mmod_RMS_Derivative-OPLS-2005>
2.7927668094635

$$$$
95
                    3D
 Structure written by MMmdl.
169177  0  0  1  0            999 V2000
  -30.6288  -14.7342   20.4142 C   0  0  0  0  0  0
  -30.4368  -12.4522   19.4387 C   0  0  0  0  0  0
  -29.4971  -12.4846   18.2145 C   0  0  0  0  0  0
  -28.0199  -12.3361   18.6377 C   0  0  0  0  0  0
  -27.6349  -13.2111   19.8616 C   0  0  2  0  0  0
  -28.7022  -13.1620   20.9753 C   0  0  0  0  0  0
  -25.2507  -13.8062   20.5788 C   0  0  0  0  0  0
  -24.1766  -13.0354   20.9201 C   0  0  0  0  0  0
  -24.6339  -11.6817   20.8769 C   0  0  0  0  0  0
  -23.9000  -10.4228   21.0431 C   0  0  0  0  0  0
  -24.3553   -9.4152   21.9211 C   0  0  0  0  0  0
  -23.6223   -8.2197   22.0790 C   0  0  0  0  0  0
  -22.4209   -8.0243   21.3568 C   0  0  0  0  0  0
  -21.9860   -9.0198   20.4645 C   0  0  0  0  0  0
  -22.7190  -10.2071   20.3053 C   0  0  0  0  0  0
  -21.6816   -6.0700   22.5275 C   0  0  0  0  0  0
  -21.3996   -6.5617   23.8209 C   0  0  0  0  0  0
  -21.3662   -5.6782   24.9173 C   0  0  0  0  0  0
  -21.6037   -4.3040   24.7230 C   0  0  0  0  0  0
  -21.8832   -3.8122   23.4354 C   0  0  0  0  0  0
  -21.9194   -4.6927   22.3408 C   0  0  0  0  0  0
  -22.7799  -13.5177   21.1853 C   0  0  0  0  0  0
  -22.1682   -4.2122   21.0984 F   0  0  0  0  0  0
  -21.5625   -3.4536   25.7751 F   0  0  0  0  0  0
  -29.9863  -13.5184   20.3566 N   0  0  0  0  0  0
  -26.2925  -12.9225   20.3450 N   0  0  0  0  0  0
  -25.9284  -11.6391   20.5848 N   0  0  0  0  0  0
  -22.0432  -12.8174   22.0371 N   0  0  0  0  0  0
  -25.4262  -15.1792   20.4283 N   0  0  0  0  0  0
  -31.8538  -14.7929   20.2913 O   0  0  0  0  0  0
  -21.6592   -6.8832   21.4242 O   0  0  0  0  0  0
  -22.3537  -14.5533   20.6729 O   0  0  0  0  0  0
  -24.6289  -31.8588   23.2054 C   0  0  0  0  0  0
  -25.9135  -32.4782   23.8386 C   0  0  1  0  0  0
  -27.2126  -27.2911   20.1252 C   0  0  0  0  0  0
  -25.5949  -33.8581   24.2309 N   0  0  0  0  0  0
  -23.4216  -30.4838   21.5494 C   0  0  2  0  0  0
  -24.8670  -28.9398   20.1119 C   0  0  0  0  0  0
  -22.7489  -29.4604   22.4952 C   0  0  0  0  0  0
  -18.0277  -28.1371   22.8494 C   0  0  0  0  0  0
  -24.1476  -36.7271   23.2646 C   0  0  0  0  0  0
  -25.9674  -30.7820   21.3807 C   0  0  0  0  0  0
  -26.0406  -29.4084   20.7192 C   0  0  0  0  0  0
  -27.2174  -28.5959   20.7165 C   0  0  0  0  0  0
  -26.0252  -26.8969   19.4673 C   0  0  0  0  0  0
  -24.8647  -27.6906   19.4746 C   0  0  0  0  0  0
  -23.6374  -29.8230   20.1638 C   0  0  0  0  0  0
  -25.4103  -36.3074   24.0339 C   0  0  1  0  0  0
  -20.5884  -28.3678   23.1276 C   0  0  2  0  0  0
  -20.6751  -26.9394   22.5404 C   0  0  0  0  0  0
  -19.5722  -26.6362   21.5207 C   0  0  0  0  0  0
  -18.1901  -26.7916   22.1624 C   0  0  0  0  0  0
  -19.1533  -28.8839   23.2869 C   0  0  0  0  0  0
  -18.9462  -30.1446   23.8878 C   0  0  0  0  0  0
  -17.6461  -30.6580   24.0556 C   0  0  0  0  0  0
  -25.9050  -34.9449   23.5112 C   0  0  0  0  0  0
  -16.5345  -29.9068   23.6347 C   0  0  0  0  0  0
  -16.7257  -28.6487   23.0376 C   0  0  0  0  0  0
  -26.4512  -31.6605   25.0770 C   0  0  0  0  0  0
  -25.3758  -31.3712   26.1505 C   0  0  0  0  0  0
  -27.0399  -30.3042   24.6250 C   0  0  0  0  0  0
  -27.6043  -32.4369   25.7562 C   0  0  0  0  0  0
  -27.5562  -37.1785   24.8475 C   0  0  0  0  0  0
  -21.4201  -29.3037   22.3690 N   0  0  0  0  0  0
  -26.4272  -37.3777   23.9426 N   0  0  0  0  0  0
  -24.6917  -31.0579   22.1015 N   0  0  0  0  0  0
  -23.4212  -28.8130   23.3021 O   0  0  0  0  0  0
  -28.2941  -26.3905   20.1714 O   0  0  0  0  0  0
  -26.5609  -34.8909   22.4676 O   0  0  0  0  0  0
  -23.5455  -32.1397   23.7378 O   0  0  0  0  0  0
  -29.0031  -23.8242   20.2461 C   0  0  0  0  0  0
  -29.6370  -16.0747   18.7095 C   0  0  0  0  0  0
  -30.1115  -17.2521   20.8119 C   0  0  0  0  0  0
  -29.2361  -17.4948   18.2535 C   0  0  0  0  0  0
  -28.9731  -18.3747   20.5503 C   0  0  1  0  0  0
  -29.7658  -19.9306   22.4904 C   0  0  0  0  0  0
  -26.0076  -18.4358   18.3594 C   0  0  0  0  0  0
  -27.8457  -19.8671   17.3901 C   0  0  0  0  0  0
  -27.9754  -24.9883   20.5997 C   0  0  0  0  0  0
  -29.4852  -21.2332   20.3056 C   0  0  0  0  0  0
  -29.0472  -19.9140   21.1282 C   0  0  1  0  0  0
  -27.3475  -19.1347   18.6616 C   0  0  0  0  0  0
  -29.8790  -15.8844   20.1652 N   0  0  0  0  0  0
  -28.7312  -22.5202   20.6102 N   0  0  0  0  0  0
  -28.3203  -18.1401   19.2215 N   0  3  1  0  0  0
  -30.0361  -24.1008   19.6323 O   0  0  0  0  0  0
  -31.4702  -12.5888   19.1163 H   0  0  0  0  0  0
  -30.4001  -11.4827   19.9351 H   0  0  0  0  0  0
  -29.7615  -11.6947   17.5090 H   0  0  0  0  0  0
  -29.6318  -13.4137   17.6625 H   0  0  0  0  0  0
  -27.8521  -11.2846   18.8676 H   0  0  0  0  0  0
  -27.3627  -12.5710   17.7985 H   0  0  0  0  0  0
  -27.5892  -14.2316   19.5031 H   0  0  0  0  0  0
  -28.7580  -12.1645   21.4167 H   0  0  0  0  0  0
  -28.4515  -13.8484   21.7860 H   0  0  0  0  0  0
  -25.2715   -9.5615   22.4749 H   0  0  0  0  0  0
  -23.9937   -7.4578   22.7497 H   0  0  0  0  0  0
  -21.0822   -8.8686   19.8904 H   0  0  0  0  0  0
  -22.3692  -10.9588   19.6114 H   0  0  0  0  0  0
  -21.1990   -7.6127   23.9698 H   0  0  0  0  0  0
  -21.1480   -6.0520   25.9078 H   0  0  0  0  0  0
  -22.0616   -2.7580   23.2858 H   0  0  0  0  0  0
  -22.4046  -11.9783   22.4663 H   0  0  0  0  0  0
  -21.1071  -13.1214   22.2621 H   0  0  0  0  0  0
  -24.6641  -15.8395   20.5317 H   0  0  0  0  0  0
  -26.3127  -15.6064   20.2145 H   0  0  0  0  0  0
  -26.7202  -32.5443   23.1138 H   0  0  0  0  0  0
  -25.0145  -33.9732   25.0488 H   0  0  0  0  0  0
  -22.7150  -31.3050   21.4099 H   0  0  0  0  0  0
  -23.3750  -35.9591   23.3313 H   0  0  0  0  0  0
  -24.3542  -36.8900   22.2054 H   0  0  0  0  0  0
  -23.7224  -37.6465   23.6679 H   0  0  0  0  0  0
  -26.1034  -31.5466   20.6140 H   0  0  0  0  0  0
  -26.8464  -30.8272   22.0135 H   0  0  0  0  0  0
  -28.1148  -28.9481   21.2073 H   0  0  0  0  0  0
  -25.9758  -25.9570   18.9380 H   0  0  0  0  0  0
  -23.9689  -27.3327   18.9844 H   0  0  0  0  0  0
  -23.7563  -30.6031   19.4111 H   0  0  0  0  0  0
  -22.7561  -29.2559   19.8604 H   0  0  0  0  0  0
  -25.1280  -36.1911   25.0832 H   0  0  0  0  0  0
  -20.9958  -28.3232   24.1403 H   0  0  0  0  0  0
  -20.5632  -26.2280   23.3599 H   0  0  0  0  0  0
  -21.6614  -26.7387   22.1211 H   0  0  0  0  0  0
  -19.6867  -25.6269   21.1241 H   0  0  0  0  0  0
  -19.6659  -27.3161   20.6727 H   0  0  0  0  0  0
  -17.4171  -26.6686   21.4020 H   0  0  0  0  0  0
  -18.0279  -26.0046   22.9006 H   0  0  0  0  0  0
  -19.7935  -30.7273   24.2225 H   0  0  0  0  0  0
  -17.5016  -31.6264   24.5160 H   0  0  0  0  0  0
  -15.5344  -30.2969   23.7679 H   0  0  0  0  0  0
  -15.8661  -28.0793   22.7112 H   0  0  0  0  0  0
  -24.5928  -30.7070   25.7836 H   0  0  0  0  0  0
  -24.8963  -32.2868   26.4974 H   0  0  0  0  0  0
  -25.8106  -30.8867   27.0264 H   0  0  0  0  0  0
  -26.3004  -29.6760   24.1278 H   0  0  0  0  0  0
  -27.4112  -29.7321   25.4766 H   0  0  0  0  0  0
  -27.8858  -30.4350   23.9496 H   0  0  0  0  0  0
  -27.2619  -33.3664   26.2126 H   0  0  0  0  0  0
  -28.3866  -32.6952   25.0412 H   0  0  0  0  0  0
  -28.0715  -31.8531   26.5508 H   0  0  0  0  0  0
  -28.2577  -38.0080   24.7531 H   0  0  0  0  0  0
  -28.1057  -36.2615   24.6302 H   0  0  0  0  0  0
  -27.2277  -37.1435   25.8875 H   0  0  0  0  0  0
  -20.9371  -29.8809   21.6951 H   0  0  0  0  0  0
  -26.0148  -38.2841   24.1463 H   0  0  0  0  0  0
  -30.5107  -15.7752   18.1255 H   0  0  0  0  0  0
  -28.8437  -15.4094   18.3822 H   0  0  0  0  0  0
  -30.2507  -17.1152   21.8858 H   0  0  0  0  0  0
  -31.0697  -17.6322   20.4506 H   0  0  0  0  0  0
  -28.7717  -17.4075   17.2716 H   0  0  0  0  0  0
  -30.1189  -18.1233   18.1277 H   0  0  0  0  0  0
  -28.1798  -17.9824   21.1879 H   0  0  0  0  0  0
  -29.3575  -19.1818   23.1680 H   0  0  0  0  0  0
  -29.6621  -20.9015   22.9803 H   0  0  0  0  0  0
  -30.8347  -19.7355   22.3875 H   0  0  0  0  0  0
  -25.2644  -19.1547   18.0129 H   0  0  0  0  0  0
  -25.5908  -17.9518   19.2424 H   0  0  0  0  0  0
  -26.1039  -17.6749   17.5812 H   0  0  0  0  0  0
  -27.3044  -20.8021   17.2486 H   0  0  0  0  0  0
  -27.6875  -19.2734   16.4882 H   0  0  0  0  0  0
  -28.9051  -20.1178   17.4254 H   0  0  0  0  0  0
  -27.8639  -25.0034   21.6835 H   0  0  0  0  0  0
  -27.0129  -24.6470   20.2237 H   0  0  0  0  0  0
  -29.4196  -21.0593   19.2402 H   0  0  0  0  0  0
  -30.5477  -21.4247   20.4777 H   0  0  0  0  0  0
  -28.0088  -20.1319   21.3890 H   0  0  0  0  0  0
  -27.1190  -19.8895   19.4118 H   0  0  0  0  0  0
  -27.8559  -22.4007   21.1040 H   0  0  0  0  0  0
  -27.6964  -17.3848   19.4520 H   0  0  0  0  0  0
  1 25  1  0  0  0
  1 30  2  0  0  0
  1 83  1  0  0  0
  2  3  1  0  0  0
  2 25  1  0  0  0
  2 87  1  0  0  0
  2 88  1  0  0  0
  3  4  1  0  0  0
  3 89  1  0  0  0
  3 90  1  0  0  0
  4  5  1  0  0  0
  4 91  1  0  0  0
  4 92  1  0  0  0
  5  6  1  0  0  0
  5 26  1  0  0  0
  5 93  1  0  0  0
  6 25  1  0  0  0
  6 94  1  0  0  0
  6 95  1  0  0  0
  7  8  2  0  0  0
  7 26  1  0  0  0
  7 29  1  0  0  0
  8  9  1  0  0  0
  8 22  1  0  0  0
  9 10  1  0  0  0
  9 27  2  0  0  0
 10 11  2  0  0  0
 10 15  1  0  0  0
 11 12  1  0  0  0
 11 96  1  0  0  0
 12 13  2  0  0  0
 12 97  1  0  0  0
 13 14  1  0  0  0
 13 31  1  0  0  0
 14 15  2  0  0  0
 14 98  1  0  0  0
 15 99  1  0  0  0
 16 17  2  0  0  0
 16 21  1  0  0  0
 16 31  1  0  0  0
 17 18  1  0  0  0
 17100  1  0  0  0
 18 19  2  0  0  0
 18101  1  0  0  0
 19 20  1  0  0  0
 19 24  1  0  0  0
 20 21  2  0  0  0
 20102  1  0  0  0
 21 23  1  0  0  0
 22 28  1  0  0  0
 22 32  2  0  0  0
 26 27  1  0  0  0
 28103  1  0  0  0
 28104  1  0  0  0
 29105  1  0  0  0
 29106  1  0  0  0
 33 34  1  0  0  0
 33 66  1  0  0  0
 33 70  2  0  0  0
 34 36  1  0  0  0
 34 59  1  0  0  0
 34107  1  0  0  0
 35 44  2  0  0  0
 35 45  1  0  0  0
 35 68  1  0  0  0
 36 56  1  0  0  0
 36108  1  0  0  0
 37 39  1  0  0  0
 37 47  1  0  0  0
 37 66  1  0  0  0
 37109  1  0  0  0
 38 43  2  0  0  0
 38 46  1  0  0  0
 38 47  1  0  0  0
 39 64  1  0  0  0
 39 67  2  0  0  0
 40 52  1  0  0  0
 40 53  2  0  0  0
 40 58  1  0  0  0
 41110  1  0  0  0
 41111  1  0  0  0
 41112  1  0  0  0
 41 48  1  0  0  0
 42 43  1  0  0  0
 42 66  1  0  0  0
 42113  1  0  0  0
 42114  1  0  0  0
 43 44  1  0  0  0
 44115  1  0  0  0
 45 46  2  0  0  0
 45116  1  0  0  0
 46117  1  0  0  0
 47118  1  0  0  0
 47119  1  0  0  0
 48 56  1  0  0  0
 48 65  1  0  0  0
 48120  1  0  0  0
 49 50  1  0  0  0
 49 53  1  0  0  0
 49 64  1  0  0  0
 49121  1  0  0  0
 50 51  1  0  0  0
 50122  1  0  0  0
 50123  1  0  0  0
 51 52  1  0  0  0
 51124  1  0  0  0
 51125  1  0  0  0
 52126  1  0  0  0
 52127  1  0  0  0
 53 54  1  0  0  0
 54 55  2  0  0  0
 54128  1  0  0  0
 55 57  1  0  0  0
 55129  1  0  0  0
 56 69  2  0  0  0
 57 58  2  0  0  0
 57130  1  0  0  0
 58131  1  0  0  0
 59 60  1  0  0  0
 59 61  1  0  0  0
 59 62  1  0  0  0
 60132  1  0  0  0
 60133  1  0  0  0
 60134  1  0  0  0
 61135  1  0  0  0
 61136  1  0  0  0
 61137  1  0  0  0
 62138  1  0  0  0
 62139  1  0  0  0
 62140  1  0  0  0
 63 65  1  0  0  0
 63141  1  0  0  0
 63142  1  0  0  0
 63143  1  0  0  0
 64144  1  0  0  0
 65145  1  0  0  0
 68 79  1  0  0  0
 71 79  1  0  0  0
 71 84  1  0  0  0
 71 86  2  0  0  0
 72 74  1  0  0  0
 72 83  1  0  0  0
 72146  1  0  0  0
 72147  1  0  0  0
 73 83  1  0  0  0
 73148  1  0  0  0
 73149  1  0  0  0
 73 75  1  0  0  0
 74150  1  0  0  0
 74151  1  0  0  0
 74 85  1  0  0  0
 75 81  1  0  0  0
 75 85  1  0  0  0
 75152  1  0  0  0
 76153  1  0  0  0
 76154  1  0  0  0
 76155  1  0  0  0
 76 81  1  0  0  0
 77156  1  0  0  0
 77157  1  0  0  0
 77158  1  0  0  0
 77 82  1  0  0  0
 78 82  1  0  0  0
 78159  1  0  0  0
 78160  1  0  0  0
 78161  1  0  0  0
 79162  1  0  0  0
 79163  1  0  0  0
 80 81  1  0  0  0
 80 84  1  0  0  0
 80164  1  0  0  0
 80165  1  0  0  0
 81166  1  0  0  0
 82 85  1  0  0  0
 82167  1  0  0  0
 84168  1  0  0  0
 85169  1  0  0  0
M  CHG  1  85   1
M  ISO  4   1 100  68 101  79 101  83 100
M  END
> <chiral flag>
0

> <version>
0

> <s_m_source_file>
/data/baiqing/PycharmProjects/Reinvent-master-3.2/result/LINK_invent/BTK/process_docking_weight1_custom_sum_contain_oxygen_bond_distance_aromatic_linkinvent_7_9_3/rearranged_h_0109.sdf

> <i_m_source_file_index>
96

> <r_mmod_Potential_Energy-OPLS-2005>
378.791717529297

> <r_mmod_Stretch_Energy-OPLS-2005>
125.069465637207

> <r_mmod_Bend_Energy-OPLS-2005>
218.885818481445

> <r_mmod_Torsional_Energy-OPLS-2005>
463.236633300781

> <r_mmod_Improper_Torsional_Energy-OPLS-2005>
16.5298557281494

> <r_mmod_Van_der_Waal_Energy-OPLS-2005>
132.00358581543

> <r_mmod_Electrostatic_Energy-OPLS-2005>
-174.583633422852

> <r_mmod_Solvation_Energy-OPLS-2005>
-486.633087158203

> <b_mmod_Minimization_Converged-OPLS-2005>
0

> <r_mmod_RMS_Derivative-OPLS-2005>
3.67422914505005

$$$$
96
                    3D
 Structure written by MMmdl.
162170  0  0  1  0            999 V2000
  -30.5480  -14.7481   20.4830 C   0  0  0  0  0  0
  -30.4612  -12.4586   19.4569 C   0  0  0  0  0  0
  -29.5194  -12.5155   18.2297 C   0  0  0  0  0  0
  -28.0442  -12.3301   18.6432 C   0  0  0  0  0  0
  -27.6539  -13.2112   19.8583 C   0  0  2  0  0  0
  -28.7016  -13.0840   20.9882 C   0  0  0  0  0  0
  -25.2594  -13.8147   20.5679 C   0  0  0  0  0  0
  -24.1850  -13.0435   20.9191 C   0  0  0  0  0  0
  -24.6398  -11.6901   20.8739 C   0  0  0  0  0  0
  -23.9054  -10.4294   21.0418 C   0  0  0  0  0  0
  -24.3608   -9.4215   21.9194 C   0  0  0  0  0  0
  -23.6294   -8.2246   22.0757 C   0  0  0  0  0  0
  -22.4277   -8.0279   21.3545 C   0  0  0  0  0  0
  -21.9909   -9.0256   20.4654 C   0  0  0  0  0  0
  -22.7230  -10.2142   20.3066 C   0  0  0  0  0  0
  -21.6851   -6.0746   22.5284 C   0  0  0  0  0  0
  -21.4013   -6.5648   23.8222 C   0  0  0  0  0  0
  -21.3654   -5.6794   24.9179 C   0  0  0  0  0  0
  -21.6039   -4.3056   24.7226 C   0  0  0  0  0  0
  -21.8818   -3.8154   23.4344 C   0  0  0  0  0  0
  -21.9196   -4.6973   22.3405 C   0  0  0  0  0  0
  -22.7878  -13.5258   21.1840 C   0  0  0  0  0  0
  -22.1664   -4.2163   21.0982 F   0  0  0  0  0  0
  -21.5628   -3.4536   25.7734 F   0  0  0  0  0  0
  -30.0055  -13.4809   20.4253 N   0  0  0  0  0  0
  -26.2999  -12.9309   20.3281 N   0  0  0  0  0  0
  -25.9324  -11.6473   20.5726 N   0  0  0  0  0  0
  -22.0490  -12.8282   22.0391 N   0  0  0  0  0  0
  -25.4330  -15.1870   20.4109 N   0  0  0  0  0  0
  -31.7076  -14.9518   20.1025 O   0  0  0  0  0  0
  -21.6632   -6.8886   21.4247 O   0  0  0  0  0  0
  -22.3585  -14.5567   20.6674 O   0  0  0  0  0  0
  -24.6346  -31.8544   23.1977 C   0  0  0  0  0  0
  -25.9163  -32.4754   23.8324 C   0  0  1  0  0  0
  -27.2250  -27.2488   20.1282 C   0  0  0  0  0  0
  -25.5958  -33.8555   24.2256 N   0  0  0  0  0  0
  -23.4320  -30.4775   21.5407 C   0  0  2  0  0  0
  -24.8792  -28.9224   20.1119 C   0  0  0  0  0  0
  -22.7527  -29.4599   22.4893 C   0  0  0  0  0  0
  -18.0303  -28.1395   22.8488 C   0  0  0  0  0  0
  -24.1480  -36.7279   23.2638 C   0  0  0  0  0  0
  -25.9792  -30.7651   21.3771 C   0  0  0  0  0  0
  -26.0528  -29.3858   20.7195 C   0  0  0  0  0  0
  -27.2275  -28.5627   20.7147 C   0  0  0  0  0  0
  -26.0216  -26.8572   19.4954 C   0  0  0  0  0  0
  -24.8687  -27.6660   19.4902 C   0  0  0  0  0  0
  -23.6523  -29.8136   20.1569 C   0  0  0  0  0  0
  -25.4105  -36.3066   24.0331 C   0  0  1  0  0  0
  -20.5910  -28.3702   23.1265 C   0  0  2  0  0  0
  -20.6781  -26.9413   22.5418 C   0  0  0  0  0  0
  -19.5758  -26.6390   21.5216 C   0  0  0  0  0  0
  -18.1934  -26.7943   22.1620 C   0  0  0  0  0  0
  -19.1559  -28.8868   23.2869 C   0  0  0  0  0  0
  -18.9481  -30.1472   23.8874 C   0  0  0  0  0  0
  -17.6479  -30.6592   24.0568 C   0  0  0  0  0  0
  -25.9060  -34.9441   23.5094 C   0  0  0  0  0  0
  -16.5370  -29.9093   23.6335 C   0  0  0  0  0  0
  -16.7291  -28.6519   23.0345 C   0  0  0  0  0  0
  -26.4521  -31.6592   25.0720 C   0  0  0  0  0  0
  -25.3745  -31.3781   26.1450 C   0  0  0  0  0  0
  -27.0370  -30.3005   24.6220 C   0  0  0  0  0  0
  -27.6069  -32.4344   25.7497 C   0  0  0  0  0  0
  -27.5573  -37.1783   24.8460 C   0  0  0  0  0  0
  -21.4231  -29.3044   22.3648 N   0  0  0  0  0  0
  -26.4270  -37.3775   23.9428 N   0  0  0  0  0  0
  -24.7014  -31.0503   22.0953 N   0  0  0  0  0  0
  -23.4224  -28.8139   23.2994 O   0  0  0  0  0  0
  -28.3200  -26.3452   20.1817 O   0  0  0  0  0  0
  -26.5617  -34.8929   22.4652 O   0  0  0  0  0  0
  -23.5497  -32.1356   23.7279 O   0  0  0  0  0  0
  -28.3800  -17.6209   21.7422 C   0  0  0  0  0  0
  -28.3337  -18.9916   21.6939 C   0  0  0  0  0  0
  -29.4736  -17.2022   20.9430 C   0  0  0  0  0  0
  -26.9861  -19.3016   23.8151 C   0  0  0  0  0  0
  -26.1062  -20.1438   21.6162 C   0  0  0  0  0  0
  -30.3431  -23.8982   19.3150 C   0  0  0  0  0  0
  -28.7104  -22.1405   20.2853 C   0  0  0  0  0  0
  -29.7571  -20.9019   20.5228 C   0  0  0  0  0  0
  -28.0636  -24.8623   20.0349 C   0  0  0  0  0  0
  -27.3757  -19.8745   22.4418 C   0  0  0  0  0  0
  -29.1802  -23.7058   20.2972 C   0  0  2  0  0  0
  -30.0476  -18.3130   20.3852 N   0  0  0  0  0  0
  -29.3227  -19.4504   20.8176 N   0  0  0  0  0  0
  -29.6524  -15.7321   20.8624 N   0  0  0  0  0  0
  -31.4937  -12.6290   19.1467 H   0  0  0  0  0  0
  -30.4433  -11.4673   19.9126 H   0  0  0  0  0  0
  -29.8030  -11.7539   17.5024 H   0  0  0  0  0  0
  -29.6359  -13.4748   17.7226 H   0  0  0  0  0  0
  -27.9008  -11.2775   18.8914 H   0  0  0  0  0  0
  -27.3851  -12.5330   17.7982 H   0  0  0  0  0  0
  -27.6617  -14.2410   19.5009 H   0  0  0  0  0  0
  -28.7437  -12.0569   21.3541 H   0  0  0  0  0  0
  -28.4231  -13.6889   21.8526 H   0  0  0  0  0  0
  -25.2759   -9.5700   22.4763 H   0  0  0  0  0  0
  -24.0011   -7.4640   22.7473 H   0  0  0  0  0  0
  -21.0841   -8.8779   19.8967 H   0  0  0  0  0  0
  -22.3690  -10.9679   19.6176 H   0  0  0  0  0  0
  -21.1999   -7.6155   23.9732 H   0  0  0  0  0  0
  -21.1476   -6.0519   25.9085 H   0  0  0  0  0  0
  -22.0600   -2.7618   23.2833 H   0  0  0  0  0  0
  -22.4077  -11.9946   22.4801 H   0  0  0  0  0  0
  -21.1111  -13.1348   22.2557 H   0  0  0  0  0  0
  -24.6624  -15.8368   20.5160 H   0  0  0  0  0  0
  -26.2713  -15.6246   20.0512 H   0  0  0  0  0  0
  -26.7231  -32.5398   23.1071 H   0  0  0  0  0  0
  -25.0126  -33.9678   25.0416 H   0  0  0  0  0  0
  -22.7291  -31.2997   21.3941 H   0  0  0  0  0  0
  -23.3753  -35.9598   23.3282 H   0  0  0  0  0  0
  -24.3572  -36.8922   22.2055 H   0  0  0  0  0  0
  -23.7214  -37.6470   23.6670 H   0  0  0  0  0  0
  -26.1158  -31.5262   20.6074 H   0  0  0  0  0  0
  -26.8576  -30.8153   22.0087 H   0  0  0  0  0  0
  -28.1246  -28.9143   21.2054 H   0  0  0  0  0  0
  -25.9338  -25.8994   19.0069 H   0  0  0  0  0  0
  -23.9698  -27.3043   19.0101 H   0  0  0  0  0  0
  -23.7854  -30.5912   19.4036 H   0  0  0  0  0  0
  -22.7690  -29.2536   19.8461 H   0  0  0  0  0  0
  -25.1283  -36.1898   25.0821 H   0  0  0  0  0  0
  -21.0002  -28.3280   24.1385 H   0  0  0  0  0  0
  -20.5666  -26.2314   23.3630 H   0  0  0  0  0  0
  -21.6648  -26.7425   22.1212 H   0  0  0  0  0  0
  -19.6910  -25.6303   21.1241 H   0  0  0  0  0  0
  -19.6696  -27.3205   20.6748 H   0  0  0  0  0  0
  -17.4212  -26.6715   21.4008 H   0  0  0  0  0  0
  -18.0312  -26.0081   22.9009 H   0  0  0  0  0  0
  -19.7957  -30.7300   24.2211 H   0  0  0  0  0  0
  -17.5037  -31.6257   24.5198 H   0  0  0  0  0  0
  -15.5370  -30.2991   23.7667 H   0  0  0  0  0  0
  -15.8695  -28.0848   22.7036 H   0  0  0  0  0  0
  -24.5918  -30.7114   25.7819 H   0  0  0  0  0  0
  -24.8939  -32.2969   26.4824 H   0  0  0  0  0  0
  -25.8068  -30.9020   27.0257 H   0  0  0  0  0  0
  -26.2960  -29.6746   24.1228 H   0  0  0  0  0  0
  -27.4030  -29.7279   25.4752 H   0  0  0  0  0  0
  -27.8852  -30.4285   23.9488 H   0  0  0  0  0  0
  -27.2658  -33.3640   26.2073 H   0  0  0  0  0  0
  -28.3884  -32.6913   25.0333 H   0  0  0  0  0  0
  -28.0732  -31.8470   26.5418 H   0  0  0  0  0  0
  -28.2589  -38.0083   24.7527 H   0  0  0  0  0  0
  -28.1071  -36.2618   24.6253 H   0  0  0  0  0  0
  -27.2308  -37.1410   25.8867 H   0  0  0  0  0  0
  -20.9415  -29.8798   21.6882 H   0  0  0  0  0  0
  -26.0148  -38.2846   24.1453 H   0  0  0  0  0  0
  -27.7123  -16.9919   22.3133 H   0  0  0  0  0  0
  -27.8671  -19.1425   24.4375 H   0  0  0  0  0  0
  -26.4599  -18.3510   23.7291 H   0  0  0  0  0  0
  -26.3295  -19.9864   24.3519 H   0  0  0  0  0  0
  -26.3423  -20.5365   20.6280 H   0  0  0  0  0  0
  -25.4556  -20.8633   22.1144 H   0  0  0  0  0  0
  -25.5358  -19.2266   21.4658 H   0  0  0  0  0  0
  -31.1673  -23.2192   19.5343 H   0  0  0  0  0  0
  -30.7365  -24.9140   19.3652 H   0  0  0  0  0  0
  -30.0263  -23.7159   18.2880 H   0  0  0  0  0  0
  -27.9299  -22.1032   21.0341 H   0  0  0  0  0  0
  -28.1939  -21.9505   19.3440 H   0  0  0  0  0  0
  -30.4059  -21.1897   21.3504 H   0  0  0  0  0  0
  -30.4136  -20.8606   19.6539 H   0  0  0  0  0  0
  -27.2179  -24.6257   20.6824 H   0  0  0  0  0  0
  -27.7115  -24.6998   19.0160 H   0  0  0  0  0  0
  -27.8740  -20.8144   22.6668 H   0  0  0  0  0  0
  -29.5747  -23.8913   21.2972 H   0  0  0  0  0  0
  -28.8270  -15.2626   21.1965 H   0  0  0  0  0  0
  1 25  1  0  0  0
  1 30  2  0  0  0
  1 84  1  0  0  0
  2  3  1  0  0  0
  2 25  1  0  0  0
  2 85  1  0  0  0
  2 86  1  0  0  0
  3  4  1  0  0  0
  3 87  1  0  0  0
  3 88  1  0  0  0
  4  5  1  0  0  0
  4 89  1  0  0  0
  4 90  1  0  0  0
  5  6  1  0  0  0
  5 26  1  0  0  0
  5 91  1  0  0  0
  6 25  1  0  0  0
  6 92  1  0  0  0
  6 93  1  0  0  0
  7  8  2  0  0  0
  7 26  1  0  0  0
  7 29  1  0  0  0
  8  9  1  0  0  0
  8 22  1  0  0  0
  9 10  1  0  0  0
  9 27  2  0  0  0
 10 11  2  0  0  0
 10 15  1  0  0  0
 11 12  1  0  0  0
 11 94  1  0  0  0
 12 13  2  0  0  0
 12 95  1  0  0  0
 13 14  1  0  0  0
 13 31  1  0  0  0
 14 15  2  0  0  0
 14 96  1  0  0  0
 15 97  1  0  0  0
 16 17  2  0  0  0
 16 21  1  0  0  0
 16 31  1  0  0  0
 17 18  1  0  0  0
 17 98  1  0  0  0
 18 19  2  0  0  0
 18 99  1  0  0  0
 19 20  1  0  0  0
 19 24  1  0  0  0
 20 21  2  0  0  0
 20100  1  0  0  0
 21 23  1  0  0  0
 22 28  1  0  0  0
 22 32  2  0  0  0
 26 27  1  0  0  0
 28101  1  0  0  0
 28102  1  0  0  0
 29103  1  0  0  0
 29104  1  0  0  0
 33 34  1  0  0  0
 33 66  1  0  0  0
 33 70  2  0  0  0
 34 36  1  0  0  0
 34 59  1  0  0  0
 34105  1  0  0  0
 35 44  2  0  0  0
 35 45  1  0  0  0
 35 68  1  0  0  0
 36 56  1  0  0  0
 36106  1  0  0  0
 37 39  1  0  0  0
 37 47  1  0  0  0
 37 66  1  0  0  0
 37107  1  0  0  0
 38 43  2  0  0  0
 38 46  1  0  0  0
 38 47  1  0  0  0
 39 64  1  0  0  0
 39 67  2  0  0  0
 40 52  1  0  0  0
 40 53  2  0  0  0
 40 58  1  0  0  0
 41108  1  0  0  0
 41109  1  0  0  0
 41110  1  0  0  0
 41 48  1  0  0  0
 42 43  1  0  0  0
 42 66  1  0  0  0
 42111  1  0  0  0
 42112  1  0  0  0
 43 44  1  0  0  0
 44113  1  0  0  0
 45 46  2  0  0  0
 45114  1  0  0  0
 46115  1  0  0  0
 47116  1  0  0  0
 47117  1  0  0  0
 48 56  1  0  0  0
 48 65  1  0  0  0
 48118  1  0  0  0
 49 50  1  0  0  0
 49 53  1  0  0  0
 49 64  1  0  0  0
 49119  1  0  0  0
 50 51  1  0  0  0
 50120  1  0  0  0
 50121  1  0  0  0
 51 52  1  0  0  0
 51122  1  0  0  0
 51123  1  0  0  0
 52124  1  0  0  0
 52125  1  0  0  0
 53 54  1  0  0  0
 54 55  2  0  0  0
 54126  1  0  0  0
 55 57  1  0  0  0
 55127  1  0  0  0
 56 69  2  0  0  0
 57 58  2  0  0  0
 57128  1  0  0  0
 58129  1  0  0  0
 59 60  1  0  0  0
 59 61  1  0  0  0
 59 62  1  0  0  0
 60130  1  0  0  0
 60131  1  0  0  0
 60132  1  0  0  0
 61133  1  0  0  0
 61134  1  0  0  0
 61135  1  0  0  0
 62136  1  0  0  0
 62137  1  0  0  0
 62138  1  0  0  0
 63 65  1  0  0  0
 63139  1  0  0  0
 63140  1  0  0  0
 63141  1  0  0  0
 64142  1  0  0  0
 65143  1  0  0  0
 68 79  1  0  0  0
 71 72  2  0  0  0
 71 73  1  0  0  0
 71144  1  0  0  0
 72 80  1  0  0  0
 72 83  1  0  0  0
 73 82  2  0  0  0
 73 84  1  0  0  0
 74145  1  0  0  0
 74146  1  0  0  0
 74147  1  0  0  0
 74 80  1  0  0  0
 75 80  1  0  0  0
 75148  1  0  0  0
 75149  1  0  0  0
 75150  1  0  0  0
 76151  1  0  0  0
 76152  1  0  0  0
 76153  1  0  0  0
 76 81  1  0  0  0
 77 78  1  0  0  0
 77 81  1  0  0  0
 77154  1  0  0  0
 77155  1  0  0  0
 78 83  1  0  0  0
 78156  1  0  0  0
 78157  1  0  0  0
 79 81  1  0  0  0
 79158  1  0  0  0
 79159  1  0  0  0
 80160  1  0  0  0
 81161  1  0  0  0
 82 83  1  0  0  0
 84162  1  0  0  0
M  ISO  4   1 100  68 101  79 101  84 100
M  END
> <chiral flag>
0

> <version>
0

> <s_m_source_file>
/data/baiqing/PycharmProjects/Reinvent-master-3.2/result/LINK_invent/BTK/process_docking_weight1_custom_sum_contain_oxygen_bond_distance_aromatic_linkinvent_7_9_3/rearranged_h_0109.sdf

> <i_m_source_file_index>
97

> <r_mmod_Potential_Energy-OPLS-2005>
190.307022094727

> <r_mmod_Stretch_Energy-OPLS-2005>
137.65022277832

> <r_mmod_Bend_Energy-OPLS-2005>
233.19189453125

> <r_mmod_Torsional_Energy-OPLS-2005>
224.763549804688

> <r_mmod_Improper_Torsional_Energy-OPLS-2005>
4.38843154907227

> <r_mmod_Van_der_Waal_Energy-OPLS-2005>
116.170425415039

> <r_mmod_Electrostatic_Energy-OPLS-2005>
-392.301300048828

> <r_mmod_Solvation_Energy-OPLS-2005>
-223.606719970703

> <b_mmod_Minimization_Converged-OPLS-2005>
0

> <r_mmod_RMS_Derivative-OPLS-2005>
1.49828469753265

$$$$
97
                    3D
 Structure written by MMmdl.
168176  0  0  1  0            999 V2000
  -30.6217  -14.6013   20.5414 C   0  0  0  0  0  0
  -30.4461  -12.3805   19.4370 C   0  0  0  0  0  0
  -29.5065  -12.5104   18.2161 C   0  0  0  0  0  0
  -28.0290  -12.3477   18.6297 C   0  0  0  0  0  0
  -27.6579  -13.2051   19.8684 C   0  0  2  0  0  0
  -28.7031  -13.0214   20.9928 C   0  0  0  0  0  0
  -25.2586  -13.8143   20.5672 C   0  0  0  0  0  0
  -24.1840  -13.0427   20.9187 C   0  0  0  0  0  0
  -24.6392  -11.6893   20.8738 C   0  0  0  0  0  0
  -23.9055  -10.4285   21.0408 C   0  0  0  0  0  0
  -24.3609   -9.4202   21.9186 C   0  0  0  0  0  0
  -23.6286   -8.2239   22.0756 C   0  0  0  0  0  0
  -22.4269   -8.0278   21.3545 C   0  0  0  0  0  0
  -21.9901   -9.0252   20.4649 C   0  0  0  0  0  0
  -22.7229  -10.2131   20.3058 C   0  0  0  0  0  0
  -21.6851   -6.0732   22.5279 C   0  0  0  0  0  0
  -21.4013   -6.5638   23.8212 C   0  0  0  0  0  0
  -21.3658   -5.6791   24.9175 C   0  0  0  0  0  0
  -21.6044   -4.3054   24.7227 C   0  0  0  0  0  0
  -21.8820   -3.8145   23.4348 C   0  0  0  0  0  0
  -21.9192   -4.6961   22.3403 C   0  0  0  0  0  0
  -22.7865  -13.5235   21.1850 C   0  0  0  0  0  0
  -22.1661   -4.2147   21.0980 F   0  0  0  0  0  0
  -21.5629   -3.4538   25.7740 F   0  0  0  0  0  0
  -30.0225  -13.3749   20.4398 N   0  0  0  0  0  0
  -26.3007  -12.9301   20.3326 N   0  0  0  0  0  0
  -25.9317  -11.6470   20.5755 N   0  0  0  0  0  0
  -22.0495  -12.8236   22.0403 N   0  0  0  0  0  0
  -25.4308  -15.1863   20.4063 N   0  0  0  0  0  0
  -31.7570  -14.8226   20.1065 O   0  0  0  0  0  0
  -21.6634   -6.8875   21.4241 O   0  0  0  0  0  0
  -22.3563  -14.5548   20.6699 O   0  0  0  0  0  0
  -24.6229  -31.8621   23.2046 C   0  0  0  0  0  0
  -25.9088  -32.4792   23.8367 C   0  0  1  0  0  0
  -27.2289  -27.3482   20.1188 C   0  0  0  0  0  0
  -25.5914  -33.8592   24.2295 N   0  0  0  0  0  0
  -23.4156  -30.4850   21.5466 C   0  0  2  0  0  0
  -24.8632  -28.9407   20.1152 C   0  0  0  0  0  0
  -22.7457  -29.4632   22.4953 C   0  0  0  0  0  0
  -18.0282  -28.1384   22.8489 C   0  0  0  0  0  0
  -24.1488  -36.7303   23.2638 C   0  0  0  0  0  0
  -25.9534  -30.8018   21.3713 C   0  0  0  0  0  0
  -26.0295  -29.4297   20.7177 C   0  0  0  0  0  0
  -27.2170  -28.6451   20.7090 C   0  0  0  0  0  0
  -26.0446  -26.9056   19.4889 C   0  0  0  0  0  0
  -24.8706  -27.6823   19.4928 C   0  0  0  0  0  0
  -23.6297  -29.8179   20.1623 C   0  0  0  0  0  0
  -25.4111  -36.3094   24.0332 C   0  0  1  0  0  0
  -20.5879  -28.3683   23.1294 C   0  0  2  0  0  0
  -20.6771  -26.9410   22.5412 C   0  0  0  0  0  0
  -19.5748  -26.6385   21.5213 C   0  0  0  0  0  0
  -18.1928  -26.7928   22.1626 C   0  0  0  0  0  0
  -19.1533  -28.8850   23.2888 C   0  0  0  0  0  0
  -18.9457  -30.1452   23.8905 C   0  0  0  0  0  0
  -17.6458  -30.6587   24.0564 C   0  0  0  0  0  0
  -25.9044  -34.9460   23.5113 C   0  0  0  0  0  0
  -16.5350  -29.9087   23.6327 C   0  0  0  0  0  0
  -16.7269  -28.6503   23.0351 C   0  0  0  0  0  0
  -26.4486  -31.6593   25.0725 C   0  0  0  0  0  0
  -25.3730  -31.3721   26.1459 C   0  0  0  0  0  0
  -27.0322  -30.3022   24.6154 C   0  0  0  0  0  0
  -27.6051  -32.4321   25.7493 C   0  0  0  0  0  0
  -27.5579  -37.1806   24.8464 C   0  0  0  0  0  0
  -21.4174  -29.3042   22.3694 N   0  0  0  0  0  0
  -26.4293  -37.3783   23.9407 N   0  0  0  0  0  0
  -24.6825  -31.0655   22.0984 N   0  0  0  0  0  0
  -23.4193  -28.8171   23.3021 O   0  0  0  0  0  0
  -28.3638  -26.5342   20.1182 O   0  0  0  0  0  0
  -26.5613  -34.8921   22.4679 O   0  0  0  0  0  0
  -23.5399  -32.1406   23.7391 O   0  0  0  0  0  0
  -29.1789  -22.6842   20.1893 C   0  0  0  0  0  0
  -30.0854  -24.5193   18.9073 C   0  0  0  0  0  0
  -29.1721  -24.0868   19.8750 C   0  0  0  0  0  0
  -30.0628  -21.7763   19.5042 C   0  0  0  0  0  0
  -30.9044  -22.3605   18.5114 C   0  0  0  0  0  0
  -31.1585  -20.4242   16.8750 C   0  0  0  0  0  0
  -32.5923  -22.3851   16.5537 C   0  0  0  0  0  0
  -28.2030  -25.1231   20.5145 C   0  0  0  0  0  0
  -29.3473  -18.0811   20.4062 C   0  0  0  0  0  0
  -33.0201  -20.8969   18.5437 C   0  0  0  0  0  0
  -29.6026  -19.6111   20.7597 C   0  0  0  0  0  0
  -31.9066  -21.5300   17.6593 C   0  0  0  0  0  0
  -30.9274  -23.6909   18.2660 N   0  0  0  0  0  0
  -29.8155  -15.5974   21.0011 N   0  0  0  0  0  0
  -33.8440  -21.8839   19.2709 N   0  3  0  0  0  0
  -30.3769  -17.0313   20.7807 N   0  3  0  0  0  0
  -30.1717  -20.3825   19.6745 O   0  0  0  0  0  0
  -31.4845  -12.5218   19.1312 H   0  0  0  0  0  0
  -30.3930  -11.3751   19.8581 H   0  0  0  0  0  0
  -29.7657  -11.7669   17.4611 H   0  0  0  0  0  0
  -29.6487  -13.4841   17.7445 H   0  0  0  0  0  0
  -27.8616  -11.2924   18.8496 H   0  0  0  0  0  0
  -27.3736  -12.5898   17.7922 H   0  0  0  0  0  0
  -27.6871  -14.2456   19.5457 H   0  0  0  0  0  0
  -28.7104  -11.9867   21.3392 H   0  0  0  0  0  0
  -28.4456  -13.6181   21.8692 H   0  0  0  0  0  0
  -25.2755   -9.5677   22.4758 H   0  0  0  0  0  0
  -23.9995   -7.4629   22.7474 H   0  0  0  0  0  0
  -21.0832   -8.8772   19.8956 H   0  0  0  0  0  0
  -22.3689  -10.9670   19.6167 H   0  0  0  0  0  0
  -21.2004   -7.6146   23.9715 H   0  0  0  0  0  0
  -21.1479   -6.0521   25.9077 H   0  0  0  0  0  0
  -22.0599   -2.7607   23.2850 H   0  0  0  0  0  0
  -22.4093  -11.9891   22.4793 H   0  0  0  0  0  0
  -21.1115  -13.1276   22.2602 H   0  0  0  0  0  0
  -24.6567  -15.8348   20.5008 H   0  0  0  0  0  0
  -26.2628  -15.6194   20.0275 H   0  0  0  0  0  0
  -26.7157  -32.5476   23.1122 H   0  0  0  0  0  0
  -25.0060  -33.9743   25.0438 H   0  0  0  0  0  0
  -22.7081  -31.3044   21.4036 H   0  0  0  0  0  0
  -23.3747  -35.9639   23.3306 H   0  0  0  0  0  0
  -24.3581  -36.8916   22.2051 H   0  0  0  0  0  0
  -23.7244  -37.6509   23.6654 H   0  0  0  0  0  0
  -26.0782  -31.5645   20.6014 H   0  0  0  0  0  0
  -26.8363  -30.8540   21.9967 H   0  0  0  0  0  0
  -28.1154  -29.0193   21.1797 H   0  0  0  0  0  0
  -26.0170  -25.9524   18.9810 H   0  0  0  0  0  0
  -23.9790  -27.3055   19.0106 H   0  0  0  0  0  0
  -23.7471  -30.5934   19.4045 H   0  0  0  0  0  0
  -22.7509  -29.2447   19.8611 H   0  0  0  0  0  0
  -25.1289  -36.1953   25.0825 H   0  0  0  0  0  0
  -20.9970  -28.3255   24.1415 H   0  0  0  0  0  0
  -20.5675  -26.2291   23.3608 H   0  0  0  0  0  0
  -21.6641  -26.7446   22.1204 H   0  0  0  0  0  0
  -19.6910  -25.6298   21.1239 H   0  0  0  0  0  0
  -19.6685  -27.3199   20.6746 H   0  0  0  0  0  0
  -17.4196  -26.6674   21.4030 H   0  0  0  0  0  0
  -18.0331  -26.0070   22.9022 H   0  0  0  0  0  0
  -19.7933  -30.7265   24.2280 H   0  0  0  0  0  0
  -17.5013  -31.6269   24.5163 H   0  0  0  0  0  0
  -15.5351  -30.2993   23.7646 H   0  0  0  0  0  0
  -15.8669  -28.0824   22.7064 H   0  0  0  0  0  0
  -24.5903  -30.7070   25.7792 H   0  0  0  0  0  0
  -24.8922  -32.2884   26.4895 H   0  0  0  0  0  0
  -25.8064  -30.8895   27.0228 H   0  0  0  0  0  0
  -26.2886  -29.6782   24.1183 H   0  0  0  0  0  0
  -27.4036  -29.7266   25.4643 H   0  0  0  0  0  0
  -27.8748  -30.4318   23.9358 H   0  0  0  0  0  0
  -27.2665  -33.3614   26.2085 H   0  0  0  0  0  0
  -28.3854  -32.6892   25.0318 H   0  0  0  0  0  0
  -28.0728  -31.8439   26.5398 H   0  0  0  0  0  0
  -28.2600  -38.0101   24.7509 H   0  0  0  0  0  0
  -28.1073  -36.2632   24.6294 H   0  0  0  0  0  0
  -27.2298  -37.1460   25.8868 H   0  0  0  0  0  0
  -20.9347  -29.8771   21.6914 H   0  0  0  0  0  0
  -26.0179  -38.2861   24.1406 H   0  0  0  0  0  0
  -28.4910  -22.3156   20.9354 H   0  0  0  0  0  0
  -30.1457  -25.5593   18.6222 H   0  0  0  0  0  0
  -30.3527  -20.8482   16.2747 H   0  0  0  0  0  0
  -30.7187  -19.6591   17.5098 H   0  0  0  0  0  0
  -31.8278  -19.8991   16.1928 H   0  0  0  0  0  0
  -31.8578  -22.8043   15.8645 H   0  0  0  0  0  0
  -33.2858  -21.7916   15.9570 H   0  0  0  0  0  0
  -33.1601  -23.2219   16.9608 H   0  0  0  0  0  0
  -28.3475  -25.0796   21.5944 H   0  0  0  0  0  0
  -27.1925  -24.7532   20.3486 H   0  0  0  0  0  0
  -29.0914  -17.9804   19.3515 H   0  0  0  0  0  0
  -28.4419  -17.8039   20.9468 H   0  0  0  0  0  0
  -33.6855  -20.2937   17.9245 H   0  0  0  0  0  0
  -32.5942  -20.2078   19.2716 H   0  0  0  0  0  0
  -30.2204  -19.7105   21.6525 H   0  0  0  0  0  0
  -28.6375  -20.0514   21.0101 H   0  0  0  0  0  0
  -28.8705  -15.4811   21.3301 H   0  0  0  0  0  0
  -34.3211  -22.4910   18.6286 H   0  0  0  0  0  0
  -34.5387  -21.4090   19.8201 H   0  0  0  0  0  0
  -33.2857  -22.4445   19.8892 H   0  0  0  0  0  0
  -30.8371  -17.3010   21.6375 H   0  0  0  0  0  0
  -31.1011  -16.9558   20.0782 H   0  0  0  0  0  0
  1 25  1  0  0  0
  1 30  2  0  0  0
  1 84  1  0  0  0
  2  3  1  0  0  0
  2 25  1  0  0  0
  2 88  1  0  0  0
  2 89  1  0  0  0
  3  4  1  0  0  0
  3 90  1  0  0  0
  3 91  1  0  0  0
  4  5  1  0  0  0
  4 92  1  0  0  0
  4 93  1  0  0  0
  5  6  1  0  0  0
  5 26  1  0  0  0
  5 94  1  0  0  0
  6 25  1  0  0  0
  6 95  1  0  0  0
  6 96  1  0  0  0
  7  8  2  0  0  0
  7 26  1  0  0  0
  7 29  1  0  0  0
  8  9  1  0  0  0
  8 22  1  0  0  0
  9 10  1  0  0  0
  9 27  2  0  0  0
 10 11  2  0  0  0
 10 15  1  0  0  0
 11 12  1  0  0  0
 11 97  1  0  0  0
 12 13  2  0  0  0
 12 98  1  0  0  0
 13 14  1  0  0  0
 13 31  1  0  0  0
 14 15  2  0  0  0
 14 99  1  0  0  0
 15100  1  0  0  0
 16 17  2  0  0  0
 16 21  1  0  0  0
 16 31  1  0  0  0
 17 18  1  0  0  0
 17101  1  0  0  0
 18 19  2  0  0  0
 18102  1  0  0  0
 19 20  1  0  0  0
 19 24  1  0  0  0
 20 21  2  0  0  0
 20103  1  0  0  0
 21 23  1  0  0  0
 22 28  1  0  0  0
 22 32  2  0  0  0
 26 27  1  0  0  0
 28104  1  0  0  0
 28105  1  0  0  0
 29106  1  0  0  0
 29107  1  0  0  0
 33 34  1  0  0  0
 33 66  1  0  0  0
 33 70  2  0  0  0
 34 36  1  0  0  0
 34 59  1  0  0  0
 34108  1  0  0  0
 35 44  2  0  0  0
 35 45  1  0  0  0
 35 68  1  0  0  0
 36 56  1  0  0  0
 36109  1  0  0  0
 37 39  1  0  0  0
 37 47  1  0  0  0
 37 66  1  0  0  0
 37110  1  0  0  0
 38 43  2  0  0  0
 38 46  1  0  0  0
 38 47  1  0  0  0
 39 64  1  0  0  0
 39 67  2  0  0  0
 40 52  1  0  0  0
 40 53  2  0  0  0
 40 58  1  0  0  0
 41111  1  0  0  0
 41112  1  0  0  0
 41113  1  0  0  0
 41 48  1  0  0  0
 42 43  1  0  0  0
 42 66  1  0  0  0
 42114  1  0  0  0
 42115  1  0  0  0
 43 44  1  0  0  0
 44116  1  0  0  0
 45 46  2  0  0  0
 45117  1  0  0  0
 46118  1  0  0  0
 47119  1  0  0  0
 47120  1  0  0  0
 48 56  1  0  0  0
 48 65  1  0  0  0
 48121  1  0  0  0
 49 50  1  0  0  0
 49 53  1  0  0  0
 49 64  1  0  0  0
 49122  1  0  0  0
 50 51  1  0  0  0
 50123  1  0  0  0
 50124  1  0  0  0
 51 52  1  0  0  0
 51125  1  0  0  0
 51126  1  0  0  0
 52127  1  0  0  0
 52128  1  0  0  0
 53 54  1  0  0  0
 54 55  2  0  0  0
 54129  1  0  0  0
 55 57  1  0  0  0
 55130  1  0  0  0
 56 69  2  0  0  0
 57 58  2  0  0  0
 57131  1  0  0  0
 58132  1  0  0  0
 59 60  1  0  0  0
 59 61  1  0  0  0
 59 62  1  0  0  0
 60133  1  0  0  0
 60134  1  0  0  0
 60135  1  0  0  0
 61136  1  0  0  0
 61137  1  0  0  0
 61138  1  0  0  0
 62139  1  0  0  0
 62140  1  0  0  0
 62141  1  0  0  0
 63 65  1  0  0  0
 63142  1  0  0  0
 63143  1  0  0  0
 63144  1  0  0  0
 64145  1  0  0  0
 65146  1  0  0  0
 68 78  1  0  0  0
 71 73  2  0  0  0
 71 74  1  0  0  0
 71147  1  0  0  0
 72 73  1  0  0  0
 72 83  2  0  0  0
 72148  1  0  0  0
 73 78  1  0  0  0
 74 75  2  0  0  0
 74 87  1  0  0  0
 75 82  1  0  0  0
 75 83  1  0  0  0
 76149  1  0  0  0
 76150  1  0  0  0
 76151  1  0  0  0
 76 82  1  0  0  0
 77 82  1  0  0  0
 77152  1  0  0  0
 77153  1  0  0  0
 77154  1  0  0  0
 78155  1  0  0  0
 78156  1  0  0  0
 79 81  1  0  0  0
 79 86  1  0  0  0
 79157  1  0  0  0
 79158  1  0  0  0
 80 82  1  0  0  0
 80 85  1  0  0  0
 80159  1  0  0  0
 80160  1  0  0  0
 81 87  1  0  0  0
 81161  1  0  0  0
 81162  1  0  0  0
 84 86  1  0  0  0
 84163  1  0  0  0
 85164  1  0  0  0
 85165  1  0  0  0
 85166  1  0  0  0
 86167  1  0  0  0
 86168  1  0  0  0
M  CHG  2  85   1  86   1
M  ISO  4   1 100  68 101  78 101  84 100
M  END
> <chiral flag>
0

> <version>
0

> <s_m_source_file>
/data/baiqing/PycharmProjects/Reinvent-master-3.2/result/LINK_invent/BTK/process_docking_weight1_custom_sum_contain_oxygen_bond_distance_aromatic_linkinvent_7_9_3/rearranged_h_0109.sdf

> <i_m_source_file_index>
98

> <r_mmod_Potential_Energy-OPLS-2005>
-496.043060302734

> <r_mmod_Stretch_Energy-OPLS-2005>
77.6685333251953

> <r_mmod_Bend_Energy-OPLS-2005>
160.598785400391

> <r_mmod_Torsional_Energy-OPLS-2005>
253.492858886719

> <r_mmod_Improper_Torsional_Energy-OPLS-2005>
4.26198720932007

> <r_mmod_Van_der_Waal_Energy-OPLS-2005>
161.739608764648

> <r_mmod_Electrostatic_Energy-OPLS-2005>
-232.57292175293

> <r_mmod_Solvation_Energy-OPLS-2005>
-956.776672363281

> <b_mmod_Minimization_Converged-OPLS-2005>
0

> <r_mmod_RMS_Derivative-OPLS-2005>
0.243795350193977

$$$$
98
                    3D
 Structure written by MMmdl.
162170  0  0  1  0            999 V2000
  -30.6583  -14.5746   20.5085 C   0  0  0  0  0  0
  -30.4365  -12.3547   19.4391 C   0  0  0  0  0  0
  -29.5106  -12.5299   18.2149 C   0  0  0  0  0  0
  -28.0290  -12.3775   18.6147 C   0  0  0  0  0  0
  -27.6609  -13.2170   19.8668 C   0  0  2  0  0  0
  -28.7082  -13.0412   20.9960 C   0  0  0  0  0  0
  -25.2579  -13.8171   20.5671 C   0  0  0  0  0  0
  -24.1842  -13.0435   20.9187 C   0  0  0  0  0  0
  -24.6413  -11.6919   20.8736 C   0  0  0  0  0  0
  -23.9071  -10.4320   21.0409 C   0  0  0  0  0  0
  -24.3625   -9.4232   21.9191 C   0  0  0  0  0  0
  -23.6344   -8.2232   22.0746 C   0  0  0  0  0  0
  -22.4334   -8.0258   21.3507 C   0  0  0  0  0  0
  -21.9935   -9.0226   20.4614 C   0  0  0  0  0  0
  -22.7240  -10.2134   20.3058 C   0  0  0  0  0  0
  -21.6822   -6.0756   22.5275 C   0  0  0  0  0  0
  -21.3989   -6.5644   23.8219 C   0  0  0  0  0  0
  -21.3676   -5.6770   24.9173 C   0  0  0  0  0  0
  -21.6084   -4.3040   24.7200 C   0  0  0  0  0  0
  -21.8816   -3.8130   23.4307 C   0  0  0  0  0  0
  -21.9204   -4.6972   22.3407 C   0  0  0  0  0  0
  -22.7872  -13.5236   21.1862 C   0  0  0  0  0  0
  -22.1668   -4.2174   21.0963 F   0  0  0  0  0  0
  -21.5669   -3.4518   25.7711 F   0  0  0  0  0  0
  -30.0328  -13.3603   20.4368 N   0  0  0  0  0  0
  -26.3020  -12.9361   20.3306 N   0  0  0  0  0  0
  -25.9348  -11.6502   20.5716 N   0  0  0  0  0  0
  -22.0462  -12.8257   22.0375 N   0  0  0  0  0  0
  -25.4265  -15.1899   20.4080 N   0  0  0  0  0  0
  -31.8055  -14.7553   20.0993 O   0  0  0  0  0  0
  -21.6630   -6.8898   21.4242 O   0  0  0  0  0  0
  -22.3579  -14.5566   20.6714 O   0  0  0  0  0  0
  -24.6244  -31.8591   23.2039 C   0  0  0  0  0  0
  -25.9089  -32.4761   23.8364 C   0  0  1  0  0  0
  -27.2364  -27.3441   20.0777 C   0  0  0  0  0  0
  -25.5948  -33.8573   24.2283 N   0  0  0  0  0  0
  -23.4163  -30.4832   21.5481 C   0  0  2  0  0  0
  -24.8601  -28.9426   20.1081 C   0  0  0  0  0  0
  -22.7463  -29.4615   22.4962 C   0  0  0  0  0  0
  -18.0273  -28.1365   22.8484 C   0  0  0  0  0  0
  -24.1491  -36.7303   23.2647 C   0  0  0  0  0  0
  -25.9538  -30.7971   21.3661 C   0  0  0  0  0  0
  -26.0283  -29.4257   20.7062 C   0  0  0  0  0  0
  -27.2130  -28.6353   20.6887 C   0  0  0  0  0  0
  -26.0271  -26.8950   19.4890 C   0  0  0  0  0  0
  -24.8589  -27.6789   19.4979 C   0  0  0  0  0  0
  -23.6275  -29.8202   20.1616 C   0  0  0  0  0  0
  -25.4106  -36.3072   24.0322 C   0  0  1  0  0  0
  -20.5875  -28.3649   23.1310 C   0  0  2  0  0  0
  -20.6744  -26.9376   22.5412 C   0  0  0  0  0  0
  -19.5743  -26.6360   21.5204 C   0  0  0  0  0  0
  -18.1910  -26.7915   22.1607 C   0  0  0  0  0  0
  -19.1528  -28.8829   23.2881 C   0  0  0  0  0  0
  -18.9456  -30.1445   23.8849 C   0  0  0  0  0  0
  -17.6451  -30.6566   24.0548 C   0  0  0  0  0  0
  -25.9060  -34.9434   23.5088 C   0  0  0  0  0  0
  -16.5342  -29.9067   23.6336 C   0  0  0  0  0  0
  -16.7273  -28.6491   23.0333 C   0  0  0  0  0  0
  -26.4480  -31.6575   25.0725 C   0  0  0  0  0  0
  -25.3741  -31.3756   26.1499 C   0  0  0  0  0  0
  -27.0269  -30.2993   24.6146 C   0  0  0  0  0  0
  -27.6060  -32.4284   25.7502 C   0  0  0  0  0  0
  -27.5586  -37.1802   24.8444 C   0  0  0  0  0  0
  -21.4173  -29.3017   22.3721 N   0  0  0  0  0  0
  -26.4269  -37.3780   23.9430 N   0  0  0  0  0  0
  -24.6842  -31.0615   22.0971 N   0  0  0  0  0  0
  -23.4213  -28.8140   23.3011 O   0  0  0  0  0  0
  -28.3981  -26.5598   20.1229 O   0  0  0  0  0  0
  -26.5605  -34.8909   22.4640 O   0  0  0  0  0  0
  -23.5408  -32.1376   23.7384 O   0  0  0  0  0  0
  -29.2317  -22.8770   21.7394 C   0  0  0  0  0  0
  -29.6200  -22.0543   20.6349 C   0  0  0  0  0  0
  -29.4011  -22.9027   19.5581 C   0  0  0  0  0  0
  -29.6178  -22.6594   18.0848 C   0  0  0  0  0  0
  -30.7413  -18.2086   22.5172 C   0  0  0  0  0  0
  -28.3211  -17.6520   22.2517 C   0  0  0  0  0  0
  -30.2222  -20.6144   20.7334 C   0  0  0  0  0  0
  -29.9537  -17.0532   20.3931 C   0  0  0  0  0  0
  -28.5546  -25.3838   19.2950 C   0  0  0  0  0  0
  -29.5796  -18.1381   21.4877 C   0  0  0  0  0  0
  -28.8112  -24.0901   21.3906 N   0  0  0  0  0  0
  -28.9314  -24.1435   20.0439 N   0  0  0  0  0  0
  -29.8508  -15.6210   20.8242 N   0  0  0  0  0  0
  -29.2195  -19.5037   20.9081 N   0  3  0  0  0  0
  -31.4808  -12.4673   19.1421 H   0  0  0  0  0  0
  -30.3449  -11.3481   19.8490 H   0  0  0  0  0  0
  -29.7676  -11.8093   17.4410 H   0  0  0  0  0  0
  -29.6678  -13.5163   17.7722 H   0  0  0  0  0  0
  -27.8430  -11.3224   18.8081 H   0  0  0  0  0  0
  -27.3828  -12.6525   17.7789 H   0  0  0  0  0  0
  -27.6825  -14.2602   19.5510 H   0  0  0  0  0  0
  -28.6979  -12.0209   21.3775 H   0  0  0  0  0  0
  -28.4665  -13.6747   21.8487 H   0  0  0  0  0  0
  -25.2780   -9.5750   22.4729 H   0  0  0  0  0  0
  -24.0086   -7.4621   22.7449 H   0  0  0  0  0  0
  -21.0860   -8.8727   19.8924 H   0  0  0  0  0  0
  -22.3692  -10.9650   19.6151 H   0  0  0  0  0  0
  -21.1909   -7.6152   23.9731 H   0  0  0  0  0  0
  -21.1529   -6.0480   25.9083 H   0  0  0  0  0  0
  -22.0583   -2.7590   23.2738 H   0  0  0  0  0  0
  -22.4006  -11.9938   22.4855 H   0  0  0  0  0  0
  -21.1060  -13.1310   22.2507 H   0  0  0  0  0  0
  -24.6401  -15.8307   20.4805 H   0  0  0  0  0  0
  -26.2615  -15.6204   20.0320 H   0  0  0  0  0  0
  -26.7177  -32.5428   23.1137 H   0  0  0  0  0  0
  -25.0121  -33.9732   25.0445 H   0  0  0  0  0  0
  -22.7071  -31.3022   21.4067 H   0  0  0  0  0  0
  -23.3755  -35.9635   23.3244 H   0  0  0  0  0  0
  -24.3603  -36.8983   22.2068 H   0  0  0  0  0  0
  -23.7206  -37.6482   23.6684 H   0  0  0  0  0  0
  -26.0734  -31.5630   20.5979 H   0  0  0  0  0  0
  -26.8387  -30.8477   21.9897 H   0  0  0  0  0  0
  -28.1124  -29.0099   21.1559 H   0  0  0  0  0  0
  -25.9276  -25.9208   19.0416 H   0  0  0  0  0  0
  -23.9567  -27.2925   19.0406 H   0  0  0  0  0  0
  -23.7455  -30.5974   19.4054 H   0  0  0  0  0  0
  -22.7478  -29.2493   19.8616 H   0  0  0  0  0  0
  -25.1268  -36.1916   25.0825 H   0  0  0  0  0  0
  -20.9947  -28.3177   24.1446 H   0  0  0  0  0  0
  -20.5634  -26.2255   23.3595 H   0  0  0  0  0  0
  -21.6610  -26.7396   22.1217 H   0  0  0  0  0  0
  -19.6888  -25.6253   21.1254 H   0  0  0  0  0  0
  -19.6710  -27.3150   20.6729 H   0  0  0  0  0  0
  -17.4203  -26.6691   21.3989 H   0  0  0  0  0  0
  -18.0311  -26.0055   22.8995 H   0  0  0  0  0  0
  -19.7930  -30.7287   24.2168 H   0  0  0  0  0  0
  -17.5009  -31.6245   24.5149 H   0  0  0  0  0  0
  -15.5332  -30.2947   23.7676 H   0  0  0  0  0  0
  -15.8685  -28.0819   22.7004 H   0  0  0  0  0  0
  -24.5874  -30.7135   25.7868 H   0  0  0  0  0  0
  -24.9000  -32.2942   26.4964 H   0  0  0  0  0  0
  -25.8109  -30.8917   27.0241 H   0  0  0  0  0  0
  -26.2799  -29.6788   24.1179 H   0  0  0  0  0  0
  -27.3968  -29.7215   25.4622 H   0  0  0  0  0  0
  -27.8686  -30.4255   23.9329 H   0  0  0  0  0  0
  -27.2693  -33.3625   26.2007 H   0  0  0  0  0  0
  -28.3940  -32.6748   25.0367 H   0  0  0  0  0  0
  -28.0632  -31.8420   26.5480 H   0  0  0  0  0  0
  -28.2531  -38.0173   24.7549 H   0  0  0  0  0  0
  -28.1134  -36.2691   24.6143 H   0  0  0  0  0  0
  -27.2330  -37.1294   25.8856 H   0  0  0  0  0  0
  -20.9320  -29.8840   21.7044 H   0  0  0  0  0  0
  -26.0132  -38.2840   24.1481 H   0  0  0  0  0  0
  -29.2583  -22.6326   22.7942 H   0  0  0  0  0  0
  -29.6924  -21.5957   17.8555 H   0  0  0  0  0  0
  -30.5360  -23.1313   17.7246 H   0  0  0  0  0  0
  -28.7875  -23.0480   17.4914 H   0  0  0  0  0  0
  -30.8894  -17.2462   23.0107 H   0  0  0  0  0  0
  -30.5523  -18.9351   23.3092 H   0  0  0  0  0  0
  -31.6941  -18.4642   22.0452 H   0  0  0  0  0  0
  -28.5044  -16.7201   22.7854 H   0  0  0  0  0  0
  -27.4747  -17.4876   21.5851 H   0  0  0  0  0  0
  -28.0012  -18.3649   23.0141 H   0  0  0  0  0  0
  -30.9152  -20.6066   21.5744 H   0  0  0  0  0  0
  -30.8438  -20.3770   19.8656 H   0  0  0  0  0  0
  -30.9534  -17.2572   20.0048 H   0  0  0  0  0  0
  -29.2807  -17.1520   19.5412 H   0  0  0  0  0  0
  -27.7215  -25.1349   18.6457 H   0  0  0  0  0  0
  -29.3866  -25.6039   18.6250 H   0  0  0  0  0  0
  -28.9400  -15.3355   21.1451 H   0  0  0  0  0  0
  -28.7191  -19.3871   20.0408 H   0  0  0  0  0  0
  -28.5425  -19.8789   21.5551 H   0  0  0  0  0  0
  1 25  1  0  0  0
  1 30  2  0  0  0
  1 83  1  0  0  0
  2  3  1  0  0  0
  2 25  1  0  0  0
  2 85  1  0  0  0
  2 86  1  0  0  0
  3  4  1  0  0  0
  3 87  1  0  0  0
  3 88  1  0  0  0
  4  5  1  0  0  0
  4 89  1  0  0  0
  4 90  1  0  0  0
  5  6  1  0  0  0
  5 26  1  0  0  0
  5 91  1  0  0  0
  6 25  1  0  0  0
  6 92  1  0  0  0
  6 93  1  0  0  0
  7  8  2  0  0  0
  7 26  1  0  0  0
  7 29  1  0  0  0
  8  9  1  0  0  0
  8 22  1  0  0  0
  9 10  1  0  0  0
  9 27  2  0  0  0
 10 11  2  0  0  0
 10 15  1  0  0  0
 11 12  1  0  0  0
 11 94  1  0  0  0
 12 13  2  0  0  0
 12 95  1  0  0  0
 13 14  1  0  0  0
 13 31  1  0  0  0
 14 15  2  0  0  0
 14 96  1  0  0  0
 15 97  1  0  0  0
 16 17  2  0  0  0
 16 21  1  0  0  0
 16 31  1  0  0  0
 17 18  1  0  0  0
 17 98  1  0  0  0
 18 19  2  0  0  0
 18 99  1  0  0  0
 19 20  1  0  0  0
 19 24  1  0  0  0
 20 21  2  0  0  0
 20100  1  0  0  0
 21 23  1  0  0  0
 22 28  1  0  0  0
 22 32  2  0  0  0
 26 27  1  0  0  0
 28101  1  0  0  0
 28102  1  0  0  0
 29103  1  0  0  0
 29104  1  0  0  0
 33 34  1  0  0  0
 33 66  1  0  0  0
 33 70  2  0  0  0
 34 36  1  0  0  0
 34 59  1  0  0  0
 34105  1  0  0  0
 35 44  2  0  0  0
 35 45  1  0  0  0
 35 68  1  0  0  0
 36 56  1  0  0  0
 36106  1  0  0  0
 37 39  1  0  0  0
 37 47  1  0  0  0
 37 66  1  0  0  0
 37107  1  0  0  0
 38 43  2  0  0  0
 38 46  1  0  0  0
 38 47  1  0  0  0
 39 64  1  0  0  0
 39 67  2  0  0  0
 40 52  1  0  0  0
 40 53  2  0  0  0
 40 58  1  0  0  0
 41108  1  0  0  0
 41109  1  0  0  0
 41110  1  0  0  0
 41 48  1  0  0  0
 42 43  1  0  0  0
 42 66  1  0  0  0
 42111  1  0  0  0
 42112  1  0  0  0
 43 44  1  0  0  0
 44113  1  0  0  0
 45 46  2  0  0  0
 45114  1  0  0  0
 46115  1  0  0  0
 47116  1  0  0  0
 47117  1  0  0  0
 48 56  1  0  0  0
 48 65  1  0  0  0
 48118  1  0  0  0
 49 50  1  0  0  0
 49 53  1  0  0  0
 49 64  1  0  0  0
 49119  1  0  0  0
 50 51  1  0  0  0
 50120  1  0  0  0
 50121  1  0  0  0
 51 52  1  0  0  0
 51122  1  0  0  0
 51123  1  0  0  0
 52124  1  0  0  0
 52125  1  0  0  0
 53 54  1  0  0  0
 54 55  2  0  0  0
 54126  1  0  0  0
 55 57  1  0  0  0
 55127  1  0  0  0
 56 69  2  0  0  0
 57 58  2  0  0  0
 57128  1  0  0  0
 58129  1  0  0  0
 59 60  1  0  0  0
 59 61  1  0  0  0
 59 62  1  0  0  0
 60130  1  0  0  0
 60131  1  0  0  0
 60132  1  0  0  0
 61133  1  0  0  0
 61134  1  0  0  0
 61135  1  0  0  0
 62136  1  0  0  0
 62137  1  0  0  0
 62138  1  0  0  0
 63 65  1  0  0  0
 63139  1  0  0  0
 63140  1  0  0  0
 63141  1  0  0  0
 64142  1  0  0  0
 65143  1  0  0  0
 68 79  1  0  0  0
 71 72  1  0  0  0
 71 81  2  0  0  0
 71144  1  0  0  0
 72 73  2  0  0  0
 72 77  1  0  0  0
 73 74  1  0  0  0
 73 82  1  0  0  0
 74145  1  0  0  0
 74146  1  0  0  0
 74147  1  0  0  0
 75148  1  0  0  0
 75149  1  0  0  0
 75150  1  0  0  0
 75 80  1  0  0  0
 76 80  1  0  0  0
 76151  1  0  0  0
 76152  1  0  0  0
 76153  1  0  0  0
 77 84  1  0  0  0
 77154  1  0  0  0
 77155  1  0  0  0
 78 80  1  0  0  0
 78 83  1  0  0  0
 78156  1  0  0  0
 78157  1  0  0  0
 79 82  1  0  0  0
 79158  1  0  0  0
 79159  1  0  0  0
 80 84  1  0  0  0
 81 82  1  0  0  0
 83160  1  0  0  0
 84161  1  0  0  0
 84162  1  0  0  0
M  CHG  1  84   1
M  ISO  4   1 100  68 101  79 101  83 100
M  END
> <chiral flag>
0

> <version>
0

> <s_m_source_file>
/data/baiqing/PycharmProjects/Reinvent-master-3.2/result/LINK_invent/BTK/process_docking_weight1_custom_sum_contain_oxygen_bond_distance_aromatic_linkinvent_7_9_3/rearranged_h_0109.sdf

> <i_m_source_file_index>
99

> <r_mmod_Potential_Energy-OPLS-2005>
-232.34748840332

> <r_mmod_Stretch_Energy-OPLS-2005>
71.7570648193359

> <r_mmod_Bend_Energy-OPLS-2005>
141.383514404297

> <r_mmod_Torsional_Energy-OPLS-2005>
229.56672668457

> <r_mmod_Improper_Torsional_Energy-OPLS-2005>
7.38525247573853

> <r_mmod_Van_der_Waal_Energy-OPLS-2005>
122.352142333984

> <r_mmod_Electrostatic_Energy-OPLS-2005>
-327.506011962891

> <r_mmod_Solvation_Energy-OPLS-2005>
-509.260528564453

> <b_mmod_Minimization_Converged-OPLS-2005>
0

> <r_mmod_RMS_Derivative-OPLS-2005>
5.83930492401123

$$$$
