0
                    3D
 Structure written by MMmdl.
176186  0  0  1  0            999 V2000
  -30.6791  -14.5066   20.4625 C   0  0  0  0  0  0
  -30.4323  -12.2777   19.4388 C   0  0  0  0  0  0
  -29.4952  -12.3839   18.2165 C   0  0  0  0  0  0
  -28.0129  -12.2940   18.6358 C   0  0  0  0  0  0
  -27.6540  -13.1895   19.8514 C   0  0  2  0  0  0
  -28.7026  -13.0424   20.9753 C   0  0  0  0  0  0
  -25.2626  -13.8126   20.5703 C   0  0  0  0  0  0
  -24.1838  -13.0419   20.9189 C   0  0  0  0  0  0
  -24.6376  -11.6886   20.8750 C   0  0  0  0  0  0
  -23.9004  -10.4286   21.0416 C   0  0  0  0  0  0
  -24.3581   -9.4183   21.9171 C   0  0  0  0  0  0
  -23.6273   -8.2219   22.0735 C   0  0  0  0  0  0
  -22.4239   -8.0264   21.3535 C   0  0  0  0  0  0
  -21.9880   -9.0227   20.4623 C   0  0  0  0  0  0
  -22.7196  -10.2124   20.3046 C   0  0  0  0  0  0
  -21.6850   -6.0720   22.5285 C   0  0  0  0  0  0
  -21.4026   -6.5632   23.8209 C   0  0  0  0  0  0
  -21.3657   -5.6786   24.9185 C   0  0  0  0  0  0
  -21.6032   -4.3052   24.7244 C   0  0  0  0  0  0
  -21.8821   -3.8138   23.4366 C   0  0  0  0  0  0
  -21.9204   -4.6949   22.3421 C   0  0  0  0  0  0
  -22.7864  -13.5230   21.1895 C   0  0  0  0  0  0
  -22.1680   -4.2134   21.0997 F   0  0  0  0  0  0
  -21.5621   -3.4538   25.7755 F   0  0  0  0  0  0
  -30.0271  -13.3154   20.3987 N   0  0  0  0  0  0
  -26.2999  -12.9256   20.3290 N   0  0  0  0  0  0
  -25.9297  -11.6451   20.5794 N   0  0  0  0  0  0
  -22.0520  -12.8151   22.0437 N   0  0  0  0  0  0
  -25.4434  -15.1842   20.4190 N   0  0  0  0  0  0
  -31.8764  -14.6335   20.1915 O   0  0  0  0  0  0
  -21.6624   -6.8848   21.4232 O   0  0  0  0  0  0
  -22.3508  -14.5508   20.6752 O   0  0  0  0  0  0
  -24.6147  -31.8702   23.2087 C   0  0  0  0  0  0
  -25.9024  -32.4853   23.8401 C   0  0  1  0  0  0
  -27.2564  -27.4546   20.0630 C   0  0  0  0  0  0
  -25.5877  -33.8649   24.2321 N   0  0  0  0  0  0
  -23.4046  -30.4900   21.5531 C   0  0  2  0  0  0
  -24.8587  -28.9597   20.1185 C   0  0  0  0  0  0
  -22.7426  -29.4653   22.5024 C   0  0  0  0  0  0
  -18.0270  -28.1374   22.8498 C   0  0  0  0  0  0
  -24.1486  -36.7308   23.2648 C   0  0  0  0  0  0
  -25.9368  -30.8377   21.3650 C   0  0  0  0  0  0
  -26.0218  -29.4747   20.7059 C   0  0  0  0  0  0
  -27.2297  -28.7320   20.6777 C   0  0  0  0  0  0
  -26.0688  -26.9478   19.4997 C   0  0  0  0  0  0
  -24.8748  -27.6900   19.5167 C   0  0  0  0  0  0
  -23.6153  -29.8210   20.1699 C   0  0  0  0  0  0
  -25.4116  -36.3127   24.0344 C   0  0  1  0  0  0
  -20.5867  -28.3652   23.1334 C   0  0  2  0  0  0
  -20.6746  -26.9388   22.5436 C   0  0  0  0  0  0
  -19.5729  -26.6386   21.5214 C   0  0  0  0  0  0
  -18.1909  -26.7925   22.1613 C   0  0  0  0  0  0
  -19.1525  -28.8824   23.2908 C   0  0  0  0  0  0
  -18.9453  -30.1441   23.8907 C   0  0  0  0  0  0
  -17.6462  -30.6576   24.0557 C   0  0  0  0  0  0
  -25.9049  -34.9496   23.5135 C   0  0  0  0  0  0
  -16.5353  -29.9083   23.6328 C   0  0  0  0  0  0
  -16.7266  -28.6497   23.0350 C   0  0  0  0  0  0
  -26.4447  -31.6647   25.0737 C   0  0  0  0  0  0
  -25.3710  -31.3791   26.1489 C   0  0  0  0  0  0
  -27.0276  -30.3085   24.6129 C   0  0  0  0  0  0
  -27.6007  -32.4405   25.7472 C   0  0  0  0  0  0
  -27.5595  -37.1804   24.8458 C   0  0  0  0  0  0
  -21.4155  -29.3022   22.3757 N   0  0  0  0  0  0
  -26.4300  -37.3812   23.9414 N   0  0  0  0  0  0
  -24.6704  -31.0790   22.0999 N   0  0  0  0  0  0
  -23.4208  -28.8221   23.3079 O   0  0  0  0  0  0
  -28.3521  -26.6229   19.9571 O   0  0  0  0  0  0
  -26.5620  -34.8937   22.4701 O   0  0  0  0  0  0
  -23.5333  -32.1460   23.7470 O   0  0  0  0  0  0
  -32.0300  -26.6473   19.2108 C   0  0  0  0  0  0
  -32.9649  -25.8870   18.4844 C   0  0  0  0  0  0
  -30.3138  -25.0076   18.6929 C   0  0  0  0  0  0
  -30.6866  -26.2322   19.3052 C   0  0  0  0  0  0
  -32.5820  -24.6943   17.8363 C   0  0  0  0  0  0
  -31.2494  -24.2190   17.9732 C   0  0  0  0  0  0
  -32.3014  -20.9390   16.4884 C   0  0  0  0  0  0
  -31.6465  -19.6154   16.8497 C   0  0  0  0  0  0
  -30.5268  -17.9314   21.1097 C   0  0  0  0  0  0
  -30.5018  -17.3075   18.6939 C   0  0  0  0  0  0
  -29.7247  -16.6253   21.4186 C   0  0  0  0  0  0
  -29.5612  -16.1446   19.0467 C   0  0  0  0  0  0
  -31.5880  -21.6440   17.6646 C   0  0  2  0  0  0
  -30.8613  -20.2987   17.9826 C   0  0  2  0  0  0
  -30.2947  -18.4855   19.6716 C   0  0  0  0  0  0
  -33.6251  -23.9813   16.9863 C   0  0  0  0  0  0
  -30.7710  -22.9136   17.3195 C   0  0  0  0  0  0
  -29.6780  -27.1273   20.0396 C   0  0  0  0  0  0
  -29.8624  -15.5917   20.3755 N   0  0  0  0  0  0
  -31.1213  -19.6916   19.3312 N   0  3  0  0  0  0
  -31.4730  -12.3763   19.1249 H   0  0  0  0  0  0
  -30.3530  -11.2963   19.9075 H   0  0  0  0  0  0
  -29.7172  -11.5719   17.5190 H   0  0  0  0  0  0
  -29.6900  -13.2984   17.6618 H   0  0  0  0  0  0
  -27.8212  -11.2487   18.8929 H   0  0  0  0  0  0
  -27.3642  -12.5210   17.7896 H   0  0  0  0  0  0
  -27.6742  -14.2149   19.4921 H   0  0  0  0  0  0
  -28.6832  -12.0302   21.3845 H   0  0  0  0  0  0
  -28.4872  -13.7157   21.8060 H   0  0  0  0  0  0
  -25.2757   -9.5642   22.4689 H   0  0  0  0  0  0
  -24.0010   -7.4586   22.7399 H   0  0  0  0  0  0
  -21.0845   -8.8690   19.8910 H   0  0  0  0  0  0
  -22.3641  -10.9629   19.6115 H   0  0  0  0  0  0
  -21.2015   -7.6150   23.9707 H   0  0  0  0  0  0
  -21.1480   -6.0543   25.9086 H   0  0  0  0  0  0
  -22.0610   -2.7600   23.2877 H   0  0  0  0  0  0
  -22.4215  -11.9849   22.4811 H   0  0  0  0  0  0
  -21.1107  -13.1046   22.2651 H   0  0  0  0  0  0
  -24.6907  -15.8529   20.5487 H   0  0  0  0  0  0
  -26.3207  -15.6169   20.1622 H   0  0  0  0  0  0
  -26.7110  -32.5568   23.1188 H   0  0  0  0  0  0
  -25.0008  -33.9811   25.0448 H   0  0  0  0  0  0
  -22.6915  -31.3061   21.4141 H   0  0  0  0  0  0
  -23.3766  -35.9619   23.3310 H   0  0  0  0  0  0
  -24.3582  -36.8924   22.2064 H   0  0  0  0  0  0
  -23.7211  -37.6499   23.6666 H   0  0  0  0  0  0
  -26.0561  -31.6137   20.6076 H   0  0  0  0  0  0
  -26.8198  -30.8838   21.9905 H   0  0  0  0  0  0
  -28.1227  -29.1410   21.1280 H   0  0  0  0  0  0
  -26.0737  -25.9747   19.0283 H   0  0  0  0  0  0
  -23.9796  -27.2826   19.0686 H   0  0  0  0  0  0
  -23.7168  -30.5984   19.4118 H   0  0  0  0  0  0
  -22.7404  -29.2388   19.8753 H   0  0  0  0  0  0
  -25.1295  -36.1999   25.0841 H   0  0  0  0  0  0
  -20.9934  -28.3198   24.1461 H   0  0  0  0  0  0
  -20.5623  -26.2263   23.3624 H   0  0  0  0  0  0
  -21.6624  -26.7402   22.1258 H   0  0  0  0  0  0
  -19.6887  -25.6303   21.1227 H   0  0  0  0  0  0
  -19.6678  -27.3200   20.6750 H   0  0  0  0  0  0
  -17.4197  -26.6713   21.3997 H   0  0  0  0  0  0
  -18.0263  -26.0048   22.8981 H   0  0  0  0  0  0
  -19.7938  -30.7236   24.2290 H   0  0  0  0  0  0
  -17.5025  -31.6247   24.5173 H   0  0  0  0  0  0
  -15.5359  -30.2982   23.7637 H   0  0  0  0  0  0
  -15.8672  -28.0812   22.7061 H   0  0  0  0  0  0
  -24.5873  -30.7133   25.7852 H   0  0  0  0  0  0
  -24.8897  -32.2969   26.4880 H   0  0  0  0  0  0
  -25.8060  -30.9029   27.0284 H   0  0  0  0  0  0
  -26.2825  -29.6865   24.1161 H   0  0  0  0  0  0
  -27.4007  -29.7308   25.4590 H   0  0  0  0  0  0
  -27.8666  -30.4394   23.9296 H   0  0  0  0  0  0
  -27.2588  -33.3678   26.2073 H   0  0  0  0  0  0
  -28.3753  -32.7054   25.0269 H   0  0  0  0  0  0
  -28.0748  -31.8560   26.5359 H   0  0  0  0  0  0
  -28.2616  -38.0100   24.7526 H   0  0  0  0  0  0
  -28.1094  -36.2636   24.6264 H   0  0  0  0  0  0
  -27.2323  -37.1421   25.8863 H   0  0  0  0  0  0
  -20.9333  -29.8787   21.7003 H   0  0  0  0  0  0
  -26.0198  -38.2892   24.1424 H   0  0  0  0  0  0
  -32.3466  -27.5691   19.6769 H   0  0  0  0  0  0
  -33.9858  -26.2372   18.4091 H   0  0  0  0  0  0
  -29.2864  -24.6768   18.7575 H   0  0  0  0  0  0
  -32.0066  -21.2872   15.4959 H   0  0  0  0  0  0
  -33.3902  -20.9164   16.5751 H   0  0  0  0  0  0
  -32.3819  -18.8765   17.1704 H   0  0  0  0  0  0
  -31.0068  -19.2146   16.0591 H   0  0  0  0  0  0
  -31.5864  -17.7231   21.2571 H   0  0  0  0  0  0
  -30.2579  -18.6905   21.8465 H   0  0  0  0  0  0
  -30.2896  -17.5908   17.6669 H   0  0  0  0  0  0
  -31.5381  -16.9690   18.7271 H   0  0  0  0  0  0
  -28.6635  -16.8662   21.4907 H   0  0  0  0  0  0
  -29.9962  -16.2205   22.3951 H   0  0  0  0  0  0
  -29.6338  -15.3825   18.2729 H   0  0  0  0  0  0
  -28.5218  -16.4831   19.0217 H   0  0  0  0  0  0
  -32.3134  -21.8470   18.4534 H   0  0  0  0  0  0
  -29.7938  -20.3610   17.7604 H   0  0  0  0  0  0
  -29.2545  -18.8044   19.6049 H   0  0  0  0  0  0
  -34.4240  -24.6630   16.6905 H   0  0  0  0  0  0
  -33.1922  -23.5875   16.0659 H   0  0  0  0  0  0
  -34.0872  -23.1634   17.5386 H   0  0  0  0  0  0
  -30.7506  -23.0794   16.2413 H   0  0  0  0  0  0
  -29.7250  -22.7534   17.5798 H   0  0  0  0  0  0
  -29.7378  -28.1281   19.6134 H   0  0  0  0  0  0
  -29.9628  -27.1968   21.0894 H   0  0  0  0  0  0
  -30.9144  -20.3979   20.0224 H   0  0  0  0  0  0
  -32.1004  -19.4797   19.4237 H   0  0  0  0  0  0
  1 25  1  0  0  0
  1 30  2  0  0  0
  1 89  1  0  0  0
  2  3  1  0  0  0
  2 25  1  0  0  0
  2 91  1  0  0  0
  2 92  1  0  0  0
  3  4  1  0  0  0
  3 93  1  0  0  0
  3 94  1  0  0  0
  4  5  1  0  0  0
  4 95  1  0  0  0
  4 96  1  0  0  0
  5  6  1  0  0  0
  5 26  1  0  0  0
  5 97  1  0  0  0
  6 25  1  0  0  0
  6 98  1  0  0  0
  6 99  1  0  0  0
  7  8  2  0  0  0
  7 26  1  0  0  0
  7 29  1  0  0  0
  8  9  1  0  0  0
  8 22  1  0  0  0
  9 10  1  0  0  0
  9 27  2  0  0  0
 10 11  2  0  0  0
 10 15  1  0  0  0
 11 12  1  0  0  0
 11100  1  0  0  0
 12 13  2  0  0  0
 12101  1  0  0  0
 13 14  1  0  0  0
 13 31  1  0  0  0
 14 15  2  0  0  0
 14102  1  0  0  0
 15103  1  0  0  0
 16 17  2  0  0  0
 16 21  1  0  0  0
 16 31  1  0  0  0
 17 18  1  0  0  0
 17104  1  0  0  0
 18 19  2  0  0  0
 18105  1  0  0  0
 19 20  1  0  0  0
 19 24  1  0  0  0
 20 21  2  0  0  0
 20106  1  0  0  0
 21 23  1  0  0  0
 22 28  1  0  0  0
 22 32  2  0  0  0
 26 27  1  0  0  0
 28107  1  0  0  0
 28108  1  0  0  0
 29109  1  0  0  0
 29110  1  0  0  0
 33 34  1  0  0  0
 33 66  1  0  0  0
 33 70  2  0  0  0
 34 36  1  0  0  0
 34 59  1  0  0  0
 34111  1  0  0  0
 35 44  2  0  0  0
 35 45  1  0  0  0
 35 68  1  0  0  0
 36 56  1  0  0  0
 36112  1  0  0  0
 37 39  1  0  0  0
 37 47  1  0  0  0
 37 66  1  0  0  0
 37113  1  0  0  0
 38 43  2  0  0  0
 38 46  1  0  0  0
 38 47  1  0  0  0
 39 64  1  0  0  0
 39 67  2  0  0  0
 40 52  1  0  0  0
 40 53  2  0  0  0
 40 58  1  0  0  0
 41114  1  0  0  0
 41115  1  0  0  0
 41116  1  0  0  0
 41 48  1  0  0  0
 42 43  1  0  0  0
 42 66  1  0  0  0
 42117  1  0  0  0
 42118  1  0  0  0
 43 44  1  0  0  0
 44119  1  0  0  0
 45 46  2  0  0  0
 45120  1  0  0  0
 46121  1  0  0  0
 47122  1  0  0  0
 47123  1  0  0  0
 48 56  1  0  0  0
 48 65  1  0  0  0
 48124  1  0  0  0
 49 50  1  0  0  0
 49 53  1  0  0  0
 49 64  1  0  0  0
 49125  1  0  0  0
 50 51  1  0  0  0
 50126  1  0  0  0
 50127  1  0  0  0
 51 52  1  0  0  0
 51128  1  0  0  0
 51129  1  0  0  0
 52130  1  0  0  0
 52131  1  0  0  0
 53 54  1  0  0  0
 54 55  2  0  0  0
 54132  1  0  0  0
 55 57  1  0  0  0
 55133  1  0  0  0
 56 69  2  0  0  0
 57 58  2  0  0  0
 57134  1  0  0  0
 58135  1  0  0  0
 59 60  1  0  0  0
 59 61  1  0  0  0
 59 62  1  0  0  0
 60136  1  0  0  0
 60137  1  0  0  0
 60138  1  0  0  0
 61139  1  0  0  0
 61140  1  0  0  0
 61141  1  0  0  0
 62142  1  0  0  0
 62143  1  0  0  0
 62144  1  0  0  0
 63 65  1  0  0  0
 63145  1  0  0  0
 63146  1  0  0  0
 63147  1  0  0  0
 64148  1  0  0  0
 65149  1  0  0  0
 68 88  1  0  0  0
 71 72  2  0  0  0
 71 74  1  0  0  0
 71150  1  0  0  0
 72 75  1  0  0  0
 72151  1  0  0  0
 73 74  2  0  0  0
 73 76  1  0  0  0
 73152  1  0  0  0
 74 88  1  0  0  0
 75 76  2  0  0  0
 75 86  1  0  0  0
 76 87  1  0  0  0
 77 78  1  0  0  0
 77 83  1  0  0  0
 77153  1  0  0  0
 77154  1  0  0  0
 78 84  1  0  0  0
 78155  1  0  0  0
 78156  1  0  0  0
 79 81  1  0  0  0
 79 85  1  0  0  0
 79157  1  0  0  0
 79158  1  0  0  0
 80 82  1  0  0  0
 80 85  1  0  0  0
 80159  1  0  0  0
 80160  1  0  0  0
 81 89  1  0  0  0
 81161  1  0  0  0
 81162  1  0  0  0
 82 89  1  0  0  0
 82163  1  0  0  0
 82164  1  0  0  0
 83 84  1  0  0  0
 83 87  1  0  0  0
 83165  1  0  0  0
 84 90  1  0  0  0
 84166  1  0  0  0
 85 90  1  0  0  0
 85167  1  0  0  0
 86168  1  0  0  0
 86169  1  0  0  0
 86170  1  0  0  0
 87171  1  0  0  0
 87172  1  0  0  0
 88173  1  0  0  0
 88174  1  0  0  0
 90175  1  0  0  0
 90176  1  0  0  0
M  CHG  1  90   1
M  ISO  4   1 100  68 101  88 101  89 100
M  END
> <chiral flag>
0

> <version>
0

> <s_m_source_file>
/data/baiqing/PycharmProjects/Reinvent-master-3.2/result/LINK_invent/BTK/process_docking_weight1_custom_sum_contain_oxygen_bond_distance_aromatic_linkinvent_7_9_3/rearranged_h_0150.sdf

> <i_m_source_file_index>
1

> <r_mmod_Potential_Energy-OPLS-2005>
158.1357421875

> <r_mmod_Stretch_Energy-OPLS-2005>
45.7719039916992

> <r_mmod_Bend_Energy-OPLS-2005>
123.917594909668

> <r_mmod_Torsional_Energy-OPLS-2005>
395.848236083984

> <r_mmod_Improper_Torsional_Energy-OPLS-2005>
15.338475227356

> <r_mmod_Van_der_Waal_Energy-OPLS-2005>
149.514953613281

> <r_mmod_Electrostatic_Energy-OPLS-2005>
-161.021926879883

> <r_mmod_Solvation_Energy-OPLS-2005>
-436.405670166016

> <b_mmod_Minimization_Converged-OPLS-2005>
0

> <r_mmod_RMS_Derivative-OPLS-2005>
4.72035455703735

$$$$
1
                    3D
 Structure written by MMmdl.
166175  0  0  1  0            999 V2000
  -30.7386  -14.4466   20.6029 C   0  0  0  0  0  0
  -30.4134  -12.3067   19.4163 C   0  0  0  0  0  0
  -29.4855  -12.5044   18.2027 C   0  0  0  0  0  0
  -28.0107  -12.3572   18.6206 C   0  0  0  0  0  0
  -27.6589  -13.2064   19.8710 C   0  0  2  0  0  0
  -28.6996  -13.0014   20.9944 C   0  0  0  0  0  0
  -25.2575  -13.8170   20.5678 C   0  0  0  0  0  0
  -24.1827  -13.0443   20.9179 C   0  0  0  0  0  0
  -24.6385  -11.6915   20.8747 C   0  0  0  0  0  0
  -23.9053  -10.4299   21.0418 C   0  0  0  0  0  0
  -24.3612   -9.4215   21.9191 C   0  0  0  0  0  0
  -23.6295   -8.2244   22.0753 C   0  0  0  0  0  0
  -22.4276   -8.0283   21.3544 C   0  0  0  0  0  0
  -21.9912   -9.0254   20.4639 C   0  0  0  0  0  0
  -22.7235  -10.2137   20.3056 C   0  0  0  0  0  0
  -21.6849   -6.0739   22.5276 C   0  0  0  0  0  0
  -21.4012   -6.5640   23.8214 C   0  0  0  0  0  0
  -21.3660   -5.6792   24.9179 C   0  0  0  0  0  0
  -21.6043   -4.3056   24.7227 C   0  0  0  0  0  0
  -21.8822   -3.8153   23.4347 C   0  0  0  0  0  0
  -21.9190   -4.6968   22.3402 C   0  0  0  0  0  0
  -22.7849  -13.5239   21.1852 C   0  0  0  0  0  0
  -22.1660   -4.2159   21.0980 F   0  0  0  0  0  0
  -21.5631   -3.4540   25.7742 F   0  0  0  0  0  0
  -30.0339  -13.2922   20.4422 N   0  0  0  0  0  0
  -26.3008  -12.9334   20.3358 N   0  0  0  0  0  0
  -25.9308  -11.6496   20.5775 N   0  0  0  0  0  0
  -22.0490  -12.8223   22.0403 N   0  0  0  0  0  0
  -25.4288  -15.1879   20.4071 N   0  0  0  0  0  0
  -31.8209  -14.6477   20.0415 O   0  0  0  0  0  0
  -21.6636   -6.8882   21.4239 O   0  0  0  0  0  0
  -22.3532  -14.5548   20.6708 O   0  0  0  0  0  0
  -24.6138  -31.8670   23.2103 C   0  0  0  0  0  0
  -25.9028  -32.4826   23.8390 C   0  0  1  0  0  0
  -27.2326  -27.4396   20.0993 C   0  0  0  0  0  0
  -25.5883  -33.8622   24.2330 N   0  0  0  0  0  0
  -23.4033  -30.4900   21.5506 C   0  0  2  0  0  0
  -24.8516  -28.9581   20.1145 C   0  0  0  0  0  0
  -22.7405  -29.4657   22.5002 C   0  0  0  0  0  0
  -18.0265  -28.1385   22.8496 C   0  0  0  0  0  0
  -24.1488  -36.7320   23.2631 C   0  0  0  0  0  0
  -25.9298  -30.8386   21.3588 C   0  0  0  0  0  0
  -26.0113  -29.4717   20.7083 C   0  0  0  0  0  0
  -27.2083  -28.7198   20.6981 C   0  0  0  0  0  0
  -26.0616  -26.9376   19.4988 C   0  0  0  0  0  0
  -24.8701  -27.6892   19.5075 C   0  0  0  0  0  0
  -23.6113  -29.8208   20.1661 C   0  0  0  0  0  0
  -25.4107  -36.3116   24.0337 C   0  0  1  0  0  0
  -20.5861  -28.3678   23.1330 C   0  0  2  0  0  0
  -20.6770  -26.9419   22.5424 C   0  0  0  0  0  0
  -19.5746  -26.6396   21.5222 C   0  0  0  0  0  0
  -18.1914  -26.7937   22.1617 C   0  0  0  0  0  0
  -19.1519  -28.8840   23.2912 C   0  0  0  0  0  0
  -18.9448  -30.1448   23.8929 C   0  0  0  0  0  0
  -17.6451  -30.6597   24.0564 C   0  0  0  0  0  0
  -25.9033  -34.9475   23.5132 C   0  0  0  0  0  0
  -16.5338  -29.9101   23.6327 C   0  0  0  0  0  0
  -16.7256  -28.6513   23.0355 C   0  0  0  0  0  0
  -26.4470  -31.6598   25.0708 C   0  0  0  0  0  0
  -25.3732  -31.3671   26.1445 C   0  0  0  0  0  0
  -27.0304  -30.3050   24.6054 C   0  0  0  0  0  0
  -27.6069  -32.4297   25.7475 C   0  0  0  0  0  0
  -27.5584  -37.1800   24.8457 C   0  0  0  0  0  0
  -21.4133  -29.3047   22.3742 N   0  0  0  0  0  0
  -26.4292  -37.3798   23.9414 N   0  0  0  0  0  0
  -24.6683  -31.0777   22.0997 N   0  0  0  0  0  0
  -23.4173  -28.8191   23.3050 O   0  0  0  0  0  0
  -28.3700  -26.6658   20.1135 O   0  0  0  0  0  0
  -26.5605  -34.8918   22.4698 O   0  0  0  0  0  0
  -23.5333  -32.1412   23.7512 O   0  0  0  0  0  0
  -28.0019  -21.0951   22.6553 C   0  0  0  0  0  0
  -29.0424  -21.1420   20.4747 C   0  0  0  0  0  0
  -29.0531  -19.0444   21.7868 C   0  0  0  0  0  0
  -28.3538  -19.7405   22.8143 C   0  0  0  0  0  0
  -28.3454  -21.8172   21.5013 C   0  0  0  0  0  0
  -29.4088  -19.7660   20.6070 C   0  0  0  0  0  0
  -30.8935  -17.4074   22.5632 C   0  0  0  0  0  0
  -31.0844  -15.8892   22.5292 C   0  0  0  0  0  0
  -29.3836  -16.4776   20.9600 C   0  0  0  0  0  0
  -29.4791  -17.5724   22.0435 C   0  0  2  0  0  0
  -27.9876  -19.0834   24.1399 C   0  0  0  0  0  0
  -30.4859  -19.7868   18.4458 C   0  0  0  0  0  0
  -28.3643  -24.1695   20.4688 C   0  0  0  0  0  0
  -28.3258  -25.5996   21.0755 C   0  0  0  0  0  0
  -30.2266  -15.3651   21.4539 N   0  0  0  0  0  0
  -27.9725  -23.1757   21.4734 N   0  0  0  0  0  0
  -30.1340  -19.0999   19.6408 O   0  0  0  0  0  0
  -31.4575  -12.3979   19.1099 H   0  0  0  0  0  0
  -30.3122  -11.2965   19.8163 H   0  0  0  0  0  0
  -29.7254  -11.7797   17.4234 H   0  0  0  0  0  0
  -29.6481  -13.4912   17.7661 H   0  0  0  0  0  0
  -27.8287  -11.3016   18.8274 H   0  0  0  0  0  0
  -27.3542  -12.6199   17.7898 H   0  0  0  0  0  0
  -27.6994  -14.2502   19.5611 H   0  0  0  0  0  0
  -28.6725  -11.9728   21.3566 H   0  0  0  0  0  0
  -28.4541  -13.6212   21.8574 H   0  0  0  0  0  0
  -25.2761   -9.5692   22.4760 H   0  0  0  0  0  0
  -24.0007   -7.4638   22.7472 H   0  0  0  0  0  0
  -21.0849   -8.8777   19.8940 H   0  0  0  0  0  0
  -22.3707  -10.9679   19.6160 H   0  0  0  0  0  0
  -21.2003   -7.6147   23.9724 H   0  0  0  0  0  0
  -21.1473   -6.0522   25.9083 H   0  0  0  0  0  0
  -22.0597   -2.7617   23.2846 H   0  0  0  0  0  0
  -22.4098  -11.9865   22.4767 H   0  0  0  0  0  0
  -21.1104  -13.1239   22.2613 H   0  0  0  0  0  0
  -24.6647  -15.8451   20.5213 H   0  0  0  0  0  0
  -26.2816  -15.6266   20.0855 H   0  0  0  0  0  0
  -26.7095  -32.5551   23.1157 H   0  0  0  0  0  0
  -25.0066  -33.9810   25.0497 H   0  0  0  0  0  0
  -22.6924  -31.3067   21.4114 H   0  0  0  0  0  0
  -23.3752  -35.9645   23.3292 H   0  0  0  0  0  0
  -24.3576  -36.8939   22.2039 H   0  0  0  0  0  0
  -23.7238  -37.6517   23.6661 H   0  0  0  0  0  0
  -26.0303  -31.6032   20.5864 H   0  0  0  0  0  0
  -26.8208  -30.9012   21.9710 H   0  0  0  0  0  0
  -28.1035  -29.1086   21.1633 H   0  0  0  0  0  0
  -26.0708  -25.9617   19.0328 H   0  0  0  0  0  0
  -23.9769  -27.2874   19.0500 H   0  0  0  0  0  0
  -23.7124  -30.5938   19.4038 H   0  0  0  0  0  0
  -22.7363  -29.2358   19.8765 H   0  0  0  0  0  0
  -25.1275  -36.1979   25.0828 H   0  0  0  0  0  0
  -20.9947  -28.3241   24.1451 H   0  0  0  0  0  0
  -20.5695  -26.2278   23.3606 H   0  0  0  0  0  0
  -21.6634  -26.7483   22.1191 H   0  0  0  0  0  0
  -19.6915  -25.6314   21.1231 H   0  0  0  0  0  0
  -19.6684  -27.3225   20.6772 H   0  0  0  0  0  0
  -17.4194  -26.6709   21.4001 H   0  0  0  0  0  0
  -18.0288  -26.0076   22.9004 H   0  0  0  0  0  0
  -19.7931  -30.7244   24.2319 H   0  0  0  0  0  0
  -17.5017  -31.6285   24.5149 H   0  0  0  0  0  0
  -15.5348  -30.3002   23.7663 H   0  0  0  0  0  0
  -15.8655  -28.0837   22.7074 H   0  0  0  0  0  0
  -24.5980  -30.6940   25.7775 H   0  0  0  0  0  0
  -24.8833  -32.2794   26.4854 H   0  0  0  0  0  0
  -25.8076  -30.8888   27.0231 H   0  0  0  0  0  0
  -26.2843  -29.6798   24.1132 H   0  0  0  0  0  0
  -27.4129  -29.7290   25.4491 H   0  0  0  0  0  0
  -27.8650  -30.4394   23.9168 H   0  0  0  0  0  0
  -27.2747  -33.3628   26.2041 H   0  0  0  0  0  0
  -28.3892  -32.6786   25.0294 H   0  0  0  0  0  0
  -28.0716  -31.8396   26.5385 H   0  0  0  0  0  0
  -28.2582  -38.0118   24.7545 H   0  0  0  0  0  0
  -28.1106  -36.2647   24.6248 H   0  0  0  0  0  0
  -27.2300  -37.1409   25.8857 H   0  0  0  0  0  0
  -20.9306  -29.8765   21.6951 H   0  0  0  0  0  0
  -26.0179  -38.2874   24.1427 H   0  0  0  0  0  0
  -27.4725  -21.5959   23.4545 H   0  0  0  0  0  0
  -29.3023  -21.7011   19.5898 H   0  0  0  0  0  0
  -31.5999  -17.8910   21.8864 H   0  0  0  0  0  0
  -31.0367  -17.8304   23.5582 H   0  0  0  0  0  0
  -30.7480  -15.4467   23.4675 H   0  0  0  0  0  0
  -32.1402  -15.6324   22.4181 H   0  0  0  0  0  0
  -29.7631  -16.8024   19.9930 H   0  0  0  0  0  0
  -28.3513  -16.1627   20.8138 H   0  0  0  0  0  0
  -28.8228  -17.1766   22.8158 H   0  0  0  0  0  0
  -27.6113  -19.8113   24.8595 H   0  0  0  0  0  0
  -28.8589  -18.6107   24.5950 H   0  0  0  0  0  0
  -27.2114  -18.3306   23.9968 H   0  0  0  0  0  0
  -31.0236  -19.1078   17.7843 H   0  0  0  0  0  0
  -31.1430  -20.6335   18.6498 H   0  0  0  0  0  0
  -29.6028  -20.1322   17.9062 H   0  0  0  0  0  0
  -29.3607  -23.9621   20.0768 H   0  0  0  0  0  0
  -27.6673  -24.1048   19.6314 H   0  0  0  0  0  0
  -29.1749  -25.7258   21.7479 H   0  0  0  0  0  0
  -27.4436  -25.6964   21.7127 H   0  0  0  0  0  0
  -27.4612  -23.5348   22.2758 H   0  0  0  0  0  0
  1 25  1  0  0  0
  1 30  2  0  0  0
  1 85  1  0  0  0
  2  3  1  0  0  0
  2 25  1  0  0  0
  2 88  1  0  0  0
  2 89  1  0  0  0
  3  4  1  0  0  0
  3 90  1  0  0  0
  3 91  1  0  0  0
  4  5  1  0  0  0
  4 92  1  0  0  0
  4 93  1  0  0  0
  5  6  1  0  0  0
  5 26  1  0  0  0
  5 94  1  0  0  0
  6 25  1  0  0  0
  6 95  1  0  0  0
  6 96  1  0  0  0
  7  8  2  0  0  0
  7 26  1  0  0  0
  7 29  1  0  0  0
  8  9  1  0  0  0
  8 22  1  0  0  0
  9 10  1  0  0  0
  9 27  2  0  0  0
 10 11  2  0  0  0
 10 15  1  0  0  0
 11 12  1  0  0  0
 11 97  1  0  0  0
 12 13  2  0  0  0
 12 98  1  0  0  0
 13 14  1  0  0  0
 13 31  1  0  0  0
 14 15  2  0  0  0
 14 99  1  0  0  0
 15100  1  0  0  0
 16 17  2  0  0  0
 16 21  1  0  0  0
 16 31  1  0  0  0
 17 18  1  0  0  0
 17101  1  0  0  0
 18 19  2  0  0  0
 18102  1  0  0  0
 19 20  1  0  0  0
 19 24  1  0  0  0
 20 21  2  0  0  0
 20103  1  0  0  0
 21 23  1  0  0  0
 22 28  1  0  0  0
 22 32  2  0  0  0
 26 27  1  0  0  0
 28104  1  0  0  0
 28105  1  0  0  0
 29106  1  0  0  0
 29107  1  0  0  0
 33 34  1  0  0  0
 33 66  1  0  0  0
 33 70  2  0  0  0
 34 36  1  0  0  0
 34 59  1  0  0  0
 34108  1  0  0  0
 35 44  2  0  0  0
 35 45  1  0  0  0
 35 68  1  0  0  0
 36 56  1  0  0  0
 36109  1  0  0  0
 37 39  1  0  0  0
 37 47  1  0  0  0
 37 66  1  0  0  0
 37110  1  0  0  0
 38 43  2  0  0  0
 38 46  1  0  0  0
 38 47  1  0  0  0
 39 64  1  0  0  0
 39 67  2  0  0  0
 40 52  1  0  0  0
 40 53  2  0  0  0
 40 58  1  0  0  0
 41111  1  0  0  0
 41112  1  0  0  0
 41113  1  0  0  0
 41 48  1  0  0  0
 42 43  1  0  0  0
 42 66  1  0  0  0
 42114  1  0  0  0
 42115  1  0  0  0
 43 44  1  0  0  0
 44116  1  0  0  0
 45 46  2  0  0  0
 45117  1  0  0  0
 46118  1  0  0  0
 47119  1  0  0  0
 47120  1  0  0  0
 48 56  1  0  0  0
 48 65  1  0  0  0
 48121  1  0  0  0
 49 50  1  0  0  0
 49 53  1  0  0  0
 49 64  1  0  0  0
 49122  1  0  0  0
 50 51  1  0  0  0
 50123  1  0  0  0
 50124  1  0  0  0
 51 52  1  0  0  0
 51125  1  0  0  0
 51126  1  0  0  0
 52127  1  0  0  0
 52128  1  0  0  0
 53 54  1  0  0  0
 54 55  2  0  0  0
 54129  1  0  0  0
 55 57  1  0  0  0
 55130  1  0  0  0
 56 69  2  0  0  0
 57 58  2  0  0  0
 57131  1  0  0  0
 58132  1  0  0  0
 59 60  1  0  0  0
 59 61  1  0  0  0
 59 62  1  0  0  0
 60133  1  0  0  0
 60134  1  0  0  0
 60135  1  0  0  0
 61136  1  0  0  0
 61137  1  0  0  0
 61138  1  0  0  0
 62139  1  0  0  0
 62140  1  0  0  0
 62141  1  0  0  0
 63 65  1  0  0  0
 63142  1  0  0  0
 63143  1  0  0  0
 63144  1  0  0  0
 64145  1  0  0  0
 65146  1  0  0  0
 68 84  1  0  0  0
 71 74  2  0  0  0
 71 75  1  0  0  0
 71147  1  0  0  0
 72 75  2  0  0  0
 72 76  1  0  0  0
 72148  1  0  0  0
 73 74  1  0  0  0
 73 76  2  0  0  0
 73 80  1  0  0  0
 74 81  1  0  0  0
 75 86  1  0  0  0
 76 87  1  0  0  0
 77 78  1  0  0  0
 77 80  1  0  0  0
 77149  1  0  0  0
 77150  1  0  0  0
 78 85  1  0  0  0
 78151  1  0  0  0
 78152  1  0  0  0
 79 80  1  0  0  0
 79 85  1  0  0  0
 79153  1  0  0  0
 79154  1  0  0  0
 80155  1  0  0  0
 81156  1  0  0  0
 81157  1  0  0  0
 81158  1  0  0  0
 82 87  1  0  0  0
 82159  1  0  0  0
 82160  1  0  0  0
 82161  1  0  0  0
 83 84  1  0  0  0
 83 86  1  0  0  0
 83162  1  0  0  0
 83163  1  0  0  0
 84164  1  0  0  0
 84165  1  0  0  0
 86166  1  0  0  0
M  ISO  4   1 100  68 101  84 101  85 100
M  END
> <chiral flag>
0

> <version>
0

> <s_m_source_file>
/data/baiqing/PycharmProjects/Reinvent-master-3.2/result/LINK_invent/BTK/process_docking_weight1_custom_sum_contain_oxygen_bond_distance_aromatic_linkinvent_7_9_3/rearranged_h_0150.sdf

> <i_m_source_file_index>
2

> <r_mmod_Potential_Energy-OPLS-2005>
221.334411621094

> <r_mmod_Stretch_Energy-OPLS-2005>
43.9473571777344

> <r_mmod_Bend_Energy-OPLS-2005>
158.386703491211

> <r_mmod_Torsional_Energy-OPLS-2005>
336.636413574219

> <r_mmod_Improper_Torsional_Energy-OPLS-2005>
6.03085470199585

> <r_mmod_Van_der_Waal_Energy-OPLS-2005>
155.625259399414

> <r_mmod_Electrostatic_Energy-OPLS-2005>
-281.843963623047

> <r_mmod_Solvation_Energy-OPLS-2005>
-208.706985473633

> <b_mmod_Minimization_Converged-OPLS-2005>
0

> <r_mmod_RMS_Derivative-OPLS-2005>
1.59839999675751

$$$$
2
                    3D
 Structure written by MMmdl.
161170  0  0  1  0            999 V2000
  -30.6656  -14.5627   20.4466 C   0  0  0  0  0  0
  -30.4154  -12.3236   19.4545 C   0  0  0  0  0  0
  -29.5005  -12.4896   18.2213 C   0  0  0  0  0  0
  -28.0203  -12.3524   18.6322 C   0  0  0  0  0  0
  -27.6537  -13.2210   19.8676 C   0  0  2  0  0  0
  -28.7007  -13.0646   20.9967 C   0  0  0  0  0  0
  -25.2548  -13.8173   20.5761 C   0  0  0  0  0  0
  -24.1819  -13.0434   20.9227 C   0  0  0  0  0  0
  -24.6394  -11.6900   20.8739 C   0  0  0  0  0  0
  -23.9069  -10.4279   21.0393 C   0  0  0  0  0  0
  -24.3624   -9.4195   21.9181 C   0  0  0  0  0  0
  -23.6308   -8.2232   22.0755 C   0  0  0  0  0  0
  -22.4287   -8.0275   21.3550 C   0  0  0  0  0  0
  -21.9922   -9.0239   20.4651 C   0  0  0  0  0  0
  -22.7236  -10.2120   20.3055 C   0  0  0  0  0  0
  -21.6841   -6.0754   22.5286 C   0  0  0  0  0  0
  -21.4006   -6.5650   23.8213 C   0  0  0  0  0  0
  -21.3667   -5.6803   24.9179 C   0  0  0  0  0  0
  -21.6039   -4.3061   24.7219 C   0  0  0  0  0  0
  -21.8814   -3.8155   23.4338 C   0  0  0  0  0  0
  -21.9187   -4.6976   22.3402 C   0  0  0  0  0  0
  -22.7835  -13.5209   21.1881 C   0  0  0  0  0  0
  -22.1662   -4.2171   21.0979 F   0  0  0  0  0  0
  -21.5631   -3.4551   25.7730 F   0  0  0  0  0  0
  -30.0263  -13.3567   20.4327 N   0  0  0  0  0  0
  -26.3002  -12.9379   20.3382 N   0  0  0  0  0  0
  -25.9325  -11.6520   20.5766 N   0  0  0  0  0  0
  -22.0490  -12.8193   22.0422 N   0  0  0  0  0  0
  -25.4232  -15.1911   20.4231 N   0  0  0  0  0  0
  -31.8278  -14.6888   20.0570 O   0  0  0  0  0  0
  -21.6630   -6.8889   21.4250 O   0  0  0  0  0  0
  -22.3517  -14.5527   20.6736 O   0  0  0  0  0  0
  -24.6165  -31.8685   23.2089 C   0  0  0  0  0  0
  -25.9048  -32.4829   23.8394 C   0  0  1  0  0  0
  -27.2219  -27.3969   20.1057 C   0  0  0  0  0  0
  -25.5906  -33.8626   24.2335 N   0  0  0  0  0  0
  -23.4060  -30.4891   21.5528 C   0  0  2  0  0  0
  -24.8496  -28.9492   20.1204 C   0  0  0  0  0  0
  -22.7444  -29.4639   22.5017 C   0  0  0  0  0  0
  -18.0276  -28.1366   22.8489 C   0  0  0  0  0  0
  -24.1489  -36.7312   23.2638 C   0  0  0  0  0  0
  -25.9376  -30.8196   21.3688 C   0  0  0  0  0  0
  -26.0135  -29.4507   20.7162 C   0  0  0  0  0  0
  -27.2040  -28.6836   20.7019 C   0  0  0  0  0  0
  -26.0427  -26.9250   19.4879 C   0  0  0  0  0  0
  -24.8606  -27.6878   19.5016 C   0  0  0  0  0  0
  -23.6155  -29.8234   20.1676 C   0  0  0  0  0  0
  -25.4115  -36.3129   24.0343 C   0  0  1  0  0  0
  -20.5867  -28.3658   23.1323 C   0  0  2  0  0  0
  -20.6773  -26.9398   22.5421 C   0  0  0  0  0  0
  -19.5759  -26.6377   21.5214 C   0  0  0  0  0  0
  -18.1928  -26.7914   22.1617 C   0  0  0  0  0  0
  -19.1525  -28.8830   23.2894 C   0  0  0  0  0  0
  -18.9460  -30.1433   23.8900 C   0  0  0  0  0  0
  -17.6467  -30.6576   24.0559 C   0  0  0  0  0  0
  -25.9043  -34.9488   23.5143 C   0  0  0  0  0  0
  -16.5354  -29.9079   23.6323 C   0  0  0  0  0  0
  -16.7269  -28.6493   23.0348 C   0  0  0  0  0  0
  -26.4461  -31.6605   25.0725 C   0  0  0  0  0  0
  -25.3713  -31.3719   26.1467 C   0  0  0  0  0  0
  -27.0289  -30.3057   24.6083 C   0  0  0  0  0  0
  -27.6055  -32.4314   25.7475 C   0  0  0  0  0  0
  -27.5598  -37.1816   24.8471 C   0  0  0  0  0  0
  -21.4167  -29.3028   22.3745 N   0  0  0  0  0  0
  -26.4309  -37.3816   23.9409 N   0  0  0  0  0  0
  -24.6719  -31.0739   22.1018 N   0  0  0  0  0  0
  -23.4207  -28.8185   23.3062 O   0  0  0  0  0  0
  -28.3764  -26.6340   20.0940 O   0  0  0  0  0  0
  -26.5608  -34.8944   22.4707 O   0  0  0  0  0  0
  -23.5353  -32.1442   23.7470 O   0  0  0  0  0  0
  -29.0736  -19.1906   19.8839 C   0  0  0  0  0  0
  -31.7827  -20.0085   19.9116 C   0  0  0  0  0  0
  -29.4204  -20.5681   19.9252 C   0  0  0  0  0  0
  -30.7450  -20.9561   19.9431 C   0  0  0  0  0  0
  -30.1025  -18.1983   19.8426 C   0  0  0  0  0  0
  -31.4633  -18.6195   19.8502 C   0  0  0  0  0  0
  -28.5353  -21.8146   19.9230 C   0  0  0  0  0  0
  -30.8624  -22.4645   19.9733 C   0  0  0  0  0  0
  -33.7685  -18.0266   19.5222 C   0  0  0  0  0  0
  -29.7545  -16.7117   19.5560 C   0  0  0  0  0  0
  -29.1852  -24.3099   19.6547 C   0  0  0  0  0  0
  -28.2670  -25.2426   20.5012 C   0  0  0  0  0  0
  -29.8707  -15.6525   20.5972 N   0  0  0  0  0  0
  -29.4743  -22.9489   20.2413 N   0  3  1  0  0  0
  -32.4215  -17.6377   19.7430 O   0  0  0  0  0  0
  -31.4665  -12.3908   19.1672 H   0  0  0  0  0  0
  -30.2917  -11.3301   19.8854 H   0  0  0  0  0  0
  -29.7465  -11.7480   17.4598 H   0  0  0  0  0  0
  -29.6660  -13.4657   17.7618 H   0  0  0  0  0  0
  -27.8436  -11.3008   18.8633 H   0  0  0  0  0  0
  -27.3670  -12.5960   17.7919 H   0  0  0  0  0  0
  -27.6729  -14.2568   19.5280 H   0  0  0  0  0  0
  -28.6816  -12.0463   21.3866 H   0  0  0  0  0  0
  -28.4759  -13.7149   21.8436 H   0  0  0  0  0  0
  -25.2772   -9.5666   22.4750 H   0  0  0  0  0  0
  -24.0018   -7.4612   22.7465 H   0  0  0  0  0  0
  -21.0861   -8.8737   19.8950 H   0  0  0  0  0  0
  -22.3694  -10.9655   19.6163 H   0  0  0  0  0  0
  -21.1985   -7.6149   23.9727 H   0  0  0  0  0  0
  -21.1512   -6.0533   25.9089 H   0  0  0  0  0  0
  -22.0586   -2.7627   23.2821 H   0  0  0  0  0  0
  -22.4129  -11.9862   22.4816 H   0  0  0  0  0  0
  -21.1103  -13.1192   22.2617 H   0  0  0  0  0  0
  -24.6467  -15.8370   20.5171 H   0  0  0  0  0  0
  -26.2664  -15.6337   20.0842 H   0  0  0  0  0  0
  -26.7113  -32.5534   23.1147 H   0  0  0  0  0  0
  -25.0085  -33.9793   25.0502 H   0  0  0  0  0  0
  -22.6944  -31.3052   21.4138 H   0  0  0  0  0  0
  -23.3776  -35.9624   23.3304 H   0  0  0  0  0  0
  -24.3581  -36.8921   22.2054 H   0  0  0  0  0  0
  -23.7204  -37.6504   23.6642 H   0  0  0  0  0  0
  -26.0545  -31.5828   20.5984 H   0  0  0  0  0  0
  -26.8238  -30.8743   21.9892 H   0  0  0  0  0  0
  -28.1023  -29.0663   21.1669 H   0  0  0  0  0  0
  -26.0287  -25.9686   18.9843 H   0  0  0  0  0  0
  -23.9670  -27.3010   19.0298 H   0  0  0  0  0  0
  -23.7351  -30.5995   19.4114 H   0  0  0  0  0  0
  -22.7369  -29.2498   19.8655 H   0  0  0  0  0  0
  -25.1289  -36.2014   25.0839 H   0  0  0  0  0  0
  -20.9924  -28.3207   24.1461 H   0  0  0  0  0  0
  -20.5686  -26.2269   23.3608 H   0  0  0  0  0  0
  -21.6647  -26.7453   22.1215 H   0  0  0  0  0  0
  -19.6935  -25.6290   21.1242 H   0  0  0  0  0  0
  -19.6696  -27.3193   20.6746 H   0  0  0  0  0  0
  -17.4211  -26.6669   21.3999 H   0  0  0  0  0  0
  -18.0319  -26.0032   22.8990 H   0  0  0  0  0  0
  -19.7937  -30.7240   24.2278 H   0  0  0  0  0  0
  -17.5024  -31.6258   24.5165 H   0  0  0  0  0  0
  -15.5355  -30.2992   23.7635 H   0  0  0  0  0  0
  -15.8665  -28.0810   22.7071 H   0  0  0  0  0  0
  -24.5896  -30.7050   25.7806 H   0  0  0  0  0  0
  -24.8876  -32.2874   26.4892 H   0  0  0  0  0  0
  -25.8049  -30.8910   27.0245 H   0  0  0  0  0  0
  -26.2827  -29.6830   24.1133 H   0  0  0  0  0  0
  -27.4081  -29.7277   25.4518 H   0  0  0  0  0  0
  -27.8656  -30.4405   23.9223 H   0  0  0  0  0  0
  -27.2706  -33.3630   26.2052 H   0  0  0  0  0  0
  -28.3856  -32.6843   25.0279 H   0  0  0  0  0  0
  -28.0726  -31.8424   26.5380 H   0  0  0  0  0  0
  -28.2633  -38.0105   24.7540 H   0  0  0  0  0  0
  -28.1082  -36.2638   24.6278 H   0  0  0  0  0  0
  -27.2317  -37.1453   25.8878 H   0  0  0  0  0  0
  -20.9353  -29.8746   21.6948 H   0  0  0  0  0  0
  -26.0213  -38.2909   24.1397 H   0  0  0  0  0  0
  -28.0349  -18.8991   19.8219 H   0  0  0  0  0  0
  -32.8016  -20.3662   19.9011 H   0  0  0  0  0  0
  -27.7345  -21.7376   20.6579 H   0  0  0  0  0  0
  -28.0853  -21.9351   18.9363 H   0  0  0  0  0  0
  -31.2243  -22.8133   19.0039 H   0  0  0  0  0  0
  -31.5552  -22.8039   20.7426 H   0  0  0  0  0  0
  -33.8697  -18.6138   18.6075 H   0  0  0  0  0  0
  -34.3800  -17.1317   19.4065 H   0  0  0  0  0  0
  -34.1715  -18.5907   20.3628 H   0  0  0  0  0  0
  -30.3283  -16.4183   18.6732 H   0  0  0  0  0  0
  -28.7227  -16.6807   19.2088 H   0  0  0  0  0  0
  -30.1349  -24.8389   19.5628 H   0  0  0  0  0  0
  -28.8040  -24.2213   18.6380 H   0  0  0  0  0  0
  -28.5726  -25.2109   21.5484 H   0  0  0  0  0  0
  -27.2471  -24.8585   20.4833 H   0  0  0  0  0  0
  -29.0085  -15.4725   21.0878 H   0  0  0  0  0  0
  -29.4498  -23.0373   21.2463 H   0  0  0  0  0  0
  1 25  1  0  0  0
  1 30  2  0  0  0
  1 83  1  0  0  0
  2  3  1  0  0  0
  2 25  1  0  0  0
  2 86  1  0  0  0
  2 87  1  0  0  0
  3  4  1  0  0  0
  3 88  1  0  0  0
  3 89  1  0  0  0
  4  5  1  0  0  0
  4 90  1  0  0  0
  4 91  1  0  0  0
  5  6  1  0  0  0
  5 26  1  0  0  0
  5 92  1  0  0  0
  6 25  1  0  0  0
  6 93  1  0  0  0
  6 94  1  0  0  0
  7  8  2  0  0  0
  7 26  1  0  0  0
  7 29  1  0  0  0
  8  9  1  0  0  0
  8 22  1  0  0  0
  9 10  1  0  0  0
  9 27  2  0  0  0
 10 11  2  0  0  0
 10 15  1  0  0  0
 11 12  1  0  0  0
 11 95  1  0  0  0
 12 13  2  0  0  0
 12 96  1  0  0  0
 13 14  1  0  0  0
 13 31  1  0  0  0
 14 15  2  0  0  0
 14 97  1  0  0  0
 15 98  1  0  0  0
 16 17  2  0  0  0
 16 21  1  0  0  0
 16 31  1  0  0  0
 17 18  1  0  0  0
 17 99  1  0  0  0
 18 19  2  0  0  0
 18100  1  0  0  0
 19 20  1  0  0  0
 19 24  1  0  0  0
 20 21  2  0  0  0
 20101  1  0  0  0
 21 23  1  0  0  0
 22 28  1  0  0  0
 22 32  2  0  0  0
 26 27  1  0  0  0
 28102  1  0  0  0
 28103  1  0  0  0
 29104  1  0  0  0
 29105  1  0  0  0
 33 34  1  0  0  0
 33 66  1  0  0  0
 33 70  2  0  0  0
 34 36  1  0  0  0
 34 59  1  0  0  0
 34106  1  0  0  0
 35 44  2  0  0  0
 35 45  1  0  0  0
 35 68  1  0  0  0
 36 56  1  0  0  0
 36107  1  0  0  0
 37 39  1  0  0  0
 37 47  1  0  0  0
 37 66  1  0  0  0
 37108  1  0  0  0
 38 43  2  0  0  0
 38 46  1  0  0  0
 38 47  1  0  0  0
 39 64  1  0  0  0
 39 67  2  0  0  0
 40 52  1  0  0  0
 40 53  2  0  0  0
 40 58  1  0  0  0
 41109  1  0  0  0
 41110  1  0  0  0
 41111  1  0  0  0
 41 48  1  0  0  0
 42 43  1  0  0  0
 42 66  1  0  0  0
 42112  1  0  0  0
 42113  1  0  0  0
 43 44  1  0  0  0
 44114  1  0  0  0
 45 46  2  0  0  0
 45115  1  0  0  0
 46116  1  0  0  0
 47117  1  0  0  0
 47118  1  0  0  0
 48 56  1  0  0  0
 48 65  1  0  0  0
 48119  1  0  0  0
 49 50  1  0  0  0
 49 53  1  0  0  0
 49 64  1  0  0  0
 49120  1  0  0  0
 50 51  1  0  0  0
 50121  1  0  0  0
 50122  1  0  0  0
 51 52  1  0  0  0
 51123  1  0  0  0
 51124  1  0  0  0
 52125  1  0  0  0
 52126  1  0  0  0
 53 54  1  0  0  0
 54 55  2  0  0  0
 54127  1  0  0  0
 55 57  1  0  0  0
 55128  1  0  0  0
 56 69  2  0  0  0
 57 58  2  0  0  0
 57129  1  0  0  0
 58130  1  0  0  0
 59 60  1  0  0  0
 59 61  1  0  0  0
 59 62  1  0  0  0
 60131  1  0  0  0
 60132  1  0  0  0
 60133  1  0  0  0
 61134  1  0  0  0
 61135  1  0  0  0
 61136  1  0  0  0
 62137  1  0  0  0
 62138  1  0  0  0
 62139  1  0  0  0
 63 65  1  0  0  0
 63140  1  0  0  0
 63141  1  0  0  0
 63142  1  0  0  0
 64143  1  0  0  0
 65144  1  0  0  0
 68 82  1  0  0  0
 71 73  2  0  0  0
 71 75  1  0  0  0
 71145  1  0  0  0
 72 74  2  0  0  0
 72 76  1  0  0  0
 72146  1  0  0  0
 73 74  1  0  0  0
 73 77  1  0  0  0
 74 78  1  0  0  0
 75 76  2  0  0  0
 75 80  1  0  0  0
 76 85  1  0  0  0
 77 84  1  0  0  0
 77147  1  0  0  0
 77148  1  0  0  0
 78 84  1  0  0  0
 78149  1  0  0  0
 78150  1  0  0  0
 79 85  1  0  0  0
 79151  1  0  0  0
 79152  1  0  0  0
 79153  1  0  0  0
 80 83  1  0  0  0
 80154  1  0  0  0
 80155  1  0  0  0
 81 82  1  0  0  0
 81156  1  0  0  0
 81157  1  0  0  0
 81 84  1  0  0  0
 82158  1  0  0  0
 82159  1  0  0  0
 83160  1  0  0  0
 84161  1  0  0  0
M  CHG  1  84   1
M  ISO  4   1 100  68 101  82 101  83 100
M  END
> <chiral flag>
0

> <version>
0

> <s_m_source_file>
/data/baiqing/PycharmProjects/Reinvent-master-3.2/result/LINK_invent/BTK/process_docking_weight1_custom_sum_contain_oxygen_bond_distance_aromatic_linkinvent_7_9_3/rearranged_h_0150.sdf

> <i_m_source_file_index>
3

> <r_mmod_Potential_Energy-OPLS-2005>
-97.5809020996094

> <r_mmod_Stretch_Energy-OPLS-2005>
52.7914161682129

> <r_mmod_Bend_Energy-OPLS-2005>
161.837371826172

> <r_mmod_Torsional_Energy-OPLS-2005>
267.580871582031

> <r_mmod_Improper_Torsional_Energy-OPLS-2005>
12.4890832901001

> <r_mmod_Van_der_Waal_Energy-OPLS-2005>
144.554779052734

> <r_mmod_Electrostatic_Energy-OPLS-2005>
-296.67919921875

> <r_mmod_Solvation_Energy-OPLS-2005>
-466.155426025391

> <b_mmod_Minimization_Converged-OPLS-2005>
0

> <r_mmod_RMS_Derivative-OPLS-2005>
2.95475244522095

$$$$
3
                    3D
 Structure written by MMmdl.
165174  0  0  1  0            999 V2000
  -30.6864  -14.5380   20.5028 C   0  0  0  0  0  0
  -30.4156  -12.3291   19.4343 C   0  0  0  0  0  0
  -29.4911  -12.5109   18.2119 C   0  0  0  0  0  0
  -28.0111  -12.3660   18.6231 C   0  0  0  0  0  0
  -27.6523  -13.2156   19.8749 C   0  0  2  0  0  0
  -28.7034  -13.0313   20.9950 C   0  0  0  0  0  0
  -25.2524  -13.8157   20.5758 C   0  0  0  0  0  0
  -24.1822  -13.0409   20.9229 C   0  0  0  0  0  0
  -24.6418  -11.6885   20.8794 C   0  0  0  0  0  0
  -23.9105  -10.4270   21.0462 C   0  0  0  0  0  0
  -24.3646   -9.4164   21.9220 C   0  0  0  0  0  0
  -23.6314   -8.2202   22.0752 C   0  0  0  0  0  0
  -22.4293   -8.0271   21.3531 C   0  0  0  0  0  0
  -21.9951   -9.0256   20.4630 C   0  0  0  0  0  0
  -22.7304  -10.2132   20.3078 C   0  0  0  0  0  0
  -21.6832   -6.0761   22.5289 C   0  0  0  0  0  0
  -21.4009   -6.5652   23.8226 C   0  0  0  0  0  0
  -21.3665   -5.6804   24.9193 C   0  0  0  0  0  0
  -21.6048   -4.3060   24.7230 C   0  0  0  0  0  0
  -21.8808   -3.8170   23.4342 C   0  0  0  0  0  0
  -21.9176   -4.6994   22.3405 C   0  0  0  0  0  0
  -22.7825  -13.5155   21.1880 C   0  0  0  0  0  0
  -22.1641   -4.2190   21.0971 F   0  0  0  0  0  0
  -21.5638   -3.4540   25.7739 F   0  0  0  0  0  0
  -30.0165  -13.3492   20.4191 N   0  0  0  0  0  0
  -26.2993  -12.9363   20.3430 N   0  0  0  0  0  0
  -25.9348  -11.6509   20.5832 N   0  0  0  0  0  0
  -22.0495  -12.8142   22.0433 N   0  0  0  0  0  0
  -25.4111  -15.1915   20.4210 N   0  0  0  0  0  0
  -31.8733  -14.6204   20.1708 O   0  0  0  0  0  0
  -21.6610   -6.8912   21.4253 O   0  0  0  0  0  0
  -22.3498  -14.5477   20.6738 O   0  0  0  0  0  0
  -24.6187  -31.8632   23.2073 C   0  0  0  0  0  0
  -25.9060  -32.4801   23.8386 C   0  0  1  0  0  0
  -27.2265  -27.3992   20.1251 C   0  0  0  0  0  0
  -25.5920  -33.8606   24.2317 N   0  0  0  0  0  0
  -23.4097  -30.4850   21.5445 C   0  0  2  0  0  0
  -24.8580  -28.9490   20.1118 C   0  0  0  0  0  0
  -22.7439  -29.4629   22.4948 C   0  0  0  0  0  0
  -18.0276  -28.1413   22.8472 C   0  0  0  0  0  0
  -24.1502  -36.7300   23.2643 C   0  0  0  0  0  0
  -25.9410  -30.8196   21.3677 C   0  0  0  0  0  0
  -26.0178  -29.4541   20.7138 C   0  0  0  0  0  0
  -27.2088  -28.6890   20.7096 C   0  0  0  0  0  0
  -26.0539  -26.9170   19.5049 C   0  0  0  0  0  0
  -24.8747  -27.6852   19.4959 C   0  0  0  0  0  0
  -23.6207  -29.8165   20.1593 C   0  0  0  0  0  0
  -25.4133  -36.3100   24.0329 C   0  0  1  0  0  0
  -20.5864  -28.3686   23.1303 C   0  0  2  0  0  0
  -20.6771  -26.9413   22.5422 C   0  0  0  0  0  0
  -19.5758  -26.6395   21.5209 C   0  0  0  0  0  0
  -18.1925  -26.7961   22.1609 C   0  0  0  0  0  0
  -19.1527  -28.8871   23.2886 C   0  0  0  0  0  0
  -18.9451  -30.1476   23.8906 C   0  0  0  0  0  0
  -17.6451  -30.6602   24.0573 C   0  0  0  0  0  0
  -25.9039  -34.9466   23.5114 C   0  0  0  0  0  0
  -16.5342  -29.9098   23.6346 C   0  0  0  0  0  0
  -16.7261  -28.6525   23.0343 C   0  0  0  0  0  0
  -26.4481  -31.6599   25.0729 C   0  0  0  0  0  0
  -25.3736  -31.3672   26.1455 C   0  0  0  0  0  0
  -27.0319  -30.3050   24.6126 C   0  0  0  0  0  0
  -27.6069  -32.4314   25.7480 C   0  0  0  0  0  0
  -27.5596  -37.1817   24.8475 C   0  0  0  0  0  0
  -21.4155  -29.3043   22.3702 N   0  0  0  0  0  0
  -26.4326  -37.3781   23.9394 N   0  0  0  0  0  0
  -24.6738  -31.0703   22.0978 N   0  0  0  0  0  0
  -23.4181  -28.8161   23.3009 O   0  0  0  0  0  0
  -28.3744  -26.6328   20.1581 O   0  0  0  0  0  0
  -26.5592  -34.8904   22.4668 O   0  0  0  0  0  0
  -23.5362  -32.1388   23.7441 O   0  0  0  0  0  0
  -29.1341  -20.5040   19.8357 C   0  0  0  0  0  0
  -29.7897  -20.7785   17.1511 C   0  0  0  0  0  0
  -29.3894  -19.3121   19.0829 C   0  0  0  0  0  0
  -29.7338  -19.4896   17.7171 C   0  0  0  0  0  0
  -29.1817  -21.8187   19.2741 C   0  0  0  0  0  0
  -29.5078  -21.9476   17.8913 C   0  0  0  0  0  0
  -29.0550  -17.7923   21.2085 C   0  0  0  0  0  0
  -29.1596  -16.2815   21.5301 C   0  0  0  0  0  0
  -30.2168  -16.7477   19.4697 C   0  0  0  0  0  0
  -29.1717  -17.8814   19.6907 C   0  0  2  0  0  0
  -30.0587  -18.3247   16.8044 C   0  0  0  0  0  0
  -29.1902  -23.3083   15.9264 C   0  0  0  0  0  0
  -28.2354  -25.2666   20.6239 C   0  0  0  0  0  0
  -28.7389  -24.2314   19.5936 C   0  0  0  0  0  0
  -29.9184  -15.6665   20.4322 N   0  0  0  0  0  0
  -29.6058  -23.1866   17.2863 O   0  0  0  0  0  0
  -28.8874  -22.8922   20.1212 O   0  0  0  0  0  0
  -31.4614  -12.4204   19.1338 H   0  0  0  0  0  0
  -30.3105  -11.3241   19.8496 H   0  0  0  0  0  0
  -29.7347  -11.7885   17.4326 H   0  0  0  0  0  0
  -29.6529  -13.4987   17.7772 H   0  0  0  0  0  0
  -27.8224  -11.3110   18.8227 H   0  0  0  0  0  0
  -27.3650  -12.6371   17.7870 H   0  0  0  0  0  0
  -27.6753  -14.2586   19.5611 H   0  0  0  0  0  0
  -28.6919  -12.0046   21.3633 H   0  0  0  0  0  0
  -28.4837  -13.6485   21.8652 H   0  0  0  0  0  0
  -25.2813   -9.5576   22.4792 H   0  0  0  0  0  0
  -24.0013   -7.4561   22.7446 H   0  0  0  0  0  0
  -21.0893   -8.8817   19.8908 H   0  0  0  0  0  0
  -22.3836  -10.9687   19.6173 H   0  0  0  0  0  0
  -21.1993   -7.6157   23.9762 H   0  0  0  0  0  0
  -21.1507   -6.0520   25.9095 H   0  0  0  0  0  0
  -22.0582   -2.7639   23.2844 H   0  0  0  0  0  0
  -22.4132  -11.9830   22.4856 H   0  0  0  0  0  0
  -21.1093  -13.1139   22.2633 H   0  0  0  0  0  0
  -24.6307  -15.8260   20.5533 H   0  0  0  0  0  0
  -26.2610  -15.6602   20.1386 H   0  0  0  0  0  0
  -26.7129  -32.5493   23.1141 H   0  0  0  0  0  0
  -25.0173  -33.9784   25.0527 H   0  0  0  0  0  0
  -22.7004  -31.3027   21.3998 H   0  0  0  0  0  0
  -23.3779  -35.9619   23.3301 H   0  0  0  0  0  0
  -24.3594  -36.8929   22.2059 H   0  0  0  0  0  0
  -23.7230  -37.6487   23.6672 H   0  0  0  0  0  0
  -26.0647  -31.5840   20.5990 H   0  0  0  0  0  0
  -26.8245  -30.8692   21.9923 H   0  0  0  0  0  0
  -28.1059  -29.0647   21.1823 H   0  0  0  0  0  0
  -26.0425  -25.9451   19.0336 H   0  0  0  0  0  0
  -23.9869  -27.2945   19.0176 H   0  0  0  0  0  0
  -23.7280  -30.5867   19.3936 H   0  0  0  0  0  0
  -22.7481  -29.2323   19.8653 H   0  0  0  0  0  0
  -25.1318  -36.1988   25.0826 H   0  0  0  0  0  0
  -20.9957  -28.3269   24.1424 H   0  0  0  0  0  0
  -20.5698  -26.2281   23.3604 H   0  0  0  0  0  0
  -21.6644  -26.7476   22.1205 H   0  0  0  0  0  0
  -19.6920  -25.6297   21.1258 H   0  0  0  0  0  0
  -19.6735  -27.3190   20.6721 H   0  0  0  0  0  0
  -17.4210  -26.6729   21.3991 H   0  0  0  0  0  0
  -18.0303  -26.0104   22.8995 H   0  0  0  0  0  0
  -19.7919  -30.7307   24.2286 H   0  0  0  0  0  0
  -17.4986  -31.6284   24.5168 H   0  0  0  0  0  0
  -15.5332  -30.2998   23.7678 H   0  0  0  0  0  0
  -15.8659  -28.0850   22.7046 H   0  0  0  0  0  0
  -24.5980  -30.6944   25.7768 H   0  0  0  0  0  0
  -24.8826  -32.2793   26.4867 H   0  0  0  0  0  0
  -25.8090  -30.8887   27.0240 H   0  0  0  0  0  0
  -26.2853  -29.6795   24.1219 H   0  0  0  0  0  0
  -27.4122  -29.7318   25.4589 H   0  0  0  0  0  0
  -27.8673  -30.4371   23.9243 H   0  0  0  0  0  0
  -27.2750  -33.3663   26.2013 H   0  0  0  0  0  0
  -28.3899  -32.6799   25.0298 H   0  0  0  0  0  0
  -28.0713  -31.8455   26.5422 H   0  0  0  0  0  0
  -28.2628  -38.0100   24.7509 H   0  0  0  0  0  0
  -28.1085  -36.2627   24.6354 H   0  0  0  0  0  0
  -27.2304  -37.1539   25.8879 H   0  0  0  0  0  0
  -20.9329  -29.8760   21.6908 H   0  0  0  0  0  0
  -26.0217  -38.2865   24.1388 H   0  0  0  0  0  0
  -28.8620  -20.4264   20.8771 H   0  0  0  0  0  0
  -30.0759  -20.8568   16.1151 H   0  0  0  0  0  0
  -29.9132  -18.3077   21.6418 H   0  0  0  0  0  0
  -28.1567  -18.2654   21.6063 H   0  0  0  0  0  0
  -28.1614  -15.8454   21.5752 H   0  0  0  0  0  0
  -29.6435  -16.1161   22.4938 H   0  0  0  0  0  0
  -31.2266  -17.1230   19.6497 H   0  0  0  0  0  0
  -30.1899  -16.3058   18.4759 H   0  0  0  0  0  0
  -28.2344  -17.5254   19.2562 H   0  0  0  0  0  0
  -30.2864  -18.6420   15.7875 H   0  0  0  0  0  0
  -29.2230  -17.6275   16.7567 H   0  0  0  0  0  0
  -30.9517  -17.8227   17.1710 H   0  0  0  0  0  0
  -29.1930  -24.3594   15.6287 H   0  0  0  0  0  0
  -28.1722  -22.9351   15.7995 H   0  0  0  0  0  0
  -29.8553  -22.7912   15.2346 H   0  0  0  0  0  0
  -28.8417  -25.1709   21.5238 H   0  0  0  0  0  0
  -27.2196  -25.0122   20.9326 H   0  0  0  0  0  0
  -29.7074  -24.5849   19.2374 H   0  0  0  0  0  0
  -28.0332  -24.2291   18.7624 H   0  0  0  0  0  0
  1 25  1  0  0  0
  1 30  2  0  0  0
  1 85  1  0  0  0
  2  3  1  0  0  0
  2 25  1  0  0  0
  2 88  1  0  0  0
  2 89  1  0  0  0
  3  4  1  0  0  0
  3 90  1  0  0  0
  3 91  1  0  0  0
  4  5  1  0  0  0
  4 92  1  0  0  0
  4 93  1  0  0  0
  5  6  1  0  0  0
  5 26  1  0  0  0
  5 94  1  0  0  0
  6 25  1  0  0  0
  6 95  1  0  0  0
  6 96  1  0  0  0
  7  8  2  0  0  0
  7 26  1  0  0  0
  7 29  1  0  0  0
  8  9  1  0  0  0
  8 22  1  0  0  0
  9 10  1  0  0  0
  9 27  2  0  0  0
 10 11  2  0  0  0
 10 15  1  0  0  0
 11 12  1  0  0  0
 11 97  1  0  0  0
 12 13  2  0  0  0
 12 98  1  0  0  0
 13 14  1  0  0  0
 13 31  1  0  0  0
 14 15  2  0  0  0
 14 99  1  0  0  0
 15100  1  0  0  0
 16 17  2  0  0  0
 16 21  1  0  0  0
 16 31  1  0  0  0
 17 18  1  0  0  0
 17101  1  0  0  0
 18 19  2  0  0  0
 18102  1  0  0  0
 19 20  1  0  0  0
 19 24  1  0  0  0
 20 21  2  0  0  0
 20103  1  0  0  0
 21 23  1  0  0  0
 22 28  1  0  0  0
 22 32  2  0  0  0
 26 27  1  0  0  0
 28104  1  0  0  0
 28105  1  0  0  0
 29106  1  0  0  0
 29107  1  0  0  0
 33 34  1  0  0  0
 33 66  1  0  0  0
 33 70  2  0  0  0
 34 36  1  0  0  0
 34 59  1  0  0  0
 34108  1  0  0  0
 35 44  2  0  0  0
 35 45  1  0  0  0
 35 68  1  0  0  0
 36 56  1  0  0  0
 36109  1  0  0  0
 37 39  1  0  0  0
 37 47  1  0  0  0
 37 66  1  0  0  0
 37110  1  0  0  0
 38 43  2  0  0  0
 38 46  1  0  0  0
 38 47  1  0  0  0
 39 64  1  0  0  0
 39 67  2  0  0  0
 40 52  1  0  0  0
 40 53  2  0  0  0
 40 58  1  0  0  0
 41111  1  0  0  0
 41112  1  0  0  0
 41113  1  0  0  0
 41 48  1  0  0  0
 42 43  1  0  0  0
 42 66  1  0  0  0
 42114  1  0  0  0
 42115  1  0  0  0
 43 44  1  0  0  0
 44116  1  0  0  0
 45 46  2  0  0  0
 45117  1  0  0  0
 46118  1  0  0  0
 47119  1  0  0  0
 47120  1  0  0  0
 48 56  1  0  0  0
 48 65  1  0  0  0
 48121  1  0  0  0
 49 50  1  0  0  0
 49 53  1  0  0  0
 49 64  1  0  0  0
 49122  1  0  0  0
 50 51  1  0  0  0
 50123  1  0  0  0
 50124  1  0  0  0
 51 52  1  0  0  0
 51125  1  0  0  0
 51126  1  0  0  0
 52127  1  0  0  0
 52128  1  0  0  0
 53 54  1  0  0  0
 54 55  2  0  0  0
 54129  1  0  0  0
 55 57  1  0  0  0
 55130  1  0  0  0
 56 69  2  0  0  0
 57 58  2  0  0  0
 57131  1  0  0  0
 58132  1  0  0  0
 59 60  1  0  0  0
 59 61  1  0  0  0
 59 62  1  0  0  0
 60133  1  0  0  0
 60134  1  0  0  0
 60135  1  0  0  0
 61136  1  0  0  0
 61137  1  0  0  0
 61138  1  0  0  0
 62139  1  0  0  0
 62140  1  0  0  0
 62141  1  0  0  0
 63 65  1  0  0  0
 63142  1  0  0  0
 63143  1  0  0  0
 63144  1  0  0  0
 64145  1  0  0  0
 65146  1  0  0  0
 68 83  1  0  0  0
 71 73  2  0  0  0
 71 75  1  0  0  0
 71147  1  0  0  0
 72 74  2  0  0  0
 72 76  1  0  0  0
 72148  1  0  0  0
 73 74  1  0  0  0
 73 80  1  0  0  0
 74 81  1  0  0  0
 75 76  2  0  0  0
 75 87  1  0  0  0
 76 86  1  0  0  0
 77 78  1  0  0  0
 77 80  1  0  0  0
 77149  1  0  0  0
 77150  1  0  0  0
 78 85  1  0  0  0
 78151  1  0  0  0
 78152  1  0  0  0
 79 80  1  0  0  0
 79 85  1  0  0  0
 79153  1  0  0  0
 79154  1  0  0  0
 80155  1  0  0  0
 81156  1  0  0  0
 81157  1  0  0  0
 81158  1  0  0  0
 82 86  1  0  0  0
 82159  1  0  0  0
 82160  1  0  0  0
 82161  1  0  0  0
 83 84  1  0  0  0
 83162  1  0  0  0
 83163  1  0  0  0
 84 87  1  0  0  0
 84164  1  0  0  0
 84165  1  0  0  0
M  ISO  4   1 100  68 101  83 101  85 100
M  END
> <chiral flag>
0

> <version>
0

> <s_m_source_file>
/data/baiqing/PycharmProjects/Reinvent-master-3.2/result/LINK_invent/BTK/process_docking_weight1_custom_sum_contain_oxygen_bond_distance_aromatic_linkinvent_7_9_3/rearranged_h_0150.sdf

> <i_m_source_file_index>
4

> <r_mmod_Potential_Energy-OPLS-2005>
252.084182739258

> <r_mmod_Stretch_Energy-OPLS-2005>
55.202262878418

> <r_mmod_Bend_Energy-OPLS-2005>
157.963394165039

> <r_mmod_Torsional_Energy-OPLS-2005>
343.008483886719

> <r_mmod_Improper_Torsional_Energy-OPLS-2005>
19.546703338623

> <r_mmod_Van_der_Waal_Energy-OPLS-2005>
163.208801269531

> <r_mmod_Electrostatic_Energy-OPLS-2005>
-307.538360595703

> <r_mmod_Solvation_Energy-OPLS-2005>
-203.938537597656

> <b_mmod_Minimization_Converged-OPLS-2005>
0

> <r_mmod_RMS_Derivative-OPLS-2005>
4.68719100952148

$$$$
4
                    3D
 Structure written by MMmdl.
171181  0  0  1  0            999 V2000
  -30.6632  -14.6201   20.5216 C   0  0  0  0  0  0
  -30.4350  -12.3951   19.4367 C   0  0  0  0  0  0
  -29.5021  -12.5179   18.2130 C   0  0  0  0  0  0
  -28.0231  -12.3632   18.6252 C   0  0  0  0  0  0
  -27.6555  -13.2153   19.8703 C   0  0  2  0  0  0
  -28.7079  -13.0280   20.9852 C   0  0  0  0  0  0
  -25.2581  -13.8154   20.5710 C   0  0  0  0  0  0
  -24.1845  -13.0427   20.9196 C   0  0  0  0  0  0
  -24.6409  -11.6897   20.8740 C   0  0  0  0  0  0
  -23.9069  -10.4288   21.0389 C   0  0  0  0  0  0
  -24.3629   -9.4206   21.9169 C   0  0  0  0  0  0
  -23.6306   -8.2237   22.0742 C   0  0  0  0  0  0
  -22.4287   -8.0274   21.3533 C   0  0  0  0  0  0
  -21.9922   -9.0242   20.4633 C   0  0  0  0  0  0
  -22.7242  -10.2126   20.3035 C   0  0  0  0  0  0
  -21.6849   -6.0734   22.5285 C   0  0  0  0  0  0
  -21.4012   -6.5641   23.8219 C   0  0  0  0  0  0
  -21.3665   -5.6789   24.9182 C   0  0  0  0  0  0
  -21.6045   -4.3048   24.7222 C   0  0  0  0  0  0
  -21.8824   -3.8143   23.4343 C   0  0  0  0  0  0
  -21.9197   -4.6964   22.3400 C   0  0  0  0  0  0
  -22.7871  -13.5237   21.1835 C   0  0  0  0  0  0
  -22.1659   -4.2162   21.0974 F   0  0  0  0  0  0
  -21.5634   -3.4526   25.7727 F   0  0  0  0  0  0
  -30.0086  -13.4140   20.4203 N   0  0  0  0  0  0
  -26.3017  -12.9339   20.3376 N   0  0  0  0  0  0
  -25.9346  -11.6495   20.5785 N   0  0  0  0  0  0
  -22.0498  -12.8240   22.0390 N   0  0  0  0  0  0
  -25.4281  -15.1873   20.4140 N   0  0  0  0  0  0
  -31.8254  -14.7225   20.1156 O   0  0  0  0  0  0
  -21.6643   -6.8875   21.4244 O   0  0  0  0  0  0
  -22.3573  -14.5532   20.6661 O   0  0  0  0  0  0
  -24.6250  -31.8611   23.2035 C   0  0  0  0  0  0
  -25.9114  -32.4780   23.8348 C   0  0  1  0  0  0
  -27.2233  -27.3377   20.0977 C   0  0  0  0  0  0
  -25.5938  -33.8575   24.2274 N   0  0  0  0  0  0
  -23.4159  -30.4846   21.5487 C   0  0  2  0  0  0
  -24.8591  -28.9421   20.1136 C   0  0  0  0  0  0
  -22.7468  -29.4624   22.4979 C   0  0  0  0  0  0
  -18.0281  -28.1370   22.8499 C   0  0  0  0  0  0
  -24.1489  -36.7291   23.2636 C   0  0  0  0  0  0
  -25.9556  -30.7962   21.3720 C   0  0  0  0  0  0
  -26.0292  -29.4262   20.7109 C   0  0  0  0  0  0
  -27.2148  -28.6357   20.6917 C   0  0  0  0  0  0
  -26.0234  -26.8980   19.4901 C   0  0  0  0  0  0
  -24.8567  -27.6830   19.4968 C   0  0  0  0  0  0
  -23.6269  -29.8190   20.1645 C   0  0  0  0  0  0
  -25.4116  -36.3076   24.0322 C   0  0  1  0  0  0
  -20.5880  -28.3672   23.1313 C   0  0  2  0  0  0
  -20.6774  -26.9405   22.5422 C   0  0  0  0  0  0
  -19.5749  -26.6382   21.5223 C   0  0  0  0  0  0
  -18.1927  -26.7920   22.1628 C   0  0  0  0  0  0
  -19.1532  -28.8840   23.2897 C   0  0  0  0  0  0
  -18.9455  -30.1449   23.8901 C   0  0  0  0  0  0
  -17.6452  -30.6581   24.0559 C   0  0  0  0  0  0
  -25.9057  -34.9452   23.5095 C   0  0  0  0  0  0
  -16.5345  -29.9075   23.6328 C   0  0  0  0  0  0
  -16.7266  -28.6489   23.0357 C   0  0  0  0  0  0
  -26.4503  -31.6582   25.0714 C   0  0  0  0  0  0
  -25.3731  -31.3734   26.1436 C   0  0  0  0  0  0
  -27.0343  -30.3000   24.6167 C   0  0  0  0  0  0
  -27.6054  -32.4324   25.7490 C   0  0  0  0  0  0
  -27.5582  -37.1802   24.8464 C   0  0  0  0  0  0
  -21.4190  -29.3027   22.3717 N   0  0  0  0  0  0
  -26.4290  -37.3780   23.9408 N   0  0  0  0  0  0
  -24.6841  -31.0635   22.0984 N   0  0  0  0  0  0
  -23.4206  -28.8177   23.3057 O   0  0  0  0  0  0
  -28.3597  -26.5189   20.1194 O   0  0  0  0  0  0
  -26.5630  -34.8918   22.4661 O   0  0  0  0  0  0
  -23.5424  -32.1411   23.7384 O   0  0  0  0  0  0
  -28.2421  -21.8655   19.7260 C   0  0  0  0  0  0
  -30.3905  -21.8340   20.7894 C   0  0  0  0  0  0
  -28.1831  -20.4399   19.7992 C   0  0  0  0  0  0
  -29.2515  -19.6717   20.3744 C   0  0  0  0  0  0
  -29.3369  -22.6013   20.2317 C   0  0  0  0  0  0
  -30.3661  -20.4039   20.8707 C   0  0  0  0  0  0
  -25.5640  -20.3404   19.4608 C   0  0  0  0  0  0
  -25.9707  -19.0603   20.1451 C   0  0  0  0  0  0
  -28.9200  -17.6036   21.9596 C   0  0  0  0  0  0
  -29.0313  -16.0690   21.8328 C   0  0  0  0  0  0
  -30.2393  -17.0955   20.0684 C   0  0  0  0  0  0
  -26.9521  -19.7751   19.2417 C   0  0  0  0  0  0
  -29.1377  -18.1023   20.5365 C   0  0  2  0  0  0
  -30.5347  -24.5332   19.1166 C   0  0  0  0  0  0
  -32.5239  -20.3699   21.9403 C   0  0  0  0  0  0
  -28.1831  -25.0615   19.9566 C   0  0  0  0  0  0
  -29.4719  -24.1674   20.1655 C   0  0  1  0  0  0
  -29.9206  -15.7727   20.6975 N   0  0  0  0  0  0
  -31.3888  -19.6754   21.4407 O   0  0  0  0  0  0
  -31.4727  -12.5194   19.1244 H   0  0  0  0  0  0
  -30.3789  -11.3943   19.8678 H   0  0  0  0  0  0
  -29.7624  -11.7719   17.4607 H   0  0  0  0  0  0
  -29.6521  -13.4884   17.7398 H   0  0  0  0  0  0
  -27.8469  -11.3066   18.8336 H   0  0  0  0  0  0
  -27.3722  -12.6196   17.7883 H   0  0  0  0  0  0
  -27.6812  -14.2595   19.5576 H   0  0  0  0  0  0
  -28.7348  -11.9828   21.2976 H   0  0  0  0  0  0
  -28.4596  -13.5735   21.8910 H   0  0  0  0  0  0
  -25.2764   -9.5687   22.4756 H   0  0  0  0  0  0
  -24.0013   -7.4635   22.7466 H   0  0  0  0  0  0
  -21.0846   -8.8745   19.8954 H   0  0  0  0  0  0
  -22.3677  -10.9660   19.6146 H   0  0  0  0  0  0
  -21.1993   -7.6146   23.9730 H   0  0  0  0  0  0
  -21.1487   -6.0509   25.9087 H   0  0  0  0  0  0
  -22.0601   -2.7606   23.2831 H   0  0  0  0  0  0
  -22.4095  -11.9902   22.4794 H   0  0  0  0  0  0
  -21.1106  -13.1260   22.2544 H   0  0  0  0  0  0
  -24.6627  -15.8399   20.5357 H   0  0  0  0  0  0
  -26.2856  -15.6286   20.1100 H   0  0  0  0  0  0
  -26.7175  -32.5450   23.1094 H   0  0  0  0  0  0
  -25.0080  -33.9721   25.0416 H   0  0  0  0  0  0
  -22.7075  -31.3034   21.4067 H   0  0  0  0  0  0
  -23.3752  -35.9619   23.3285 H   0  0  0  0  0  0
  -24.3587  -36.8931   22.2055 H   0  0  0  0  0  0
  -23.7234  -37.6482   23.6672 H   0  0  0  0  0  0
  -26.0842  -31.5643   20.6083 H   0  0  0  0  0  0
  -26.8373  -30.8420   21.9998 H   0  0  0  0  0  0
  -28.1169  -29.0061   21.1584 H   0  0  0  0  0  0
  -25.9513  -25.9385   19.0017 H   0  0  0  0  0  0
  -23.9572  -27.3086   19.0276 H   0  0  0  0  0  0
  -23.7407  -30.5924   19.4040 H   0  0  0  0  0  0
  -22.7481  -29.2440   19.8673 H   0  0  0  0  0  0
  -25.1299  -36.1921   25.0814 H   0  0  0  0  0  0
  -20.9951  -28.3225   24.1442 H   0  0  0  0  0  0
  -20.5692  -26.2276   23.3613 H   0  0  0  0  0  0
  -21.6640  -26.7458   22.1199 H   0  0  0  0  0  0
  -19.6914  -25.6297   21.1241 H   0  0  0  0  0  0
  -19.6682  -27.3201   20.6760 H   0  0  0  0  0  0
  -17.4211  -26.6691   21.4013 H   0  0  0  0  0  0
  -18.0308  -26.0044   22.9002 H   0  0  0  0  0  0
  -19.7930  -30.7268   24.2268 H   0  0  0  0  0  0
  -17.5003  -31.6263   24.5156 H   0  0  0  0  0  0
  -15.5343  -30.2973   23.7645 H   0  0  0  0  0  0
  -15.8670  -28.0800   22.7075 H   0  0  0  0  0  0
  -24.5898  -30.7094   25.7767 H   0  0  0  0  0  0
  -24.8939  -32.2910   26.4855 H   0  0  0  0  0  0
  -25.8049  -30.8911   27.0216 H   0  0  0  0  0  0
  -26.2915  -29.6749   24.1197 H   0  0  0  0  0  0
  -27.4042  -29.7258   25.4676 H   0  0  0  0  0  0
  -27.8783  -30.4276   23.9383 H   0  0  0  0  0  0
  -27.2649  -33.3623   26.2062 H   0  0  0  0  0  0
  -28.3875  -32.6894   25.0331 H   0  0  0  0  0  0
  -28.0708  -31.8455   26.5424 H   0  0  0  0  0  0
  -28.2595  -38.0105   24.7522 H   0  0  0  0  0  0
  -28.1086  -36.2641   24.6271 H   0  0  0  0  0  0
  -27.2311  -37.1424   25.8871 H   0  0  0  0  0  0
  -20.9375  -29.8725   21.6905 H   0  0  0  0  0  0
  -26.0167  -38.2850   24.1414 H   0  0  0  0  0  0
  -27.4226  -22.4017   19.2686 H   0  0  0  0  0  0
  -31.2384  -22.3893   21.1611 H   0  0  0  0  0  0
  -25.4515  -21.2197   20.0916 H   0  0  0  0  0  0
  -24.8422  -20.2522   18.6517 H   0  0  0  0  0  0
  -25.5328  -18.1354   19.7764 H   0  0  0  0  0  0
  -26.1435  -19.0995   21.2188 H   0  0  0  0  0  0
  -29.7101  -17.9812   22.6105 H   0  0  0  0  0  0
  -27.9659  -17.9221   22.3817 H   0  0  0  0  0  0
  -28.0373  -15.6801   21.6158 H   0  0  0  0  0  0
  -29.3826  -15.6163   22.7619 H   0  0  0  0  0  0
  -31.2298  -17.4069   20.4022 H   0  0  0  0  0  0
  -30.2723  -17.0147   18.9814 H   0  0  0  0  0  0
  -27.1607  -19.3280   18.2703 H   0  0  0  0  0  0
  -28.2656  -17.7847   19.9702 H   0  0  0  0  0  0
  -31.4934  -24.0628   19.3381 H   0  0  0  0  0  0
  -30.7033  -25.6092   19.0811 H   0  0  0  0  0  0
  -30.2318  -24.2115   18.1204 H   0  0  0  0  0  0
  -33.2348  -19.6515   22.3466 H   0  0  0  0  0  0
  -32.2526  -21.0526   22.7469 H   0  0  0  0  0  0
  -33.0335  -20.9249   21.1509 H   0  0  0  0  0  0
  -27.4226  -24.7337   20.6671 H   0  0  0  0  0  0
  -27.7982  -24.8540   18.9578 H   0  0  0  0  0  0
  -29.8706  -24.4564   21.1382 H   0  0  0  0  0  0
  1 25  1  0  0  0
  1 30  2  0  0  0
  1 88  1  0  0  0
  2  3  1  0  0  0
  2 25  1  0  0  0
  2 90  1  0  0  0
  2 91  1  0  0  0
  3  4  1  0  0  0
  3 92  1  0  0  0
  3 93  1  0  0  0
  4  5  1  0  0  0
  4 94  1  0  0  0
  4 95  1  0  0  0
  5  6  1  0  0  0
  5 26  1  0  0  0
  5 96  1  0  0  0
  6 25  1  0  0  0
  6 97  1  0  0  0
  6 98  1  0  0  0
  7  8  2  0  0  0
  7 26  1  0  0  0
  7 29  1  0  0  0
  8  9  1  0  0  0
  8 22  1  0  0  0
  9 10  1  0  0  0
  9 27  2  0  0  0
 10 11  2  0  0  0
 10 15  1  0  0  0
 11 12  1  0  0  0
 11 99  1  0  0  0
 12 13  2  0  0  0
 12100  1  0  0  0
 13 14  1  0  0  0
 13 31  1  0  0  0
 14 15  2  0  0  0
 14101  1  0  0  0
 15102  1  0  0  0
 16 17  2  0  0  0
 16 21  1  0  0  0
 16 31  1  0  0  0
 17 18  1  0  0  0
 17103  1  0  0  0
 18 19  2  0  0  0
 18104  1  0  0  0
 19 20  1  0  0  0
 19 24  1  0  0  0
 20 21  2  0  0  0
 20105  1  0  0  0
 21 23  1  0  0  0
 22 28  1  0  0  0
 22 32  2  0  0  0
 26 27  1  0  0  0
 28106  1  0  0  0
 28107  1  0  0  0
 29108  1  0  0  0
 29109  1  0  0  0
 33 34  1  0  0  0
 33 66  1  0  0  0
 33 70  2  0  0  0
 34 36  1  0  0  0
 34 59  1  0  0  0
 34110  1  0  0  0
 35 44  2  0  0  0
 35 45  1  0  0  0
 35 68  1  0  0  0
 36 56  1  0  0  0
 36111  1  0  0  0
 37 39  1  0  0  0
 37 47  1  0  0  0
 37 66  1  0  0  0
 37112  1  0  0  0
 38 43  2  0  0  0
 38 46  1  0  0  0
 38 47  1  0  0  0
 39 64  1  0  0  0
 39 67  2  0  0  0
 40 52  1  0  0  0
 40 53  2  0  0  0
 40 58  1  0  0  0
 41113  1  0  0  0
 41114  1  0  0  0
 41115  1  0  0  0
 41 48  1  0  0  0
 42 43  1  0  0  0
 42 66  1  0  0  0
 42116  1  0  0  0
 42117  1  0  0  0
 43 44  1  0  0  0
 44118  1  0  0  0
 45 46  2  0  0  0
 45119  1  0  0  0
 46120  1  0  0  0
 47121  1  0  0  0
 47122  1  0  0  0
 48 56  1  0  0  0
 48 65  1  0  0  0
 48123  1  0  0  0
 49 50  1  0  0  0
 49 53  1  0  0  0
 49 64  1  0  0  0
 49124  1  0  0  0
 50 51  1  0  0  0
 50125  1  0  0  0
 50126  1  0  0  0
 51 52  1  0  0  0
 51127  1  0  0  0
 51128  1  0  0  0
 52129  1  0  0  0
 52130  1  0  0  0
 53 54  1  0  0  0
 54 55  2  0  0  0
 54131  1  0  0  0
 55 57  1  0  0  0
 55132  1  0  0  0
 56 69  2  0  0  0
 57 58  2  0  0  0
 57133  1  0  0  0
 58134  1  0  0  0
 59 60  1  0  0  0
 59 61  1  0  0  0
 59 62  1  0  0  0
 60135  1  0  0  0
 60136  1  0  0  0
 60137  1  0  0  0
 61138  1  0  0  0
 61139  1  0  0  0
 61140  1  0  0  0
 62141  1  0  0  0
 62142  1  0  0  0
 62143  1  0  0  0
 63 65  1  0  0  0
 63144  1  0  0  0
 63145  1  0  0  0
 63146  1  0  0  0
 64147  1  0  0  0
 65148  1  0  0  0
 68 86  1  0  0  0
 71 73  2  0  0  0
 71 75  1  0  0  0
 71149  1  0  0  0
 72 75  2  0  0  0
 72 76  1  0  0  0
 72150  1  0  0  0
 73 74  1  0  0  0
 73 82  1  0  0  0
 74 76  2  0  0  0
 74 83  1  0  0  0
 75 87  1  0  0  0
 76 89  1  0  0  0
 77 78  1  0  0  0
 77 82  1  0  0  0
 77151  1  0  0  0
 77152  1  0  0  0
 78 82  1  0  0  0
 78153  1  0  0  0
 78154  1  0  0  0
 79 80  1  0  0  0
 79 83  1  0  0  0
 79155  1  0  0  0
 79156  1  0  0  0
 80 88  1  0  0  0
 80157  1  0  0  0
 80158  1  0  0  0
 81 83  1  0  0  0
 81 88  1  0  0  0
 81159  1  0  0  0
 81160  1  0  0  0
 82161  1  0  0  0
 83162  1  0  0  0
 84163  1  0  0  0
 84164  1  0  0  0
 84165  1  0  0  0
 84 87  1  0  0  0
 85 89  1  0  0  0
 85166  1  0  0  0
 85167  1  0  0  0
 85168  1  0  0  0
 86 87  1  0  0  0
 86169  1  0  0  0
 86170  1  0  0  0
 87171  1  0  0  0
M  ISO  4   1 100  68 101  86 101  88 100
M  END
> <chiral flag>
0

> <version>
0

> <s_m_source_file>
/data/baiqing/PycharmProjects/Reinvent-master-3.2/result/LINK_invent/BTK/process_docking_weight1_custom_sum_contain_oxygen_bond_distance_aromatic_linkinvent_7_9_3/rearranged_h_0150.sdf

> <i_m_source_file_index>
5

> <r_mmod_Potential_Energy-OPLS-2005>
279.182434082031

> <r_mmod_Stretch_Energy-OPLS-2005>
78.425422668457

> <r_mmod_Bend_Energy-OPLS-2005>
177.048919677734

> <r_mmod_Torsional_Energy-OPLS-2005>
335.024932861328

> <r_mmod_Improper_Torsional_Energy-OPLS-2005>
12.1966867446899

> <r_mmod_Van_der_Waal_Energy-OPLS-2005>
144.977035522461

> <r_mmod_Electrostatic_Energy-OPLS-2005>
-309.441467285156

> <r_mmod_Solvation_Energy-OPLS-2005>
-197.263748168945

> <b_mmod_Minimization_Converged-OPLS-2005>
0

> <r_mmod_RMS_Derivative-OPLS-2005>
1.86509430408478

$$$$
5
                    3D
 Structure written by MMmdl.
178188  0  0  1  0            999 V2000
  -30.7363  -14.4911   20.5238 C   0  0  0  0  0  0
  -30.4016  -12.3161   19.4195 C   0  0  0  0  0  0
  -29.4820  -12.5159   18.2005 C   0  0  0  0  0  0
  -28.0050  -12.3809   18.6190 C   0  0  0  0  0  0
  -27.6559  -13.2173   19.8817 C   0  0  2  0  0  0
  -28.7094  -13.0036   20.9902 C   0  0  0  0  0  0
  -25.2568  -13.8169   20.5768 C   0  0  0  0  0  0
  -24.1825  -13.0426   20.9214 C   0  0  0  0  0  0
  -24.6403  -11.6900   20.8784 C   0  0  0  0  0  0
  -23.9069  -10.4279   21.0433 C   0  0  0  0  0  0
  -24.3627   -9.4179   21.9192 C   0  0  0  0  0  0
  -23.6305   -8.2214   22.0747 C   0  0  0  0  0  0
  -22.4276   -8.0265   21.3538 C   0  0  0  0  0  0
  -21.9926   -9.0238   20.4637 C   0  0  0  0  0  0
  -22.7257  -10.2120   20.3059 C   0  0  0  0  0  0
  -21.6836   -6.0736   22.5290 C   0  0  0  0  0  0
  -21.4016   -6.5650   23.8225 C   0  0  0  0  0  0
  -21.3665   -5.6791   24.9191 C   0  0  0  0  0  0
  -21.6043   -4.3059   24.7239 C   0  0  0  0  0  0
  -21.8816   -3.8152   23.4354 C   0  0  0  0  0  0
  -21.9195   -4.6970   22.3413 C   0  0  0  0  0  0
  -22.7846  -13.5206   21.1849 C   0  0  0  0  0  0
  -22.1645   -4.2163   21.0984 F   0  0  0  0  0  0
  -21.5637   -3.4534   25.7746 F   0  0  0  0  0  0
  -30.0116  -13.3395   20.4055 N   0  0  0  0  0  0
  -26.3019  -12.9364   20.3485 N   0  0  0  0  0  0
  -25.9347  -11.6513   20.5854 N   0  0  0  0  0  0
  -22.0485  -12.8182   22.0415 N   0  0  0  0  0  0
  -25.4273  -15.1892   20.4207 N   0  0  0  0  0  0
  -31.9393  -14.4796   20.2408 O   0  0  0  0  0  0
  -21.6625   -6.8877   21.4242 O   0  0  0  0  0  0
  -22.3511  -14.5506   20.6708 O   0  0  0  0  0  0
  -24.6134  -31.8716   23.2127 C   0  0  0  0  0  0
  -25.9031  -32.4829   23.8424 C   0  0  1  0  0  0
  -27.2050  -27.4290   20.1048 C   0  0  0  0  0  0
  -25.5875  -33.8628   24.2326 N   0  0  0  0  0  0
  -23.4001  -30.5005   21.5526 C   0  0  2  0  0  0
  -24.8389  -28.9710   20.1132 C   0  0  0  0  0  0
  -22.7429  -29.4683   22.4977 C   0  0  0  0  0  0
  -18.0287  -28.1410   22.8482 C   0  0  0  0  0  0
  -24.1478  -36.7340   23.2630 C   0  0  0  0  0  0
  -25.9312  -30.8342   21.3705 C   0  0  0  0  0  0
  -25.9996  -29.4694   20.7163 C   0  0  0  0  0  0
  -27.1878  -28.7051   20.7104 C   0  0  0  0  0  0
  -26.0325  -26.9561   19.4741 C   0  0  0  0  0  0
  -24.8490  -27.7139   19.4875 C   0  0  0  0  0  0
  -23.6081  -29.8457   20.1620 C   0  0  0  0  0  0
  -25.4091  -36.3117   24.0339 C   0  0  1  0  0  0
  -20.5877  -28.3687   23.1324 C   0  0  2  0  0  0
  -20.6759  -26.9418   22.5437 C   0  0  0  0  0  0
  -19.5728  -26.6403   21.5235 C   0  0  0  0  0  0
  -18.1907  -26.7950   22.1630 C   0  0  0  0  0  0
  -19.1537  -28.8867   23.2895 C   0  0  0  0  0  0
  -18.9465  -30.1480   23.8886 C   0  0  0  0  0  0
  -17.6465  -30.6596   24.0593 C   0  0  0  0  0  0
  -25.9039  -34.9485   23.5140 C   0  0  0  0  0  0
  -16.5358  -29.9112   23.6326 C   0  0  0  0  0  0
  -16.7283  -28.6556   23.0290 C   0  0  0  0  0  0
  -26.4417  -31.6611   25.0773 C   0  0  0  0  0  0
  -25.3695  -31.3767   26.1555 C   0  0  0  0  0  0
  -27.0211  -30.3023   24.6175 C   0  0  0  0  0  0
  -27.5961  -32.4351   25.7560 C   0  0  0  0  0  0
  -27.5589  -37.1819   24.8431 C   0  0  0  0  0  0
  -21.4157  -29.3061   22.3745 N   0  0  0  0  0  0
  -26.4250  -37.3827   23.9451 N   0  0  0  0  0  0
  -24.6662  -31.0850   22.1012 N   0  0  0  0  0  0
  -23.4231  -28.8198   23.2978 O   0  0  0  0  0  0
  -28.3570  -26.6762   20.1144 O   0  0  0  0  0  0
  -26.5631  -34.8930   22.4717 O   0  0  0  0  0  0
  -23.5332  -32.1448   23.7542 O   0  0  0  0  0  0
  -28.8049  -20.6757   19.6371 C   0  0  0  0  0  0
  -28.7495  -22.0594   19.4043 C   0  0  0  0  0  0
  -29.4342  -20.1497   20.7884 C   0  0  0  0  0  0
  -29.2893  -22.9709   20.3317 C   0  0  0  0  0  0
  -29.8087  -22.4748   21.5587 C   0  0  0  0  0  0
  -29.8787  -21.0664   21.7914 C   0  0  0  0  0  0
  -29.1641  -20.0118   26.6304 C   0  0  0  0  0  0
  -30.6458  -19.9287   26.3639 C   0  0  0  0  0  0
  -28.6777  -17.6885   21.3648 C   0  0  0  0  0  0
  -30.1185  -18.0791   19.4519 C   0  0  0  0  0  0
  -29.2042  -16.2275   21.5206 C   0  0  0  0  0  0
  -30.7579  -16.6958   19.5660 C   0  0  0  0  0  0
  -29.7560  -18.6367   20.8293 C   0  0  0  0  0  0
  -29.7471  -20.6594   25.3915 C   0  0  0  0  0  0
  -30.3087  -23.4396   22.6369 C   0  0  0  0  0  0
  -31.8212  -20.2281   23.0363 C   0  0  0  0  0  0
  -29.3344  -24.4524   19.9339 C   0  0  0  0  0  0
  -29.4803  -20.0958   24.0057 C   0  0  0  0  0  0
  -28.2031  -25.3054   20.5228 C   0  0  0  0  0  0
  -30.0740  -15.6927   20.4342 N   0  0  0  0  0  0
  -30.4156  -20.6220   23.0165 N   0  0  0  0  0  0
  -31.4480  -12.3778   19.1162 H   0  0  0  0  0  0
  -30.2767  -11.3144   19.8317 H   0  0  0  0  0  0
  -29.7164  -11.7945   17.4175 H   0  0  0  0  0  0
  -29.6557  -13.5049   17.7714 H   0  0  0  0  0  0
  -27.8129  -11.3251   18.8126 H   0  0  0  0  0  0
  -27.3499  -12.6598   17.7933 H   0  0  0  0  0  0
  -27.6921  -14.2657   19.5873 H   0  0  0  0  0  0
  -28.7044  -11.9596   21.3057 H   0  0  0  0  0  0
  -28.5020  -13.5591   21.9007 H   0  0  0  0  0  0
  -25.2768   -9.5632   22.4783 H   0  0  0  0  0  0
  -24.0010   -7.4590   22.7463 H   0  0  0  0  0  0
  -21.0855   -8.8760   19.8938 H   0  0  0  0  0  0
  -22.3720  -10.9666   19.6177 H   0  0  0  0  0  0
  -21.1996   -7.6152   23.9734 H   0  0  0  0  0  0
  -21.1491   -6.0526   25.9092 H   0  0  0  0  0  0
  -22.0591   -2.7615   23.2859 H   0  0  0  0  0  0
  -22.4084  -11.9833   22.4803 H   0  0  0  0  0  0
  -21.1104  -13.1189   22.2620 H   0  0  0  0  0  0
  -24.6645  -15.8446   20.5523 H   0  0  0  0  0  0
  -26.2932  -15.6346   20.1448 H   0  0  0  0  0  0
  -26.7117  -32.5523   23.1203 H   0  0  0  0  0  0
  -24.9944  -33.9782   25.0412 H   0  0  0  0  0  0
  -22.6851  -31.3153   21.4200 H   0  0  0  0  0  0
  -23.3743  -35.9664   23.3218 H   0  0  0  0  0  0
  -24.3583  -36.9045   22.2056 H   0  0  0  0  0  0
  -23.7218  -37.6511   23.6709 H   0  0  0  0  0  0
  -26.0540  -31.6020   20.6052 H   0  0  0  0  0  0
  -26.8135  -30.8781   21.9973 H   0  0  0  0  0  0
  -28.0826  -29.0792   21.1869 H   0  0  0  0  0  0
  -26.0187  -26.0091   18.9543 H   0  0  0  0  0  0
  -23.9603  -27.3335   19.0048 H   0  0  0  0  0  0
  -23.7305  -30.6275   19.4113 H   0  0  0  0  0  0
  -22.7261  -29.2834   19.8516 H   0  0  0  0  0  0
  -25.1259  -36.1944   25.0825 H   0  0  0  0  0  0
  -20.9968  -28.3259   24.1444 H   0  0  0  0  0  0
  -20.5648  -26.2317   23.3646 H   0  0  0  0  0  0
  -21.6630  -26.7426   22.1245 H   0  0  0  0  0  0
  -19.6867  -25.6319   21.1249 H   0  0  0  0  0  0
  -19.6644  -27.3237   20.6779 H   0  0  0  0  0  0
  -17.4186  -26.6726   21.4017 H   0  0  0  0  0  0
  -18.0253  -26.0100   22.9022 H   0  0  0  0  0  0
  -19.7947  -30.7321   24.2203 H   0  0  0  0  0  0
  -17.5023  -31.6244   24.5249 H   0  0  0  0  0  0
  -15.5362  -30.3008   23.7662 H   0  0  0  0  0  0
  -15.8690  -28.0933   22.6895 H   0  0  0  0  0  0
  -24.5862  -30.7068   25.7995 H   0  0  0  0  0  0
  -24.8890  -32.2939   26.4968 H   0  0  0  0  0  0
  -25.8087  -30.9028   27.0342 H   0  0  0  0  0  0
  -26.2785  -29.6898   24.1041 H   0  0  0  0  0  0
  -27.3719  -29.7148   25.4669 H   0  0  0  0  0  0
  -27.8741  -30.4293   23.9504 H   0  0  0  0  0  0
  -27.2493  -33.3596   26.2193 H   0  0  0  0  0  0
  -28.3748  -32.7013   25.0405 H   0  0  0  0  0  0
  -28.0645  -31.8461   26.5451 H   0  0  0  0  0  0
  -28.2530  -38.0191   24.7590 H   0  0  0  0  0  0
  -28.1160  -36.2738   24.6077 H   0  0  0  0  0  0
  -27.2360  -37.1283   25.8840 H   0  0  0  0  0  0
  -20.9318  -29.8877   21.7046 H   0  0  0  0  0  0
  -26.0118  -38.2882   24.1520 H   0  0  0  0  0  0
  -28.4187  -20.0208   18.8699 H   0  0  0  0  0  0
  -28.3264  -22.4142   18.4741 H   0  0  0  0  0  0
  -28.8483  -20.6562   27.4491 H   0  0  0  0  0  0
  -28.5851  -19.0971   26.5130 H   0  0  0  0  0  0
  -31.0427  -18.9613   26.0629 H   0  0  0  0  0  0
  -31.3070  -20.5301   26.9851 H   0  0  0  0  0  0
  -28.3047  -18.0414   22.3255 H   0  0  0  0  0  0
  -27.8152  -17.6985   20.6978 H   0  0  0  0  0  0
  -29.2455  -18.0214   18.8017 H   0  0  0  0  0  0
  -30.8263  -18.7487   18.9594 H   0  0  0  0  0  0
  -28.3236  -15.6059   21.6496 H   0  0  0  0  0  0
  -29.7642  -16.1636   22.4560 H   0  0  0  0  0  0
  -31.7675  -16.8678   19.9451 H   0  0  0  0  0  0
  -30.8762  -16.2830   18.5611 H   0  0  0  0  0  0
  -30.6381  -18.5180   21.4530 H   0  0  0  0  0  0
  -29.7742  -21.7468   25.4207 H   0  0  0  0  0  0
  -30.3681  -24.4773   22.3165 H   0  0  0  0  0  0
  -31.3040  -23.1623   22.9834 H   0  0  0  0  0  0
  -29.6391  -23.4052   23.4956 H   0  0  0  0  0  0
  -32.3109  -20.4217   22.0809 H   0  0  0  0  0  0
  -31.9214  -19.1644   23.2559 H   0  0  0  0  0  0
  -32.3626  -20.7784   23.8063 H   0  0  0  0  0  0
  -29.2804  -24.5245   18.8463 H   0  0  0  0  0  0
  -30.3034  -24.8820   20.1865 H   0  0  0  0  0  0
  -28.4542  -20.3401   23.7236 H   0  0  0  0  0  0
  -29.5518  -19.0083   24.0391 H   0  0  0  0  0  0
  -28.2207  -25.2657   21.6123 H   0  0  0  0  0  0
  -27.2574  -24.8548   20.2243 H   0  0  0  0  0  0
  1 25  1  0  0  0
  1 30  2  0  0  0
  1 90  1  0  0  0
  2  3  1  0  0  0
  2 25  1  0  0  0
  2 92  1  0  0  0
  2 93  1  0  0  0
  3  4  1  0  0  0
  3 94  1  0  0  0
  3 95  1  0  0  0
  4  5  1  0  0  0
  4 96  1  0  0  0
  4 97  1  0  0  0
  5  6  1  0  0  0
  5 26  1  0  0  0
  5 98  1  0  0  0
  6 25  1  0  0  0
  6 99  1  0  0  0
  6100  1  0  0  0
  7  8  2  0  0  0
  7 26  1  0  0  0
  7 29  1  0  0  0
  8  9  1  0  0  0
  8 22  1  0  0  0
  9 10  1  0  0  0
  9 27  2  0  0  0
 10 11  2  0  0  0
 10 15  1  0  0  0
 11 12  1  0  0  0
 11101  1  0  0  0
 12 13  2  0  0  0
 12102  1  0  0  0
 13 14  1  0  0  0
 13 31  1  0  0  0
 14 15  2  0  0  0
 14103  1  0  0  0
 15104  1  0  0  0
 16 17  2  0  0  0
 16 21  1  0  0  0
 16 31  1  0  0  0
 17 18  1  0  0  0
 17105  1  0  0  0
 18 19  2  0  0  0
 18106  1  0  0  0
 19 20  1  0  0  0
 19 24  1  0  0  0
 20 21  2  0  0  0
 20107  1  0  0  0
 21 23  1  0  0  0
 22 28  1  0  0  0
 22 32  2  0  0  0
 26 27  1  0  0  0
 28108  1  0  0  0
 28109  1  0  0  0
 29110  1  0  0  0
 29111  1  0  0  0
 33 34  1  0  0  0
 33 66  1  0  0  0
 33 70  2  0  0  0
 34 36  1  0  0  0
 34 59  1  0  0  0
 34112  1  0  0  0
 35 44  2  0  0  0
 35 45  1  0  0  0
 35 68  1  0  0  0
 36 56  1  0  0  0
 36113  1  0  0  0
 37 39  1  0  0  0
 37 47  1  0  0  0
 37 66  1  0  0  0
 37114  1  0  0  0
 38 43  2  0  0  0
 38 46  1  0  0  0
 38 47  1  0  0  0
 39 64  1  0  0  0
 39 67  2  0  0  0
 40 52  1  0  0  0
 40 53  2  0  0  0
 40 58  1  0  0  0
 41115  1  0  0  0
 41116  1  0  0  0
 41117  1  0  0  0
 41 48  1  0  0  0
 42 43  1  0  0  0
 42 66  1  0  0  0
 42118  1  0  0  0
 42119  1  0  0  0
 43 44  1  0  0  0
 44120  1  0  0  0
 45 46  2  0  0  0
 45121  1  0  0  0
 46122  1  0  0  0
 47123  1  0  0  0
 47124  1  0  0  0
 48 56  1  0  0  0
 48 65  1  0  0  0
 48125  1  0  0  0
 49 50  1  0  0  0
 49 53  1  0  0  0
 49 64  1  0  0  0
 49126  1  0  0  0
 50 51  1  0  0  0
 50127  1  0  0  0
 50128  1  0  0  0
 51 52  1  0  0  0
 51129  1  0  0  0
 51130  1  0  0  0
 52131  1  0  0  0
 52132  1  0  0  0
 53 54  1  0  0  0
 54 55  2  0  0  0
 54133  1  0  0  0
 55 57  1  0  0  0
 55134  1  0  0  0
 56 69  2  0  0  0
 57 58  2  0  0  0
 57135  1  0  0  0
 58136  1  0  0  0
 59 60  1  0  0  0
 59 61  1  0  0  0
 59 62  1  0  0  0
 60137  1  0  0  0
 60138  1  0  0  0
 60139  1  0  0  0
 61140  1  0  0  0
 61141  1  0  0  0
 61142  1  0  0  0
 62143  1  0  0  0
 62144  1  0  0  0
 62145  1  0  0  0
 63 65  1  0  0  0
 63146  1  0  0  0
 63147  1  0  0  0
 63148  1  0  0  0
 64149  1  0  0  0
 65150  1  0  0  0
 68 89  1  0  0  0
 71 72  2  0  0  0
 71 73  1  0  0  0
 71151  1  0  0  0
 72 74  1  0  0  0
 72152  1  0  0  0
 73 76  2  0  0  0
 73 83  1  0  0  0
 74 75  2  0  0  0
 74 87  1  0  0  0
 75 76  1  0  0  0
 75 85  1  0  0  0
 76 91  1  0  0  0
 77 78  1  0  0  0
 77 84  1  0  0  0
 77153  1  0  0  0
 77154  1  0  0  0
 78 84  1  0  0  0
 78155  1  0  0  0
 78156  1  0  0  0
 79 81  1  0  0  0
 79 83  1  0  0  0
 79157  1  0  0  0
 79158  1  0  0  0
 80 82  1  0  0  0
 80 83  1  0  0  0
 80159  1  0  0  0
 80160  1  0  0  0
 81 90  1  0  0  0
 81161  1  0  0  0
 81162  1  0  0  0
 82 90  1  0  0  0
 82163  1  0  0  0
 82164  1  0  0  0
 83165  1  0  0  0
 84 88  1  0  0  0
 84166  1  0  0  0
 85167  1  0  0  0
 85168  1  0  0  0
 85169  1  0  0  0
 86 91  1  0  0  0
 86170  1  0  0  0
 86171  1  0  0  0
 86172  1  0  0  0
 87 89  1  0  0  0
 87173  1  0  0  0
 87174  1  0  0  0
 88 91  1  0  0  0
 88175  1  0  0  0
 88176  1  0  0  0
 89177  1  0  0  0
 89178  1  0  0  0
M  ISO  4   1 100  68 101  89 101  90 100
M  END
> <chiral flag>
0

> <version>
0

> <s_m_source_file>
/data/baiqing/PycharmProjects/Reinvent-master-3.2/result/LINK_invent/BTK/process_docking_weight1_custom_sum_contain_oxygen_bond_distance_aromatic_linkinvent_7_9_3/rearranged_h_0150.sdf

> <i_m_source_file_index>
6

> <r_mmod_Potential_Energy-OPLS-2005>
300.608306884766

> <r_mmod_Stretch_Energy-OPLS-2005>
49.181079864502

> <r_mmod_Bend_Energy-OPLS-2005>
136.61653137207

> <r_mmod_Torsional_Energy-OPLS-2005>
402.028167724609

> <r_mmod_Improper_Torsional_Energy-OPLS-2005>
20.7135238647461

> <r_mmod_Van_der_Waal_Energy-OPLS-2005>
169.429061889648

> <r_mmod_Electrostatic_Energy-OPLS-2005>
-311.152679443359

> <r_mmod_Solvation_Energy-OPLS-2005>
-192.573501586914

> <b_mmod_Minimization_Converged-OPLS-2005>
0

> <r_mmod_RMS_Derivative-OPLS-2005>
2.8491153717041

$$$$
6
                    3D
 Structure written by MMmdl.
171181  0  0  1  0            999 V2000
  -30.6753  -14.4722   20.5384 C   0  0  0  0  0  0
  -30.4274  -12.2981   19.4167 C   0  0  0  0  0  0
  -29.4944  -12.4891   18.2017 C   0  0  0  0  0  0
  -28.0119  -12.3576   18.6135 C   0  0  0  0  0  0
  -27.6582  -13.1959   19.8727 C   0  0  2  0  0  0
  -28.7031  -12.9576   20.9858 C   0  0  0  0  0  0
  -25.2607  -13.8141   20.5695 C   0  0  0  0  0  0
  -24.1836  -13.0426   20.9169 C   0  0  0  0  0  0
  -24.6375  -11.6892   20.8723 C   0  0  0  0  0  0
  -23.9039  -10.4286   21.0391 C   0  0  0  0  0  0
  -24.3602   -9.4205   21.9164 C   0  0  0  0  0  0
  -23.6287   -8.2240   22.0740 C   0  0  0  0  0  0
  -22.4271   -8.0276   21.3538 C   0  0  0  0  0  0
  -21.9892   -9.0244   20.4646 C   0  0  0  0  0  0
  -22.7212  -10.2127   20.3047 C   0  0  0  0  0  0
  -21.6851   -6.0731   22.5282 C   0  0  0  0  0  0
  -21.4015   -6.5632   23.8217 C   0  0  0  0  0  0
  -21.3654   -5.6781   24.9173 C   0  0  0  0  0  0
  -21.6044   -4.3048   24.7216 C   0  0  0  0  0  0
  -21.8823   -3.8141   23.4339 C   0  0  0  0  0  0
  -21.9194   -4.6960   22.3397 C   0  0  0  0  0  0
  -22.7868  -13.5249   21.1813 C   0  0  0  0  0  0
  -22.1664   -4.2148   21.0973 F   0  0  0  0  0  0
  -21.5620   -3.4530   25.7724 F   0  0  0  0  0  0
  -30.0246  -13.2828   20.4307 N   0  0  0  0  0  0
  -26.3007  -12.9281   20.3361 N   0  0  0  0  0  0
  -25.9296  -11.6456   20.5770 N   0  0  0  0  0  0
  -22.0493  -12.8268   22.0394 N   0  0  0  0  0  0
  -25.4380  -15.1852   20.4142 N   0  0  0  0  0  0
  -31.8494  -14.6107   20.1755 O   0  0  0  0  0  0
  -21.6639   -6.8875   21.4246 O   0  0  0  0  0  0
  -22.3568  -14.5549   20.6647 O   0  0  0  0  0  0
  -24.6167  -31.8659   23.2082 C   0  0  0  0  0  0
  -25.9046  -32.4834   23.8366 C   0  0  1  0  0  0
  -27.2425  -27.4388   20.1074 C   0  0  0  0  0  0
  -25.5877  -33.8631   24.2291 N   0  0  0  0  0  0
  -23.4039  -30.4880   21.5495 C   0  0  2  0  0  0
  -24.8519  -28.9495   20.1198 C   0  0  0  0  0  0
  -22.7410  -29.4651   22.4999 C   0  0  0  0  0  0
  -18.0271  -28.1375   22.8500 C   0  0  0  0  0  0
  -24.1470  -36.7338   23.2640 C   0  0  0  0  0  0
  -25.9306  -30.8378   21.3548 C   0  0  0  0  0  0
  -26.0110  -29.4698   20.7081 C   0  0  0  0  0  0
  -27.2122  -28.7251   20.6913 C   0  0  0  0  0  0
  -26.0677  -26.9308   19.5111 C   0  0  0  0  0  0
  -24.8747  -27.6781   19.5179 C   0  0  0  0  0  0
  -23.6123  -29.8139   20.1668 C   0  0  0  0  0  0
  -25.4104  -36.3122   24.0322 C   0  0  1  0  0  0
  -20.5860  -28.3649   23.1330 C   0  0  2  0  0  0
  -20.6752  -26.9390   22.5432 C   0  0  0  0  0  0
  -19.5735  -26.6384   21.5220 C   0  0  0  0  0  0
  -18.1909  -26.7926   22.1621 C   0  0  0  0  0  0
  -19.1525  -28.8837   23.2905 C   0  0  0  0  0  0
  -18.9450  -30.1438   23.8926 C   0  0  0  0  0  0
  -17.6456  -30.6584   24.0579 C   0  0  0  0  0  0
  -25.9031  -34.9490   23.5105 C   0  0  0  0  0  0
  -16.5343  -29.9098   23.6320 C   0  0  0  0  0  0
  -16.7264  -28.6507   23.0354 C   0  0  0  0  0  0
  -26.4513  -31.6621   25.0689 C   0  0  0  0  0  0
  -25.3799  -31.3716   26.1451 C   0  0  0  0  0  0
  -27.0412  -30.3092   24.6070 C   0  0  0  0  0  0
  -27.6077  -32.4394   25.7424 C   0  0  0  0  0  0
  -27.5577  -37.1818   24.8456 C   0  0  0  0  0  0
  -21.4142  -29.3014   22.3738 N   0  0  0  0  0  0
  -26.4289  -37.3801   23.9393 N   0  0  0  0  0  0
  -24.6693  -31.0778   22.0965 N   0  0  0  0  0  0
  -23.4183  -28.8215   23.3053 O   0  0  0  0  0  0
  -28.4143  -26.7128   20.0961 O   0  0  0  0  0  0
  -26.5608  -34.8943   22.4676 O   0  0  0  0  0  0
  -23.5362  -32.1396   23.7486 O   0  0  0  0  0  0
  -30.2988  -22.6688   21.8818 C   0  0  0  0  0  0
  -29.4056  -20.7981   20.6260 C   0  0  0  0  0  0
  -31.0666  -21.7862   22.6717 C   0  0  0  0  0  0
  -30.1939  -19.8852   21.3720 C   0  0  0  0  0  0
  -31.0518  -20.3943   22.3895 C   0  0  0  0  0  0
  -29.4763  -22.1911   20.8407 C   0  0  0  0  0  0
  -31.4965  -22.1143   25.2362 C   0  0  0  0  0  0
  -31.4054  -23.5012   24.6554 C   0  0  0  0  0  0
  -29.2658  -17.5998   22.0704 C   0  0  0  0  0  0
  -29.6185  -17.9697   19.6955 C   0  0  0  0  0  0
  -29.4049  -16.0657   21.9260 C   0  0  0  0  0  0
  -29.8556  -16.4684   19.4249 C   0  0  0  0  0  0
  -31.8957  -22.3540   23.7951 C   0  0  0  0  0  0
  -30.1387  -18.3742   21.0762 C   0  0  0  0  0  0
  -32.0004  -19.4728   23.1635 C   0  0  0  0  0  0
  -28.3544  -25.3902   20.6610 C   0  0  0  0  0  0
  -29.1358  -24.3691   19.8059 C   0  0  0  0  0  0
  -29.8611  -15.5620   20.6059 N   0  0  0  0  0  0
  -28.7206  -23.0113   20.0235 O   0  0  0  0  0  0
  -31.4687  -12.4125   19.1095 H   0  0  0  0  0  0
  -30.3468  -11.2865   19.8167 H   0  0  0  0  0  0
  -29.7337  -11.7589   17.4268 H   0  0  0  0  0  0
  -29.6660  -13.4707   17.7565 H   0  0  0  0  0  0
  -27.8137  -11.3031   18.8070 H   0  0  0  0  0  0
  -27.3671  -12.6352   17.7794 H   0  0  0  0  0  0
  -27.7026  -14.2438   19.5782 H   0  0  0  0  0  0
  -28.6855  -11.9137   21.3034 H   0  0  0  0  0  0
  -28.4763  -13.5225   21.8867 H   0  0  0  0  0  0
  -25.2744   -9.5687   22.4731 H   0  0  0  0  0  0
  -23.9993   -7.4636   22.7454 H   0  0  0  0  0  0
  -21.0817   -8.8762   19.8966 H   0  0  0  0  0  0
  -22.3655  -10.9662   19.6162 H   0  0  0  0  0  0
  -21.2020   -7.6141   23.9725 H   0  0  0  0  0  0
  -21.1469   -6.0502   25.9075 H   0  0  0  0  0  0
  -22.0610   -2.7606   23.2830 H   0  0  0  0  0  0
  -22.4104  -11.9945   22.4816 H   0  0  0  0  0  0
  -21.1114  -13.1325   22.2578 H   0  0  0  0  0  0
  -24.6803  -15.8468   20.5371 H   0  0  0  0  0  0
  -26.3079  -15.6230   20.1373 H   0  0  0  0  0  0
  -26.7120  -32.5565   23.1144 H   0  0  0  0  0  0
  -24.9983  -33.9787   25.0411 H   0  0  0  0  0  0
  -22.6919  -31.3040   21.4076 H   0  0  0  0  0  0
  -23.3713  -35.9688   23.3334 H   0  0  0  0  0  0
  -24.3539  -36.8939   22.2044 H   0  0  0  0  0  0
  -23.7249  -37.6554   23.6663 H   0  0  0  0  0  0
  -26.0295  -31.6005   20.5818 H   0  0  0  0  0  0
  -26.8245  -30.9016   21.9638 H   0  0  0  0  0  0
  -28.1124  -29.1271   21.1364 H   0  0  0  0  0  0
  -26.0740  -25.9585   19.0386 H   0  0  0  0  0  0
  -23.9821  -27.2707   19.0626 H   0  0  0  0  0  0
  -23.7201  -30.5845   19.4034 H   0  0  0  0  0  0
  -22.7376  -29.2311   19.8739 H   0  0  0  0  0  0
  -25.1290  -36.1974   25.0823 H   0  0  0  0  0  0
  -20.9957  -28.3214   24.1447 H   0  0  0  0  0  0
  -20.5636  -26.2267   23.3618 H   0  0  0  0  0  0
  -21.6623  -26.7420   22.1238 H   0  0  0  0  0  0
  -19.6885  -25.6301   21.1236 H   0  0  0  0  0  0
  -19.6678  -27.3204   20.6760 H   0  0  0  0  0  0
  -17.4185  -26.6693   21.4016 H   0  0  0  0  0  0
  -18.0290  -26.0065   22.9011 H   0  0  0  0  0  0
  -19.7932  -30.7241   24.2308 H   0  0  0  0  0  0
  -17.5017  -31.6271   24.5171 H   0  0  0  0  0  0
  -15.5344  -30.3011   23.7636 H   0  0  0  0  0  0
  -15.8656  -28.0843   22.7051 H   0  0  0  0  0  0
  -24.5927  -30.7119   25.7768 H   0  0  0  0  0  0
  -24.9063  -32.2885   26.4940 H   0  0  0  0  0  0
  -25.8153  -30.8821   27.0167 H   0  0  0  0  0  0
  -26.2958  -29.6703   24.1325 H   0  0  0  0  0  0
  -27.4449  -29.7478   25.4503 H   0  0  0  0  0  0
  -27.8646  -30.4469   23.9053 H   0  0  0  0  0  0
  -27.2670  -33.3653   26.2056 H   0  0  0  0  0  0
  -28.3827  -32.7038   25.0221 H   0  0  0  0  0  0
  -28.0847  -31.8527   26.5281 H   0  0  0  0  0  0
  -28.2615  -38.0097   24.7494 H   0  0  0  0  0  0
  -28.1055  -36.2636   24.6291 H   0  0  0  0  0  0
  -27.2306  -37.1475   25.8861 H   0  0  0  0  0  0
  -20.9302  -29.8730   21.6960 H   0  0  0  0  0  0
  -26.0177  -38.2877   24.1395 H   0  0  0  0  0  0
  -30.3471  -23.7251   22.0964 H   0  0  0  0  0  0
  -28.7524  -20.4428   19.8436 H   0  0  0  0  0  0
  -30.5633  -21.5829   25.4192 H   0  0  0  0  0  0
  -32.2877  -21.9312   25.9610 H   0  0  0  0  0  0
  -32.1359  -24.2231   25.0146 H   0  0  0  0  0  0
  -30.4060  -23.8958   24.4859 H   0  0  0  0  0  0
  -29.4942  -17.8810   23.0988 H   0  0  0  0  0  0
  -28.2211  -17.8857   21.9290 H   0  0  0  0  0  0
  -28.5538  -18.1900   19.6111 H   0  0  0  0  0  0
  -30.1080  -18.5522   18.9141 H   0  0  0  0  0  0
  -28.4341  -15.6314   22.1604 H   0  0  0  0  0  0
  -30.0836  -15.7075   22.7015 H   0  0  0  0  0  0
  -30.7986  -16.3960   18.8811 H   0  0  0  0  0  0
  -29.1042  -16.1031   18.7235 H   0  0  0  0  0  0
  -32.9569  -22.3268   23.5515 H   0  0  0  0  0  0
  -31.1641  -18.0074   21.1246 H   0  0  0  0  0  0
  -32.0936  -19.7554   24.2103 H   0  0  0  0  0  0
  -32.9967  -19.5171   22.7214 H   0  0  0  0  0  0
  -31.6980  -18.4283   23.1770 H   0  0  0  0  0  0
  -28.7745  -25.4279   21.6655 H   0  0  0  0  0  0
  -27.3293  -25.0396   20.7846 H   0  0  0  0  0  0
  -30.2140  -24.5012   19.9101 H   0  0  0  0  0  0
  -28.9248  -24.5749   18.7566 H   0  0  0  0  0  0
  1 25  1  0  0  0
  1 30  2  0  0  0
  1 88  1  0  0  0
  2  3  1  0  0  0
  2 25  1  0  0  0
  2 90  1  0  0  0
  2 91  1  0  0  0
  3  4  1  0  0  0
  3 92  1  0  0  0
  3 93  1  0  0  0
  4  5  1  0  0  0
  4 94  1  0  0  0
  4 95  1  0  0  0
  5  6  1  0  0  0
  5 26  1  0  0  0
  5 96  1  0  0  0
  6 25  1  0  0  0
  6 97  1  0  0  0
  6 98  1  0  0  0
  7  8  2  0  0  0
  7 26  1  0  0  0
  7 29  1  0  0  0
  8  9  1  0  0  0
  8 22  1  0  0  0
  9 10  1  0  0  0
  9 27  2  0  0  0
 10 11  2  0  0  0
 10 15  1  0  0  0
 11 12  1  0  0  0
 11 99  1  0  0  0
 12 13  2  0  0  0
 12100  1  0  0  0
 13 14  1  0  0  0
 13 31  1  0  0  0
 14 15  2  0  0  0
 14101  1  0  0  0
 15102  1  0  0  0
 16 17  2  0  0  0
 16 21  1  0  0  0
 16 31  1  0  0  0
 17 18  1  0  0  0
 17103  1  0  0  0
 18 19  2  0  0  0
 18104  1  0  0  0
 19 20  1  0  0  0
 19 24  1  0  0  0
 20 21  2  0  0  0
 20105  1  0  0  0
 21 23  1  0  0  0
 22 28  1  0  0  0
 22 32  2  0  0  0
 26 27  1  0  0  0
 28106  1  0  0  0
 28107  1  0  0  0
 29108  1  0  0  0
 29109  1  0  0  0
 33 34  1  0  0  0
 33 66  1  0  0  0
 33 70  2  0  0  0
 34 36  1  0  0  0
 34 59  1  0  0  0
 34110  1  0  0  0
 35 44  2  0  0  0
 35 45  1  0  0  0
 35 68  1  0  0  0
 36 56  1  0  0  0
 36111  1  0  0  0
 37 39  1  0  0  0
 37 47  1  0  0  0
 37 66  1  0  0  0
 37112  1  0  0  0
 38 43  2  0  0  0
 38 46  1  0  0  0
 38 47  1  0  0  0
 39 64  1  0  0  0
 39 67  2  0  0  0
 40 52  1  0  0  0
 40 53  2  0  0  0
 40 58  1  0  0  0
 41113  1  0  0  0
 41114  1  0  0  0
 41115  1  0  0  0
 41 48  1  0  0  0
 42 43  1  0  0  0
 42 66  1  0  0  0
 42116  1  0  0  0
 42117  1  0  0  0
 43 44  1  0  0  0
 44118  1  0  0  0
 45 46  2  0  0  0
 45119  1  0  0  0
 46120  1  0  0  0
 47121  1  0  0  0
 47122  1  0  0  0
 48 56  1  0  0  0
 48 65  1  0  0  0
 48123  1  0  0  0
 49 50  1  0  0  0
 49 53  1  0  0  0
 49 64  1  0  0  0
 49124  1  0  0  0
 50 51  1  0  0  0
 50125  1  0  0  0
 50126  1  0  0  0
 51 52  1  0  0  0
 51127  1  0  0  0
 51128  1  0  0  0
 52129  1  0  0  0
 52130  1  0  0  0
 53 54  1  0  0  0
 54 55  2  0  0  0
 54131  1  0  0  0
 55 57  1  0  0  0
 55132  1  0  0  0
 56 69  2  0  0  0
 57 58  2  0  0  0
 57133  1  0  0  0
 58134  1  0  0  0
 59 60  1  0  0  0
 59 61  1  0  0  0
 59 62  1  0  0  0
 60135  1  0  0  0
 60136  1  0  0  0
 60137  1  0  0  0
 61138  1  0  0  0
 61139  1  0  0  0
 61140  1  0  0  0
 62141  1  0  0  0
 62142  1  0  0  0
 62143  1  0  0  0
 63 65  1  0  0  0
 63144  1  0  0  0
 63145  1  0  0  0
 63146  1  0  0  0
 64147  1  0  0  0
 65148  1  0  0  0
 68 86  1  0  0  0
 71 73  2  0  0  0
 71 76  1  0  0  0
 71149  1  0  0  0
 72 74  1  0  0  0
 72 76  2  0  0  0
 72150  1  0  0  0
 73 75  1  0  0  0
 73 83  1  0  0  0
 74 75  2  0  0  0
 74 84  1  0  0  0
 75 85  1  0  0  0
 76 89  1  0  0  0
 77 78  1  0  0  0
 77 83  1  0  0  0
 77151  1  0  0  0
 77152  1  0  0  0
 78 83  1  0  0  0
 78153  1  0  0  0
 78154  1  0  0  0
 79 81  1  0  0  0
 79 84  1  0  0  0
 79155  1  0  0  0
 79156  1  0  0  0
 80 82  1  0  0  0
 80 84  1  0  0  0
 80157  1  0  0  0
 80158  1  0  0  0
 81 88  1  0  0  0
 81159  1  0  0  0
 81160  1  0  0  0
 82 88  1  0  0  0
 82161  1  0  0  0
 82162  1  0  0  0
 83163  1  0  0  0
 84164  1  0  0  0
 85165  1  0  0  0
 85166  1  0  0  0
 85167  1  0  0  0
 86 87  1  0  0  0
 86168  1  0  0  0
 86169  1  0  0  0
 87 89  1  0  0  0
 87170  1  0  0  0
 87171  1  0  0  0
M  ISO  4   1 100  68 101  86 101  88 100
M  END
> <chiral flag>
0

> <version>
0

> <s_m_source_file>
/data/baiqing/PycharmProjects/Reinvent-master-3.2/result/LINK_invent/BTK/process_docking_weight1_custom_sum_contain_oxygen_bond_distance_aromatic_linkinvent_7_9_3/rearranged_h_0150.sdf

> <i_m_source_file_index>
7

> <r_mmod_Potential_Energy-OPLS-2005>
250.050003051758

> <r_mmod_Stretch_Energy-OPLS-2005>
44.0183868408203

> <r_mmod_Bend_Energy-OPLS-2005>
118.443695068359

> <r_mmod_Torsional_Energy-OPLS-2005>
389.912567138672

> <r_mmod_Improper_Torsional_Energy-OPLS-2005>
15.0522089004517

> <r_mmod_Van_der_Waal_Energy-OPLS-2005>
167.580230712891

> <r_mmod_Electrostatic_Energy-OPLS-2005>
-307.188018798828

> <r_mmod_Solvation_Energy-OPLS-2005>
-192.500106811523

> <b_mmod_Minimization_Converged-OPLS-2005>
0

> <r_mmod_RMS_Derivative-OPLS-2005>
2.35308742523193

$$$$
7
                    3D
 Structure written by MMmdl.
164173  0  0  1  0            999 V2000
  -30.7771  -14.3411   20.7327 C   0  0  0  0  0  0
  -30.4196  -12.3004   19.3894 C   0  0  0  0  0  0
  -29.4834  -12.5409   18.1918 C   0  0  0  0  0  0
  -28.0092  -12.3852   18.6076 C   0  0  0  0  0  0
  -27.6662  -13.2022   19.8800 C   0  0  2  0  0  0
  -28.6996  -12.9343   20.9942 C   0  0  0  0  0  0
  -25.2606  -13.8162   20.5657 C   0  0  0  0  0  0
  -24.1840  -13.0455   20.9146 C   0  0  0  0  0  0
  -24.6383  -11.6908   20.8704 C   0  0  0  0  0  0
  -23.9050  -10.4300   21.0387 C   0  0  0  0  0  0
  -24.3609   -9.4217   21.9170 C   0  0  0  0  0  0
  -23.6285   -8.2251   22.0749 C   0  0  0  0  0  0
  -22.4268   -8.0287   21.3545 C   0  0  0  0  0  0
  -21.9899   -9.0252   20.4643 C   0  0  0  0  0  0
  -22.7220  -10.2130   20.3036 C   0  0  0  0  0  0
  -21.6857   -6.0738   22.5279 C   0  0  0  0  0  0
  -21.4016   -6.5639   23.8212 C   0  0  0  0  0  0
  -21.3657   -5.6789   24.9168 C   0  0  0  0  0  0
  -21.6039   -4.3049   24.7215 C   0  0  0  0  0  0
  -21.8822   -3.8146   23.4335 C   0  0  0  0  0  0
  -21.9196   -4.6967   22.3397 C   0  0  0  0  0  0
  -22.7860  -13.5253   21.1825 C   0  0  0  0  0  0
  -22.1666   -4.2152   21.0977 F   0  0  0  0  0  0
  -21.5625   -3.4534   25.7726 F   0  0  0  0  0  0
  -30.0471  -13.2282   20.4676 N   0  0  0  0  0  0
  -26.3037  -12.9315   20.3360 N   0  0  0  0  0  0
  -25.9310  -11.6481   20.5732 N   0  0  0  0  0  0
  -22.0499  -12.8243   22.0379 N   0  0  0  0  0  0
  -25.4369  -15.1874   20.4089 N   0  0  0  0  0  0
  -31.7780  -14.6682   20.0868 O   0  0  0  0  0  0
  -21.6642   -6.8874   21.4234 O   0  0  0  0  0  0
  -22.3548  -14.5569   20.6685 O   0  0  0  0  0  0
  -24.6117  -31.8701   23.2131 C   0  0  0  0  0  0
  -25.9034  -32.4822   23.8422 C   0  0  1  0  0  0
  -27.2331  -27.4525   20.0883 C   0  0  0  0  0  0
  -25.5907  -33.8625   24.2348 N   0  0  0  0  0  0
  -23.3967  -30.4970   21.5518 C   0  0  2  0  0  0
  -24.8417  -28.9664   20.1182 C   0  0  0  0  0  0
  -22.7366  -29.4697   22.4995 C   0  0  0  0  0  0
  -18.0250  -28.1388   22.8504 C   0  0  0  0  0  0
  -24.1487  -36.7308   23.2632 C   0  0  0  0  0  0
  -25.9254  -30.8408   21.3645 C   0  0  0  0  0  0
  -26.0023  -29.4770   20.7121 C   0  0  0  0  0  0
  -27.1979  -28.7265   20.6975 C   0  0  0  0  0  0
  -26.0472  -26.9559   19.4906 C   0  0  0  0  0  0
  -24.8579  -27.7028   19.5086 C   0  0  0  0  0  0
  -23.6033  -29.8282   20.1664 C   0  0  0  0  0  0
  -25.4106  -36.3112   24.0337 C   0  0  1  0  0  0
  -20.5838  -28.3688   23.1319 C   0  0  2  0  0  0
  -20.6750  -26.9423   22.5424 C   0  0  0  0  0  0
  -19.5734  -26.6402   21.5223 C   0  0  0  0  0  0
  -18.1906  -26.7946   22.1610 C   0  0  0  0  0  0
  -19.1494  -28.8845   23.2920 C   0  0  0  0  0  0
  -18.9434  -30.1442   23.8957 C   0  0  0  0  0  0
  -17.6442  -30.6606   24.0558 C   0  0  0  0  0  0
  -25.9045  -34.9477   23.5139 C   0  0  0  0  0  0
  -16.5330  -29.9110   23.6332 C   0  0  0  0  0  0
  -16.7235  -28.6501   23.0402 C   0  0  0  0  0  0
  -26.4482  -31.6598   25.0738 C   0  0  0  0  0  0
  -25.3774  -31.3699   26.1508 C   0  0  0  0  0  0
  -27.0301  -30.3030   24.6132 C   0  0  0  0  0  0
  -27.6065  -32.4312   25.7498 C   0  0  0  0  0  0
  -27.5598  -37.1788   24.8439 C   0  0  0  0  0  0
  -21.4099  -29.3060   22.3721 N   0  0  0  0  0  0
  -26.4276  -37.3807   23.9436 N   0  0  0  0  0  0
  -24.6624  -31.0832   22.1013 N   0  0  0  0  0  0
  -23.4148  -28.8244   23.3027 O   0  0  0  0  0  0
  -28.4162  -26.7397   20.1006 O   0  0  0  0  0  0
  -26.5584  -34.8913   22.4692 O   0  0  0  0  0  0
  -23.5320  -32.1442   23.7553 O   0  0  0  0  0  0
  -31.1730  -21.0060   21.8438 C   0  0  0  0  0  0
  -30.8674  -22.1752   21.1240 C   0  0  0  0  0  0
  -29.3169  -19.8514   20.7708 C   0  0  0  0  0  0
  -30.4054  -19.8364   21.6676 C   0  0  0  0  0  0
  -29.0134  -21.0198   20.0411 C   0  0  0  0  0  0
  -29.7816  -22.1915   20.2196 C   0  0  0  0  0  0
  -29.6996  -17.9907   23.3247 C   0  0  0  0  0  0
  -30.2837  -16.6265   23.6988 C   0  0  0  0  0  0
  -31.1833  -17.3888   21.5426 C   0  0  0  0  0  0
  -30.7867  -18.5749   22.4271 C   0  0  1  0  0  0
  -31.0644  -16.1461   22.4547 C   0  0  2  0  0  0
  -27.8564  -21.0152   19.0598 C   0  0  0  0  0  0
  -28.3432  -25.3627   19.7285 C   0  0  0  0  0  0
  -29.6223  -24.5849   20.0540 C   0  0  0  0  0  0
  -30.3776  -15.0240   21.8155 N   0  0  0  0  0  0
  -29.4541  -23.2952   19.4690 O   0  0  0  0  0  0
  -31.4618  -12.4174   19.0856 H   0  0  0  0  0  0
  -30.3308  -11.2726   19.7456 H   0  0  0  0  0  0
  -29.7228  -11.8489   17.3838 H   0  0  0  0  0  0
  -29.6477  -13.5442   17.7952 H   0  0  0  0  0  0
  -27.8197  -11.3255   18.7822 H   0  0  0  0  0  0
  -27.3559  -12.6783   17.7854 H   0  0  0  0  0  0
  -27.7274  -14.2576   19.6145 H   0  0  0  0  0  0
  -28.6591  -11.8871   21.2993 H   0  0  0  0  0  0
  -28.4345  -13.4999   21.8870 H   0  0  0  0  0  0
  -25.2757   -9.5706   22.4736 H   0  0  0  0  0  0
  -24.0000   -7.4654   22.7477 H   0  0  0  0  0  0
  -21.0828   -8.8771   19.8957 H   0  0  0  0  0  0
  -22.3687  -10.9663   19.6142 H   0  0  0  0  0  0
  -21.2005   -7.6151   23.9713 H   0  0  0  0  0  0
  -21.1474   -6.0518   25.9070 H   0  0  0  0  0  0
  -22.0599   -2.7611   23.2832 H   0  0  0  0  0  0
  -22.4108  -11.9899   22.4758 H   0  0  0  0  0  0
  -21.1116  -13.1266   22.2576 H   0  0  0  0  0  0
  -24.6798  -15.8511   20.5262 H   0  0  0  0  0  0
  -26.3023  -15.6229   20.1142 H   0  0  0  0  0  0
  -26.7102  -32.5540   23.1193 H   0  0  0  0  0  0
  -25.0098  -33.9792   25.0523 H   0  0  0  0  0  0
  -22.6843  -31.3131   21.4112 H   0  0  0  0  0  0
  -23.3776  -35.9609   23.3221 H   0  0  0  0  0  0
  -24.3618  -36.9007   22.2064 H   0  0  0  0  0  0
  -23.7187  -37.6469   23.6693 H   0  0  0  0  0  0
  -26.0381  -31.6088   20.5983 H   0  0  0  0  0  0
  -26.8124  -30.8922   21.9841 H   0  0  0  0  0  0
  -28.0927  -29.1215   21.1597 H   0  0  0  0  0  0
  -26.0111  -25.9972   18.9962 H   0  0  0  0  0  0
  -23.9653  -27.3007   19.0494 H   0  0  0  0  0  0
  -23.7057  -30.5990   19.4008 H   0  0  0  0  0  0
  -22.7294  -29.2416   19.8756 H   0  0  0  0  0  0
  -25.1282  -36.1965   25.0838 H   0  0  0  0  0  0
  -20.9931  -28.3264   24.1433 H   0  0  0  0  0  0
  -20.5654  -26.2305   23.3627 H   0  0  0  0  0  0
  -21.6622  -26.7488   22.1205 H   0  0  0  0  0  0
  -19.6892  -25.6314   21.1249 H   0  0  0  0  0  0
  -19.6679  -27.3216   20.6749 H   0  0  0  0  0  0
  -17.4190  -26.6729   21.3993 H   0  0  0  0  0  0
  -18.0268  -26.0068   22.8979 H   0  0  0  0  0  0
  -19.7913  -30.7227   24.2377 H   0  0  0  0  0  0
  -17.5002  -31.6300   24.5145 H   0  0  0  0  0  0
  -15.5339  -30.3048   23.7621 H   0  0  0  0  0  0
  -15.8619  -28.0811   22.7179 H   0  0  0  0  0  0
  -24.5960  -30.7024   25.7869 H   0  0  0  0  0  0
  -24.8962  -32.2846   26.4967 H   0  0  0  0  0  0
  -25.8162  -30.8879   27.0253 H   0  0  0  0  0  0
  -26.2837  -29.6777   24.1220 H   0  0  0  0  0  0
  -27.4081  -29.7290   25.4602 H   0  0  0  0  0  0
  -27.8675  -30.4331   23.9274 H   0  0  0  0  0  0
  -27.2709  -33.3627   26.2071 H   0  0  0  0  0  0
  -28.3887  -32.6848   25.0328 H   0  0  0  0  0  0
  -28.0715  -31.8433   26.5424 H   0  0  0  0  0  0
  -28.2527  -38.0173   24.7623 H   0  0  0  0  0  0
  -28.1182  -36.2717   24.6083 H   0  0  0  0  0  0
  -27.2336  -37.1193   25.8836 H   0  0  0  0  0  0
  -20.9244  -29.8770   21.6944 H   0  0  0  0  0  0
  -26.0153  -38.2855   24.1554 H   0  0  0  0  0  0
  -32.0135  -21.0109   22.5249 H   0  0  0  0  0  0
  -31.4902  -23.0466   21.2613 H   0  0  0  0  0  0
  -28.7200  -18.9603   20.6291 H   0  0  0  0  0  0
  -29.4740  -18.6163   24.1882 H   0  0  0  0  0  0
  -28.7729  -17.8438   22.7685 H   0  0  0  0  0  0
  -29.5222  -15.9283   24.0480 H   0  0  0  0  0  0
  -30.9836  -16.7659   24.5247 H   0  0  0  0  0  0
  -32.1798  -17.5056   21.1141 H   0  0  0  0  0  0
  -30.4879  -17.3044   20.7067 H   0  0  0  0  0  0
  -31.6413  -18.8109   23.0647 H   0  0  0  0  0  0
  -32.0582  -15.8152   22.7643 H   0  0  0  0  0  0
  -27.2384  -20.1242   19.1678 H   0  0  0  0  0  0
  -28.2344  -21.0468   18.0379 H   0  0  0  0  0  0
  -27.2187  -21.8859   19.2136 H   0  0  0  0  0  0
  -27.5222  -24.8725   20.2544 H   0  0  0  0  0  0
  -28.1450  -25.2925   18.6575 H   0  0  0  0  0  0
  -29.7519  -24.5555   21.1374 H   0  0  0  0  0  0
  -30.4995  -25.0663   19.6212 H   0  0  0  0  0  0
  -29.5710  -14.6533   22.2948 H   0  0  0  0  0  0
  1 25  1  0  0  0
  1 30  2  0  0  0
  1 85  1  0  0  0
  2  3  1  0  0  0
  2 25  1  0  0  0
  2 87  1  0  0  0
  2 88  1  0  0  0
  3  4  1  0  0  0
  3 89  1  0  0  0
  3 90  1  0  0  0
  4  5  1  0  0  0
  4 91  1  0  0  0
  4 92  1  0  0  0
  5  6  1  0  0  0
  5 26  1  0  0  0
  5 93  1  0  0  0
  6 25  1  0  0  0
  6 94  1  0  0  0
  6 95  1  0  0  0
  7  8  2  0  0  0
  7 26  1  0  0  0
  7 29  1  0  0  0
  8  9  1  0  0  0
  8 22  1  0  0  0
  9 10  1  0  0  0
  9 27  2  0  0  0
 10 11  2  0  0  0
 10 15  1  0  0  0
 11 12  1  0  0  0
 11 96  1  0  0  0
 12 13  2  0  0  0
 12 97  1  0  0  0
 13 14  1  0  0  0
 13 31  1  0  0  0
 14 15  2  0  0  0
 14 98  1  0  0  0
 15 99  1  0  0  0
 16 17  2  0  0  0
 16 21  1  0  0  0
 16 31  1  0  0  0
 17 18  1  0  0  0
 17100  1  0  0  0
 18 19  2  0  0  0
 18101  1  0  0  0
 19 20  1  0  0  0
 19 24  1  0  0  0
 20 21  2  0  0  0
 20102  1  0  0  0
 21 23  1  0  0  0
 22 28  1  0  0  0
 22 32  2  0  0  0
 26 27  1  0  0  0
 28103  1  0  0  0
 28104  1  0  0  0
 29105  1  0  0  0
 29106  1  0  0  0
 33 34  1  0  0  0
 33 66  1  0  0  0
 33 70  2  0  0  0
 34 36  1  0  0  0
 34 59  1  0  0  0
 34107  1  0  0  0
 35 44  2  0  0  0
 35 45  1  0  0  0
 35 68  1  0  0  0
 36 56  1  0  0  0
 36108  1  0  0  0
 37 39  1  0  0  0
 37 47  1  0  0  0
 37 66  1  0  0  0
 37109  1  0  0  0
 38 43  2  0  0  0
 38 46  1  0  0  0
 38 47  1  0  0  0
 39 64  1  0  0  0
 39 67  2  0  0  0
 40 52  1  0  0  0
 40 53  2  0  0  0
 40 58  1  0  0  0
 41110  1  0  0  0
 41111  1  0  0  0
 41112  1  0  0  0
 41 48  1  0  0  0
 42 43  1  0  0  0
 42 66  1  0  0  0
 42113  1  0  0  0
 42114  1  0  0  0
 43 44  1  0  0  0
 44115  1  0  0  0
 45 46  2  0  0  0
 45116  1  0  0  0
 46117  1  0  0  0
 47118  1  0  0  0
 47119  1  0  0  0
 48 56  1  0  0  0
 48 65  1  0  0  0
 48120  1  0  0  0
 49 50  1  0  0  0
 49 53  1  0  0  0
 49 64  1  0  0  0
 49121  1  0  0  0
 50 51  1  0  0  0
 50122  1  0  0  0
 50123  1  0  0  0
 51 52  1  0  0  0
 51124  1  0  0  0
 51125  1  0  0  0
 52126  1  0  0  0
 52127  1  0  0  0
 53 54  1  0  0  0
 54 55  2  0  0  0
 54128  1  0  0  0
 55 57  1  0  0  0
 55129  1  0  0  0
 56 69  2  0  0  0
 57 58  2  0  0  0
 57130  1  0  0  0
 58131  1  0  0  0
 59 60  1  0  0  0
 59 61  1  0  0  0
 59 62  1  0  0  0
 60132  1  0  0  0
 60133  1  0  0  0
 60134  1  0  0  0
 61135  1  0  0  0
 61136  1  0  0  0
 61137  1  0  0  0
 62138  1  0  0  0
 62139  1  0  0  0
 62140  1  0  0  0
 63 65  1  0  0  0
 63141  1  0  0  0
 63142  1  0  0  0
 63143  1  0  0  0
 64144  1  0  0  0
 65145  1  0  0  0
 68 83  1  0  0  0
 71 72  2  0  0  0
 71 74  1  0  0  0
 71146  1  0  0  0
 72 76  1  0  0  0
 72147  1  0  0  0
 73 74  2  0  0  0
 73 75  1  0  0  0
 73148  1  0  0  0
 74 80  1  0  0  0
 75 76  2  0  0  0
 75 82  1  0  0  0
 76 86  1  0  0  0
 77 78  1  0  0  0
 77 80  1  0  0  0
 77149  1  0  0  0
 77150  1  0  0  0
 78 81  1  0  0  0
 78151  1  0  0  0
 78152  1  0  0  0
 79 80  1  0  0  0
 79 81  1  0  0  0
 79153  1  0  0  0
 79154  1  0  0  0
 80155  1  0  0  0
 81 85  1  0  0  0
 81156  1  0  0  0
 82157  1  0  0  0
 82158  1  0  0  0
 82159  1  0  0  0
 83 84  1  0  0  0
 83160  1  0  0  0
 83161  1  0  0  0
 84 86  1  0  0  0
 84162  1  0  0  0
 84163  1  0  0  0
 85164  1  0  0  0
M  ISO  4   1 100  68 101  83 101  85 100
M  END
> <chiral flag>
0

> <version>
0

> <s_m_source_file>
/data/baiqing/PycharmProjects/Reinvent-master-3.2/result/LINK_invent/BTK/process_docking_weight1_custom_sum_contain_oxygen_bond_distance_aromatic_linkinvent_7_9_3/rearranged_h_0150.sdf

> <i_m_source_file_index>
8

> <r_mmod_Potential_Energy-OPLS-2005>
-33.0250091552734

> <r_mmod_Stretch_Energy-OPLS-2005>
32.8670692443848

> <r_mmod_Bend_Energy-OPLS-2005>
124.478401184082

> <r_mmod_Torsional_Energy-OPLS-2005>
231.497253417969

> <r_mmod_Improper_Torsional_Energy-OPLS-2005>
2.1332323551178

> <r_mmod_Van_der_Waal_Energy-OPLS-2005>
161.527435302734

> <r_mmod_Electrostatic_Energy-OPLS-2005>
-388.217437744141

> <r_mmod_Solvation_Energy-OPLS-2005>
-205.662628173828

> <b_mmod_Minimization_Converged-OPLS-2005>
0

> <r_mmod_RMS_Derivative-OPLS-2005>
2.39151525497437

$$$$
8
                    3D
 Structure written by MMmdl.
185195  0  0  1  0            999 V2000
  -30.7716  -14.4981   20.5665 C   0  0  0  0  0  0
  -30.4092  -12.3301   19.4408 C   0  0  0  0  0  0
  -29.4891  -12.4786   18.2133 C   0  0  0  0  0  0
  -28.0136  -12.3270   18.6327 C   0  0  0  0  0  0
  -27.6500  -13.2008   19.8636 C   0  0  2  0  0  0
  -28.7016  -13.0390   20.9909 C   0  0  0  0  0  0
  -25.2531  -13.7937   20.5798 C   0  0  0  0  0  0
  -24.1802  -13.0299   20.9297 C   0  0  0  0  0  0
  -24.6371  -11.6770   20.8839 C   0  0  0  0  0  0
  -23.9070  -10.4174   21.0443 C   0  0  0  0  0  0
  -24.3597   -9.4085   21.9225 C   0  0  0  0  0  0
  -23.6226   -8.2150   22.0780 C   0  0  0  0  0  0
  -22.4210   -8.0224   21.3559 C   0  0  0  0  0  0
  -21.9875   -9.0212   20.4671 C   0  0  0  0  0  0
  -22.7253  -10.2056   20.3077 C   0  0  0  0  0  0
  -21.6796   -6.0690   22.5275 C   0  0  0  0  0  0
  -21.4003   -6.5607   23.8222 C   0  0  0  0  0  0
  -21.3667   -5.6764   24.9196 C   0  0  0  0  0  0
  -21.6039   -4.3023   24.7242 C   0  0  0  0  0  0
  -21.8840   -3.8105   23.4371 C   0  0  0  0  0  0
  -21.9183   -4.6917   22.3417 C   0  0  0  0  0  0
  -22.7823  -13.5125   21.1865 C   0  0  0  0  0  0
  -22.1626   -4.2105   21.0995 F   0  0  0  0  0  0
  -21.5643   -3.4526   25.7771 F   0  0  0  0  0  0
  -30.0167  -13.3643   20.4248 N   0  0  0  0  0  0
  -26.2985  -12.9201   20.3368 N   0  0  0  0  0  0
  -25.9311  -11.6375   20.5848 N   0  0  0  0  0  0
  -22.0359  -12.8160   22.0347 N   0  0  0  0  0  0
  -25.4195  -15.1570   20.4063 N   0  0  0  0  0  0
  -31.9153  -14.5590   20.1179 O   0  0  0  0  0  0
  -21.6584   -6.8818   21.4228 O   0  0  0  0  0  0
  -22.3639  -14.5492   20.6683 O   0  0  0  0  0  0
  -24.6071  -31.8696   23.2146 C   0  0  0  0  0  0
  -25.8966  -32.4831   23.8448 C   0  0  1  0  0  0
  -27.2560  -27.4839   20.0751 C   0  0  0  0  0  0
  -25.5819  -33.8606   24.2364 N   0  0  0  0  0  0
  -23.4032  -30.4962   21.5431 C   0  0  2  0  0  0
  -24.8492  -28.9526   20.1136 C   0  0  0  0  0  0
  -22.7398  -29.4776   22.4951 C   0  0  0  0  0  0
  -18.0260  -28.1362   22.8591 C   0  0  0  0  0  0
  -24.1476  -36.7347   23.2668 C   0  0  0  0  0  0
  -25.9223  -30.8430   21.3696 C   0  0  0  0  0  0
  -26.0027  -29.4807   20.7095 C   0  0  0  0  0  0
  -27.2033  -28.7468   20.6984 C   0  0  0  0  0  0
  -26.0914  -26.9492   19.4831 C   0  0  0  0  0  0
  -24.8852  -27.6812   19.5067 C   0  0  0  0  0  0
  -23.6082  -29.8168   20.1623 C   0  0  0  0  0  0
  -25.4093  -36.3133   24.0400 C   0  0  1  0  0  0
  -20.5838  -28.3787   23.1187 C   0  0  2  0  0  0
  -20.6908  -26.9495   22.5347 C   0  0  0  0  0  0
  -19.5688  -26.6096   21.5451 C   0  0  0  0  0  0
  -18.1928  -26.7781   22.2000 C   0  0  0  0  0  0
  -19.1477  -28.8909   23.2788 C   0  0  0  0  0  0
  -18.9343  -30.1481   23.8819 C   0  0  0  0  0  0
  -17.6355  -30.6622   24.0464 C   0  0  0  0  0  0
  -25.9001  -34.9464   23.5192 C   0  0  0  0  0  0
  -16.5237  -29.9073   23.6296 C   0  0  0  0  0  0
  -16.7225  -28.6442   23.0416 C   0  0  0  0  0  0
  -26.4351  -31.6611   25.0772 C   0  0  0  0  0  0
  -25.3600  -31.3702   26.1506 C   0  0  0  0  0  0
  -27.0201  -30.3062   24.6158 C   0  0  0  0  0  0
  -27.5936  -32.4324   25.7531 C   0  0  0  0  0  0
  -27.5600  -37.1832   24.8462 C   0  0  0  0  0  0
  -21.4149  -29.3208   22.3652 N   0  0  0  0  0  0
  -26.4305  -37.3782   23.9404 N   0  0  0  0  0  0
  -24.6625  -31.0828   22.1023 N   0  0  0  0  0  0
  -23.4131  -28.8260   23.2989 O   0  0  0  0  0  0
  -28.4264  -26.7818   20.1365 O   0  0  0  0  0  0
  -26.5611  -34.8937   22.4781 O   0  0  0  0  0  0
  -23.5264  -32.1440   23.7530 O   0  0  0  0  0  0
  -29.9784  -21.0105   21.1458 C   0  0  0  0  0  0
  -30.8222  -22.0835   21.5008 C   0  0  0  0  0  0
  -28.2808  -21.9049   22.6101 C   0  0  0  0  0  0
  -28.6788  -20.9224   21.6790 C   0  0  0  0  0  0
  -30.4204  -23.1127   22.3984 C   0  0  0  0  0  0
  -29.1221  -22.9806   22.9870 C   0  0  0  0  0  0
  -26.3407  -19.0372   19.3870 C   0  0  0  0  0  0
  -27.4094  -20.0900   19.6202 C   0  0  0  0  0  0
  -32.6455  -24.3438   21.7695 C   0  0  0  0  0  0
  -31.0263  -25.6904   22.9621 C   0  0  0  0  0  0
  -26.6748  -17.9363   20.4030 C   0  0  0  0  0  0
  -32.1799  -24.8527   20.3727 C   0  0  0  0  0  0
  -30.9496  -26.5232   21.6603 C   0  0  0  0  0  0
  -31.4687  -24.2139   22.7701 C   0  0  1  0  0  0
  -27.6248  -19.9450   21.1227 C   0  0  1  0  0  0
  -28.5608  -23.9322   24.0386 C   0  0  0  0  0  0
  -29.0110  -16.2282   21.5208 C   0  0  0  0  0  0
  -28.9866  -17.7884   21.2960 C   0  0  0  0  0  0
  -30.5516  -26.3342   19.1847 C   0  0  0  0  0  0
  -29.0220  -26.3236   18.9366 C   0  0  0  0  0  0
  -30.2973  -15.6709   21.0509 N   0  0  0  0  0  0
  -30.9254  -25.6495   20.4589 N   0  3  1  0  0  0
  -27.6605  -18.4703   21.3866 N   0  3  1  0  0  0
  -31.4542  -12.3930   19.1277 H   0  0  0  0  0  0
  -30.3075  -11.3294   19.8649 H   0  0  0  0  0  0
  -29.7313  -11.7186   17.4674 H   0  0  0  0  0  0
  -29.6546  -13.4464   17.7395 H   0  0  0  0  0  0
  -27.8454  -11.2772   18.8744 H   0  0  0  0  0  0
  -27.3509  -12.5593   17.7951 H   0  0  0  0  0  0
  -27.6668  -14.2297   19.5089 H   0  0  0  0  0  0
  -28.7002  -12.0011   21.3356 H   0  0  0  0  0  0
  -28.4775  -13.6359   21.8714 H   0  0  0  0  0  0
  -25.2719   -9.5528   22.4864 H   0  0  0  0  0  0
  -23.9908   -7.4502   22.7481 H   0  0  0  0  0  0
  -21.0823   -8.8762   19.8919 H   0  0  0  0  0  0
  -22.3742  -10.9640   19.6204 H   0  0  0  0  0  0
  -21.1995   -7.6121   23.9722 H   0  0  0  0  0  0
  -21.1461   -6.0496   25.9102 H   0  0  0  0  0  0
  -22.0619   -2.7573   23.2898 H   0  0  0  0  0  0
  -22.3903  -11.9851   22.4842 H   0  0  0  0  0  0
  -21.1012  -13.1291   22.2545 H   0  0  0  0  0  0
  -24.5782  -15.7249   20.4140 H   0  0  0  0  0  0
  -26.0840  -15.4299   19.6940 H   0  0  0  0  0  0
  -26.7051  -32.5529   23.1252 H   0  0  0  0  0  0
  -24.9796  -33.9696   25.0364 H   0  0  0  0  0  0
  -22.6971  -31.3154   21.4054 H   0  0  0  0  0  0
  -23.3719  -35.9691   23.3291 H   0  0  0  0  0  0
  -24.3582  -36.8952   22.2093 H   0  0  0  0  0  0
  -23.7289  -37.6585   23.6647 H   0  0  0  0  0  0
  -26.0516  -31.6162   20.6113 H   0  0  0  0  0  0
  -26.8054  -30.8778   21.9896 H   0  0  0  0  0  0
  -28.0949  -29.1379   21.1665 H   0  0  0  0  0  0
  -26.1045  -25.9687   19.0345 H   0  0  0  0  0  0
  -23.9898  -27.2615   19.0700 H   0  0  0  0  0  0
  -23.7253  -30.5890   19.3976 H   0  0  0  0  0  0
  -22.7289  -29.2349   19.8697 H   0  0  0  0  0  0
  -25.1278  -36.2027   25.0913 H   0  0  0  0  0  0
  -20.9798  -28.3520   24.1375 H   0  0  0  0  0  0
  -20.6151  -26.2482   23.3608 H   0  0  0  0  0  0
  -21.6773  -26.7689   22.0959 H   0  0  0  0  0  0
  -19.6786  -25.5839   21.1846 H   0  0  0  0  0  0
  -19.6530  -27.2565   20.6761 H   0  0  0  0  0  0
  -17.4016  -26.6333   21.4576 H   0  0  0  0  0  0
  -18.0411  -26.0137   22.9633 H   0  0  0  0  0  0
  -19.7825  -30.7284   24.2204 H   0  0  0  0  0  0
  -17.4923  -31.6347   24.5020 H   0  0  0  0  0  0
  -15.5204  -30.2951   23.7555 H   0  0  0  0  0  0
  -15.8696  -28.0659   22.7220 H   0  0  0  0  0  0
  -24.5645  -30.7247   25.7756 H   0  0  0  0  0  0
  -24.8941  -32.2858   26.5185 H   0  0  0  0  0  0
  -25.7894  -30.8643   27.0172 H   0  0  0  0  0  0
  -26.2691  -29.6809   24.1334 H   0  0  0  0  0  0
  -27.4056  -29.7344   25.4621 H   0  0  0  0  0  0
  -27.8534  -30.4402   23.9241 H   0  0  0  0  0  0
  -27.2484  -33.3473   26.2386 H   0  0  0  0  0  0
  -28.3591  -32.7204   25.0303 H   0  0  0  0  0  0
  -28.0813  -31.8326   26.5245 H   0  0  0  0  0  0
  -28.2628  -38.0120   24.7423 H   0  0  0  0  0  0
  -28.1092  -36.2649   24.6315 H   0  0  0  0  0  0
  -27.2291  -37.1485   25.8861 H   0  0  0  0  0  0
  -20.9321  -29.9086   21.6992 H   0  0  0  0  0  0
  -26.0226  -38.2876   24.1339 H   0  0  0  0  0  0
  -30.3258  -20.2838   20.4278 H   0  0  0  0  0  0
  -31.8015  -22.0835   21.0474 H   0  0  0  0  0  0
  -27.2807  -21.8563   23.0192 H   0  0  0  0  0  0
  -26.3234  -18.6693   18.3605 H   0  0  0  0  0  0
  -25.3619  -19.4615   19.6054 H   0  0  0  0  0  0
  -27.0965  -21.0962   19.3440 H   0  0  0  0  0  0
  -28.3080  -19.8482   19.0545 H   0  0  0  0  0  0
  -33.3522  -25.0692   22.1783 H   0  0  0  0  0  0
  -33.2437  -23.4340   21.7049 H   0  0  0  0  0  0
  -30.1742  -25.8510   23.6099 H   0  0  0  0  0  0
  -31.8274  -26.1613   23.5378 H   0  0  0  0  0  0
  -27.0511  -17.0868   19.8336 H   0  0  0  0  0  0
  -25.7775  -17.6434   20.9472 H   0  0  0  0  0  0
  -32.0204  -24.0236   19.6852 H   0  0  0  0  0  0
  -32.9652  -25.4638   19.9301 H   0  0  0  0  0  0
  -31.8357  -27.1547   21.5848 H   0  0  0  0  0  0
  -30.1056  -27.2115   21.7244 H   0  0  0  0  0  0
  -31.8770  -23.8788   23.7226 H   0  0  0  0  0  0
  -26.6780  -20.2521   21.5735 H   0  0  0  0  0  0
  -28.3147  -24.8991   23.6021 H   0  0  0  0  0  0
  -29.2660  -24.0683   24.8601 H   0  0  0  0  0  0
  -27.6376  -23.5393   24.4717 H   0  0  0  0  0  0
  -28.8932  -16.0306   22.5880 H   0  0  0  0  0  0
  -28.1978  -15.7207   21.0086 H   0  0  0  0  0  0
  -29.4003  -18.0228   20.3188 H   0  0  0  0  0  0
  -29.6306  -18.2658   22.0410 H   0  0  0  0  0  0
  -30.9450  -27.3510   19.1661 H   0  0  0  0  0  0
  -31.0215  -25.8255   18.3371 H   0  0  0  0  0  0
  -28.6610  -25.3181   18.7097 H   0  0  0  0  0  0
  -28.7691  -26.9635   18.0900 H   0  0  0  0  0  0
  -30.9894  -16.3898   20.8898 H   0  0  0  0  0  0
  -30.1779  -24.9907   20.6329 H   0  0  0  0  0  0
  -27.3064  -18.3155   22.3188 H   0  0  0  0  0  0
  1 25  1  0  0  0
  1 30  2  0  0  0
  1 91  1  0  0  0
  2  3  1  0  0  0
  2 25  1  0  0  0
  2 94  1  0  0  0
  2 95  1  0  0  0
  3  4  1  0  0  0
  3 96  1  0  0  0
  3 97  1  0  0  0
  4  5  1  0  0  0
  4 98  1  0  0  0
  4 99  1  0  0  0
  5  6  1  0  0  0
  5 26  1  0  0  0
  5100  1  0  0  0
  6 25  1  0  0  0
  6101  1  0  0  0
  6102  1  0  0  0
  7  8  2  0  0  0
  7 26  1  0  0  0
  7 29  1  0  0  0
  8  9  1  0  0  0
  8 22  1  0  0  0
  9 10  1  0  0  0
  9 27  2  0  0  0
 10 11  2  0  0  0
 10 15  1  0  0  0
 11 12  1  0  0  0
 11103  1  0  0  0
 12 13  2  0  0  0
 12104  1  0  0  0
 13 14  1  0  0  0
 13 31  1  0  0  0
 14 15  2  0  0  0
 14105  1  0  0  0
 15106  1  0  0  0
 16 17  2  0  0  0
 16 21  1  0  0  0
 16 31  1  0  0  0
 17 18  1  0  0  0
 17107  1  0  0  0
 18 19  2  0  0  0
 18108  1  0  0  0
 19 20  1  0  0  0
 19 24  1  0  0  0
 20 21  2  0  0  0
 20109  1  0  0  0
 21 23  1  0  0  0
 22 28  1  0  0  0
 22 32  2  0  0  0
 26 27  1  0  0  0
 28110  1  0  0  0
 28111  1  0  0  0
 29112  1  0  0  0
 29113  1  0  0  0
 33 34  1  0  0  0
 33 66  1  0  0  0
 33 70  2  0  0  0
 34 36  1  0  0  0
 34 59  1  0  0  0
 34114  1  0  0  0
 35 44  2  0  0  0
 35 45  1  0  0  0
 35 68  1  0  0  0
 36 56  1  0  0  0
 36115  1  0  0  0
 37 39  1  0  0  0
 37 47  1  0  0  0
 37 66  1  0  0  0
 37116  1  0  0  0
 38 43  2  0  0  0
 38 46  1  0  0  0
 38 47  1  0  0  0
 39 64  1  0  0  0
 39 67  2  0  0  0
 40 52  1  0  0  0
 40 53  2  0  0  0
 40 58  1  0  0  0
 41117  1  0  0  0
 41118  1  0  0  0
 41119  1  0  0  0
 41 48  1  0  0  0
 42 43  1  0  0  0
 42 66  1  0  0  0
 42120  1  0  0  0
 42121  1  0  0  0
 43 44  1  0  0  0
 44122  1  0  0  0
 45 46  2  0  0  0
 45123  1  0  0  0
 46124  1  0  0  0
 47125  1  0  0  0
 47126  1  0  0  0
 48 56  1  0  0  0
 48 65  1  0  0  0
 48127  1  0  0  0
 49 50  1  0  0  0
 49 53  1  0  0  0
 49 64  1  0  0  0
 49128  1  0  0  0
 50 51  1  0  0  0
 50129  1  0  0  0
 50130  1  0  0  0
 51 52  1  0  0  0
 51131  1  0  0  0
 51132  1  0  0  0
 52133  1  0  0  0
 52134  1  0  0  0
 53 54  1  0  0  0
 54 55  2  0  0  0
 54135  1  0  0  0
 55 57  1  0  0  0
 55136  1  0  0  0
 56 69  2  0  0  0
 57 58  2  0  0  0
 57137  1  0  0  0
 58138  1  0  0  0
 59 60  1  0  0  0
 59 61  1  0  0  0
 59 62  1  0  0  0
 60139  1  0  0  0
 60140  1  0  0  0
 60141  1  0  0  0
 61142  1  0  0  0
 61143  1  0  0  0
 61144  1  0  0  0
 62145  1  0  0  0
 62146  1  0  0  0
 62147  1  0  0  0
 63 65  1  0  0  0
 63148  1  0  0  0
 63149  1  0  0  0
 63150  1  0  0  0
 64151  1  0  0  0
 65152  1  0  0  0
 68 90  1  0  0  0
 71 72  2  0  0  0
 71 74  1  0  0  0
 71153  1  0  0  0
 72 75  1  0  0  0
 72154  1  0  0  0
 73 74  2  0  0  0
 73 76  1  0  0  0
 73155  1  0  0  0
 74 85  1  0  0  0
 75 76  2  0  0  0
 75 84  1  0  0  0
 76 86  1  0  0  0
 77 78  1  0  0  0
 77 81  1  0  0  0
 77156  1  0  0  0
 77157  1  0  0  0
 78 85  1  0  0  0
 78158  1  0  0  0
 78159  1  0  0  0
 79 82  1  0  0  0
 79 84  1  0  0  0
 79160  1  0  0  0
 79161  1  0  0  0
 80 83  1  0  0  0
 80 84  1  0  0  0
 80162  1  0  0  0
 80163  1  0  0  0
 81 93  1  0  0  0
 81164  1  0  0  0
 81165  1  0  0  0
 82 92  1  0  0  0
 82166  1  0  0  0
 82167  1  0  0  0
 83 92  1  0  0  0
 83168  1  0  0  0
 83169  1  0  0  0
 84170  1  0  0  0
 85 93  1  0  0  0
 85171  1  0  0  0
 86172  1  0  0  0
 86173  1  0  0  0
 86174  1  0  0  0
 87 88  1  0  0  0
 87 91  1  0  0  0
 87175  1  0  0  0
 87176  1  0  0  0
 88177  1  0  0  0
 88178  1  0  0  0
 88 93  1  0  0  0
 89 90  1  0  0  0
 89179  1  0  0  0
 89180  1  0  0  0
 89 92  1  0  0  0
 90181  1  0  0  0
 90182  1  0  0  0
 91183  1  0  0  0
 92184  1  0  0  0
 93185  1  0  0  0
M  CHG  2  92   1  93   1
M  ISO  4   1 100  68 101  90 101  91 100
M  END
> <chiral flag>
0

> <version>
0

> <s_m_source_file>
/data/baiqing/PycharmProjects/Reinvent-master-3.2/result/LINK_invent/BTK/process_docking_weight1_custom_sum_contain_oxygen_bond_distance_aromatic_linkinvent_7_9_3/rearranged_h_0150.sdf

> <i_m_source_file_index>
9

> <r_mmod_Potential_Energy-OPLS-2005>
9.87247753143311

> <r_mmod_Stretch_Energy-OPLS-2005>
51.5094375610352

> <r_mmod_Bend_Energy-OPLS-2005>
234.407501220703

> <r_mmod_Torsional_Energy-OPLS-2005>
402.403137207031

> <r_mmod_Improper_Torsional_Energy-OPLS-2005>
8.96846866607666

> <r_mmod_Van_der_Waal_Energy-OPLS-2005>
174.331756591797

> <r_mmod_Electrostatic_Energy-OPLS-2005>
-79.1523513793945

> <r_mmod_Solvation_Energy-OPLS-2005>
-802.622436523438

> <b_mmod_Minimization_Converged-OPLS-2005>
0

> <r_mmod_RMS_Derivative-OPLS-2005>
9.24535942077637

$$$$
9
                    3D
 Structure written by MMmdl.
164173  0  0  1  0            999 V2000
  -30.5286  -14.9589   20.4073 C   0  0  0  0  0  0
  -30.4394  -12.5756   19.5481 C   0  0  0  0  0  0
  -29.5436  -12.5163   18.2889 C   0  0  0  0  0  0
  -28.0636  -12.3312   18.6757 C   0  0  0  0  0  0
  -27.6301  -13.2586   19.8434 C   0  0  2  0  0  0
  -28.6564  -13.2881   20.9938 C   0  0  0  0  0  0
  -25.2433  -13.8222   20.5740 C   0  0  0  0  0  0
  -24.1743  -13.0425   20.9217 C   0  0  0  0  0  0
  -24.6376  -11.6923   20.8740 C   0  0  0  0  0  0
  -23.9045  -10.4283   21.0402 C   0  0  0  0  0  0
  -24.3588   -9.4189   21.9180 C   0  0  0  0  0  0
  -23.6246   -8.2228   22.0754 C   0  0  0  0  0  0
  -22.4236   -8.0247   21.3548 C   0  0  0  0  0  0
  -21.9876   -9.0218   20.4667 C   0  0  0  0  0  0
  -22.7203  -10.2100   20.3069 C   0  0  0  0  0  0
  -21.6817   -6.0708   22.5260 C   0  0  0  0  0  0
  -21.4009   -6.5630   23.8193 C   0  0  0  0  0  0
  -21.3689   -5.6789   24.9156 C   0  0  0  0  0  0
  -21.6045   -4.3044   24.7214 C   0  0  0  0  0  0
  -21.8822   -3.8131   23.4337 C   0  0  0  0  0  0
  -21.9176   -4.6938   22.3388 C   0  0  0  0  0  0
  -22.7759  -13.5198   21.1852 C   0  0  0  0  0  0
  -22.1648   -4.2127   21.0955 F   0  0  0  0  0  0
  -21.5649   -3.4522   25.7739 F   0  0  0  0  0  0
  -29.9467  -13.6886   20.4160 N   0  0  0  0  0  0
  -26.2860  -12.9475   20.3214 N   0  0  0  0  0  0
  -25.9321  -11.6601   20.5733 N   0  0  0  0  0  0
  -22.0392  -12.8214   22.0428 N   0  0  0  0  0  0
  -25.4125  -15.1960   20.4294 N   0  0  0  0  0  0
  -31.7156  -15.0200   20.0671 O   0  0  0  0  0  0
  -21.6612   -6.8829   21.4235 O   0  0  0  0  0  0
  -22.3437  -14.5477   20.6648 O   0  0  0  0  0  0
  -24.6474  -31.8410   23.1841 C   0  0  0  0  0  0
  -25.9237  -32.4684   23.8252 C   0  0  1  0  0  0
  -27.2142  -27.0958   20.1758 C   0  0  0  0  0  0
  -25.5975  -33.8476   24.2193 N   0  0  0  0  0  0
  -23.4530  -30.4578   21.5310 C   0  0  2  0  0  0
  -24.9013  -28.8682   20.1201 C   0  0  0  0  0  0
  -22.7594  -29.4529   22.4847 C   0  0  0  0  0  0
  -18.0313  -28.1391   22.8462 C   0  0  0  0  0  0
  -24.1491  -36.7243   23.2632 C   0  0  0  0  0  0
  -26.0088  -30.7032   21.3846 C   0  0  0  0  0  0
  -26.0809  -29.3059   20.7360 C   0  0  0  0  0  0
  -27.2410  -28.4384   20.7409 C   0  0  0  0  0  0
  -26.0135  -26.7687   19.5111 C   0  0  0  0  0  0
  -24.8805  -27.6143   19.4898 C   0  0  0  0  0  0
  -23.6827  -29.7793   20.1546 C   0  0  0  0  0  0
  -25.4112  -36.3032   24.0331 C   0  0  1  0  0  0
  -20.5929  -28.3714   23.1221 C   0  0  2  0  0  0
  -20.6789  -26.9412   22.5397 C   0  0  0  0  0  0
  -19.5768  -26.6372   21.5192 C   0  0  0  0  0  0
  -18.1947  -26.7929   22.1602 C   0  0  0  0  0  0
  -19.1564  -28.8866   23.2838 C   0  0  0  0  0  0
  -18.9484  -30.1462   23.8869 C   0  0  0  0  0  0
  -17.6475  -30.6579   24.0547 C   0  0  0  0  0  0
  -25.9066  -34.9400   23.5070 C   0  0  0  0  0  0
  -16.5371  -29.9065   23.6330 C   0  0  0  0  0  0
  -16.7298  -28.6485   23.0357 C   0  0  0  0  0  0
  -26.4541  -31.6547   25.0695 C   0  0  0  0  0  0
  -25.3739  -31.3764   26.1424 C   0  0  0  0  0  0
  -27.0359  -30.2934   24.6259 C   0  0  0  0  0  0
  -27.6128  -32.4280   25.7436 C   0  0  0  0  0  0
  -27.5582  -37.1761   24.8457 C   0  0  0  0  0  0
  -21.4276  -29.3043   22.3597 N   0  0  0  0  0  0
  -26.4279  -37.3752   23.9424 N   0  0  0  0  0  0
  -24.7244  -31.0225   22.0902 N   0  0  0  0  0  0
  -23.4217  -28.8100   23.3035 O   0  0  0  0  0  0
  -28.2647  -26.0999   20.2172 O   0  0  0  0  0  0
  -26.5642  -34.8910   22.4643 O   0  0  0  0  0  0
  -23.5594  -32.1290   23.7055 O   0  0  0  0  0  0
  -29.3591  -18.8665   20.6812 C   0  0  0  0  0  0
  -29.6678  -18.8498   17.9710 C   0  0  0  0  0  0
  -29.1163  -20.1864   19.9995 C   0  0  0  0  0  0
  -29.2634  -20.0577   18.5893 C   0  0  0  0  0  0
  -29.7176  -17.5513   20.0535 C   0  0  0  0  0  0
  -29.8340  -17.6159   18.6451 C   0  0  0  0  0  0
  -28.1975  -21.5355   22.1486 C   0  0  0  0  0  0
  -27.0878  -21.4407   21.1409 C   0  0  0  0  0  0
  -28.5188  -21.6155   20.6626 C   0  0  0  0  0  0
  -28.8800  -21.1670   17.6293 C   0  0  0  0  0  0
  -30.3708  -23.4582   20.5095 C   0  0  0  0  0  0
  -29.3687  -16.3503   16.6708 C   0  0  0  0  0  0
  -28.0029  -24.5899   20.5694 C   0  0  0  0  0  0
  -28.9016  -23.1943   20.1610 C   0  0  2  0  0  0
  -29.7749  -16.1437   20.6868 N   0  0  0  0  0  0
  -30.0179  -16.4449   17.9367 O   0  0  0  0  0  0
  -31.4854  -12.7034   19.2625 H   0  0  0  0  0  0
  -30.4013  -11.6280   20.0889 H   0  0  0  0  0  0
  -29.8686  -11.7023   17.6373 H   0  0  0  0  0  0
  -29.6619  -13.4390   17.7205 H   0  0  0  0  0  0
  -27.9224  -11.2887   18.9586 H   0  0  0  0  0  0
  -27.4267  -12.4998   17.8064 H   0  0  0  0  0  0
  -27.5970  -14.2650   19.4219 H   0  0  0  0  0  0
  -28.7235  -12.3188   21.4889 H   0  0  0  0  0  0
  -28.3403  -13.9973   21.7609 H   0  0  0  0  0  0
  -25.2733   -9.5648   22.4764 H   0  0  0  0  0  0
  -23.9953   -7.4623   22.7476 H   0  0  0  0  0  0
  -21.0793   -8.8727   19.8972 H   0  0  0  0  0  0
  -22.3636  -10.9632   19.6184 H   0  0  0  0  0  0
  -21.2032   -7.6145   23.9703 H   0  0  0  0  0  0
  -21.1519   -6.0507   25.9064 H   0  0  0  0  0  0
  -22.0601   -2.7596   23.2822 H   0  0  0  0  0  0
  -22.3987  -11.9917   22.4889 H   0  0  0  0  0  0
  -21.1033  -13.1257   22.2665 H   0  0  0  0  0  0
  -24.6488  -15.8498   20.5571 H   0  0  0  0  0  0
  -26.2745  -15.6428   20.1427 H   0  0  0  0  0  0
  -26.7299  -32.5281   23.0967 H   0  0  0  0  0  0
  -25.0167  -33.9574   25.0386 H   0  0  0  0  0  0
  -22.7575  -31.2849   21.3696 H   0  0  0  0  0  0
  -23.3776  -35.9549   23.3252 H   0  0  0  0  0  0
  -24.3603  -36.8904   22.2055 H   0  0  0  0  0  0
  -23.7205  -37.6414   23.6678 H   0  0  0  0  0  0
  -26.1574  -31.4444   20.5993 H   0  0  0  0  0  0
  -26.8844  -30.7667   22.0203 H   0  0  0  0  0  0
  -28.1424  -28.7656   21.2392 H   0  0  0  0  0  0
  -25.9265  -25.8131   19.0127 H   0  0  0  0  0  0
  -23.9805  -27.2761   18.9942 H   0  0  0  0  0  0
  -23.8337  -30.5466   19.3947 H   0  0  0  0  0  0
  -22.7944  -29.2279   19.8403 H   0  0  0  0  0  0
  -25.1289  -36.1859   25.0824 H   0  0  0  0  0  0
  -21.0022  -28.3303   24.1344 H   0  0  0  0  0  0
  -20.5633  -26.2338   23.3620 H   0  0  0  0  0  0
  -21.6667  -26.7391   22.1239 H   0  0  0  0  0  0
  -19.6931  -25.6268   21.1247 H   0  0  0  0  0  0
  -19.6721  -27.3159   20.6701 H   0  0  0  0  0  0
  -17.4231  -26.6685   21.3991 H   0  0  0  0  0  0
  -18.0354  -26.0062   22.8991 H   0  0  0  0  0  0
  -19.7960  -30.7279   24.2239 H   0  0  0  0  0  0
  -17.5033  -31.6256   24.5148 H   0  0  0  0  0  0
  -15.5372  -30.2957   23.7651 H   0  0  0  0  0  0
  -15.8715  -28.0785   22.7096 H   0  0  0  0  0  0
  -24.5967  -30.7031   25.7782 H   0  0  0  0  0  0
  -24.8863  -32.2940   26.4710 H   0  0  0  0  0  0
  -25.8060  -30.9070   27.0273 H   0  0  0  0  0  0
  -26.2943  -29.6674   24.1284 H   0  0  0  0  0  0
  -27.3974  -29.7222   25.4810 H   0  0  0  0  0  0
  -27.8867  -30.4133   23.9560 H   0  0  0  0  0  0
  -27.2802  -33.3620   26.1960 H   0  0  0  0  0  0
  -28.3945  -32.6750   25.0246 H   0  0  0  0  0  0
  -28.0790  -31.8423   26.5360 H   0  0  0  0  0  0
  -28.2582  -38.0079   24.7555 H   0  0  0  0  0  0
  -28.1107  -36.2614   24.6223 H   0  0  0  0  0  0
  -27.2330  -37.1353   25.8870 H   0  0  0  0  0  0
  -20.9506  -29.8753   21.6762 H   0  0  0  0  0  0
  -26.0150  -38.2818   24.1462 H   0  0  0  0  0  0
  -29.2129  -18.8411   21.7494 H   0  0  0  0  0  0
  -29.7877  -18.8639   16.8986 H   0  0  0  0  0  0
  -28.4274  -20.6307   22.7052 H   0  0  0  0  0  0
  -28.2415  -22.4457   22.7417 H   0  0  0  0  0  0
  -26.4004  -22.2810   21.0840 H   0  0  0  0  0  0
  -26.6216  -20.4651   21.0159 H   0  0  0  0  0  0
  -28.6468  -20.7666   16.6417 H   0  0  0  0  0  0
  -29.6951  -21.8802   17.5116 H   0  0  0  0  0  0
  -27.9705  -21.6677   17.9581 H   0  0  0  0  0  0
  -31.0197  -22.6781   20.1081 H   0  0  0  0  0  0
  -30.5104  -23.4837   21.5902 H   0  0  0  0  0  0
  -30.7038  -24.4141   20.1049 H   0  0  0  0  0  0
  -29.2832  -15.3064   16.3723 H   0  0  0  0  0  0
  -29.9388  -16.8633   15.8948 H   0  0  0  0  0  0
  -28.3551  -16.7578   16.6984 H   0  0  0  0  0  0
  -27.9851  -24.6010   21.6606 H   0  0  0  0  0  0
  -26.9726  -24.3711   20.2922 H   0  0  0  0  0  0
  -28.8465  -23.2177   19.0824 H   0  0  0  0  0  0
  -28.9705  -15.9480   21.2614 H   0  0  0  0  0  0
  1 25  1  0  0  0
  1 30  2  0  0  0
  1 85  1  0  0  0
  2  3  1  0  0  0
  2 25  1  0  0  0
  2 87  1  0  0  0
  2 88  1  0  0  0
  3  4  1  0  0  0
  3 89  1  0  0  0
  3 90  1  0  0  0
  4  5  1  0  0  0
  4 91  1  0  0  0
  4 92  1  0  0  0
  5  6  1  0  0  0
  5 26  1  0  0  0
  5 93  1  0  0  0
  6 25  1  0  0  0
  6 94  1  0  0  0
  6 95  1  0  0  0
  7  8  2  0  0  0
  7 26  1  0  0  0
  7 29  1  0  0  0
  8  9  1  0  0  0
  8 22  1  0  0  0
  9 10  1  0  0  0
  9 27  2  0  0  0
 10 11  2  0  0  0
 10 15  1  0  0  0
 11 12  1  0  0  0
 11 96  1  0  0  0
 12 13  2  0  0  0
 12 97  1  0  0  0
 13 14  1  0  0  0
 13 31  1  0  0  0
 14 15  2  0  0  0
 14 98  1  0  0  0
 15 99  1  0  0  0
 16 17  2  0  0  0
 16 21  1  0  0  0
 16 31  1  0  0  0
 17 18  1  0  0  0
 17100  1  0  0  0
 18 19  2  0  0  0
 18101  1  0  0  0
 19 20  1  0  0  0
 19 24  1  0  0  0
 20 21  2  0  0  0
 20102  1  0  0  0
 21 23  1  0  0  0
 22 28  1  0  0  0
 22 32  2  0  0  0
 26 27  1  0  0  0
 28103  1  0  0  0
 28104  1  0  0  0
 29105  1  0  0  0
 29106  1  0  0  0
 33 34  1  0  0  0
 33 66  1  0  0  0
 33 70  2  0  0  0
 34 36  1  0  0  0
 34 59  1  0  0  0
 34107  1  0  0  0
 35 44  2  0  0  0
 35 45  1  0  0  0
 35 68  1  0  0  0
 36 56  1  0  0  0
 36108  1  0  0  0
 37 39  1  0  0  0
 37 47  1  0  0  0
 37 66  1  0  0  0
 37109  1  0  0  0
 38 43  2  0  0  0
 38 46  1  0  0  0
 38 47  1  0  0  0
 39 64  1  0  0  0
 39 67  2  0  0  0
 40 52  1  0  0  0
 40 53  2  0  0  0
 40 58  1  0  0  0
 41110  1  0  0  0
 41111  1  0  0  0
 41112  1  0  0  0
 41 48  1  0  0  0
 42 43  1  0  0  0
 42 66  1  0  0  0
 42113  1  0  0  0
 42114  1  0  0  0
 43 44  1  0  0  0
 44115  1  0  0  0
 45 46  2  0  0  0
 45116  1  0  0  0
 46117  1  0  0  0
 47118  1  0  0  0
 47119  1  0  0  0
 48 56  1  0  0  0
 48 65  1  0  0  0
 48120  1  0  0  0
 49 50  1  0  0  0
 49 53  1  0  0  0
 49 64  1  0  0  0
 49121  1  0  0  0
 50 51  1  0  0  0
 50122  1  0  0  0
 50123  1  0  0  0
 51 52  1  0  0  0
 51124  1  0  0  0
 51125  1  0  0  0
 52126  1  0  0  0
 52127  1  0  0  0
 53 54  1  0  0  0
 54 55  2  0  0  0
 54128  1  0  0  0
 55 57  1  0  0  0
 55129  1  0  0  0
 56 69  2  0  0  0
 57 58  2  0  0  0
 57130  1  0  0  0
 58131  1  0  0  0
 59 60  1  0  0  0
 59 61  1  0  0  0
 59 62  1  0  0  0
 60132  1  0  0  0
 60133  1  0  0  0
 60134  1  0  0  0
 61135  1  0  0  0
 61136  1  0  0  0
 61137  1  0  0  0
 62138  1  0  0  0
 62139  1  0  0  0
 62140  1  0  0  0
 63 65  1  0  0  0
 63141  1  0  0  0
 63142  1  0  0  0
 63143  1  0  0  0
 64144  1  0  0  0
 65145  1  0  0  0
 68 83  1  0  0  0
 71 73  2  0  0  0
 71 75  1  0  0  0
 71146  1  0  0  0
 72 74  2  0  0  0
 72 76  1  0  0  0
 72147  1  0  0  0
 73 74  1  0  0  0
 73 79  1  0  0  0
 74 80  1  0  0  0
 75 76  2  0  0  0
 75 85  1  0  0  0
 76 86  1  0  0  0
 77 78  1  0  0  0
 77 79  1  0  0  0
 77148  1  0  0  0
 77149  1  0  0  0
 78 79  1  0  0  0
 78150  1  0  0  0
 78151  1  0  0  0
 79 84  1  0  0  0
 80152  1  0  0  0
 80153  1  0  0  0
 80154  1  0  0  0
 81155  1  0  0  0
 81156  1  0  0  0
 81157  1  0  0  0
 81 84  1  0  0  0
 82 86  1  0  0  0
 82158  1  0  0  0
 82159  1  0  0  0
 82160  1  0  0  0
 83 84  1  0  0  0
 83161  1  0  0  0
 83162  1  0  0  0
 84163  1  0  0  0
 85164  1  0  0  0
M  ISO  4   1 100  68 101  83 101  85 100
M  END
> <chiral flag>
0

> <version>
0

> <s_m_source_file>
/data/baiqing/PycharmProjects/Reinvent-master-3.2/result/LINK_invent/BTK/process_docking_weight1_custom_sum_contain_oxygen_bond_distance_aromatic_linkinvent_7_9_3/rearranged_h_0150.sdf

> <i_m_source_file_index>
10

> <r_mmod_Potential_Energy-OPLS-2005>
643.684997558594

> <r_mmod_Stretch_Energy-OPLS-2005>
319.735168457031

> <r_mmod_Bend_Energy-OPLS-2005>
272.579223632812

> <r_mmod_Torsional_Energy-OPLS-2005>
319.300689697266

> <r_mmod_Improper_Torsional_Energy-OPLS-2005>
5.37916660308838

> <r_mmod_Van_der_Waal_Energy-OPLS-2005>
138.167129516602

> <r_mmod_Electrostatic_Energy-OPLS-2005>
-408.990264892578

> <r_mmod_Solvation_Energy-OPLS-2005>
-215.034515380859

> <b_mmod_Minimization_Converged-OPLS-2005>
0

> <r_mmod_RMS_Derivative-OPLS-2005>
4.21331453323364

$$$$
10
                    3D
 Structure written by MMmdl.
167176  0  0  1  0            999 V2000
  -30.7212  -14.5156   20.4778 C   0  0  0  0  0  0
  -30.4033  -12.3098   19.4450 C   0  0  0  0  0  0
  -29.4921  -12.4700   18.2135 C   0  0  0  0  0  0
  -28.0140  -12.3410   18.6271 C   0  0  0  0  0  0
  -27.6460  -13.2213   19.8527 C   0  0  2  0  0  0
  -28.6919  -13.1056   20.9816 C   0  0  0  0  0  0
  -25.2520  -13.8185   20.5668 C   0  0  0  0  0  0
  -24.1794  -13.0419   20.9159 C   0  0  0  0  0  0
  -24.6369  -11.6910   20.8706 C   0  0  0  0  0  0
  -23.9032  -10.4285   21.0376 C   0  0  0  0  0  0
  -24.3589   -9.4209   21.9177 C   0  0  0  0  0  0
  -23.6266   -8.2243   22.0768 C   0  0  0  0  0  0
  -22.4255   -8.0272   21.3544 C   0  0  0  0  0  0
  -21.9860   -9.0239   20.4649 C   0  0  0  0  0  0
  -22.7182  -10.2125   20.3046 C   0  0  0  0  0  0
  -21.6842   -6.0731   22.5275 C   0  0  0  0  0  0
  -21.4023   -6.5646   23.8212 C   0  0  0  0  0  0
  -21.3665   -5.6800   24.9175 C   0  0  0  0  0  0
  -21.6030   -4.3061   24.7226 C   0  0  0  0  0  0
  -21.8812   -3.8147   23.4350 C   0  0  0  0  0  0
  -21.9183   -4.6956   22.3402 C   0  0  0  0  0  0
  -22.7833  -13.5233   21.1819 C   0  0  0  0  0  0
  -22.1647   -4.2141   21.0982 F   0  0  0  0  0  0
  -21.5611   -3.4553   25.7741 F   0  0  0  0  0  0
  -30.0145  -13.3566   20.4002 N   0  0  0  0  0  0
  -26.2944  -12.9386   20.3280 N   0  0  0  0  0  0
  -25.9305  -11.6526   20.5732 N   0  0  0  0  0  0
  -22.0496  -12.8254   22.0405 N   0  0  0  0  0  0
  -25.4193  -15.1920   20.4147 N   0  0  0  0  0  0
  -31.9331  -14.5515   20.2570 O   0  0  0  0  0  0
  -21.6628   -6.8869   21.4240 O   0  0  0  0  0  0
  -22.3521  -14.5541   20.6675 O   0  0  0  0  0  0
  -24.6171  -31.8679   23.2053 C   0  0  0  0  0  0
  -25.9078  -32.4791   23.8367 C   0  0  1  0  0  0
  -27.2326  -27.4177   20.0971 C   0  0  0  0  0  0
  -25.5932  -33.8595   24.2308 N   0  0  0  0  0  0
  -23.4022  -30.4912   21.5446 C   0  0  2  0  0  0
  -24.8474  -28.9524   20.1131 C   0  0  0  0  0  0
  -22.7398  -29.4671   22.4940 C   0  0  0  0  0  0
  -18.0278  -28.1389   22.8493 C   0  0  0  0  0  0
  -24.1483  -36.7321   23.2637 C   0  0  0  0  0  0
  -25.9316  -30.8271   21.3606 C   0  0  0  0  0  0
  -26.0081  -29.4594   20.7099 C   0  0  0  0  0  0
  -27.1998  -28.6989   20.6994 C   0  0  0  0  0  0
  -26.0507  -26.9265   19.4972 C   0  0  0  0  0  0
  -24.8659  -27.6862   19.5039 C   0  0  0  0  0  0
  -23.6116  -29.8207   20.1594 C   0  0  0  0  0  0
  -25.4099  -36.3085   24.0335 C   0  0  1  0  0  0
  -20.5877  -28.3698   23.1299 C   0  0  2  0  0  0
  -20.6780  -26.9436   22.5405 C   0  0  0  0  0  0
  -19.5750  -26.6403   21.5203 C   0  0  0  0  0  0
  -18.1926  -26.7937   22.1622 C   0  0  0  0  0  0
  -19.1531  -28.8854   23.2905 C   0  0  0  0  0  0
  -18.9455  -30.1445   23.8923 C   0  0  0  0  0  0
  -17.6467  -30.6591   24.0576 C   0  0  0  0  0  0
  -25.9028  -34.9460   23.5105 C   0  0  0  0  0  0
  -16.5354  -29.9102   23.6325 C   0  0  0  0  0  0
  -16.7269  -28.6518   23.0344 C   0  0  0  0  0  0
  -26.4492  -31.6572   25.0705 C   0  0  0  0  0  0
  -25.3772  -31.3695   26.1459 C   0  0  0  0  0  0
  -27.0326  -30.2979   24.6143 C   0  0  0  0  0  0
  -27.6042  -32.4333   25.7479 C   0  0  0  0  0  0
  -27.5576  -37.1815   24.8459 C   0  0  0  0  0  0
  -21.4123  -29.3058   22.3684 N   0  0  0  0  0  0
  -26.4282  -37.3774   23.9397 N   0  0  0  0  0  0
  -24.6672  -31.0783   22.0941 N   0  0  0  0  0  0
  -23.4157  -28.8218   23.2999 O   0  0  0  0  0  0
  -28.4207  -26.7110   20.1145 O   0  0  0  0  0  0
  -26.5582  -34.8910   22.4665 O   0  0  0  0  0  0
  -23.5365  -32.1440   23.7439 O   0  0  0  0  0  0
  -27.5624  -20.1698   23.7539 C   0  0  0  0  0  0
  -27.3296  -22.4372   22.8957 C   0  0  0  0  0  0
  -28.4809  -20.7391   21.5743 C   0  0  0  0  0  0
  -27.0871  -21.4872   23.9128 C   0  0  0  0  0  0
  -28.2569  -19.7726   22.5954 C   0  0  0  0  0  0
  -28.0337  -22.0837   21.7167 C   0  0  0  0  0  0
  -26.3950  -21.8816   25.1876 C   0  0  0  0  0  0
  -31.2203  -17.4569   19.2326 C   0  0  0  0  0  0
  -31.2665  -17.6517   20.7438 C   0  0  0  0  0  0
  -30.2043  -16.3251   19.0175 C   0  0  0  0  0  0
  -30.1139  -16.7876   21.2743 C   0  0  1  0  0  0
  -28.8017  -17.6284   21.3640 C   0  0  0  0  0  0
  -28.4545  -25.3099   19.7727 C   0  0  0  0  0  0
  -27.9390  -24.3816   20.9028 C   0  0  0  0  0  0
  -29.9956  -15.6600   20.3178 N   0  0  0  0  0  0
  -25.4796  -22.8368   25.1000 N   0  0  0  0  0  0
  -28.7432  -18.4470   22.5760 N   0  0  0  0  0  0
  -26.6296  -21.3109   26.2523 O   0  0  0  0  0  0
  -28.3172  -23.0017   20.7104 O   0  0  0  0  0  0
  -31.4521  -12.3754   19.1496 H   0  0  0  0  0  0
  -30.2738  -11.3279   19.9006 H   0  0  0  0  0  0
  -29.7422  -11.7152   17.4663 H   0  0  0  0  0  0
  -29.6567  -13.4371   17.7385 H   0  0  0  0  0  0
  -27.8318  -11.2922   18.8597 H   0  0  0  0  0  0
  -27.3642  -12.5842   17.7857 H   0  0  0  0  0  0
  -27.6604  -14.2528   19.5034 H   0  0  0  0  0  0
  -28.6668  -12.1191   21.4482 H   0  0  0  0  0  0
  -28.4788  -13.8303   21.7689 H   0  0  0  0  0  0
  -25.2743   -9.5699   22.4737 H   0  0  0  0  0  0
  -23.9974   -7.4656   22.7509 H   0  0  0  0  0  0
  -21.0775   -8.8738   19.8988 H   0  0  0  0  0  0
  -22.3610  -10.9654   19.6160 H   0  0  0  0  0  0
  -21.2040   -7.6162   23.9712 H   0  0  0  0  0  0
  -21.1487   -6.0537   25.9070 H   0  0  0  0  0  0
  -22.0580   -2.7605   23.2849 H   0  0  0  0  0  0
  -22.4118  -11.9932   22.4815 H   0  0  0  0  0  0
  -21.1128  -13.1341   22.2590 H   0  0  0  0  0  0
  -24.6541  -15.8475   20.5319 H   0  0  0  0  0  0
  -26.2713  -15.6321   20.0924 H   0  0  0  0  0  0
  -26.7160  -32.5502   23.1135 H   0  0  0  0  0  0
  -25.0152  -33.9789   25.0501 H   0  0  0  0  0  0
  -22.6943  -31.3088   21.4018 H   0  0  0  0  0  0
  -23.3711  -35.9685   23.3294 H   0  0  0  0  0  0
  -24.3586  -36.8932   22.2044 H   0  0  0  0  0  0
  -23.7289  -37.6548   23.6652 H   0  0  0  0  0  0
  -26.0512  -31.5923   20.5915 H   0  0  0  0  0  0
  -26.8146  -30.8777   21.9851 H   0  0  0  0  0  0
  -28.0966  -29.0891   21.1608 H   0  0  0  0  0  0
  -26.0189  -25.9600   19.0179 H   0  0  0  0  0  0
  -23.9779  -27.2889   19.0341 H   0  0  0  0  0  0
  -23.7238  -30.5945   19.3981 H   0  0  0  0  0  0
  -22.7352  -29.2419   19.8612 H   0  0  0  0  0  0
  -25.1282  -36.1933   25.0825 H   0  0  0  0  0  0
  -20.9978  -28.3293   24.1421 H   0  0  0  0  0  0
  -20.5689  -26.2313   23.3602 H   0  0  0  0  0  0
  -21.6650  -26.7494   22.1186 H   0  0  0  0  0  0
  -19.6924  -25.6316   21.1225 H   0  0  0  0  0  0
  -19.6681  -27.3232   20.6744 H   0  0  0  0  0  0
  -17.4198  -26.6681   21.4035 H   0  0  0  0  0  0
  -18.0348  -26.0078   22.9022 H   0  0  0  0  0  0
  -19.7940  -30.7249   24.2312 H   0  0  0  0  0  0
  -17.5031  -31.6270   24.5185 H   0  0  0  0  0  0
  -15.5359  -30.3016   23.7640 H   0  0  0  0  0  0
  -15.8669  -28.0843   22.7054 H   0  0  0  0  0  0
  -24.5904  -30.7097   25.7794 H   0  0  0  0  0  0
  -24.9017  -32.2879   26.4929 H   0  0  0  0  0  0
  -25.8109  -30.8851   27.0217 H   0  0  0  0  0  0
  -27.3959  -29.7201   25.4662 H   0  0  0  0  0  0
  -26.2879  -29.6782   24.1143 H   0  0  0  0  0  0
  -27.8770  -30.4220   23.9357 H   0  0  0  0  0  0
  -27.2572  -33.3578   26.2115 H   0  0  0  0  0  0
  -28.3815  -32.6992   25.0316 H   0  0  0  0  0  0
  -28.0759  -31.8442   26.5361 H   0  0  0  0  0  0
  -28.2579  -38.0118   24.7466 H   0  0  0  0  0  0
  -28.1071  -36.2646   24.6305 H   0  0  0  0  0  0
  -27.2281  -37.1494   25.8857 H   0  0  0  0  0  0
  -20.9293  -29.8789   21.6920 H   0  0  0  0  0  0
  -26.0164  -38.2850   24.1399 H   0  0  0  0  0  0
  -27.3947  -19.4538   24.5466 H   0  0  0  0  0  0
  -26.9845  -23.4475   23.0506 H   0  0  0  0  0  0
  -29.0378  -20.4715   20.6890 H   0  0  0  0  0  0
  -30.9279  -18.3696   18.7135 H   0  0  0  0  0  0
  -32.2047  -17.1641   18.8625 H   0  0  0  0  0  0
  -31.1816  -18.7005   21.0329 H   0  0  0  0  0  0
  -32.2148  -17.2766   21.1317 H   0  0  0  0  0  0
  -30.5446  -15.6543   18.2249 H   0  0  0  0  0  0
  -29.2486  -16.7318   18.6870 H   0  0  0  0  0  0
  -30.3591  -16.4030   22.2677 H   0  0  0  0  0  0
  -27.9500  -16.9491   21.4005 H   0  0  0  0  0  0
  -28.6676  -18.2369   20.4679 H   0  0  0  0  0  0
  -27.9731  -25.1004   18.8166 H   0  0  0  0  0  0
  -29.5098  -25.0828   19.6127 H   0  0  0  0  0  0
  -26.8553  -24.4725   20.9744 H   0  0  0  0  0  0
  -28.3580  -24.7368   21.8452 H   0  0  0  0  0  0
  -25.2640  -23.2586   24.2086 H   0  0  0  0  0  0
  -24.9863  -23.1397   25.9268 H   0  0  0  0  0  0
  -28.5522  -17.9142   23.4205 H   0  0  0  0  0  0
  1 25  1  0  0  0
  1 30  2  0  0  0
  1 85  1  0  0  0
  2  3  1  0  0  0
  2 25  1  0  0  0
  2 90  1  0  0  0
  2 91  1  0  0  0
  3  4  1  0  0  0
  3 92  1  0  0  0
  3 93  1  0  0  0
  4  5  1  0  0  0
  4 94  1  0  0  0
  4 95  1  0  0  0
  5  6  1  0  0  0
  5 26  1  0  0  0
  5 96  1  0  0  0
  6 25  1  0  0  0
  6 97  1  0  0  0
  6 98  1  0  0  0
  7  8  2  0  0  0
  7 26  1  0  0  0
  7 29  1  0  0  0
  8  9  1  0  0  0
  8 22  1  0  0  0
  9 10  1  0  0  0
  9 27  2  0  0  0
 10 11  2  0  0  0
 10 15  1  0  0  0
 11 12  1  0  0  0
 11 99  1  0  0  0
 12 13  2  0  0  0
 12100  1  0  0  0
 13 14  1  0  0  0
 13 31  1  0  0  0
 14 15  2  0  0  0
 14101  1  0  0  0
 15102  1  0  0  0
 16 17  2  0  0  0
 16 21  1  0  0  0
 16 31  1  0  0  0
 17 18  1  0  0  0
 17103  1  0  0  0
 18 19  2  0  0  0
 18104  1  0  0  0
 19 20  1  0  0  0
 19 24  1  0  0  0
 20 21  2  0  0  0
 20105  1  0  0  0
 21 23  1  0  0  0
 22 28  1  0  0  0
 22 32  2  0  0  0
 26 27  1  0  0  0
 28106  1  0  0  0
 28107  1  0  0  0
 29108  1  0  0  0
 29109  1  0  0  0
 33 34  1  0  0  0
 33 66  1  0  0  0
 33 70  2  0  0  0
 34 36  1  0  0  0
 34 59  1  0  0  0
 34110  1  0  0  0
 35 44  2  0  0  0
 35 45  1  0  0  0
 35 68  1  0  0  0
 36 56  1  0  0  0
 36111  1  0  0  0
 37 39  1  0  0  0
 37 47  1  0  0  0
 37 66  1  0  0  0
 37112  1  0  0  0
 38 43  2  0  0  0
 38 46  1  0  0  0
 38 47  1  0  0  0
 39 64  1  0  0  0
 39 67  2  0  0  0
 40 52  1  0  0  0
 40 53  2  0  0  0
 40 58  1  0  0  0
 41113  1  0  0  0
 41114  1  0  0  0
 41115  1  0  0  0
 41 48  1  0  0  0
 42 43  1  0  0  0
 42 66  1  0  0  0
 42116  1  0  0  0
 42117  1  0  0  0
 43 44  1  0  0  0
 44118  1  0  0  0
 45 46  2  0  0  0
 45119  1  0  0  0
 46120  1  0  0  0
 47121  1  0  0  0
 47122  1  0  0  0
 48 56  1  0  0  0
 48 65  1  0  0  0
 48123  1  0  0  0
 49 50  1  0  0  0
 49 53  1  0  0  0
 49 64  1  0  0  0
 49124  1  0  0  0
 50 51  1  0  0  0
 50125  1  0  0  0
 50126  1  0  0  0
 51 52  1  0  0  0
 51127  1  0  0  0
 51128  1  0  0  0
 52129  1  0  0  0
 52130  1  0  0  0
 53 54  1  0  0  0
 54 55  2  0  0  0
 54131  1  0  0  0
 55 57  1  0  0  0
 55132  1  0  0  0
 56 69  2  0  0  0
 57 58  2  0  0  0
 57133  1  0  0  0
 58134  1  0  0  0
 59 60  1  0  0  0
 59 61  1  0  0  0
 59 62  1  0  0  0
 60135  1  0  0  0
 60136  1  0  0  0
 60137  1  0  0  0
 61138  1  0  0  0
 61139  1  0  0  0
 61140  1  0  0  0
 62141  1  0  0  0
 62142  1  0  0  0
 62143  1  0  0  0
 63 65  1  0  0  0
 63144  1  0  0  0
 63145  1  0  0  0
 63146  1  0  0  0
 64147  1  0  0  0
 65148  1  0  0  0
 68 83  1  0  0  0
 71 74  2  0  0  0
 71 75  1  0  0  0
 71149  1  0  0  0
 72 74  1  0  0  0
 72 76  2  0  0  0
 72150  1  0  0  0
 73 75  2  0  0  0
 73 76  1  0  0  0
 73151  1  0  0  0
 74 77  1  0  0  0
 75 87  1  0  0  0
 76 89  1  0  0  0
 77 86  1  0  0  0
 77 88  2  0  0  0
 78 79  1  0  0  0
 78 80  1  0  0  0
 78152  1  0  0  0
 78153  1  0  0  0
 79 81  1  0  0  0
 79154  1  0  0  0
 79155  1  0  0  0
 80 85  1  0  0  0
 80156  1  0  0  0
 80157  1  0  0  0
 81 82  1  0  0  0
 81 85  1  0  0  0
 81158  1  0  0  0
 82 87  1  0  0  0
 82159  1  0  0  0
 82160  1  0  0  0
 83 84  1  0  0  0
 83161  1  0  0  0
 83162  1  0  0  0
 84 89  1  0  0  0
 84163  1  0  0  0
 84164  1  0  0  0
 86165  1  0  0  0
 86166  1  0  0  0
 87167  1  0  0  0
M  ISO  4   1 100  68 101  83 101  85 100
M  END
> <chiral flag>
0

> <version>
0

> <s_m_source_file>
/data/baiqing/PycharmProjects/Reinvent-master-3.2/result/LINK_invent/BTK/process_docking_weight1_custom_sum_contain_oxygen_bond_distance_aromatic_linkinvent_7_9_3/rearranged_h_0150.sdf

> <i_m_source_file_index>
11

> <r_mmod_Potential_Energy-OPLS-2005>
60.4099540710449

> <r_mmod_Stretch_Energy-OPLS-2005>
45.4029579162598

> <r_mmod_Bend_Energy-OPLS-2005>
153.272445678711

> <r_mmod_Torsional_Energy-OPLS-2005>
360.559844970703

> <r_mmod_Improper_Torsional_Energy-OPLS-2005>
23.4941997528076

> <r_mmod_Van_der_Waal_Energy-OPLS-2005>
154.167343139648

> <r_mmod_Electrostatic_Energy-OPLS-2005>
-462.702301025391

> <r_mmod_Solvation_Energy-OPLS-2005>
-243.425796508789

> <b_mmod_Minimization_Converged-OPLS-2005>
0

> <r_mmod_RMS_Derivative-OPLS-2005>
3.59109473228455

$$$$
11
                    3D
 Structure written by MMmdl.
179189  0  0  1  0            999 V2000
  -30.7844  -14.3210   20.7172 C   0  0  0  0  0  0
  -30.4280  -12.2766   19.3869 C   0  0  0  0  0  0
  -29.4906  -12.5236   18.1894 C   0  0  0  0  0  0
  -28.0151  -12.3752   18.6069 C   0  0  0  0  0  0
  -27.6738  -13.1948   19.8801 C   0  0  2  0  0  0
  -28.7092  -12.9148   20.9928 C   0  0  0  0  0  0
  -25.2647  -13.8143   20.5642 C   0  0  0  0  0  0
  -24.1885  -13.0421   20.9161 C   0  0  0  0  0  0
  -24.6437  -11.6898   20.8740 C   0  0  0  0  0  0
  -23.9094  -10.4279   21.0408 C   0  0  0  0  0  0
  -24.3657   -9.4198   21.9173 C   0  0  0  0  0  0
  -23.6320   -8.2241   22.0743 C   0  0  0  0  0  0
  -22.4286   -8.0273   21.3547 C   0  0  0  0  0  0
  -21.9928   -9.0247   20.4644 C   0  0  0  0  0  0
  -22.7275  -10.2114   20.3054 C   0  0  0  0  0  0
  -21.6859   -6.0731   22.5292 C   0  0  0  0  0  0
  -21.4025   -6.5636   23.8228 C   0  0  0  0  0  0
  -21.3665   -5.6793   24.9193 C   0  0  0  0  0  0
  -21.6054   -4.3056   24.7240 C   0  0  0  0  0  0
  -21.8830   -3.8144   23.4363 C   0  0  0  0  0  0
  -21.9201   -4.6959   22.3417 C   0  0  0  0  0  0
  -22.7904  -13.5219   21.1812 C   0  0  0  0  0  0
  -22.1654   -4.2147   21.0986 F   0  0  0  0  0  0
  -21.5643   -3.4539   25.7754 F   0  0  0  0  0  0
  -30.0588  -13.2007   20.4667 N   0  0  0  0  0  0
  -26.3093  -12.9303   20.3383 N   0  0  0  0  0  0
  -25.9353  -11.6470   20.5763 N   0  0  0  0  0  0
  -22.0538  -12.8204   22.0368 N   0  0  0  0  0  0
  -25.4319  -15.1851   20.3980 N   0  0  0  0  0  0
  -31.7742  -14.6587   20.0549 O   0  0  0  0  0  0
  -21.6640   -6.8873   21.4255 O   0  0  0  0  0  0
  -22.3576  -14.5513   20.6661 O   0  0  0  0  0  0
  -24.6099  -31.8713   23.2155 C   0  0  0  0  0  0
  -25.9007  -32.4850   23.8436 C   0  0  1  0  0  0
  -27.2300  -27.4651   20.1024 C   0  0  0  0  0  0
  -25.5882  -33.8650   24.2369 N   0  0  0  0  0  0
  -23.3967  -30.4951   21.5555 C   0  0  2  0  0  0
  -24.8439  -28.9673   20.1163 C   0  0  0  0  0  0
  -22.7391  -29.4662   22.5025 C   0  0  0  0  0  0
  -18.0260  -28.1366   22.8500 C   0  0  0  0  0  0
  -24.1482  -36.7325   23.2638 C   0  0  0  0  0  0
  -25.9218  -30.8460   21.3650 C   0  0  0  0  0  0
  -26.0001  -29.4813   20.7175 C   0  0  0  0  0  0
  -27.1974  -28.7350   20.7131 C   0  0  0  0  0  0
  -26.0683  -26.9690   19.4749 C   0  0  0  0  0  0
  -24.8709  -27.7078   19.4932 C   0  0  0  0  0  0
  -23.6039  -29.8298   20.1685 C   0  0  0  0  0  0
  -25.4100  -36.3136   24.0349 C   0  0  1  0  0  0
  -20.5851  -28.3641   23.1340 C   0  0  2  0  0  0
  -20.6753  -26.9384   22.5425 C   0  0  0  0  0  0
  -19.5732  -26.6376   21.5218 C   0  0  0  0  0  0
  -18.1908  -26.7916   22.1627 C   0  0  0  0  0  0
  -19.1512  -28.8821   23.2914 C   0  0  0  0  0  0
  -18.9443  -30.1432   23.8916 C   0  0  0  0  0  0
  -17.6449  -30.6579   24.0565 C   0  0  0  0  0  0
  -25.9024  -34.9494   23.5155 C   0  0  0  0  0  0
  -16.5338  -29.9083   23.6325 C   0  0  0  0  0  0
  -16.7252  -28.6497   23.0349 C   0  0  0  0  0  0
  -26.4453  -31.6613   25.0741 C   0  0  0  0  0  0
  -25.3736  -31.3699   26.1503 C   0  0  0  0  0  0
  -27.0278  -30.3065   24.6078 C   0  0  0  0  0  0
  -27.6044  -32.4321   25.7493 C   0  0  0  0  0  0
  -27.5587  -37.1814   24.8464 C   0  0  0  0  0  0
  -21.4124  -29.3021   22.3760 N   0  0  0  0  0  0
  -26.4292  -37.3814   23.9422 N   0  0  0  0  0  0
  -24.6610  -31.0837   22.1048 N   0  0  0  0  0  0
  -23.4179  -28.8201   23.3051 O   0  0  0  0  0  0
  -28.3907  -26.7328   20.0997 O   0  0  0  0  0  0
  -26.5586  -34.8933   22.4715 O   0  0  0  0  0  0
  -23.5299  -32.1456   23.7568 O   0  0  0  0  0  0
  -28.9416  -21.2010   23.4400 C   0  0  0  0  0  0
  -29.1512  -19.9700   24.0895 C   0  0  0  0  0  0
  -31.2168  -19.6762   22.8437 C   0  0  0  0  0  0
  -29.8465  -21.6709   22.4588 C   0  0  0  0  0  0
  -30.2780  -19.1862   23.7736 C   0  0  0  0  0  0
  -31.0129  -20.9064   22.1857 C   0  0  0  0  0  0
  -30.0880  -24.2239   22.3776 C   0  0  0  0  0  0
  -28.0460  -23.1623   21.3785 C   0  0  0  0  0  0
  -29.8967  -25.4641   21.4792 C   0  0  0  0  0  0
  -27.8245  -24.3763   20.4656 C   0  0  0  0  0  0
  -29.8181  -15.3064   24.1479 C   0  0  0  0  0  0
  -28.9115  -16.9293   22.4623 C   0  0  0  0  0  0
  -30.8369  -14.8286   23.0923 C   0  0  0  0  0  0
  -30.0025  -16.4750   21.4810 C   0  0  0  0  0  0
  -29.5429  -22.9615   21.6864 C   0  0  2  0  0  0
  -29.3804  -16.7745   23.9308 C   0  0  0  0  0  0
  -28.4262  -25.6705   21.0584 C   0  0  2  0  0  0
  -32.0556  -21.3568   21.1742 C   0  0  0  0  0  0
  -30.5826  -17.8906   25.9195 C   0  0  0  0  0  0
  -30.4637  -17.8016   24.3881 C   0  0  2  0  0  0
  -30.3306  -15.0738   21.7359 N   0  0  0  0  0  0
  -31.4700  -12.3952   19.0841 H   0  0  0  0  0  0
  -30.3390  -11.2482   19.7412 H   0  0  0  0  0  0
  -29.7221  -11.8319   17.3782 H   0  0  0  0  0  0
  -29.6622  -13.5244   17.7925 H   0  0  0  0  0  0
  -27.8265  -11.3154   18.7841 H   0  0  0  0  0  0
  -27.3626  -12.6648   17.7809 H   0  0  0  0  0  0
  -27.7374  -14.2507   19.6131 H   0  0  0  0  0  0
  -28.6611  -11.8675   21.2960 H   0  0  0  0  0  0
  -28.4572  -13.4817   21.8884 H   0  0  0  0  0  0
  -25.2801   -9.5702   22.4742 H   0  0  0  0  0  0
  -24.0055   -7.4648   22.7465 H   0  0  0  0  0  0
  -21.0859   -8.8793   19.8929 H   0  0  0  0  0  0
  -22.3753  -10.9669   19.6179 H   0  0  0  0  0  0
  -21.2012   -7.6141   23.9739 H   0  0  0  0  0  0
  -21.1478   -6.0509   25.9102 H   0  0  0  0  0  0
  -22.0605   -2.7601   23.2871 H   0  0  0  0  0  0
  -22.4154  -11.9891   22.4794 H   0  0  0  0  0  0
  -21.1160  -13.1237   22.2555 H   0  0  0  0  0  0
  -24.6650  -15.8387   20.5117 H   0  0  0  0  0  0
  -26.2896  -15.6284   20.0931 H   0  0  0  0  0  0
  -26.7082  -32.5583   23.1214 H   0  0  0  0  0  0
  -25.0044  -33.9826   25.0522 H   0  0  0  0  0  0
  -22.6828  -31.3103   21.4204 H   0  0  0  0  0  0
  -23.3754  -35.9649   23.3300 H   0  0  0  0  0  0
  -24.3582  -36.8934   22.2054 H   0  0  0  0  0  0
  -23.7217  -37.6525   23.6642 H   0  0  0  0  0  0
  -26.0252  -31.6112   20.5938 H   0  0  0  0  0  0
  -26.8129  -30.9053   21.9782 H   0  0  0  0  0  0
  -28.0904  -29.1246   21.1819 H   0  0  0  0  0  0
  -26.0846  -26.0196   18.9609 H   0  0  0  0  0  0
  -23.9856  -27.3111   19.0160 H   0  0  0  0  0  0
  -23.7092  -30.6065   19.4103 H   0  0  0  0  0  0
  -22.7289  -29.2478   19.8736 H   0  0  0  0  0  0
  -25.1271  -36.2019   25.0843 H   0  0  0  0  0  0
  -20.9933  -28.3194   24.1466 H   0  0  0  0  0  0
  -20.5655  -26.2247   23.3603 H   0  0  0  0  0  0
  -21.6625  -26.7430   22.1223 H   0  0  0  0  0  0
  -19.6895  -25.6292   21.1231 H   0  0  0  0  0  0
  -19.6676  -27.3201   20.6760 H   0  0  0  0  0  0
  -17.4183  -26.6672   21.4022 H   0  0  0  0  0  0
  -18.0301  -26.0048   22.9010 H   0  0  0  0  0  0
  -19.7917  -30.7242   24.2299 H   0  0  0  0  0  0
  -17.5001  -31.6264   24.5157 H   0  0  0  0  0  0
  -15.5340  -30.2993   23.7633 H   0  0  0  0  0  0
  -15.8649  -28.0820   22.7060 H   0  0  0  0  0  0
  -24.5904  -30.7049   25.7844 H   0  0  0  0  0  0
  -24.8928  -32.2846   26.4983 H   0  0  0  0  0  0
  -25.8103  -30.8850   27.0244 H   0  0  0  0  0  0
  -26.2812  -29.6844   24.1124 H   0  0  0  0  0  0
  -27.4063  -29.7278   25.4514 H   0  0  0  0  0  0
  -27.8640  -30.4408   23.9212 H   0  0  0  0  0  0
  -27.2678  -33.3611   26.2109 H   0  0  0  0  0  0
  -28.3828  -32.6896   25.0297 H   0  0  0  0  0  0
  -28.0739  -31.8419   26.5374 H   0  0  0  0  0  0
  -28.2600  -38.0119   24.7541 H   0  0  0  0  0  0
  -28.1090  -36.2656   24.6252 H   0  0  0  0  0  0
  -27.2312  -37.1421   25.8867 H   0  0  0  0  0  0
  -20.9272  -29.8762   21.7006 H   0  0  0  0  0  0
  -26.0192  -38.2894   24.1437 H   0  0  0  0  0  0
  -28.0532  -21.7617   23.6893 H   0  0  0  0  0  0
  -28.4251  -19.6108   24.8056 H   0  0  0  0  0  0
  -32.0898  -19.0838   22.6046 H   0  0  0  0  0  0
  -29.5848  -24.3718   23.3343 H   0  0  0  0  0  0
  -31.1474  -24.1018   22.6037 H   0  0  0  0  0  0
  -27.6372  -22.2708   20.9006 H   0  0  0  0  0  0
  -27.4772  -23.3161   22.2960 H   0  0  0  0  0  0
  -30.5196  -25.3605   20.5899 H   0  0  0  0  0  0
  -30.2559  -26.3525   22.0002 H   0  0  0  0  0  0
  -26.7514  -24.4862   20.3220 H   0  0  0  0  0  0
  -28.2549  -24.1815   19.4829 H   0  0  0  0  0  0
  -30.2234  -15.1646   25.1489 H   0  0  0  0  0  0
  -28.9386  -14.6632   24.0993 H   0  0  0  0  0  0
  -28.0215  -16.3166   22.3051 H   0  0  0  0  0  0
  -28.5965  -17.9481   22.2359 H   0  0  0  0  0  0
  -31.0380  -13.7657   23.2469 H   0  0  0  0  0  0
  -31.7944  -15.3358   23.2189 H   0  0  0  0  0  0
  -30.8970  -17.0906   21.5732 H   0  0  0  0  0  0
  -29.6385  -16.5956   20.4581 H   0  0  0  0  0  0
  -30.0307  -22.8753   20.7152 H   0  0  0  0  0  0
  -28.5002  -16.9573   24.5477 H   0  0  0  0  0  0
  -27.8585  -25.9480   21.9502 H   0  0  0  0  0  0
  -32.9631  -20.7551   21.2397 H   0  0  0  0  0  0
  -32.3436  -22.3944   21.3415 H   0  0  0  0  0  0
  -31.6688  -21.2593   20.1598 H   0  0  0  0  0  0
  -31.3286  -18.6292   26.2115 H   0  0  0  0  0  0
  -30.8900  -16.9401   26.3543 H   0  0  0  0  0  0
  -29.6382  -18.1749   26.3820 H   0  0  0  0  0  0
  -31.4269  -17.4430   24.0278 H   0  0  0  0  0  0
  1 25  1  0  0  0
  1 30  2  0  0  0
  1 91  1  0  0  0
  2  3  1  0  0  0
  2 25  1  0  0  0
  2 92  1  0  0  0
  2 93  1  0  0  0
  3  4  1  0  0  0
  3 94  1  0  0  0
  3 95  1  0  0  0
  4  5  1  0  0  0
  4 96  1  0  0  0
  4 97  1  0  0  0
  5  6  1  0  0  0
  5 26  1  0  0  0
  5 98  1  0  0  0
  6 25  1  0  0  0
  6 99  1  0  0  0
  6100  1  0  0  0
  7  8  2  0  0  0
  7 26  1  0  0  0
  7 29  1  0  0  0
  8  9  1  0  0  0
  8 22  1  0  0  0
  9 10  1  0  0  0
  9 27  2  0  0  0
 10 11  2  0  0  0
 10 15  1  0  0  0
 11 12  1  0  0  0
 11101  1  0  0  0
 12 13  2  0  0  0
 12102  1  0  0  0
 13 14  1  0  0  0
 13 31  1  0  0  0
 14 15  2  0  0  0
 14103  1  0  0  0
 15104  1  0  0  0
 16 17  2  0  0  0
 16 21  1  0  0  0
 16 31  1  0  0  0
 17 18  1  0  0  0
 17105  1  0  0  0
 18 19  2  0  0  0
 18106  1  0  0  0
 19 20  1  0  0  0
 19 24  1  0  0  0
 20 21  2  0  0  0
 20107  1  0  0  0
 21 23  1  0  0  0
 22 28  1  0  0  0
 22 32  2  0  0  0
 26 27  1  0  0  0
 28108  1  0  0  0
 28109  1  0  0  0
 29110  1  0  0  0
 29111  1  0  0  0
 33 34  1  0  0  0
 33 66  1  0  0  0
 33 70  2  0  0  0
 34 36  1  0  0  0
 34 59  1  0  0  0
 34112  1  0  0  0
 35 44  2  0  0  0
 35 45  1  0  0  0
 35 68  1  0  0  0
 36 56  1  0  0  0
 36113  1  0  0  0
 37 39  1  0  0  0
 37 47  1  0  0  0
 37 66  1  0  0  0
 37114  1  0  0  0
 38 43  2  0  0  0
 38 46  1  0  0  0
 38 47  1  0  0  0
 39 64  1  0  0  0
 39 67  2  0  0  0
 40 52  1  0  0  0
 40 53  2  0  0  0
 40 58  1  0  0  0
 41115  1  0  0  0
 41116  1  0  0  0
 41117  1  0  0  0
 41 48  1  0  0  0
 42 43  1  0  0  0
 42 66  1  0  0  0
 42118  1  0  0  0
 42119  1  0  0  0
 43 44  1  0  0  0
 44120  1  0  0  0
 45 46  2  0  0  0
 45121  1  0  0  0
 46122  1  0  0  0
 47123  1  0  0  0
 47124  1  0  0  0
 48 56  1  0  0  0
 48 65  1  0  0  0
 48125  1  0  0  0
 49 50  1  0  0  0
 49 53  1  0  0  0
 49 64  1  0  0  0
 49126  1  0  0  0
 50 51  1  0  0  0
 50127  1  0  0  0
 50128  1  0  0  0
 51 52  1  0  0  0
 51129  1  0  0  0
 51130  1  0  0  0
 52131  1  0  0  0
 52132  1  0  0  0
 53 54  1  0  0  0
 54 55  2  0  0  0
 54133  1  0  0  0
 55 57  1  0  0  0
 55134  1  0  0  0
 56 69  2  0  0  0
 57 58  2  0  0  0
 57135  1  0  0  0
 58136  1  0  0  0
 59 60  1  0  0  0
 59 61  1  0  0  0
 59 62  1  0  0  0
 60137  1  0  0  0
 60138  1  0  0  0
 60139  1  0  0  0
 61140  1  0  0  0
 61141  1  0  0  0
 61142  1  0  0  0
 62143  1  0  0  0
 62144  1  0  0  0
 62145  1  0  0  0
 63 65  1  0  0  0
 63146  1  0  0  0
 63147  1  0  0  0
 63148  1  0  0  0
 64149  1  0  0  0
 65150  1  0  0  0
 68 87  1  0  0  0
 71 72  2  0  0  0
 71 74  1  0  0  0
 71151  1  0  0  0
 72 75  1  0  0  0
 72152  1  0  0  0
 73 75  2  0  0  0
 73 76  1  0  0  0
 73153  1  0  0  0
 74 76  2  0  0  0
 74 85  1  0  0  0
 75 90  1  0  0  0
 76 88  1  0  0  0
 77 79  1  0  0  0
 77 85  1  0  0  0
 77154  1  0  0  0
 77155  1  0  0  0
 78 80  1  0  0  0
 78 85  1  0  0  0
 78156  1  0  0  0
 78157  1  0  0  0
 79 87  1  0  0  0
 79158  1  0  0  0
 79159  1  0  0  0
 80 87  1  0  0  0
 80160  1  0  0  0
 80161  1  0  0  0
 81 83  1  0  0  0
 81162  1  0  0  0
 81163  1  0  0  0
 81 86  1  0  0  0
 82 84  1  0  0  0
 82 86  1  0  0  0
 82164  1  0  0  0
 82165  1  0  0  0
 83 91  1  0  0  0
 83166  1  0  0  0
 83167  1  0  0  0
 84 91  1  0  0  0
 84168  1  0  0  0
 84169  1  0  0  0
 85170  1  0  0  0
 86 90  1  0  0  0
 86171  1  0  0  0
 87172  1  0  0  0
 88173  1  0  0  0
 88174  1  0  0  0
 88175  1  0  0  0
 89176  1  0  0  0
 89177  1  0  0  0
 89178  1  0  0  0
 89 90  1  0  0  0
 90179  1  0  0  0
M  ISO  4   1 100  68 101  87 101  91 100
M  END
> <chiral flag>
0

> <version>
0

> <s_m_source_file>
/data/baiqing/PycharmProjects/Reinvent-master-3.2/result/LINK_invent/BTK/process_docking_weight1_custom_sum_contain_oxygen_bond_distance_aromatic_linkinvent_7_9_3/rearranged_h_0150.sdf

> <i_m_source_file_index>
12

> <r_mmod_Potential_Energy-OPLS-2005>
183.860580444336

> <r_mmod_Stretch_Energy-OPLS-2005>
36.7910957336426

> <r_mmod_Bend_Energy-OPLS-2005>
95.2898406982422

> <r_mmod_Torsional_Energy-OPLS-2005>
371.686706542969

> <r_mmod_Improper_Torsional_Energy-OPLS-2005>
4.47163867950439

> <r_mmod_Van_der_Waal_Energy-OPLS-2005>
161.229309082031

> <r_mmod_Electrostatic_Energy-OPLS-2005>
-317.536773681641

> <r_mmod_Solvation_Energy-OPLS-2005>
-175.616958618164

> <b_mmod_Minimization_Converged-OPLS-2005>
0

> <r_mmod_RMS_Derivative-OPLS-2005>
2.03183770179749

$$$$
12
                    3D
 Structure written by MMmdl.
178187  0  0  1  0            999 V2000
  -30.7329  -14.4546   20.5918 C   0  0  0  0  0  0
  -30.4185  -12.3075   19.4188 C   0  0  0  0  0  0
  -29.4898  -12.5067   18.2045 C   0  0  0  0  0  0
  -28.0126  -12.3699   18.6200 C   0  0  0  0  0  0
  -27.6619  -13.2108   19.8767 C   0  0  2  0  0  0
  -28.7051  -12.9985   20.9970 C   0  0  0  0  0  0
  -25.2582  -13.8175   20.5691 C   0  0  0  0  0  0
  -24.1838  -13.0444   20.9176 C   0  0  0  0  0  0
  -24.6398  -11.6913   20.8737 C   0  0  0  0  0  0
  -23.9067  -10.4298   21.0407 C   0  0  0  0  0  0
  -24.3618   -9.4211   21.9182 C   0  0  0  0  0  0
  -23.6291   -8.2247   22.0754 C   0  0  0  0  0  0
  -22.4273   -8.0287   21.3544 C   0  0  0  0  0  0
  -21.9916   -9.0258   20.4644 C   0  0  0  0  0  0
  -22.7245  -10.2135   20.3052 C   0  0  0  0  0  0
  -21.6850   -6.0736   22.5275 C   0  0  0  0  0  0
  -21.4014   -6.5642   23.8210 C   0  0  0  0  0  0
  -21.3658   -5.6793   24.9174 C   0  0  0  0  0  0
  -21.6046   -4.3056   24.7226 C   0  0  0  0  0  0
  -21.8820   -3.8148   23.4344 C   0  0  0  0  0  0
  -21.9195   -4.6963   22.3399 C   0  0  0  0  0  0
  -22.7861  -13.5238   21.1836 C   0  0  0  0  0  0
  -22.1663   -4.2152   21.0972 F   0  0  0  0  0  0
  -21.5629   -3.4539   25.7741 F   0  0  0  0  0  0
  -30.0367  -13.2944   20.4424 N   0  0  0  0  0  0
  -26.3027  -12.9353   20.3391 N   0  0  0  0  0  0
  -25.9327  -11.6507   20.5780 N   0  0  0  0  0  0
  -22.0498  -12.8227   22.0389 N   0  0  0  0  0  0
  -25.4298  -15.1893   20.4102 N   0  0  0  0  0  0
  -31.8401  -14.6384   20.0800 O   0  0  0  0  0  0
  -21.6634   -6.8884   21.4241 O   0  0  0  0  0  0
  -22.3548  -14.5547   20.6694 O   0  0  0  0  0  0
  -24.6151  -31.8679   23.2117 C   0  0  0  0  0  0
  -25.9036  -32.4813   23.8422 C   0  0  1  0  0  0
  -27.2300  -27.4250   20.0973 C   0  0  0  0  0  0
  -25.5885  -33.8619   24.2341 N   0  0  0  0  0  0
  -23.4025  -30.4944   21.5533 C   0  0  2  0  0  0
  -24.8467  -28.9620   20.1140 C   0  0  0  0  0  0
  -22.7401  -29.4669   22.4995 C   0  0  0  0  0  0
  -18.0264  -28.1373   22.8482 C   0  0  0  0  0  0
  -24.1485  -36.7334   23.2646 C   0  0  0  0  0  0
  -25.9330  -30.8313   21.3652 C   0  0  0  0  0  0
  -26.0086  -29.4658   20.7114 C   0  0  0  0  0  0
  -27.2018  -28.7065   20.6982 C   0  0  0  0  0  0
  -26.0454  -26.9441   19.4861 C   0  0  0  0  0  0
  -24.8604  -27.7007   19.4994 C   0  0  0  0  0  0
  -23.6096  -29.8302   20.1670 C   0  0  0  0  0  0
  -25.4099  -36.3114   24.0345 C   0  0  1  0  0  0
  -20.5853  -28.3660   23.1313 C   0  0  2  0  0  0
  -20.6758  -26.9406   22.5408 C   0  0  0  0  0  0
  -19.5744  -26.6387   21.5203 C   0  0  0  0  0  0
  -18.1916  -26.7918   22.1611 C   0  0  0  0  0  0
  -19.1514  -28.8829   23.2894 C   0  0  0  0  0  0
  -18.9449  -30.1434   23.8912 C   0  0  0  0  0  0
  -17.6457  -30.6589   24.0562 C   0  0  0  0  0  0
  -25.9027  -34.9469   23.5144 C   0  0  0  0  0  0
  -16.5340  -29.9093   23.6337 C   0  0  0  0  0  0
  -16.7252  -28.6504   23.0361 C   0  0  0  0  0  0
  -26.4469  -31.6592   25.0754 C   0  0  0  0  0  0
  -25.3743  -31.3655   26.1506 C   0  0  0  0  0  0
  -27.0318  -30.3046   24.6125 C   0  0  0  0  0  0
  -27.6038  -32.4316   25.7506 C   0  0  0  0  0  0
  -27.5582  -37.1817   24.8467 C   0  0  0  0  0  0
  -21.4126  -29.3034   22.3729 N   0  0  0  0  0  0
  -26.4291  -37.3796   23.9414 N   0  0  0  0  0  0
  -24.6692  -31.0789   22.1018 N   0  0  0  0  0  0
  -23.4175  -28.8208   23.3030 O   0  0  0  0  0  0
  -28.3971  -26.6807   20.1352 O   0  0  0  0  0  0
  -26.5604  -34.8918   22.4717 O   0  0  0  0  0  0
  -23.5346  -32.1434   23.7515 O   0  0  0  0  0  0
  -28.6863  -19.5165   24.1883 C   0  0  0  0  0  0
  -29.8544  -19.1000   22.1043 C   0  0  0  0  0  0
  -29.2299  -20.0138   22.9883 C   0  0  0  0  0  0
  -28.8084  -18.1610   24.5441 C   0  0  0  0  0  0
  -29.9655  -17.7181   22.4264 C   0  0  0  0  0  0
  -29.4843  -17.2571   23.6866 C   0  0  0  0  0  0
  -30.4310  -22.2586   23.2687 C   0  0  0  0  0  0
  -30.3777  -23.6403   22.5975 C   0  0  0  0  0  0
  -29.1806  -21.5375   22.7697 C   0  0  1  0  0  0
  -28.9779  -22.1540   21.3616 C   0  0  1  0  0  0
  -28.2300  -17.7114   25.8768 C   0  0  0  0  0  0
  -29.7205  -15.8235   24.1604 C   0  0  0  0  0  0
  -27.4061  -20.5005   20.1607 C   0  0  0  0  0  0
  -26.3876  -22.3115   21.5950 C   0  0  0  0  0  0
  -30.6822  -16.7935   21.4278 C   0  0  0  0  0  0
  -29.5309  -24.4714   20.3936 C   0  0  0  0  0  0
  -28.2780  -25.2597   19.9323 C   0  0  0  0  0  0
  -27.5845  -21.9287   20.7015 C   0  0  0  0  0  0
  -30.1094  -15.4504   21.2431 N   0  0  0  0  0  0
  -29.2870  -23.6012   21.5893 N   0  3  2  0  0  0
  -31.4617  -12.4011   19.1115 H   0  0  0  0  0  0
  -30.3170  -11.2975   19.8184 H   0  0  0  0  0  0
  -29.7258  -11.7794   17.4260 H   0  0  0  0  0  0
  -29.6600  -13.4910   17.7658 H   0  0  0  0  0  0
  -27.8204  -11.3144   18.8156 H   0  0  0  0  0  0
  -27.3616  -12.6474   17.7907 H   0  0  0  0  0  0
  -27.7061  -14.2585   19.5782 H   0  0  0  0  0  0
  -28.6789  -11.9663   21.3491 H   0  0  0  0  0  0
  -28.4664  -13.6091   21.8685 H   0  0  0  0  0  0
  -25.2761   -9.5688   22.4758 H   0  0  0  0  0  0
  -24.0003   -7.4640   22.7477 H   0  0  0  0  0  0
  -21.0848   -8.8773   19.8947 H   0  0  0  0  0  0
  -22.3703  -10.9673   19.6159 H   0  0  0  0  0  0
  -21.2004   -7.6152   23.9718 H   0  0  0  0  0  0
  -21.1479   -6.0520   25.9077 H   0  0  0  0  0  0
  -22.0602   -2.7612   23.2839 H   0  0  0  0  0  0
  -22.4111  -11.9879   22.4765 H   0  0  0  0  0  0
  -21.1113  -13.1246   22.2591 H   0  0  0  0  0  0
  -24.6654  -15.8463   20.5235 H   0  0  0  0  0  0
  -26.2885  -15.6308   20.1050 H   0  0  0  0  0  0
  -26.7101  -32.5519   23.1185 H   0  0  0  0  0  0
  -24.9974  -33.9780   25.0444 H   0  0  0  0  0  0
  -22.6905  -31.3110   21.4166 H   0  0  0  0  0  0
  -23.3738  -35.9680   23.3300 H   0  0  0  0  0  0
  -24.3581  -36.8980   22.2065 H   0  0  0  0  0  0
  -23.7252  -37.6541   23.6673 H   0  0  0  0  0  0
  -26.0473  -31.5931   20.5928 H   0  0  0  0  0  0
  -26.8219  -30.8852   21.9837 H   0  0  0  0  0  0
  -28.0971  -29.0921   21.1668 H   0  0  0  0  0  0
  -26.0084  -25.9857   18.9901 H   0  0  0  0  0  0
  -23.9670  -27.3089   19.0333 H   0  0  0  0  0  0
  -23.7161  -30.6066   19.4076 H   0  0  0  0  0  0
  -22.7326  -29.2509   19.8741 H   0  0  0  0  0  0
  -25.1274  -36.1984   25.0839 H   0  0  0  0  0  0
  -20.9933  -28.3232   24.1440 H   0  0  0  0  0  0
  -20.5664  -26.2273   23.3590 H   0  0  0  0  0  0
  -21.6629  -26.7446   22.1217 H   0  0  0  0  0  0
  -19.6914  -25.6304   21.1230 H   0  0  0  0  0  0
  -19.6694  -27.3190   20.6729 H   0  0  0  0  0  0
  -17.4189  -26.6649   21.4015 H   0  0  0  0  0  0
  -18.0326  -26.0059   22.9008 H   0  0  0  0  0  0
  -19.7930  -30.7224   24.2311 H   0  0  0  0  0  0
  -17.5026  -31.6279   24.5145 H   0  0  0  0  0  0
  -15.5348  -30.3011   23.7659 H   0  0  0  0  0  0
  -15.8640  -28.0832   22.7090 H   0  0  0  0  0  0
  -24.5930  -30.6983   25.7842 H   0  0  0  0  0  0
  -24.8905  -32.2774   26.5003 H   0  0  0  0  0  0
  -25.8128  -30.8799   27.0234 H   0  0  0  0  0  0
  -26.2875  -29.6775   24.1203 H   0  0  0  0  0  0
  -27.4134  -29.7307   25.4581 H   0  0  0  0  0  0
  -27.8680  -30.4402   23.9263 H   0  0  0  0  0  0
  -27.2682  -33.3629   26.2084 H   0  0  0  0  0  0
  -28.3843  -32.6856   25.0318 H   0  0  0  0  0  0
  -28.0709  -31.8438   26.5425 H   0  0  0  0  0  0
  -28.2580  -38.0129   24.7520 H   0  0  0  0  0  0
  -28.1103  -36.2658   24.6284 H   0  0  0  0  0  0
  -27.2302  -37.1461   25.8872 H   0  0  0  0  0  0
  -20.9282  -29.8766   21.6961 H   0  0  0  0  0  0
  -26.0185  -38.2883   24.1399 H   0  0  0  0  0  0
  -28.2013  -20.1964   24.8759 H   0  0  0  0  0  0
  -30.2767  -19.4641   21.1783 H   0  0  0  0  0  0
  -30.4670  -22.3211   24.3570 H   0  0  0  0  0  0
  -31.3257  -21.7284   22.9390 H   0  0  0  0  0  0
  -31.3458  -23.8554   22.1409 H   0  0  0  0  0  0
  -30.1770  -24.4294   23.3236 H   0  0  0  0  0  0
  -28.3620  -21.9041   23.3909 H   0  0  0  0  0  0
  -29.7510  -21.7625   20.6965 H   0  0  0  0  0  0
  -27.5793  -18.4717   26.3099 H   0  0  0  0  0  0
  -29.0292  -17.5144   26.5919 H   0  0  0  0  0  0
  -27.6373  -16.8041   25.7567 H   0  0  0  0  0  0
  -29.8155  -15.7583   25.2435 H   0  0  0  0  0  0
  -30.6514  -15.4127   23.7713 H   0  0  0  0  0  0
  -28.8954  -15.1793   23.8574 H   0  0  0  0  0  0
  -28.2394  -20.2077   19.5207 H   0  0  0  0  0  0
  -26.4976  -20.4198   19.5631 H   0  0  0  0  0  0
  -27.3280  -19.7679   20.9643 H   0  0  0  0  0  0
  -26.4827  -23.3132   22.0141 H   0  0  0  0  0  0
  -26.2668  -21.6156   22.4268 H   0  0  0  0  0  0
  -25.4577  -22.2907   21.0245 H   0  0  0  0  0  0
  -31.7195  -16.7032   21.7563 H   0  0  0  0  0  0
  -30.7158  -17.2780   20.4505 H   0  0  0  0  0  0
  -30.3137  -25.1993   20.6122 H   0  0  0  0  0  0
  -29.9175  -23.8682   19.5716 H   0  0  0  0  0  0
  -27.4000  -24.8820   20.4561 H   0  0  0  0  0  0
  -28.1179  -25.0774   18.8694 H   0  0  0  0  0  0
  -27.5465  -22.5664   19.8188 H   0  0  0  0  0  0
  -29.1913  -15.2743   21.6192 H   0  0  0  0  0  0
  -28.4916  -23.9901   22.0756 H   0  0  0  0  0  0
  1 25  1  0  0  0
  1 30  2  0  0  0
  1 89  1  0  0  0
  2  3  1  0  0  0
  2 25  1  0  0  0
  2 91  1  0  0  0
  2 92  1  0  0  0
  3  4  1  0  0  0
  3 93  1  0  0  0
  3 94  1  0  0  0
  4  5  1  0  0  0
  4 95  1  0  0  0
  4 96  1  0  0  0
  5  6  1  0  0  0
  5 26  1  0  0  0
  5 97  1  0  0  0
  6 25  1  0  0  0
  6 98  1  0  0  0
  6 99  1  0  0  0
  7  8  2  0  0  0
  7 26  1  0  0  0
  7 29  1  0  0  0
  8  9  1  0  0  0
  8 22  1  0  0  0
  9 10  1  0  0  0
  9 27  2  0  0  0
 10 11  2  0  0  0
 10 15  1  0  0  0
 11 12  1  0  0  0
 11100  1  0  0  0
 12 13  2  0  0  0
 12101  1  0  0  0
 13 14  1  0  0  0
 13 31  1  0  0  0
 14 15  2  0  0  0
 14102  1  0  0  0
 15103  1  0  0  0
 16 17  2  0  0  0
 16 21  1  0  0  0
 16 31  1  0  0  0
 17 18  1  0  0  0
 17104  1  0  0  0
 18 19  2  0  0  0
 18105  1  0  0  0
 19 20  1  0  0  0
 19 24  1  0  0  0
 20 21  2  0  0  0
 20106  1  0  0  0
 21 23  1  0  0  0
 22 28  1  0  0  0
 22 32  2  0  0  0
 26 27  1  0  0  0
 28107  1  0  0  0
 28108  1  0  0  0
 29109  1  0  0  0
 29110  1  0  0  0
 33 34  1  0  0  0
 33 66  1  0  0  0
 33 70  2  0  0  0
 34 36  1  0  0  0
 34 59  1  0  0  0
 34111  1  0  0  0
 35 44  2  0  0  0
 35 45  1  0  0  0
 35 68  1  0  0  0
 36 56  1  0  0  0
 36112  1  0  0  0
 37 39  1  0  0  0
 37 47  1  0  0  0
 37 66  1  0  0  0
 37113  1  0  0  0
 38 43  2  0  0  0
 38 46  1  0  0  0
 38 47  1  0  0  0
 39 64  1  0  0  0
 39 67  2  0  0  0
 40 52  1  0  0  0
 40 53  2  0  0  0
 40 58  1  0  0  0
 41114  1  0  0  0
 41115  1  0  0  0
 41116  1  0  0  0
 41 48  1  0  0  0
 42 43  1  0  0  0
 42 66  1  0  0  0
 42117  1  0  0  0
 42118  1  0  0  0
 43 44  1  0  0  0
 44119  1  0  0  0
 45 46  2  0  0  0
 45120  1  0  0  0
 46121  1  0  0  0
 47122  1  0  0  0
 47123  1  0  0  0
 48 56  1  0  0  0
 48 65  1  0  0  0
 48124  1  0  0  0
 49 50  1  0  0  0
 49 53  1  0  0  0
 49 64  1  0  0  0
 49125  1  0  0  0
 50 51  1  0  0  0
 50126  1  0  0  0
 50127  1  0  0  0
 51 52  1  0  0  0
 51128  1  0  0  0
 51129  1  0  0  0
 52130  1  0  0  0
 52131  1  0  0  0
 53 54  1  0  0  0
 54 55  2  0  0  0
 54132  1  0  0  0
 55 57  1  0  0  0
 55133  1  0  0  0
 56 69  2  0  0  0
 57 58  2  0  0  0
 57134  1  0  0  0
 58135  1  0  0  0
 59 60  1  0  0  0
 59 61  1  0  0  0
 59 62  1  0  0  0
 60136  1  0  0  0
 60137  1  0  0  0
 60138  1  0  0  0
 61139  1  0  0  0
 61140  1  0  0  0
 61141  1  0  0  0
 62142  1  0  0  0
 62143  1  0  0  0
 62144  1  0  0  0
 63 65  1  0  0  0
 63145  1  0  0  0
 63146  1  0  0  0
 63147  1  0  0  0
 64148  1  0  0  0
 65149  1  0  0  0
 68 87  1  0  0  0
 71 73  2  0  0  0
 71 74  1  0  0  0
 71150  1  0  0  0
 72 73  1  0  0  0
 72 75  2  0  0  0
 72151  1  0  0  0
 73 79  1  0  0  0
 74 76  2  0  0  0
 74 81  1  0  0  0
 75 76  1  0  0  0
 75 85  1  0  0  0
 76 82  1  0  0  0
 77 78  1  0  0  0
 77 79  1  0  0  0
 77152  1  0  0  0
 77153  1  0  0  0
 78 90  1  0  0  0
 78154  1  0  0  0
 78155  1  0  0  0
 79 80  1  0  0  0
 79156  1  0  0  0
 80 88  1  0  0  0
 80 90  1  0  0  0
 80157  1  0  0  0
 81158  1  0  0  0
 81159  1  0  0  0
 81160  1  0  0  0
 82161  1  0  0  0
 82162  1  0  0  0
 82163  1  0  0  0
 83164  1  0  0  0
 83165  1  0  0  0
 83166  1  0  0  0
 83 88  1  0  0  0
 84 88  1  0  0  0
 84167  1  0  0  0
 84168  1  0  0  0
 84169  1  0  0  0
 85 89  1  0  0  0
 85170  1  0  0  0
 85171  1  0  0  0
 86 87  1  0  0  0
 86172  1  0  0  0
 86173  1  0  0  0
 86 90  1  0  0  0
 87174  1  0  0  0
 87175  1  0  0  0
 88176  1  0  0  0
 89177  1  0  0  0
 90178  1  0  0  0
M  CHG  1  90   1
M  ISO  4   1 100  68 101  87 101  89 100
M  END
> <chiral flag>
0

> <version>
0

> <s_m_source_file>
/data/baiqing/PycharmProjects/Reinvent-master-3.2/result/LINK_invent/BTK/process_docking_weight1_custom_sum_contain_oxygen_bond_distance_aromatic_linkinvent_7_9_3/rearranged_h_0150.sdf

> <i_m_source_file_index>
13

> <r_mmod_Potential_Energy-OPLS-2005>
-66.7896270751953

> <r_mmod_Stretch_Energy-OPLS-2005>
43.9309158325195

> <r_mmod_Bend_Energy-OPLS-2005>
142.564224243164

> <r_mmod_Torsional_Energy-OPLS-2005>
290.048431396484

> <r_mmod_Improper_Torsional_Energy-OPLS-2005>
2.80815505981445

> <r_mmod_Van_der_Waal_Energy-OPLS-2005>
154.581909179688

> <r_mmod_Electrostatic_Energy-OPLS-2005>
-309.390228271484

> <r_mmod_Solvation_Energy-OPLS-2005>
-404.166534423828

> <b_mmod_Minimization_Converged-OPLS-2005>
0

> <r_mmod_RMS_Derivative-OPLS-2005>
1.59273087978363

$$$$
13
                    3D
 Structure written by MMmdl.
179189  0  0  1  0            999 V2000
  -30.7016  -14.3454   20.6954 C   0  0  0  0  0  0
  -30.4476  -12.2727   19.3763 C   0  0  0  0  0  0
  -29.5045  -12.5238   18.1836 C   0  0  0  0  0  0
  -28.0250  -12.3751   18.5943 C   0  0  0  0  0  0
  -27.6810  -13.1658   19.8837 C   0  0  2  0  0  0
  -28.7124  -12.8289   20.9830 C   0  0  0  0  0  0
  -25.2679  -13.7914   20.5468 C   0  0  0  0  0  0
  -24.1915  -13.0314   20.9178 C   0  0  0  0  0  0
  -24.6408  -11.6762   20.8745 C   0  0  0  0  0  0
  -23.9021  -10.4205   21.0447 C   0  0  0  0  0  0
  -24.3559   -9.4118   21.9240 C   0  0  0  0  0  0
  -23.6231   -8.2163   22.0811 C   0  0  0  0  0  0
  -22.4215   -8.0211   21.3587 C   0  0  0  0  0  0
  -21.9859   -9.0167   20.4676 C   0  0  0  0  0  0
  -22.7205  -10.2051   20.3090 C   0  0  0  0  0  0
  -21.6805   -6.0663   22.5292 C   0  0  0  0  0  0
  -21.3967   -6.5581   23.8223 C   0  0  0  0  0  0
  -21.3692   -5.6752   24.9198 C   0  0  0  0  0  0
  -21.6098   -4.3015   24.7258 C   0  0  0  0  0  0
  -21.8799   -3.8089   23.4381 C   0  0  0  0  0  0
  -21.9149   -4.6896   22.3418 C   0  0  0  0  0  0
  -22.7967  -13.5215   21.1847 C   0  0  0  0  0  0
  -22.1625   -4.2063   21.1002 F   0  0  0  0  0  0
  -21.5704   -3.4540   25.7808 F   0  0  0  0  0  0
  -30.0569  -13.1714   20.4695 N   0  0  0  0  0  0
  -26.3128  -12.9046   20.3313 N   0  0  0  0  0  0
  -25.9324  -11.6261   20.5708 N   0  0  0  0  0  0
  -22.0488  -12.8274   22.0353 N   0  0  0  0  0  0
  -25.4362  -15.1532   20.3428 N   0  0  0  0  0  0
  -31.7267  -14.6996   20.1042 O   0  0  0  0  0  0
  -21.6579   -6.8817   21.4271 O   0  0  0  0  0  0
  -22.3765  -14.5588   20.6734 O   0  0  0  0  0  0
  -24.6146  -31.8690   23.2183 C   0  0  0  0  0  0
  -25.9088  -32.4814   23.8427 C   0  0  1  0  0  0
  -27.2212  -27.4599   20.0575 C   0  0  0  0  0  0
  -25.5972  -33.8619   24.2357 N   0  0  0  0  0  0
  -23.3933  -30.5047   21.5593 C   0  0  2  0  0  0
  -24.8319  -28.9846   20.1177 C   0  0  0  0  0  0
  -22.7341  -29.4660   22.4991 C   0  0  0  0  0  0
  -18.0278  -28.1461   22.8391 C   0  0  0  0  0  0
  -24.1498  -36.7319   23.2614 C   0  0  0  0  0  0
  -25.9241  -30.8389   21.3731 C   0  0  0  0  0  0
  -25.9938  -29.4765   20.7212 C   0  0  0  0  0  0
  -27.1858  -28.7144   20.7071 C   0  0  0  0  0  0
  -26.0450  -27.0229   19.4007 C   0  0  0  0  0  0
  -24.8499  -27.7502   19.4606 C   0  0  0  0  0  0
  -23.5928  -29.8458   20.1709 C   0  0  0  0  0  0
  -25.4119  -36.3089   24.0303 C   0  0  1  0  0  0
  -20.5843  -28.3603   23.1327 C   0  0  2  0  0  0
  -20.6718  -26.9353   22.5439 C   0  0  0  0  0  0
  -19.5740  -26.6330   21.5197 C   0  0  0  0  0  0
  -18.1823  -26.8123   22.1331 C   0  0  0  0  0  0
  -19.1525  -28.8824   23.2969 C   0  0  0  0  0  0
  -18.9463  -30.1313   23.9236 C   0  0  0  0  0  0
  -17.6485  -30.6488   24.0890 C   0  0  0  0  0  0
  -25.9047  -34.9466   23.5095 C   0  0  0  0  0  0
  -16.5373  -29.9118   23.6406 C   0  0  0  0  0  0
  -16.7279  -28.6616   23.0280 C   0  0  0  0  0  0
  -26.4534  -31.6579   25.0737 C   0  0  0  0  0  0
  -25.3825  -31.3711   26.1500 C   0  0  0  0  0  0
  -27.0336  -30.2994   24.6122 C   0  0  0  0  0  0
  -27.6108  -32.4276   25.7511 C   0  0  0  0  0  0
  -27.5584  -37.1811   24.8460 C   0  0  0  0  0  0
  -21.4079  -29.2949   22.3699 N   0  0  0  0  0  0
  -26.4317  -37.3765   23.9375 N   0  0  0  0  0  0
  -24.6608  -31.0853   22.1079 N   0  0  0  0  0  0
  -23.4173  -28.8224   23.3010 O   0  0  0  0  0  0
  -28.4159  -26.7707   19.9932 O   0  0  0  0  0  0
  -26.5553  -34.8901   22.4631 O   0  0  0  0  0  0
  -23.5347  -32.1388   23.7681 O   0  0  0  0  0  0
  -24.5163  -18.7365   23.1242 C   0  0  0  0  0  0
  -24.7040  -17.2595   22.9291 C   0  0  0  0  0  0
  -29.0693  -18.4762   20.5133 C   0  0  0  0  0  0
  -30.0805  -17.3368   20.4259 C   0  0  0  0  0  0
  -27.0940  -20.7700   18.8611 C   0  0  0  0  0  0
  -26.2165  -22.1658   20.8246 C   0  0  0  0  0  0
  -28.6087  -16.8963   22.2957 C   0  0  0  0  0  0
  -26.1268  -19.7347   19.4610 C   0  0  0  0  0  0
  -26.6816  -20.9294   21.6076 C   0  0  0  0  0  0
  -25.9089  -18.1800   22.8738 C   0  0  0  0  0  0
  -28.2030  -18.2769   21.7674 C   0  0  2  0  0  0
  -30.0027  -16.5581   21.7438 C   0  0  1  0  0  0
  -26.8226  -22.1866   19.3968 C   0  0  1  0  0  0
  -27.7243  -24.4766   19.2891 C   0  0  0  0  0  0
  -28.4532  -25.3678   20.3091 C   0  0  0  0  0  0
  -26.6587  -18.4022   21.5584 C   0  0  2  0  0  0
  -30.0480  -15.1123   21.5754 N   0  0  0  0  0  0
  -26.1957  -19.6820   20.9528 N   0  3  2  0  0  0
  -28.0422  -23.0348   19.3468 N   0  3  0  0  0  0
  -31.4875  -12.4148   19.0734 H   0  0  0  0  0  0
  -30.3682  -11.2363   19.7093 H   0  0  0  0  0  0
  -29.7350  -11.8230   17.3797 H   0  0  0  0  0  0
  -29.6812  -13.5221   17.7784 H   0  0  0  0  0  0
  -27.8443  -11.3127   18.7525 H   0  0  0  0  0  0
  -27.3700  -12.6720   17.7748 H   0  0  0  0  0  0
  -27.7624  -14.2268   19.6520 H   0  0  0  0  0  0
  -28.6832  -11.7602   21.2091 H   0  0  0  0  0  0
  -28.4502  -13.3086   21.9248 H   0  0  0  0  0  0
  -25.2707   -9.5556   22.4817 H   0  0  0  0  0  0
  -23.9904   -7.4559   22.7561 H   0  0  0  0  0  0
  -21.0781   -8.8677   19.8995 H   0  0  0  0  0  0
  -22.3700  -10.9565   19.6161 H   0  0  0  0  0  0
  -21.1947   -7.6085   23.9709 H   0  0  0  0  0  0
  -21.1583   -6.0495   25.9104 H   0  0  0  0  0  0
  -22.0570   -2.7541   23.2918 H   0  0  0  0  0  0
  -22.3900  -11.9937   22.4901 H   0  0  0  0  0  0
  -21.1145  -13.1477   22.2431 H   0  0  0  0  0  0
  -24.5978  -15.7194   20.2758 H   0  0  0  0  0  0
  -26.2003  -15.4930   19.7734 H   0  0  0  0  0  0
  -26.7186  -32.5526   23.1200 H   0  0  0  0  0  0
  -25.0282  -33.9812   25.0605 H   0  0  0  0  0  0
  -22.6826  -31.3234   21.4334 H   0  0  0  0  0  0
  -23.3721  -35.9688   23.3279 H   0  0  0  0  0  0
  -24.3626  -36.8918   22.2035 H   0  0  0  0  0  0
  -23.7286  -37.6547   23.6613 H   0  0  0  0  0  0
  -26.0420  -31.6057   20.6054 H   0  0  0  0  0  0
  -26.8145  -30.8901   21.9865 H   0  0  0  0  0  0
  -28.0821  -29.0895   21.1822 H   0  0  0  0  0  0
  -26.0082  -26.1838   18.7346 H   0  0  0  0  0  0
  -23.9651  -27.3858   18.9539 H   0  0  0  0  0  0
  -23.6878  -30.6178   19.4063 H   0  0  0  0  0  0
  -22.7169  -29.2604   19.8858 H   0  0  0  0  0  0
  -25.1296  -36.1955   25.0794 H   0  0  0  0  0  0
  -20.9995  -28.3123   24.1420 H   0  0  0  0  0  0
  -20.5596  -26.2252   23.3637 H   0  0  0  0  0  0
  -21.6621  -26.7377   22.1314 H   0  0  0  0  0  0
  -19.6817  -25.6181   21.1340 H   0  0  0  0  0  0
  -19.6886  -27.3093   20.6707 H   0  0  0  0  0  0
  -17.4327  -26.7338   21.3434 H   0  0  0  0  0  0
  -17.9668  -26.0095   22.8422 H   0  0  0  0  0  0
  -19.7947  -30.6913   24.2969 H   0  0  0  0  0  0
  -17.5000  -31.6028   24.5778 H   0  0  0  0  0  0
  -15.5359  -30.3052   23.7633 H   0  0  0  0  0  0
  -15.8685  -28.1030   22.6816 H   0  0  0  0  0  0
  -24.6048  -30.6968   25.7908 H   0  0  0  0  0  0
  -24.8980  -32.2872   26.4881 H   0  0  0  0  0  0
  -25.8243  -30.8988   27.0286 H   0  0  0  0  0  0
  -26.2876  -29.6759   24.1163 H   0  0  0  0  0  0
  -27.4055  -29.7230   25.4618 H   0  0  0  0  0  0
  -27.8736  -30.4251   23.9285 H   0  0  0  0  0  0
  -27.2737  -33.3551   26.2137 H   0  0  0  0  0  0
  -28.3930  -32.6846   25.0370 H   0  0  0  0  0  0
  -28.0744  -31.8336   26.5402 H   0  0  0  0  0  0
  -28.2588  -38.0118   24.7492 H   0  0  0  0  0  0
  -28.1080  -36.2639   24.6291 H   0  0  0  0  0  0
  -27.2294  -37.1480   25.8864 H   0  0  0  0  0  0
  -20.9149  -29.8469   21.6824 H   0  0  0  0  0  0
  -26.0177  -38.2828   24.1376 H   0  0  0  0  0  0
  -24.3360  -19.1068   24.1307 H   0  0  0  0  0  0
  -23.9837  -19.2694   22.3369 H   0  0  0  0  0  0
  -24.3054  -16.8557   22.0015 H   0  0  0  0  0  0
  -24.6087  -16.6057   23.7941 H   0  0  0  0  0  0
  -28.4744  -18.4496   19.6078 H   0  0  0  0  0  0
  -29.5787  -19.4416   20.5530 H   0  0  0  0  0  0
  -31.0894  -17.6959   20.2295 H   0  0  0  0  0  0
  -29.7997  -16.7127   19.5750 H   0  0  0  0  0  0
  -27.0006  -20.7715   17.7743 H   0  0  0  0  0  0
  -28.1235  -20.4880   19.0641 H   0  0  0  0  0  0
  -26.4606  -23.0707   21.3801 H   0  0  0  0  0  0
  -25.1258  -22.1543   20.7638 H   0  0  0  0  0  0
  -27.8798  -16.1682   21.9294 H   0  0  0  0  0  0
  -28.5780  -16.8472   23.3850 H   0  0  0  0  0  0
  -26.2746  -18.7546   19.0045 H   0  0  0  0  0  0
  -25.1109  -20.0301   19.1948 H   0  0  0  0  0  0
  -26.3239  -20.9707   22.6398 H   0  0  0  0  0  0
  -27.7688  -20.9383   21.6612 H   0  0  0  0  0  0
  -26.5494  -18.1769   23.7541 H   0  0  0  0  0  0
  -28.5340  -19.0009   22.5151 H   0  0  0  0  0  0
  -30.7778  -16.9074   22.4268 H   0  0  0  0  0  0
  -26.0760  -22.6133   18.7222 H   0  0  0  0  0  0
  -27.8776  -24.8370   18.2733 H   0  0  0  0  0  0
  -26.6702  -24.5420   19.5244 H   0  0  0  0  0  0
  -29.5055  -25.0824   20.3444 H   0  0  0  0  0  0
  -28.0622  -25.1998   21.3152 H   0  0  0  0  0  0
  -26.3533  -17.6019   20.8853 H   0  0  0  0  0  0
  -29.3064  -14.6174   22.0452 H   0  0  0  0  0  0
  -25.2164  -19.6468   21.1976 H   0  0  0  0  0  0
  -28.5629  -22.8146   18.5105 H   0  0  0  0  0  0
  -28.6409  -22.8276   20.1322 H   0  0  0  0  0  0
  1 25  1  0  0  0
  1 30  2  0  0  0
  1 87  1  0  0  0
  2  3  1  0  0  0
  2 25  1  0  0  0
  2 90  1  0  0  0
  2 91  1  0  0  0
  3  4  1  0  0  0
  3 92  1  0  0  0
  3 93  1  0  0  0
  4  5  1  0  0  0
  4 94  1  0  0  0
  4 95  1  0  0  0
  5  6  1  0  0  0
  5 26  1  0  0  0
  5 96  1  0  0  0
  6 25  1  0  0  0
  6 97  1  0  0  0
  6 98  1  0  0  0
  7  8  2  0  0  0
  7 26  1  0  0  0
  7 29  1  0  0  0
  8  9  1  0  0  0
  8 22  1  0  0  0
  9 10  1  0  0  0
  9 27  2  0  0  0
 10 11  2  0  0  0
 10 15  1  0  0  0
 11 12  1  0  0  0
 11 99  1  0  0  0
 12 13  2  0  0  0
 12100  1  0  0  0
 13 14  1  0  0  0
 13 31  1  0  0  0
 14 15  2  0  0  0
 14101  1  0  0  0
 15102  1  0  0  0
 16 17  2  0  0  0
 16 21  1  0  0  0
 16 31  1  0  0  0
 17 18  1  0  0  0
 17103  1  0  0  0
 18 19  2  0  0  0
 18104  1  0  0  0
 19 20  1  0  0  0
 19 24  1  0  0  0
 20 21  2  0  0  0
 20105  1  0  0  0
 21 23  1  0  0  0
 22 28  1  0  0  0
 22 32  2  0  0  0
 26 27  1  0  0  0
 28106  1  0  0  0
 28107  1  0  0  0
 29108  1  0  0  0
 29109  1  0  0  0
 33 34  1  0  0  0
 33 66  1  0  0  0
 33 70  2  0  0  0
 34 36  1  0  0  0
 34 59  1  0  0  0
 34110  1  0  0  0
 35 44  2  0  0  0
 35 45  1  0  0  0
 35 68  1  0  0  0
 36 56  1  0  0  0
 36111  1  0  0  0
 37 39  1  0  0  0
 37 47  1  0  0  0
 37 66  1  0  0  0
 37112  1  0  0  0
 38 43  2  0  0  0
 38 46  1  0  0  0
 38 47  1  0  0  0
 39 64  1  0  0  0
 39 67  2  0  0  0
 40 52  1  0  0  0
 40 53  2  0  0  0
 40 58  1  0  0  0
 41113  1  0  0  0
 41114  1  0  0  0
 41115  1  0  0  0
 41 48  1  0  0  0
 42 43  1  0  0  0
 42 66  1  0  0  0
 42116  1  0  0  0
 42117  1  0  0  0
 43 44  1  0  0  0
 44118  1  0  0  0
 45 46  2  0  0  0
 45119  1  0  0  0
 46120  1  0  0  0
 47121  1  0  0  0
 47122  1  0  0  0
 48 56  1  0  0  0
 48 65  1  0  0  0
 48123  1  0  0  0
 49 50  1  0  0  0
 49 53  1  0  0  0
 49 64  1  0  0  0
 49124  1  0  0  0
 50 51  1  0  0  0
 50125  1  0  0  0
 50126  1  0  0  0
 51 52  1  0  0  0
 51127  1  0  0  0
 51128  1  0  0  0
 52129  1  0  0  0
 52130  1  0  0  0
 53 54  1  0  0  0
 54 55  2  0  0  0
 54131  1  0  0  0
 55 57  1  0  0  0
 55132  1  0  0  0
 56 69  2  0  0  0
 57 58  2  0  0  0
 57133  1  0  0  0
 58134  1  0  0  0
 59 60  1  0  0  0
 59 61  1  0  0  0
 59 62  1  0  0  0
 60135  1  0  0  0
 60136  1  0  0  0
 60137  1  0  0  0
 61138  1  0  0  0
 61139  1  0  0  0
 61140  1  0  0  0
 62141  1  0  0  0
 62142  1  0  0  0
 62143  1  0  0  0
 63 65  1  0  0  0
 63144  1  0  0  0
 63145  1  0  0  0
 63146  1  0  0  0
 64147  1  0  0  0
 65148  1  0  0  0
 68 85  1  0  0  0
 71 72  1  0  0  0
 71149  1  0  0  0
 71150  1  0  0  0
 71 80  1  0  0  0
 72 80  1  0  0  0
 72151  1  0  0  0
 72152  1  0  0  0
 73 74  1  0  0  0
 73153  1  0  0  0
 73154  1  0  0  0
 73 81  1  0  0  0
 74 82  1  0  0  0
 74155  1  0  0  0
 74156  1  0  0  0
 75 78  1  0  0  0
 75 83  1  0  0  0
 75157  1  0  0  0
 75158  1  0  0  0
 76 79  1  0  0  0
 76 83  1  0  0  0
 76159  1  0  0  0
 76160  1  0  0  0
 77 81  1  0  0  0
 77 82  1  0  0  0
 77161  1  0  0  0
 77162  1  0  0  0
 78163  1  0  0  0
 78164  1  0  0  0
 78 88  1  0  0  0
 79 88  1  0  0  0
 79165  1  0  0  0
 79166  1  0  0  0
 80167  1  0  0  0
 80 86  1  0  0  0
 81 86  1  0  0  0
 81168  1  0  0  0
 82 87  1  0  0  0
 82169  1  0  0  0
 83 89  1  0  0  0
 83170  1  0  0  0
 84 85  1  0  0  0
 84 89  1  0  0  0
 84171  1  0  0  0
 84172  1  0  0  0
 85173  1  0  0  0
 85174  1  0  0  0
 86 88  1  0  0  0
 86175  1  0  0  0
 87176  1  0  0  0
 88177  1  0  0  0
 89178  1  0  0  0
 89179  1  0  0  0
M  CHG  2  88   1  89   1
M  ISO  4   1 100  68 101  85 101  87 100
M  END
> <chiral flag>
0

> <version>
0

> <s_m_source_file>
/data/baiqing/PycharmProjects/Reinvent-master-3.2/result/LINK_invent/BTK/process_docking_weight1_custom_sum_contain_oxygen_bond_distance_aromatic_linkinvent_7_9_3/rearranged_h_0150.sdf

> <i_m_source_file_index>
14

> <r_mmod_Potential_Energy-OPLS-2005>
-33.8483543395996

> <r_mmod_Stretch_Energy-OPLS-2005>
36.2920722961426

> <r_mmod_Bend_Energy-OPLS-2005>
142.952972412109

> <r_mmod_Torsional_Energy-OPLS-2005>
426.317016601562

> <r_mmod_Improper_Torsional_Energy-OPLS-2005>
6.34753799438477

> <r_mmod_Van_der_Waal_Energy-OPLS-2005>
160.338195800781

> <r_mmod_Electrostatic_Energy-OPLS-2005>
140.46305847168

> <r_mmod_Solvation_Energy-OPLS-2005>
-961.18701171875

> <b_mmod_Minimization_Converged-OPLS-2005>
0

> <r_mmod_RMS_Derivative-OPLS-2005>
5.34309339523315

$$$$
14
                    3D
 Structure written by MMmdl.
180190  0  0  1  0            999 V2000
  -31.5671  -14.1111   20.9477 C   0  0  0  0  0  0
  -30.8608  -12.5036   19.1878 C   0  0  0  0  0  0
  -30.1678  -13.0822   17.9928 C   0  0  0  0  0  0
  -29.1544  -14.0640   18.6192 C   0  0  0  0  0  0
  -28.3952  -13.8234   20.3827 C   0  0  2  0  0  0
  -29.3673  -13.0295   21.0490 C   0  0  0  0  0  0
  -25.3303  -14.2089   20.9815 C   0  0  0  0  0  0
  -24.2385  -13.3706   21.1325 C   0  0  0  0  0  0
  -24.8519  -12.0731   21.1425 C   0  0  0  0  0  0
  -24.1189  -10.7033   21.1097 C   0  0  0  0  0  0
  -24.5481   -9.6975   21.9008 C   0  0  0  0  0  0
  -23.8349   -8.4526   22.0393 C   0  0  0  0  0  0
  -22.5967   -8.2532   21.3590 C   0  0  0  0  0  0
  -22.1804   -9.2795   20.5401 C   0  0  0  0  0  0
  -22.8973  -10.5014   20.3740 C   0  0  0  0  0  0
  -21.7959   -6.2025   22.5172 C   0  0  0  0  0  0
  -21.4689   -6.6610   23.8074 C   0  0  0  0  0  0
  -21.3589   -5.7411   24.8894 C   0  0  0  0  0  0
  -21.5952   -4.3768   24.6590 C   0  0  0  0  0  0
  -21.8867   -3.8950   23.3759 C   0  0  0  0  0  0
  -21.9703   -4.8167   22.2868 C   0  0  0  0  0  0
  -22.7139  -13.6113   21.2465 C   0  0  0  0  0  0
  -22.2057   -4.3312   21.0614 F   0  0  0  0  0  0
  -21.5270   -3.4824   25.7104 F   0  0  0  0  0  0
  -30.6556  -13.2191   20.4653 N   0  0  0  0  0  0
  -26.7427  -13.5862   21.0574 N   0  0  0  0  0  0
  -26.2553  -12.2348   21.2660 N   0  0  0  0  0  0
  -22.0252  -12.7496   22.0243 N   0  0  0  0  0  0
  -24.8584  -15.5968   20.8071 N   0  0  0  0  0  0
  -32.1053  -14.9926   20.3016 O   0  0  0  0  0  0
  -21.8494   -7.0626   21.4172 O   0  0  0  0  0  0
  -22.1781  -14.5605   20.7146 O   0  0  0  0  0  0
  -24.7809  -31.6564   23.0569 C   0  0  0  0  0  0
  -25.9810  -32.3681   23.7525 C   0  0  1  0  0  0
  -26.8046  -25.5620   20.2519 C   0  0  0  0  0  0
  -25.6031  -33.7561   24.1306 N   0  0  0  0  0  0
  -23.6168  -30.2353   21.4497 C   0  0  2  0  0  0
  -24.9961  -28.3496   20.1198 C   0  0  0  0  0  0
  -22.7986  -29.3662   22.4504 C   0  0  0  0  0  0
  -18.0373  -28.1440   22.8443 C   0  0  0  0  0  0
  -24.1456  -36.6562   23.2732 C   0  0  0  0  0  0
  -26.2028  -29.9702   21.5096 C   0  0  0  0  0  0
  -26.1540  -28.4245   20.8592 C   0  0  0  0  0  0
  -27.0331  -27.0979   20.9168 C   0  0  0  0  0  0
  -25.7050  -25.9712   19.4230 C   0  0  0  0  0  0
  -24.8659  -27.1438   19.3613 C   0  0  0  0  0  0
  -23.8729  -29.4519   20.1173 C   0  0  0  0  0  0
  -25.4193  -36.2370   24.0247 C   0  0  1  0  0  0
  -20.6050  -28.3765   23.0968 C   0  0  2  0  0  0
  -20.6751  -26.9334   22.5412 C   0  0  0  0  0  0
  -19.5732  -26.6324   21.5218 C   0  0  0  0  0  0
  -18.1950  -26.7941   22.1662 C   0  0  0  0  0  0
  -19.1678  -28.8959   23.2666 C   0  0  0  0  0  0
  -18.9620  -30.1558   23.8694 C   0  0  0  0  0  0
  -17.6613  -30.6640   24.0522 C   0  0  0  0  0  0
  -25.9296  -34.8825   23.4744 C   0  0  0  0  0  0
  -16.5482  -29.9111   23.6417 C   0  0  0  0  0  0
  -16.7361  -28.6534   23.0432 C   0  0  0  0  0  0
  -26.4702  -31.6068   25.0506 C   0  0  0  0  0  0
  -25.3450  -31.3505   26.0831 C   0  0  0  0  0  0
  -27.0776  -30.2327   24.7115 C   0  0  0  0  0  0
  -27.6058  -32.4038   25.7375 C   0  0  0  0  0  0
  -27.5481  -37.1422   24.8548 C   0  0  0  0  0  0
  -21.4610  -29.2736   22.3077 N   0  0  0  0  0  0
  -26.4180  -37.3293   23.9479 N   0  0  0  0  0  0
  -24.9005  -30.6954   22.0617 N   0  0  0  0  0  0
  -23.4013  -28.7600   23.3411 O   0  0  0  0  0  0
  -27.3322  -23.8735   20.2612 O   0  0  0  0  0  0
  -26.6182  -34.8654   22.4531 O   0  0  0  0  0  0
  -23.6545  -32.0365   23.4906 O   0  0  0  0  0  0
  -27.6032  -18.1652   20.8049 C   0  0  0  0  0  0
  -27.7669  -16.6219   20.7048 C   0  0  0  0  0  0
  -27.1179  -15.7687   19.4807 C   0  0  0  0  0  0
  -26.3640  -16.8048   18.6258 C   0  0  0  0  0  0
  -26.9952  -19.5162   19.9007 C   0  0  0  0  0  0
  -26.4258  -18.3328   18.9286 C   0  0  0  0  0  0
  -26.6916  -13.7693   18.6643 C   0  0  0  0  0  0
  -25.7098  -15.6061   17.5033 C   0  0  0  0  0  0
  -26.1661  -12.9904   17.4903 C   0  0  0  0  0  0
  -25.1500  -14.0461   17.6301 C   0  0  0  0  0  0
  -30.3200  -17.1991   22.2762 C   0  0  0  0  0  0
  -28.9359  -16.0046   23.8187 C   0  0  0  0  0  0
  -31.6780  -16.9129   23.2459 C   0  0  0  0  0  0
  -30.3017  -15.4500   24.7188 C   0  0  0  0  0  0
  -28.9922  -16.2645   22.1499 C   0  0  1  0  0  0
  -25.7227  -18.2423   16.7161 C   0  0  0  0  0  0
  -26.8393  -21.6881   20.0206 C   0  0  0  0  0  0
  -33.1769  -14.1392   23.0647 C   0  0  0  0  0  0
  -32.7757  -14.8884   24.3859 C   0  0  0  0  0  0
  -32.0423  -13.7007   22.2066 N   0  0  0  0  0  0
  -31.6743  -15.9103   24.3383 N   0  3  1  0  0  0
  -25.7956  -18.9284   17.9190 O   0  0  0  0  0  0
  -31.9441  -12.5237   18.9000 H   0  0  0  0  0  0
  -30.5662  -11.4680   19.2991 H   0  0  0  0  0  0
  -29.8092  -12.4866   17.1874 H   0  0  0  0  0  0
  -30.9026  -13.7032   17.4761 H   0  0  0  0  0  0
  -28.4544  -14.3302   17.6286 H   0  0  0  0  0  0
  -29.5309  -15.0484   18.1788 H   0  0  0  0  0  0
  -29.0114  -14.7210   20.2834 H   0  0  0  0  0  0
  -28.7750  -12.2903   20.5371 H   0  0  0  0  0  0
  -29.1229  -13.5512   21.9746 H   0  0  0  0  0  0
  -25.4874   -9.9047   22.4039 H   0  0  0  0  0  0
  -24.3359   -7.7308   22.6292 H   0  0  0  0  0  0
  -21.2295   -9.1829   19.9680 H   0  0  0  0  0  0
  -22.4826  -11.2760   19.7322 H   0  0  0  0  0  0
  -21.3003   -7.7024   23.9849 H   0  0  0  0  0  0
  -21.1003   -6.0928   25.8553 H   0  0  0  0  0  0
  -22.0480   -2.8587   23.1769 H   0  0  0  0  0  0
  -22.5739  -11.9758   22.2232 H   0  0  0  0  0  0
  -21.0433  -12.7438   22.1849 H   0  0  0  0  0  0
  -25.0580  -16.5909   21.0910 H   0  0  0  0  0  0
  -23.8566  -15.7745   20.4025 H   0  0  0  0  0  0
  -26.8030  -32.3967   23.0293 H   0  0  0  0  0  0
  -24.9525  -33.8391   24.9008 H   0  0  0  0  0  0
  -23.0088  -31.1049   21.1936 H   0  0  0  0  0  0
  -23.3913  -35.8690   23.3275 H   0  0  0  0  0  0
  -24.3440  -36.8408   22.2164 H   0  0  0  0  0  0
  -23.7015  -37.5557   23.7004 H   0  0  0  0  0  0
  -26.5418  -30.6213   20.7015 H   0  0  0  0  0  0
  -27.0182  -30.0200   22.2056 H   0  0  0  0  0  0
  -27.8312  -27.0911   21.6198 H   0  0  0  0  0  0
  -25.3425  -25.1469   18.8162 H   0  0  0  0  0  0
  -24.0255  -27.0651   18.7228 H   0  0  0  0  0  0
  -24.0875  -30.1510   19.3136 H   0  0  0  0  0  0
  -22.9526  -28.9496   19.8280 H   0  0  0  0  0  0
  -25.1480  -36.0919   25.0730 H   0  0  0  0  0  0
  -21.0134  -28.3469   24.1105 H   0  0  0  0  0  0
  -20.5528  -26.2390   23.3749 H   0  0  0  0  0  0
  -21.6599  -26.7121   22.1278 H   0  0  0  0  0  0
  -19.6847  -25.6230   21.1264 H   0  0  0  0  0  0
  -19.6689  -27.3125   20.6743 H   0  0  0  0  0  0
  -17.4178  -26.6671   21.4120 H   0  0  0  0  0  0
  -18.0368  -26.0149   22.9126 H   0  0  0  0  0  0
  -19.8136  -30.7411   24.1919 H   0  0  0  0  0  0
  -17.5214  -31.6317   24.5125 H   0  0  0  0  0  0
  -15.5487  -30.2982   23.7868 H   0  0  0  0  0  0
  -15.8761  -28.0806   22.7261 H   0  0  0  0  0  0
  -24.5679  -30.7008   25.6749 H   0  0  0  0  0  0
  -24.8620  -32.2738   26.4027 H   0  0  0  0  0  0
  -25.7227  -30.8496   26.9751 H   0  0  0  0  0  0
  -26.3595  -29.5567   24.2451 H   0  0  0  0  0  0
  -27.4079  -29.7185   25.6154 H   0  0  0  0  0  0
  -27.9651  -30.3212   24.0831 H   0  0  0  0  0  0
  -27.2582  -33.3437   26.1645 H   0  0  0  0  0  0
  -28.4007  -32.6344   25.0267 H   0  0  0  0  0  0
  -28.0582  -31.8302   26.5485 H   0  0  0  0  0  0
  -28.2431  -37.9780   24.7693 H   0  0  0  0  0  0
  -28.1049  -36.2302   24.6346 H   0  0  0  0  0  0
  -27.2158  -37.0934   25.8932 H   0  0  0  0  0  0
  -21.0204  -29.7734   21.5506 H   0  0  0  0  0  0
  -25.9873  -38.2256   24.1608 H   0  0  0  0  0  0
  -27.9548  -18.4176   21.7495 H   0  0  0  0  0  0
  -26.7354  -12.7640   19.1478 H   0  0  0  0  0  0
  -27.3841  -12.8856   18.6579 H   0  0  0  0  0  0
  -26.5267  -15.3677   16.7705 H   0  0  0  0  0  0
  -24.8456  -15.8400   17.0333 H   0  0  0  0  0  0
  -25.9491  -11.8581   17.6833 H   0  0  0  0  0  0
  -26.9344  -12.8356   16.7200 H   0  0  0  0  0  0
  -24.4682  -13.6440   16.9066 H   0  0  0  0  0  0
  -24.5921  -13.7803   18.5644 H   0  0  0  0  0  0
  -30.7557  -17.2559   21.3025 H   0  0  0  0  0  0
  -30.0211  -18.1691   22.5787 H   0  0  0  0  0  0
  -28.7137  -16.9253   24.3497 H   0  0  0  0  0  0
  -28.1983  -15.2954   24.1819 H   0  0  0  0  0  0
  -31.9124  -17.8460   23.7656 H   0  0  0  0  0  0
  -32.5878  -16.8357   22.6727 H   0  0  0  0  0  0
  -30.3490  -14.3790   24.8131 H   0  0  0  0  0  0
  -30.2541  -15.7202   25.7653 H   0  0  0  0  0  0
  -29.6110  -15.4363   22.0176 H   0  0  0  0  0  0
  -24.7770  -17.7216   16.7082 H   0  0  0  0  0  0
  -26.5954  -17.5551   16.4904 H   0  0  0  0  0  0
  -25.7284  -18.9240   15.8603 H   0  0  0  0  0  0
  -25.9200  -21.5212   20.6053 H   0  0  0  0  0  0
  -26.6443  -21.5823   18.9328 H   0  0  0  0  0  0
  -33.9273  -14.6786   22.4877 H   0  0  0  0  0  0
  -33.7522  -13.2097   23.3148 H   0  0  0  0  0  0
  -33.6927  -15.2542   24.9204 H   0  0  0  0  0  0
  -32.5701  -14.1204   25.1786 H   0  0  0  0  0  0
  -31.6590  -12.8175   22.4867 H   0  0  0  0  0  0
  -31.9988  -16.4377   25.1457 H   0  0  0  0  0  0
  1 25  1  0  0  0
  1 30  2  0  0  0
  1 90  1  0  0  0
  2  3  1  0  0  0
  2 25  1  0  0  0
  2 93  1  0  0  0
  2 94  1  0  0  0
  3  4  1  0  0  0
  3 95  1  0  0  0
  3 96  1  0  0  0
  4  5  1  0  0  0
  4 97  1  0  0  0
  4 98  1  0  0  0
  5  6  1  0  0  0
  5 26  1  0  0  0
  5 99  1  0  0  0
  6 25  1  0  0  0
  6100  1  0  0  0
  6101  1  0  0  0
  7  8  2  0  0  0
  7 26  1  0  0  0
  7 29  1  0  0  0
  8  9  1  0  0  0
  8 22  1  0  0  0
  9 10  1  0  0  0
  9 27  2  0  0  0
 10 11  2  0  0  0
 10 15  1  0  0  0
 11 12  1  0  0  0
 11102  1  0  0  0
 12 13  2  0  0  0
 12103  1  0  0  0
 13 14  1  0  0  0
 13 31  1  0  0  0
 14 15  2  0  0  0
 14104  1  0  0  0
 15105  1  0  0  0
 16 17  2  0  0  0
 16 21  1  0  0  0
 16 31  1  0  0  0
 17 18  1  0  0  0
 17106  1  0  0  0
 18 19  2  0  0  0
 18107  1  0  0  0
 19 20  1  0  0  0
 19 24  1  0  0  0
 20 21  2  0  0  0
 20108  1  0  0  0
 21 23  1  0  0  0
 22 28  1  0  0  0
 22 32  2  0  0  0
 26 27  1  0  0  0
 28109  1  0  0  0
 28110  1  0  0  0
 29111  1  0  0  0
 29112  1  0  0  0
 33 34  1  0  0  0
 33 66  1  0  0  0
 33 70  2  0  0  0
 34 36  1  0  0  0
 34 59  1  0  0  0
 34113  1  0  0  0
 35 44  2  0  0  0
 35 45  1  0  0  0
 35 68  1  0  0  0
 36 56  1  0  0  0
 36114  1  0  0  0
 37 39  1  0  0  0
 37 47  1  0  0  0
 37 66  1  0  0  0
 37115  1  0  0  0
 38 43  2  0  0  0
 38 46  1  0  0  0
 38 47  1  0  0  0
 39 64  1  0  0  0
 39 67  2  0  0  0
 40 52  1  0  0  0
 40 53  2  0  0  0
 40 58  1  0  0  0
 41116  1  0  0  0
 41117  1  0  0  0
 41118  1  0  0  0
 41 48  1  0  0  0
 42 43  1  0  0  0
 42 66  1  0  0  0
 42119  1  0  0  0
 42120  1  0  0  0
 43 44  1  0  0  0
 44121  1  0  0  0
 45 46  2  0  0  0
 45122  1  0  0  0
 46123  1  0  0  0
 47124  1  0  0  0
 47125  1  0  0  0
 48 56  1  0  0  0
 48 65  1  0  0  0
 48126  1  0  0  0
 49 50  1  0  0  0
 49 53  1  0  0  0
 49 64  1  0  0  0
 49127  1  0  0  0
 50 51  1  0  0  0
 50128  1  0  0  0
 50129  1  0  0  0
 51 52  1  0  0  0
 51130  1  0  0  0
 51131  1  0  0  0
 52132  1  0  0  0
 52133  1  0  0  0
 53 54  1  0  0  0
 54 55  2  0  0  0
 54134  1  0  0  0
 55 57  1  0  0  0
 55135  1  0  0  0
 56 69  2  0  0  0
 57 58  2  0  0  0
 57136  1  0  0  0
 58137  1  0  0  0
 59 60  1  0  0  0
 59 61  1  0  0  0
 59 62  1  0  0  0
 60138  1  0  0  0
 60139  1  0  0  0
 60140  1  0  0  0
 61141  1  0  0  0
 61142  1  0  0  0
 61143  1  0  0  0
 62144  1  0  0  0
 62145  1  0  0  0
 62146  1  0  0  0
 63 65  1  0  0  0
 63147  1  0  0  0
 63148  1  0  0  0
 63149  1  0  0  0
 64150  1  0  0  0
 65151  1  0  0  0
 68 87  1  0  0  0
 71 72  2  0  0  0
 71 75  1  0  0  0
 71152  1  0  0  0
 72 73  1  0  0  0
 72 85  1  0  0  0
 73 74  2  0  0  0
 73 77  1  0  0  0
 74 76  1  0  0  0
 74 78  1  0  0  0
 75 76  2  0  0  0
 75 87  1  0  0  0
 76 92  1  0  0  0
 77 79  1  0  0  0
 77153  1  0  0  0
 77154  1  0  0  0
 78 80  1  0  0  0
 78155  1  0  0  0
 78156  1  0  0  0
 79 80  1  0  0  0
 79157  1  0  0  0
 79158  1  0  0  0
 80159  1  0  0  0
 80160  1  0  0  0
 81 83  1  0  0  0
 81 85  1  0  0  0
 81161  1  0  0  0
 81162  1  0  0  0
 82 84  1  0  0  0
 82 85  1  0  0  0
 82163  1  0  0  0
 82164  1  0  0  0
 83 91  1  0  0  0
 83165  1  0  0  0
 83166  1  0  0  0
 84 91  1  0  0  0
 84167  1  0  0  0
 84168  1  0  0  0
 85169  1  0  0  0
 86 92  1  0  0  0
 86170  1  0  0  0
 86171  1  0  0  0
 86172  1  0  0  0
 87173  1  0  0  0
 87174  1  0  0  0
 88 89  1  0  0  0
 88 90  1  0  0  0
 88175  1  0  0  0
 88176  1  0  0  0
 89177  1  0  0  0
 89178  1  0  0  0
 89 91  1  0  0  0
 90179  1  0  0  0
 91180  1  0  0  0
M  CHG  1  91   1
M  ISO  4   1 100  68 101  87 101  90 100
M  END
> <chiral flag>
0

> <version>
0

> <s_m_source_file>
/data/baiqing/PycharmProjects/Reinvent-master-3.2/result/LINK_invent/BTK/process_docking_weight1_custom_sum_contain_oxygen_bond_distance_aromatic_linkinvent_7_9_3/rearranged_h_0150.sdf

> <i_m_source_file_index>
15

> <r_mmod_Potential_Energy-OPLS-2005>
11389.400390625

> <r_mmod_Stretch_Energy-OPLS-2005>
4505.5595703125

> <r_mmod_Bend_Energy-OPLS-2005>
2829.92895507812

> <r_mmod_Torsional_Energy-OPLS-2005>
467.469635009766

> <r_mmod_Improper_Torsional_Energy-OPLS-2005>
16.5389213562012

> <r_mmod_Van_der_Waal_Energy-OPLS-2005>
950.150756835938

> <r_mmod_Electrostatic_Energy-OPLS-2005>
-304.261169433594

> <r_mmod_Solvation_Energy-OPLS-2005>
-451.365081787109

> <b_mmod_Minimization_Converged-OPLS-2005>
0

> <r_mmod_RMS_Derivative-OPLS-2005>
99.9990005493164

$$$$
15
                    3D
 Structure written by MMmdl.
164173  0  0  1  0            999 V2000
  -30.8051  -14.3434   20.7220 C   0  0  0  0  0  0
  -30.4117  -12.3005   19.3938 C   0  0  0  0  0  0
  -29.4792  -12.5315   18.1926 C   0  0  0  0  0  0
  -28.0074  -12.3783   18.6134 C   0  0  0  0  0  0
  -27.6648  -13.2073   19.8779 C   0  0  2  0  0  0
  -28.7025  -12.9720   20.9981 C   0  0  0  0  0  0
  -25.2596  -13.8174   20.5677 C   0  0  0  0  0  0
  -24.1843  -13.0451   20.9167 C   0  0  0  0  0  0
  -24.6391  -11.6916   20.8726 C   0  0  0  0  0  0
  -23.9053  -10.4302   21.0397 C   0  0  0  0  0  0
  -24.3604   -9.4219   21.9178 C   0  0  0  0  0  0
  -23.6283   -8.2251   22.0752 C   0  0  0  0  0  0
  -22.4268   -8.0282   21.3542 C   0  0  0  0  0  0
  -21.9901   -9.0252   20.4642 C   0  0  0  0  0  0
  -22.7223  -10.2136   20.3049 C   0  0  0  0  0  0
  -21.6854   -6.0730   22.5273 C   0  0  0  0  0  0
  -21.4015   -6.5633   23.8205 C   0  0  0  0  0  0
  -21.3662   -5.6789   24.9170 C   0  0  0  0  0  0
  -21.6046   -4.3052   24.7223 C   0  0  0  0  0  0
  -21.8820   -3.8141   23.4345 C   0  0  0  0  0  0
  -21.9191   -4.6957   22.3398 C   0  0  0  0  0  0
  -22.7864  -13.5248   21.1834 C   0  0  0  0  0  0
  -22.1662   -4.2141   21.0977 F   0  0  0  0  0  0
  -21.5629   -3.4538   25.7737 F   0  0  0  0  0  0
  -30.0499  -13.2448   20.4623 N   0  0  0  0  0  0
  -26.3036  -12.9343   20.3375 N   0  0  0  0  0  0
  -25.9317  -11.6500   20.5758 N   0  0  0  0  0  0
  -22.0506  -12.8241   22.0393 N   0  0  0  0  0  0
  -25.4347  -15.1884   20.4072 N   0  0  0  0  0  0
  -31.7819  -14.6731   20.0444 O   0  0  0  0  0  0
  -21.6641   -6.8872   21.4235 O   0  0  0  0  0  0
  -22.3551  -14.5560   20.6686 O   0  0  0  0  0  0
  -24.6164  -31.8701   23.2163 C   0  0  0  0  0  0
  -25.9060  -32.4829   23.8431 C   0  0  1  0  0  0
  -27.2154  -27.4050   20.0731 C   0  0  0  0  0  0
  -25.5918  -33.8630   24.2352 N   0  0  0  0  0  0
  -23.4018  -30.5012   21.5600 C   0  0  2  0  0  0
  -24.8391  -28.9768   20.1189 C   0  0  0  0  0  0
  -22.7407  -29.4677   22.5010 C   0  0  0  0  0  0
  -18.0270  -28.1367   22.8491 C   0  0  0  0  0  0
  -24.1491  -36.7317   23.2638 C   0  0  0  0  0  0
  -25.9388  -30.8181   21.3840 C   0  0  0  0  0  0
  -26.0036  -29.4533   20.7297 C   0  0  0  0  0  0
  -27.1847  -28.6688   20.7193 C   0  0  0  0  0  0
  -26.0366  -27.0023   19.3999 C   0  0  0  0  0  0
  -24.8512  -27.7461   19.4570 C   0  0  0  0  0  0
  -23.6077  -29.8482   20.1712 C   0  0  0  0  0  0
  -25.4113  -36.3115   24.0334 C   0  0  1  0  0  0
  -20.5863  -28.3660   23.1312 C   0  0  2  0  0  0
  -20.6765  -26.9399   22.5404 C   0  0  0  0  0  0
  -19.5740  -26.6381   21.5204 C   0  0  0  0  0  0
  -18.1920  -26.7910   22.1619 C   0  0  0  0  0  0
  -19.1520  -28.8828   23.2898 C   0  0  0  0  0  0
  -18.9451  -30.1434   23.8905 C   0  0  0  0  0  0
  -17.6455  -30.6574   24.0562 C   0  0  0  0  0  0
  -25.9039  -34.9480   23.5136 C   0  0  0  0  0  0
  -16.5345  -29.9077   23.6326 C   0  0  0  0  0  0
  -16.7260  -28.6496   23.0347 C   0  0  0  0  0  0
  -26.4482  -31.6604   25.0758 C   0  0  0  0  0  0
  -25.3738  -31.3693   26.1492 C   0  0  0  0  0  0
  -27.0334  -30.3047   24.6154 C   0  0  0  0  0  0
  -27.6048  -32.4338   25.7514 C   0  0  0  0  0  0
  -27.5584  -37.1817   24.8467 C   0  0  0  0  0  0
  -21.4137  -29.3038   22.3730 N   0  0  0  0  0  0
  -26.4302  -37.3797   23.9403 N   0  0  0  0  0  0
  -24.6709  -31.0775   22.1104 N   0  0  0  0  0  0
  -23.4178  -28.8191   23.3032 O   0  0  0  0  0  0
  -28.4074  -26.6855   20.0954 O   0  0  0  0  0  0
  -26.5592  -34.8923   22.4693 O   0  0  0  0  0  0
  -23.5348  -32.1488   23.7534 O   0  0  0  0  0  0
  -30.2642  -21.4770   21.2691 C   0  0  0  0  0  0
  -30.6279  -20.1563   21.6107 C   0  0  0  0  0  0
  -27.9513  -20.9198   21.7257 C   0  0  0  0  0  0
  -28.9107  -21.8604   21.3036 C   0  0  0  0  0  0
  -29.6581  -19.1940   22.0073 C   0  0  0  0  0  0
  -28.2923  -19.6001   22.0820 C   0  0  0  0  0  0
  -27.4591  -24.3883   19.1872 C   0  0  0  0  0  0
  -27.9217  -22.9807   19.4699 C   0  0  0  0  0  0
  -29.1066  -24.3927   20.9476 C   0  0  0  0  0  0
  -28.5766  -25.2710   19.7730 C   0  0  2  0  0  0
  -27.3701  -17.4490   22.7907 C   0  0  0  0  0  0
  -31.3937  -15.9447   22.5331 C   0  0  0  0  0  0
  -31.2766  -17.3822   21.9929 C   0  0  0  0  0  0
  -28.4384  -23.0896   20.8166 N   0  0  0  0  0  0
  -30.5162  -14.9787   21.8635 N   0  0  0  0  0  0
  -27.2100  -18.8193   22.4491 O   0  0  0  0  0  0
  -29.9906  -17.8908   22.3237 O   0  0  0  0  0  0
  -31.4541  -12.3996   19.0851 H   0  0  0  0  0  0
  -30.3110  -11.2784   19.7617 H   0  0  0  0  0  0
  -29.7132  -11.8276   17.3929 H   0  0  0  0  0  0
  -29.6442  -13.5291   17.7823 H   0  0  0  0  0  0
  -27.8206  -11.3200   18.8006 H   0  0  0  0  0  0
  -27.3499  -12.6606   17.7906 H   0  0  0  0  0  0
  -27.7181  -14.2591   19.5954 H   0  0  0  0  0  0
  -28.6588  -11.9385   21.3450 H   0  0  0  0  0  0
  -28.4468  -13.5831   21.8638 H   0  0  0  0  0  0
  -25.2750   -9.5698   22.4753 H   0  0  0  0  0  0
  -23.9993   -7.4646   22.7474 H   0  0  0  0  0  0
  -21.0833   -8.8763   19.8947 H   0  0  0  0  0  0
  -22.3677  -10.9668   19.6155 H   0  0  0  0  0  0
  -21.2012   -7.6143   23.9705 H   0  0  0  0  0  0
  -21.1483   -6.0522   25.9073 H   0  0  0  0  0  0
  -22.0596   -2.7603   23.2848 H   0  0  0  0  0  0
  -22.4114  -11.9896   22.4777 H   0  0  0  0  0  0
  -21.1126  -13.1270   22.2599 H   0  0  0  0  0  0
  -24.6705  -15.8481   20.5019 H   0  0  0  0  0  0
  -26.2900  -15.6164   20.0757 H   0  0  0  0  0  0
  -26.7123  -32.5522   23.1179 H   0  0  0  0  0  0
  -25.0079  -33.9802   25.0504 H   0  0  0  0  0  0
  -22.6920  -31.3206   21.4291 H   0  0  0  0  0  0
  -23.3747  -35.9654   23.3311 H   0  0  0  0  0  0
  -24.3588  -36.8924   22.2052 H   0  0  0  0  0  0
  -23.7257  -37.6529   23.6648 H   0  0  0  0  0  0
  -26.0642  -31.5828   20.6160 H   0  0  0  0  0  0
  -26.8246  -30.8629   22.0056 H   0  0  0  0  0  0
  -28.0787  -29.0321   21.2075 H   0  0  0  0  0  0
  -25.9682  -26.1561   18.7494 H   0  0  0  0  0  0
  -23.9691  -27.3922   18.9407 H   0  0  0  0  0  0
  -23.7224  -30.6301   19.4202 H   0  0  0  0  0  0
  -22.7290  -29.2757   19.8688 H   0  0  0  0  0  0
  -25.1289  -36.1987   25.0827 H   0  0  0  0  0  0
  -20.9946  -28.3218   24.1439 H   0  0  0  0  0  0
  -20.5684  -26.2260   23.3584 H   0  0  0  0  0  0
  -21.6634  -26.7452   22.1191 H   0  0  0  0  0  0
  -19.6904  -25.6299   21.1222 H   0  0  0  0  0  0
  -19.6674  -27.3195   20.6736 H   0  0  0  0  0  0
  -17.4189  -26.6654   21.4023 H   0  0  0  0  0  0
  -18.0324  -26.0043   22.9007 H   0  0  0  0  0  0
  -19.7930  -30.7238   24.2277 H   0  0  0  0  0  0
  -17.5019  -31.6259   24.5157 H   0  0  0  0  0  0
  -15.5347  -30.2990   23.7649 H   0  0  0  0  0  0
  -15.8659  -28.0828   22.7057 H   0  0  0  0  0  0
  -24.5916  -30.7040   25.7816 H   0  0  0  0  0  0
  -24.8914  -32.2834   26.4959 H   0  0  0  0  0  0
  -25.8084  -30.8846   27.0243 H   0  0  0  0  0  0
  -26.2897  -29.6789   24.1202 H   0  0  0  0  0  0
  -27.4099  -29.7298   25.4625 H   0  0  0  0  0  0
  -27.8733  -30.4368   23.9328 H   0  0  0  0  0  0
  -27.2666  -33.3641   26.2088 H   0  0  0  0  0  0
  -28.3845  -32.6898   25.0331 H   0  0  0  0  0  0
  -28.0722  -31.8468   26.5427 H   0  0  0  0  0  0
  -28.2604  -38.0116   24.7525 H   0  0  0  0  0  0
  -28.1082  -36.2647   24.6291 H   0  0  0  0  0  0
  -27.2292  -37.1461   25.8868 H   0  0  0  0  0  0
  -20.9288  -29.8802   21.6996 H   0  0  0  0  0  0
  -26.0188  -38.2876   24.1400 H   0  0  0  0  0  0
  -31.0260  -22.1655   20.9329 H   0  0  0  0  0  0
  -31.6748  -19.9051   21.5416 H   0  0  0  0  0  0
  -26.9095  -21.2067   21.7492 H   0  0  0  0  0  0
  -26.5328  -24.4889   19.7528 H   0  0  0  0  0  0
  -27.2757  -24.5546   18.1248 H   0  0  0  0  0  0
  -28.7139  -22.6778   18.7817 H   0  0  0  0  0  0
  -27.1020  -22.2642   19.3902 H   0  0  0  0  0  0
  -28.8344  -24.8359   21.9060 H   0  0  0  0  0  0
  -30.1936  -24.3099   20.9185 H   0  0  0  0  0  0
  -29.3668  -25.2712   19.0197 H   0  0  0  0  0  0
  -27.7697  -16.8684   21.9582 H   0  0  0  0  0  0
  -26.3956  -17.0270   23.0367 H   0  0  0  0  0  0
  -28.0034  -17.3254   23.6699 H   0  0  0  0  0  0
  -31.1682  -15.9388   23.5999 H   0  0  0  0  0  0
  -32.4306  -15.6127   22.4490 H   0  0  0  0  0  0
  -31.4425  -17.4147   20.9150 H   0  0  0  0  0  0
  -32.0525  -17.9808   22.4707 H   0  0  0  0  0  0
  -29.7181  -14.6428   22.3816 H   0  0  0  0  0  0
  1 25  1  0  0  0
  1 30  2  0  0  0
  1 85  1  0  0  0
  2  3  1  0  0  0
  2 25  1  0  0  0
  2 88  1  0  0  0
  2 89  1  0  0  0
  3  4  1  0  0  0
  3 90  1  0  0  0
  3 91  1  0  0  0
  4  5  1  0  0  0
  4 92  1  0  0  0
  4 93  1  0  0  0
  5  6  1  0  0  0
  5 26  1  0  0  0
  5 94  1  0  0  0
  6 25  1  0  0  0
  6 95  1  0  0  0
  6 96  1  0  0  0
  7  8  2  0  0  0
  7 26  1  0  0  0
  7 29  1  0  0  0
  8  9  1  0  0  0
  8 22  1  0  0  0
  9 10  1  0  0  0
  9 27  2  0  0  0
 10 11  2  0  0  0
 10 15  1  0  0  0
 11 12  1  0  0  0
 11 97  1  0  0  0
 12 13  2  0  0  0
 12 98  1  0  0  0
 13 14  1  0  0  0
 13 31  1  0  0  0
 14 15  2  0  0  0
 14 99  1  0  0  0
 15100  1  0  0  0
 16 17  2  0  0  0
 16 21  1  0  0  0
 16 31  1  0  0  0
 17 18  1  0  0  0
 17101  1  0  0  0
 18 19  2  0  0  0
 18102  1  0  0  0
 19 20  1  0  0  0
 19 24  1  0  0  0
 20 21  2  0  0  0
 20103  1  0  0  0
 21 23  1  0  0  0
 22 28  1  0  0  0
 22 32  2  0  0  0
 26 27  1  0  0  0
 28104  1  0  0  0
 28105  1  0  0  0
 29106  1  0  0  0
 29107  1  0  0  0
 33 34  1  0  0  0
 33 66  1  0  0  0
 33 70  2  0  0  0
 34 36  1  0  0  0
 34 59  1  0  0  0
 34108  1  0  0  0
 35 44  2  0  0  0
 35 45  1  0  0  0
 35 68  1  0  0  0
 36 56  1  0  0  0
 36109  1  0  0  0
 37 39  1  0  0  0
 37 47  1  0  0  0
 37 66  1  0  0  0
 37110  1  0  0  0
 38 43  2  0  0  0
 38 46  1  0  0  0
 38 47  1  0  0  0
 39 64  1  0  0  0
 39 67  2  0  0  0
 40 52  1  0  0  0
 40 53  2  0  0  0
 40 58  1  0  0  0
 41111  1  0  0  0
 41112  1  0  0  0
 41113  1  0  0  0
 41 48  1  0  0  0
 42 43  1  0  0  0
 42 66  1  0  0  0
 42114  1  0  0  0
 42115  1  0  0  0
 43 44  1  0  0  0
 44116  1  0  0  0
 45 46  2  0  0  0
 45117  1  0  0  0
 46118  1  0  0  0
 47119  1  0  0  0
 47120  1  0  0  0
 48 56  1  0  0  0
 48 65  1  0  0  0
 48121  1  0  0  0
 49 50  1  0  0  0
 49 53  1  0  0  0
 49 64  1  0  0  0
 49122  1  0  0  0
 50 51  1  0  0  0
 50123  1  0  0  0
 50124  1  0  0  0
 51 52  1  0  0  0
 51125  1  0  0  0
 51126  1  0  0  0
 52127  1  0  0  0
 52128  1  0  0  0
 53 54  1  0  0  0
 54 55  2  0  0  0
 54129  1  0  0  0
 55 57  1  0  0  0
 55130  1  0  0  0
 56 69  2  0  0  0
 57 58  2  0  0  0
 57131  1  0  0  0
 58132  1  0  0  0
 59 60  1  0  0  0
 59 61  1  0  0  0
 59 62  1  0  0  0
 60133  1  0  0  0
 60134  1  0  0  0
 60135  1  0  0  0
 61136  1  0  0  0
 61137  1  0  0  0
 61138  1  0  0  0
 62139  1  0  0  0
 62140  1  0  0  0
 62141  1  0  0  0
 63 65  1  0  0  0
 63142  1  0  0  0
 63143  1  0  0  0
 63144  1  0  0  0
 64145  1  0  0  0
 65146  1  0  0  0
 68 80  1  0  0  0
 71 72  2  0  0  0
 71 74  1  0  0  0
 71147  1  0  0  0
 72 75  1  0  0  0
 72148  1  0  0  0
 73 74  2  0  0  0
 73 76  1  0  0  0
 73149  1  0  0  0
 74 84  1  0  0  0
 75 76  2  0  0  0
 75 87  1  0  0  0
 76 86  1  0  0  0
 77 78  1  0  0  0
 77 80  1  0  0  0
 77150  1  0  0  0
 77151  1  0  0  0
 78 84  1  0  0  0
 78152  1  0  0  0
 78153  1  0  0  0
 79 80  1  0  0  0
 79 84  1  0  0  0
 79154  1  0  0  0
 79155  1  0  0  0
 80156  1  0  0  0
 81 86  1  0  0  0
 81157  1  0  0  0
 81158  1  0  0  0
 81159  1  0  0  0
 82 83  1  0  0  0
 82 85  1  0  0  0
 82160  1  0  0  0
 82161  1  0  0  0
 83 87  1  0  0  0
 83162  1  0  0  0
 83163  1  0  0  0
 85164  1  0  0  0
M  ISO  4   1 100  68 101  80 101  85 100
M  END
> <chiral flag>
0

> <version>
0

> <s_m_source_file>
/data/baiqing/PycharmProjects/Reinvent-master-3.2/result/LINK_invent/BTK/process_docking_weight1_custom_sum_contain_oxygen_bond_distance_aromatic_linkinvent_7_9_3/rearranged_h_0150.sdf

> <i_m_source_file_index>
16

> <r_mmod_Potential_Energy-OPLS-2005>
43.9204750061035

> <r_mmod_Stretch_Energy-OPLS-2005>
42.2754821777344

> <r_mmod_Bend_Energy-OPLS-2005>
206.500961303711

> <r_mmod_Torsional_Energy-OPLS-2005>
266.537475585938

> <r_mmod_Improper_Torsional_Energy-OPLS-2005>
7.98775339126587

> <r_mmod_Van_der_Waal_Energy-OPLS-2005>
172.476684570312

> <r_mmod_Electrostatic_Energy-OPLS-2005>
-434.702423095703

> <r_mmod_Solvation_Energy-OPLS-2005>
-230.273406982422

> <b_mmod_Minimization_Converged-OPLS-2005>
0

> <r_mmod_RMS_Derivative-OPLS-2005>
0.915342748165131

$$$$
16
                    3D
 Structure written by MMmdl.
166176  0  0  1  0            999 V2000
  -30.6277  -14.7718   20.4723 C   0  0  0  0  0  0
  -30.4329  -12.4687   19.4973 C   0  0  0  0  0  0
  -29.5296  -12.5550   18.2456 C   0  0  0  0  0  0
  -28.0549  -12.3619   18.6405 C   0  0  0  0  0  0
  -27.6508  -13.2475   19.8504 C   0  0  2  0  0  0
  -28.6881  -13.2091   20.9939 C   0  0  0  0  0  0
  -25.2592  -13.8210   20.5662 C   0  0  0  0  0  0
  -24.1885  -13.0434   20.9178 C   0  0  0  0  0  0
  -24.6493  -11.6929   20.8726 C   0  0  0  0  0  0
  -23.9160  -10.4316   21.0434 C   0  0  0  0  0  0
  -24.3696   -9.4230   21.9204 C   0  0  0  0  0  0
  -23.6338   -8.2284   22.0771 C   0  0  0  0  0  0
  -22.4311   -8.0344   21.3575 C   0  0  0  0  0  0
  -21.9979   -9.0316   20.4663 C   0  0  0  0  0  0
  -22.7346  -10.2173   20.3067 C   0  0  0  0  0  0
  -21.6866   -6.0790   22.5305 C   0  0  0  0  0  0
  -21.4024   -6.5672   23.8247 C   0  0  0  0  0  0
  -21.3643   -5.6813   24.9194 C   0  0  0  0  0  0
  -21.6026   -4.3073   24.7237 C   0  0  0  0  0  0
  -21.8806   -3.8180   23.4350 C   0  0  0  0  0  0
  -21.9202   -4.7014   22.3421 C   0  0  0  0  0  0
  -22.7925  -13.5256   21.1796 C   0  0  0  0  0  0
  -22.1686   -4.2208   21.1001 F   0  0  0  0  0  0
  -21.5611   -3.4545   25.7738 F   0  0  0  0  0  0
  -30.0043  -13.5370   20.4349 N   0  0  0  0  0  0
  -26.3030  -12.9443   20.3246 N   0  0  0  0  0  0
  -25.9432  -11.6566   20.5684 N   0  0  0  0  0  0
  -22.0554  -12.8259   22.0348 N   0  0  0  0  0  0
  -25.4184  -15.1922   20.4169 N   0  0  0  0  0  0
  -31.8032  -14.8437   20.1036 O   0  0  0  0  0  0
  -21.6653   -6.8946   21.4276 O   0  0  0  0  0  0
  -22.3625  -14.5553   20.6637 O   0  0  0  0  0  0
  -24.6296  -31.8530   23.1961 C   0  0  0  0  0  0
  -25.9113  -32.4737   23.8330 C   0  0  1  0  0  0
  -27.2268  -27.2454   20.1465 C   0  0  0  0  0  0
  -25.5921  -33.8548   24.2249 N   0  0  0  0  0  0
  -23.4284  -30.4670   21.5435 C   0  0  2  0  0  0
  -24.8777  -28.9075   20.1115 C   0  0  0  0  0  0
  -22.7503  -29.4533   22.4955 C   0  0  0  0  0  0
  -18.0287  -28.1353   22.8470 C   0  0  0  0  0  0
  -24.1485  -36.7252   23.2645 C   0  0  0  0  0  0
  -25.9732  -30.7604   21.3771 C   0  0  0  0  0  0
  -26.0477  -29.3819   20.7174 C   0  0  0  0  0  0
  -27.2233  -28.5640   20.7154 C   0  0  0  0  0  0
  -26.0339  -26.8300   19.5143 C   0  0  0  0  0  0
  -24.8783  -27.6434   19.4971 C   0  0  0  0  0  0
  -23.6464  -29.7965   20.1608 C   0  0  0  0  0  0
  -25.4106  -36.3046   24.0329 C   0  0  1  0  0  0
  -20.5885  -28.3645   23.1290 C   0  0  2  0  0  0
  -20.6778  -26.9358   22.5415 C   0  0  0  0  0  0
  -19.5764  -26.6347   21.5204 C   0  0  0  0  0  0
  -18.1932  -26.7893   22.1600 C   0  0  0  0  0  0
  -19.1543  -28.8817   23.2867 C   0  0  0  0  0  0
  -18.9468  -30.1432   23.8856 C   0  0  0  0  0  0
  -17.6464  -30.6556   24.0542 C   0  0  0  0  0  0
  -25.9041  -34.9430   23.5088 C   0  0  0  0  0  0
  -16.5350  -29.9038   23.6328 C   0  0  0  0  0  0
  -16.7272  -28.6467   23.0324 C   0  0  0  0  0  0
  -26.4496  -31.6581   25.0734 C   0  0  0  0  0  0
  -25.3705  -31.3739   26.1448 C   0  0  0  0  0  0
  -27.0384  -30.3008   24.6234 C   0  0  0  0  0  0
  -27.6053  -32.4354   25.7493 C   0  0  0  0  0  0
  -27.5566  -37.1760   24.8460 C   0  0  0  0  0  0
  -21.4215  -29.2988   22.3694 N   0  0  0  0  0  0
  -26.4278  -37.3745   23.9410 N   0  0  0  0  0  0
  -24.6971  -31.0438   22.0971 N   0  0  0  0  0  0
  -23.4185  -28.8061   23.3056 O   0  0  0  0  0  0
  -28.3485  -26.3894   20.2455 O   0  0  0  0  0  0
  -26.5602  -34.8896   22.4647 O   0  0  0  0  0  0
  -23.5439  -32.1392   23.7225 O   0  0  0  0  0  0
  -30.4272  -21.5692   20.8700 C   0  0  0  0  0  0
  -28.1433  -21.0756   20.6035 C   0  0  0  0  0  0
  -29.1206  -22.1087   20.7142 C   0  0  0  0  0  0
  -29.7874  -19.1310   20.5886 C   0  0  0  0  0  0
  -30.7599  -20.1681   20.8298 C   0  0  0  0  0  0
  -28.4424  -19.6520   20.5615 C   0  0  0  0  0  0
  -29.3063  -16.7129   19.4597 C   0  0  0  0  0  0
  -29.8152  -24.6050   20.1705 C   0  0  0  0  0  0
  -28.8509  -23.6905   20.8788 C   0  0  1  0  0  0
  -30.2333  -17.5975   20.2631 C   0  0  2  0  0  0
  -29.8205  -16.1105   20.7539 C   0  0  2  0  0  0
  -28.3581  -24.9121   19.9218 C   0  0  1  0  0  0
  -34.0242  -19.4770   22.8986 C   0  0  0  0  0  0
  -26.1871  -19.0504   21.1343 C   0  0  0  0  0  0
  -32.2333  -19.8440   21.0873 C   0  0  0  0  0  0
  -32.5252  -19.4856   22.5607 C   0  0  0  0  0  0
  -27.4216  -18.7281   20.5027 O   0  0  0  0  0  0
  -31.4815  -12.5702   19.2153 H   0  0  0  0  0  0
  -30.3383  -11.4890   19.9701 H   0  0  0  0  0  0
  -29.8358  -11.8224   17.4967 H   0  0  0  0  0  0
  -29.6522  -13.5318   17.7772 H   0  0  0  0  0  0
  -27.9229  -11.3069   18.8811 H   0  0  0  0  0  0
  -27.4042  -12.5721   17.7897 H   0  0  0  0  0  0
  -27.6403  -14.2705   19.4751 H   0  0  0  0  0  0
  -28.7028  -12.2392   21.4936 H   0  0  0  0  0  0
  -28.4168  -13.9383   21.7570 H   0  0  0  0  0  0
  -25.2858   -9.5680   22.4753 H   0  0  0  0  0  0
  -24.0042   -7.4679   22.7490 H   0  0  0  0  0  0
  -21.0909   -8.8877   19.8965 H   0  0  0  0  0  0
  -22.3867  -10.9715   19.6150 H   0  0  0  0  0  0
  -21.2034   -7.6180   23.9783 H   0  0  0  0  0  0
  -21.1450   -6.0531   25.9100 H   0  0  0  0  0  0
  -22.0580   -2.7645   23.2841 H   0  0  0  0  0  0
  -22.4183  -11.9939   22.4715 H   0  0  0  0  0  0
  -21.1158  -13.1270   22.2467 H   0  0  0  0  0  0
  -24.6329  -15.8249   20.5196 H   0  0  0  0  0  0
  -26.2671  -15.6534   20.1135 H   0  0  0  0  0  0
  -26.7172  -32.5373   23.1065 H   0  0  0  0  0  0
  -25.0111  -33.9736   25.0423 H   0  0  0  0  0  0
  -22.7271  -31.2903   21.3941 H   0  0  0  0  0  0
  -23.3773  -35.9552   23.3307 H   0  0  0  0  0  0
  -24.3583  -36.8880   22.2057 H   0  0  0  0  0  0
  -23.7219  -37.6439   23.6688 H   0  0  0  0  0  0
  -26.1131  -31.5252   20.6122 H   0  0  0  0  0  0
  -26.8497  -30.8098   22.0117 H   0  0  0  0  0  0
  -28.1206  -28.9256   21.1994 H   0  0  0  0  0  0
  -25.9681  -25.8553   19.0534 H   0  0  0  0  0  0
  -23.9783  -27.2754   19.0245 H   0  0  0  0  0  0
  -23.7669  -30.5771   19.4077 H   0  0  0  0  0  0
  -22.7657  -29.2267   19.8553 H   0  0  0  0  0  0
  -25.1290  -36.1912   25.0818 H   0  0  0  0  0  0
  -20.9952  -28.3209   24.1425 H   0  0  0  0  0  0
  -20.5669  -26.2225   23.3603 H   0  0  0  0  0  0
  -21.6645  -26.7380   22.1204 H   0  0  0  0  0  0
  -19.6928  -25.6256   21.1245 H   0  0  0  0  0  0
  -19.6741  -27.3151   20.6728 H   0  0  0  0  0  0
  -17.4204  -26.6636   21.4008 H   0  0  0  0  0  0
  -18.0335  -26.0033   22.8988 H   0  0  0  0  0  0
  -19.7939  -30.7267   24.2192 H   0  0  0  0  0  0
  -17.5008  -31.6247   24.5138 H   0  0  0  0  0  0
  -15.5344  -30.2916   23.7701 H   0  0  0  0  0  0
  -15.8674  -28.0809   22.7016 H   0  0  0  0  0  0
  -24.5880  -30.7102   25.7763 H   0  0  0  0  0  0
  -24.8903  -32.2910   26.4858 H   0  0  0  0  0  0
  -25.7998  -30.8918   27.0240 H   0  0  0  0  0  0
  -26.2988  -29.6719   24.1261 H   0  0  0  0  0  0
  -27.4095  -29.7302   25.4759 H   0  0  0  0  0  0
  -27.8836  -30.4308   23.9471 H   0  0  0  0  0  0
  -27.2666  -33.3672   26.2030 H   0  0  0  0  0  0
  -28.3857  -32.6892   25.0311 H   0  0  0  0  0  0
  -28.0721  -31.8518   26.5432 H   0  0  0  0  0  0
  -28.2545  -38.0094   24.7528 H   0  0  0  0  0  0
  -28.1115  -36.2620   24.6276 H   0  0  0  0  0  0
  -27.2297  -37.1365   25.8869 H   0  0  0  0  0  0
  -20.9405  -29.8709   21.6904 H   0  0  0  0  0  0
  -26.0170  -38.2805   24.1484 H   0  0  0  0  0  0
  -31.2219  -22.2814   21.0522 H   0  0  0  0  0  0
  -27.1166  -21.4069   20.5833 H   0  0  0  0  0  0
  -29.6998  -16.3456   18.5121 H   0  0  0  0  0  0
  -28.2334  -16.8674   19.4387 H   0  0  0  0  0  0
  -30.3696  -24.2119   19.3192 H   0  0  0  0  0  0
  -30.3824  -25.2890   20.8005 H   0  0  0  0  0  0
  -28.6723  -23.8734   21.9379 H   0  0  0  0  0  0
  -31.2414  -17.6268   19.8648 H   0  0  0  0  0  0
  -29.1884  -16.1061   21.6376 H   0  0  0  0  0  0
  -27.9965  -24.6992   18.9177 H   0  0  0  0  0  0
  -34.1831  -19.2918   23.9619 H   0  0  0  0  0  0
  -34.5002  -20.4301   22.6630 H   0  0  0  0  0  0
  -34.5534  -18.6968   22.3523 H   0  0  0  0  0  0
  -25.5516  -18.1655   21.1818 H   0  0  0  0  0  0
  -25.6326  -19.8154   20.5917 H   0  0  0  0  0  0
  -26.3533  -19.3828   22.1590 H   0  0  0  0  0  0
  -32.8174  -20.7188   20.7978 H   0  0  0  0  0  0
  -32.6150  -19.0636   20.4352 H   0  0  0  0  0  0
  -32.0358  -20.1937   23.2298 H   0  0  0  0  0  0
  -32.0943  -18.5125   22.7965 H   0  0  0  0  0  0
  1 25  1  0  0  0
  1 30  2  0  0  0
  1 81  1  0  0  0
  2  3  1  0  0  0
  2 25  1  0  0  0
  2 88  1  0  0  0
  2 89  1  0  0  0
  3  4  1  0  0  0
  3 90  1  0  0  0
  3 91  1  0  0  0
  4  5  1  0  0  0
  4 92  1  0  0  0
  4 93  1  0  0  0
  5  6  1  0  0  0
  5 26  1  0  0  0
  5 94  1  0  0  0
  6 25  1  0  0  0
  6 95  1  0  0  0
  6 96  1  0  0  0
  7  8  2  0  0  0
  7 26  1  0  0  0
  7 29  1  0  0  0
  8  9  1  0  0  0
  8 22  1  0  0  0
  9 10  1  0  0  0
  9 27  2  0  0  0
 10 11  2  0  0  0
 10 15  1  0  0  0
 11 12  1  0  0  0
 11 97  1  0  0  0
 12 13  2  0  0  0
 12 98  1  0  0  0
 13 14  1  0  0  0
 13 31  1  0  0  0
 14 15  2  0  0  0
 14 99  1  0  0  0
 15100  1  0  0  0
 16 17  2  0  0  0
 16 21  1  0  0  0
 16 31  1  0  0  0
 17 18  1  0  0  0
 17101  1  0  0  0
 18 19  2  0  0  0
 18102  1  0  0  0
 19 20  1  0  0  0
 19 24  1  0  0  0
 20 21  2  0  0  0
 20103  1  0  0  0
 21 23  1  0  0  0
 22 28  1  0  0  0
 22 32  2  0  0  0
 26 27  1  0  0  0
 28104  1  0  0  0
 28105  1  0  0  0
 29106  1  0  0  0
 29107  1  0  0  0
 33 34  1  0  0  0
 33 66  1  0  0  0
 33 70  2  0  0  0
 34 36  1  0  0  0
 34 59  1  0  0  0
 34108  1  0  0  0
 35 44  2  0  0  0
 35 45  1  0  0  0
 35 68  1  0  0  0
 36 56  1  0  0  0
 36109  1  0  0  0
 37 39  1  0  0  0
 37 47  1  0  0  0
 37 66  1  0  0  0
 37110  1  0  0  0
 38 43  2  0  0  0
 38 46  1  0  0  0
 38 47  1  0  0  0
 39 64  1  0  0  0
 39 67  2  0  0  0
 40 52  1  0  0  0
 40 53  2  0  0  0
 40 58  1  0  0  0
 41111  1  0  0  0
 41112  1  0  0  0
 41113  1  0  0  0
 41 48  1  0  0  0
 42 43  1  0  0  0
 42 66  1  0  0  0
 42114  1  0  0  0
 42115  1  0  0  0
 43 44  1  0  0  0
 44116  1  0  0  0
 45 46  2  0  0  0
 45117  1  0  0  0
 46118  1  0  0  0
 47119  1  0  0  0
 47120  1  0  0  0
 48 56  1  0  0  0
 48 65  1  0  0  0
 48121  1  0  0  0
 49 50  1  0  0  0
 49 53  1  0  0  0
 49 64  1  0  0  0
 49122  1  0  0  0
 50 51  1  0  0  0
 50123  1  0  0  0
 50124  1  0  0  0
 51 52  1  0  0  0
 51125  1  0  0  0
 51126  1  0  0  0
 52127  1  0  0  0
 52128  1  0  0  0
 53 54  1  0  0  0
 54 55  2  0  0  0
 54129  1  0  0  0
 55 57  1  0  0  0
 55130  1  0  0  0
 56 69  2  0  0  0
 57 58  2  0  0  0
 57131  1  0  0  0
 58132  1  0  0  0
 59 60  1  0  0  0
 59 61  1  0  0  0
 59 62  1  0  0  0
 60133  1  0  0  0
 60134  1  0  0  0
 60135  1  0  0  0
 61136  1  0  0  0
 61137  1  0  0  0
 61138  1  0  0  0
 62139  1  0  0  0
 62140  1  0  0  0
 62141  1  0  0  0
 63 65  1  0  0  0
 63142  1  0  0  0
 63143  1  0  0  0
 63144  1  0  0  0
 64145  1  0  0  0
 65146  1  0  0  0
 68 82  1  0  0  0
 71 73  2  0  0  0
 71 75  1  0  0  0
 71147  1  0  0  0
 72 73  1  0  0  0
 72 76  2  0  0  0
 72148  1  0  0  0
 73 79  1  0  0  0
 74 75  2  0  0  0
 74 76  1  0  0  0
 74 80  1  0  0  0
 75 85  1  0  0  0
 76 87  1  0  0  0
 77 80  1  0  0  0
 77 81  1  0  0  0
 77149  1  0  0  0
 77150  1  0  0  0
 78 79  1  0  0  0
 78 82  1  0  0  0
 78151  1  0  0  0
 78152  1  0  0  0
 79 82  1  0  0  0
 79153  1  0  0  0
 80 81  1  0  0  0
 80154  1  0  0  0
 81155  1  0  0  0
 82156  1  0  0  0
 83 86  1  0  0  0
 83157  1  0  0  0
 83158  1  0  0  0
 83159  1  0  0  0
 84 87  1  0  0  0
 84160  1  0  0  0
 84161  1  0  0  0
 84162  1  0  0  0
 85 86  1  0  0  0
 85163  1  0  0  0
 85164  1  0  0  0
 86165  1  0  0  0
 86166  1  0  0  0
M  ISO  4   1 100  68 101  81 100  82 101
M  END
> <chiral flag>
0

> <version>
0

> <s_m_source_file>
/data/baiqing/PycharmProjects/Reinvent-master-3.2/result/LINK_invent/BTK/process_docking_weight1_custom_sum_contain_oxygen_bond_distance_aromatic_linkinvent_7_9_3/rearranged_h_0150.sdf

> <i_m_source_file_index>
17

> <r_mmod_Potential_Energy-OPLS-2005>
353.036437988281

> <r_mmod_Stretch_Energy-OPLS-2005>
162.874786376953

> <r_mmod_Bend_Energy-OPLS-2005>
237.006118774414

> <r_mmod_Torsional_Energy-OPLS-2005>
241.436950683594

> <r_mmod_Improper_Torsional_Energy-OPLS-2005>
5.85809993743896

> <r_mmod_Van_der_Waal_Energy-OPLS-2005>
136.317337036133

> <r_mmod_Electrostatic_Energy-OPLS-2005>
-332.8583984375

> <r_mmod_Solvation_Energy-OPLS-2005>
-190.840637207031

> <b_mmod_Minimization_Converged-OPLS-2005>
0

> <r_mmod_RMS_Derivative-OPLS-2005>
4.94052743911743

$$$$
17
                    3D
 Structure written by MMmdl.
163172  0  0  1  0            999 V2000
  -30.7521  -14.3888   20.6616 C   0  0  0  0  0  0
  -30.4150  -12.2969   19.3931 C   0  0  0  0  0  0
  -29.4810  -12.5201   18.1890 C   0  0  0  0  0  0
  -28.0055  -12.3748   18.6081 C   0  0  0  0  0  0
  -27.6616  -13.2027   19.8745 C   0  0  2  0  0  0
  -28.7015  -12.9513   20.9880 C   0  0  0  0  0  0
  -25.2584  -13.8157   20.5676 C   0  0  0  0  0  0
  -24.1833  -13.0437   20.9167 C   0  0  0  0  0  0
  -24.6379  -11.6901   20.8718 C   0  0  0  0  0  0
  -23.9045  -10.4295   21.0393 C   0  0  0  0  0  0
  -24.3598   -9.4218   21.9183 C   0  0  0  0  0  0
  -23.6282   -8.2247   22.0756 C   0  0  0  0  0  0
  -22.4269   -8.0273   21.3542 C   0  0  0  0  0  0
  -21.9899   -9.0246   20.4642 C   0  0  0  0  0  0
  -22.7215  -10.2131   20.3050 C   0  0  0  0  0  0
  -21.6851   -6.0727   22.5279 C   0  0  0  0  0  0
  -21.4012   -6.5634   23.8213 C   0  0  0  0  0  0
  -21.3659   -5.6789   24.9177 C   0  0  0  0  0  0
  -21.6046   -4.3053   24.7227 C   0  0  0  0  0  0
  -21.8819   -3.8143   23.4352 C   0  0  0  0  0  0
  -21.9192   -4.6956   22.3405 C   0  0  0  0  0  0
  -22.7858  -13.5236   21.1841 C   0  0  0  0  0  0
  -22.1660   -4.2139   21.0979 F   0  0  0  0  0  0
  -21.5633   -3.4538   25.7741 F   0  0  0  0  0  0
  -30.0379  -13.2537   20.4430 N   0  0  0  0  0  0
  -26.3019  -12.9323   20.3362 N   0  0  0  0  0  0
  -25.9301  -11.6481   20.5741 N   0  0  0  0  0  0
  -22.0501  -12.8226   22.0393 N   0  0  0  0  0  0
  -25.4337  -15.1876   20.4086 N   0  0  0  0  0  0
  -31.8165  -14.6380   20.0888 O   0  0  0  0  0  0
  -21.6635   -6.8868   21.4238 O   0  0  0  0  0  0
  -22.3545  -14.5552   20.6699 O   0  0  0  0  0  0
  -24.6116  -31.8683   23.2114 C   0  0  0  0  0  0
  -25.9014  -32.4824   23.8397 C   0  0  1  0  0  0
  -27.2312  -27.4540   20.0924 C   0  0  0  0  0  0
  -25.5875  -33.8617   24.2324 N   0  0  0  0  0  0
  -23.3989  -30.4920   21.5520 C   0  0  2  0  0  0
  -24.8445  -28.9605   20.1163 C   0  0  0  0  0  0
  -22.7398  -29.4649   22.5004 C   0  0  0  0  0  0
  -18.0262  -28.1366   22.8482 C   0  0  0  0  0  0
  -24.1481  -36.7313   23.2649 C   0  0  0  0  0  0
  -25.9259  -30.8430   21.3596 C   0  0  0  0  0  0
  -26.0049  -29.4799   20.7042 C   0  0  0  0  0  0
  -27.2069  -28.7368   20.6811 C   0  0  0  0  0  0
  -26.0540  -26.9419   19.5060 C   0  0  0  0  0  0
  -24.8628  -27.6908   19.5137 C   0  0  0  0  0  0
  -23.6054  -29.8242   20.1667 C   0  0  0  0  0  0
  -25.4116  -36.3111   24.0338 C   0  0  1  0  0  0
  -20.5856  -28.3648   23.1330 C   0  0  2  0  0  0
  -20.6740  -26.9381   22.5439 C   0  0  0  0  0  0
  -19.5748  -26.6383   21.5203 C   0  0  0  0  0  0
  -18.1913  -26.7931   22.1587 C   0  0  0  0  0  0
  -19.1512  -28.8826   23.2905 C   0  0  0  0  0  0
  -18.9442  -30.1433   23.8917 C   0  0  0  0  0  0
  -17.6445  -30.6579   24.0563 C   0  0  0  0  0  0
  -25.9033  -34.9469   23.5134 C   0  0  0  0  0  0
  -16.5334  -29.9077   23.6316 C   0  0  0  0  0  0
  -16.7251  -28.6488   23.0348 C   0  0  0  0  0  0
  -26.4450  -31.6604   25.0717 C   0  0  0  0  0  0
  -25.3702  -31.3645   26.1438 C   0  0  0  0  0  0
  -27.0327  -30.3065   24.6086 C   0  0  0  0  0  0
  -27.6016  -32.4331   25.7480 C   0  0  0  0  0  0
  -27.5581  -37.1818   24.8474 C   0  0  0  0  0  0
  -21.4131  -29.3009   22.3733 N   0  0  0  0  0  0
  -26.4312  -37.3788   23.9386 N   0  0  0  0  0  0
  -24.6638  -31.0815   22.0995 N   0  0  0  0  0  0
  -23.4184  -28.8196   23.3044 O   0  0  0  0  0  0
  -28.3934  -26.7205   20.0820 O   0  0  0  0  0  0
  -26.5613  -34.8918   22.4704 O   0  0  0  0  0  0
  -23.5314  -32.1410   23.7530 O   0  0  0  0  0  0
  -29.7132  -19.8601   21.1185 C   0  0  0  0  0  0
  -29.7554  -18.5946   21.7396 C   0  0  0  0  0  0
  -31.7172  -18.0197   20.4281 C   0  0  0  0  0  0
  -30.6825  -20.2309   20.1584 C   0  0  0  0  0  0
  -30.7749  -17.6768   21.4171 C   0  0  0  0  0  0
  -31.6774  -19.2841   19.8011 C   0  0  0  0  0  0
  -29.9617  -21.8589   18.2623 C   0  0  0  0  0  0
  -30.7014  -21.6204   19.5615 C   0  0  1  0  0  0
  -29.5265  -22.5875   19.5143 C   0  0  1  0  0  0
  -32.7399  -19.6201   18.7674 C   0  0  0  0  0  0
  -30.9090  -16.3634   22.1783 C   0  0  0  0  0  0
  -29.6570  -24.7518   20.7498 C   0  0  0  0  0  0
  -28.2930  -25.4584   20.7492 C   0  0  0  0  0  0
  -30.2308  -15.2233   21.5692 N   0  0  0  0  0  0
  -29.9125  -24.0213   19.4866 N   0  3  0  0  0  0
  -31.4573  -12.3991   19.0863 H   0  0  0  0  0  0
  -30.3160  -11.2770   19.7682 H   0  0  0  0  0  0
  -29.7144  -11.8089   17.3949 H   0  0  0  0  0  0
  -29.6495  -13.5139   17.7709 H   0  0  0  0  0  0
  -27.8150  -11.3170   18.7937 H   0  0  0  0  0  0
  -27.3508  -12.6607   17.7845 H   0  0  0  0  0  0
  -27.7178  -14.2553   19.5968 H   0  0  0  0  0  0
  -28.6710  -11.9067   21.3034 H   0  0  0  0  0  0
  -28.4504  -13.5245   21.8807 H   0  0  0  0  0  0
  -25.2743   -9.5700   22.4762 H   0  0  0  0  0  0
  -23.9990   -7.4644   22.7474 H   0  0  0  0  0  0
  -21.0834   -8.8756   19.8943 H   0  0  0  0  0  0
  -22.3672  -10.9663   19.6156 H   0  0  0  0  0  0
  -21.2004   -7.6143   23.9712 H   0  0  0  0  0  0
  -21.1480   -6.0521   25.9078 H   0  0  0  0  0  0
  -22.0603   -2.7605   23.2853 H   0  0  0  0  0  0
  -22.4099  -11.9858   22.4754 H   0  0  0  0  0  0
  -21.1123  -13.1255   22.2615 H   0  0  0  0  0  0
  -24.6731  -15.8485   20.5168 H   0  0  0  0  0  0
  -26.2978  -15.6230   20.1106 H   0  0  0  0  0  0
  -26.7092  -32.5537   23.1169 H   0  0  0  0  0  0
  -24.9967  -33.9766   25.0429 H   0  0  0  0  0  0
  -22.6843  -31.3067   21.4159 H   0  0  0  0  0  0
  -23.3741  -35.9652   23.3335 H   0  0  0  0  0  0
  -24.3559  -36.8918   22.2062 H   0  0  0  0  0  0
  -23.7244  -37.6523   23.6667 H   0  0  0  0  0  0
  -26.0362  -31.6144   20.5964 H   0  0  0  0  0  0
  -26.8131  -30.8932   21.9791 H   0  0  0  0  0  0
  -28.1089  -29.1380   21.1222 H   0  0  0  0  0  0
  -26.0531  -25.9714   19.0314 H   0  0  0  0  0  0
  -23.9697  -27.2854   19.0574 H   0  0  0  0  0  0
  -23.7083  -30.5982   19.4050 H   0  0  0  0  0  0
  -22.7303  -29.2424   19.8754 H   0  0  0  0  0  0
  -25.1302  -36.1987   25.0832 H   0  0  0  0  0  0
  -20.9934  -28.3222   24.1458 H   0  0  0  0  0  0
  -20.5601  -26.2256   23.3623 H   0  0  0  0  0  0
  -21.6628  -26.7407   22.1272 H   0  0  0  0  0  0
  -19.6901  -25.6300   21.1215 H   0  0  0  0  0  0
  -19.6709  -27.3196   20.6737 H   0  0  0  0  0  0
  -17.4202  -26.6721   21.3953 H   0  0  0  0  0  0
  -18.0261  -26.0051   22.8942 H   0  0  0  0  0  0
  -19.7921  -30.7234   24.2310 H   0  0  0  0  0  0
  -17.5002  -31.6255   24.5174 H   0  0  0  0  0  0
  -15.5334  -30.2988   23.7641 H   0  0  0  0  0  0
  -15.8647  -28.0811   22.7069 H   0  0  0  0  0  0
  -24.6072  -30.6751   25.7795 H   0  0  0  0  0  0
  -24.8622  -32.2731   26.4674 H   0  0  0  0  0  0
  -25.8080  -30.9058   27.0309 H   0  0  0  0  0  0
  -26.2888  -29.6779   24.1172 H   0  0  0  0  0  0
  -27.4166  -29.7339   25.4538 H   0  0  0  0  0  0
  -27.8677  -30.4419   23.9205 H   0  0  0  0  0  0
  -27.2648  -33.3642   26.2038 H   0  0  0  0  0  0
  -28.3825  -32.6862   25.0300 H   0  0  0  0  0  0
  -28.0684  -31.8459   26.5393 H   0  0  0  0  0  0
  -28.2646  -38.0069   24.7478 H   0  0  0  0  0  0
  -28.1030  -36.2599   24.6381 H   0  0  0  0  0  0
  -27.2276  -37.1571   25.8872 H   0  0  0  0  0  0
  -20.9286  -29.8727   21.6959 H   0  0  0  0  0  0
  -26.0207  -38.2876   24.1352 H   0  0  0  0  0  0
  -28.9401  -20.5564   21.4118 H   0  0  0  0  0  0
  -29.0218  -18.3458   22.4939 H   0  0  0  0  0  0
  -32.5000  -17.3160   20.1754 H   0  0  0  0  0  0
  -29.2979  -21.0724   17.9047 H   0  0  0  0  0  0
  -30.4813  -22.4144   17.4833 H   0  0  0  0  0  0
  -31.6913  -22.0597   19.6746 H   0  0  0  0  0  0
  -28.5493  -22.3559   19.9342 H   0  0  0  0  0  0
  -33.3562  -18.7537   18.5274 H   0  0  0  0  0  0
  -33.4019  -20.4024   19.1394 H   0  0  0  0  0  0
  -32.2861  -19.9648   17.8375 H   0  0  0  0  0  0
  -30.5078  -16.4957   23.1840 H   0  0  0  0  0  0
  -31.9680  -16.1347   22.3184 H   0  0  0  0  0  0
  -29.7151  -24.0556   21.5874 H   0  0  0  0  0  0
  -30.4458  -25.4875   20.9118 H   0  0  0  0  0  0
  -27.9911  -25.6403   21.7823 H   0  0  0  0  0  0
  -27.5312  -24.8118   20.3126 H   0  0  0  0  0  0
  -29.3423  -14.9571   21.9654 H   0  0  0  0  0  0
  -29.4386  -24.4993   18.7352 H   0  0  0  0  0  0
  -30.8987  -24.0808   19.2898 H   0  0  0  0  0  0
  1 25  1  0  0  0
  1 30  2  0  0  0
  1 84  1  0  0  0
  2  3  1  0  0  0
  2 25  1  0  0  0
  2 86  1  0  0  0
  2 87  1  0  0  0
  3  4  1  0  0  0
  3 88  1  0  0  0
  3 89  1  0  0  0
  4  5  1  0  0  0
  4 90  1  0  0  0
  4 91  1  0  0  0
  5  6  1  0  0  0
  5 26  1  0  0  0
  5 92  1  0  0  0
  6 25  1  0  0  0
  6 93  1  0  0  0
  6 94  1  0  0  0
  7  8  2  0  0  0
  7 26  1  0  0  0
  7 29  1  0  0  0
  8  9  1  0  0  0
  8 22  1  0  0  0
  9 10  1  0  0  0
  9 27  2  0  0  0
 10 11  2  0  0  0
 10 15  1  0  0  0
 11 12  1  0  0  0
 11 95  1  0  0  0
 12 13  2  0  0  0
 12 96  1  0  0  0
 13 14  1  0  0  0
 13 31  1  0  0  0
 14 15  2  0  0  0
 14 97  1  0  0  0
 15 98  1  0  0  0
 16 17  2  0  0  0
 16 21  1  0  0  0
 16 31  1  0  0  0
 17 18  1  0  0  0
 17 99  1  0  0  0
 18 19  2  0  0  0
 18100  1  0  0  0
 19 20  1  0  0  0
 19 24  1  0  0  0
 20 21  2  0  0  0
 20101  1  0  0  0
 21 23  1  0  0  0
 22 28  1  0  0  0
 22 32  2  0  0  0
 26 27  1  0  0  0
 28102  1  0  0  0
 28103  1  0  0  0
 29104  1  0  0  0
 29105  1  0  0  0
 33 34  1  0  0  0
 33 66  1  0  0  0
 33 70  2  0  0  0
 34 36  1  0  0  0
 34 59  1  0  0  0
 34106  1  0  0  0
 35 44  2  0  0  0
 35 45  1  0  0  0
 35 68  1  0  0  0
 36 56  1  0  0  0
 36107  1  0  0  0
 37 39  1  0  0  0
 37 47  1  0  0  0
 37 66  1  0  0  0
 37108  1  0  0  0
 38 43  2  0  0  0
 38 46  1  0  0  0
 38 47  1  0  0  0
 39 64  1  0  0  0
 39 67  2  0  0  0
 40 52  1  0  0  0
 40 53  2  0  0  0
 40 58  1  0  0  0
 41109  1  0  0  0
 41110  1  0  0  0
 41111  1  0  0  0
 41 48  1  0  0  0
 42 43  1  0  0  0
 42 66  1  0  0  0
 42112  1  0  0  0
 42113  1  0  0  0
 43 44  1  0  0  0
 44114  1  0  0  0
 45 46  2  0  0  0
 45115  1  0  0  0
 46116  1  0  0  0
 47117  1  0  0  0
 47118  1  0  0  0
 48 56  1  0  0  0
 48 65  1  0  0  0
 48119  1  0  0  0
 49 50  1  0  0  0
 49 53  1  0  0  0
 49 64  1  0  0  0
 49120  1  0  0  0
 50 51  1  0  0  0
 50121  1  0  0  0
 50122  1  0  0  0
 51 52  1  0  0  0
 51123  1  0  0  0
 51124  1  0  0  0
 52125  1  0  0  0
 52126  1  0  0  0
 53 54  1  0  0  0
 54 55  2  0  0  0
 54127  1  0  0  0
 55 57  1  0  0  0
 55128  1  0  0  0
 56 69  2  0  0  0
 57 58  2  0  0  0
 57129  1  0  0  0
 58130  1  0  0  0
 59 60  1  0  0  0
 59 61  1  0  0  0
 59 62  1  0  0  0
 60131  1  0  0  0
 60132  1  0  0  0
 60133  1  0  0  0
 61134  1  0  0  0
 61135  1  0  0  0
 61136  1  0  0  0
 62137  1  0  0  0
 62138  1  0  0  0
 62139  1  0  0  0
 63 65  1  0  0  0
 63140  1  0  0  0
 63141  1  0  0  0
 63142  1  0  0  0
 64143  1  0  0  0
 65144  1  0  0  0
 68 83  1  0  0  0
 71 72  2  0  0  0
 71 74  1  0  0  0
 71145  1  0  0  0
 72 75  1  0  0  0
 72146  1  0  0  0
 73 75  2  0  0  0
 73 76  1  0  0  0
 73147  1  0  0  0
 74 76  2  0  0  0
 74 78  1  0  0  0
 75 81  1  0  0  0
 76 80  1  0  0  0
 77 78  1  0  0  0
 77 79  1  0  0  0
 77148  1  0  0  0
 77149  1  0  0  0
 78 79  1  0  0  0
 78150  1  0  0  0
 79 85  1  0  0  0
 79151  1  0  0  0
 80152  1  0  0  0
 80153  1  0  0  0
 80154  1  0  0  0
 81 84  1  0  0  0
 81155  1  0  0  0
 81156  1  0  0  0
 82 83  1  0  0  0
 82 85  1  0  0  0
 82157  1  0  0  0
 82158  1  0  0  0
 83159  1  0  0  0
 83160  1  0  0  0
 84161  1  0  0  0
 85162  1  0  0  0
 85163  1  0  0  0
M  CHG  1  85   1
M  ISO  4   1 100  68 101  83 101  84 100
M  END
> <chiral flag>
0

> <version>
0

> <s_m_source_file>
/data/baiqing/PycharmProjects/Reinvent-master-3.2/result/LINK_invent/BTK/process_docking_weight1_custom_sum_contain_oxygen_bond_distance_aromatic_linkinvent_7_9_3/rearranged_h_0150.sdf

> <i_m_source_file_index>
18

> <r_mmod_Potential_Energy-OPLS-2005>
-250.173751831055

> <r_mmod_Stretch_Energy-OPLS-2005>
33.0801239013672

> <r_mmod_Bend_Energy-OPLS-2005>
91.2585220336914

> <r_mmod_Torsional_Energy-OPLS-2005>
272.504669189453

> <r_mmod_Improper_Torsional_Energy-OPLS-2005>
2.08271670341492

> <r_mmod_Van_der_Waal_Energy-OPLS-2005>
147.581207275391

> <r_mmod_Electrostatic_Energy-OPLS-2005>
-350.207214355469

> <r_mmod_Solvation_Energy-OPLS-2005>
-454.289215087891

> <b_mmod_Minimization_Converged-OPLS-2005>
0

> <r_mmod_RMS_Derivative-OPLS-2005>
1.73666179180145

$$$$
18
                    3D
 Structure written by MMmdl.
166175  0  0  1  0            999 V2000
  -30.6856  -14.5509   20.5371 C   0  0  0  0  0  0
  -30.4236  -12.3490   19.4407 C   0  0  0  0  0  0
  -29.4974  -12.4988   18.2163 C   0  0  0  0  0  0
  -28.0206  -12.3509   18.6309 C   0  0  0  0  0  0
  -27.6545  -13.2163   19.8668 C   0  0  2  0  0  0
  -28.6981  -13.0561   20.9945 C   0  0  0  0  0  0
  -25.2563  -13.8182   20.5692 C   0  0  0  0  0  0
  -24.1828  -13.0449   20.9189 C   0  0  0  0  0  0
  -24.6394  -11.6917   20.8749 C   0  0  0  0  0  0
  -23.9062  -10.4298   21.0410 C   0  0  0  0  0  0
  -24.3614   -9.4214   21.9188 C   0  0  0  0  0  0
  -23.6292   -8.2248   22.0756 C   0  0  0  0  0  0
  -22.4274   -8.0284   21.3544 C   0  0  0  0  0  0
  -21.9911   -9.0260   20.4646 C   0  0  0  0  0  0
  -22.7238  -10.2139   20.3060 C   0  0  0  0  0  0
  -21.6852   -6.0737   22.5281 C   0  0  0  0  0  0
  -21.4010   -6.5640   23.8212 C   0  0  0  0  0  0
  -21.3660   -5.6795   24.9173 C   0  0  0  0  0  0
  -21.6044   -4.3058   24.7226 C   0  0  0  0  0  0
  -21.8819   -3.8149   23.4346 C   0  0  0  0  0  0
  -21.9191   -4.6965   22.3403 C   0  0  0  0  0  0
  -22.7846  -13.5241   21.1851 C   0  0  0  0  0  0
  -22.1660   -4.2152   21.0980 F   0  0  0  0  0  0
  -21.5631   -3.4541   25.7738 F   0  0  0  0  0  0
  -30.0187  -13.3659   20.4285 N   0  0  0  0  0  0
  -26.2992  -12.9367   20.3343 N   0  0  0  0  0  0
  -25.9323  -11.6519   20.5775 N   0  0  0  0  0  0
  -22.0481  -12.8234   22.0397 N   0  0  0  0  0  0
  -25.4285  -15.1902   20.4101 N   0  0  0  0  0  0
  -31.8392  -14.6864   20.1223 O   0  0  0  0  0  0
  -21.6638   -6.8883   21.4241 O   0  0  0  0  0  0
  -22.3538  -14.5551   20.6699 O   0  0  0  0  0  0
  -24.6193  -31.8644   23.2078 C   0  0  0  0  0  0
  -25.9072  -32.4806   23.8383 C   0  0  1  0  0  0
  -27.2240  -27.3968   20.1038 C   0  0  0  0  0  0
  -25.5920  -33.8604   24.2315 N   0  0  0  0  0  0
  -23.4100  -30.4874   21.5487 C   0  0  2  0  0  0
  -24.8577  -28.9539   20.1098 C   0  0  0  0  0  0
  -22.7438  -29.4631   22.4962 C   0  0  0  0  0  0
  -18.0271  -28.1375   22.8488 C   0  0  0  0  0  0
  -24.1487  -36.7299   23.2636 C   0  0  0  0  0  0
  -25.9428  -30.8194   21.3673 C   0  0  0  0  0  0
  -26.0214  -29.4528   20.7108 C   0  0  0  0  0  0
  -27.2132  -28.6817   20.7049 C   0  0  0  0  0  0
  -26.0491  -26.9267   19.4856 C   0  0  0  0  0  0
  -24.8680  -27.6918   19.4915 C   0  0  0  0  0  0
  -23.6201  -29.8237   20.1623 C   0  0  0  0  0  0
  -25.4110  -36.3095   24.0335 C   0  0  1  0  0  0
  -20.5869  -28.3666   23.1307 C   0  0  2  0  0  0
  -20.6762  -26.9399   22.5412 C   0  0  0  0  0  0
  -19.5743  -26.6377   21.5207 C   0  0  0  0  0  0
  -18.1917  -26.7922   22.1615 C   0  0  0  0  0  0
  -19.1525  -28.8836   23.2893 C   0  0  0  0  0  0
  -18.9455  -30.1440   23.8907 C   0  0  0  0  0  0
  -17.6461  -30.6586   24.0565 C   0  0  0  0  0  0
  -25.9046  -34.9465   23.5123 C   0  0  0  0  0  0
  -16.5348  -29.9086   23.6337 C   0  0  0  0  0  0
  -16.7263  -28.6499   23.0362 C   0  0  0  0  0  0
  -26.4495  -31.6598   25.0720 C   0  0  0  0  0  0
  -25.3758  -31.3708   26.1467 C   0  0  0  0  0  0
  -27.0338  -30.3039   24.6111 C   0  0  0  0  0  0
  -27.6058  -32.4325   25.7491 C   0  0  0  0  0  0
  -27.5587  -37.1787   24.8459 C   0  0  0  0  0  0
  -21.4158  -29.3026   22.3710 N   0  0  0  0  0  0
  -26.4285  -37.3791   23.9424 N   0  0  0  0  0  0
  -24.6756  -31.0714   22.0997 N   0  0  0  0  0  0
  -23.4191  -28.8173   23.3019 O   0  0  0  0  0  0
  -28.3194  -26.5524   20.1446 O   0  0  0  0  0  0
  -26.5599  -34.8924   22.4676 O   0  0  0  0  0  0
  -23.5379  -32.1414   23.7450 O   0  0  0  0  0  0
  -29.9032  -23.6332   21.2828 C   0  0  0  0  0  0
  -28.0450  -21.7394   20.3950 C   0  0  0  0  0  0
  -30.2463  -22.2569   21.2629 C   0  0  0  0  0  0
  -28.6220  -24.0879   20.8967 C   0  0  0  0  0  0
  -29.3098  -21.2789   20.8399 C   0  0  0  0  0  0
  -27.6913  -23.1265   20.4174 C   0  0  0  0  0  0
  -30.4831  -17.8498   19.7365 C   0  0  0  0  0  0
  -29.9247  -17.8393   22.2951 C   0  0  0  0  0  0
  -29.5851  -19.1174   19.6586 C   0  0  0  0  0  0
  -29.0916  -19.1197   22.0018 C   0  0  0  0  0  0
  -30.4706  -17.0342   21.0716 C   0  0  0  0  0  0
  -31.6313  -21.8399   21.7276 C   0  0  0  0  0  0
  -25.5326  -22.6874   19.4446 C   0  0  0  0  0  0
  -28.2064  -25.5548   21.1933 C   0  0  0  0  0  0
  -29.6476  -19.8951   20.8932 N   0  0  0  0  0  0
  -29.9728  -15.6281   20.9659 N   0  0  0  0  0  0
  -26.4536  -23.5979   20.0310 O   0  0  0  0  0  0
  -31.4680  -12.4491   19.1389 H   0  0  0  0  0  0
  -30.3343  -11.3511   19.8723 H   0  0  0  0  0  0
  -29.7485  -11.7532   17.4606 H   0  0  0  0  0  0
  -29.6532  -13.4732   17.7501 H   0  0  0  0  0  0
  -27.8468  -11.2975   18.8536 H   0  0  0  0  0  0
  -27.3670  -12.5948   17.7928 H   0  0  0  0  0  0
  -27.6810  -14.2547   19.5361 H   0  0  0  0  0  0
  -28.6918  -12.0360   21.3809 H   0  0  0  0  0  0
  -28.4580  -13.6978   21.8437 H   0  0  0  0  0  0
  -25.2758   -9.5689   22.4764 H   0  0  0  0  0  0
  -24.0002   -7.4637   22.7475 H   0  0  0  0  0  0
  -21.0843   -8.8779   19.8950 H   0  0  0  0  0  0
  -22.3698  -10.9680   19.6170 H   0  0  0  0  0  0
  -21.1998   -7.6148   23.9716 H   0  0  0  0  0  0
  -21.1484   -6.0524   25.9077 H   0  0  0  0  0  0
  -22.0597   -2.7612   23.2846 H   0  0  0  0  0  0
  -22.4085  -11.9894   22.4793 H   0  0  0  0  0  0
  -21.1098  -13.1268   22.2596 H   0  0  0  0  0  0
  -24.6641  -15.8473   20.5204 H   0  0  0  0  0  0
  -26.2790  -15.6265   20.0780 H   0  0  0  0  0  0
  -26.7143  -32.5504   23.1146 H   0  0  0  0  0  0
  -25.0098  -33.9766   25.0478 H   0  0  0  0  0  0
  -22.6995  -31.3048   21.4096 H   0  0  0  0  0  0
  -23.3754  -35.9627   23.3296 H   0  0  0  0  0  0
  -24.3586  -36.8914   22.2050 H   0  0  0  0  0  0
  -23.7234  -37.6497   23.6660 H   0  0  0  0  0  0
  -26.0613  -31.5862   20.6007 H   0  0  0  0  0  0
  -26.8281  -30.8690   21.9890 H   0  0  0  0  0  0
  -28.1078  -29.0536   21.1847 H   0  0  0  0  0  0
  -26.0421  -25.9509   19.0214 H   0  0  0  0  0  0
  -23.9748  -27.3008   19.0244 H   0  0  0  0  0  0
  -23.7281  -30.6007   19.4038 H   0  0  0  0  0  0
  -22.7431  -29.2444   19.8681 H   0  0  0  0  0  0
  -25.1281  -36.1950   25.0826 H   0  0  0  0  0  0
  -20.9956  -28.3232   24.1430 H   0  0  0  0  0  0
  -20.5668  -26.2267   23.3597 H   0  0  0  0  0  0
  -21.6629  -26.7441   22.1200 H   0  0  0  0  0  0
  -19.6917  -25.6289   21.1231 H   0  0  0  0  0  0
  -19.6699  -27.3187   20.6739 H   0  0  0  0  0  0
  -17.4191  -26.6668   21.4013 H   0  0  0  0  0  0
  -18.0327  -26.0061   22.9009 H   0  0  0  0  0  0
  -19.7940  -30.7239   24.2285 H   0  0  0  0  0  0
  -17.5028  -31.6278   24.5143 H   0  0  0  0  0  0
  -15.5354  -30.2995   23.7662 H   0  0  0  0  0  0
  -15.8657  -28.0821   22.7090 H   0  0  0  0  0  0
  -24.5933  -30.7055   25.7806 H   0  0  0  0  0  0
  -24.8954  -32.2860   26.4928 H   0  0  0  0  0  0
  -25.8107  -30.8873   27.0221 H   0  0  0  0  0  0
  -26.2894  -29.6778   24.1180 H   0  0  0  0  0  0
  -27.4124  -29.7297   25.4576 H   0  0  0  0  0  0
  -27.8720  -30.4357   23.9266 H   0  0  0  0  0  0
  -27.2679  -33.3624   26.2083 H   0  0  0  0  0  0
  -28.3872  -32.6886   25.0321 H   0  0  0  0  0  0
  -28.0730  -31.8443   26.5400 H   0  0  0  0  0  0
  -28.2567  -38.0121   24.7562 H   0  0  0  0  0  0
  -28.1118  -36.2651   24.6215 H   0  0  0  0  0  0
  -27.2312  -37.1351   25.8860 H   0  0  0  0  0  0
  -20.9319  -29.8769   21.6949 H   0  0  0  0  0  0
  -26.0168  -38.2856   24.1464 H   0  0  0  0  0  0
  -30.6187  -24.3528   21.6552 H   0  0  0  0  0  0
  -27.3336  -20.9963   20.0693 H   0  0  0  0  0  0
  -31.5090  -18.1830   19.5713 H   0  0  0  0  0  0
  -30.2634  -17.2005   18.8881 H   0  0  0  0  0  0
  -29.3602  -17.1862   22.9621 H   0  0  0  0  0  0
  -30.7851  -18.1567   22.8870 H   0  0  0  0  0  0
  -28.5506  -18.8244   19.4693 H   0  0  0  0  0  0
  -29.8916  -19.7357   18.8129 H   0  0  0  0  0  0
  -29.0332  -19.7340   22.9024 H   0  0  0  0  0  0
  -28.0652  -18.8381   21.7593 H   0  0  0  0  0  0
  -31.5277  -16.9056   21.3159 H   0  0  0  0  0  0
  -32.2259  -22.6958   22.0468 H   0  0  0  0  0  0
  -32.1623  -21.3395   20.9177 H   0  0  0  0  0  0
  -31.5587  -21.1490   22.5677 H   0  0  0  0  0  0
  -24.6573  -23.2378   19.0995 H   0  0  0  0  0  0
  -25.1903  -21.9475   20.1689 H   0  0  0  0  0  0
  -25.9589  -22.1782   18.5788 H   0  0  0  0  0  0
  -28.8175  -25.9116   22.0234 H   0  0  0  0  0  0
  -27.1938  -25.5218   21.6023 H   0  0  0  0  0  0
  -29.0177  -15.4527   21.2396 H   0  0  0  0  0  0
  1 25  1  0  0  0
  1 30  2  0  0  0
  1 86  1  0  0  0
  2  3  1  0  0  0
  2 25  1  0  0  0
  2 88  1  0  0  0
  2 89  1  0  0  0
  3  4  1  0  0  0
  3 90  1  0  0  0
  3 91  1  0  0  0
  4  5  1  0  0  0
  4 92  1  0  0  0
  4 93  1  0  0  0
  5  6  1  0  0  0
  5 26  1  0  0  0
  5 94  1  0  0  0
  6 25  1  0  0  0
  6 95  1  0  0  0
  6 96  1  0  0  0
  7  8  2  0  0  0
  7 26  1  0  0  0
  7 29  1  0  0  0
  8  9  1  0  0  0
  8 22  1  0  0  0
  9 10  1  0  0  0
  9 27  2  0  0  0
 10 11  2  0  0  0
 10 15  1  0  0  0
 11 12  1  0  0  0
 11 97  1  0  0  0
 12 13  2  0  0  0
 12 98  1  0  0  0
 13 14  1  0  0  0
 13 31  1  0  0  0
 14 15  2  0  0  0
 14 99  1  0  0  0
 15100  1  0  0  0
 16 17  2  0  0  0
 16 21  1  0  0  0
 16 31  1  0  0  0
 17 18  1  0  0  0
 17101  1  0  0  0
 18 19  2  0  0  0
 18102  1  0  0  0
 19 20  1  0  0  0
 19 24  1  0  0  0
 20 21  2  0  0  0
 20103  1  0  0  0
 21 23  1  0  0  0
 22 28  1  0  0  0
 22 32  2  0  0  0
 26 27  1  0  0  0
 28104  1  0  0  0
 28105  1  0  0  0
 29106  1  0  0  0
 29107  1  0  0  0
 33 34  1  0  0  0
 33 66  1  0  0  0
 33 70  2  0  0  0
 34 36  1  0  0  0
 34 59  1  0  0  0
 34108  1  0  0  0
 35 44  2  0  0  0
 35 45  1  0  0  0
 35 68  1  0  0  0
 36 56  1  0  0  0
 36109  1  0  0  0
 37 39  1  0  0  0
 37 47  1  0  0  0
 37 66  1  0  0  0
 37110  1  0  0  0
 38 43  2  0  0  0
 38 46  1  0  0  0
 38 47  1  0  0  0
 39 64  1  0  0  0
 39 67  2  0  0  0
 40 52  1  0  0  0
 40 53  2  0  0  0
 40 58  1  0  0  0
 41111  1  0  0  0
 41112  1  0  0  0
 41113  1  0  0  0
 41 48  1  0  0  0
 42 43  1  0  0  0
 42 66  1  0  0  0
 42114  1  0  0  0
 42115  1  0  0  0
 43 44  1  0  0  0
 44116  1  0  0  0
 45 46  2  0  0  0
 45117  1  0  0  0
 46118  1  0  0  0
 47119  1  0  0  0
 47120  1  0  0  0
 48 56  1  0  0  0
 48 65  1  0  0  0
 48121  1  0  0  0
 49 50  1  0  0  0
 49 53  1  0  0  0
 49 64  1  0  0  0
 49122  1  0  0  0
 50 51  1  0  0  0
 50123  1  0  0  0
 50124  1  0  0  0
 51 52  1  0  0  0
 51125  1  0  0  0
 51126  1  0  0  0
 52127  1  0  0  0
 52128  1  0  0  0
 53 54  1  0  0  0
 54 55  2  0  0  0
 54129  1  0  0  0
 55 57  1  0  0  0
 55130  1  0  0  0
 56 69  2  0  0  0
 57 58  2  0  0  0
 57131  1  0  0  0
 58132  1  0  0  0
 59 60  1  0  0  0
 59 61  1  0  0  0
 59 62  1  0  0  0
 60133  1  0  0  0
 60134  1  0  0  0
 60135  1  0  0  0
 61136  1  0  0  0
 61137  1  0  0  0
 61138  1  0  0  0
 62139  1  0  0  0
 62140  1  0  0  0
 62141  1  0  0  0
 63 65  1  0  0  0
 63142  1  0  0  0
 63143  1  0  0  0
 63144  1  0  0  0
 64145  1  0  0  0
 65146  1  0  0  0
 68 84  1  0  0  0
 71 73  2  0  0  0
 71 74  1  0  0  0
 71147  1  0  0  0
 72 75  2  0  0  0
 72 76  1  0  0  0
 72148  1  0  0  0
 73 75  1  0  0  0
 73 82  1  0  0  0
 74 76  2  0  0  0
 74 84  1  0  0  0
 75 85  1  0  0  0
 76 87  1  0  0  0
 77 79  1  0  0  0
 77 81  1  0  0  0
 77149  1  0  0  0
 77150  1  0  0  0
 78 80  1  0  0  0
 78 81  1  0  0  0
 78151  1  0  0  0
 78152  1  0  0  0
 79 85  1  0  0  0
 79153  1  0  0  0
 79154  1  0  0  0
 80 85  1  0  0  0
 80155  1  0  0  0
 80156  1  0  0  0
 81 86  1  0  0  0
 81157  1  0  0  0
 82158  1  0  0  0
 82159  1  0  0  0
 82160  1  0  0  0
 83 87  1  0  0  0
 83161  1  0  0  0
 83162  1  0  0  0
 83163  1  0  0  0
 84164  1  0  0  0
 84165  1  0  0  0
 86166  1  0  0  0
M  ISO  4   1 100  68 101  84 101  86 100
M  END
> <chiral flag>
0

> <version>
0

> <s_m_source_file>
/data/baiqing/PycharmProjects/Reinvent-master-3.2/result/LINK_invent/BTK/process_docking_weight1_custom_sum_contain_oxygen_bond_distance_aromatic_linkinvent_7_9_3/rearranged_h_0150.sdf

> <i_m_source_file_index>
19

> <r_mmod_Potential_Energy-OPLS-2005>
88.651969909668

> <r_mmod_Stretch_Energy-OPLS-2005>
53.2196502685547

> <r_mmod_Bend_Energy-OPLS-2005>
128.095367431641

> <r_mmod_Torsional_Energy-OPLS-2005>
302.722259521484

> <r_mmod_Improper_Torsional_Energy-OPLS-2005>
8.67352199554443

> <r_mmod_Van_der_Waal_Energy-OPLS-2005>
152.252029418945

> <r_mmod_Electrostatic_Energy-OPLS-2005>
-368.864532470703

> <r_mmod_Solvation_Energy-OPLS-2005>
-214.404678344727

> <b_mmod_Minimization_Converged-OPLS-2005>
0

> <r_mmod_RMS_Derivative-OPLS-2005>
1.02265918254852

$$$$
19
                    3D
 Structure written by MMmdl.
167176  0  0  1  0            999 V2000
  -30.7131  -14.4497   20.5418 C   0  0  0  0  0  0
  -30.4126  -12.2831   19.4259 C   0  0  0  0  0  0
  -29.4907  -12.4970   18.2076 C   0  0  0  0  0  0
  -28.0112  -12.3676   18.6189 C   0  0  0  0  0  0
  -27.6614  -13.2079   19.8766 C   0  0  2  0  0  0
  -28.7033  -12.9968   21.0002 C   0  0  0  0  0  0
  -25.2584  -13.8168   20.5682 C   0  0  0  0  0  0
  -24.1840  -13.0445   20.9178 C   0  0  0  0  0  0
  -24.6395  -11.6912   20.8746 C   0  0  0  0  0  0
  -23.9065  -10.4299   21.0414 C   0  0  0  0  0  0
  -24.3613   -9.4212   21.9193 C   0  0  0  0  0  0
  -23.6289   -8.2247   22.0762 C   0  0  0  0  0  0
  -22.4271   -8.0286   21.3548 C   0  0  0  0  0  0
  -21.9913   -9.0260   20.4649 C   0  0  0  0  0  0
  -22.7238  -10.2141   20.3060 C   0  0  0  0  0  0
  -21.6851   -6.0741   22.5281 C   0  0  0  0  0  0
  -21.4016   -6.5647   23.8216 C   0  0  0  0  0  0
  -21.3660   -5.6800   24.9177 C   0  0  0  0  0  0
  -21.6045   -4.3063   24.7226 C   0  0  0  0  0  0
  -21.8821   -3.8155   23.4349 C   0  0  0  0  0  0
  -21.9192   -4.6968   22.3402 C   0  0  0  0  0  0
  -22.7860  -13.5240   21.1840 C   0  0  0  0  0  0
  -22.1662   -4.2156   21.0978 F   0  0  0  0  0  0
  -21.5629   -3.4544   25.7734 F   0  0  0  0  0  0
  -30.0357  -13.2763   20.4432 N   0  0  0  0  0  0
  -26.3026  -12.9342   20.3383 N   0  0  0  0  0  0
  -25.9322  -11.6501   20.5784 N   0  0  0  0  0  0
  -22.0507  -12.8224   22.0391 N   0  0  0  0  0  0
  -25.4304  -15.1889   20.4083 N   0  0  0  0  0  0
  -31.8562  -14.5992   20.1037 O   0  0  0  0  0  0
  -21.6636   -6.8882   21.4239 O   0  0  0  0  0  0
  -22.3546  -14.5554   20.6698 O   0  0  0  0  0  0
  -24.6118  -31.8689   23.2117 C   0  0  0  0  0  0
  -25.9019  -32.4832   23.8409 C   0  0  1  0  0  0
  -27.2394  -27.4573   20.0974 C   0  0  0  0  0  0
  -25.5885  -33.8631   24.2341 N   0  0  0  0  0  0
  -23.4004  -30.4897   21.5513 C   0  0  2  0  0  0
  -24.8511  -28.9592   20.1124 C   0  0  0  0  0  0
  -22.7404  -29.4648   22.5008 C   0  0  0  0  0  0
  -18.0266  -28.1371   22.8495 C   0  0  0  0  0  0
  -24.1489  -36.7327   23.2639 C   0  0  0  0  0  0
  -25.9251  -30.8411   21.3627 C   0  0  0  0  0  0
  -26.0061  -29.4757   20.7140 C   0  0  0  0  0  0
  -27.2036  -28.7286   20.7125 C   0  0  0  0  0  0
  -26.0779  -26.9544   19.4804 C   0  0  0  0  0  0
  -24.8801  -27.6957   19.4939 C   0  0  0  0  0  0
  -23.6086  -29.8193   20.1656 C   0  0  0  0  0  0
  -25.4109  -36.3125   24.0337 C   0  0  1  0  0  0
  -20.5855  -28.3652   23.1333 C   0  0  2  0  0  0
  -20.6752  -26.9389   22.5423 C   0  0  0  0  0  0
  -19.5734  -26.6379   21.5212 C   0  0  0  0  0  0
  -18.1912  -26.7919   22.1619 C   0  0  0  0  0  0
  -19.1514  -28.8832   23.2905 C   0  0  0  0  0  0
  -18.9442  -30.1441   23.8907 C   0  0  0  0  0  0
  -17.6444  -30.6582   24.0560 C   0  0  0  0  0  0
  -25.9030  -34.9484   23.5138 C   0  0  0  0  0  0
  -16.5334  -29.9081   23.6324 C   0  0  0  0  0  0
  -16.7255  -28.6498   23.0345 C   0  0  0  0  0  0
  -26.4461  -31.6600   25.0723 C   0  0  0  0  0  0
  -25.3728  -31.3666   26.1465 C   0  0  0  0  0  0
  -27.0309  -30.3058   24.6068 C   0  0  0  0  0  0
  -27.6034  -32.4317   25.7493 C   0  0  0  0  0  0
  -27.5586  -37.1821   24.8464 C   0  0  0  0  0  0
  -21.4133  -29.3024   22.3750 N   0  0  0  0  0  0
  -26.4302  -37.3801   23.9403 N   0  0  0  0  0  0
  -24.6635  -31.0803   22.1010 N   0  0  0  0  0  0
  -23.4182  -28.8192   23.3045 O   0  0  0  0  0  0
  -28.3688  -26.6762   20.1079 O   0  0  0  0  0  0
  -26.5594  -34.8927   22.4701 O   0  0  0  0  0  0
  -23.5314  -32.1436   23.7519 O   0  0  0  0  0  0
  -30.8976  -22.4555   21.8233 C   0  0  0  0  0  0
  -31.1042  -20.1201   21.1108 C   0  0  0  0  0  0
  -29.8776  -20.2402   20.3994 C   0  0  0  0  0  0
  -31.5891  -21.2302   21.8505 C   0  0  0  0  0  0
  -29.1599  -21.4758   20.4322 C   0  0  0  0  0  0
  -29.6871  -22.6048   21.1110 C   0  0  0  0  0  0
  -31.9351  -18.8326   21.0227 C   0  0  0  0  0  0
  -29.3835  -19.0671   19.5350 C   0  0  0  0  0  0
  -31.2551  -17.5690   21.5820 C   0  0  0  0  0  0
  -29.0719  -17.7542   20.2902 C   0  0  0  0  0  0
  -30.3259  -16.9009   20.5552 C   0  0  2  0  0  0
  -32.8687  -21.1591   22.6725 C   0  0  0  0  0  0
  -27.8266  -21.6241   19.7052 C   0  0  0  0  0  0
  -28.7048  -26.2224   21.4211 C   0  0  0  0  0  0
  -29.6623  -25.0151   21.4222 C   0  0  0  0  0  0
  -29.9855  -15.5155   20.9279 N   0  0  0  0  0  0
  -28.9933  -23.8045   21.0501 O   0  0  0  0  0  0
  -31.4589  -12.3611   19.1259 H   0  0  0  0  0  0
  -30.2922  -11.2752   19.8257 H   0  0  0  0  0  0
  -29.7230  -11.7739   17.4240 H   0  0  0  0  0  0
  -29.6687  -13.4835   17.7760 H   0  0  0  0  0  0
  -27.8123  -11.3125   18.8103 H   0  0  0  0  0  0
  -27.3648  -12.6515   17.7874 H   0  0  0  0  0  0
  -27.7047  -14.2548   19.5749 H   0  0  0  0  0  0
  -28.6694  -11.9684   21.3648 H   0  0  0  0  0  0
  -28.4802  -13.6237   21.8646 H   0  0  0  0  0  0
  -25.2758   -9.5685   22.4768 H   0  0  0  0  0  0
  -23.9998   -7.4638   22.7486 H   0  0  0  0  0  0
  -21.0851   -8.8776   19.8950 H   0  0  0  0  0  0
  -22.3699  -10.9682   19.6168 H   0  0  0  0  0  0
  -21.2017   -7.6159   23.9715 H   0  0  0  0  0  0
  -21.1484   -6.0535   25.9076 H   0  0  0  0  0  0
  -22.0603   -2.7617   23.2844 H   0  0  0  0  0  0
  -22.4117  -11.9861   22.4744 H   0  0  0  0  0  0
  -21.1130  -13.1250   22.2619 H   0  0  0  0  0  0
  -24.6636  -15.8440   20.5158 H   0  0  0  0  0  0
  -26.2813  -15.6271   20.0807 H   0  0  0  0  0  0
  -26.7095  -32.5562   23.1186 H   0  0  0  0  0  0
  -25.0039  -33.9797   25.0489 H   0  0  0  0  0  0
  -22.6878  -31.3048   21.4119 H   0  0  0  0  0  0
  -23.3749  -35.9661   23.3304 H   0  0  0  0  0  0
  -24.3582  -36.8945   22.2054 H   0  0  0  0  0  0
  -23.7247  -37.6532   23.6654 H   0  0  0  0  0  0
  -26.0308  -31.6054   20.5917 H   0  0  0  0  0  0
  -26.8156  -30.8997   21.9765 H   0  0  0  0  0  0
  -28.0933  -29.1235   21.1827 H   0  0  0  0  0  0
  -26.0985  -25.9819   19.0088 H   0  0  0  0  0  0
  -23.9930  -27.2918   19.0259 H   0  0  0  0  0  0
  -23.7084  -30.5924   19.4031 H   0  0  0  0  0  0
  -22.7354  -29.2314   19.8762 H   0  0  0  0  0  0
  -25.1285  -36.1997   25.0830 H   0  0  0  0  0  0
  -20.9939  -28.3207   24.1457 H   0  0  0  0  0  0
  -20.5657  -26.2253   23.3601 H   0  0  0  0  0  0
  -21.6626  -26.7436   22.1222 H   0  0  0  0  0  0
  -19.6896  -25.6294   21.1234 H   0  0  0  0  0  0
  -19.6682  -27.3198   20.6751 H   0  0  0  0  0  0
  -17.4189  -26.6682   21.4012 H   0  0  0  0  0  0
  -18.0301  -26.0054   22.9007 H   0  0  0  0  0  0
  -19.7918  -30.7254   24.2279 H   0  0  0  0  0  0
  -17.5000  -31.6266   24.5160 H   0  0  0  0  0  0
  -15.5333  -30.2984   23.7640 H   0  0  0  0  0  0
  -15.8657  -28.0820   22.7052 H   0  0  0  0  0  0
  -24.5925  -30.6992   25.7786 H   0  0  0  0  0  0
  -24.8886  -32.2801   26.4921 H   0  0  0  0  0  0
  -25.8092  -30.8830   27.0214 H   0  0  0  0  0  0
  -26.2856  -29.6819   24.1121 H   0  0  0  0  0  0
  -27.4109  -29.7283   25.4506 H   0  0  0  0  0  0
  -27.8670  -30.4409   23.9202 H   0  0  0  0  0  0
  -27.2651  -33.3603   26.2100 H   0  0  0  0  0  0
  -28.3827  -32.6897   25.0310 H   0  0  0  0  0  0
  -28.0719  -31.8422   26.5384 H   0  0  0  0  0  0
  -28.2602  -38.0120   24.7521 H   0  0  0  0  0  0
  -28.1088  -36.2655   24.6288 H   0  0  0  0  0  0
  -27.2300  -37.1469   25.8865 H   0  0  0  0  0  0
  -20.9288  -29.8759   21.6987 H   0  0  0  0  0  0
  -26.0199  -38.2883   24.1394 H   0  0  0  0  0  0
  -31.3276  -23.2799   22.3706 H   0  0  0  0  0  0
  -32.8871  -18.9385   21.5366 H   0  0  0  0  0  0
  -32.2221  -18.6771   19.9823 H   0  0  0  0  0  0
  -30.1293  -18.8831   18.7607 H   0  0  0  0  0  0
  -28.4957  -19.3350   18.9683 H   0  0  0  0  0  0
  -30.7387  -17.7833   22.5182 H   0  0  0  0  0  0
  -32.0465  -16.8607   21.8311 H   0  0  0  0  0  0
  -28.4043  -17.1700   19.6549 H   0  0  0  0  0  0
  -28.5147  -17.9559   21.2056 H   0  0  0  0  0  0
  -30.8607  -16.8427   19.6039 H   0  0  0  0  0  0
  -33.0244  -22.0642   23.2610 H   0  0  0  0  0  0
  -33.7382  -21.0356   22.0266 H   0  0  0  0  0  0
  -32.8310  -20.3251   23.3742 H   0  0  0  0  0  0
  -27.9814  -21.6259   18.6259 H   0  0  0  0  0  0
  -27.3002  -22.5423   19.9628 H   0  0  0  0  0  0
  -27.1537  -20.8062   19.9630 H   0  0  0  0  0  0
  -29.1859  -27.0471   21.9489 H   0  0  0  0  0  0
  -27.8096  -25.9681   21.9926 H   0  0  0  0  0  0
  -30.0285  -24.9271   22.4444 H   0  0  0  0  0  0
  -30.5205  -25.2004   20.7753 H   0  0  0  0  0  0
  -29.0575  -15.3331   21.2792 H   0  0  0  0  0  0
  1 25  1  0  0  0
  1 30  2  0  0  0
  1 86  1  0  0  0
  2  3  1  0  0  0
  2 25  1  0  0  0
  2 88  1  0  0  0
  2 89  1  0  0  0
  3  4  1  0  0  0
  3 90  1  0  0  0
  3 91  1  0  0  0
  4  5  1  0  0  0
  4 92  1  0  0  0
  4 93  1  0  0  0
  5  6  1  0  0  0
  5 26  1  0  0  0
  5 94  1  0  0  0
  6 25  1  0  0  0
  6 95  1  0  0  0
  6 96  1  0  0  0
  7  8  2  0  0  0
  7 26  1  0  0  0
  7 29  1  0  0  0
  8  9  1  0  0  0
  8 22  1  0  0  0
  9 10  1  0  0  0
  9 27  2  0  0  0
 10 11  2  0  0  0
 10 15  1  0  0  0
 11 12  1  0  0  0
 11 97  1  0  0  0
 12 13  2  0  0  0
 12 98  1  0  0  0
 13 14  1  0  0  0
 13 31  1  0  0  0
 14 15  2  0  0  0
 14 99  1  0  0  0
 15100  1  0  0  0
 16 17  2  0  0  0
 16 21  1  0  0  0
 16 31  1  0  0  0
 17 18  1  0  0  0
 17101  1  0  0  0
 18 19  2  0  0  0
 18102  1  0  0  0
 19 20  1  0  0  0
 19 24  1  0  0  0
 20 21  2  0  0  0
 20103  1  0  0  0
 21 23  1  0  0  0
 22 28  1  0  0  0
 22 32  2  0  0  0
 26 27  1  0  0  0
 28104  1  0  0  0
 28105  1  0  0  0
 29106  1  0  0  0
 29107  1  0  0  0
 33 34  1  0  0  0
 33 66  1  0  0  0
 33 70  2  0  0  0
 34 36  1  0  0  0
 34 59  1  0  0  0
 34108  1  0  0  0
 35 44  2  0  0  0
 35 45  1  0  0  0
 35 68  1  0  0  0
 36 56  1  0  0  0
 36109  1  0  0  0
 37 39  1  0  0  0
 37 47  1  0  0  0
 37 66  1  0  0  0
 37110  1  0  0  0
 38 43  2  0  0  0
 38 46  1  0  0  0
 38 47  1  0  0  0
 39 64  1  0  0  0
 39 67  2  0  0  0
 40 52  1  0  0  0
 40 53  2  0  0  0
 40 58  1  0  0  0
 41111  1  0  0  0
 41112  1  0  0  0
 41113  1  0  0  0
 41 48  1  0  0  0
 42 43  1  0  0  0
 42 66  1  0  0  0
 42114  1  0  0  0
 42115  1  0  0  0
 43 44  1  0  0  0
 44116  1  0  0  0
 45 46  2  0  0  0
 45117  1  0  0  0
 46118  1  0  0  0
 47119  1  0  0  0
 47120  1  0  0  0
 48 56  1  0  0  0
 48 65  1  0  0  0
 48121  1  0  0  0
 49 50  1  0  0  0
 49 53  1  0  0  0
 49 64  1  0  0  0
 49122  1  0  0  0
 50 51  1  0  0  0
 50123  1  0  0  0
 50124  1  0  0  0
 51 52  1  0  0  0
 51125  1  0  0  0
 51126  1  0  0  0
 52127  1  0  0  0
 52128  1  0  0  0
 53 54  1  0  0  0
 54 55  2  0  0  0
 54129  1  0  0  0
 55 57  1  0  0  0
 55130  1  0  0  0
 56 69  2  0  0  0
 57 58  2  0  0  0
 57131  1  0  0  0
 58132  1  0  0  0
 59 60  1  0  0  0
 59 61  1  0  0  0
 59 62  1  0  0  0
 60133  1  0  0  0
 60134  1  0  0  0
 60135  1  0  0  0
 61136  1  0  0  0
 61137  1  0  0  0
 61138  1  0  0  0
 62139  1  0  0  0
 62140  1  0  0  0
 62141  1  0  0  0
 63 65  1  0  0  0
 63142  1  0  0  0
 63143  1  0  0  0
 63144  1  0  0  0
 64145  1  0  0  0
 65146  1  0  0  0
 68 84  1  0  0  0
 71 74  2  0  0  0
 71 76  1  0  0  0
 71147  1  0  0  0
 72 73  2  0  0  0
 72 74  1  0  0  0
 72 77  1  0  0  0
 73 75  1  0  0  0
 73 78  1  0  0  0
 74 82  1  0  0  0
 75 76  2  0  0  0
 75 83  1  0  0  0
 76 87  1  0  0  0
 77 79  1  0  0  0
 77148  1  0  0  0
 77149  1  0  0  0
 78 80  1  0  0  0
 78150  1  0  0  0
 78151  1  0  0  0
 79 81  1  0  0  0
 79152  1  0  0  0
 79153  1  0  0  0
 80 81  1  0  0  0
 80154  1  0  0  0
 80155  1  0  0  0
 81 86  1  0  0  0
 81156  1  0  0  0
 82157  1  0  0  0
 82158  1  0  0  0
 82159  1  0  0  0
 83160  1  0  0  0
 83161  1  0  0  0
 83162  1  0  0  0
 84 85  1  0  0  0
 84163  1  0  0  0
 84164  1  0  0  0
 85 87  1  0  0  0
 85165  1  0  0  0
 85166  1  0  0  0
 86167  1  0  0  0
M  ISO  4   1 100  68 101  84 101  86 100
M  END
> <chiral flag>
0

> <version>
0

> <s_m_source_file>
/data/baiqing/PycharmProjects/Reinvent-master-3.2/result/LINK_invent/BTK/process_docking_weight1_custom_sum_contain_oxygen_bond_distance_aromatic_linkinvent_7_9_3/rearranged_h_0150.sdf

> <i_m_source_file_index>
20

> <r_mmod_Potential_Energy-OPLS-2005>
-42.9150733947754

> <r_mmod_Stretch_Energy-OPLS-2005>
39.8557510375977

> <r_mmod_Bend_Energy-OPLS-2005>
101.315925598145

> <r_mmod_Torsional_Energy-OPLS-2005>
240.893188476562

> <r_mmod_Improper_Torsional_Energy-OPLS-2005>
6.31184053421021

> <r_mmod_Van_der_Waal_Energy-OPLS-2005>
171.080703735352

> <r_mmod_Electrostatic_Energy-OPLS-2005>
-401.697723388672

> <r_mmod_Solvation_Energy-OPLS-2005>
-212.993637084961

> <b_mmod_Minimization_Converged-OPLS-2005>
0

> <r_mmod_RMS_Derivative-OPLS-2005>
0.935867071151733

$$$$
20
                    3D
 Structure written by MMmdl.
172182  0  0  1  0            999 V2000
  -30.5581  -14.9089   20.4586 C   0  0  0  0  0  0
  -30.4374  -12.5698   19.4914 C   0  0  0  0  0  0
  -29.5175  -12.5425   18.2482 C   0  0  0  0  0  0
  -28.0470  -12.3349   18.6609 C   0  0  0  0  0  0
  -27.6345  -13.2425   19.8505 C   0  0  2  0  0  0
  -28.6806  -13.2030   20.9848 C   0  0  0  0  0  0
  -25.2455  -13.8196   20.5679 C   0  0  0  0  0  0
  -24.1772  -13.0428   20.9211 C   0  0  0  0  0  0
  -24.6383  -11.6910   20.8748 C   0  0  0  0  0  0
  -23.9073  -10.4283   21.0403 C   0  0  0  0  0  0
  -24.3627   -9.4205   21.9177 C   0  0  0  0  0  0
  -23.6306   -8.2239   22.0751 C   0  0  0  0  0  0
  -22.4286   -8.0275   21.3551 C   0  0  0  0  0  0
  -21.9919   -9.0246   20.4651 C   0  0  0  0  0  0
  -22.7242  -10.2122   20.3057 C   0  0  0  0  0  0
  -21.6853   -6.0734   22.5279 C   0  0  0  0  0  0
  -21.4008   -6.5642   23.8211 C   0  0  0  0  0  0
  -21.3661   -5.6797   24.9174 C   0  0  0  0  0  0
  -21.6044   -4.3059   24.7223 C   0  0  0  0  0  0
  -21.8820   -3.8148   23.4343 C   0  0  0  0  0  0
  -21.9193   -4.6961   22.3400 C   0  0  0  0  0  0
  -22.7798  -13.5211   21.1867 C   0  0  0  0  0  0
  -22.1664   -4.2147   21.0976 F   0  0  0  0  0  0
  -21.5638   -3.4540   25.7739 F   0  0  0  0  0  0
  -29.9512  -13.6524   20.3978 N   0  0  0  0  0  0
  -26.2897  -12.9421   20.3281 N   0  0  0  0  0  0
  -25.9318  -11.6549   20.5741 N   0  0  0  0  0  0
  -22.0453  -12.8208   22.0430 N   0  0  0  0  0  0
  -25.4091  -15.1915   20.4051 N   0  0  0  0  0  0
  -31.7414  -14.9626   20.0987 O   0  0  0  0  0  0
  -21.6644   -6.8875   21.4242 O   0  0  0  0  0  0
  -22.3478  -14.5506   20.6696 O   0  0  0  0  0  0
  -24.6424  -31.8455   23.1915 C   0  0  0  0  0  0
  -25.9210  -32.4696   23.8294 C   0  0  1  0  0  0
  -27.2157  -27.1535   20.1328 C   0  0  0  0  0  0
  -25.5966  -33.8501   24.2201 N   0  0  0  0  0  0
  -23.4440  -30.4666   21.5382 C   0  0  2  0  0  0
  -24.8915  -28.9022   20.1057 C   0  0  0  0  0  0
  -22.7565  -29.4548   22.4885 C   0  0  0  0  0  0
  -18.0298  -28.1401   22.8477 C   0  0  0  0  0  0
  -24.1488  -36.7248   23.2638 C   0  0  0  0  0  0
  -26.0003  -30.7234   21.3890 C   0  0  0  0  0  0
  -26.0684  -29.3385   20.7260 C   0  0  0  0  0  0
  -27.2267  -28.4773   20.7292 C   0  0  0  0  0  0
  -26.0062  -26.8161   19.4809 C   0  0  0  0  0  0
  -24.8727  -27.6541   19.4701 C   0  0  0  0  0  0
  -23.6675  -29.8017   20.1547 C   0  0  0  0  0  0
  -25.4115  -36.3025   24.0318 C   0  0  1  0  0  0
  -20.5911  -28.3714   23.1259 C   0  0  2  0  0  0
  -20.6781  -26.9420   22.5421 C   0  0  0  0  0  0
  -19.5758  -26.6388   21.5225 C   0  0  0  0  0  0
  -18.1935  -26.7945   22.1621 C   0  0  0  0  0  0
  -19.1554  -28.8877   23.2858 C   0  0  0  0  0  0
  -18.9464  -30.1477   23.8875 C   0  0  0  0  0  0
  -17.6461  -30.6592   24.0562 C   0  0  0  0  0  0
  -25.9079  -34.9404   23.5064 C   0  0  0  0  0  0
  -16.5353  -29.9082   23.6344 C   0  0  0  0  0  0
  -16.7281  -28.6506   23.0350 C   0  0  0  0  0  0
  -26.4531  -31.6559   25.0729 C   0  0  0  0  0  0
  -25.3722  -31.3766   26.1430 C   0  0  0  0  0  0
  -27.0379  -30.2945   24.6312 C   0  0  0  0  0  0
  -27.6068  -32.4321   25.7505 C   0  0  0  0  0  0
  -27.5587  -37.1756   24.8444 C   0  0  0  0  0  0
  -21.4257  -29.3035   22.3630 N   0  0  0  0  0  0
  -26.4262  -37.3754   23.9439 N   0  0  0  0  0  0
  -24.7153  -31.0329   22.0944 N   0  0  0  0  0  0
  -23.4215  -28.8097   23.3028 O   0  0  0  0  0  0
  -28.2753  -26.1825   20.2524 O   0  0  0  0  0  0
  -26.5659  -34.8900   22.4639 O   0  0  0  0  0  0
  -23.5549  -32.1329   23.7147 O   0  0  0  0  0  0
  -27.9469  -20.8723   20.4516 C   0  0  0  0  0  0
  -29.9545  -22.7485   20.1966 C   0  0  0  0  0  0
  -29.2643  -20.3112   20.5505 C   0  0  0  0  0  0
  -27.6399  -22.2797   20.2501 C   0  0  0  0  0  0
  -28.6363  -23.3075   20.0969 C   0  0  0  0  0  0
  -30.2663  -21.3367   20.4303 C   0  0  0  0  0  0
  -26.4723  -20.1658   23.5181 C   0  0  0  0  0  0
  -27.2109  -20.1441   24.8359 C   0  0  0  0  0  0
  -30.0851  -17.5325   20.0129 C   0  0  0  0  0  0
  -28.8442  -16.4118   21.6626 C   0  0  0  0  0  0
  -29.5970  -18.7437   20.9793 C   0  0  2  0  0  0
  -27.9330  -19.7786   23.5585 C   0  0  0  0  0  0
  -28.5433  -17.9565   21.8041 C   0  0  2  0  0  0
  -26.1746  -22.6689   20.1672 C   0  0  0  0  0  0
  -32.5973  -21.8405   20.7546 C   0  0  0  0  0  0
  -28.3181  -24.8226   19.5218 C   0  0  0  0  0  0
  -28.3785  -18.3485   23.3037 C   0  0  1  0  0  0
  -29.8120  -16.1236   20.5884 N   0  0  0  0  0  0
  -29.5819  -18.1438   24.0244 O   0  0  0  0  0  0
  -31.5629  -20.8853   20.5533 O   0  0  0  0  0  0
  -31.4720  -12.7220   19.1811 H   0  0  0  0  0  0
  -30.4285  -11.6032   19.9981 H   0  0  0  0  0  0
  -29.8315  -11.7566   17.5602 H   0  0  0  0  0  0
  -29.6127  -13.4834   17.7031 H   0  0  0  0  0  0
  -27.9298  -11.2876   18.9404 H   0  0  0  0  0  0
  -27.3853  -12.4971   17.8089 H   0  0  0  0  0  0
  -27.6159  -14.2593   19.4570 H   0  0  0  0  0  0
  -28.7708  -12.1923   21.3862 H   0  0  0  0  0  0
  -28.3834  -13.8169   21.8311 H   0  0  0  0  0  0
  -25.2765   -9.5685   22.4754 H   0  0  0  0  0  0
  -24.0019   -7.4627   22.7470 H   0  0  0  0  0  0
  -21.0850   -8.8752   19.8961 H   0  0  0  0  0  0
  -22.3690  -10.9656   19.6172 H   0  0  0  0  0  0
  -21.1985   -7.6148   23.9714 H   0  0  0  0  0  0
  -21.1495   -6.0525   25.9079 H   0  0  0  0  0  0
  -22.0595   -2.7611   23.2836 H   0  0  0  0  0  0
  -22.4078  -11.9876   22.4823 H   0  0  0  0  0  0
  -21.1064  -13.1219   22.2617 H   0  0  0  0  0  0
  -24.6328  -15.8364   20.4998 H   0  0  0  0  0  0
  -26.2478  -15.6301   20.0480 H   0  0  0  0  0  0
  -26.7271  -32.5298   23.1020 H   0  0  0  0  0  0
  -25.0095  -33.9619   25.0336 H   0  0  0  0  0  0
  -22.7451  -31.2925   21.3890 H   0  0  0  0  0  0
  -23.3772  -35.9550   23.3220 H   0  0  0  0  0  0
  -24.3603  -36.8958   22.2069 H   0  0  0  0  0  0
  -23.7193  -37.6403   23.6718 H   0  0  0  0  0  0
  -26.1578  -31.4806   20.6201 H   0  0  0  0  0  0
  -26.8703  -30.7680   22.0328 H   0  0  0  0  0  0
  -28.1204  -28.8032   21.2425 H   0  0  0  0  0  0
  -25.8608  -25.8608   19.0075 H   0  0  0  0  0  0
  -23.9706  -27.3139   18.9798 H   0  0  0  0  0  0
  -23.8006  -30.5797   19.4018 H   0  0  0  0  0  0
  -22.7820  -29.2441   19.8450 H   0  0  0  0  0  0
  -25.1290  -36.1836   25.0804 H   0  0  0  0  0  0
  -20.9996  -28.3289   24.1387 H   0  0  0  0  0  0
  -20.5681  -26.2324   23.3630 H   0  0  0  0  0  0
  -21.6640  -26.7434   22.1213 H   0  0  0  0  0  0
  -19.6916  -25.6299   21.1259 H   0  0  0  0  0  0
  -19.6703  -27.3193   20.6749 H   0  0  0  0  0  0
  -17.4216  -26.6702   21.4012 H   0  0  0  0  0  0
  -18.0312  -26.0092   22.9017 H   0  0  0  0  0  0
  -19.7937  -30.7303   24.2233 H   0  0  0  0  0  0
  -17.5009  -31.6271   24.5161 H   0  0  0  0  0  0
  -15.5349  -30.2961   23.7701 H   0  0  0  0  0  0
  -15.8682  -28.0825   22.7065 H   0  0  0  0  0  0
  -24.5904  -30.7098   25.7776 H   0  0  0  0  0  0
  -24.8908  -32.2955   26.4788 H   0  0  0  0  0  0
  -25.8017  -30.8998   27.0253 H   0  0  0  0  0  0
  -26.2993  -29.6676   24.1301 H   0  0  0  0  0  0
  -27.3957  -29.7230   25.4892 H   0  0  0  0  0  0
  -27.8923  -30.4155   23.9646 H   0  0  0  0  0  0
  -27.2664  -33.3638   26.2032 H   0  0  0  0  0  0
  -28.3905  -32.6853   25.0353 H   0  0  0  0  0  0
  -28.0705  -31.8481   26.5465 H   0  0  0  0  0  0
  -28.2518  -38.0138   24.7603 H   0  0  0  0  0  0
  -28.1166  -36.2679   24.6101 H   0  0  0  0  0  0
  -27.2346  -37.1194   25.8850 H   0  0  0  0  0  0
  -20.9472  -29.8737   21.6799 H   0  0  0  0  0  0
  -26.0119  -38.2799   24.1519 H   0  0  0  0  0  0
  -27.1121  -20.1961   20.5652 H   0  0  0  0  0  0
  -30.7605  -23.4499   20.0440 H   0  0  0  0  0  0
  -26.2231  -21.1386   23.0977 H   0  0  0  0  0  0
  -25.7428  -19.3793   23.3356 H   0  0  0  0  0  0
  -26.9783  -19.3435   25.5361 H   0  0  0  0  0  0
  -27.4545  -21.1021   25.2917 H   0  0  0  0  0  0
  -31.1385  -17.6486   19.7559 H   0  0  0  0  0  0
  -29.5352  -17.5945   19.0737 H   0  0  0  0  0  0
  -27.9059  -15.8990   21.4621 H   0  0  0  0  0  0
  -29.2342  -15.9977   22.5931 H   0  0  0  0  0  0
  -30.4443  -18.8699   21.6522 H   0  0  0  0  0  0
  -28.6372  -20.5312   23.2098 H   0  0  0  0  0  0
  -27.5800  -18.1135   21.3169 H   0  0  0  0  0  0
  -25.5397  -21.9216   20.6450 H   0  0  0  0  0  0
  -25.8616  -22.7632   19.1274 H   0  0  0  0  0  0
  -25.9946  -23.6207   20.6689 H   0  0  0  0  0  0
  -33.5266  -21.3181   20.9824 H   0  0  0  0  0  0
  -32.3754  -22.4959   21.5981 H   0  0  0  0  0  0
  -32.7708  -22.4422   19.8615 H   0  0  0  0  0  0
  -27.4796  -24.7033   18.8461 H   0  0  0  0  0  0
  -29.1338  -24.9812   18.8164 H   0  0  0  0  0  0
  -27.6280  -17.6849   23.7379 H   0  0  0  0  0  0
  -30.2123  -18.7959   23.7358 H   0  0  0  0  0  0
  1 25  1  0  0  0
  1 30  2  0  0  0
  1 88  1  0  0  0
  2  3  1  0  0  0
  2 25  1  0  0  0
  2 91  1  0  0  0
  2 92  1  0  0  0
  3  4  1  0  0  0
  3 93  1  0  0  0
  3 94  1  0  0  0
  4  5  1  0  0  0
  4 95  1  0  0  0
  4 96  1  0  0  0
  5  6  1  0  0  0
  5 26  1  0  0  0
  5 97  1  0  0  0
  6 25  1  0  0  0
  6 98  1  0  0  0
  6 99  1  0  0  0
  7  8  2  0  0  0
  7 26  1  0  0  0
  7 29  1  0  0  0
  8  9  1  0  0  0
  8 22  1  0  0  0
  9 10  1  0  0  0
  9 27  2  0  0  0
 10 11  2  0  0  0
 10 15  1  0  0  0
 11 12  1  0  0  0
 11100  1  0  0  0
 12 13  2  0  0  0
 12101  1  0  0  0
 13 14  1  0  0  0
 13 31  1  0  0  0
 14 15  2  0  0  0
 14102  1  0  0  0
 15103  1  0  0  0
 16 17  2  0  0  0
 16 21  1  0  0  0
 16 31  1  0  0  0
 17 18  1  0  0  0
 17104  1  0  0  0
 18 19  2  0  0  0
 18105  1  0  0  0
 19 20  1  0  0  0
 19 24  1  0  0  0
 20 21  2  0  0  0
 20106  1  0  0  0
 21 23  1  0  0  0
 22 28  1  0  0  0
 22 32  2  0  0  0
 26 27  1  0  0  0
 28107  1  0  0  0
 28108  1  0  0  0
 29109  1  0  0  0
 29110  1  0  0  0
 33 34  1  0  0  0
 33 66  1  0  0  0
 33 70  2  0  0  0
 34 36  1  0  0  0
 34 59  1  0  0  0
 34111  1  0  0  0
 35 44  2  0  0  0
 35 45  1  0  0  0
 35 68  1  0  0  0
 36 56  1  0  0  0
 36112  1  0  0  0
 37 39  1  0  0  0
 37 47  1  0  0  0
 37 66  1  0  0  0
 37113  1  0  0  0
 38 43  2  0  0  0
 38 46  1  0  0  0
 38 47  1  0  0  0
 39 64  1  0  0  0
 39 67  2  0  0  0
 40 52  1  0  0  0
 40 53  2  0  0  0
 40 58  1  0  0  0
 41114  1  0  0  0
 41115  1  0  0  0
 41116  1  0  0  0
 41 48  1  0  0  0
 42 43  1  0  0  0
 42 66  1  0  0  0
 42117  1  0  0  0
 42118  1  0  0  0
 43 44  1  0  0  0
 44119  1  0  0  0
 45 46  2  0  0  0
 45120  1  0  0  0
 46121  1  0  0  0
 47122  1  0  0  0
 47123  1  0  0  0
 48 56  1  0  0  0
 48 65  1  0  0  0
 48124  1  0  0  0
 49 50  1  0  0  0
 49 53  1  0  0  0
 49 64  1  0  0  0
 49125  1  0  0  0
 50 51  1  0  0  0
 50126  1  0  0  0
 50127  1  0  0  0
 51 52  1  0  0  0
 51128  1  0  0  0
 51129  1  0  0  0
 52130  1  0  0  0
 52131  1  0  0  0
 53 54  1  0  0  0
 54 55  2  0  0  0
 54132  1  0  0  0
 55 57  1  0  0  0
 55133  1  0  0  0
 56 69  2  0  0  0
 57 58  2  0  0  0
 57134  1  0  0  0
 58135  1  0  0  0
 59 60  1  0  0  0
 59 61  1  0  0  0
 59 62  1  0  0  0
 60136  1  0  0  0
 60137  1  0  0  0
 60138  1  0  0  0
 61139  1  0  0  0
 61140  1  0  0  0
 61141  1  0  0  0
 62142  1  0  0  0
 62143  1  0  0  0
 62144  1  0  0  0
 63 65  1  0  0  0
 63145  1  0  0  0
 63146  1  0  0  0
 63147  1  0  0  0
 64148  1  0  0  0
 65149  1  0  0  0
 68 86  1  0  0  0
 71 73  2  0  0  0
 71 74  1  0  0  0
 71150  1  0  0  0
 72 75  1  0  0  0
 72 76  2  0  0  0
 72151  1  0  0  0
 73 76  1  0  0  0
 73 81  1  0  0  0
 74 75  2  0  0  0
 74 84  1  0  0  0
 75 86  1  0  0  0
 76 90  1  0  0  0
 77 78  1  0  0  0
 77152  1  0  0  0
 77153  1  0  0  0
 77 82  1  0  0  0
 78 82  1  0  0  0
 78154  1  0  0  0
 78155  1  0  0  0
 79 81  1  0  0  0
 79 88  1  0  0  0
 79156  1  0  0  0
 79157  1  0  0  0
 80 88  1  0  0  0
 80158  1  0  0  0
 80159  1  0  0  0
 80 83  1  0  0  0
 81 83  1  0  0  0
 81160  1  0  0  0
 82 87  1  0  0  0
 82161  1  0  0  0
 83 87  1  0  0  0
 83162  1  0  0  0
 84163  1  0  0  0
 84164  1  0  0  0
 84165  1  0  0  0
 85 90  1  0  0  0
 85166  1  0  0  0
 85167  1  0  0  0
 85168  1  0  0  0
 86169  1  0  0  0
 86170  1  0  0  0
 87 89  1  0  0  0
 87171  1  0  0  0
 89172  1  0  0  0
M  ISO  4   1 100  68 101  86 101  88 100
M  END
> <chiral flag>
0

> <version>
0

> <s_m_source_file>
/data/baiqing/PycharmProjects/Reinvent-master-3.2/result/LINK_invent/BTK/process_docking_weight1_custom_sum_contain_oxygen_bond_distance_aromatic_linkinvent_7_9_3/rearranged_h_0150.sdf

> <i_m_source_file_index>
21

> <r_mmod_Potential_Energy-OPLS-2005>
678.263854980469

> <r_mmod_Stretch_Energy-OPLS-2005>
215.420227050781

> <r_mmod_Bend_Energy-OPLS-2005>
294.855194091797

> <r_mmod_Torsional_Energy-OPLS-2005>
390.173828125

> <r_mmod_Improper_Torsional_Energy-OPLS-2005>
13.3372020721436

> <r_mmod_Van_der_Waal_Energy-OPLS-2005>
130.240280151367

> <r_mmod_Electrostatic_Energy-OPLS-2005>
-315.395202636719

> <r_mmod_Solvation_Energy-OPLS-2005>
-216.526901245117

> <b_mmod_Minimization_Converged-OPLS-2005>
0

> <r_mmod_RMS_Derivative-OPLS-2005>
1.59803020954132

$$$$
21
                    3D
 Structure written by MMmdl.
166177  0  0  1  0            999 V2000
  -30.6466  -14.6866   20.5938 C   0  0  0  0  0  0
  -30.4417  -12.4532   19.4597 C   0  0  0  0  0  0
  -29.5115  -12.5461   18.2302 C   0  0  0  0  0  0
  -28.0375  -12.3630   18.6370 C   0  0  0  0  0  0
  -27.6530  -13.2223   19.8698 C   0  0  2  0  0  0
  -28.6967  -13.0956   21.0019 C   0  0  0  0  0  0
  -25.2444  -13.7960   20.5451 C   0  0  0  0  0  0
  -24.1787  -13.0293   20.9174 C   0  0  0  0  0  0
  -24.6428  -11.6802   20.8792 C   0  0  0  0  0  0
  -23.9098  -10.4207   21.0429 C   0  0  0  0  0  0
  -24.3641   -9.4132   21.9214 C   0  0  0  0  0  0
  -23.6299   -8.2178   22.0767 C   0  0  0  0  0  0
  -22.4281   -8.0237   21.3543 C   0  0  0  0  0  0
  -21.9929   -9.0210   20.4645 C   0  0  0  0  0  0
  -22.7270  -10.2082   20.3069 C   0  0  0  0  0  0
  -21.6842   -6.0732   22.5288 C   0  0  0  0  0  0
  -21.3991   -6.5638   23.8225 C   0  0  0  0  0  0
  -21.3659   -5.6793   24.9185 C   0  0  0  0  0  0
  -21.6051   -4.3061   24.7236 C   0  0  0  0  0  0
  -21.8828   -3.8144   23.4362 C   0  0  0  0  0  0
  -21.9180   -4.6960   22.3407 C   0  0  0  0  0  0
  -22.7822  -13.5119   21.1835 C   0  0  0  0  0  0
  -22.1653   -4.2155   21.0984 F   0  0  0  0  0  0
  -21.5649   -3.4548   25.7746 F   0  0  0  0  0  0
  -30.0114  -13.4694   20.4515 N   0  0  0  0  0  0
  -26.2994  -12.9259   20.3323 N   0  0  0  0  0  0
  -25.9385  -11.6420   20.5852 N   0  0  0  0  0  0
  -22.0459  -12.8144   22.0418 N   0  0  0  0  0  0
  -25.3924  -15.1533   20.3293 N   0  0  0  0  0  0
  -31.7211  -14.8830   20.0132 O   0  0  0  0  0  0
  -21.6618   -6.8857   21.4239 O   0  0  0  0  0  0
  -22.3516  -14.5428   20.6680 O   0  0  0  0  0  0
  -24.6277  -31.8573   23.2011 C   0  0  0  0  0  0
  -25.9116  -32.4760   23.8341 C   0  0  1  0  0  0
  -27.2329  -27.2962   20.1115 C   0  0  0  0  0  0
  -25.5914  -33.8563   24.2261 N   0  0  0  0  0  0
  -23.4238  -30.4782   21.5459 C   0  0  2  0  0  0
  -24.8732  -28.9335   20.1090 C   0  0  0  0  0  0
  -22.7478  -29.4603   22.4952 C   0  0  0  0  0  0
  -18.0273  -28.1371   22.8483 C   0  0  0  0  0  0
  -24.1493  -36.7289   23.2644 C   0  0  0  0  0  0
  -25.9680  -30.7771   21.3806 C   0  0  0  0  0  0
  -26.0426  -29.4050   20.7183 C   0  0  0  0  0  0
  -27.2228  -28.5976   20.7118 C   0  0  0  0  0  0
  -26.0383  -26.8930   19.4665 C   0  0  0  0  0  0
  -24.8758  -27.6847   19.4726 C   0  0  0  0  0  0
  -23.6389  -29.8126   20.1613 C   0  0  0  0  0  0
  -25.4120  -36.3079   24.0327 C   0  0  1  0  0  0
  -20.5884  -28.3676   23.1278 C   0  0  2  0  0  0
  -20.6766  -26.9394   22.5412 C   0  0  0  0  0  0
  -19.5754  -26.6372   21.5202 C   0  0  0  0  0  0
  -18.1921  -26.7917   22.1603 C   0  0  0  0  0  0
  -19.1530  -28.8841   23.2874 C   0  0  0  0  0  0
  -18.9454  -30.1446   23.8886 C   0  0  0  0  0  0
  -17.6458  -30.6586   24.0553 C   0  0  0  0  0  0
  -25.9053  -34.9443   23.5100 C   0  0  0  0  0  0
  -16.5350  -29.9075   23.6339 C   0  0  0  0  0  0
  -16.7262  -28.6490   23.0360 C   0  0  0  0  0  0
  -26.4485  -31.6584   25.0725 C   0  0  0  0  0  0
  -25.3705  -31.3723   26.1438 C   0  0  0  0  0  0
  -27.0339  -30.2999   24.6221 C   0  0  0  0  0  0
  -27.6034  -32.4328   25.7497 C   0  0  0  0  0  0
  -27.5584  -37.1800   24.8456 C   0  0  0  0  0  0
  -21.4193  -29.3027   22.3675 N   0  0  0  0  0  0
  -26.4296  -37.3771   23.9398 N   0  0  0  0  0  0
  -24.6920  -31.0542   22.0983 N   0  0  0  0  0  0
  -23.4185  -28.8157   23.3047 O   0  0  0  0  0  0
  -28.3442  -26.4239   20.1737 O   0  0  0  0  0  0
  -26.5645  -34.8917   22.4683 O   0  0  0  0  0  0
  -23.5431  -32.1390   23.7312 O   0  0  0  0  0  0
  -30.3780  -20.8624   20.8124 C   0  0  0  0  0  0
  -28.2634  -20.1111   20.0339 C   0  0  0  0  0  0
  -30.6971  -19.5219   21.2438 C   0  0  0  0  0  0
  -28.5279  -18.7921   20.5104 C   0  0  0  0  0  0
  -29.7771  -18.4201   21.0942 C   0  0  0  0  0  0
  -29.1344  -21.2051   20.2251 C   0  0  0  0  0  0
  -32.0500  -19.1380   23.4631 C   0  0  0  0  0  0
  -32.5801  -20.4153   22.8663 C   0  0  0  0  0  0
  -25.9381  -18.3481   20.7578 C   0  0  0  0  0  0
  -26.6555  -17.6748   21.8992 C   0  0  0  0  0  0
  -31.0949  -16.3052   22.2438 C   0  0  0  0  0  0
  -32.0055  -19.3391   21.9629 C   0  0  0  0  0  0
  -27.3644  -17.8534   20.5729 C   0  0  0  0  0  0
  -29.8932  -17.0431   21.8863 C   0  0  2  0  0  0
  -28.1264  -24.9730   19.8917 C   0  0  0  0  0  0
  -29.1389  -23.7918   20.2987 C   0  0  0  0  0  0
  -30.0780  -15.5974   21.4709 N   0  0  0  0  0  0
  -28.6677  -22.4802   19.8219 O   0  0  0  0  0  0
  -31.4805  -12.5924   19.1546 H   0  0  0  0  0  0
  -30.3947  -11.4555   19.8995 H   0  0  0  0  0  0
  -29.7909  -11.8002   17.4844 H   0  0  0  0  0  0
  -29.6422  -13.5174   17.7497 H   0  0  0  0  0  0
  -27.8784  -11.3050   18.8532 H   0  0  0  0  0  0
  -27.3855  -12.6001   17.7944 H   0  0  0  0  0  0
  -27.6660  -14.2598   19.5384 H   0  0  0  0  0  0
  -28.7255  -12.0747   21.3838 H   0  0  0  0  0  0
  -28.4124  -13.7235   21.8473 H   0  0  0  0  0  0
  -25.2786   -9.5605   22.4791 H   0  0  0  0  0  0
  -23.9999   -7.4569   22.7488 H   0  0  0  0  0  0
  -21.0862   -8.8734   19.8943 H   0  0  0  0  0  0
  -22.3733  -10.9635   19.6182 H   0  0  0  0  0  0
  -21.1976   -7.6145   23.9731 H   0  0  0  0  0  0
  -21.1475   -6.0518   25.9089 H   0  0  0  0  0  0
  -22.0605   -2.7606   23.2860 H   0  0  0  0  0  0
  -22.4052  -11.9814   22.4855 H   0  0  0  0  0  0
  -21.1078  -13.1189   22.2599 H   0  0  0  0  0  0
  -24.6092  -15.7935   20.3931 H   0  0  0  0  0  0
  -26.2215  -15.5725   19.9330 H   0  0  0  0  0  0
  -26.7174  -32.5408   23.1076 H   0  0  0  0  0  0
  -25.0031  -33.9697   25.0384 H   0  0  0  0  0  0
  -22.7206  -31.3008   21.4014 H   0  0  0  0  0  0
  -23.3760  -35.9616   23.3296 H   0  0  0  0  0  0
  -24.3580  -36.8929   22.2060 H   0  0  0  0  0  0
  -23.7241  -37.6480   23.6682 H   0  0  0  0  0  0
  -26.1102  -31.5438   20.6182 H   0  0  0  0  0  0
  -26.8425  -30.8178   22.0181 H   0  0  0  0  0  0
  -28.1167  -28.9545   21.2043 H   0  0  0  0  0  0
  -25.9669  -25.9451   18.9555 H   0  0  0  0  0  0
  -23.9842  -27.3184   18.9835 H   0  0  0  0  0  0
  -23.7507  -30.5891   19.4025 H   0  0  0  0  0  0
  -22.7588  -29.2388   19.8631 H   0  0  0  0  0  0
  -25.1305  -36.1938   25.0820 H   0  0  0  0  0  0
  -20.9956  -28.3235   24.1409 H   0  0  0  0  0  0
  -20.5639  -26.2278   23.3607 H   0  0  0  0  0  0
  -21.6637  -26.7397   22.1220 H   0  0  0  0  0  0
  -19.6912  -25.6280   21.1233 H   0  0  0  0  0  0
  -19.6710  -27.3184   20.6737 H   0  0  0  0  0  0
  -17.4192  -26.6667   21.3994 H   0  0  0  0  0  0
  -18.0318  -26.0049   22.8993 H   0  0  0  0  0  0
  -19.7929  -30.7263   24.2247 H   0  0  0  0  0  0
  -17.5008  -31.6267   24.5152 H   0  0  0  0  0  0
  -15.5349  -30.2974   23.7677 H   0  0  0  0  0  0
  -15.8649  -28.0806   22.7096 H   0  0  0  0  0  0
  -24.5895  -30.7055   25.7758 H   0  0  0  0  0  0
  -24.8879  -32.2885   26.4849 H   0  0  0  0  0  0
  -25.8016  -30.8905   27.0223 H   0  0  0  0  0  0
  -26.2931  -29.6737   24.1230 H   0  0  0  0  0  0
  -27.3997  -29.7269   25.4754 H   0  0  0  0  0  0
  -27.8821  -30.4264   23.9489 H   0  0  0  0  0  0
  -27.2633  -33.3631   26.2061 H   0  0  0  0  0  0
  -28.3849  -32.6881   25.0326 H   0  0  0  0  0  0
  -28.0696  -31.8464   26.5424 H   0  0  0  0  0  0
  -28.2588  -38.0112   24.7509 H   0  0  0  0  0  0
  -28.1104  -36.2639   24.6281 H   0  0  0  0  0  0
  -27.2296  -37.1431   25.8860 H   0  0  0  0  0  0
  -20.9387  -29.8755   21.6884 H   0  0  0  0  0  0
  -26.0185  -38.2847   24.1404 H   0  0  0  0  0  0
  -31.0987  -21.6519   20.9658 H   0  0  0  0  0  0
  -27.3021  -20.3260   19.5917 H   0  0  0  0  0  0
  -31.1133  -19.1956   24.0148 H   0  0  0  0  0  0
  -32.7847  -18.4442   23.8661 H   0  0  0  0  0  0
  -33.6595  -20.5515   22.8738 H   0  0  0  0  0  0
  -31.9990  -21.3164   23.0557 H   0  0  0  0  0  0
  -25.7419  -19.4103   20.8856 H   0  0  0  0  0  0
  -25.1392  -17.7963   20.2688 H   0  0  0  0  0  0
  -26.3384  -16.6765   22.1848 H   0  0  0  0  0  0
  -26.9661  -18.3109   22.7263 H   0  0  0  0  0  0
  -31.2104  -16.0006   23.2825 H   0  0  0  0  0  0
  -32.0260  -16.5870   21.7555 H   0  0  0  0  0  0
  -32.7145  -18.7874   21.3484 H   0  0  0  0  0  0
  -27.5288  -16.9752   19.9511 H   0  0  0  0  0  0
  -29.2109  -17.1684   22.7241 H   0  0  0  0  0  0
  -27.1782  -24.6879   20.3488 H   0  0  0  0  0  0
  -27.9780  -24.8903   18.8146 H   0  0  0  0  0  0
  -29.2533  -23.7596   21.3823 H   0  0  0  0  0  0
  -30.1258  -23.9857   19.8781 H   0  0  0  0  0  0
  1 25  1  0  0  0
  1 30  2  0  0  0
  1 87  1  0  0  0
  2  3  1  0  0  0
  2 25  1  0  0  0
  2 89  1  0  0  0
  2 90  1  0  0  0
  3  4  1  0  0  0
  3 91  1  0  0  0
  3 92  1  0  0  0
  4  5  1  0  0  0
  4 93  1  0  0  0
  4 94  1  0  0  0
  5  6  1  0  0  0
  5 26  1  0  0  0
  5 95  1  0  0  0
  6 25  1  0  0  0
  6 96  1  0  0  0
  6 97  1  0  0  0
  7  8  2  0  0  0
  7 26  1  0  0  0
  7 29  1  0  0  0
  8  9  1  0  0  0
  8 22  1  0  0  0
  9 10  1  0  0  0
  9 27  2  0  0  0
 10 11  2  0  0  0
 10 15  1  0  0  0
 11 12  1  0  0  0
 11 98  1  0  0  0
 12 13  2  0  0  0
 12 99  1  0  0  0
 13 14  1  0  0  0
 13 31  1  0  0  0
 14 15  2  0  0  0
 14100  1  0  0  0
 15101  1  0  0  0
 16 17  2  0  0  0
 16 21  1  0  0  0
 16 31  1  0  0  0
 17 18  1  0  0  0
 17102  1  0  0  0
 18 19  2  0  0  0
 18103  1  0  0  0
 19 20  1  0  0  0
 19 24  1  0  0  0
 20 21  2  0  0  0
 20104  1  0  0  0
 21 23  1  0  0  0
 22 28  1  0  0  0
 22 32  2  0  0  0
 26 27  1  0  0  0
 28105  1  0  0  0
 28106  1  0  0  0
 29107  1  0  0  0
 29108  1  0  0  0
 33 34  1  0  0  0
 33 66  1  0  0  0
 33 70  2  0  0  0
 34 36  1  0  0  0
 34 59  1  0  0  0
 34109  1  0  0  0
 35 44  2  0  0  0
 35 45  1  0  0  0
 35 68  1  0  0  0
 36 56  1  0  0  0
 36110  1  0  0  0
 37 39  1  0  0  0
 37 47  1  0  0  0
 37 66  1  0  0  0
 37111  1  0  0  0
 38 43  2  0  0  0
 38 46  1  0  0  0
 38 47  1  0  0  0
 39 64  1  0  0  0
 39 67  2  0  0  0
 40 52  1  0  0  0
 40 53  2  0  0  0
 40 58  1  0  0  0
 41112  1  0  0  0
 41113  1  0  0  0
 41114  1  0  0  0
 41 48  1  0  0  0
 42 43  1  0  0  0
 42 66  1  0  0  0
 42115  1  0  0  0
 42116  1  0  0  0
 43 44  1  0  0  0
 44117  1  0  0  0
 45 46  2  0  0  0
 45118  1  0  0  0
 46119  1  0  0  0
 47120  1  0  0  0
 47121  1  0  0  0
 48 56  1  0  0  0
 48 65  1  0  0  0
 48122  1  0  0  0
 49 50  1  0  0  0
 49 53  1  0  0  0
 49 64  1  0  0  0
 49123  1  0  0  0
 50 51  1  0  0  0
 50124  1  0  0  0
 50125  1  0  0  0
 51 52  1  0  0  0
 51126  1  0  0  0
 51127  1  0  0  0
 52128  1  0  0  0
 52129  1  0  0  0
 53 54  1  0  0  0
 54 55  2  0  0  0
 54130  1  0  0  0
 55 57  1  0  0  0
 55131  1  0  0  0
 56 69  2  0  0  0
 57 58  2  0  0  0
 57132  1  0  0  0
 58133  1  0  0  0
 59 60  1  0  0  0
 59 61  1  0  0  0
 59 62  1  0  0  0
 60134  1  0  0  0
 60135  1  0  0  0
 60136  1  0  0  0
 61137  1  0  0  0
 61138  1  0  0  0
 61139  1  0  0  0
 62140  1  0  0  0
 62141  1  0  0  0
 62142  1  0  0  0
 63 65  1  0  0  0
 63143  1  0  0  0
 63144  1  0  0  0
 63145  1  0  0  0
 64146  1  0  0  0
 65147  1  0  0  0
 68 85  1  0  0  0
 71 73  2  0  0  0
 71 76  1  0  0  0
 71148  1  0  0  0
 72 74  1  0  0  0
 72 76  2  0  0  0
 72149  1  0  0  0
 73 75  1  0  0  0
 73 82  1  0  0  0
 74 75  2  0  0  0
 74 83  1  0  0  0
 75 84  1  0  0  0
 76 88  1  0  0  0
 77 78  1  0  0  0
 77 82  1  0  0  0
 77150  1  0  0  0
 77151  1  0  0  0
 78 82  1  0  0  0
 78152  1  0  0  0
 78153  1  0  0  0
 79 80  1  0  0  0
 79 83  1  0  0  0
 79154  1  0  0  0
 79155  1  0  0  0
 80 83  1  0  0  0
 80156  1  0  0  0
 80157  1  0  0  0
 81 84  1  0  0  0
 81 87  1  0  0  0
 81158  1  0  0  0
 81159  1  0  0  0
 82160  1  0  0  0
 83161  1  0  0  0
 84 87  1  0  0  0
 84162  1  0  0  0
 85 86  1  0  0  0
 85163  1  0  0  0
 85164  1  0  0  0
 86 88  1  0  0  0
 86165  1  0  0  0
 86166  1  0  0  0
M  ISO  4   1 100  68 101  85 101  87 100
M  END
> <chiral flag>
0

> <version>
0

> <s_m_source_file>
/data/baiqing/PycharmProjects/Reinvent-master-3.2/result/LINK_invent/BTK/process_docking_weight1_custom_sum_contain_oxygen_bond_distance_aromatic_linkinvent_7_9_3/rearranged_h_0150.sdf

> <i_m_source_file_index>
22

> <r_mmod_Potential_Energy-OPLS-2005>
401.12353515625

> <r_mmod_Stretch_Energy-OPLS-2005>
117.417213439941

> <r_mmod_Bend_Energy-OPLS-2005>
281.568206787109

> <r_mmod_Torsional_Energy-OPLS-2005>
342.292724609375

> <r_mmod_Improper_Torsional_Energy-OPLS-2005>
14.5630483627319

> <r_mmod_Van_der_Waal_Energy-OPLS-2005>
148.380416870117

> <r_mmod_Electrostatic_Energy-OPLS-2005>
-366.406158447266

> <r_mmod_Solvation_Energy-OPLS-2005>
-200.243087768555

> <b_mmod_Minimization_Converged-OPLS-2005>
0

> <r_mmod_RMS_Derivative-OPLS-2005>
2.2485978603363

$$$$
22
                    3D
 Structure written by MMmdl.
186196  0  0  1  0            999 V2000
  -30.7705  -14.3434   20.7025 C   0  0  0  0  0  0
  -30.4149  -12.2855   19.3856 C   0  0  0  0  0  0
  -29.4790  -12.5320   18.1881 C   0  0  0  0  0  0
  -28.0044  -12.3791   18.6059 C   0  0  0  0  0  0
  -27.6672  -13.1892   19.8838 C   0  0  2  0  0  0
  -28.7071  -12.8976   20.9912 C   0  0  0  0  0  0
  -25.2619  -13.8129   20.5678 C   0  0  0  0  0  0
  -24.1850  -13.0432   20.9174 C   0  0  0  0  0  0
  -24.6382  -11.6891   20.8746 C   0  0  0  0  0  0
  -23.9051  -10.4285   21.0419 C   0  0  0  0  0  0
  -24.3606   -9.4199   21.9194 C   0  0  0  0  0  0
  -23.6283   -8.2234   22.0758 C   0  0  0  0  0  0
  -22.4267   -8.0274   21.3545 C   0  0  0  0  0  0
  -21.9902   -9.0252   20.4651 C   0  0  0  0  0  0
  -22.7230  -10.2130   20.3063 C   0  0  0  0  0  0
  -21.6844   -6.0733   22.5280 C   0  0  0  0  0  0
  -21.4004   -6.5639   23.8214 C   0  0  0  0  0  0
  -21.3661   -5.6792   24.9178 C   0  0  0  0  0  0
  -21.6049   -4.3056   24.7226 C   0  0  0  0  0  0
  -21.8818   -3.8146   23.4348 C   0  0  0  0  0  0
  -21.9188   -4.6961   22.3404 C   0  0  0  0  0  0
  -22.7875  -13.5241   21.1842 C   0  0  0  0  0  0
  -22.1656   -4.2149   21.0980 F   0  0  0  0  0  0
  -21.5639   -3.4540   25.7742 F   0  0  0  0  0  0
  -30.0455  -13.2166   20.4637 N   0  0  0  0  0  0
  -26.3047  -12.9266   20.3405 N   0  0  0  0  0  0
  -25.9299  -11.6442   20.5776 N   0  0  0  0  0  0
  -22.0505  -12.8240   22.0398 N   0  0  0  0  0  0
  -25.4361  -15.1842   20.4062 N   0  0  0  0  0  0
  -31.7899  -14.6180   20.0570 O   0  0  0  0  0  0
  -21.6631   -6.8872   21.4241 O   0  0  0  0  0  0
  -22.3569  -14.5554   20.6700 O   0  0  0  0  0  0
  -24.6052  -31.8724   23.2149 C   0  0  0  0  0  0
  -25.8975  -32.4846   23.8430 C   0  0  1  0  0  0
  -27.2697  -27.5107   20.0760 C   0  0  0  0  0  0
  -25.5868  -33.8646   24.2372 N   0  0  0  0  0  0
  -23.3917  -30.4913   21.5524 C   0  0  2  0  0  0
  -24.8448  -28.9566   20.1238 C   0  0  0  0  0  0
  -22.7362  -29.4661   22.5030 C   0  0  0  0  0  0
  -18.0258  -28.1371   22.8488 C   0  0  0  0  0  0
  -24.1479  -36.7327   23.2640 C   0  0  0  0  0  0
  -25.9090  -30.8561   21.3605 C   0  0  0  0  0  0
  -25.9915  -29.4891   20.7224 C   0  0  0  0  0  0
  -27.1959  -28.7653   20.7210 C   0  0  0  0  0  0
  -26.1001  -26.9628   19.5087 C   0  0  0  0  0  0
  -24.8873  -27.6824   19.5256 C   0  0  0  0  0  0
  -23.6007  -29.8146   20.1685 C   0  0  0  0  0  0
  -25.4100  -36.3134   24.0349 C   0  0  1  0  0  0
  -20.5842  -28.3635   23.1349 C   0  0  2  0  0  0
  -20.6750  -26.9381   22.5427 C   0  0  0  0  0  0
  -19.5736  -26.6383   21.5213 C   0  0  0  0  0  0
  -18.1911  -26.7922   22.1617 C   0  0  0  0  0  0
  -19.1505  -28.8820   23.2918 C   0  0  0  0  0  0
  -18.9438  -30.1430   23.8923 C   0  0  0  0  0  0
  -17.6445  -30.6578   24.0566 C   0  0  0  0  0  0
  -25.9020  -34.9490   23.5163 C   0  0  0  0  0  0
  -16.5336  -29.9085   23.6318 C   0  0  0  0  0  0
  -16.7249  -28.6500   23.0337 C   0  0  0  0  0  0
  -26.4448  -31.6599   25.0720 C   0  0  0  0  0  0
  -25.3748  -31.3673   26.1489 C   0  0  0  0  0  0
  -27.0261  -30.3056   24.6028 C   0  0  0  0  0  0
  -27.6046  -32.4298   25.7474 C   0  0  0  0  0  0
  -27.5583  -37.1817   24.8466 C   0  0  0  0  0  0
  -21.4100  -29.3009   22.3762 N   0  0  0  0  0  0
  -26.4296  -37.3808   23.9411 N   0  0  0  0  0  0
  -24.6526  -31.0871   22.1025 N   0  0  0  0  0  0
  -23.4164  -28.8221   23.3062 O   0  0  0  0  0  0
  -28.4473  -26.8099   19.9552 O   0  0  0  0  0  0
  -26.5574  -34.8929   22.4722 O   0  0  0  0  0  0
  -23.5264  -32.1454   23.7579 O   0  0  0  0  0  0
  -31.9949  -19.2150   20.1727 C   0  0  0  0  0  0
  -30.6809  -20.4297   21.8158 C   0  0  0  0  0  0
  -31.2199  -19.2195   21.3490 C   0  0  0  0  0  0
  -31.6300  -21.6187   19.8936 C   0  0  0  0  0  0
  -32.2153  -20.4026   19.4497 C   0  0  0  0  0  0
  -30.8606  -21.6305   21.0927 C   0  0  0  0  0  0
  -29.6458  -17.2945   21.3027 C   0  0  0  0  0  0
  -32.0060  -16.9289   22.2350 C   0  0  0  0  0  0
  -30.3518  -23.2558   18.4588 C   0  0  0  0  0  0
  -32.4299  -24.0573   19.8155 C   0  0  0  0  0  0
  -29.2789  -15.9183   21.8694 C   0  0  0  0  0  0
  -31.5064  -15.5480   22.7142 C   0  0  0  0  0  0
  -30.3020  -24.6593   17.8535 C   0  0  0  0  0  0
  -32.2287  -25.4206   19.1412 C   0  0  0  0  0  0
  -30.8364  -17.9247   22.0489 C   0  0  0  0  0  0
  -31.7392  -22.8969   19.0499 C   0  0  1  0  0  0
  -33.0450  -20.3171   18.1775 C   0  0  0  0  0  0
  -28.9014  -24.2775   22.7711 C   0  0  0  0  0  0
  -30.4148  -27.0318   18.5803 C   0  0  0  0  0  0
  -29.4468  -22.8536   22.6370 C   0  0  0  0  0  0
  -29.6371  -27.5945   19.7731 C   0  0  0  0  0  0
  -30.4528  -15.0348   21.8247 N   0  0  0  0  0  0
  -30.7901  -25.6294   18.8560 N   0  3  1  0  0  0
  -30.2753  -22.8190   21.4836 O   0  0  0  0  0  0
  -31.4568  -12.3880   19.0778 H   0  0  0  0  0  0
  -30.3178  -11.2568   19.7367 H   0  0  0  0  0  0
  -29.7124  -11.8391   17.3784 H   0  0  0  0  0  0
  -29.6458  -13.5347   17.7910 H   0  0  0  0  0  0
  -27.8122  -11.3191   18.7778 H   0  0  0  0  0  0
  -27.3477  -12.6767   17.7878 H   0  0  0  0  0  0
  -27.7301  -14.2425   19.6125 H   0  0  0  0  0  0
  -28.6750  -11.8398   21.2565 H   0  0  0  0  0  0
  -28.4635  -13.4120   21.9193 H   0  0  0  0  0  0
  -25.2750   -9.5672   22.4771 H   0  0  0  0  0  0
  -23.9995   -7.4619   22.7470 H   0  0  0  0  0  0
  -21.0836   -8.8770   19.8948 H   0  0  0  0  0  0
  -22.3697  -10.9672   19.6172 H   0  0  0  0  0  0
  -21.1986   -7.6145   23.9718 H   0  0  0  0  0  0
  -21.1489   -6.0523   25.9082 H   0  0  0  0  0  0
  -22.0597   -2.7609   23.2850 H   0  0  0  0  0  0
  -22.4099  -11.9886   22.4777 H   0  0  0  0  0  0
  -21.1127  -13.1281   22.2608 H   0  0  0  0  0  0
  -24.6712  -15.8415   20.5139 H   0  0  0  0  0  0
  -26.2921  -15.6223   20.0901 H   0  0  0  0  0  0
  -26.7050  -32.5604   23.1214 H   0  0  0  0  0  0
  -25.0026  -33.9815   25.0518 H   0  0  0  0  0  0
  -22.6770  -31.3044   21.4110 H   0  0  0  0  0  0
  -23.3738  -35.9664   23.3314 H   0  0  0  0  0  0
  -24.3578  -36.8922   22.2054 H   0  0  0  0  0  0
  -23.7222  -37.6539   23.6628 H   0  0  0  0  0  0
  -26.0048  -31.6177   20.5856 H   0  0  0  0  0  0
  -26.8019  -30.9239   21.9694 H   0  0  0  0  0  0
  -28.0636  -29.1936   21.2024 H   0  0  0  0  0  0
  -26.1399  -25.9971   19.0249 H   0  0  0  0  0  0
  -24.0036  -27.2596   19.0678 H   0  0  0  0  0  0
  -23.7033  -30.5853   19.4036 H   0  0  0  0  0  0
  -22.7288  -29.2256   19.8777 H   0  0  0  0  0  0
  -25.1275  -36.2022   25.0843 H   0  0  0  0  0  0
  -20.9923  -28.3187   24.1474 H   0  0  0  0  0  0
  -20.5651  -26.2238   23.3599 H   0  0  0  0  0  0
  -21.6624  -26.7434   22.1221 H   0  0  0  0  0  0
  -19.6895  -25.6302   21.1223 H   0  0  0  0  0  0
  -19.6694  -27.3210   20.6760 H   0  0  0  0  0  0
  -17.4192  -26.6672   21.4010 H   0  0  0  0  0  0
  -18.0301  -26.0059   22.9006 H   0  0  0  0  0  0
  -19.7917  -30.7234   24.2309 H   0  0  0  0  0  0
  -17.5002  -31.6264   24.5155 H   0  0  0  0  0  0
  -15.5336  -30.3000   23.7630 H   0  0  0  0  0  0
  -15.8644  -28.0836   22.7032 H   0  0  0  0  0  0
  -24.5906  -30.7036   25.7827 H   0  0  0  0  0  0
  -24.8955  -32.2817   26.4994 H   0  0  0  0  0  0
  -25.8129  -30.8801   27.0208 H   0  0  0  0  0  0
  -26.2775  -29.6830   24.1110 H   0  0  0  0  0  0
  -27.4092  -29.7267   25.4442 H   0  0  0  0  0  0
  -27.8586  -30.4397   23.9115 H   0  0  0  0  0  0
  -27.2680  -33.3572   26.2116 H   0  0  0  0  0  0
  -28.3829  -32.6892   25.0284 H   0  0  0  0  0  0
  -28.0743  -31.8375   26.5336 H   0  0  0  0  0  0
  -28.2613  -38.0103   24.7509 H   0  0  0  0  0  0
  -28.1065  -36.2634   24.6301 H   0  0  0  0  0  0
  -27.2296  -37.1492   25.8868 H   0  0  0  0  0  0
  -20.9249  -29.8716   21.6979 H   0  0  0  0  0  0
  -26.0196  -38.2892   24.1416 H   0  0  0  0  0  0
  -32.3890  -18.2862   19.7858 H   0  0  0  0  0  0
  -30.0780  -20.4013   22.7109 H   0  0  0  0  0  0
  -28.7820  -17.9588   21.3560 H   0  0  0  0  0  0
  -29.8840  -17.1945   20.2424 H   0  0  0  0  0  0
  -32.5503  -16.7842   21.3039 H   0  0  0  0  0  0
  -32.7313  -17.3350   22.9414 H   0  0  0  0  0  0
  -30.0700  -22.5171   17.7076 H   0  0  0  0  0  0
  -29.5725  -23.2013   19.2171 H   0  0  0  0  0  0
  -32.0686  -24.1494   20.8363 H   0  0  0  0  0  0
  -33.4955  -23.8457   19.9154 H   0  0  0  0  0  0
  -28.4390  -15.5318   21.2982 H   0  0  0  0  0  0
  -28.9249  -16.0098   22.8974 H   0  0  0  0  0  0
  -31.1148  -15.6213   23.7297 H   0  0  0  0  0  0
  -32.3386  -14.8432   22.7663 H   0  0  0  0  0  0
  -29.2717  -24.8845   17.5734 H   0  0  0  0  0  0
  -30.8994  -24.7177   16.9423 H   0  0  0  0  0  0
  -32.8068  -25.4848   18.2178 H   0  0  0  0  0  0
  -32.6019  -26.2044   19.8018 H   0  0  0  0  0  0
  -30.4891  -18.1758   23.0531 H   0  0  0  0  0  0
  -32.3774  -22.7292   18.1848 H   0  0  0  0  0  0
  -33.4362  -19.3120   18.0178 H   0  0  0  0  0  0
  -33.9000  -20.9921   18.2268 H   0  0  0  0  0  0
  -32.4430  -20.5749   17.3054 H   0  0  0  0  0  0
  -28.2595  -24.3677   23.6476 H   0  0  0  0  0  0
  -28.3122  -24.5555   21.8966 H   0  0  0  0  0  0
  -29.7109  -25.0004   22.8743 H   0  0  0  0  0  0
  -31.2992  -27.6408   18.3882 H   0  0  0  0  0  0
  -29.7974  -27.1095   17.6846 H   0  0  0  0  0  0
  -28.6166  -22.1523   22.5388 H   0  0  0  0  0  0
  -30.0202  -22.5886   23.5267 H   0  0  0  0  0  0
  -29.4412  -28.6434   19.5493 H   0  0  0  0  0  0
  -30.2357  -27.5690   20.6848 H   0  0  0  0  0  0
  -30.2892  -25.4044   19.7050 H   0  0  0  0  0  0
  1 25  1  0  0  0
  1 30  2  0  0  0
  1 92  1  0  0  0
  2  3  1  0  0  0
  2 25  1  0  0  0
  2 95  1  0  0  0
  2 96  1  0  0  0
  3  4  1  0  0  0
  3 97  1  0  0  0
  3 98  1  0  0  0
  4  5  1  0  0  0
  4 99  1  0  0  0
  4100  1  0  0  0
  5  6  1  0  0  0
  5 26  1  0  0  0
  5101  1  0  0  0
  6 25  1  0  0  0
  6102  1  0  0  0
  6103  1  0  0  0
  7  8  2  0  0  0
  7 26  1  0  0  0
  7 29  1  0  0  0
  8  9  1  0  0  0
  8 22  1  0  0  0
  9 10  1  0  0  0
  9 27  2  0  0  0
 10 11  2  0  0  0
 10 15  1  0  0  0
 11 12  1  0  0  0
 11104  1  0  0  0
 12 13  2  0  0  0
 12105  1  0  0  0
 13 14  1  0  0  0
 13 31  1  0  0  0
 14 15  2  0  0  0
 14106  1  0  0  0
 15107  1  0  0  0
 16 17  2  0  0  0
 16 21  1  0  0  0
 16 31  1  0  0  0
 17 18  1  0  0  0
 17108  1  0  0  0
 18 19  2  0  0  0
 18109  1  0  0  0
 19 20  1  0  0  0
 19 24  1  0  0  0
 20 21  2  0  0  0
 20110  1  0  0  0
 21 23  1  0  0  0
 22 28  1  0  0  0
 22 32  2  0  0  0
 26 27  1  0  0  0
 28111  1  0  0  0
 28112  1  0  0  0
 29113  1  0  0  0
 29114  1  0  0  0
 33 34  1  0  0  0
 33 66  1  0  0  0
 33 70  2  0  0  0
 34 36  1  0  0  0
 34 59  1  0  0  0
 34115  1  0  0  0
 35 44  2  0  0  0
 35 45  1  0  0  0
 35 68  1  0  0  0
 36 56  1  0  0  0
 36116  1  0  0  0
 37 39  1  0  0  0
 37 47  1  0  0  0
 37 66  1  0  0  0
 37117  1  0  0  0
 38 43  2  0  0  0
 38 46  1  0  0  0
 38 47  1  0  0  0
 39 64  1  0  0  0
 39 67  2  0  0  0
 40 52  1  0  0  0
 40 53  2  0  0  0
 40 58  1  0  0  0
 41118  1  0  0  0
 41119  1  0  0  0
 41120  1  0  0  0
 41 48  1  0  0  0
 42 43  1  0  0  0
 42 66  1  0  0  0
 42121  1  0  0  0
 42122  1  0  0  0
 43 44  1  0  0  0
 44123  1  0  0  0
 45 46  2  0  0  0
 45124  1  0  0  0
 46125  1  0  0  0
 47126  1  0  0  0
 47127  1  0  0  0
 48 56  1  0  0  0
 48 65  1  0  0  0
 48128  1  0  0  0
 49 50  1  0  0  0
 49 53  1  0  0  0
 49 64  1  0  0  0
 49129  1  0  0  0
 50 51  1  0  0  0
 50130  1  0  0  0
 50131  1  0  0  0
 51 52  1  0  0  0
 51132  1  0  0  0
 51133  1  0  0  0
 52134  1  0  0  0
 52135  1  0  0  0
 53 54  1  0  0  0
 54 55  2  0  0  0
 54136  1  0  0  0
 55 57  1  0  0  0
 55137  1  0  0  0
 56 69  2  0  0  0
 57 58  2  0  0  0
 57138  1  0  0  0
 58139  1  0  0  0
 59 60  1  0  0  0
 59 61  1  0  0  0
 59 62  1  0  0  0
 60140  1  0  0  0
 60141  1  0  0  0
 60142  1  0  0  0
 61143  1  0  0  0
 61144  1  0  0  0
 61145  1  0  0  0
 62146  1  0  0  0
 62147  1  0  0  0
 62148  1  0  0  0
 63 65  1  0  0  0
 63149  1  0  0  0
 63150  1  0  0  0
 63151  1  0  0  0
 64152  1  0  0  0
 65153  1  0  0  0
 68 91  1  0  0  0
 71 73  2  0  0  0
 71 75  1  0  0  0
 71154  1  0  0  0
 72 73  1  0  0  0
 72 76  2  0  0  0
 72155  1  0  0  0
 73 85  1  0  0  0
 74 75  2  0  0  0
 74 76  1  0  0  0
 74 86  1  0  0  0
 75 87  1  0  0  0
 76 94  1  0  0  0
 77 81  1  0  0  0
 77 85  1  0  0  0
 77156  1  0  0  0
 77157  1  0  0  0
 78 82  1  0  0  0
 78 85  1  0  0  0
 78158  1  0  0  0
 78159  1  0  0  0
 79 83  1  0  0  0
 79 86  1  0  0  0
 79160  1  0  0  0
 79161  1  0  0  0
 80 84  1  0  0  0
 80 86  1  0  0  0
 80162  1  0  0  0
 80163  1  0  0  0
 81 92  1  0  0  0
 81164  1  0  0  0
 81165  1  0  0  0
 82 92  1  0  0  0
 82166  1  0  0  0
 82167  1  0  0  0
 83 93  1  0  0  0
 83168  1  0  0  0
 83169  1  0  0  0
 84 93  1  0  0  0
 84170  1  0  0  0
 84171  1  0  0  0
 85172  1  0  0  0
 86173  1  0  0  0
 87174  1  0  0  0
 87175  1  0  0  0
 87176  1  0  0  0
 88 90  1  0  0  0
 88177  1  0  0  0
 88178  1  0  0  0
 88179  1  0  0  0
 89 91  1  0  0  0
 89180  1  0  0  0
 89181  1  0  0  0
 89 93  1  0  0  0
 90 94  1  0  0  0
 90182  1  0  0  0
 90183  1  0  0  0
 91184  1  0  0  0
 91185  1  0  0  0
 93186  1  0  0  0
M  CHG  1  93   1
M  ISO  4   1 100  68 101  91 101  92 100
M  END
> <chiral flag>
0

> <version>
0

> <s_m_source_file>
/data/baiqing/PycharmProjects/Reinvent-master-3.2/result/LINK_invent/BTK/process_docking_weight1_custom_sum_contain_oxygen_bond_distance_aromatic_linkinvent_7_9_3/rearranged_h_0150.sdf

> <i_m_source_file_index>
23

> <r_mmod_Potential_Energy-OPLS-2005>
106.737800598145

> <r_mmod_Stretch_Energy-OPLS-2005>
38.5230941772461

> <r_mmod_Bend_Energy-OPLS-2005>
116.652793884277

> <r_mmod_Torsional_Energy-OPLS-2005>
361.882965087891

> <r_mmod_Improper_Torsional_Energy-OPLS-2005>
7.95928001403809

> <r_mmod_Van_der_Waal_Energy-OPLS-2005>
182.372283935547

> <r_mmod_Electrostatic_Energy-OPLS-2005>
-226.497512817383

> <r_mmod_Solvation_Energy-OPLS-2005>
-381.350463867188

> <b_mmod_Minimization_Converged-OPLS-2005>
0

> <r_mmod_RMS_Derivative-OPLS-2005>
0.791146337985992

$$$$
23
                    3D
 Structure written by MMmdl.
182192  0  0  1  0            999 V2000
  -30.7564  -14.5698   20.4758 C   0  0  0  0  0  0
  -30.4174  -12.3592   19.4220 C   0  0  0  0  0  0
  -29.4841  -12.4738   18.2002 C   0  0  0  0  0  0
  -28.0225  -12.2550   18.6356 C   0  0  0  0  0  0
  -27.6291  -13.1532   19.8346 C   0  0  2  0  0  0
  -28.7026  -13.1341   20.9586 C   0  0  0  0  0  0
  -25.2573  -13.7951   20.5684 C   0  0  0  0  0  0
  -24.1781  -13.0316   20.9203 C   0  0  0  0  0  0
  -24.6279  -11.6755   20.8778 C   0  0  0  0  0  0
  -23.8943  -10.4196   21.0434 C   0  0  0  0  0  0
  -24.3519   -9.4111   21.9194 C   0  0  0  0  0  0
  -23.6234   -8.2135   22.0758 C   0  0  0  0  0  0
  -22.4221   -8.0193   21.3538 C   0  0  0  0  0  0
  -21.9829   -9.0155   20.4646 C   0  0  0  0  0  0
  -22.7130  -10.2037   20.3064 C   0  0  0  0  0  0
  -21.6810   -6.0680   22.5265 C   0  0  0  0  0  0
  -21.3983   -6.5597   23.8196 C   0  0  0  0  0  0
  -21.3663   -5.6755   24.9164 C   0  0  0  0  0  0
  -21.6059   -4.3024   24.7226 C   0  0  0  0  0  0
  -21.8816   -3.8102   23.4361 C   0  0  0  0  0  0
  -21.9177   -4.6910   22.3406 C   0  0  0  0  0  0
  -22.7820  -13.5192   21.1835 C   0  0  0  0  0  0
  -22.1638   -4.2101   21.0984 F   0  0  0  0  0  0
  -21.5678   -3.4524   25.7753 F   0  0  0  0  0  0
  -30.0224  -13.4146   20.3694 N   0  0  0  0  0  0
  -26.2896  -12.8953   20.3328 N   0  0  0  0  0  0
  -25.9185  -11.6201   20.5796 N   0  0  0  0  0  0
  -22.0398  -12.8270   22.0410 N   0  0  0  0  0  0
  -25.4399  -15.1665   20.4072 N   0  0  0  0  0  0
  -31.9445  -14.6053   20.1627 O   0  0  0  0  0  0
  -21.6600   -6.8791   21.4218 O   0  0  0  0  0  0
  -22.3541  -14.5479   20.6617 O   0  0  0  0  0  0
  -24.6150  -31.8690   23.2123 C   0  0  0  0  0  0
  -25.9024  -32.4842   23.8433 C   0  0  1  0  0  0
  -27.2241  -27.4341   20.1040 C   0  0  0  0  0  0
  -25.5886  -33.8643   24.2358 N   0  0  0  0  0  0
  -23.4041  -30.4950   21.5510 C   0  0  2  0  0  0
  -24.8493  -28.9639   20.1114 C   0  0  0  0  0  0
  -22.7417  -29.4668   22.4975 C   0  0  0  0  0  0
  -18.0275  -28.1385   22.8497 C   0  0  0  0  0  0
  -24.1473  -36.7311   23.2649 C   0  0  0  0  0  0
  -25.9332  -30.8382   21.3630 C   0  0  0  0  0  0
  -26.0106  -29.4739   20.7072 C   0  0  0  0  0  0
  -27.2068  -28.7195   20.6920 C   0  0  0  0  0  0
  -26.0509  -26.9407   19.4968 C   0  0  0  0  0  0
  -24.8648  -27.6974   19.5005 C   0  0  0  0  0  0
  -23.6130  -29.8320   20.1634 C   0  0  0  0  0  0
  -25.4099  -36.3131   24.0358 C   0  0  1  0  0  0
  -20.5864  -28.3674   23.1310 C   0  0  2  0  0  0
  -20.6756  -26.9409   22.5414 C   0  0  0  0  0  0
  -19.5738  -26.6393   21.5210 C   0  0  0  0  0  0
  -18.1913  -26.7935   22.1613 C   0  0  0  0  0  0
  -19.1520  -28.8841   23.2905 C   0  0  0  0  0  0
  -18.9453  -30.1447   23.8922 C   0  0  0  0  0  0
  -17.6457  -30.6594   24.0563 C   0  0  0  0  0  0
  -25.9027  -34.9500   23.5147 C   0  0  0  0  0  0
  -16.5353  -29.9100   23.6320 C   0  0  0  0  0  0
  -16.7263  -28.6509   23.0353 C   0  0  0  0  0  0
  -26.4457  -31.6626   25.0764 C   0  0  0  0  0  0
  -25.3743  -31.3714   26.1531 C   0  0  0  0  0  0
  -27.0278  -30.3078   24.6111 C   0  0  0  0  0  0
  -27.6059  -32.4345   25.7500 C   0  0  0  0  0  0
  -27.5578  -37.1810   24.8469 C   0  0  0  0  0  0
  -21.4133  -29.3046   22.3710 N   0  0  0  0  0  0
  -26.4288  -37.3812   23.9425 N   0  0  0  0  0  0
  -24.6693  -31.0819   22.1012 N   0  0  0  0  0  0
  -23.4193  -28.8215   23.3010 O   0  0  0  0  0  0
  -28.3678  -26.6639   20.1091 O   0  0  0  0  0  0
  -26.5574  -34.8943   22.4705 O   0  0  0  0  0  0
  -23.5333  -32.1427   23.7512 O   0  0  0  0  0  0
  -31.8920  -18.7630   17.7236 C   0  0  0  0  0  0
  -31.9845  -20.6862   16.2796 C   0  0  0  0  0  0
  -31.0277  -19.4413   18.6206 C   0  0  0  0  0  0
  -31.2078  -21.4309   17.1873 C   0  0  0  0  0  0
  -30.7177  -20.8249   18.3922 C   0  0  0  0  0  0
  -32.3553  -19.3616   16.5374 C   0  0  0  0  0  0
  -29.5771  -17.4372   19.0520 C   0  0  0  0  0  0
  -31.3830  -17.9430   20.7208 C   0  0  0  0  0  0
  -30.1262  -23.5414   20.9409 C   0  0  0  0  0  0
  -28.0344  -23.1575   19.7116 C   0  0  0  0  0  0
  -29.0736  -16.3301   19.9878 C   0  0  0  0  0  0
  -30.7741  -16.8072   21.6005 C   0  0  0  0  0  0
  -30.8658  -22.4888   20.0838 C   0  0  0  0  0  0
  -28.6905  -22.0676   18.8380 C   0  0  0  0  0  0
  -30.3770  -18.5726   19.7217 C   0  0  0  0  0  0
  -29.0138  -24.2650   20.1494 C   0  0  0  0  0  0
  -30.9404  -22.8725   16.7533 C   0  0  0  0  0  0
  -28.7920  -25.7952   22.2909 C   0  0  0  0  0  0
  -33.3611  -17.3317   15.7226 C   0  0  0  0  0  0
  -28.2826  -25.4472   20.8797 C   0  0  1  0  0  0
  -29.9794  -21.5698   19.3486 N   0  0  0  0  0  0
  -30.1241  -15.7319   20.8220 N   0  0  0  0  0  0
  -33.1310  -18.7293   15.5902 O   0  0  0  0  0  0
  -31.4607  -12.4345   19.1091 H   0  0  0  0  0  0
  -30.3160  -11.3781   19.8857 H   0  0  0  0  0  0
  -29.7648  -11.7460   17.4377 H   0  0  0  0  0  0
  -29.5873  -13.4553   17.7311 H   0  0  0  0  0  0
  -27.9143  -11.2047   18.9102 H   0  0  0  0  0  0
  -27.3468  -12.4162   17.7951 H   0  0  0  0  0  0
  -27.5346  -14.1220   19.3888 H   0  0  0  0  0  0
  -28.7263  -12.1598   21.4496 H   0  0  0  0  0  0
  -28.4575  -13.8660   21.7299 H   0  0  0  0  0  0
  -25.2668   -9.5632   22.4763 H   0  0  0  0  0  0
  -23.9961   -7.4538   22.7491 H   0  0  0  0  0  0
  -21.0752   -8.8668   19.8973 H   0  0  0  0  0  0
  -22.3586  -10.9584   19.6189 H   0  0  0  0  0  0
  -21.1938   -7.6101   23.9690 H   0  0  0  0  0  0
  -21.1517   -6.0488   25.9076 H   0  0  0  0  0  0
  -22.0610   -2.7569   23.2861 H   0  0  0  0  0  0
  -22.3969  -11.9975   22.4901 H   0  0  0  0  0  0
  -21.1011  -13.1362   22.2550 H   0  0  0  0  0  0
  -24.6799  -15.8299   20.5139 H   0  0  0  0  0  0
  -26.3160  -15.5994   20.1452 H   0  0  0  0  0  0
  -26.7113  -32.5557   23.1221 H   0  0  0  0  0  0
  -25.0044  -33.9817   25.0500 H   0  0  0  0  0  0
  -22.6938  -31.3128   21.4136 H   0  0  0  0  0  0
  -23.3758  -35.9616   23.3301 H   0  0  0  0  0  0
  -24.3553  -36.8927   22.2060 H   0  0  0  0  0  0
  -23.7190  -37.6510   23.6645 H   0  0  0  0  0  0
  -26.0450  -31.6085   20.5989 H   0  0  0  0  0  0
  -26.8216  -30.8912   21.9801 H   0  0  0  0  0  0
  -28.1071  -29.1091   21.1473 H   0  0  0  0  0  0
  -26.0539  -25.9673   19.0269 H   0  0  0  0  0  0
  -23.9714  -27.3018   19.0370 H   0  0  0  0  0  0
  -23.7239  -30.6095   19.4063 H   0  0  0  0  0  0
  -22.7365  -29.2540   19.8658 H   0  0  0  0  0  0
  -25.1267  -36.2012   25.0852 H   0  0  0  0  0  0
  -20.9975  -28.3248   24.1424 H   0  0  0  0  0  0
  -20.5640  -26.2301   23.3610 H   0  0  0  0  0  0
  -21.6631  -26.7435   22.1223 H   0  0  0  0  0  0
  -19.6888  -25.6303   21.1239 H   0  0  0  0  0  0
  -19.6677  -27.3202   20.6739 H   0  0  0  0  0  0
  -17.4189  -26.6709   21.4003 H   0  0  0  0  0  0
  -18.0296  -26.0072   22.8999 H   0  0  0  0  0  0
  -19.7932  -30.7242   24.2321 H   0  0  0  0  0  0
  -17.5020  -31.6277   24.5164 H   0  0  0  0  0  0
  -15.5348  -30.3013   23.7630 H   0  0  0  0  0  0
  -15.8666  -28.0840   22.7059 H   0  0  0  0  0  0
  -24.5920  -30.7048   25.7876 H   0  0  0  0  0  0
  -24.8923  -32.2858   26.5015 H   0  0  0  0  0  0
  -25.8134  -30.8875   27.0268 H   0  0  0  0  0  0
  -26.2801  -29.6863   24.1173 H   0  0  0  0  0  0
  -27.4069  -29.7300   25.4548 H   0  0  0  0  0  0
  -27.8634  -30.4411   23.9236 H   0  0  0  0  0  0
  -27.2709  -33.3659   26.2080 H   0  0  0  0  0  0
  -28.3855  -32.6887   25.0307 H   0  0  0  0  0  0
  -28.0740  -31.8468   26.5404 H   0  0  0  0  0  0
  -28.2622  -38.0084   24.7522 H   0  0  0  0  0  0
  -28.1046  -36.2625   24.6282 H   0  0  0  0  0  0
  -27.2297  -37.1467   25.8873 H   0  0  0  0  0  0
  -20.9295  -29.8800   21.6959 H   0  0  0  0  0  0
  -26.0185  -38.2898   24.1426 H   0  0  0  0  0  0
  -32.1543  -17.7392   17.9362 H   0  0  0  0  0  0
  -32.3114  -21.1450   15.3575 H   0  0  0  0  0  0
  -28.7390  -17.8588   18.4973 H   0  0  0  0  0  0
  -30.1837  -16.9279   18.3035 H   0  0  0  0  0  0
  -32.2353  -17.5260   20.1853 H   0  0  0  0  0  0
  -31.7866  -18.7317   21.3576 H   0  0  0  0  0  0
  -30.8613  -24.2559   21.3100 H   0  0  0  0  0  0
  -29.7034  -23.0626   21.8257 H   0  0  0  0  0  0
  -27.5953  -22.6961   20.5972 H   0  0  0  0  0  0
  -27.2034  -23.5926   19.1556 H   0  0  0  0  0  0
  -28.7202  -15.6125   19.2706 H   0  0  0  0  0  0
  -28.2405  -16.6634   20.6082 H   0  0  0  0  0  0
  -30.0188  -17.2285   22.2646 H   0  0  0  0  0  0
  -31.5420  -16.3963   22.2582 H   0  0  0  0  0  0
  -31.4953  -21.8895   20.7456 H   0  0  0  0  0  0
  -31.5666  -22.9904   19.4163 H   0  0  0  0  0  0
  -28.7658  -22.4400   17.8217 H   0  0  0  0  0  0
  -28.0104  -21.2166   18.7773 H   0  0  0  0  0  0
  -29.6650  -19.1763   20.2877 H   0  0  0  0  0  0
  -29.4715  -24.6838   19.2535 H   0  0  0  0  0  0
  -31.8003  -23.2652   16.2109 H   0  0  0  0  0  0
  -30.7440  -23.5560   17.5726 H   0  0  0  0  0  0
  -30.0903  -22.9121   16.0720 H   0  0  0  0  0  0
  -28.7290  -24.9431   22.9684 H   0  0  0  0  0  0
  -28.1909  -26.5908   22.7337 H   0  0  0  0  0  0
  -29.8228  -26.1476   22.2663 H   0  0  0  0  0  0
  -33.9370  -16.9908   14.8618 H   0  0  0  0  0  0
  -32.4311  -16.7622   15.7313 H   0  0  0  0  0  0
  -33.9387  -17.1000   16.6191 H   0  0  0  0  0  0
  -27.2402  -25.1537   21.0121 H   0  0  0  0  0  0
  1 25  1  0  0  0
  1 30  2  0  0  0
  1 92  1  0  0  0
  2  3  1  0  0  0
  2 25  1  0  0  0
  2 94  1  0  0  0
  2 95  1  0  0  0
  3  4  1  0  0  0
  3 96  1  0  0  0
  3 97  1  0  0  0
  4  5  1  0  0  0
  4 98  1  0  0  0
  4 99  1  0  0  0
  5  6  1  0  0  0
  5 26  1  0  0  0
  5100  1  0  0  0
  6 25  1  0  0  0
  6101  1  0  0  0
  6102  1  0  0  0
  7  8  2  0  0  0
  7 26  1  0  0  0
  7 29  1  0  0  0
  8  9  1  0  0  0
  8 22  1  0  0  0
  9 10  1  0  0  0
  9 27  2  0  0  0
 10 11  2  0  0  0
 10 15  1  0  0  0
 11 12  1  0  0  0
 11103  1  0  0  0
 12 13  2  0  0  0
 12104  1  0  0  0
 13 14  1  0  0  0
 13 31  1  0  0  0
 14 15  2  0  0  0
 14105  1  0  0  0
 15106  1  0  0  0
 16 17  2  0  0  0
 16 21  1  0  0  0
 16 31  1  0  0  0
 17 18  1  0  0  0
 17107  1  0  0  0
 18 19  2  0  0  0
 18108  1  0  0  0
 19 20  1  0  0  0
 19 24  1  0  0  0
 20 21  2  0  0  0
 20109  1  0  0  0
 21 23  1  0  0  0
 22 28  1  0  0  0
 22 32  2  0  0  0
 26 27  1  0  0  0
 28110  1  0  0  0
 28111  1  0  0  0
 29112  1  0  0  0
 29113  1  0  0  0
 33 34  1  0  0  0
 33 66  1  0  0  0
 33 70  2  0  0  0
 34 36  1  0  0  0
 34 59  1  0  0  0
 34114  1  0  0  0
 35 44  2  0  0  0
 35 45  1  0  0  0
 35 68  1  0  0  0
 36 56  1  0  0  0
 36115  1  0  0  0
 37 39  1  0  0  0
 37 47  1  0  0  0
 37 66  1  0  0  0
 37116  1  0  0  0
 38 43  2  0  0  0
 38 46  1  0  0  0
 38 47  1  0  0  0
 39 64  1  0  0  0
 39 67  2  0  0  0
 40 52  1  0  0  0
 40 53  2  0  0  0
 40 58  1  0  0  0
 41117  1  0  0  0
 41118  1  0  0  0
 41119  1  0  0  0
 41 48  1  0  0  0
 42 43  1  0  0  0
 42 66  1  0  0  0
 42120  1  0  0  0
 42121  1  0  0  0
 43 44  1  0  0  0
 44122  1  0  0  0
 45 46  2  0  0  0
 45123  1  0  0  0
 46124  1  0  0  0
 47125  1  0  0  0
 47126  1  0  0  0
 48 56  1  0  0  0
 48 65  1  0  0  0
 48127  1  0  0  0
 49 50  1  0  0  0
 49 53  1  0  0  0
 49 64  1  0  0  0
 49128  1  0  0  0
 50 51  1  0  0  0
 50129  1  0  0  0
 50130  1  0  0  0
 51 52  1  0  0  0
 51131  1  0  0  0
 51132  1  0  0  0
 52133  1  0  0  0
 52134  1  0  0  0
 53 54  1  0  0  0
 54 55  2  0  0  0
 54135  1  0  0  0
 55 57  1  0  0  0
 55136  1  0  0  0
 56 69  2  0  0  0
 57 58  2  0  0  0
 57137  1  0  0  0
 58138  1  0  0  0
 59 60  1  0  0  0
 59 61  1  0  0  0
 59 62  1  0  0  0
 60139  1  0  0  0
 60140  1  0  0  0
 60141  1  0  0  0
 61142  1  0  0  0
 61143  1  0  0  0
 61144  1  0  0  0
 62145  1  0  0  0
 62146  1  0  0  0
 62147  1  0  0  0
 63 65  1  0  0  0
 63148  1  0  0  0
 63149  1  0  0  0
 63150  1  0  0  0
 64151  1  0  0  0
 65152  1  0  0  0
 68 90  1  0  0  0
 71 73  2  0  0  0
 71 76  1  0  0  0
 71153  1  0  0  0
 72 74  1  0  0  0
 72 76  2  0  0  0
 72154  1  0  0  0
 73 75  1  0  0  0
 73 85  1  0  0  0
 74 75  2  0  0  0
 74 87  1  0  0  0
 75 91  1  0  0  0
 76 93  1  0  0  0
 77 81  1  0  0  0
 77 85  1  0  0  0
 77155  1  0  0  0
 77156  1  0  0  0
 78 82  1  0  0  0
 78 85  1  0  0  0
 78157  1  0  0  0
 78158  1  0  0  0
 79 83  1  0  0  0
 79159  1  0  0  0
 79160  1  0  0  0
 79 86  1  0  0  0
 80 84  1  0  0  0
 80 86  1  0  0  0
 80161  1  0  0  0
 80162  1  0  0  0
 81 92  1  0  0  0
 81163  1  0  0  0
 81164  1  0  0  0
 82 92  1  0  0  0
 82165  1  0  0  0
 82166  1  0  0  0
 83 91  1  0  0  0
 83167  1  0  0  0
 83168  1  0  0  0
 84 91  1  0  0  0
 84169  1  0  0  0
 84170  1  0  0  0
 85171  1  0  0  0
 86 90  1  0  0  0
 86172  1  0  0  0
 87173  1  0  0  0
 87174  1  0  0  0
 87175  1  0  0  0
 88176  1  0  0  0
 88177  1  0  0  0
 88178  1  0  0  0
 88 90  1  0  0  0
 89 93  1  0  0  0
 89179  1  0  0  0
 89180  1  0  0  0
 89181  1  0  0  0
 90182  1  0  0  0
M  ISO  4   1 100  68 101  90 101  92 100
M  END
> <chiral flag>
0

> <version>
0

> <s_m_source_file>
/data/baiqing/PycharmProjects/Reinvent-master-3.2/result/LINK_invent/BTK/process_docking_weight1_custom_sum_contain_oxygen_bond_distance_aromatic_linkinvent_7_9_3/rearranged_h_0150.sdf

> <i_m_source_file_index>
24

> <r_mmod_Potential_Energy-OPLS-2005>
284.609161376953

> <r_mmod_Stretch_Energy-OPLS-2005>
53.9227523803711

> <r_mmod_Bend_Energy-OPLS-2005>
147.454116821289

> <r_mmod_Torsional_Energy-OPLS-2005>
420.284576416016

> <r_mmod_Improper_Torsional_Energy-OPLS-2005>
8.77386569976807

> <r_mmod_Van_der_Waal_Energy-OPLS-2005>
180.779113769531

> <r_mmod_Electrostatic_Energy-OPLS-2005>
-356.862213134766

> <r_mmod_Solvation_Energy-OPLS-2005>
-204.6650390625

> <b_mmod_Minimization_Converged-OPLS-2005>
0

> <r_mmod_RMS_Derivative-OPLS-2005>
4.27104711532593

$$$$
24
                    3D
 Structure written by MMmdl.
166175  0  0  1  0            999 V2000
  -30.6899  -14.4690   20.6740 C   0  0  0  0  0  0
  -30.4351  -12.3426   19.4037 C   0  0  0  0  0  0
  -29.4957  -12.5320   18.1942 C   0  0  0  0  0  0
  -28.0181  -12.3561   18.6046 C   0  0  0  0  0  0
  -27.6590  -13.1746   19.8703 C   0  0  2  0  0  0
  -28.7034  -12.9222   20.9838 C   0  0  0  0  0  0
  -25.2598  -13.8085   20.5612 C   0  0  0  0  0  0
  -24.1823  -13.0415   20.9146 C   0  0  0  0  0  0
  -24.6345  -11.6877   20.8730 C   0  0  0  0  0  0
  -23.9020  -10.4283   21.0420 C   0  0  0  0  0  0
  -24.3597   -9.4206   21.9197 C   0  0  0  0  0  0
  -23.6269   -8.2240   22.0779 C   0  0  0  0  0  0
  -22.4246   -8.0287   21.3570 C   0  0  0  0  0  0
  -21.9873   -9.0263   20.4676 C   0  0  0  0  0  0
  -22.7197  -10.2132   20.3073 C   0  0  0  0  0  0
  -21.6865   -6.0735   22.5272 C   0  0  0  0  0  0
  -21.4029   -6.5632   23.8200 C   0  0  0  0  0  0
  -21.3652   -5.6782   24.9155 C   0  0  0  0  0  0
  -21.6024   -4.3043   24.7213 C   0  0  0  0  0  0
  -21.8820   -3.8154   23.4331 C   0  0  0  0  0  0
  -21.9201   -4.6971   22.3395 C   0  0  0  0  0  0
  -22.7853  -13.5254   21.1824 C   0  0  0  0  0  0
  -22.1670   -4.2174   21.0967 F   0  0  0  0  0  0
  -21.5632   -3.4516   25.7720 F   0  0  0  0  0  0
  -30.0239  -13.2940   20.4522 N   0  0  0  0  0  0
  -26.2998  -12.9178   20.3300 N   0  0  0  0  0  0
  -25.9247  -11.6380   20.5705 N   0  0  0  0  0  0
  -22.0497  -12.8277   22.0384 N   0  0  0  0  0  0
  -25.4267  -15.1795   20.3945 N   0  0  0  0  0  0
  -31.8029  -14.6852   20.1776 O   0  0  0  0  0  0
  -21.6626   -6.8879   21.4237 O   0  0  0  0  0  0
  -22.3563  -14.5581   20.6689 O   0  0  0  0  0  0
  -24.6102  -31.8671   23.2104 C   0  0  0  0  0  0
  -25.8994  -32.4831   23.8392 C   0  0  1  0  0  0
  -27.2365  -27.4224   20.0960 C   0  0  0  0  0  0
  -25.5847  -33.8626   24.2305 N   0  0  0  0  0  0
  -23.3992  -30.4876   21.5553 C   0  0  2  0  0  0
  -24.8458  -28.9566   20.1132 C   0  0  0  0  0  0
  -22.7395  -29.4608   22.5022 C   0  0  0  0  0  0
  -18.0246  -28.1328   22.8502 C   0  0  0  0  0  0
  -24.1486  -36.7347   23.2652 C   0  0  0  0  0  0
  -25.9278  -30.8276   21.3663 C   0  0  0  0  0  0
  -26.0039  -29.4600   20.7134 C   0  0  0  0  0  0
  -27.1956  -28.6979   20.7059 C   0  0  0  0  0  0
  -26.0531  -26.9303   19.4944 C   0  0  0  0  0  0
  -24.8671  -27.6895   19.5013 C   0  0  0  0  0  0
  -23.6062  -29.8226   20.1672 C   0  0  0  0  0  0
  -25.4106  -36.3126   24.0344 C   0  0  1  0  0  0
  -20.5838  -28.3597   23.1356 C   0  0  2  0  0  0
  -20.6722  -26.9335   22.5439 C   0  0  0  0  0  0
  -19.5711  -26.6345   21.5217 C   0  0  0  0  0  0
  -18.1884  -26.7887   22.1608 C   0  0  0  0  0  0
  -19.1495  -28.8786   23.2933 C   0  0  0  0  0  0
  -18.9416  -30.1400   23.8943 C   0  0  0  0  0  0
  -17.6416  -30.6547   24.0558 C   0  0  0  0  0  0
  -25.9026  -34.9491   23.5128 C   0  0  0  0  0  0
  -16.5312  -29.9037   23.6328 C   0  0  0  0  0  0
  -16.7235  -28.6445   23.0367 C   0  0  0  0  0  0
  -26.4437  -31.6633   25.0725 C   0  0  0  0  0  0
  -25.3699  -31.3779   26.1492 C   0  0  0  0  0  0
  -27.0251  -30.3064   24.6121 C   0  0  0  0  0  0
  -27.6039  -32.4383   25.7409 C   0  0  0  0  0  0
  -27.5596  -37.1806   24.8449 C   0  0  0  0  0  0
  -21.4119  -29.2966   22.3781 N   0  0  0  0  0  0
  -26.4290  -37.3808   23.9420 N   0  0  0  0  0  0
  -24.6646  -31.0762   22.1018 N   0  0  0  0  0  0
  -23.4187  -28.8161   23.3059 O   0  0  0  0  0  0
  -28.4274  -26.7121   20.1263 O   0  0  0  0  0  0
  -26.5629  -34.8937   22.4719 O   0  0  0  0  0  0
  -23.5292  -32.1407   23.7492 O   0  0  0  0  0  0
  -29.6614  -20.3879   22.4962 C   0  0  0  0  0  0
  -29.4481  -21.7732   22.3234 C   0  0  0  0  0  0
  -29.5974  -21.5024   19.9185 C   0  0  0  0  0  0
  -29.8772  -20.1223   20.0826 C   0  0  0  0  0  0
  -29.8556  -19.5435   21.3808 C   0  0  0  0  0  0
  -29.3624  -22.3437   21.0345 C   0  0  0  0  0  0
  -31.0157  -17.5968   22.3968 C   0  0  0  0  0  0
  -28.6866  -17.4679   21.6578 C   0  0  0  0  0  0
  -30.8891  -16.0553   22.5747 C   0  0  0  0  0  0
  -28.8292  -16.0183   21.1747 C   0  0  0  0  0  0
  -29.1225  -18.5990   18.1407 C   0  0  0  0  0  0
  -28.6092  -25.5269   19.3284 C   0  0  0  0  0  0
  -28.1697  -24.1823   19.9755 C   0  0  0  0  0  0
  -30.2848  -19.2865   18.8665 C   0  0  1  0  0  0
  -29.9658  -18.1474   21.5431 N   0  0  0  0  0  0
  -30.1079  -15.3559   21.5289 N   0  0  0  0  0  0
  -29.1356  -23.7065   20.9320 O   0  0  0  0  0  0
  -30.9396  -20.0430   17.9819 F   0  0  0  0  0  0
  -31.4734  -12.4797   19.0981 H   0  0  0  0  0  0
  -30.3700  -11.3196   19.7804 H   0  0  0  0  0  0
  -29.7511  -11.8327   17.3975 H   0  0  0  0  0  0
  -29.6390  -13.5317   17.7819 H   0  0  0  0  0  0
  -27.8309  -11.2952   18.7807 H   0  0  0  0  0  0
  -27.3692  -12.6457   17.7784 H   0  0  0  0  0  0
  -27.6976  -14.2104   19.5569 H   0  0  0  0  0  0
  -28.7048  -11.8657   21.2550 H   0  0  0  0  0  0
  -28.4554  -13.4289   21.9149 H   0  0  0  0  0  0
  -25.2770   -9.5708   22.4720 H   0  0  0  0  0  0
  -24.0021   -7.4636   22.7489 H   0  0  0  0  0  0
  -21.0810   -8.8765   19.8980 H   0  0  0  0  0  0
  -22.3672  -10.9658   19.6166 H   0  0  0  0  0  0
  -21.2022   -7.6141   23.9698 H   0  0  0  0  0  0
  -21.1473   -6.0518   25.9051 H   0  0  0  0  0  0
  -22.0612   -2.7625   23.2807 H   0  0  0  0  0  0
  -22.4091  -11.9915   22.4740 H   0  0  0  0  0  0
  -21.1165  -13.1379   22.2663 H   0  0  0  0  0  0
  -24.6540  -15.8272   20.5086 H   0  0  0  0  0  0
  -26.2562  -15.6152   20.0131 H   0  0  0  0  0  0
  -26.7049  -32.5535   23.1146 H   0  0  0  0  0  0
  -24.9899  -33.9807   25.0379 H   0  0  0  0  0  0
  -22.6837  -31.3029   21.4234 H   0  0  0  0  0  0
  -23.3729  -35.9695   23.3299 H   0  0  0  0  0  0
  -24.3585  -36.8981   22.2070 H   0  0  0  0  0  0
  -23.7252  -37.6552   23.6682 H   0  0  0  0  0  0
  -26.0417  -31.5940   20.5987 H   0  0  0  0  0  0
  -26.8142  -30.8786   21.9876 H   0  0  0  0  0  0
  -28.0875  -29.0887   21.1740 H   0  0  0  0  0  0
  -26.0223  -25.9594   19.0210 H   0  0  0  0  0  0
  -23.9735  -27.2950   19.0366 H   0  0  0  0  0  0
  -23.7049  -30.6010   19.4097 H   0  0  0  0  0  0
  -22.7277  -29.2429   19.8789 H   0  0  0  0  0  0
  -25.1273  -36.1996   25.0833 H   0  0  0  0  0  0
  -20.9921  -28.3127   24.1478 H   0  0  0  0  0  0
  -20.5592  -26.2186   23.3599 H   0  0  0  0  0  0
  -21.6600  -26.7338   22.1265 H   0  0  0  0  0  0
  -19.6864  -25.6260   21.1236 H   0  0  0  0  0  0
  -19.6674  -27.3170   20.6765 H   0  0  0  0  0  0
  -17.4170  -26.6681   21.3985 H   0  0  0  0  0  0
  -18.0242  -25.9992   22.8955 H   0  0  0  0  0  0
  -19.7889  -30.7211   24.2327 H   0  0  0  0  0  0
  -17.4960  -31.6246   24.5123 H   0  0  0  0  0  0
  -15.5307  -30.2942   23.7632 H   0  0  0  0  0  0
  -15.8633  -28.0773   22.7067 H   0  0  0  0  0  0
  -24.5822  -30.7186   25.7832 H   0  0  0  0  0  0
  -24.8934  -32.2942   26.4969 H   0  0  0  0  0  0
  -25.8013  -30.8902   27.0236 H   0  0  0  0  0  0
  -26.2756  -29.6831   24.1221 H   0  0  0  0  0  0
  -27.4045  -29.7328   25.4589 H   0  0  0  0  0  0
  -27.8598  -30.4381   23.9236 H   0  0  0  0  0  0
  -27.2661  -33.3641   26.2082 H   0  0  0  0  0  0
  -28.3709  -32.7037   25.0121 H   0  0  0  0  0  0
  -28.0883  -31.8490   26.5205 H   0  0  0  0  0  0
  -28.2605  -38.0106   24.7496 H   0  0  0  0  0  0
  -28.1080  -36.2638   24.6221 H   0  0  0  0  0  0
  -27.2347  -37.1437   25.8860 H   0  0  0  0  0  0
  -20.9259  -29.8685   21.7011 H   0  0  0  0  0  0
  -26.0183  -38.2894   24.1385 H   0  0  0  0  0  0
  -29.6613  -19.9756   23.4966 H   0  0  0  0  0  0
  -29.3272  -22.3975   23.1959 H   0  0  0  0  0  0
  -29.6208  -21.9195   18.9227 H   0  0  0  0  0  0
  -31.9785  -17.8310   21.9374 H   0  0  0  0  0  0
  -31.0190  -18.0777   23.3776 H   0  0  0  0  0  0
  -28.3715  -17.4740   22.7037 H   0  0  0  0  0  0
  -27.8991  -17.9745   21.0926 H   0  0  0  0  0  0
  -30.3553  -15.8688   23.5088 H   0  0  0  0  0  0
  -31.8741  -15.6044   22.7173 H   0  0  0  0  0  0
  -28.7394  -16.0328   20.0876 H   0  0  0  0  0  0
  -27.9760  -15.4650   21.5580 H   0  0  0  0  0  0
  -28.5949  -17.9112   18.7972 H   0  0  0  0  0  0
  -29.4938  -18.0200   17.2939 H   0  0  0  0  0  0
  -28.4030  -19.3230   17.7604 H   0  0  0  0  0  0
  -28.1232  -25.6597   18.3601 H   0  0  0  0  0  0
  -29.6705  -25.4549   19.0903 H   0  0  0  0  0  0
  -28.0149  -23.4580   19.1760 H   0  0  0  0  0  0
  -27.1979  -24.2828   20.4644 H   0  0  0  0  0  0
  -31.0094  -18.5373   19.1899 H   0  0  0  0  0  0
  1 25  1  0  0  0
  1 30  2  0  0  0
  1 86  1  0  0  0
  2  3  1  0  0  0
  2 25  1  0  0  0
  2 89  1  0  0  0
  2 90  1  0  0  0
  3  4  1  0  0  0
  3 91  1  0  0  0
  3 92  1  0  0  0
  4  5  1  0  0  0
  4 93  1  0  0  0
  4 94  1  0  0  0
  5  6  1  0  0  0
  5 26  1  0  0  0
  5 95  1  0  0  0
  6 25  1  0  0  0
  6 96  1  0  0  0
  6 97  1  0  0  0
  7  8  2  0  0  0
  7 26  1  0  0  0
  7 29  1  0  0  0
  8  9  1  0  0  0
  8 22  1  0  0  0
  9 10  1  0  0  0
  9 27  2  0  0  0
 10 11  2  0  0  0
 10 15  1  0  0  0
 11 12  1  0  0  0
 11 98  1  0  0  0
 12 13  2  0  0  0
 12 99  1  0  0  0
 13 14  1  0  0  0
 13 31  1  0  0  0
 14 15  2  0  0  0
 14100  1  0  0  0
 15101  1  0  0  0
 16 17  2  0  0  0
 16 21  1  0  0  0
 16 31  1  0  0  0
 17 18  1  0  0  0
 17102  1  0  0  0
 18 19  2  0  0  0
 18103  1  0  0  0
 19 20  1  0  0  0
 19 24  1  0  0  0
 20 21  2  0  0  0
 20104  1  0  0  0
 21 23  1  0  0  0
 22 28  1  0  0  0
 22 32  2  0  0  0
 26 27  1  0  0  0
 28105  1  0  0  0
 28106  1  0  0  0
 29107  1  0  0  0
 29108  1  0  0  0
 33 34  1  0  0  0
 33 66  1  0  0  0
 33 70  2  0  0  0
 34 36  1  0  0  0
 34 59  1  0  0  0
 34109  1  0  0  0
 35 44  2  0  0  0
 35 45  1  0  0  0
 35 68  1  0  0  0
 36 56  1  0  0  0
 36110  1  0  0  0
 37 39  1  0  0  0
 37 47  1  0  0  0
 37 66  1  0  0  0
 37111  1  0  0  0
 38 43  2  0  0  0
 38 46  1  0  0  0
 38 47  1  0  0  0
 39 64  1  0  0  0
 39 67  2  0  0  0
 40 52  1  0  0  0
 40 53  2  0  0  0
 40 58  1  0  0  0
 41112  1  0  0  0
 41113  1  0  0  0
 41114  1  0  0  0
 41 48  1  0  0  0
 42 43  1  0  0  0
 42 66  1  0  0  0
 42115  1  0  0  0
 42116  1  0  0  0
 43 44  1  0  0  0
 44117  1  0  0  0
 45 46  2  0  0  0
 45118  1  0  0  0
 46119  1  0  0  0
 47120  1  0  0  0
 47121  1  0  0  0
 48 56  1  0  0  0
 48 65  1  0  0  0
 48122  1  0  0  0
 49 50  1  0  0  0
 49 53  1  0  0  0
 49 64  1  0  0  0
 49123  1  0  0  0
 50 51  1  0  0  0
 50124  1  0  0  0
 50125  1  0  0  0
 51 52  1  0  0  0
 51126  1  0  0  0
 51127  1  0  0  0
 52128  1  0  0  0
 52129  1  0  0  0
 53 54  1  0  0  0
 54 55  2  0  0  0
 54130  1  0  0  0
 55 57  1  0  0  0
 55131  1  0  0  0
 56 69  2  0  0  0
 57 58  2  0  0  0
 57132  1  0  0  0
 58133  1  0  0  0
 59 60  1  0  0  0
 59 61  1  0  0  0
 59 62  1  0  0  0
 60134  1  0  0  0
 60135  1  0  0  0
 60136  1  0  0  0
 61137  1  0  0  0
 61138  1  0  0  0
 61139  1  0  0  0
 62140  1  0  0  0
 62141  1  0  0  0
 62142  1  0  0  0
 63 65  1  0  0  0
 63143  1  0  0  0
 63144  1  0  0  0
 63145  1  0  0  0
 64146  1  0  0  0
 65147  1  0  0  0
 68 82  1  0  0  0
 71 72  2  0  0  0
 71 75  1  0  0  0
 71148  1  0  0  0
 72 76  1  0  0  0
 72149  1  0  0  0
 73 74  1  0  0  0
 73 76  2  0  0  0
 73150  1  0  0  0
 74 75  2  0  0  0
 74 84  1  0  0  0
 75 85  1  0  0  0
 76 87  1  0  0  0
 77 79  1  0  0  0
 77 85  1  0  0  0
 77151  1  0  0  0
 77152  1  0  0  0
 78 80  1  0  0  0
 78 85  1  0  0  0
 78153  1  0  0  0
 78154  1  0  0  0
 79 86  1  0  0  0
 79155  1  0  0  0
 79156  1  0  0  0
 80 86  1  0  0  0
 80157  1  0  0  0
 80158  1  0  0  0
 81159  1  0  0  0
 81160  1  0  0  0
 81161  1  0  0  0
 81 84  1  0  0  0
 82 83  1  0  0  0
 82162  1  0  0  0
 82163  1  0  0  0
 83 87  1  0  0  0
 83164  1  0  0  0
 83165  1  0  0  0
 84 88  1  0  0  0
 84166  1  0  0  0
M  ISO  4   1 100  68 101  82 101  86 100
M  END
> <chiral flag>
0

> <version>
0

> <s_m_source_file>
/data/baiqing/PycharmProjects/Reinvent-master-3.2/result/LINK_invent/BTK/process_docking_weight1_custom_sum_contain_oxygen_bond_distance_aromatic_linkinvent_7_9_3/rearranged_h_0150.sdf

> <i_m_source_file_index>
25

> <r_mmod_Potential_Energy-OPLS-2005>
182.678466796875

> <r_mmod_Stretch_Energy-OPLS-2005>
45.5837326049805

> <r_mmod_Bend_Energy-OPLS-2005>
122.986465454102

> <r_mmod_Torsional_Energy-OPLS-2005>
372.192016601562

> <r_mmod_Improper_Torsional_Energy-OPLS-2005>
7.23466205596924

> <r_mmod_Van_der_Waal_Energy-OPLS-2005>
165.373794555664

> <r_mmod_Electrostatic_Energy-OPLS-2005>
-337.510711669922

> <r_mmod_Solvation_Energy-OPLS-2005>
-207.995864868164

> <b_mmod_Minimization_Converged-OPLS-2005>
0

> <r_mmod_RMS_Derivative-OPLS-2005>
4.24839687347412

$$$$
25
                    3D
 Structure written by MMmdl.
165174  0  0  1  0            999 V2000
  -30.7464  -14.3866   20.6535 C   0  0  0  0  0  0
  -30.4228  -12.2907   19.3971 C   0  0  0  0  0  0
  -29.4883  -12.5192   18.1932 C   0  0  0  0  0  0
  -28.0111  -12.3789   18.6091 C   0  0  0  0  0  0
  -27.6674  -13.2006   19.8799 C   0  0  2  0  0  0
  -28.7065  -12.9402   20.9930 C   0  0  0  0  0  0
  -25.2608  -13.8147   20.5667 C   0  0  0  0  0  0
  -24.1848  -13.0434   20.9158 C   0  0  0  0  0  0
  -24.6393  -11.6898   20.8716 C   0  0  0  0  0  0
  -23.9053  -10.4290   21.0391 C   0  0  0  0  0  0
  -24.3608   -9.4211   21.9173 C   0  0  0  0  0  0
  -23.6287   -8.2246   22.0751 C   0  0  0  0  0  0
  -22.4268   -8.0280   21.3544 C   0  0  0  0  0  0
  -21.9899   -9.0250   20.4645 C   0  0  0  0  0  0
  -22.7223  -10.2130   20.3047 C   0  0  0  0  0  0
  -21.6851   -6.0733   22.5278 C   0  0  0  0  0  0
  -21.4013   -6.5638   23.8212 C   0  0  0  0  0  0
  -21.3659   -5.6790   24.9174 C   0  0  0  0  0  0
  -21.6045   -4.3053   24.7224 C   0  0  0  0  0  0
  -21.8820   -3.8145   23.4345 C   0  0  0  0  0  0
  -21.9194   -4.6962   22.3402 C   0  0  0  0  0  0
  -22.7873  -13.5243   21.1827 C   0  0  0  0  0  0
  -22.1662   -4.2148   21.0979 F   0  0  0  0  0  0
  -21.5629   -3.4538   25.7737 F   0  0  0  0  0  0
  -30.0463  -13.2406   20.4534 N   0  0  0  0  0  0
  -26.3051  -12.9309   20.3378 N   0  0  0  0  0  0
  -25.9319  -11.6471   20.5748 N   0  0  0  0  0  0
  -22.0512  -12.8241   22.0387 N   0  0  0  0  0  0
  -25.4343  -15.1862   20.4091 N   0  0  0  0  0  0
  -31.8082  -14.6466   20.0828 O   0  0  0  0  0  0
  -21.6637   -6.8874   21.4239 O   0  0  0  0  0  0
  -22.3563  -14.5553   20.6680 O   0  0  0  0  0  0
  -24.6132  -31.8710   23.2138 C   0  0  0  0  0  0
  -25.9040  -32.4840   23.8411 C   0  0  1  0  0  0
  -27.2285  -27.4482   20.0730 C   0  0  0  0  0  0
  -25.5911  -33.8636   24.2340 N   0  0  0  0  0  0
  -23.3985  -30.4991   21.5543 C   0  0  2  0  0  0
  -24.8399  -28.9735   20.1140 C   0  0  0  0  0  0
  -22.7402  -29.4677   22.4992 C   0  0  0  0  0  0
  -18.0269  -28.1372   22.8497 C   0  0  0  0  0  0
  -24.1483  -36.7321   23.2632 C   0  0  0  0  0  0
  -25.9287  -30.8369   21.3684 C   0  0  0  0  0  0
  -26.0017  -29.4733   20.7147 C   0  0  0  0  0  0
  -27.1940  -28.7145   20.7010 C   0  0  0  0  0  0
  -26.0414  -26.9722   19.4582 C   0  0  0  0  0  0
  -24.8533  -27.7190   19.4890 C   0  0  0  0  0  0
  -23.6050  -29.8407   20.1660 C   0  0  0  0  0  0
  -25.4105  -36.3121   24.0335 C   0  0  1  0  0  0
  -20.5861  -28.3657   23.1320 C   0  0  2  0  0  0
  -20.6761  -26.9398   22.5409 C   0  0  0  0  0  0
  -19.5732  -26.6385   21.5211 C   0  0  0  0  0  0
  -18.1914  -26.7915   22.1631 C   0  0  0  0  0  0
  -19.1520  -28.8832   23.2906 C   0  0  0  0  0  0
  -18.9450  -30.1442   23.8909 C   0  0  0  0  0  0
  -17.6451  -30.6576   24.0569 C   0  0  0  0  0  0
  -25.9033  -34.9487   23.5129 C   0  0  0  0  0  0
  -16.5345  -29.9082   23.6321 C   0  0  0  0  0  0
  -16.7260  -28.6499   23.0340 C   0  0  0  0  0  0
  -26.4475  -31.6605   25.0725 C   0  0  0  0  0  0
  -25.3750  -31.3712   26.1480 C   0  0  0  0  0  0
  -27.0292  -30.3047   24.6082 C   0  0  0  0  0  0
  -27.6049  -32.4317   25.7490 C   0  0  0  0  0  0
  -27.5580  -37.1814   24.8465 C   0  0  0  0  0  0
  -21.4128  -29.3039   22.3740 N   0  0  0  0  0  0
  -26.4293  -37.3806   23.9409 N   0  0  0  0  0  0
  -24.6651  -31.0824   22.1039 N   0  0  0  0  0  0
  -23.4192  -28.8200   23.3004 O   0  0  0  0  0  0
  -28.4121  -26.7301   20.0853 O   0  0  0  0  0  0
  -26.5584  -34.8938   22.4684 O   0  0  0  0  0  0
  -23.5329  -32.1462   23.7538 O   0  0  0  0  0  0
  -30.4762  -19.6828   18.6851 C   0  0  0  0  0  0
  -29.9580  -21.1106   20.5703 C   0  0  0  0  0  0
  -29.4372  -21.8744   18.3006 C   0  0  0  0  0  0
  -30.0142  -20.6762   17.7995 C   0  0  0  0  0  0
  -30.4038  -19.8696   20.0823 C   0  0  0  0  0  0
  -29.4971  -22.1225   19.7026 C   0  0  0  0  0  0
  -27.2590  -23.1683   17.5534 C   0  0  0  0  0  0
  -27.6597  -22.2905   16.4049 C   0  0  0  0  0  0
  -28.7218  -22.8117   17.3573 C   0  0  0  0  0  0
  -30.1381  -20.4073   16.3065 C   0  0  0  0  0  0
  -30.6622  -16.6070   21.7959 C   0  0  0  0  0  0
  -30.6051  -17.5437   20.5747 C   0  0  0  0  0  0
  -28.4012  -25.4385   19.4701 C   0  0  0  0  0  0
  -29.5781  -24.5299   19.8631 C   0  0  0  0  0  0
  -30.1778  -15.2606   21.4903 N   0  0  0  0  0  0
  -30.7511  -18.8976   20.9963 O   0  0  0  0  0  0
  -29.0506  -23.2755   20.3092 O   0  0  0  0  0  0
  -31.4651  -12.3986   19.0906 H   0  0  0  0  0  0
  -30.3282  -11.2689   19.7674 H   0  0  0  0  0  0
  -29.7210  -11.8105   17.3973 H   0  0  0  0  0  0
  -29.6593  -13.5132   17.7763 H   0  0  0  0  0  0
  -27.8156  -11.3208   18.7882 H   0  0  0  0  0  0
  -27.3594  -12.6718   17.7849 H   0  0  0  0  0  0
  -27.7260  -14.2549   19.6082 H   0  0  0  0  0  0
  -28.6724  -11.8944   21.3018 H   0  0  0  0  0  0
  -28.4585  -13.5082   21.8896 H   0  0  0  0  0  0
  -25.2758   -9.5690   22.4740 H   0  0  0  0  0  0
  -24.0000   -7.4640   22.7471 H   0  0  0  0  0  0
  -21.0830   -8.8762   19.8952 H   0  0  0  0  0  0
  -22.3678  -10.9664   19.6153 H   0  0  0  0  0  0
  -21.2003   -7.6146   23.9713 H   0  0  0  0  0  0
  -21.1481   -6.0522   25.9076 H   0  0  0  0  0  0
  -22.0600   -2.7608   23.2845 H   0  0  0  0  0  0
  -22.4125  -11.9907   22.4784 H   0  0  0  0  0  0
  -21.1130  -13.1270   22.2585 H   0  0  0  0  0  0
  -24.6708  -15.8446   20.5193 H   0  0  0  0  0  0
  -26.2958  -15.6256   20.1086 H   0  0  0  0  0  0
  -26.7106  -32.5553   23.1170 H   0  0  0  0  0  0
  -25.0110  -33.9806   25.0519 H   0  0  0  0  0  0
  -22.6862  -31.3162   21.4214 H   0  0  0  0  0  0
  -23.3742  -35.9658   23.3312 H   0  0  0  0  0  0
  -24.3572  -36.8912   22.2042 H   0  0  0  0  0  0
  -23.7242  -37.6536   23.6630 H   0  0  0  0  0  0
  -26.0425  -31.6042   20.6015 H   0  0  0  0  0  0
  -26.8170  -30.8863   21.9869 H   0  0  0  0  0  0
  -28.0890  -29.0991   21.1703 H   0  0  0  0  0  0
  -25.9904  -26.0317   18.9317 H   0  0  0  0  0  0
  -23.9619  -27.3319   19.0139 H   0  0  0  0  0  0
  -23.7177  -30.6200   19.4112 H   0  0  0  0  0  0
  -22.7275  -29.2652   19.8648 H   0  0  0  0  0  0
  -25.1280  -36.1987   25.0828 H   0  0  0  0  0  0
  -20.9959  -28.3213   24.1441 H   0  0  0  0  0  0
  -20.5662  -26.2270   23.3595 H   0  0  0  0  0  0
  -21.6630  -26.7432   22.1209 H   0  0  0  0  0  0
  -19.6890  -25.6302   21.1225 H   0  0  0  0  0  0
  -19.6666  -27.3210   20.6755 H   0  0  0  0  0  0
  -17.4187  -26.6675   21.4030 H   0  0  0  0  0  0
  -18.0310  -26.0047   22.9018 H   0  0  0  0  0  0
  -19.7929  -30.7257   24.2279 H   0  0  0  0  0  0
  -17.5007  -31.6254   24.5173 H   0  0  0  0  0  0
  -15.5346  -30.2991   23.7627 H   0  0  0  0  0  0
  -15.8663  -28.0828   22.7033 H   0  0  0  0  0  0
  -24.5921  -30.7055   25.7827 H   0  0  0  0  0  0
  -24.8952  -32.2870   26.4935 H   0  0  0  0  0  0
  -25.8120  -30.8884   27.0227 H   0  0  0  0  0  0
  -26.2825  -29.6825   24.1134 H   0  0  0  0  0  0
  -27.4063  -29.7262   25.4527 H   0  0  0  0  0  0
  -27.8665  -30.4364   23.9227 H   0  0  0  0  0  0
  -27.2662  -33.3599   26.2104 H   0  0  0  0  0  0
  -28.3849  -32.6900   25.0313 H   0  0  0  0  0  0
  -28.0731  -31.8420   26.5382 H   0  0  0  0  0  0
  -28.2607  -38.0103   24.7511 H   0  0  0  0  0  0
  -28.1065  -36.2635   24.6292 H   0  0  0  0  0  0
  -27.2298  -37.1470   25.8868 H   0  0  0  0  0  0
  -20.9273  -29.8806   21.7014 H   0  0  0  0  0  0
  -26.0182  -38.2883   24.1415 H   0  0  0  0  0  0
  -30.8719  -18.7663   18.2713 H   0  0  0  0  0  0
  -29.9359  -21.2805   21.6376 H   0  0  0  0  0  0
  -26.7301  -22.7028   18.3832 H   0  0  0  0  0  0
  -26.9158  -24.1641   17.2805 H   0  0  0  0  0  0
  -27.6132  -22.7276   15.4094 H   0  0  0  0  0  0
  -27.3573  -21.2475   16.4725 H   0  0  0  0  0  0
  -29.3945  -23.5772   16.9745 H   0  0  0  0  0  0
  -30.9740  -19.7384   16.0996 H   0  0  0  0  0  0
  -30.3208  -21.3256   15.7479 H   0  0  0  0  0  0
  -29.2348  -19.9368   15.9190 H   0  0  0  0  0  0
  -30.0312  -17.0099   22.5889 H   0  0  0  0  0  0
  -31.6764  -16.5626   22.1960 H   0  0  0  0  0  0
  -29.6472  -17.4186   20.0651 H   0  0  0  0  0  0
  -31.3954  -17.2857   19.8693 H   0  0  0  0  0  0
  -27.5053  -24.8983   19.7744 H   0  0  0  0  0  0
  -28.3730  -25.5660   18.3882 H   0  0  0  0  0  0
  -30.1226  -24.9697   20.6986 H   0  0  0  0  0  0
  -30.2960  -24.4339   19.0475 H   0  0  0  0  0  0
  -29.3082  -14.9755   21.9167 H   0  0  0  0  0  0
  1 25  1  0  0  0
  1 30  2  0  0  0
  1 85  1  0  0  0
  2  3  1  0  0  0
  2 25  1  0  0  0
  2 88  1  0  0  0
  2 89  1  0  0  0
  3  4  1  0  0  0
  3 90  1  0  0  0
  3 91  1  0  0  0
  4  5  1  0  0  0
  4 92  1  0  0  0
  4 93  1  0  0  0
  5  6  1  0  0  0
  5 26  1  0  0  0
  5 94  1  0  0  0
  6 25  1  0  0  0
  6 95  1  0  0  0
  6 96  1  0  0  0
  7  8  2  0  0  0
  7 26  1  0  0  0
  7 29  1  0  0  0
  8  9  1  0  0  0
  8 22  1  0  0  0
  9 10  1  0  0  0
  9 27  2  0  0  0
 10 11  2  0  0  0
 10 15  1  0  0  0
 11 12  1  0  0  0
 11 97  1  0  0  0
 12 13  2  0  0  0
 12 98  1  0  0  0
 13 14  1  0  0  0
 13 31  1  0  0  0
 14 15  2  0  0  0
 14 99  1  0  0  0
 15100  1  0  0  0
 16 17  2  0  0  0
 16 21  1  0  0  0
 16 31  1  0  0  0
 17 18  1  0  0  0
 17101  1  0  0  0
 18 19  2  0  0  0
 18102  1  0  0  0
 19 20  1  0  0  0
 19 24  1  0  0  0
 20 21  2  0  0  0
 20103  1  0  0  0
 21 23  1  0  0  0
 22 28  1  0  0  0
 22 32  2  0  0  0
 26 27  1  0  0  0
 28104  1  0  0  0
 28105  1  0  0  0
 29106  1  0  0  0
 29107  1  0  0  0
 33 34  1  0  0  0
 33 66  1  0  0  0
 33 70  2  0  0  0
 34 36  1  0  0  0
 34 59  1  0  0  0
 34108  1  0  0  0
 35 44  2  0  0  0
 35 45  1  0  0  0
 35 68  1  0  0  0
 36 56  1  0  0  0
 36109  1  0  0  0
 37 39  1  0  0  0
 37 47  1  0  0  0
 37 66  1  0  0  0
 37110  1  0  0  0
 38 43  2  0  0  0
 38 46  1  0  0  0
 38 47  1  0  0  0
 39 64  1  0  0  0
 39 67  2  0  0  0
 40 52  1  0  0  0
 40 53  2  0  0  0
 40 58  1  0  0  0
 41111  1  0  0  0
 41112  1  0  0  0
 41113  1  0  0  0
 41 48  1  0  0  0
 42 43  1  0  0  0
 42 66  1  0  0  0
 42114  1  0  0  0
 42115  1  0  0  0
 43 44  1  0  0  0
 44116  1  0  0  0
 45 46  2  0  0  0
 45117  1  0  0  0
 46118  1  0  0  0
 47119  1  0  0  0
 47120  1  0  0  0
 48 56  1  0  0  0
 48 65  1  0  0  0
 48121  1  0  0  0
 49 50  1  0  0  0
 49 53  1  0  0  0
 49 64  1  0  0  0
 49122  1  0  0  0
 50 51  1  0  0  0
 50123  1  0  0  0
 50124  1  0  0  0
 51 52  1  0  0  0
 51125  1  0  0  0
 51126  1  0  0  0
 52127  1  0  0  0
 52128  1  0  0  0
 53 54  1  0  0  0
 54 55  2  0  0  0
 54129  1  0  0  0
 55 57  1  0  0  0
 55130  1  0  0  0
 56 69  2  0  0  0
 57 58  2  0  0  0
 57131  1  0  0  0
 58132  1  0  0  0
 59 60  1  0  0  0
 59 61  1  0  0  0
 59 62  1  0  0  0
 60133  1  0  0  0
 60134  1  0  0  0
 60135  1  0  0  0
 61136  1  0  0  0
 61137  1  0  0  0
 61138  1  0  0  0
 62139  1  0  0  0
 62140  1  0  0  0
 62141  1  0  0  0
 63 65  1  0  0  0
 63142  1  0  0  0
 63143  1  0  0  0
 63144  1  0  0  0
 64145  1  0  0  0
 65146  1  0  0  0
 68 83  1  0  0  0
 71 74  2  0  0  0
 71 75  1  0  0  0
 71147  1  0  0  0
 72 75  2  0  0  0
 72 76  1  0  0  0
 72148  1  0  0  0
 73 74  1  0  0  0
 73 76  2  0  0  0
 73 79  1  0  0  0
 74 80  1  0  0  0
 75 86  1  0  0  0
 76 87  1  0  0  0
 77 78  1  0  0  0
 77 79  1  0  0  0
 77149  1  0  0  0
 77150  1  0  0  0
 78 79  1  0  0  0
 78151  1  0  0  0
 78152  1  0  0  0
 79153  1  0  0  0
 80154  1  0  0  0
 80155  1  0  0  0
 80156  1  0  0  0
 81 82  1  0  0  0
 81 85  1  0  0  0
 81157  1  0  0  0
 81158  1  0  0  0
 82 86  1  0  0  0
 82159  1  0  0  0
 82160  1  0  0  0
 83 84  1  0  0  0
 83161  1  0  0  0
 83162  1  0  0  0
 84 87  1  0  0  0
 84163  1  0  0  0
 84164  1  0  0  0
 85165  1  0  0  0
M  ISO  4   1 100  68 101  83 101  85 100
M  END
> <chiral flag>
0

> <version>
0

> <s_m_source_file>
/data/baiqing/PycharmProjects/Reinvent-master-3.2/result/LINK_invent/BTK/process_docking_weight1_custom_sum_contain_oxygen_bond_distance_aromatic_linkinvent_7_9_3/rearranged_h_0150.sdf

> <i_m_source_file_index>
26

> <r_mmod_Potential_Energy-OPLS-2005>
-51.3449211120605

> <r_mmod_Stretch_Energy-OPLS-2005>
36.0192489624023

> <r_mmod_Bend_Energy-OPLS-2005>
104.619575500488

> <r_mmod_Torsional_Energy-OPLS-2005>
252.213256835938

> <r_mmod_Improper_Torsional_Energy-OPLS-2005>
2.15394330024719

> <r_mmod_Van_der_Waal_Energy-OPLS-2005>
171.36979675293

> <r_mmod_Electrostatic_Energy-OPLS-2005>
-412.119201660156

> <r_mmod_Solvation_Energy-OPLS-2005>
-214.320938110352

> <b_mmod_Minimization_Converged-OPLS-2005>
0

> <r_mmod_RMS_Derivative-OPLS-2005>
0.91083425283432

$$$$
26
                    3D
 Structure written by MMmdl.
171181  0  0  1  0            999 V2000
  -30.7093  -14.6131   20.5254 C   0  0  0  0  0  0
  -30.4090  -12.3909   19.4515 C   0  0  0  0  0  0
  -29.4880  -12.5006   18.2203 C   0  0  0  0  0  0
  -28.0172  -12.3266   18.6390 C   0  0  0  0  0  0
  -27.6411  -13.2106   19.8559 C   0  0  2  0  0  0
  -28.6911  -13.1059   20.9889 C   0  0  0  0  0  0
  -25.2489  -13.8148   20.5661 C   0  0  0  0  0  0
  -24.1773  -13.0419   20.9204 C   0  0  0  0  0  0
  -24.6355  -11.6895   20.8763 C   0  0  0  0  0  0
  -23.9040  -10.4277   21.0419 C   0  0  0  0  0  0
  -24.3600   -9.4194   21.9191 C   0  0  0  0  0  0
  -23.6282   -8.2227   22.0752 C   0  0  0  0  0  0
  -22.4263   -8.0264   21.3543 C   0  0  0  0  0  0
  -21.9895   -9.0236   20.4649 C   0  0  0  0  0  0
  -22.7214  -10.2120   20.3065 C   0  0  0  0  0  0
  -21.6843   -6.0726   22.5280 C   0  0  0  0  0  0
  -21.4004   -6.5634   23.8214 C   0  0  0  0  0  0
  -21.3658   -5.6789   24.9178 C   0  0  0  0  0  0
  -21.6044   -4.3052   24.7225 C   0  0  0  0  0  0
  -21.8815   -3.8141   23.4349 C   0  0  0  0  0  0
  -21.9187   -4.6954   22.3404 C   0  0  0  0  0  0
  -22.7797  -13.5214   21.1863 C   0  0  0  0  0  0
  -22.1657   -4.2141   21.0981 F   0  0  0  0  0  0
  -21.5642   -3.4536   25.7741 F   0  0  0  0  0  0
  -29.9997  -13.4404   20.4128 N   0  0  0  0  0  0
  -26.2915  -12.9325   20.3318 N   0  0  0  0  0  0
  -25.9278  -11.6491   20.5793 N   0  0  0  0  0  0
  -22.0440  -12.8222   22.0431 N   0  0  0  0  0  0
  -25.4141  -15.1862   20.3989 N   0  0  0  0  0  0
  -31.8758  -14.6542   20.1224 O   0  0  0  0  0  0
  -21.6634   -6.8859   21.4239 O   0  0  0  0  0  0
  -22.3491  -14.5518   20.6701 O   0  0  0  0  0  0
  -24.6204  -31.8622   23.2047 C   0  0  0  0  0  0
  -25.9070  -32.4792   23.8365 C   0  0  1  0  0  0
  -27.2371  -27.3647   20.1017 C   0  0  0  0  0  0
  -25.5903  -33.8596   24.2291 N   0  0  0  0  0  0
  -23.4129  -30.4847   21.5460 C   0  0  2  0  0  0
  -24.8602  -28.9426   20.1121 C   0  0  0  0  0  0
  -22.7448  -29.4628   22.4956 C   0  0  0  0  0  0
  -18.0279  -28.1373   22.8494 C   0  0  0  0  0  0
  -24.1489  -36.7306   23.2638 C   0  0  0  0  0  0
  -25.9485  -30.8062   21.3687 C   0  0  0  0  0  0
  -26.0238  -29.4358   20.7130 C   0  0  0  0  0  0
  -27.2103  -28.6543   20.7048 C   0  0  0  0  0  0
  -26.0413  -26.8980   19.5068 C   0  0  0  0  0  0
  -24.8673  -27.6760   19.5058 C   0  0  0  0  0  0
  -23.6253  -29.8163   20.1614 C   0  0  0  0  0  0
  -25.4111  -36.3098   24.0332 C   0  0  1  0  0  0
  -20.5876  -28.3669   23.1301 C   0  0  2  0  0  0
  -20.6766  -26.9397   22.5415 C   0  0  0  0  0  0
  -19.5745  -26.6379   21.5215 C   0  0  0  0  0  0
  -18.1924  -26.7921   22.1624 C   0  0  0  0  0  0
  -19.1531  -28.8840   23.2895 C   0  0  0  0  0  0
  -18.9456  -30.1444   23.8904 C   0  0  0  0  0  0
  -17.6455  -30.6581   24.0561 C   0  0  0  0  0  0
  -25.9041  -34.9463   23.5114 C   0  0  0  0  0  0
  -16.5346  -29.9078   23.6327 C   0  0  0  0  0  0
  -16.7266  -28.6494   23.0355 C   0  0  0  0  0  0
  -26.4478  -31.6598   25.0723 C   0  0  0  0  0  0
  -25.3732  -31.3738   26.1473 C   0  0  0  0  0  0
  -27.0298  -30.3021   24.6149 C   0  0  0  0  0  0
  -27.6054  -32.4324   25.7478 C   0  0  0  0  0  0
  -27.5585  -37.1801   24.8459 C   0  0  0  0  0  0
  -21.4166  -29.3030   22.3703 N   0  0  0  0  0  0
  -26.4292  -37.3786   23.9410 N   0  0  0  0  0  0
  -24.6793  -31.0671   22.0975 N   0  0  0  0  0  0
  -23.4191  -28.8170   23.3023 O   0  0  0  0  0  0
  -28.3988  -26.5927   20.1571 O   0  0  0  0  0  0
  -26.5611  -34.8926   22.4680 O   0  0  0  0  0  0
  -23.5381  -32.1399   23.7401 O   0  0  0  0  0  0
  -28.2462  -22.8666   19.3075 C   0  0  0  0  0  0
  -28.5313  -21.5536   19.7738 C   0  0  0  0  0  0
  -29.5809  -23.8045   21.0781 C   0  0  0  0  0  0
  -28.7681  -24.0213   19.9435 C   0  0  0  0  0  0
  -29.8747  -22.4922   21.5587 C   0  0  0  0  0  0
  -29.3603  -21.3315   20.9023 C   0  0  0  0  0  0
  -29.3117  -22.1814   24.9463 C   0  0  0  0  0  0
  -30.6879  -22.6132   25.3885 C   0  0  0  0  0  0
  -31.0661  -18.1326   20.8237 C   0  0  0  0  0  0
  -28.5846  -17.8453   21.0351 C   0  0  0  0  0  0
  -31.0180  -16.8093   21.6549 C   0  0  0  0  0  0
  -28.8409  -16.3435   20.6412 C   0  0  0  0  0  0
  -30.1856  -22.9879   24.0114 C   0  0  0  0  0  0
  -29.6990  -18.8427   20.6247 C   0  0  0  0  0  0
  -32.1972  -22.9239   22.4881 C   0  0  0  0  0  0
  -28.5916  -25.4288   19.2982 C   0  0  0  0  0  0
  -30.7981  -22.3526   22.7717 C   0  0  2  0  0  0
  -30.1458  -15.7602   21.0605 N   0  0  0  0  0  0
  -29.6603  -20.0622   21.4213 O   0  0  0  0  0  0
  -31.4524  -12.4748   19.1434 H   0  0  0  0  0  0
  -30.3200  -11.4037   19.9077 H   0  0  0  0  0  0
  -29.7553  -11.7477   17.4776 H   0  0  0  0  0  0
  -29.6228  -13.4698   17.7378 H   0  0  0  0  0  0
  -27.8685  -11.2747   18.8856 H   0  0  0  0  0  0
  -27.3537  -12.5377   17.7995 H   0  0  0  0  0  0
  -27.6394  -14.2272   19.4716 H   0  0  0  0  0  0
  -28.7096  -12.0944   21.3974 H   0  0  0  0  0  0
  -28.4450  -13.7522   21.8309 H   0  0  0  0  0  0
  -25.2736   -9.5681   22.4778 H   0  0  0  0  0  0
  -23.9990   -7.4614   22.7467 H   0  0  0  0  0  0
  -21.0824   -8.8749   19.8954 H   0  0  0  0  0  0
  -22.3658  -10.9665   19.6190 H   0  0  0  0  0  0
  -21.1995   -7.6143   23.9715 H   0  0  0  0  0  0
  -21.1489   -6.0523   25.9085 H   0  0  0  0  0  0
  -22.0597   -2.7602   23.2850 H   0  0  0  0  0  0
  -22.4047  -11.9893   22.4842 H   0  0  0  0  0  0
  -21.1065  -13.1262   22.2645 H   0  0  0  0  0  0
  -24.6421  -15.8352   20.5043 H   0  0  0  0  0  0
  -26.2590  -15.6259   20.0594 H   0  0  0  0  0  0
  -26.7139  -32.5479   23.1121 H   0  0  0  0  0  0
  -25.0053  -33.9747   25.0438 H   0  0  0  0  0  0
  -22.7050  -31.3037   21.4023 H   0  0  0  0  0  0
  -23.3749  -35.9639   23.3301 H   0  0  0  0  0  0
  -24.3581  -36.8921   22.2051 H   0  0  0  0  0  0
  -23.7239  -37.6512   23.6653 H   0  0  0  0  0  0
  -26.0726  -31.5706   20.6008 H   0  0  0  0  0  0
  -26.8314  -30.8564   21.9943 H   0  0  0  0  0  0
  -28.1066  -29.0322   21.1771 H   0  0  0  0  0  0
  -25.9732  -25.9155   19.0668 H   0  0  0  0  0  0
  -23.9690  -27.2837   19.0494 H   0  0  0  0  0  0
  -23.7387  -30.5902   19.4015 H   0  0  0  0  0  0
  -22.7485  -29.2385   19.8636 H   0  0  0  0  0  0
  -25.1289  -36.1953   25.0824 H   0  0  0  0  0  0
  -20.9968  -28.3227   24.1421 H   0  0  0  0  0  0
  -20.5661  -26.2275   23.3606 H   0  0  0  0  0  0
  -21.6633  -26.7428   22.1200 H   0  0  0  0  0  0
  -19.6900  -25.6290   21.1245 H   0  0  0  0  0  0
  -19.6690  -27.3196   20.6749 H   0  0  0  0  0  0
  -17.4196  -26.6674   21.4023 H   0  0  0  0  0  0
  -18.0323  -26.0053   22.9013 H   0  0  0  0  0  0
  -19.7931  -30.7259   24.2270 H   0  0  0  0  0  0
  -17.5010  -31.6264   24.5157 H   0  0  0  0  0  0
  -15.5345  -30.2982   23.7645 H   0  0  0  0  0  0
  -15.8666  -28.0813   22.7068 H   0  0  0  0  0  0
  -24.5879  -30.7116   25.7810 H   0  0  0  0  0  0
  -24.8964  -32.2911   26.4934 H   0  0  0  0  0  0
  -25.8071  -30.8886   27.0224 H   0  0  0  0  0  0
  -26.2843  -29.6787   24.1196 H   0  0  0  0  0  0
  -27.4024  -29.7266   25.4632 H   0  0  0  0  0  0
  -27.8709  -30.4308   23.9333 H   0  0  0  0  0  0
  -27.2679  -33.3633   26.2045 H   0  0  0  0  0  0
  -28.3863  -32.6861   25.0298 H   0  0  0  0  0  0
  -28.0718  -31.8451   26.5398 H   0  0  0  0  0  0
  -28.2596  -38.0106   24.7519 H   0  0  0  0  0  0
  -28.1088  -36.2638   24.6265 H   0  0  0  0  0  0
  -27.2308  -37.1424   25.8863 H   0  0  0  0  0  0
  -20.9332  -29.8763   21.6933 H   0  0  0  0  0  0
  -26.0182  -38.2862   24.1423 H   0  0  0  0  0  0
  -27.6348  -22.9823   18.4235 H   0  0  0  0  0  0
  -28.0969  -20.7164   19.2473 H   0  0  0  0  0  0
  -30.0163  -24.6651   21.5662 H   0  0  0  0  0  0
  -28.4578  -22.6830   25.3970 H   0  0  0  0  0  0
  -29.1647  -21.1270   24.7187 H   0  0  0  0  0  0
  -31.4595  -21.8483   25.4553 H   0  0  0  0  0  0
  -30.7546  -23.4062   26.1310 H   0  0  0  0  0  0
  -31.4847  -17.9024   19.8429 H   0  0  0  0  0  0
  -31.7738  -18.8265   21.2780 H   0  0  0  0  0  0
  -28.4616  -17.8932   22.1176 H   0  0  0  0  0  0
  -27.6309  -18.1811   20.6262 H   0  0  0  0  0  0
  -30.6573  -17.0222   22.6620 H   0  0  0  0  0  0
  -32.0386  -16.4511   21.8031 H   0  0  0  0  0  0
  -28.7532  -16.2474   19.5578 H   0  0  0  0  0  0
  -28.0354  -15.7664   21.0860 H   0  0  0  0  0  0
  -29.9216  -24.0373   23.8914 H   0  0  0  0  0  0
  -29.6026  -19.0795   19.5647 H   0  0  0  0  0  0
  -32.6502  -22.4345   21.6252 H   0  0  0  0  0  0
  -32.8628  -22.7679   23.3378 H   0  0  0  0  0  0
  -32.1715  -23.9950   22.2888 H   0  0  0  0  0  0
  -27.8856  -25.3744   18.4722 H   0  0  0  0  0  0
  -29.5397  -25.6203   18.7945 H   0  0  0  0  0  0
  -30.9402  -21.2951   22.9938 H   0  0  0  0  0  0
  1 25  1  0  0  0
  1 30  2  0  0  0
  1 88  1  0  0  0
  2  3  1  0  0  0
  2 25  1  0  0  0
  2 90  1  0  0  0
  2 91  1  0  0  0
  3  4  1  0  0  0
  3 92  1  0  0  0
  3 93  1  0  0  0
  4  5  1  0  0  0
  4 94  1  0  0  0
  4 95  1  0  0  0
  5  6  1  0  0  0
  5 26  1  0  0  0
  5 96  1  0  0  0
  6 25  1  0  0  0
  6 97  1  0  0  0
  6 98  1  0  0  0
  7  8  2  0  0  0
  7 26  1  0  0  0
  7 29  1  0  0  0
  8  9  1  0  0  0
  8 22  1  0  0  0
  9 10  1  0  0  0
  9 27  2  0  0  0
 10 11  2  0  0  0
 10 15  1  0  0  0
 11 12  1  0  0  0
 11 99  1  0  0  0
 12 13  2  0  0  0
 12100  1  0  0  0
 13 14  1  0  0  0
 13 31  1  0  0  0
 14 15  2  0  0  0
 14101  1  0  0  0
 15102  1  0  0  0
 16 17  2  0  0  0
 16 21  1  0  0  0
 16 31  1  0  0  0
 17 18  1  0  0  0
 17103  1  0  0  0
 18 19  2  0  0  0
 18104  1  0  0  0
 19 20  1  0  0  0
 19 24  1  0  0  0
 20 21  2  0  0  0
 20105  1  0  0  0
 21 23  1  0  0  0
 22 28  1  0  0  0
 22 32  2  0  0  0
 26 27  1  0  0  0
 28106  1  0  0  0
 28107  1  0  0  0
 29108  1  0  0  0
 29109  1  0  0  0
 33 34  1  0  0  0
 33 66  1  0  0  0
 33 70  2  0  0  0
 34 36  1  0  0  0
 34 59  1  0  0  0
 34110  1  0  0  0
 35 44  2  0  0  0
 35 45  1  0  0  0
 35 68  1  0  0  0
 36 56  1  0  0  0
 36111  1  0  0  0
 37 39  1  0  0  0
 37 47  1  0  0  0
 37 66  1  0  0  0
 37112  1  0  0  0
 38 43  2  0  0  0
 38 46  1  0  0  0
 38 47  1  0  0  0
 39 64  1  0  0  0
 39 67  2  0  0  0
 40 52  1  0  0  0
 40 53  2  0  0  0
 40 58  1  0  0  0
 41113  1  0  0  0
 41114  1  0  0  0
 41115  1  0  0  0
 41 48  1  0  0  0
 42 43  1  0  0  0
 42 66  1  0  0  0
 42116  1  0  0  0
 42117  1  0  0  0
 43 44  1  0  0  0
 44118  1  0  0  0
 45 46  2  0  0  0
 45119  1  0  0  0
 46120  1  0  0  0
 47121  1  0  0  0
 47122  1  0  0  0
 48 56  1  0  0  0
 48 65  1  0  0  0
 48123  1  0  0  0
 49 50  1  0  0  0
 49 53  1  0  0  0
 49 64  1  0  0  0
 49124  1  0  0  0
 50 51  1  0  0  0
 50125  1  0  0  0
 50126  1  0  0  0
 51 52  1  0  0  0
 51127  1  0  0  0
 51128  1  0  0  0
 52129  1  0  0  0
 52130  1  0  0  0
 53 54  1  0  0  0
 54 55  2  0  0  0
 54131  1  0  0  0
 55 57  1  0  0  0
 55132  1  0  0  0
 56 69  2  0  0  0
 57 58  2  0  0  0
 57133  1  0  0  0
 58134  1  0  0  0
 59 60  1  0  0  0
 59 61  1  0  0  0
 59 62  1  0  0  0
 60135  1  0  0  0
 60136  1  0  0  0
 60137  1  0  0  0
 61138  1  0  0  0
 61139  1  0  0  0
 61140  1  0  0  0
 62141  1  0  0  0
 62142  1  0  0  0
 62143  1  0  0  0
 63 65  1  0  0  0
 63144  1  0  0  0
 63145  1  0  0  0
 63146  1  0  0  0
 64147  1  0  0  0
 65148  1  0  0  0
 68 86  1  0  0  0
 71 72  2  0  0  0
 71 74  1  0  0  0
 71149  1  0  0  0
 72 76  1  0  0  0
 72150  1  0  0  0
 73 74  2  0  0  0
 73 75  1  0  0  0
 73151  1  0  0  0
 74 86  1  0  0  0
 75 76  2  0  0  0
 75 87  1  0  0  0
 76 89  1  0  0  0
 77 78  1  0  0  0
 77152  1  0  0  0
 77153  1  0  0  0
 77 83  1  0  0  0
 78 83  1  0  0  0
 78154  1  0  0  0
 78155  1  0  0  0
 79 81  1  0  0  0
 79 84  1  0  0  0
 79156  1  0  0  0
 79157  1  0  0  0
 80 82  1  0  0  0
 80 84  1  0  0  0
 80158  1  0  0  0
 80159  1  0  0  0
 81 88  1  0  0  0
 81160  1  0  0  0
 81161  1  0  0  0
 82 88  1  0  0  0
 82162  1  0  0  0
 82163  1  0  0  0
 83 87  1  0  0  0
 83164  1  0  0  0
 84 89  1  0  0  0
 84165  1  0  0  0
 85166  1  0  0  0
 85167  1  0  0  0
 85168  1  0  0  0
 85 87  1  0  0  0
 86169  1  0  0  0
 86170  1  0  0  0
 87171  1  0  0  0
M  ISO  4   1 100  68 101  86 101  88 100
M  END
> <chiral flag>
0

> <version>
0

> <s_m_source_file>
/data/baiqing/PycharmProjects/Reinvent-master-3.2/result/LINK_invent/BTK/process_docking_weight1_custom_sum_contain_oxygen_bond_distance_aromatic_linkinvent_7_9_3/rearranged_h_0150.sdf

> <i_m_source_file_index>
27

> <r_mmod_Potential_Energy-OPLS-2005>
314.936462402344

> <r_mmod_Stretch_Energy-OPLS-2005>
68.7305679321289

> <r_mmod_Bend_Energy-OPLS-2005>
156.237197875977

> <r_mmod_Torsional_Energy-OPLS-2005>
374.296569824219

> <r_mmod_Improper_Torsional_Energy-OPLS-2005>
4.11088991165161

> <r_mmod_Van_der_Waal_Energy-OPLS-2005>
157.085525512695

> <r_mmod_Electrostatic_Energy-OPLS-2005>
-285.107971191406

> <r_mmod_Solvation_Energy-OPLS-2005>
-197.578125

> <b_mmod_Minimization_Converged-OPLS-2005>
0

> <r_mmod_RMS_Derivative-OPLS-2005>
1.02350056171417

$$$$
27
                    3D
 Structure written by MMmdl.
176186  0  0  1  0            999 V2000
  -30.7531  -14.4632   20.5613 C   0  0  0  0  0  0
  -30.4174  -12.3259   19.3983 C   0  0  0  0  0  0
  -29.4781  -12.5158   18.1902 C   0  0  0  0  0  0
  -28.0075  -12.3567   18.6203 C   0  0  0  0  0  0
  -27.6519  -13.2103   19.8667 C   0  0  2  0  0  0
  -28.7067  -13.0325   20.9845 C   0  0  0  0  0  0
  -25.2458  -13.8016   20.5728 C   0  0  0  0  0  0
  -24.1753  -13.0306   20.9171 C   0  0  0  0  0  0
  -24.6356  -11.6793   20.8697 C   0  0  0  0  0  0
  -23.9040  -10.4205   21.0350 C   0  0  0  0  0  0
  -24.3591   -9.4144   21.9138 C   0  0  0  0  0  0
  -23.6249   -8.2198   22.0746 C   0  0  0  0  0  0
  -22.4227   -8.0243   21.3553 C   0  0  0  0  0  0
  -21.9839   -9.0204   20.4667 C   0  0  0  0  0  0
  -22.7200  -10.2053   20.3015 C   0  0  0  0  0  0
  -21.6816   -6.0699   22.5277 C   0  0  0  0  0  0
  -21.4019   -6.5618   23.8219 C   0  0  0  0  0  0
  -21.3636   -5.6785   24.9193 C   0  0  0  0  0  0
  -21.6027   -4.3039   24.7254 C   0  0  0  0  0  0
  -21.8838   -3.8124   23.4383 C   0  0  0  0  0  0
  -21.9209   -4.6921   22.3438 C   0  0  0  0  0  0
  -22.7787  -13.5126   21.1844 C   0  0  0  0  0  0
  -22.1665   -4.2097   21.1007 F   0  0  0  0  0  0
  -21.5585   -3.4544   25.7775 F   0  0  0  0  0  0
  -30.0339  -13.3182   20.4153 N   0  0  0  0  0  0
  -26.2983  -12.9284   20.3388 N   0  0  0  0  0  0
  -25.9310  -11.6419   20.5746 N   0  0  0  0  0  0
  -22.0447  -12.8125   22.0410 N   0  0  0  0  0  0
  -25.3998  -15.1709   20.4239 N   0  0  0  0  0  0
  -31.9220  -14.5541   20.1736 O   0  0  0  0  0  0
  -21.6609   -6.8825   21.4238 O   0  0  0  0  0  0
  -22.3511  -14.5464   20.6707 O   0  0  0  0  0  0
  -24.6125  -31.8759   23.2210 C   0  0  0  0  0  0
  -25.9032  -32.4872   23.8479 C   0  0  1  0  0  0
  -27.1892  -27.4463   20.0770 C   0  0  0  0  0  0
  -25.5958  -33.8670   24.2398 N   0  0  0  0  0  0
  -23.3997  -30.5061   21.5609 C   0  0  2  0  0  0
  -24.8356  -29.0044   20.0993 C   0  0  0  0  0  0
  -22.7414  -29.4669   22.4974 C   0  0  0  0  0  0
  -18.0294  -28.1430   22.8478 C   0  0  0  0  0  0
  -24.1502  -36.7306   23.2611 C   0  0  0  0  0  0
  -25.9317  -30.8404   21.3830 C   0  0  0  0  0  0
  -25.9989  -29.4845   20.7167 C   0  0  0  0  0  0
  -27.1791  -28.7057   20.7176 C   0  0  0  0  0  0
  -26.0371  -27.0416   19.3703 C   0  0  0  0  0  0
  -24.8484  -27.7796   19.4244 C   0  0  0  0  0  0
  -23.6016  -29.8699   20.1647 C   0  0  0  0  0  0
  -25.4127  -36.3126   24.0306 C   0  0  1  0  0  0
  -20.5888  -28.3691   23.1332 C   0  0  2  0  0  0
  -20.6786  -26.9425   22.5455 C   0  0  0  0  0  0
  -19.5774  -26.6399   21.5252 C   0  0  0  0  0  0
  -18.1944  -26.7979   22.1624 C   0  0  0  0  0  0
  -19.1539  -28.8875   23.2903 C   0  0  0  0  0  0
  -18.9442  -30.1474   23.8924 C   0  0  0  0  0  0
  -17.6446  -30.6615   24.0576 C   0  0  0  0  0  0
  -25.9034  -34.9488   23.5120 C   0  0  0  0  0  0
  -16.5349  -29.9101   23.6360 C   0  0  0  0  0  0
  -16.7281  -28.6543   23.0344 C   0  0  0  0  0  0
  -26.4489  -31.6624   25.0785 C   0  0  0  0  0  0
  -25.3720  -31.3786   26.1503 C   0  0  0  0  0  0
  -27.0260  -30.3017   24.6191 C   0  0  0  0  0  0
  -27.6161  -32.4269   25.7490 C   0  0  0  0  0  0
  -27.5598  -37.1799   24.8464 C   0  0  0  0  0  0
  -21.4139  -29.3046   22.3695 N   0  0  0  0  0  0
  -26.4332  -37.3789   23.9389 N   0  0  0  0  0  0
  -24.6655  -31.0866   22.1122 N   0  0  0  0  0  0
  -23.4196  -28.8161   23.2970 O   0  0  0  0  0  0
  -28.2831  -26.6153   20.1864 O   0  0  0  0  0  0
  -26.5549  -34.8928   22.4651 O   0  0  0  0  0  0
  -23.5325  -32.1533   23.7601 O   0  0  0  0  0  0
  -26.7310  -19.4117   19.3940 C   0  0  0  0  0  0
  -25.8686  -20.5103   19.5449 C   0  0  0  0  0  0
  -25.7729  -18.3949   21.3709 C   0  0  0  0  0  0
  -26.7648  -18.3855   20.3642 C   0  0  0  0  0  0
  -25.0232  -20.6121   20.6745 C   0  0  0  0  0  0
  -24.9073  -19.4936   21.5345 C   0  0  0  0  0  0
  -29.1935  -17.7873   19.7371 C   0  0  0  0  0  0
  -28.1142  -16.6816   21.7603 C   0  0  0  0  0  0
  -23.9747  -22.8028   19.8288 C   0  0  0  0  0  0
  -30.3175  -16.7212   19.7699 C   0  0  0  0  0  0
  -29.5339  -16.1203   21.9533 C   0  0  0  0  0  0
  -25.1345  -23.8000   19.6590 C   0  0  0  0  0  0
  -25.3508  -22.8432   21.7852 C   0  0  0  0  0  0
  -27.8567  -17.3021   20.3473 C   0  0  0  0  0  0
  -24.3505  -21.9408   21.0374 C   0  0  2  0  0  0
  -23.9027  -19.4641   22.6727 C   0  0  0  0  0  0
  -26.9488  -24.6787   21.1898 C   0  0  0  0  0  0
  -28.0074  -25.1918   20.1514 C   0  0  0  0  0  0
  -30.0246  -15.6004   20.6789 N   0  0  0  0  0  0
  -26.1283  -23.5164   20.7249 N   0  3  2  0  0  0
  -31.4518  -12.4311   19.0692 H   0  0  0  0  0  0
  -30.3344  -11.3187   19.8081 H   0  0  0  0  0  0
  -29.7194  -11.7981   17.4045 H   0  0  0  0  0  0
  -29.6342  -13.5041   17.7485 H   0  0  0  0  0  0
  -27.8381  -11.3020   18.8403 H   0  0  0  0  0  0
  -27.3409  -12.5988   17.7913 H   0  0  0  0  0  0
  -27.6766  -14.2501   19.5466 H   0  0  0  0  0  0
  -28.6931  -12.0133   21.3711 H   0  0  0  0  0  0
  -28.4749  -13.6733   21.8338 H   0  0  0  0  0  0
  -25.2717   -9.5621   22.4722 H   0  0  0  0  0  0
  -23.9932   -7.4587   22.7464 H   0  0  0  0  0  0
  -21.0744   -8.8737   19.8996 H   0  0  0  0  0  0
  -22.3633  -10.9582   19.6131 H   0  0  0  0  0  0
  -21.2004   -7.6122   23.9710 H   0  0  0  0  0  0
  -21.1420   -6.0515   25.9090 H   0  0  0  0  0  0
  -22.0630   -2.7574   23.2929 H   0  0  0  0  0  0
  -22.4081  -11.9777   22.4757 H   0  0  0  0  0  0
  -21.1109  -13.1173   22.2757 H   0  0  0  0  0  0
  -24.6659  -15.8258   20.6620 H   0  0  0  0  0  0
  -26.2901  -15.6176   20.2641 H   0  0  0  0  0  0
  -26.7068  -32.5599   23.1228 H   0  0  0  0  0  0
  -25.0223  -33.9910   25.0602 H   0  0  0  0  0  0
  -22.6887  -31.3239   21.4403 H   0  0  0  0  0  0
  -23.3777  -35.9619   23.3309 H   0  0  0  0  0  0
  -24.3643  -36.8886   22.2031 H   0  0  0  0  0  0
  -23.7230  -37.6509   23.6594 H   0  0  0  0  0  0
  -26.0647  -31.6160   20.6275 H   0  0  0  0  0  0
  -26.8108  -30.8722   22.0124 H   0  0  0  0  0  0
  -28.0668  -29.0533   21.2268 H   0  0  0  0  0  0
  -26.0288  -26.1544   18.7646 H   0  0  0  0  0  0
  -23.9644  -27.4387   18.9054 H   0  0  0  0  0  0
  -23.7097  -30.6677   19.4304 H   0  0  0  0  0  0
  -22.7247  -29.3002   19.8480 H   0  0  0  0  0  0
  -25.1285  -36.2020   25.0792 H   0  0  0  0  0  0
  -20.9992  -28.3283   24.1439 H   0  0  0  0  0  0
  -20.5785  -26.2255   23.3637 H   0  0  0  0  0  0
  -21.6622  -26.7500   22.1179 H   0  0  0  0  0  0
  -19.6926  -25.6297   21.1291 H   0  0  0  0  0  0
  -19.6750  -27.3200   20.6804 H   0  0  0  0  0  0
  -17.4236  -26.6804   21.4000 H   0  0  0  0  0  0
  -18.0298  -26.0124   22.9028 H   0  0  0  0  0  0
  -19.7909  -30.7305   24.2285 H   0  0  0  0  0  0
  -17.4994  -31.6302   24.5159 H   0  0  0  0  0  0
  -15.5346  -30.3014   23.7655 H   0  0  0  0  0  0
  -15.8688  -28.0878   22.7026 H   0  0  0  0  0  0
  -24.6235  -30.6668   25.8011 H   0  0  0  0  0  0
  -24.8474  -32.2877   26.4436 H   0  0  0  0  0  0
  -25.8094  -30.9562   27.0545 H   0  0  0  0  0  0
  -26.2813  -29.6888   24.1096 H   0  0  0  0  0  0
  -27.3809  -29.7180   25.4698 H   0  0  0  0  0  0
  -27.8767  -30.4305   23.9490 H   0  0  0  0  0  0
  -27.2940  -33.3702   26.1901 H   0  0  0  0  0  0
  -28.4027  -32.6543   25.0278 H   0  0  0  0  0  0
  -28.0703  -31.8425   26.5501 H   0  0  0  0  0  0
  -28.2612  -38.0098   24.7497 H   0  0  0  0  0  0
  -28.1094  -36.2624   24.6300 H   0  0  0  0  0  0
  -27.2324  -37.1459   25.8873 H   0  0  0  0  0  0
  -20.9290  -29.8827   21.6965 H   0  0  0  0  0  0
  -26.0230  -38.2851   24.1446 H   0  0  0  0  0  0
  -27.3957  -19.4103   18.5444 H   0  0  0  0  0  0
  -25.9233  -21.2947   18.8027 H   0  0  0  0  0  0
  -25.6991  -17.5780   22.0726 H   0  0  0  0  0  0
  -29.0560  -18.0891   18.6998 H   0  0  0  0  0  0
  -29.5199  -18.6811   20.2718 H   0  0  0  0  0  0
  -27.9792  -17.4364   22.5370 H   0  0  0  0  0  0
  -27.3814  -15.9044   21.9755 H   0  0  0  0  0  0
  -23.7555  -22.2252   18.9312 H   0  0  0  0  0  0
  -23.0718  -23.3697   20.0575 H   0  0  0  0  0  0
  -31.2567  -17.1907   20.0673 H   0  0  0  0  0  0
  -30.4791  -16.3268   18.7642 H   0  0  0  0  0  0
  -29.5751  -15.3998   22.7690 H   0  0  0  0  0  0
  -30.1883  -16.9373   22.2660 H   0  0  0  0  0  0
  -24.7106  -24.7904   19.7975 H   0  0  0  0  0  0
  -25.5863  -23.7573   18.6678 H   0  0  0  0  0  0
  -25.9899  -22.2845   22.4711 H   0  0  0  0  0  0
  -24.8102  -23.5878   22.3720 H   0  0  0  0  0  0
  -27.5090  -16.5166   19.6780 H   0  0  0  0  0  0
  -23.4575  -21.7645   21.6366 H   0  0  0  0  0  0
  -23.9027  -18.5038   23.1881 H   0  0  0  0  0  0
  -22.8921  -19.6267   22.2979 H   0  0  0  0  0  0
  -24.1300  -20.2307   23.4100 H   0  0  0  0  0  0
  -26.2664  -25.4667   21.5129 H   0  0  0  0  0  0
  -27.4839  -24.3798   22.0890 H   0  0  0  0  0  0
  -28.9492  -24.6793   20.3526 H   0  0  0  0  0  0
  -27.7419  -24.9018   19.1331 H   0  0  0  0  0  0
  -26.7541  -22.8043   20.3737 H   0  0  0  0  0  0
  1 25  1  0  0  0
  1 30  2  0  0  0
  1 89  1  0  0  0
  2  3  1  0  0  0
  2 25  1  0  0  0
  2 91  1  0  0  0
  2 92  1  0  0  0
  3  4  1  0  0  0
  3 93  1  0  0  0
  3 94  1  0  0  0
  4  5  1  0  0  0
  4 95  1  0  0  0
  4 96  1  0  0  0
  5  6  1  0  0  0
  5 26  1  0  0  0
  5 97  1  0  0  0
  6 25  1  0  0  0
  6 98  1  0  0  0
  6 99  1  0  0  0
  7  8  2  0  0  0
  7 26  1  0  0  0
  7 29  1  0  0  0
  8  9  1  0  0  0
  8 22  1  0  0  0
  9 10  1  0  0  0
  9 27  2  0  0  0
 10 11  2  0  0  0
 10 15  1  0  0  0
 11 12  1  0  0  0
 11100  1  0  0  0
 12 13  2  0  0  0
 12101  1  0  0  0
 13 14  1  0  0  0
 13 31  1  0  0  0
 14 15  2  0  0  0
 14102  1  0  0  0
 15103  1  0  0  0
 16 17  2  0  0  0
 16 21  1  0  0  0
 16 31  1  0  0  0
 17 18  1  0  0  0
 17104  1  0  0  0
 18 19  2  0  0  0
 18105  1  0  0  0
 19 20  1  0  0  0
 19 24  1  0  0  0
 20 21  2  0  0  0
 20106  1  0  0  0
 21 23  1  0  0  0
 22 28  1  0  0  0
 22 32  2  0  0  0
 26 27  1  0  0  0
 28107  1  0  0  0
 28108  1  0  0  0
 29109  1  0  0  0
 29110  1  0  0  0
 33 34  1  0  0  0
 33 66  1  0  0  0
 33 70  2  0  0  0
 34 36  1  0  0  0
 34 59  1  0  0  0
 34111  1  0  0  0
 35 44  2  0  0  0
 35 45  1  0  0  0
 35 68  1  0  0  0
 36 56  1  0  0  0
 36112  1  0  0  0
 37 39  1  0  0  0
 37 47  1  0  0  0
 37 66  1  0  0  0
 37113  1  0  0  0
 38 43  2  0  0  0
 38 46  1  0  0  0
 38 47  1  0  0  0
 39 64  1  0  0  0
 39 67  2  0  0  0
 40 52  1  0  0  0
 40 53  2  0  0  0
 40 58  1  0  0  0
 41114  1  0  0  0
 41115  1  0  0  0
 41116  1  0  0  0
 41 48  1  0  0  0
 42 43  1  0  0  0
 42 66  1  0  0  0
 42117  1  0  0  0
 42118  1  0  0  0
 43 44  1  0  0  0
 44119  1  0  0  0
 45 46  2  0  0  0
 45120  1  0  0  0
 46121  1  0  0  0
 47122  1  0  0  0
 47123  1  0  0  0
 48 56  1  0  0  0
 48 65  1  0  0  0
 48124  1  0  0  0
 49 50  1  0  0  0
 49 53  1  0  0  0
 49 64  1  0  0  0
 49125  1  0  0  0
 50 51  1  0  0  0
 50126  1  0  0  0
 50127  1  0  0  0
 51 52  1  0  0  0
 51128  1  0  0  0
 51129  1  0  0  0
 52130  1  0  0  0
 52131  1  0  0  0
 53 54  1  0  0  0
 54 55  2  0  0  0
 54132  1  0  0  0
 55 57  1  0  0  0
 55133  1  0  0  0
 56 69  2  0  0  0
 57 58  2  0  0  0
 57134  1  0  0  0
 58135  1  0  0  0
 59 60  1  0  0  0
 59 61  1  0  0  0
 59 62  1  0  0  0
 60136  1  0  0  0
 60137  1  0  0  0
 60138  1  0  0  0
 61139  1  0  0  0
 61140  1  0  0  0
 61141  1  0  0  0
 62142  1  0  0  0
 62143  1  0  0  0
 62144  1  0  0  0
 63 65  1  0  0  0
 63145  1  0  0  0
 63146  1  0  0  0
 63147  1  0  0  0
 64148  1  0  0  0
 65149  1  0  0  0
 68 88  1  0  0  0
 71 72  2  0  0  0
 71 74  1  0  0  0
 71150  1  0  0  0
 72 75  1  0  0  0
 72151  1  0  0  0
 73 74  2  0  0  0
 73 76  1  0  0  0
 73152  1  0  0  0
 74 84  1  0  0  0
 75 76  2  0  0  0
 75 85  1  0  0  0
 76 86  1  0  0  0
 77 80  1  0  0  0
 77 84  1  0  0  0
 77153  1  0  0  0
 77154  1  0  0  0
 78 81  1  0  0  0
 78 84  1  0  0  0
 78155  1  0  0  0
 78156  1  0  0  0
 79 82  1  0  0  0
 79 85  1  0  0  0
 79157  1  0  0  0
 79158  1  0  0  0
 80 89  1  0  0  0
 80159  1  0  0  0
 80160  1  0  0  0
 81 89  1  0  0  0
 81161  1  0  0  0
 81162  1  0  0  0
 82 90  1  0  0  0
 82163  1  0  0  0
 82164  1  0  0  0
 83 85  1  0  0  0
 83 90  1  0  0  0
 83165  1  0  0  0
 83166  1  0  0  0
 84167  1  0  0  0
 85168  1  0  0  0
 86169  1  0  0  0
 86170  1  0  0  0
 86171  1  0  0  0
 87 88  1  0  0  0
 87172  1  0  0  0
 87173  1  0  0  0
 87 90  1  0  0  0
 88174  1  0  0  0
 88175  1  0  0  0
 90176  1  0  0  0
M  CHG  1  90   1
M  ISO  4   1 100  68 101  88 101  89 100
M  END
> <chiral flag>
0

> <version>
0

> <s_m_source_file>
/data/baiqing/PycharmProjects/Reinvent-master-3.2/result/LINK_invent/BTK/process_docking_weight1_custom_sum_contain_oxygen_bond_distance_aromatic_linkinvent_7_9_3/rearranged_h_0150.sdf

> <i_m_source_file_index>
28

> <r_mmod_Potential_Energy-OPLS-2005>
244.735015869141

> <r_mmod_Stretch_Energy-OPLS-2005>
41.7355308532715

> <r_mmod_Bend_Energy-OPLS-2005>
132.525466918945

> <r_mmod_Torsional_Energy-OPLS-2005>
431.961242675781

> <r_mmod_Improper_Torsional_Energy-OPLS-2005>
18.2966327667236

> <r_mmod_Van_der_Waal_Energy-OPLS-2005>
179.905853271484

> <r_mmod_Electrostatic_Energy-OPLS-2005>
-189.70378112793

> <r_mmod_Solvation_Energy-OPLS-2005>
-398.43310546875

> <b_mmod_Minimization_Converged-OPLS-2005>
0

> <r_mmod_RMS_Derivative-OPLS-2005>
5.069016456604

$$$$
28
                    3D
 Structure written by MMmdl.
170179  0  0  1  0            999 V2000
  -30.6993  -14.5186   20.5872 C   0  0  0  0  0  0
  -30.4294  -12.3449   19.4299 C   0  0  0  0  0  0
  -29.4951  -12.4909   18.2081 C   0  0  0  0  0  0
  -28.0143  -12.3556   18.6170 C   0  0  0  0  0  0
  -27.6552  -13.2032   19.8642 C   0  0  2  0  0  0
  -28.6945  -12.9664   20.9742 C   0  0  0  0  0  0
  -25.2578  -13.8121   20.5649 C   0  0  0  0  0  0
  -24.1853  -13.0404   20.9222 C   0  0  0  0  0  0
  -24.6410  -11.6879   20.8792 C   0  0  0  0  0  0
  -23.9069  -10.4284   21.0425 C   0  0  0  0  0  0
  -24.3628   -9.4208   21.9195 C   0  0  0  0  0  0
  -23.6300   -8.2247   22.0749 C   0  0  0  0  0  0
  -22.4284   -8.0285   21.3530 C   0  0  0  0  0  0
  -21.9923   -9.0269   20.4649 C   0  0  0  0  0  0
  -22.7253  -10.2144   20.3054 C   0  0  0  0  0  0
  -21.6862   -6.0739   22.5278 C   0  0  0  0  0  0
  -21.4016   -6.5641   23.8221 C   0  0  0  0  0  0
  -21.3658   -5.6797   24.9178 C   0  0  0  0  0  0
  -21.6047   -4.3060   24.7242 C   0  0  0  0  0  0
  -21.8810   -3.8148   23.4365 C   0  0  0  0  0  0
  -21.9206   -4.6968   22.3418 C   0  0  0  0  0  0
  -22.7888  -13.5190   21.1903 C   0  0  0  0  0  0
  -22.1661   -4.2135   21.1001 F   0  0  0  0  0  0
  -21.5652   -3.4549   25.7763 F   0  0  0  0  0  0
  -30.0132  -13.3405   20.4394 N   0  0  0  0  0  0
  -26.2993  -12.9283   20.3315 N   0  0  0  0  0  0
  -25.9319  -11.6447   20.5790 N   0  0  0  0  0  0
  -22.0539  -12.8166   22.0465 N   0  0  0  0  0  0
  -25.4302  -15.1814   20.3966 N   0  0  0  0  0  0
  -31.8545  -14.6257   20.1612 O   0  0  0  0  0  0
  -21.6646   -6.8883   21.4232 O   0  0  0  0  0  0
  -22.3567  -14.5479   20.6728 O   0  0  0  0  0  0
  -24.6143  -31.8694   23.2078 C   0  0  0  0  0  0
  -25.9031  -32.4821   23.8394 C   0  0  1  0  0  0
  -27.2427  -27.4345   20.0798 C   0  0  0  0  0  0
  -25.5906  -33.8621   24.2331 N   0  0  0  0  0  0
  -23.3994  -30.4896   21.5476 C   0  0  2  0  0  0
  -24.8488  -28.9515   20.1143 C   0  0  0  0  0  0
  -22.7388  -29.4670   22.5003 C   0  0  0  0  0  0
  -18.0270  -28.1334   22.8488 C   0  0  0  0  0  0
  -24.1495  -36.7330   23.2639 C   0  0  0  0  0  0
  -25.9293  -30.8309   21.3613 C   0  0  0  0  0  0
  -26.0065  -29.4630   20.7117 C   0  0  0  0  0  0
  -27.2007  -28.7069   20.6969 C   0  0  0  0  0  0
  -26.0615  -26.9359   19.4818 C   0  0  0  0  0  0
  -24.8689  -27.6863   19.5039 C   0  0  0  0  0  0
  -23.6088  -29.8175   20.1639 C   0  0  0  0  0  0
  -25.4109  -36.3117   24.0345 C   0  0  1  0  0  0
  -20.5846  -28.3658   23.1341 C   0  0  2  0  0  0
  -20.6769  -26.9402   22.5427 C   0  0  0  0  0  0
  -19.5752  -26.6326   21.5232 C   0  0  0  0  0  0
  -18.1916  -26.7876   22.1615 C   0  0  0  0  0  0
  -19.1502  -28.8819   23.2902 C   0  0  0  0  0  0
  -18.9404  -30.1431   23.8893 C   0  0  0  0  0  0
  -17.6403  -30.6564   24.0503 C   0  0  0  0  0  0
  -25.9037  -34.9481   23.5135 C   0  0  0  0  0  0
  -16.5307  -29.9029   23.6286 C   0  0  0  0  0  0
  -16.7257  -28.6442   23.0330 C   0  0  0  0  0  0
  -26.4466  -31.6599   25.0723 C   0  0  0  0  0  0
  -25.3754  -31.3692   26.1486 C   0  0  0  0  0  0
  -27.0298  -30.3042   24.6093 C   0  0  0  0  0  0
  -27.6045  -32.4332   25.7475 C   0  0  0  0  0  0
  -27.5587  -37.1815   24.8466 C   0  0  0  0  0  0
  -21.4122  -29.3030   22.3751 N   0  0  0  0  0  0
  -26.4299  -37.3805   23.9411 N   0  0  0  0  0  0
  -24.6648  -31.0793   22.0962 N   0  0  0  0  0  0
  -23.4164  -28.8233   23.3053 O   0  0  0  0  0  0
  -28.4423  -26.7454   20.0926 O   0  0  0  0  0  0
  -26.5608  -34.8933   22.4704 O   0  0  0  0  0  0
  -23.5352  -32.1450   23.7477 O   0  0  0  0  0  0
  -25.8229  -20.8411   21.1021 C   0  0  0  0  0  0
  -26.4262  -21.8232   20.3105 C   0  0  0  0  0  0
  -28.5685  -20.8313   20.7817 C   0  0  0  0  0  0
  -27.9663  -19.7308   21.4694 C   0  0  0  0  0  0
  -26.5930  -19.9381   21.8823 C   0  0  0  0  0  0
  -27.8247  -21.9205   20.2809 C   0  0  0  0  0  0
  -28.2387  -17.0703   21.8577 C   0  0  0  0  0  0
  -30.0289  -18.2752   20.6645 C   0  0  0  0  0  0
  -29.3500  -16.0186   22.0907 C   0  0  0  0  0  0
  -30.1913  -16.8714   19.9729 C   0  0  0  0  0  0
  -28.8782  -18.4744   21.7276 C   0  0  0  0  0  0
  -26.3140  -18.4295   24.0936 C   0  0  0  0  0  0
  -24.4723  -19.9561   23.4503 C   0  0  0  0  0  0
  -28.5694  -25.4719   19.4365 C   0  0  0  0  0  0
  -28.0140  -24.2920   20.2640 C   0  0  0  0  0  0
  -25.9986  -19.7012   23.3120 C   0  0  0  0  0  0
  -29.9727  -15.6605   20.8129 N   0  0  0  0  0  0
  -28.4546  -23.0248   19.7456 O   0  0  0  0  0  0
  -31.4663  -12.4713   19.1156 H   0  0  0  0  0  0
  -30.3723  -11.3350   19.8417 H   0  0  0  0  0  0
  -29.7408  -11.7421   17.4547 H   0  0  0  0  0  0
  -29.6496  -13.4590   17.7285 H   0  0  0  0  0  0
  -27.8301  -11.3026   18.8249 H   0  0  0  0  0  0
  -27.3611  -12.6147   17.7847 H   0  0  0  0  0  0
  -27.6992  -14.2522   19.5741 H   0  0  0  0  0  0
  -28.7031  -11.9115   21.2466 H   0  0  0  0  0  0
  -28.4005  -13.4650   21.8840 H   0  0  0  0  0  0
  -25.2786   -9.5658   22.4755 H   0  0  0  0  0  0
  -24.0018   -7.4614   22.7432 H   0  0  0  0  0  0
  -21.0873   -8.8803   19.8930 H   0  0  0  0  0  0
  -22.3748  -10.9682   19.6155 H   0  0  0  0  0  0
  -21.1977   -7.6145   23.9720 H   0  0  0  0  0  0
  -21.1485   -6.0522   25.9084 H   0  0  0  0  0  0
  -22.0592   -2.7605   23.2867 H   0  0  0  0  0  0
  -22.4173  -11.9797   22.4794 H   0  0  0  0  0  0
  -21.1160  -13.1159   22.2725 H   0  0  0  0  0  0
  -24.6619  -15.8372   20.4782 H   0  0  0  0  0  0
  -26.2885  -15.6075   20.0708 H   0  0  0  0  0  0
  -26.7096  -32.5530   23.1162 H   0  0  0  0  0  0
  -25.0002  -33.9770   25.0435 H   0  0  0  0  0  0
  -22.6866  -31.3035   21.4034 H   0  0  0  0  0  0
  -23.3751  -35.9674   23.3318 H   0  0  0  0  0  0
  -24.3580  -36.8930   22.2049 H   0  0  0  0  0  0
  -23.7249  -37.6547   23.6634 H   0  0  0  0  0  0
  -26.0450  -31.5964   20.5919 H   0  0  0  0  0  0
  -26.8163  -30.8834   21.9817 H   0  0  0  0  0  0
  -28.0949  -29.0982   21.1593 H   0  0  0  0  0  0
  -26.0331  -25.9754   18.9899 H   0  0  0  0  0  0
  -23.9751  -27.2845   19.0463 H   0  0  0  0  0  0
  -23.7200  -30.5884   19.4017 H   0  0  0  0  0  0
  -22.7319  -29.2395   19.8649 H   0  0  0  0  0  0
  -25.1282  -36.1997   25.0843 H   0  0  0  0  0  0
  -20.9924  -28.3210   24.1475 H   0  0  0  0  0  0
  -20.5674  -26.2298   23.3620 H   0  0  0  0  0  0
  -21.6650  -26.7468   22.1226 H   0  0  0  0  0  0
  -19.6951  -25.6228   21.1334 H   0  0  0  0  0  0
  -19.6667  -27.3105   20.6736 H   0  0  0  0  0  0
  -18.0265  -25.9965   22.8949 H   0  0  0  0  0  0
  -17.4224  -26.6668   21.3980 H   0  0  0  0  0  0
  -19.7857  -30.7293   24.2227 H   0  0  0  0  0  0
  -17.4925  -31.6254   24.5072 H   0  0  0  0  0  0
  -15.5302  -30.2914   23.7582 H   0  0  0  0  0  0
  -15.8666  -28.0746   22.7047 H   0  0  0  0  0  0
  -24.5916  -30.7043   25.7826 H   0  0  0  0  0  0
  -24.8955  -32.2846   26.4966 H   0  0  0  0  0  0
  -25.8137  -30.8840   27.0216 H   0  0  0  0  0  0
  -26.2823  -29.6792   24.1178 H   0  0  0  0  0  0
  -27.4101  -29.7282   25.4537 H   0  0  0  0  0  0
  -27.8653  -30.4356   23.9209 H   0  0  0  0  0  0
  -27.2641  -33.3607   26.2095 H   0  0  0  0  0  0
  -28.3822  -32.6935   25.0279 H   0  0  0  0  0  0
  -28.0749  -31.8434   26.5355 H   0  0  0  0  0  0
  -28.2618  -38.0100   24.7500 H   0  0  0  0  0  0
  -28.1072  -36.2629   24.6312 H   0  0  0  0  0  0
  -27.2302  -37.1498   25.8870 H   0  0  0  0  0  0
  -20.9304  -29.8692   21.6915 H   0  0  0  0  0  0
  -26.0202  -38.2904   24.1387 H   0  0  0  0  0  0
  -24.7548  -20.9373   21.2138 H   0  0  0  0  0  0
  -25.8030  -22.5576   19.8231 H   0  0  0  0  0  0
  -29.6420  -20.8726   20.6511 H   0  0  0  0  0  0
  -27.5724  -16.9570   22.6853 H   0  0  0  0  0  0
  -27.6454  -16.8256   20.9757 H   0  0  0  0  0  0
  -30.9725  -18.5528   21.1388 H   0  0  0  0  0  0
  -29.9396  -18.9577   19.8215 H   0  0  0  0  0  0
  -30.1208  -16.4230   22.7522 H   0  0  0  0  0  0
  -28.9588  -15.1852   22.6530 H   0  0  0  0  0  0
  -29.4683  -16.8011   19.1589 H   0  0  0  0  0  0
  -31.1617  -16.8566   19.4762 H   0  0  0  0  0  0
  -29.3576  -18.6906   22.6836 H   0  0  0  0  0  0
  -27.3839  -18.3081   24.2504 H   0  0  0  0  0  0
  -25.8548  -17.5556   23.6274 H   0  0  0  0  0  0
  -25.8878  -18.4823   25.0958 H   0  0  0  0  0  0
  -24.2002  -20.9937   23.2544 H   0  0  0  0  0  0
  -24.1239  -19.7709   24.4653 H   0  0  0  0  0  0
  -23.8931  -19.3111   22.7883 H   0  0  0  0  0  0
  -28.1527  -25.4924   18.4296 H   0  0  0  0  0  0
  -29.6396  -25.3074   19.2998 H   0  0  0  0  0  0
  -26.9306  -24.3661   20.3047 H   0  0  0  0  0  0
  -28.3643  -24.3749   21.2958 H   0  0  0  0  0  0
  -26.4626  -20.4981   23.8962 H   0  0  0  0  0  0
  1 25  1  0  0  0
  1 30  2  0  0  0
  1 87  1  0  0  0
  2  3  1  0  0  0
  2 25  1  0  0  0
  2 89  1  0  0  0
  2 90  1  0  0  0
  3  4  1  0  0  0
  3 91  1  0  0  0
  3 92  1  0  0  0
  4  5  1  0  0  0
  4 93  1  0  0  0
  4 94  1  0  0  0
  5  6  1  0  0  0
  5 26  1  0  0  0
  5 95  1  0  0  0
  6 25  1  0  0  0
  6 96  1  0  0  0
  6 97  1  0  0  0
  7  8  2  0  0  0
  7 26  1  0  0  0
  7 29  1  0  0  0
  8  9  1  0  0  0
  8 22  1  0  0  0
  9 10  1  0  0  0
  9 27  2  0  0  0
 10 11  2  0  0  0
 10 15  1  0  0  0
 11 12  1  0  0  0
 11 98  1  0  0  0
 12 13  2  0  0  0
 12 99  1  0  0  0
 13 14  1  0  0  0
 13 31  1  0  0  0
 14 15  2  0  0  0
 14100  1  0  0  0
 15101  1  0  0  0
 16 17  2  0  0  0
 16 21  1  0  0  0
 16 31  1  0  0  0
 17 18  1  0  0  0
 17102  1  0  0  0
 18 19  2  0  0  0
 18103  1  0  0  0
 19 20  1  0  0  0
 19 24  1  0  0  0
 20 21  2  0  0  0
 20104  1  0  0  0
 21 23  1  0  0  0
 22 28  1  0  0  0
 22 32  2  0  0  0
 26 27  1  0  0  0
 28105  1  0  0  0
 28106  1  0  0  0
 29107  1  0  0  0
 29108  1  0  0  0
 33 34  1  0  0  0
 33 66  1  0  0  0
 33 70  2  0  0  0
 34 36  1  0  0  0
 34 59  1  0  0  0
 34109  1  0  0  0
 35 44  2  0  0  0
 35 45  1  0  0  0
 35 68  1  0  0  0
 36 56  1  0  0  0
 36110  1  0  0  0
 37 39  1  0  0  0
 37 47  1  0  0  0
 37 66  1  0  0  0
 37111  1  0  0  0
 38 43  2  0  0  0
 38 46  1  0  0  0
 38 47  1  0  0  0
 39 64  1  0  0  0
 39 67  2  0  0  0
 40 52  1  0  0  0
 40 53  2  0  0  0
 40 58  1  0  0  0
 41112  1  0  0  0
 41113  1  0  0  0
 41114  1  0  0  0
 41 48  1  0  0  0
 42 43  1  0  0  0
 42 66  1  0  0  0
 42115  1  0  0  0
 42116  1  0  0  0
 43 44  1  0  0  0
 44117  1  0  0  0
 45 46  2  0  0  0
 45118  1  0  0  0
 46119  1  0  0  0
 47120  1  0  0  0
 47121  1  0  0  0
 48 56  1  0  0  0
 48 65  1  0  0  0
 48122  1  0  0  0
 49 50  1  0  0  0
 49 53  1  0  0  0
 49 64  1  0  0  0
 49123  1  0  0  0
 50 51  1  0  0  0
 50124  1  0  0  0
 50125  1  0  0  0
 51 52  1  0  0  0
 51126  1  0  0  0
 51127  1  0  0  0
 52128  1  0  0  0
 52129  1  0  0  0
 53 54  1  0  0  0
 54 55  2  0  0  0
 54130  1  0  0  0
 55 57  1  0  0  0
 55131  1  0  0  0
 56 69  2  0  0  0
 57 58  2  0  0  0
 57132  1  0  0  0
 58133  1  0  0  0
 59 60  1  0  0  0
 59 61  1  0  0  0
 59 62  1  0  0  0
 60134  1  0  0  0
 60135  1  0  0  0
 60136  1  0  0  0
 61137  1  0  0  0
 61138  1  0  0  0
 61139  1  0  0  0
 62140  1  0  0  0
 62141  1  0  0  0
 62142  1  0  0  0
 63 65  1  0  0  0
 63143  1  0  0  0
 63144  1  0  0  0
 63145  1  0  0  0
 64146  1  0  0  0
 65147  1  0  0  0
 68 84  1  0  0  0
 71 72  2  0  0  0
 71 75  1  0  0  0
 71148  1  0  0  0
 72 76  1  0  0  0
 72149  1  0  0  0
 73 74  1  0  0  0
 73 76  2  0  0  0
 73150  1  0  0  0
 74 75  2  0  0  0
 74 81  1  0  0  0
 75 86  1  0  0  0
 76 88  1  0  0  0
 77 79  1  0  0  0
 77 81  1  0  0  0
 77151  1  0  0  0
 77152  1  0  0  0
 78 80  1  0  0  0
 78 81  1  0  0  0
 78153  1  0  0  0
 78154  1  0  0  0
 79 87  1  0  0  0
 79155  1  0  0  0
 79156  1  0  0  0
 80 87  1  0  0  0
 80157  1  0  0  0
 80158  1  0  0  0
 81159  1  0  0  0
 82160  1  0  0  0
 82161  1  0  0  0
 82162  1  0  0  0
 82 86  1  0  0  0
 83 86  1  0  0  0
 83163  1  0  0  0
 83164  1  0  0  0
 83165  1  0  0  0
 84 85  1  0  0  0
 84166  1  0  0  0
 84167  1  0  0  0
 85 88  1  0  0  0
 85168  1  0  0  0
 85169  1  0  0  0
 86170  1  0  0  0
M  ISO  4   1 100  68 101  84 101  87 100
M  END
> <chiral flag>
0

> <version>
0

> <s_m_source_file>
/data/baiqing/PycharmProjects/Reinvent-master-3.2/result/LINK_invent/BTK/process_docking_weight1_custom_sum_contain_oxygen_bond_distance_aromatic_linkinvent_7_9_3/rearranged_h_0150.sdf

> <i_m_source_file_index>
29

> <r_mmod_Potential_Energy-OPLS-2005>
410.315277099609

> <r_mmod_Stretch_Energy-OPLS-2005>
64.9769592285156

> <r_mmod_Bend_Energy-OPLS-2005>
180.427780151367

> <r_mmod_Torsional_Energy-OPLS-2005>
427.850036621094

> <r_mmod_Improper_Torsional_Energy-OPLS-2005>
18.6756191253662

> <r_mmod_Van_der_Waal_Energy-OPLS-2005>
199.043518066406

> <r_mmod_Electrostatic_Energy-OPLS-2005>
-309.050933837891

> <r_mmod_Solvation_Energy-OPLS-2005>
-188.757293701172

> <b_mmod_Minimization_Converged-OPLS-2005>
0

> <r_mmod_RMS_Derivative-OPLS-2005>
3.93695712089539

$$$$
29
                    3D
 Structure written by MMmdl.
171181  0  0  1  0            999 V2000
  -30.6510  -14.5287   20.5654 C   0  0  0  0  0  0
  -30.4308  -12.3470   19.4106 C   0  0  0  0  0  0
  -29.4957  -12.5153   18.1938 C   0  0  0  0  0  0
  -28.0167  -12.3643   18.6092 C   0  0  0  0  0  0
  -27.6565  -13.2031   19.8659 C   0  0  2  0  0  0
  -28.7026  -12.9846   20.9797 C   0  0  0  0  0  0
  -25.2556  -13.8135   20.5609 C   0  0  0  0  0  0
  -24.1816  -13.0406   20.9119 C   0  0  0  0  0  0
  -24.6394  -11.6883   20.8715 C   0  0  0  0  0  0
  -23.9064  -10.4271   21.0397 C   0  0  0  0  0  0
  -24.3615   -9.4186   21.9175 C   0  0  0  0  0  0
  -23.6290   -8.2228   22.0757 C   0  0  0  0  0  0
  -22.4271   -8.0278   21.3543 C   0  0  0  0  0  0
  -21.9906   -9.0248   20.4632 C   0  0  0  0  0  0
  -22.7244  -10.2124   20.3049 C   0  0  0  0  0  0
  -21.6849   -6.0735   22.5282 C   0  0  0  0  0  0
  -21.3999   -6.5628   23.8217 C   0  0  0  0  0  0
  -21.3658   -5.6781   24.9169 C   0  0  0  0  0  0
  -21.6055   -4.3049   24.7220 C   0  0  0  0  0  0
  -21.8811   -3.8137   23.4343 C   0  0  0  0  0  0
  -21.9169   -4.6957   22.3396 C   0  0  0  0  0  0
  -22.7827  -13.5187   21.1772 C   0  0  0  0  0  0
  -22.1640   -4.2143   21.0976 F   0  0  0  0  0  0
  -21.5641   -3.4520   25.7731 F   0  0  0  0  0  0
  -30.0191  -13.3309   20.4224 N   0  0  0  0  0  0
  -26.3009  -12.9303   20.3320 N   0  0  0  0  0  0
  -25.9317  -11.6468   20.5741 N   0  0  0  0  0  0
  -22.0478  -12.8215   22.0369 N   0  0  0  0  0  0
  -25.4207  -15.1862   20.3988 N   0  0  0  0  0  0
  -31.7949  -14.7351   20.1540 O   0  0  0  0  0  0
  -21.6638   -6.8882   21.4253 O   0  0  0  0  0  0
  -22.3496  -14.5486   20.6620 O   0  0  0  0  0  0
  -24.6221  -31.8641   23.2026 C   0  0  0  0  0  0
  -25.9067  -32.4807   23.8364 C   0  0  1  0  0  0
  -27.2342  -27.3582   20.1211 C   0  0  0  0  0  0
  -25.5891  -33.8602   24.2280 N   0  0  0  0  0  0
  -23.4122  -30.4835   21.5447 C   0  0  2  0  0  0
  -24.8586  -28.9331   20.1157 C   0  0  0  0  0  0
  -22.7436  -29.4632   22.4964 C   0  0  0  0  0  0
  -18.0291  -28.1383   22.8501 C   0  0  0  0  0  0
  -24.1481  -36.7319   23.2641 C   0  0  0  0  0  0
  -25.9473  -30.8057   21.3640 C   0  0  0  0  0  0
  -26.0214  -29.4349   20.7100 C   0  0  0  0  0  0
  -27.2081  -28.6569   20.7005 C   0  0  0  0  0  0
  -26.0473  -26.8850   19.5156 C   0  0  0  0  0  0
  -24.8705  -27.6620   19.5132 C   0  0  0  0  0  0
  -23.6241  -29.8102   20.1625 C   0  0  0  0  0  0
  -25.4111  -36.3102   24.0334 C   0  0  1  0  0  0
  -20.5879  -28.3676   23.1313 C   0  0  2  0  0  0
  -20.6771  -26.9407   22.5423 C   0  0  0  0  0  0
  -19.5740  -26.6379   21.5227 C   0  0  0  0  0  0
  -18.1914  -26.7932   22.1633 C   0  0  0  0  0  0
  -19.1533  -28.8850   23.2911 C   0  0  0  0  0  0
  -18.9460  -30.1451   23.8917 C   0  0  0  0  0  0
  -17.6454  -30.6588   24.0567 C   0  0  0  0  0  0
  -25.9052  -34.9482   23.5113 C   0  0  0  0  0  0
  -16.5357  -29.9074   23.6340 C   0  0  0  0  0  0
  -16.7269  -28.6505   23.0350 C   0  0  0  0  0  0
  -26.4472  -31.6620   25.0738 C   0  0  0  0  0  0
  -25.3715  -31.3763   26.1480 C   0  0  0  0  0  0
  -27.0312  -30.3050   24.6167 C   0  0  0  0  0  0
  -27.6026  -32.4374   25.7502 C   0  0  0  0  0  0
  -27.5585  -37.1814   24.8460 C   0  0  0  0  0  0
  -21.4161  -29.3037   22.3716 N   0  0  0  0  0  0
  -26.4295  -37.3790   23.9407 N   0  0  0  0  0  0
  -24.6784  -31.0671   22.0944 N   0  0  0  0  0  0
  -23.4201  -28.8197   23.3042 O   0  0  0  0  0  0
  -28.4131  -26.6204   20.1798 O   0  0  0  0  0  0
  -26.5617  -34.8945   22.4681 O   0  0  0  0  0  0
  -23.5396  -32.1408   23.7390 O   0  0  0  0  0  0
  -31.6665  -22.9826   20.6133 C   0  0  0  0  0  0
  -29.5962  -21.7484   20.9391 C   0  0  0  0  0  0
  -30.2557  -23.0034   20.6950 C   0  0  0  0  0  0
  -32.3747  -21.7924   20.8066 C   0  0  0  0  0  0
  -31.7385  -20.5786   21.0565 C   0  0  0  0  0  0
  -30.3188  -20.5081   21.1013 C   0  0  0  0  0  0
  -33.8722  -21.6731   20.8180 C   0  0  0  0  0  0
  -34.1061  -20.1553   20.8186 C   0  0  0  0  0  0
  -29.8193  -25.0295   19.2215 C   0  0  0  0  0  0
  -29.6795  -24.4394   20.6139 C   0  0  1  0  0  0
  -32.7812  -19.4850   21.2745 C   0  0  1  0  0  0
  -28.5023  -25.1823   19.9107 C   0  0  1  0  0  0
  -33.8212  -17.7249   22.8137 C   0  0  0  0  0  0
  -33.1831  -19.9824   23.8019 C   0  0  0  0  0  0
  -30.3005  -16.8742   21.5293 C   0  0  0  0  0  0
  -29.8441  -18.1043   20.6627 C   0  0  0  0  0  0
  -32.8611  -18.9307   22.7256 C   0  0  0  0  0  0
  -29.8901  -15.5218   21.0803 N   0  0  0  0  0  0
  -29.6342  -19.3311   21.4149 O   0  0  0  0  0  0
  -31.4744  -12.4685   19.1136 H   0  0  0  0  0  0
  -30.3468  -11.3364   19.8136 H   0  0  0  0  0  0
  -29.7423  -11.7888   17.4183 H   0  0  0  0  0  0
  -29.6512  -13.4985   17.7438 H   0  0  0  0  0  0
  -27.8286  -11.3056   18.7969 H   0  0  0  0  0  0
  -27.3664  -12.6388   17.7781 H   0  0  0  0  0  0
  -27.6908  -14.2496   19.5628 H   0  0  0  0  0  0
  -28.7066  -11.9367   21.2885 H   0  0  0  0  0  0
  -28.4638  -13.5538   21.8780 H   0  0  0  0  0  0
  -25.2774   -9.5635   22.4729 H   0  0  0  0  0  0
  -23.9972   -7.4620   22.7498 H   0  0  0  0  0  0
  -21.0824   -8.8782   19.8959 H   0  0  0  0  0  0
  -22.3724  -10.9654   19.6141 H   0  0  0  0  0  0
  -21.2014   -7.6145   23.9707 H   0  0  0  0  0  0
  -21.1489   -6.0520   25.9068 H   0  0  0  0  0  0
  -22.0596   -2.7602   23.2852 H   0  0  0  0  0  0
  -22.4120  -11.9931   22.4837 H   0  0  0  0  0  0
  -21.1099  -13.1263   22.2553 H   0  0  0  0  0  0
  -24.6412  -15.8290   20.4873 H   0  0  0  0  0  0
  -26.2609  -15.6311   20.0475 H   0  0  0  0  0  0
  -26.7141  -32.5475   23.1128 H   0  0  0  0  0  0
  -25.0020  -33.9749   25.0402 H   0  0  0  0  0  0
  -22.7048  -31.3029   21.3995 H   0  0  0  0  0  0
  -23.3747  -35.9639   23.3297 H   0  0  0  0  0  0
  -24.3577  -36.8950   22.2056 H   0  0  0  0  0  0
  -23.7248  -37.6526   23.6672 H   0  0  0  0  0  0
  -26.0697  -31.5680   20.5937 H   0  0  0  0  0  0
  -26.8327  -30.8593   21.9854 H   0  0  0  0  0  0
  -28.1054  -29.0416   21.1622 H   0  0  0  0  0  0
  -26.0026  -25.9129   19.0489 H   0  0  0  0  0  0
  -23.9735  -27.2671   19.0561 H   0  0  0  0  0  0
  -23.7389  -30.5819   19.4006 H   0  0  0  0  0  0
  -22.7449  -29.2355   19.8660 H   0  0  0  0  0  0
  -25.1291  -36.1956   25.0827 H   0  0  0  0  0  0
  -20.9981  -28.3237   24.1428 H   0  0  0  0  0  0
  -20.5675  -26.2284   23.3618 H   0  0  0  0  0  0
  -21.6638  -26.7430   22.1213 H   0  0  0  0  0  0
  -19.6899  -25.6282   21.1263 H   0  0  0  0  0  0
  -19.6686  -27.3190   20.6758 H   0  0  0  0  0  0
  -17.4196  -26.6709   21.4017 H   0  0  0  0  0  0
  -18.0293  -26.0057   22.9014 H   0  0  0  0  0  0
  -19.7926  -30.7272   24.2285 H   0  0  0  0  0  0
  -17.5007  -31.6259   24.5166 H   0  0  0  0  0  0
  -15.5356  -30.2986   23.7646 H   0  0  0  0  0  0
  -15.8671  -28.0833   22.7045 H   0  0  0  0  0  0
  -24.5800  -30.7226   25.7801 H   0  0  0  0  0  0
  -24.9018  -32.2945   26.5018 H   0  0  0  0  0  0
  -25.8036  -30.8829   27.0191 H   0  0  0  0  0  0
  -26.2869  -29.6817   24.1190 H   0  0  0  0  0  0
  -27.4026  -29.7314   25.4672 H   0  0  0  0  0  0
  -27.8731  -30.4374   23.9363 H   0  0  0  0  0  0
  -27.2589  -33.3625   26.2148 H   0  0  0  0  0  0
  -28.3776  -32.7038   25.0300 H   0  0  0  0  0  0
  -28.0755  -31.8480   26.5364 H   0  0  0  0  0  0
  -28.2597  -38.0110   24.7507 H   0  0  0  0  0  0
  -28.1091  -36.2663   24.6268 H   0  0  0  0  0  0
  -27.2322  -37.1430   25.8862 H   0  0  0  0  0  0
  -20.9334  -29.8763   21.6927 H   0  0  0  0  0  0
  -26.0191  -38.2872   24.1383 H   0  0  0  0  0  0
  -32.2157  -23.8993   20.4473 H   0  0  0  0  0  0
  -28.5196  -21.7343   21.0367 H   0  0  0  0  0  0
  -34.2593  -22.1262   21.7315 H   0  0  0  0  0  0
  -34.3345  -22.1684   19.9644 H   0  0  0  0  0  0
  -34.9931  -19.8688   21.3810 H   0  0  0  0  0  0
  -34.2949  -19.8580   19.7875 H   0  0  0  0  0  0
  -29.8291  -24.3484   18.3715 H   0  0  0  0  0  0
  -30.4753  -25.8920   19.1224 H   0  0  0  0  0  0
  -30.0982  -24.9985   21.4481 H   0  0  0  0  0  0
  -32.5713  -18.6616   20.5950 H   0  0  0  0  0  0
  -27.6327  -24.6375   19.5482 H   0  0  0  0  0  0
  -33.7062  -17.1887   23.7553 H   0  0  0  0  0  0
  -34.8662  -18.0266   22.7438 H   0  0  0  0  0  0
  -33.6443  -17.0050   22.0131 H   0  0  0  0  0  0
  -32.4299  -20.7695   23.8198 H   0  0  0  0  0  0
  -34.1552  -20.4498   23.6455 H   0  0  0  0  0  0
  -33.1940  -19.5323   24.7951 H   0  0  0  0  0  0
  -29.8819  -16.9909   22.5298 H   0  0  0  0  0  0
  -31.3784  -16.8743   21.6554 H   0  0  0  0  0  0
  -28.8682  -17.8695   20.2353 H   0  0  0  0  0  0
  -30.5042  -18.2581   19.8099 H   0  0  0  0  0  0
  -31.8705  -18.5611   22.9837 H   0  0  0  0  0  0
  -28.9440  -15.2498   21.3040 H   0  0  0  0  0  0
  1 25  1  0  0  0
  1 30  2  0  0  0
  1 88  1  0  0  0
  2  3  1  0  0  0
  2 25  1  0  0  0
  2 90  1  0  0  0
  2 91  1  0  0  0
  3  4  1  0  0  0
  3 92  1  0  0  0
  3 93  1  0  0  0
  4  5  1  0  0  0
  4 94  1  0  0  0
  4 95  1  0  0  0
  5  6  1  0  0  0
  5 26  1  0  0  0
  5 96  1  0  0  0
  6 25  1  0  0  0
  6 97  1  0  0  0
  6 98  1  0  0  0
  7  8  2  0  0  0
  7 26  1  0  0  0
  7 29  1  0  0  0
  8  9  1  0  0  0
  8 22  1  0  0  0
  9 10  1  0  0  0
  9 27  2  0  0  0
 10 11  2  0  0  0
 10 15  1  0  0  0
 11 12  1  0  0  0
 11 99  1  0  0  0
 12 13  2  0  0  0
 12100  1  0  0  0
 13 14  1  0  0  0
 13 31  1  0  0  0
 14 15  2  0  0  0
 14101  1  0  0  0
 15102  1  0  0  0
 16 17  2  0  0  0
 16 21  1  0  0  0
 16 31  1  0  0  0
 17 18  1  0  0  0
 17103  1  0  0  0
 18 19  2  0  0  0
 18104  1  0  0  0
 19 20  1  0  0  0
 19 24  1  0  0  0
 20 21  2  0  0  0
 20105  1  0  0  0
 21 23  1  0  0  0
 22 28  1  0  0  0
 22 32  2  0  0  0
 26 27  1  0  0  0
 28106  1  0  0  0
 28107  1  0  0  0
 29108  1  0  0  0
 29109  1  0  0  0
 33 34  1  0  0  0
 33 66  1  0  0  0
 33 70  2  0  0  0
 34 36  1  0  0  0
 34 59  1  0  0  0
 34110  1  0  0  0
 35 44  2  0  0  0
 35 45  1  0  0  0
 35 68  1  0  0  0
 36 56  1  0  0  0
 36111  1  0  0  0
 37 39  1  0  0  0
 37 47  1  0  0  0
 37 66  1  0  0  0
 37112  1  0  0  0
 38 43  2  0  0  0
 38 46  1  0  0  0
 38 47  1  0  0  0
 39 64  1  0  0  0
 39 67  2  0  0  0
 40 52  1  0  0  0
 40 53  2  0  0  0
 40 58  1  0  0  0
 41113  1  0  0  0
 41114  1  0  0  0
 41115  1  0  0  0
 41 48  1  0  0  0
 42 43  1  0  0  0
 42 66  1  0  0  0
 42116  1  0  0  0
 42117  1  0  0  0
 43 44  1  0  0  0
 44118  1  0  0  0
 45 46  2  0  0  0
 45119  1  0  0  0
 46120  1  0  0  0
 47121  1  0  0  0
 47122  1  0  0  0
 48 56  1  0  0  0
 48 65  1  0  0  0
 48123  1  0  0  0
 49 50  1  0  0  0
 49 53  1  0  0  0
 49 64  1  0  0  0
 49124  1  0  0  0
 50 51  1  0  0  0
 50125  1  0  0  0
 50126  1  0  0  0
 51 52  1  0  0  0
 51127  1  0  0  0
 51128  1  0  0  0
 52129  1  0  0  0
 52130  1  0  0  0
 53 54  1  0  0  0
 54 55  2  0  0  0
 54131  1  0  0  0
 55 57  1  0  0  0
 55132  1  0  0  0
 56 69  2  0  0  0
 57 58  2  0  0  0
 57133  1  0  0  0
 58134  1  0  0  0
 59 60  1  0  0  0
 59 61  1  0  0  0
 59 62  1  0  0  0
 60135  1  0  0  0
 60136  1  0  0  0
 60137  1  0  0  0
 61138  1  0  0  0
 61139  1  0  0  0
 61140  1  0  0  0
 62141  1  0  0  0
 62142  1  0  0  0
 62143  1  0  0  0
 63 65  1  0  0  0
 63144  1  0  0  0
 63145  1  0  0  0
 63146  1  0  0  0
 64147  1  0  0  0
 65148  1  0  0  0
 68 82  1  0  0  0
 71 73  2  0  0  0
 71 74  1  0  0  0
 71149  1  0  0  0
 72 73  1  0  0  0
 72 76  2  0  0  0
 72150  1  0  0  0
 73 80  1  0  0  0
 74 75  2  0  0  0
 74 77  1  0  0  0
 75 76  1  0  0  0
 75 81  1  0  0  0
 76 89  1  0  0  0
 77 78  1  0  0  0
 77151  1  0  0  0
 77152  1  0  0  0
 78153  1  0  0  0
 78154  1  0  0  0
 78 81  1  0  0  0
 79 80  1  0  0  0
 79 82  1  0  0  0
 79155  1  0  0  0
 79156  1  0  0  0
 80 82  1  0  0  0
 80157  1  0  0  0
 81 87  1  0  0  0
 81158  1  0  0  0
 82159  1  0  0  0
 83160  1  0  0  0
 83161  1  0  0  0
 83162  1  0  0  0
 83 87  1  0  0  0
 84 87  1  0  0  0
 84163  1  0  0  0
 84164  1  0  0  0
 84165  1  0  0  0
 85 86  1  0  0  0
 85 88  1  0  0  0
 85166  1  0  0  0
 85167  1  0  0  0
 86 89  1  0  0  0
 86168  1  0  0  0
 86169  1  0  0  0
 87170  1  0  0  0
 88171  1  0  0  0
M  ISO  4   1 100  68 101  82 101  88 100
M  END
> <chiral flag>
0

> <version>
0

> <s_m_source_file>
/data/baiqing/PycharmProjects/Reinvent-master-3.2/result/LINK_invent/BTK/process_docking_weight1_custom_sum_contain_oxygen_bond_distance_aromatic_linkinvent_7_9_3/rearranged_h_0150.sdf

> <i_m_source_file_index>
30

> <r_mmod_Potential_Energy-OPLS-2005>
97.5262985229492

> <r_mmod_Stretch_Energy-OPLS-2005>
63.6142196655273

> <r_mmod_Bend_Energy-OPLS-2005>
230.82926940918

> <r_mmod_Torsional_Energy-OPLS-2005>
271.405059814453

> <r_mmod_Improper_Torsional_Energy-OPLS-2005>
3.92606282234192

> <r_mmod_Van_der_Waal_Energy-OPLS-2005>
134.916198730469

> <r_mmod_Electrostatic_Energy-OPLS-2005>
-428.130615234375

> <r_mmod_Solvation_Energy-OPLS-2005>
-204.55534362793

> <b_mmod_Minimization_Converged-OPLS-2005>
0

> <r_mmod_RMS_Derivative-OPLS-2005>
3.73667860031128

$$$$
30
                    3D
 Structure written by MMmdl.
167176  0  0  1  0            999 V2000
  -30.6991  -14.5129   20.5484 C   0  0  0  0  0  0
  -30.4259  -12.3333   19.4239 C   0  0  0  0  0  0
  -29.5022  -12.4950   18.2008 C   0  0  0  0  0  0
  -28.0225  -12.3507   18.6133 C   0  0  0  0  0  0
  -27.6541  -13.2091   19.8539 C   0  0  2  0  0  0
  -28.6961  -13.0497   20.9800 C   0  0  0  0  0  0
  -25.2649  -13.8100   20.5844 C   0  0  0  0  0  0
  -24.1876  -13.0392   20.9208 C   0  0  0  0  0  0
  -24.6419  -11.6850   20.8696 C   0  0  0  0  0  0
  -23.9078  -10.4236   21.0369 C   0  0  0  0  0  0
  -24.3609   -9.4145   21.9160 C   0  0  0  0  0  0
  -23.6274   -8.2197   22.0722 C   0  0  0  0  0  0
  -22.4243   -8.0252   21.3522 C   0  0  0  0  0  0
  -21.9892   -9.0227   20.4611 C   0  0  0  0  0  0
  -22.7251  -10.2093   20.3019 C   0  0  0  0  0  0
  -21.6828   -6.0742   22.5286 C   0  0  0  0  0  0
  -21.4004   -6.5653   23.8225 C   0  0  0  0  0  0
  -21.3653   -5.6801   24.9187 C   0  0  0  0  0  0
  -21.6036   -4.3073   24.7237 C   0  0  0  0  0  0
  -21.8809   -3.8155   23.4366 C   0  0  0  0  0  0
  -21.9169   -4.6962   22.3412 C   0  0  0  0  0  0
  -22.7893  -13.5191   21.1909 C   0  0  0  0  0  0
  -22.1632   -4.2161   21.0988 F   0  0  0  0  0  0
  -21.5612   -3.4545   25.7753 F   0  0  0  0  0  0
  -30.0212  -13.3430   20.4129 N   0  0  0  0  0  0
  -26.3005  -12.9292   20.3268 N   0  0  0  0  0  0
  -25.9329  -11.6429   20.5642 N   0  0  0  0  0  0
  -22.0549  -12.8125   22.0416 N   0  0  0  0  0  0
  -25.4524  -15.1817   20.4608 N   0  0  0  0  0  0
  -31.8599  -14.6682   20.1648 O   0  0  0  0  0  0
  -21.6597   -6.8870   21.4246 O   0  0  0  0  0  0
  -22.3584  -14.5531   20.6809 O   0  0  0  0  0  0
  -24.6168  -31.8625   23.2155 C   0  0  0  0  0  0
  -25.9081  -32.4782   23.8428 C   0  0  1  0  0  0
  -27.2199  -27.4080   20.0819 C   0  0  0  0  0  0
  -25.5933  -33.8601   24.2344 N   0  0  0  0  0  0
  -23.4010  -30.4870   21.5571 C   0  0  2  0  0  0
  -24.8408  -28.9481   20.1164 C   0  0  0  0  0  0
  -22.7402  -29.4628   22.5068 C   0  0  0  0  0  0
  -18.0236  -28.1345   22.8505 C   0  0  0  0  0  0
  -24.1471  -36.7301   23.2637 C   0  0  0  0  0  0
  -25.9353  -30.8116   21.3761 C   0  0  0  0  0  0
  -26.0055  -29.4501   20.7107 C   0  0  0  0  0  0
  -27.1983  -28.6878   20.6872 C   0  0  0  0  0  0
  -26.0376  -26.9265   19.4787 C   0  0  0  0  0  0
  -24.8516  -27.6838   19.5009 C   0  0  0  0  0  0
  -23.6029  -29.8150   20.1726 C   0  0  0  0  0  0
  -25.4088  -36.3085   24.0342 C   0  0  1  0  0  0
  -20.5830  -28.3620   23.1335 C   0  0  2  0  0  0
  -20.6714  -26.9353   22.5406 C   0  0  0  0  0  0
  -19.5686  -26.6337   21.5209 C   0  0  0  0  0  0
  -18.1862  -26.7905   22.1603 C   0  0  0  0  0  0
  -19.1492  -28.8809   23.2892 C   0  0  0  0  0  0
  -18.9435  -30.1437   23.8862 C   0  0  0  0  0  0
  -17.6438  -30.6579   24.0526 C   0  0  0  0  0  0
  -25.9029  -34.9461   23.5130 C   0  0  0  0  0  0
  -16.5316  -29.9045   23.6367 C   0  0  0  0  0  0
  -16.7225  -28.6456   23.0393 C   0  0  0  0  0  0
  -26.4496  -31.6593   25.0793 C   0  0  0  0  0  0
  -25.3817  -31.3702   26.1598 C   0  0  0  0  0  0
  -27.0334  -30.3018   24.6243 C   0  0  0  0  0  0
  -27.6047  -32.4333   25.7555 C   0  0  0  0  0  0
  -27.5582  -37.1778   24.8435 C   0  0  0  0  0  0
  -21.4129  -29.3023   22.3810 N   0  0  0  0  0  0
  -26.4240  -37.3799   23.9447 N   0  0  0  0  0  0
  -24.6691  -31.0699   22.1062 N   0  0  0  0  0  0
  -23.4176  -28.8161   23.3102 O   0  0  0  0  0  0
  -28.3789  -26.6540   20.0816 O   0  0  0  0  0  0
  -26.5567  -34.8903   22.4678 O   0  0  0  0  0  0
  -23.5361  -32.1429   23.7533 O   0  0  0  0  0  0
  -26.6151  -21.1303   19.6101 C   0  0  0  0  0  0
  -29.1488  -20.4253   20.3615 C   0  0  0  0  0  0
  -26.8190  -19.8237   20.1075 C   0  0  0  0  0  0
  -28.1312  -19.4437   20.4879 C   0  0  0  0  0  0
  -27.6907  -22.0287   19.5324 C   0  0  0  0  0  0
  -24.4487  -18.5928   17.9650 C   0  0  0  0  0  0
  -23.5533  -17.9541   18.9980 C   0  0  0  0  0  0
  -24.4573  -19.1037   19.3882 C   0  0  0  0  0  0
  -25.1935  -18.8739   21.7817 C   0  0  0  0  0  0
  -30.4842  -16.9268   21.1923 C   0  0  0  0  0  0
  -29.4266  -17.8637   21.8320 C   0  0  0  0  0  0
  -28.2408  -25.2331   20.3193 C   0  0  0  0  0  0
  -28.4346  -24.3324   19.0728 C   0  0  0  0  0  0
  -25.6464  -18.8586   20.3139 C   0  0  2  0  0  0
  -28.9414  -21.6870   19.9100 N   0  0  0  0  0  0
  -29.9743  -15.5645   20.9737 N   0  0  0  0  0  0
  -28.3426  -18.1479   20.9386 O   0  0  0  0  0  0
  -27.4435  -23.2947   19.0306 O   0  0  0  0  0  0
  -31.4704  -12.4407   19.1259 H   0  0  0  0  0  0
  -30.3389  -11.3351   19.8531 H   0  0  0  0  0  0
  -29.7525  -11.7516   17.4414 H   0  0  0  0  0  0
  -29.6626  -13.4713   17.7408 H   0  0  0  0  0  0
  -27.8404  -11.2965   18.8265 H   0  0  0  0  0  0
  -27.3749  -12.6082   17.7742 H   0  0  0  0  0  0
  -27.6752  -14.2476   19.5197 H   0  0  0  0  0  0
  -28.6864  -12.0364   21.3820 H   0  0  0  0  0  0
  -28.4551  -13.7034   21.8195 H   0  0  0  0  0  0
  -25.2756   -9.5620   22.4742 H   0  0  0  0  0  0
  -23.9995   -7.4572   22.7412 H   0  0  0  0  0  0
  -21.0841   -8.8738   19.8908 H   0  0  0  0  0  0
  -22.3717  -10.9629   19.6112 H   0  0  0  0  0  0
  -21.2013   -7.6157   23.9745 H   0  0  0  0  0  0
  -21.1474   -6.0525   25.9092 H   0  0  0  0  0  0
  -22.0601   -2.7616   23.2857 H   0  0  0  0  0  0
  -22.4147  -11.9699   22.4674 H   0  0  0  0  0  0
  -21.1159  -13.1125   22.2690 H   0  0  0  0  0  0
  -24.7191  -15.8469   20.6708 H   0  0  0  0  0  0
  -26.3367  -15.6177   20.2356 H   0  0  0  0  0  0
  -26.7139  -32.5421   23.1160 H   0  0  0  0  0  0
  -25.0216  -33.9756   25.0576 H   0  0  0  0  0  0
  -22.6911  -31.3055   21.4198 H   0  0  0  0  0  0
  -23.3751  -35.9602   23.3215 H   0  0  0  0  0  0
  -24.3605  -36.9013   22.2069 H   0  0  0  0  0  0
  -23.7175  -37.6459   23.6718 H   0  0  0  0  0  0
  -26.0714  -31.5822   20.6177 H   0  0  0  0  0  0
  -26.8136  -30.8446   22.0091 H   0  0  0  0  0  0
  -28.0986  -29.0678   21.1492 H   0  0  0  0  0  0
  -26.0211  -25.9672   18.9836 H   0  0  0  0  0  0
  -23.9558  -27.2932   19.0381 H   0  0  0  0  0  0
  -23.6995  -30.5837   19.4059 H   0  0  0  0  0  0
  -22.7272  -29.2279   19.8893 H   0  0  0  0  0  0
  -25.1255  -36.1913   25.0827 H   0  0  0  0  0  0
  -20.9882  -28.3108   24.1474 H   0  0  0  0  0  0
  -20.5572  -26.2224   23.3587 H   0  0  0  0  0  0
  -21.6578  -26.7361   22.1210 H   0  0  0  0  0  0
  -19.6805  -25.6233   21.1271 H   0  0  0  0  0  0
  -19.6637  -27.3119   20.6722 H   0  0  0  0  0  0
  -17.4150  -26.6732   21.3968 H   0  0  0  0  0  0
  -18.0184  -26.0005   22.8943 H   0  0  0  0  0  0
  -19.7918  -30.7277   24.2166 H   0  0  0  0  0  0
  -17.4994  -31.6284   24.5066 H   0  0  0  0  0  0
  -15.5319  -30.2924   23.7732 H   0  0  0  0  0  0
  -15.8620  -28.0750   22.7174 H   0  0  0  0  0  0
  -24.5930  -30.7084   25.8007 H   0  0  0  0  0  0
  -24.9109  -32.2859   26.5178 H   0  0  0  0  0  0
  -25.8251  -30.8809   27.0285 H   0  0  0  0  0  0
  -26.2900  -29.6750   24.1312 H   0  0  0  0  0  0
  -27.4061  -29.7286   25.4742 H   0  0  0  0  0  0
  -27.8763  -30.4280   23.9451 H   0  0  0  0  0  0
  -27.2656  -33.3635   26.2113 H   0  0  0  0  0  0
  -28.3902  -32.6878   25.0434 H   0  0  0  0  0  0
  -28.0677  -31.8493   26.5516 H   0  0  0  0  0  0
  -28.2479  -38.0190   24.7651 H   0  0  0  0  0  0
  -28.1202  -36.2751   24.6022 H   0  0  0  0  0  0
  -27.2363  -37.1108   25.8839 H   0  0  0  0  0  0
  -20.9270  -29.8846   21.7135 H   0  0  0  0  0  0
  -26.0116  -38.2836   24.1568 H   0  0  0  0  0  0
  -25.6383  -21.4647   19.2961 H   0  0  0  0  0  0
  -30.1734  -20.2006   20.6158 H   0  0  0  0  0  0
  -23.9745  -19.2064   17.2013 H   0  0  0  0  0  0
  -25.3219  -18.0334   17.6343 H   0  0  0  0  0  0
  -23.8155  -16.9581   19.3437 H   0  0  0  0  0  0
  -22.4845  -18.1508   18.9402 H   0  0  0  0  0  0
  -23.9405  -20.0456   19.5641 H   0  0  0  0  0  0
  -26.0222  -18.6257   22.4446 H   0  0  0  0  0  0
  -24.4001  -18.1477   21.9611 H   0  0  0  0  0  0
  -24.8237  -19.8578   22.0733 H   0  0  0  0  0  0
  -31.3484  -16.8579   21.8583 H   0  0  0  0  0  0
  -30.8561  -17.3515   20.2585 H   0  0  0  0  0  0
  -29.8929  -18.7667   22.2291 H   0  0  0  0  0  0
  -29.0023  -17.3777   22.7110 H   0  0  0  0  0  0
  -28.9702  -24.9420   21.0751 H   0  0  0  0  0  0
  -27.2745  -25.0109   20.7759 H   0  0  0  0  0  0
  -29.4595  -23.9656   18.9920 H   0  0  0  0  0  0
  -28.2796  -24.9286   18.1741 H   0  0  0  0  0  0
  -26.0167  -17.8590   20.0890 H   0  0  0  0  0  0
  -28.9812  -15.4336   21.0829 H   0  0  0  0  0  0
  1 25  1  0  0  0
  1 30  2  0  0  0
  1 86  1  0  0  0
  2  3  1  0  0  0
  2 25  1  0  0  0
  2 89  1  0  0  0
  2 90  1  0  0  0
  3  4  1  0  0  0
  3 91  1  0  0  0
  3 92  1  0  0  0
  4  5  1  0  0  0
  4 93  1  0  0  0
  4 94  1  0  0  0
  5  6  1  0  0  0
  5 26  1  0  0  0
  5 95  1  0  0  0
  6 25  1  0  0  0
  6 96  1  0  0  0
  6 97  1  0  0  0
  7  8  2  0  0  0
  7 26  1  0  0  0
  7 29  1  0  0  0
  8  9  1  0  0  0
  8 22  1  0  0  0
  9 10  1  0  0  0
  9 27  2  0  0  0
 10 11  2  0  0  0
 10 15  1  0  0  0
 11 12  1  0  0  0
 11 98  1  0  0  0
 12 13  2  0  0  0
 12 99  1  0  0  0
 13 14  1  0  0  0
 13 31  1  0  0  0
 14 15  2  0  0  0
 14100  1  0  0  0
 15101  1  0  0  0
 16 17  2  0  0  0
 16 21  1  0  0  0
 16 31  1  0  0  0
 17 18  1  0  0  0
 17102  1  0  0  0
 18 19  2  0  0  0
 18103  1  0  0  0
 19 20  1  0  0  0
 19 24  1  0  0  0
 20 21  2  0  0  0
 20104  1  0  0  0
 21 23  1  0  0  0
 22 28  1  0  0  0
 22 32  2  0  0  0
 26 27  1  0  0  0
 28105  1  0  0  0
 28106  1  0  0  0
 29107  1  0  0  0
 29108  1  0  0  0
 33 34  1  0  0  0
 33 66  1  0  0  0
 33 70  2  0  0  0
 34 36  1  0  0  0
 34 59  1  0  0  0
 34109  1  0  0  0
 35 44  2  0  0  0
 35 45  1  0  0  0
 35 68  1  0  0  0
 36 56  1  0  0  0
 36110  1  0  0  0
 37 39  1  0  0  0
 37 47  1  0  0  0
 37 66  1  0  0  0
 37111  1  0  0  0
 38 43  2  0  0  0
 38 46  1  0  0  0
 38 47  1  0  0  0
 39 64  1  0  0  0
 39 67  2  0  0  0
 40 52  1  0  0  0
 40 53  2  0  0  0
 40 58  1  0  0  0
 41112  1  0  0  0
 41113  1  0  0  0
 41114  1  0  0  0
 41 48  1  0  0  0
 42 43  1  0  0  0
 42 66  1  0  0  0
 42115  1  0  0  0
 42116  1  0  0  0
 43 44  1  0  0  0
 44117  1  0  0  0
 45 46  2  0  0  0
 45118  1  0  0  0
 46119  1  0  0  0
 47120  1  0  0  0
 47121  1  0  0  0
 48 56  1  0  0  0
 48 65  1  0  0  0
 48122  1  0  0  0
 49 50  1  0  0  0
 49 53  1  0  0  0
 49 64  1  0  0  0
 49123  1  0  0  0
 50 51  1  0  0  0
 50124  1  0  0  0
 50125  1  0  0  0
 51 52  1  0  0  0
 51126  1  0  0  0
 51127  1  0  0  0
 52128  1  0  0  0
 52129  1  0  0  0
 53 54  1  0  0  0
 54 55  2  0  0  0
 54130  1  0  0  0
 55 57  1  0  0  0
 55131  1  0  0  0
 56 69  2  0  0  0
 57 58  2  0  0  0
 57132  1  0  0  0
 58133  1  0  0  0
 59 60  1  0  0  0
 59 61  1  0  0  0
 59 62  1  0  0  0
 60134  1  0  0  0
 60135  1  0  0  0
 60136  1  0  0  0
 61137  1  0  0  0
 61138  1  0  0  0
 61139  1  0  0  0
 62140  1  0  0  0
 62141  1  0  0  0
 62142  1  0  0  0
 63 65  1  0  0  0
 63143  1  0  0  0
 63144  1  0  0  0
 63145  1  0  0  0
 64146  1  0  0  0
 65147  1  0  0  0
 68 82  1  0  0  0
 71 73  2  0  0  0
 71 75  1  0  0  0
 71148  1  0  0  0
 72 74  2  0  0  0
 72 85  1  0  0  0
 72149  1  0  0  0
 73 74  1  0  0  0
 73 84  1  0  0  0
 74 87  1  0  0  0
 75 85  2  0  0  0
 75 88  1  0  0  0
 76 77  1  0  0  0
 76150  1  0  0  0
 76151  1  0  0  0
 76 78  1  0  0  0
 77 78  1  0  0  0
 77152  1  0  0  0
 77153  1  0  0  0
 78 84  1  0  0  0
 78154  1  0  0  0
 79155  1  0  0  0
 79156  1  0  0  0
 79157  1  0  0  0
 79 84  1  0  0  0
 80 81  1  0  0  0
 80 86  1  0  0  0
 80158  1  0  0  0
 80159  1  0  0  0
 81 87  1  0  0  0
 81160  1  0  0  0
 81161  1  0  0  0
 82 83  1  0  0  0
 82162  1  0  0  0
 82163  1  0  0  0
 83 88  1  0  0  0
 83164  1  0  0  0
 83165  1  0  0  0
 84166  1  0  0  0
 86167  1  0  0  0
M  ISO  4   1 100  68 101  82 101  86 100
M  END
> <chiral flag>
0

> <version>
0

> <s_m_source_file>
/data/baiqing/PycharmProjects/Reinvent-master-3.2/result/LINK_invent/BTK/process_docking_weight1_custom_sum_contain_oxygen_bond_distance_aromatic_linkinvent_7_9_3/rearranged_h_0150.sdf

> <i_m_source_file_index>
31

> <r_mmod_Potential_Energy-OPLS-2005>
-195.426010131836

> <r_mmod_Stretch_Energy-OPLS-2005>
41.1956100463867

> <r_mmod_Bend_Energy-OPLS-2005>
118.736381530762

> <r_mmod_Torsional_Energy-OPLS-2005>
248.725296020508

> <r_mmod_Improper_Torsional_Energy-OPLS-2005>
3.49806261062622

> <r_mmod_Van_der_Waal_Energy-OPLS-2005>
150.77214050293

> <r_mmod_Electrostatic_Energy-OPLS-2005>
-575.862121582031

> <r_mmod_Solvation_Energy-OPLS-2005>
-203.697631835938

> <b_mmod_Minimization_Converged-OPLS-2005>
0

> <r_mmod_RMS_Derivative-OPLS-2005>
4.43646287918091

$$$$
31
                    3D
 Structure written by MMmdl.
171180  0  0  1  0            999 V2000
  -30.7512  -14.3708   20.6044 C   0  0  0  0  0  0
  -30.4070  -12.2560   19.4078 C   0  0  0  0  0  0
  -29.4856  -12.5045   18.1983 C   0  0  0  0  0  0
  -28.0057  -12.3813   18.6096 C   0  0  0  0  0  0
  -27.6662  -13.2034   19.8820 C   0  0  2  0  0  0
  -28.7047  -12.9506   20.9990 C   0  0  0  0  0  0
  -25.2612  -13.8163   20.5684 C   0  0  0  0  0  0
  -24.1850  -13.0442   20.9166 C   0  0  0  0  0  0
  -24.6389  -11.6907   20.8722 C   0  0  0  0  0  0
  -23.9049  -10.4293   21.0395 C   0  0  0  0  0  0
  -24.3607   -9.4215   21.9177 C   0  0  0  0  0  0
  -23.6286   -8.2249   22.0750 C   0  0  0  0  0  0
  -22.4269   -8.0280   21.3539 C   0  0  0  0  0  0
  -21.9902   -9.0252   20.4646 C   0  0  0  0  0  0
  -22.7224  -10.2134   20.3050 C   0  0  0  0  0  0
  -21.6857   -6.0731   22.5277 C   0  0  0  0  0  0
  -21.4013   -6.5637   23.8211 C   0  0  0  0  0  0
  -21.3655   -5.6791   24.9172 C   0  0  0  0  0  0
  -21.6043   -4.3054   24.7226 C   0  0  0  0  0  0
  -21.8822   -3.8146   23.4349 C   0  0  0  0  0  0
  -21.9193   -4.6958   22.3402 C   0  0  0  0  0  0
  -22.7880  -13.5255   21.1833 C   0  0  0  0  0  0
  -22.1665   -4.2143   21.0979 F   0  0  0  0  0  0
  -21.5627   -3.4537   25.7737 F   0  0  0  0  0  0
  -30.0450  -13.2239   20.4528 N   0  0  0  0  0  0
  -26.3045  -12.9328   20.3400 N   0  0  0  0  0  0
  -25.9316  -11.6489   20.5769 N   0  0  0  0  0  0
  -22.0512  -12.8241   22.0383 N   0  0  0  0  0  0
  -25.4364  -15.1871   20.4098 N   0  0  0  0  0  0
  -31.8351  -14.5708   20.0486 O   0  0  0  0  0  0
  -21.6638   -6.8873   21.4237 O   0  0  0  0  0  0
  -22.3562  -14.5558   20.6679 O   0  0  0  0  0  0
  -24.6082  -31.8710   23.2119 C   0  0  0  0  0  0
  -25.9003  -32.4831   23.8406 C   0  0  1  0  0  0
  -27.2560  -27.4884   20.0864 C   0  0  0  0  0  0
  -25.5882  -33.8639   24.2343 N   0  0  0  0  0  0
  -23.3935  -30.4909   21.5508 C   0  0  2  0  0  0
  -24.8432  -28.9566   20.1191 C   0  0  0  0  0  0
  -22.7366  -29.4679   22.5029 C   0  0  0  0  0  0
  -18.0256  -28.1356   22.8490 C   0  0  0  0  0  0
  -24.1474  -36.7344   23.2625 C   0  0  0  0  0  0
  -25.9139  -30.8516   21.3566 C   0  0  0  0  0  0
  -25.9956  -29.4869   20.7103 C   0  0  0  0  0  0
  -27.2005  -28.7592   20.7009 C   0  0  0  0  0  0
  -26.0832  -26.9516   19.5163 C   0  0  0  0  0  0
  -24.8779  -27.6821   19.5230 C   0  0  0  0  0  0
  -23.5981  -29.8122   20.1683 C   0  0  0  0  0  0
  -25.4092  -36.3146   24.0339 C   0  0  1  0  0  0
  -20.5835  -28.3647   23.1341 C   0  0  2  0  0  0
  -20.6737  -26.9394   22.5421 C   0  0  0  0  0  0
  -19.5714  -26.6379   21.5216 C   0  0  0  0  0  0
  -18.1898  -26.7908   22.1624 C   0  0  0  0  0  0
  -19.1499  -28.8817   23.2905 C   0  0  0  0  0  0
  -18.9428  -30.1422   23.8910 C   0  0  0  0  0  0
  -17.6431  -30.6569   24.0547 C   0  0  0  0  0  0
  -25.9035  -34.9502   23.5151 C   0  0  0  0  0  0
  -16.5321  -29.9065   23.6316 C   0  0  0  0  0  0
  -16.7246  -28.6479   23.0342 C   0  0  0  0  0  0
  -26.4462  -31.6579   25.0716 C   0  0  0  0  0  0
  -25.3760  -31.3648   26.1485 C   0  0  0  0  0  0
  -27.0268  -30.3021   24.6063 C   0  0  0  0  0  0
  -27.6061  -32.4275   25.7462 C   0  0  0  0  0  0
  -27.5603  -37.1789   24.8431 C   0  0  0  0  0  0
  -21.4104  -29.3026   22.3757 N   0  0  0  0  0  0
  -26.4271  -37.3844   23.9445 N   0  0  0  0  0  0
  -24.6563  -31.0840   22.1000 N   0  0  0  0  0  0
  -23.4151  -28.8261   23.3090 O   0  0  0  0  0  0
  -28.4037  -26.7334   20.0334 O   0  0  0  0  0  0
  -26.5609  -34.8964   22.4719 O   0  0  0  0  0  0
  -23.5295  -32.1456   23.7548 O   0  0  0  0  0  0
  -30.9164  -23.1777   22.2491 C   0  0  0  0  0  0
  -30.4932  -21.8385   22.2095 C   0  0  0  0  0  0
  -31.8081  -21.4890   20.1971 C   0  0  0  0  0  0
  -31.7860  -23.6830   21.2609 C   0  0  0  0  0  0
  -30.9434  -20.9698   21.1941 C   0  0  0  0  0  0
  -32.2339  -22.8422   20.2135 C   0  0  0  0  0  0
  -32.2406  -25.0914   21.3610 C   0  0  0  0  0  0
  -30.0554  -17.4779   20.0559 C   0  0  0  0  0  0
  -30.2751  -17.5186   22.5420 C   0  0  0  0  0  0
  -30.6993  -18.8650   19.9661 C   0  0  0  0  0  0
  -30.9177  -18.9158   22.4507 C   0  0  0  0  0  0
  -30.6182  -16.7281   21.2749 C   0  0  0  0  0  0
  -33.3617  -22.6131   18.0938 C   0  0  0  0  0  0
  -31.1477  -26.1501   21.2795 C   0  0  0  0  0  0
  -30.7747  -26.4484   19.8176 C   0  0  0  0  0  0
  -29.6066  -27.4277   19.7158 C   0  0  0  0  0  0
  -30.5343  -19.6175   21.2159 N   0  0  0  0  0  0
  -30.1512  -15.3423   21.3035 N   0  0  0  0  0  0
  -33.4238  -25.4319   21.4509 O   0  0  0  0  0  0
  -33.0568  -23.3886   19.2470 O   0  0  0  0  0  0
  -31.4541  -12.3263   19.1070 H   0  0  0  0  0  0
  -30.2776  -11.2396   19.7827 H   0  0  0  0  0  0
  -29.7109  -11.7943   17.4010 H   0  0  0  0  0  0
  -29.6734  -13.4980   17.7865 H   0  0  0  0  0  0
  -27.7973  -11.3249   18.7839 H   0  0  0  0  0  0
  -27.3600  -12.6843   17.7850 H   0  0  0  0  0  0
  -27.7243  -14.2571   19.6071 H   0  0  0  0  0  0
  -28.6581  -11.9110   21.3280 H   0  0  0  0  0  0
  -28.4753  -13.5430   21.8856 H   0  0  0  0  0  0
  -25.2758   -9.5692   22.4747 H   0  0  0  0  0  0
  -23.9999   -7.4640   22.7470 H   0  0  0  0  0  0
  -21.0835   -8.8766   19.8957 H   0  0  0  0  0  0
  -22.3682  -10.9664   19.6153 H   0  0  0  0  0  0
  -21.2005   -7.6146   23.9709 H   0  0  0  0  0  0
  -21.1472   -6.0522   25.9073 H   0  0  0  0  0  0
  -22.0602   -2.7608   23.2848 H   0  0  0  0  0  0
  -22.4121  -11.9903   22.4776 H   0  0  0  0  0  0
  -21.1129  -13.1274   22.2581 H   0  0  0  0  0  0
  -24.6777  -15.8505   20.5250 H   0  0  0  0  0  0
  -26.2988  -15.6220   20.1045 H   0  0  0  0  0  0
  -26.7089  -32.5578   23.1191 H   0  0  0  0  0  0
  -24.9989  -33.9791   25.0460 H   0  0  0  0  0  0
  -22.6815  -31.3068   21.4116 H   0  0  0  0  0  0
  -23.3769  -35.9638   23.3224 H   0  0  0  0  0  0
  -24.3593  -36.9030   22.2056 H   0  0  0  0  0  0
  -23.7184  -37.6517   23.6670 H   0  0  0  0  0  0
  -26.0176  -31.6152   20.5850 H   0  0  0  0  0  0
  -26.8044  -30.9112   21.9702 H   0  0  0  0  0  0
  -28.0711  -29.1844   21.1770 H   0  0  0  0  0  0
  -26.1102  -25.9754   19.0547 H   0  0  0  0  0  0
  -23.9903  -27.2595   19.0730 H   0  0  0  0  0  0
  -23.6909  -30.5777   19.3979 H   0  0  0  0  0  0
  -22.7273  -29.2182   19.8838 H   0  0  0  0  0  0
  -25.1248  -36.2009   25.0827 H   0  0  0  0  0  0
  -20.9913  -28.3201   24.1466 H   0  0  0  0  0  0
  -20.5643  -26.2263   23.3603 H   0  0  0  0  0  0
  -21.6611  -26.7451   22.1217 H   0  0  0  0  0  0
  -19.6862  -25.6301   21.1223 H   0  0  0  0  0  0
  -19.6636  -27.3203   20.6753 H   0  0  0  0  0  0
  -17.4175  -26.6668   21.4016 H   0  0  0  0  0  0
  -18.0291  -26.0046   22.9017 H   0  0  0  0  0  0
  -19.7906  -30.7217   24.2307 H   0  0  0  0  0  0
  -17.4989  -31.6265   24.5125 H   0  0  0  0  0  0
  -15.5317  -30.2949   23.7641 H   0  0  0  0  0  0
  -15.8653  -28.0785   22.7050 H   0  0  0  0  0  0
  -24.5891  -30.7051   25.7812 H   0  0  0  0  0  0
  -24.8995  -32.2783   26.5040 H   0  0  0  0  0  0
  -25.8135  -30.8724   27.0181 H   0  0  0  0  0  0
  -26.2778  -29.6795   24.1154 H   0  0  0  0  0  0
  -27.4073  -29.7246   25.4501 H   0  0  0  0  0  0
  -27.8611  -30.4323   23.9168 H   0  0  0  0  0  0
  -27.2698  -33.3551   26.2105 H   0  0  0  0  0  0
  -28.3829  -32.6872   25.0257 H   0  0  0  0  0  0
  -28.0777  -31.8361   26.5324 H   0  0  0  0  0  0
  -28.2526  -38.0185   24.7678 H   0  0  0  0  0  0
  -28.1197  -36.2745   24.5988 H   0  0  0  0  0  0
  -27.2358  -37.1122   25.8831 H   0  0  0  0  0  0
  -20.9275  -29.8724   21.6956 H   0  0  0  0  0  0
  -26.0165  -38.2902   24.1561 H   0  0  0  0  0  0
  -30.5738  -23.8125   23.0542 H   0  0  0  0  0  0
  -29.8179  -21.4859   22.9757 H   0  0  0  0  0  0
  -32.1675  -20.8397   19.4165 H   0  0  0  0  0  0
  -30.2610  -16.9298   19.1346 H   0  0  0  0  0  0
  -28.9705  -17.5660   20.1264 H   0  0  0  0  0  0
  -29.1944  -17.6052   22.6650 H   0  0  0  0  0  0
  -30.6519  -17.0033   23.4270 H   0  0  0  0  0  0
  -30.2588  -19.4152   19.1323 H   0  0  0  0  0  0
  -31.7609  -18.7408   19.7457 H   0  0  0  0  0  0
  -32.0053  -18.8182   22.4725 H   0  0  0  0  0  0
  -30.6446  -19.4835   23.3403 H   0  0  0  0  0  0
  -31.7082  -16.7271   21.2026 H   0  0  0  0  0  0
  -33.9322  -23.2196   17.3906 H   0  0  0  0  0  0
  -32.4570  -22.2817   17.5805 H   0  0  0  0  0  0
  -33.9725  -21.7456   18.3478 H   0  0  0  0  0  0
  -31.4982  -27.0548   21.7757 H   0  0  0  0  0  0
  -30.2721  -25.8082   21.8305 H   0  0  0  0  0  0
  -30.5275  -25.5302   19.2829 H   0  0  0  0  0  0
  -31.6415  -26.8740   19.3103 H   0  0  0  0  0  0
  -29.5323  -27.8143   18.6983 H   0  0  0  0  0  0
  -29.8035  -28.2743   20.3723 H   0  0  0  0  0  0
  -29.2634  -15.1346   21.7363 H   0  0  0  0  0  0
  1 25  1  0  0  0
  1 30  2  0  0  0
  1 88  1  0  0  0
  2  3  1  0  0  0
  2 25  1  0  0  0
  2 91  1  0  0  0
  2 92  1  0  0  0
  3  4  1  0  0  0
  3 93  1  0  0  0
  3 94  1  0  0  0
  4  5  1  0  0  0
  4 95  1  0  0  0
  4 96  1  0  0  0
  5  6  1  0  0  0
  5 26  1  0  0  0
  5 97  1  0  0  0
  6 25  1  0  0  0
  6 98  1  0  0  0
  6 99  1  0  0  0
  7  8  2  0  0  0
  7 26  1  0  0  0
  7 29  1  0  0  0
  8  9  1  0  0  0
  8 22  1  0  0  0
  9 10  1  0  0  0
  9 27  2  0  0  0
 10 11  2  0  0  0
 10 15  1  0  0  0
 11 12  1  0  0  0
 11100  1  0  0  0
 12 13  2  0  0  0
 12101  1  0  0  0
 13 14  1  0  0  0
 13 31  1  0  0  0
 14 15  2  0  0  0
 14102  1  0  0  0
 15103  1  0  0  0
 16 17  2  0  0  0
 16 21  1  0  0  0
 16 31  1  0  0  0
 17 18  1  0  0  0
 17104  1  0  0  0
 18 19  2  0  0  0
 18105  1  0  0  0
 19 20  1  0  0  0
 19 24  1  0  0  0
 20 21  2  0  0  0
 20106  1  0  0  0
 21 23  1  0  0  0
 22 28  1  0  0  0
 22 32  2  0  0  0
 26 27  1  0  0  0
 28107  1  0  0  0
 28108  1  0  0  0
 29109  1  0  0  0
 29110  1  0  0  0
 33 34  1  0  0  0
 33 66  1  0  0  0
 33 70  2  0  0  0
 34 36  1  0  0  0
 34 59  1  0  0  0
 34111  1  0  0  0
 35 44  2  0  0  0
 35 45  1  0  0  0
 35 68  1  0  0  0
 36 56  1  0  0  0
 36112  1  0  0  0
 37 39  1  0  0  0
 37 47  1  0  0  0
 37 66  1  0  0  0
 37113  1  0  0  0
 38 43  2  0  0  0
 38 46  1  0  0  0
 38 47  1  0  0  0
 39 64  1  0  0  0
 39 67  2  0  0  0
 40 52  1  0  0  0
 40 53  2  0  0  0
 40 58  1  0  0  0
 41114  1  0  0  0
 41115  1  0  0  0
 41116  1  0  0  0
 41 48  1  0  0  0
 42 43  1  0  0  0
 42 66  1  0  0  0
 42117  1  0  0  0
 42118  1  0  0  0
 43 44  1  0  0  0
 44119  1  0  0  0
 45 46  2  0  0  0
 45120  1  0  0  0
 46121  1  0  0  0
 47122  1  0  0  0
 47123  1  0  0  0
 48 56  1  0  0  0
 48 65  1  0  0  0
 48124  1  0  0  0
 49 50  1  0  0  0
 49 53  1  0  0  0
 49 64  1  0  0  0
 49125  1  0  0  0
 50 51  1  0  0  0
 50126  1  0  0  0
 50127  1  0  0  0
 51 52  1  0  0  0
 51128  1  0  0  0
 51129  1  0  0  0
 52130  1  0  0  0
 52131  1  0  0  0
 53 54  1  0  0  0
 54 55  2  0  0  0
 54132  1  0  0  0
 55 57  1  0  0  0
 55133  1  0  0  0
 56 69  2  0  0  0
 57 58  2  0  0  0
 57134  1  0  0  0
 58135  1  0  0  0
 59 60  1  0  0  0
 59 61  1  0  0  0
 59 62  1  0  0  0
 60136  1  0  0  0
 60137  1  0  0  0
 60138  1  0  0  0
 61139  1  0  0  0
 61140  1  0  0  0
 61141  1  0  0  0
 62142  1  0  0  0
 62143  1  0  0  0
 62144  1  0  0  0
 63 65  1  0  0  0
 63145  1  0  0  0
 63146  1  0  0  0
 63147  1  0  0  0
 64148  1  0  0  0
 65149  1  0  0  0
 68 86  1  0  0  0
 71 72  2  0  0  0
 71 74  1  0  0  0
 71150  1  0  0  0
 72 75  1  0  0  0
 72151  1  0  0  0
 73 75  2  0  0  0
 73 76  1  0  0  0
 73152  1  0  0  0
 74 76  2  0  0  0
 74 77  1  0  0  0
 75 87  1  0  0  0
 76 90  1  0  0  0
 77 84  1  0  0  0
 77 89  2  0  0  0
 78 80  1  0  0  0
 78 82  1  0  0  0
 78153  1  0  0  0
 78154  1  0  0  0
 79 81  1  0  0  0
 79 82  1  0  0  0
 79155  1  0  0  0
 79156  1  0  0  0
 80 87  1  0  0  0
 80157  1  0  0  0
 80158  1  0  0  0
 81 87  1  0  0  0
 81159  1  0  0  0
 81160  1  0  0  0
 82 88  1  0  0  0
 82161  1  0  0  0
 83 90  1  0  0  0
 83162  1  0  0  0
 83163  1  0  0  0
 83164  1  0  0  0
 84 85  1  0  0  0
 84165  1  0  0  0
 84166  1  0  0  0
 85 86  1  0  0  0
 85167  1  0  0  0
 85168  1  0  0  0
 86169  1  0  0  0
 86170  1  0  0  0
 88171  1  0  0  0
M  ISO  4   1 100  68 101  86 101  88 100
M  END
> <chiral flag>
0

> <version>
0

> <s_m_source_file>
/data/baiqing/PycharmProjects/Reinvent-master-3.2/result/LINK_invent/BTK/process_docking_weight1_custom_sum_contain_oxygen_bond_distance_aromatic_linkinvent_7_9_3/rearranged_h_0150.sdf

> <i_m_source_file_index>
32

> <r_mmod_Potential_Energy-OPLS-2005>
17.3158149719238

> <r_mmod_Stretch_Energy-OPLS-2005>
34.9257164001465

> <r_mmod_Bend_Energy-OPLS-2005>
101.606506347656

> <r_mmod_Torsional_Energy-OPLS-2005>
280.320037841797

> <r_mmod_Improper_Torsional_Energy-OPLS-2005>
6.88644981384277

> <r_mmod_Van_der_Waal_Energy-OPLS-2005>
179.498458862305

> <r_mmod_Electrostatic_Energy-OPLS-2005>
-352.434051513672

> <r_mmod_Solvation_Energy-OPLS-2005>
-240.600997924805

> <b_mmod_Minimization_Converged-OPLS-2005>
0

> <r_mmod_RMS_Derivative-OPLS-2005>
1.73388230800629

$$$$
32
                    3D
 Structure written by MMmdl.
170179  0  0  1  0            999 V2000
  -30.7017  -14.7337   20.4717 C   0  0  0  0  0  0
  -30.4078  -12.4649   19.4657 C   0  0  0  0  0  0
  -29.4934  -12.4990   18.2265 C   0  0  0  0  0  0
  -28.0227  -12.3291   18.6487 C   0  0  0  0  0  0
  -27.6323  -13.2383   19.8455 C   0  0  2  0  0  0
  -28.6862  -13.2044   20.9740 C   0  0  0  0  0  0
  -25.2454  -13.8203   20.5714 C   0  0  0  0  0  0
  -24.1766  -13.0437   20.9231 C   0  0  0  0  0  0
  -24.6379  -11.6918   20.8779 C   0  0  0  0  0  0
  -23.9066  -10.4285   21.0425 C   0  0  0  0  0  0
  -24.3620   -9.4195   21.9198 C   0  0  0  0  0  0
  -23.6292   -8.2227   22.0757 C   0  0  0  0  0  0
  -22.4272   -8.0274   21.3549 C   0  0  0  0  0  0
  -21.9916   -9.0244   20.4652 C   0  0  0  0  0  0
  -22.7244  -10.2123   20.3065 C   0  0  0  0  0  0
  -21.6840   -6.0734   22.5281 C   0  0  0  0  0  0
  -21.4007   -6.5638   23.8216 C   0  0  0  0  0  0
  -21.3658   -5.6791   24.9178 C   0  0  0  0  0  0
  -21.6042   -4.3054   24.7224 C   0  0  0  0  0  0
  -21.8813   -3.8146   23.4345 C   0  0  0  0  0  0
  -21.9181   -4.6961   22.3400 C   0  0  0  0  0  0
  -22.7788  -13.5217   21.1872 C   0  0  0  0  0  0
  -22.1649   -4.2148   21.0976 F   0  0  0  0  0  0
  -21.5639   -3.4536   25.7737 F   0  0  0  0  0  0
  -29.9669  -13.5684   20.3582 N   0  0  0  0  0  0
  -26.2895  -12.9437   20.3320 N   0  0  0  0  0  0
  -25.9316  -11.6567   20.5799 N   0  0  0  0  0  0
  -22.0419  -12.8220   22.0436 N   0  0  0  0  0  0
  -25.4072  -15.1928   20.4095 N   0  0  0  0  0  0
  -31.9110  -14.6458   20.2354 O   0  0  0  0  0  0
  -21.6633   -6.8875   21.4242 O   0  0  0  0  0  0
  -22.3480  -14.5526   20.6720 O   0  0  0  0  0  0
  -24.6304  -31.8564   23.2024 C   0  0  0  0  0  0
  -25.9132  -32.4759   23.8370 C   0  0  1  0  0  0
  -27.2079  -27.2751   20.1332 C   0  0  0  0  0  0
  -25.5931  -33.8567   24.2280 N   0  0  0  0  0  0
  -23.4272  -30.4817   21.5448 C   0  0  2  0  0  0
  -24.8747  -28.9354   20.1085 C   0  0  0  0  0  0
  -22.7508  -29.4603   22.4920 C   0  0  0  0  0  0
  -18.0293  -28.1375   22.8482 C   0  0  0  0  0  0
  -24.1487  -36.7283   23.2643 C   0  0  0  0  0  0
  -25.9736  -30.7745   21.3813 C   0  0  0  0  0  0
  -26.0479  -29.4003   20.7194 C   0  0  0  0  0  0
  -27.2237  -28.5826   20.7220 C   0  0  0  0  0  0
  -26.0219  -26.8843   19.4792 C   0  0  0  0  0  0
  -24.8658  -27.6840   19.4758 C   0  0  0  0  0  0
  -23.6457  -29.8206   20.1595 C   0  0  0  0  0  0
  -25.4115  -36.3077   24.0337 C   0  0  1  0  0  0
  -20.5899  -28.3687   23.1265 C   0  0  2  0  0  0
  -20.6774  -26.9405   22.5404 C   0  0  0  0  0  0
  -19.5751  -26.6368   21.5207 C   0  0  0  0  0  0
  -18.1932  -26.7916   22.1621 C   0  0  0  0  0  0
  -19.1548  -28.8851   23.2865 C   0  0  0  0  0  0
  -18.9467  -30.1453   23.8881 C   0  0  0  0  0  0
  -17.6468  -30.6581   24.0556 C   0  0  0  0  0  0
  -25.9064  -34.9444   23.5111 C   0  0  0  0  0  0
  -16.5358  -29.9074   23.6331 C   0  0  0  0  0  0
  -16.7280  -28.6491   23.0354 C   0  0  0  0  0  0
  -26.4499  -31.6577   25.0755 C   0  0  0  0  0  0
  -25.3725  -31.3719   26.1474 C   0  0  0  0  0  0
  -27.0348  -30.2992   24.6245 C   0  0  0  0  0  0
  -27.6058  -32.4311   25.7531 C   0  0  0  0  0  0
  -27.5588  -37.1798   24.8464 C   0  0  0  0  0  0
  -21.4219  -29.3039   22.3661 N   0  0  0  0  0  0
  -26.4285  -37.3780   23.9429 N   0  0  0  0  0  0
  -24.6965  -31.0547   22.0994 N   0  0  0  0  0  0
  -23.4214  -28.8142   23.3010 O   0  0  0  0  0  0
  -28.2480  -26.3252   20.1910 O   0  0  0  0  0  0
  -26.5640  -34.8916   22.4681 O   0  0  0  0  0  0
  -23.5455  -32.1379   23.7323 O   0  0  0  0  0  0
  -28.1323  -21.1983   19.9614 C   0  0  0  0  0  0
  -29.5957  -23.1202   21.3368 C   0  0  0  0  0  0
  -29.2296  -20.7082   20.7256 C   0  0  0  0  0  0
  -27.7565  -22.5874   19.9092 C   0  0  0  0  0  0
  -29.9858  -21.7378   21.3843 C   0  0  0  0  0  0
  -28.4655  -23.6033   20.6282 C   0  0  0  0  0  0
  -28.4651  -18.0639   20.9041 C   0  0  0  0  0  0
  -30.5208  -18.5841   19.7723 C   0  0  0  0  0  0
  -28.9370  -16.5560   21.1698 C   0  0  0  0  0  0
  -31.0788  -17.1508   20.0847 C   0  0  0  0  0  0
  -29.5880  -19.1468   20.8566 C   0  0  0  0  0  0
  -26.5225  -22.9598   19.1073 C   0  0  0  0  0  0
  -30.7987  -21.1369   23.6978 C   0  0  0  0  0  0
  -32.9215  -22.5671   21.0712 C   0  0  0  0  0  0
  -27.8821  -25.0653   20.9146 C   0  0  0  0  0  0
  -31.2065  -21.3927   22.2415 C   0  0  2  0  0  0
  -30.1413  -16.0305   20.4491 N   0  0  0  0  0  0
  -32.1764  -22.4359   22.2756 O   0  0  0  0  0  0
  -31.4504  -12.5496   19.1526 H   0  0  0  0  0  0
  -30.3341  -11.5019   19.9741 H   0  0  0  0  0  0
  -29.7759  -11.7131   17.5250 H   0  0  0  0  0  0
  -29.6200  -13.4451   17.6978 H   0  0  0  0  0  0
  -27.8813  -11.2822   18.9199 H   0  0  0  0  0  0
  -27.3609  -12.5143   17.8016 H   0  0  0  0  0  0
  -27.6147  -14.2521   19.4471 H   0  0  0  0  0  0
  -28.7404  -12.2112   21.4220 H   0  0  0  0  0  0
  -28.4292  -13.8824   21.7875 H   0  0  0  0  0  0
  -25.2751   -9.5673   22.4791 H   0  0  0  0  0  0
  -23.9992   -7.4612   22.7478 H   0  0  0  0  0  0
  -21.0843   -8.8769   19.8956 H   0  0  0  0  0  0
  -22.3703  -10.9672   19.6185 H   0  0  0  0  0  0
  -21.2005   -7.6147   23.9727 H   0  0  0  0  0  0
  -21.1491   -6.0519   25.9086 H   0  0  0  0  0  0
  -22.0599   -2.7607   23.2835 H   0  0  0  0  0  0
  -22.4019  -11.9891   22.4835 H   0  0  0  0  0  0
  -21.1042  -13.1268   22.2630 H   0  0  0  0  0  0
  -24.6321  -15.8375   20.5224 H   0  0  0  0  0  0
  -26.2496  -15.6418   20.0754 H   0  0  0  0  0  0
  -26.7202  -32.5406   23.1122 H   0  0  0  0  0  0
  -25.0059  -33.9707   25.0412 H   0  0  0  0  0  0
  -22.7221  -31.3039   21.4017 H   0  0  0  0  0  0
  -23.3763  -35.9598   23.3278 H   0  0  0  0  0  0
  -24.3589  -36.8928   22.2063 H   0  0  0  0  0  0
  -23.7214  -37.6471   23.6670 H   0  0  0  0  0  0
  -26.1141  -31.5383   20.6155 H   0  0  0  0  0  0
  -26.8504  -30.8185   22.0161 H   0  0  0  0  0  0
  -28.1191  -28.9277   21.2204 H   0  0  0  0  0  0
  -25.9712  -25.9202   18.9956 H   0  0  0  0  0  0
  -23.9704  -27.3209   18.9904 H   0  0  0  0  0  0
  -23.7731  -30.5992   19.4069 H   0  0  0  0  0  0
  -22.7639  -29.2559   19.8519 H   0  0  0  0  0  0
  -25.1291  -36.1928   25.0829 H   0  0  0  0  0  0
  -20.9990  -28.3249   24.1388 H   0  0  0  0  0  0
  -20.5652  -26.2305   23.3613 H   0  0  0  0  0  0
  -21.6642  -26.7411   22.1206 H   0  0  0  0  0  0
  -19.6914  -25.6277   21.1237 H   0  0  0  0  0  0
  -19.6685  -27.3176   20.6734 H   0  0  0  0  0  0
  -17.4203  -26.6667   21.4020 H   0  0  0  0  0  0
  -18.0332  -26.0055   22.9014 H   0  0  0  0  0  0
  -19.7950  -30.7267   24.2232 H   0  0  0  0  0  0
  -17.5029  -31.6265   24.5152 H   0  0  0  0  0  0
  -15.5359  -30.2976   23.7669 H   0  0  0  0  0  0
  -15.8678  -28.0812   22.7071 H   0  0  0  0  0  0
  -24.5908  -30.7062   25.7798 H   0  0  0  0  0  0
  -24.8913  -32.2877   26.4908 H   0  0  0  0  0  0
  -25.8039  -30.8891   27.0249 H   0  0  0  0  0  0
  -26.2944  -29.6740   24.1237 H   0  0  0  0  0  0
  -27.3992  -29.7251   25.4776 H   0  0  0  0  0  0
  -27.8834  -30.4269   23.9523 H   0  0  0  0  0  0
  -27.2671  -33.3613   26.2102 H   0  0  0  0  0  0
  -28.3874  -32.6856   25.0363 H   0  0  0  0  0  0
  -28.0712  -31.8437   26.5456 H   0  0  0  0  0  0
  -28.2567  -38.0133   24.7551 H   0  0  0  0  0  0
  -28.1116  -36.2664   24.6215 H   0  0  0  0  0  0
  -27.2316  -37.1353   25.8867 H   0  0  0  0  0  0
  -20.9404  -29.8789   21.6892 H   0  0  0  0  0  0
  -26.0159  -38.2849   24.1441 H   0  0  0  0  0  0
  -27.5329  -20.4777   19.4225 H   0  0  0  0  0  0
  -30.1551  -23.8332   21.9264 H   0  0  0  0  0  0
  -27.7450  -18.3393   21.6759 H   0  0  0  0  0  0
  -27.9068  -18.0954   19.9673 H   0  0  0  0  0  0
  -30.0059  -18.5779   18.8106 H   0  0  0  0  0  0
  -31.3679  -19.2600   19.6459 H   0  0  0  0  0  0
  -28.0872  -15.9131   20.9605 H   0  0  0  0  0  0
  -29.1401  -16.4409   22.2356 H   0  0  0  0  0  0
  -31.7935  -17.2449   20.9045 H   0  0  0  0  0  0
  -31.6659  -16.8615   19.2109 H   0  0  0  0  0  0
  -30.0952  -19.0339   21.8124 H   0  0  0  0  0  0
  -26.1884  -22.1343   18.4781 H   0  0  0  0  0  0
  -26.7348  -23.8047   18.4529 H   0  0  0  0  0  0
  -25.6994  -23.2282   19.7697 H   0  0  0  0  0  0
  -30.0852  -20.3166   23.7736 H   0  0  0  0  0  0
  -30.3339  -22.0180   24.1418 H   0  0  0  0  0  0
  -31.6646  -20.8754   24.3062 H   0  0  0  0  0  0
  -33.6352  -23.3846   21.1711 H   0  0  0  0  0  0
  -32.2797  -22.7886   20.2175 H   0  0  0  0  0  0
  -33.4863  -21.6593   20.8550 H   0  0  0  0  0  0
  -28.1467  -25.2746   21.9517 H   0  0  0  0  0  0
  -26.8002  -24.9496   20.9664 H   0  0  0  0  0  0
  -31.7011  -20.5017   21.8539 H   0  0  0  0  0  0
  1 25  1  0  0  0
  1 30  2  0  0  0
  1 87  1  0  0  0
  2  3  1  0  0  0
  2 25  1  0  0  0
  2 89  1  0  0  0
  2 90  1  0  0  0
  3  4  1  0  0  0
  3 91  1  0  0  0
  3 92  1  0  0  0
  4  5  1  0  0  0
  4 93  1  0  0  0
  4 94  1  0  0  0
  5  6  1  0  0  0
  5 26  1  0  0  0
  5 95  1  0  0  0
  6 25  1  0  0  0
  6 96  1  0  0  0
  6 97  1  0  0  0
  7  8  2  0  0  0
  7 26  1  0  0  0
  7 29  1  0  0  0
  8  9  1  0  0  0
  8 22  1  0  0  0
  9 10  1  0  0  0
  9 27  2  0  0  0
 10 11  2  0  0  0
 10 15  1  0  0  0
 11 12  1  0  0  0
 11 98  1  0  0  0
 12 13  2  0  0  0
 12 99  1  0  0  0
 13 14  1  0  0  0
 13 31  1  0  0  0
 14 15  2  0  0  0
 14100  1  0  0  0
 15101  1  0  0  0
 16 17  2  0  0  0
 16 21  1  0  0  0
 16 31  1  0  0  0
 17 18  1  0  0  0
 17102  1  0  0  0
 18 19  2  0  0  0
 18103  1  0  0  0
 19 20  1  0  0  0
 19 24  1  0  0  0
 20 21  2  0  0  0
 20104  1  0  0  0
 21 23  1  0  0  0
 22 28  1  0  0  0
 22 32  2  0  0  0
 26 27  1  0  0  0
 28105  1  0  0  0
 28106  1  0  0  0
 29107  1  0  0  0
 29108  1  0  0  0
 33 34  1  0  0  0
 33 66  1  0  0  0
 33 70  2  0  0  0
 34 36  1  0  0  0
 34 59  1  0  0  0
 34109  1  0  0  0
 35 44  2  0  0  0
 35 45  1  0  0  0
 35 68  1  0  0  0
 36 56  1  0  0  0
 36110  1  0  0  0
 37 39  1  0  0  0
 37 47  1  0  0  0
 37 66  1  0  0  0
 37111  1  0  0  0
 38 43  2  0  0  0
 38 46  1  0  0  0
 38 47  1  0  0  0
 39 64  1  0  0  0
 39 67  2  0  0  0
 40 52  1  0  0  0
 40 53  2  0  0  0
 40 58  1  0  0  0
 41112  1  0  0  0
 41113  1  0  0  0
 41114  1  0  0  0
 41 48  1  0  0  0
 42 43  1  0  0  0
 42 66  1  0  0  0
 42115  1  0  0  0
 42116  1  0  0  0
 43 44  1  0  0  0
 44117  1  0  0  0
 45 46  2  0  0  0
 45118  1  0  0  0
 46119  1  0  0  0
 47120  1  0  0  0
 47121  1  0  0  0
 48 56  1  0  0  0
 48 65  1  0  0  0
 48122  1  0  0  0
 49 50  1  0  0  0
 49 53  1  0  0  0
 49 64  1  0  0  0
 49123  1  0  0  0
 50 51  1  0  0  0
 50124  1  0  0  0
 50125  1  0  0  0
 51 52  1  0  0  0
 51126  1  0  0  0
 51127  1  0  0  0
 52128  1  0  0  0
 52129  1  0  0  0
 53 54  1  0  0  0
 54 55  2  0  0  0
 54130  1  0  0  0
 55 57  1  0  0  0
 55131  1  0  0  0
 56 69  2  0  0  0
 57 58  2  0  0  0
 57132  1  0  0  0
 58133  1  0  0  0
 59 60  1  0  0  0
 59 61  1  0  0  0
 59 62  1  0  0  0
 60134  1  0  0  0
 60135  1  0  0  0
 60136  1  0  0  0
 61137  1  0  0  0
 61138  1  0  0  0
 61139  1  0  0  0
 62140  1  0  0  0
 62141  1  0  0  0
 62142  1  0  0  0
 63 65  1  0  0  0
 63143  1  0  0  0
 63144  1  0  0  0
 63145  1  0  0  0
 64146  1  0  0  0
 65147  1  0  0  0
 68 85  1  0  0  0
 71 73  2  0  0  0
 71 74  1  0  0  0
 71148  1  0  0  0
 72 75  2  0  0  0
 72 76  1  0  0  0
 72149  1  0  0  0
 73 75  1  0  0  0
 73 81  1  0  0  0
 74 76  2  0  0  0
 74 82  1  0  0  0
 75 86  1  0  0  0
 76 85  1  0  0  0
 77 79  1  0  0  0
 77 81  1  0  0  0
 77150  1  0  0  0
 77151  1  0  0  0
 78 80  1  0  0  0
 78 81  1  0  0  0
 78152  1  0  0  0
 78153  1  0  0  0
 79 87  1  0  0  0
 79154  1  0  0  0
 79155  1  0  0  0
 80 87  1  0  0  0
 80156  1  0  0  0
 80157  1  0  0  0
 81158  1  0  0  0
 82159  1  0  0  0
 82160  1  0  0  0
 82161  1  0  0  0
 83162  1  0  0  0
 83163  1  0  0  0
 83164  1  0  0  0
 83 86  1  0  0  0
 84 88  1  0  0  0
 84165  1  0  0  0
 84166  1  0  0  0
 84167  1  0  0  0
 85168  1  0  0  0
 85169  1  0  0  0
 86 88  1  0  0  0
 86170  1  0  0  0
M  ISO  4   1 100  68 101  85 101  87 100
M  END
> <chiral flag>
0

> <version>
0

> <s_m_source_file>
/data/baiqing/PycharmProjects/Reinvent-master-3.2/result/LINK_invent/BTK/process_docking_weight1_custom_sum_contain_oxygen_bond_distance_aromatic_linkinvent_7_9_3/rearranged_h_0150.sdf

> <i_m_source_file_index>
33

> <r_mmod_Potential_Energy-OPLS-2005>
440.392883300781

> <r_mmod_Stretch_Energy-OPLS-2005>
119.19881439209

> <r_mmod_Bend_Energy-OPLS-2005>
209.443908691406

> <r_mmod_Torsional_Energy-OPLS-2005>
347.853759765625

> <r_mmod_Improper_Torsional_Energy-OPLS-2005>
14.7498741149902

> <r_mmod_Van_der_Waal_Energy-OPLS-2005>
151.888565063477

> <r_mmod_Electrostatic_Energy-OPLS-2005>
-297.463439941406

> <r_mmod_Solvation_Energy-OPLS-2005>
-198.62712097168

> <b_mmod_Minimization_Converged-OPLS-2005>
0

> <r_mmod_RMS_Derivative-OPLS-2005>
1.29371559619904

$$$$
33
                    3D
 Structure written by MMmdl.
172181  0  0  1  0            999 V2000
  -30.7688  -14.4625   20.5521 C   0  0  0  0  0  0
  -30.3972  -12.3027   19.4170 C   0  0  0  0  0  0
  -29.4791  -12.4808   18.1935 C   0  0  0  0  0  0
  -28.0034  -12.3259   18.6035 C   0  0  0  0  0  0
  -27.6442  -13.1828   19.8436 C   0  0  2  0  0  0
  -28.6952  -13.0561   20.9752 C   0  0  0  0  0  0
  -25.2597  -13.8095   20.5612 C   0  0  0  0  0  0
  -24.1829  -13.0399   20.9187 C   0  0  0  0  0  0
  -24.6356  -11.6879   20.8771 C   0  0  0  0  0  0
  -23.9022  -10.4277   21.0439 C   0  0  0  0  0  0
  -24.3598   -9.4204   21.9202 C   0  0  0  0  0  0
  -23.6297   -8.2222   22.0754 C   0  0  0  0  0  0
  -22.4282   -8.0257   21.3546 C   0  0  0  0  0  0
  -21.9902   -9.0236   20.4646 C   0  0  0  0  0  0
  -22.7205  -10.2127   20.3078 C   0  0  0  0  0  0
  -21.6841   -6.0734   22.5298 C   0  0  0  0  0  0
  -21.3984   -6.5654   23.8231 C   0  0  0  0  0  0
  -21.3652   -5.6791   24.9187 C   0  0  0  0  0  0
  -21.6062   -4.3064   24.7237 C   0  0  0  0  0  0
  -21.8836   -3.8156   23.4361 C   0  0  0  0  0  0
  -21.9189   -4.6969   22.3421 C   0  0  0  0  0  0
  -22.7885  -13.5262   21.1861 C   0  0  0  0  0  0
  -22.1663   -4.2165   21.0997 F   0  0  0  0  0  0
  -21.5657   -3.4553   25.7747 F   0  0  0  0  0  0
  -30.0268  -13.3245   20.4116 N   0  0  0  0  0  0
  -26.2951  -12.9188   20.3232 N   0  0  0  0  0  0
  -25.9275  -11.6399   20.5752 N   0  0  0  0  0  0
  -22.0465  -12.8281   22.0405 N   0  0  0  0  0  0
  -25.4370  -15.1780   20.4006 N   0  0  0  0  0  0
  -31.8952  -14.5624   20.0603 O   0  0  0  0  0  0
  -21.6651   -6.8866   21.4242 O   0  0  0  0  0  0
  -22.3613  -14.5590   20.6719 O   0  0  0  0  0  0
  -24.6272  -31.8562   23.1994 C   0  0  0  0  0  0
  -25.9106  -32.4774   23.8327 C   0  0  1  0  0  0
  -27.2403  -27.3770   19.9994 C   0  0  0  0  0  0
  -25.5895  -33.8570   24.2263 N   0  0  0  0  0  0
  -23.4201  -30.4754   21.5492 C   0  0  2  0  0  0
  -24.8573  -28.9256   20.1152 C   0  0  0  0  0  0
  -22.7481  -29.4591   22.5020 C   0  0  0  0  0  0
  -18.0273  -28.1393   22.8479 C   0  0  0  0  0  0
  -24.1473  -36.7312   23.2634 C   0  0  0  0  0  0
  -25.9551  -30.7906   21.3584 C   0  0  0  0  0  0
  -26.0275  -29.4164   20.7061 C   0  0  0  0  0  0
  -27.2202  -28.6413   20.6566 C   0  0  0  0  0  0
  -26.0377  -26.9120   19.4240 C   0  0  0  0  0  0
  -24.8561  -27.6732   19.4827 C   0  0  0  0  0  0
  -23.6241  -29.7992   20.1697 C   0  0  0  0  0  0
  -25.4090  -36.3089   24.0338 C   0  0  1  0  0  0
  -20.5871  -28.3672   23.1323 C   0  0  2  0  0  0
  -20.6762  -26.9392   22.5448 C   0  0  0  0  0  0
  -19.5753  -26.6381   21.5230 C   0  0  0  0  0  0
  -18.1918  -26.7946   22.1603 C   0  0  0  0  0  0
  -19.1527  -28.8851   23.2898 C   0  0  0  0  0  0
  -18.9450  -30.1452   23.8916 C   0  0  0  0  0  0
  -17.6448  -30.6584   24.0564 C   0  0  0  0  0  0
  -25.9035  -34.9460   23.5114 C   0  0  0  0  0  0
  -16.5334  -29.9091   23.6323 C   0  0  0  0  0  0
  -16.7257  -28.6518   23.0329 C   0  0  0  0  0  0
  -26.4505  -31.6570   25.0680 C   0  0  0  0  0  0
  -25.3787  -31.3691   26.1446 C   0  0  0  0  0  0
  -27.0295  -30.3007   24.6049 C   0  0  0  0  0  0
  -27.6085  -32.4298   25.7418 C   0  0  0  0  0  0
  -27.5594  -37.1770   24.8441 C   0  0  0  0  0  0
  -21.4195  -29.3013   22.3731 N   0  0  0  0  0  0
  -26.4264  -37.3800   23.9450 N   0  0  0  0  0  0
  -24.6889  -31.0560   22.0948 N   0  0  0  0  0  0
  -23.4200  -28.8143   23.3118 O   0  0  0  0  0  0
  -28.4129  -26.6255   19.9243 O   0  0  0  0  0  0
  -26.5625  -34.8937   22.4695 O   0  0  0  0  0  0
  -23.5438  -32.1350   23.7327 O   0  0  0  0  0  0
  -29.2232  -21.8858   18.5773 C   0  0  0  0  0  0
  -29.7994  -20.6899   19.0722 C   0  0  0  0  0  0
  -29.1305  -23.0519   19.3820 C   0  0  0  0  0  0
  -29.8073  -23.0234   20.6255 C   0  0  0  0  0  0
  -30.2082  -20.5905   20.4232 C   0  0  0  0  0  0
  -30.2476  -21.7886   21.1757 C   0  0  0  0  0  0
  -31.8906  -17.4112   21.3379 C   0  0  0  0  0  0
  -29.9338  -17.4107   19.6904 C   0  0  0  0  0  0
  -31.1031  -16.3202   22.1250 C   0  0  0  0  0  0
  -29.2583  -16.4161   20.6528 C   0  0  0  0  0  0
  -31.0404  -18.2708   20.3579 C   0  0  0  0  0  0
  -29.7175  -21.3957   23.4118 C   0  0  0  0  0  0
  -29.5870  -25.8269   23.0267 C   0  0  0  0  0  0
  -28.1528  -24.1965   18.9800 C   0  0  0  0  0  0
  -30.1321  -24.3067   21.3582 C   0  0  0  0  0  0
  -28.6089  -25.6912   18.8135 C   0  0  0  0  0  0
  -30.2454  -15.5040   21.2509 N   0  0  0  0  0  0
  -30.5463  -19.4077   21.0764 O   0  0  0  0  0  0
  -30.7164  -21.7580   22.4643 O   0  0  0  0  0  0
  -29.1670  -24.6660   22.3275 O   0  0  0  0  0  0
  -31.4422  -12.3605   19.1094 H   0  0  0  0  0  0
  -30.2737  -11.3078   19.8462 H   0  0  0  0  0  0
  -29.7304  -11.7460   17.4279 H   0  0  0  0  0  0
  -29.6416  -13.4567   17.7361 H   0  0  0  0  0  0
  -27.8146  -11.2699   18.8002 H   0  0  0  0  0  0
  -27.3519  -12.5885   17.7693 H   0  0  0  0  0  0
  -27.6337  -14.1938   19.4613 H   0  0  0  0  0  0
  -28.6792  -12.0521   21.4032 H   0  0  0  0  0  0
  -28.4530  -13.7328   21.7941 H   0  0  0  0  0  0
  -25.2730   -9.5733   22.4770 H   0  0  0  0  0  0
  -24.0050   -7.4634   22.7478 H   0  0  0  0  0  0
  -21.0829   -8.8743   19.8952 H   0  0  0  0  0  0
  -22.3643  -10.9680   19.6218 H   0  0  0  0  0  0
  -21.1934   -7.6141   23.9755 H   0  0  0  0  0  0
  -21.1459   -6.0502   25.9102 H   0  0  0  0  0  0
  -22.0611   -2.7605   23.2864 H   0  0  0  0  0  0
  -22.4011  -11.9941   22.4824 H   0  0  0  0  0  0
  -21.1104  -13.1367   22.2583 H   0  0  0  0  0  0
  -24.6790  -15.8401   20.5250 H   0  0  0  0  0  0
  -26.2974  -15.6102   20.0900 H   0  0  0  0  0  0
  -26.7161  -32.5448   23.1059 H   0  0  0  0  0  0
  -25.0021  -33.9708   25.0399 H   0  0  0  0  0  0
  -22.7193  -31.2986   21.4008 H   0  0  0  0  0  0
  -23.3756  -35.9615   23.3220 H   0  0  0  0  0  0
  -24.3599  -36.9016   22.2068 H   0  0  0  0  0  0
  -23.7174  -37.6475   23.6700 H   0  0  0  0  0  0
  -26.0621  -31.5458   20.5786 H   0  0  0  0  0  0
  -26.8498  -30.8592   21.9659 H   0  0  0  0  0  0
  -28.1376  -29.0137   21.0900 H   0  0  0  0  0  0
  -25.9896  -25.9671   18.9018 H   0  0  0  0  0  0
  -23.9551  -27.2950   19.0199 H   0  0  0  0  0  0
  -23.7310  -30.5639   19.4000 H   0  0  0  0  0  0
  -22.7468  -29.2149   19.8836 H   0  0  0  0  0  0
  -25.1254  -36.1940   25.0829 H   0  0  0  0  0  0
  -20.9945  -28.3219   24.1446 H   0  0  0  0  0  0
  -20.5630  -26.2279   23.3648 H   0  0  0  0  0  0
  -21.6633  -26.7418   22.1244 H   0  0  0  0  0  0
  -19.6909  -25.6288   21.1259 H   0  0  0  0  0  0
  -19.6724  -27.3201   20.6778 H   0  0  0  0  0  0
  -17.4216  -26.6727   21.3972 H   0  0  0  0  0  0
  -18.0267  -26.0069   22.8973 H   0  0  0  0  0  0
  -19.7928  -30.7266   24.2296 H   0  0  0  0  0  0
  -17.5000  -31.6267   24.5157 H   0  0  0  0  0  0
  -15.5340  -30.3001   23.7640 H   0  0  0  0  0  0
  -15.8652  -28.0852   22.7022 H   0  0  0  0  0  0
  -24.5954  -30.7028   25.7806 H   0  0  0  0  0  0
  -24.8990  -32.2841   26.4937 H   0  0  0  0  0  0
  -25.8173  -30.8844   27.0182 H   0  0  0  0  0  0
  -26.2766  -29.6753   24.1221 H   0  0  0  0  0  0
  -27.4179  -29.7269   25.4475 H   0  0  0  0  0  0
  -27.8578  -30.4309   23.9079 H   0  0  0  0  0  0
  -27.2716  -33.3613   26.1987 H   0  0  0  0  0  0
  -28.3882  -32.6835   25.0220 H   0  0  0  0  0  0
  -28.0757  -31.8423   26.5336 H   0  0  0  0  0  0
  -28.2539  -38.0142   24.7614 H   0  0  0  0  0  0
  -28.1168  -36.2698   24.6075 H   0  0  0  0  0  0
  -27.2368  -37.1178   25.8851 H   0  0  0  0  0  0
  -20.9401  -29.8726   21.6911 H   0  0  0  0  0  0
  -26.0151  -38.2853   24.1572 H   0  0  0  0  0  0
  -28.8037  -21.8668   17.5795 H   0  0  0  0  0  0
  -29.8327  -19.8348   18.4144 H   0  0  0  0  0  0
  -32.6842  -16.9235   20.7716 H   0  0  0  0  0  0
  -32.4165  -18.0577   22.0434 H   0  0  0  0  0  0
  -29.1609  -18.0240   19.2394 H   0  0  0  0  0  0
  -30.3797  -16.8550   18.8647 H   0  0  0  0  0  0
  -30.4830  -16.7789   22.8963 H   0  0  0  0  0  0
  -31.7993  -15.6706   22.6613 H   0  0  0  0  0  0
  -28.4929  -15.8875   20.1077 H   0  0  0  0  0  0
  -28.7274  -16.9613   21.4349 H   0  0  0  0  0  0
  -31.7134  -18.6502   19.5865 H   0  0  0  0  0  0
  -29.9924  -21.7715   24.3970 H   0  0  0  0  0  0
  -29.6199  -20.3111   23.4828 H   0  0  0  0  0  0
  -28.7385  -21.8151   23.1635 H   0  0  0  0  0  0
  -28.8601  -26.0841   23.7953 H   0  0  0  0  0  0
  -29.6928  -26.6812   22.3534 H   0  0  0  0  0  0
  -30.5491  -25.6544   23.5148 H   0  0  0  0  0  0
  -27.3285  -24.1660   19.6921 H   0  0  0  0  0  0
  -27.6961  -23.8917   18.0340 H   0  0  0  0  0  0
  -30.2860  -25.1063   20.6388 H   0  0  0  0  0  0
  -31.1117  -24.1832   21.8205 H   0  0  0  0  0  0
  -28.0792  -26.0930   17.9477 H   0  0  0  0  0  0
  -29.6514  -25.7106   18.4953 H   0  0  0  0  0  0
  1 25  1  0  0  0
  1 30  2  0  0  0
  1 87  1  0  0  0
  2  3  1  0  0  0
  2 25  1  0  0  0
  2 91  1  0  0  0
  2 92  1  0  0  0
  3  4  1  0  0  0
  3 93  1  0  0  0
  3 94  1  0  0  0
  4  5  1  0  0  0
  4 95  1  0  0  0
  4 96  1  0  0  0
  5  6  1  0  0  0
  5 26  1  0  0  0
  5 97  1  0  0  0
  6 25  1  0  0  0
  6 98  1  0  0  0
  6 99  1  0  0  0
  7  8  2  0  0  0
  7 26  1  0  0  0
  7 29  1  0  0  0
  8  9  1  0  0  0
  8 22  1  0  0  0
  9 10  1  0  0  0
  9 27  2  0  0  0
 10 11  2  0  0  0
 10 15  1  0  0  0
 11 12  1  0  0  0
 11100  1  0  0  0
 12 13  2  0  0  0
 12101  1  0  0  0
 13 14  1  0  0  0
 13 31  1  0  0  0
 14 15  2  0  0  0
 14102  1  0  0  0
 15103  1  0  0  0
 16 17  2  0  0  0
 16 21  1  0  0  0
 16 31  1  0  0  0
 17 18  1  0  0  0
 17104  1  0  0  0
 18 19  2  0  0  0
 18105  1  0  0  0
 19 20  1  0  0  0
 19 24  1  0  0  0
 20 21  2  0  0  0
 20106  1  0  0  0
 21 23  1  0  0  0
 22 28  1  0  0  0
 22 32  2  0  0  0
 26 27  1  0  0  0
 28107  1  0  0  0
 28108  1  0  0  0
 29109  1  0  0  0
 29110  1  0  0  0
 33 34  1  0  0  0
 33 66  1  0  0  0
 33 70  2  0  0  0
 34 36  1  0  0  0
 34 59  1  0  0  0
 34111  1  0  0  0
 35 44  2  0  0  0
 35 45  1  0  0  0
 35 68  1  0  0  0
 36 56  1  0  0  0
 36112  1  0  0  0
 37 39  1  0  0  0
 37 47  1  0  0  0
 37 66  1  0  0  0
 37113  1  0  0  0
 38 43  2  0  0  0
 38 46  1  0  0  0
 38 47  1  0  0  0
 39 64  1  0  0  0
 39 67  2  0  0  0
 40 52  1  0  0  0
 40 53  2  0  0  0
 40 58  1  0  0  0
 41114  1  0  0  0
 41115  1  0  0  0
 41116  1  0  0  0
 41 48  1  0  0  0
 42 43  1  0  0  0
 42 66  1  0  0  0
 42117  1  0  0  0
 42118  1  0  0  0
 43 44  1  0  0  0
 44119  1  0  0  0
 45 46  2  0  0  0
 45120  1  0  0  0
 46121  1  0  0  0
 47122  1  0  0  0
 47123  1  0  0  0
 48 56  1  0  0  0
 48 65  1  0  0  0
 48124  1  0  0  0
 49 50  1  0  0  0
 49 53  1  0  0  0
 49 64  1  0  0  0
 49125  1  0  0  0
 50 51  1  0  0  0
 50126  1  0  0  0
 50127  1  0  0  0
 51 52  1  0  0  0
 51128  1  0  0  0
 51129  1  0  0  0
 52130  1  0  0  0
 52131  1  0  0  0
 53 54  1  0  0  0
 54 55  2  0  0  0
 54132  1  0  0  0
 55 57  1  0  0  0
 55133  1  0  0  0
 56 69  2  0  0  0
 57 58  2  0  0  0
 57134  1  0  0  0
 58135  1  0  0  0
 59 60  1  0  0  0
 59 61  1  0  0  0
 59 62  1  0  0  0
 60136  1  0  0  0
 60137  1  0  0  0
 60138  1  0  0  0
 61139  1  0  0  0
 61140  1  0  0  0
 61141  1  0  0  0
 62142  1  0  0  0
 62143  1  0  0  0
 62144  1  0  0  0
 63 65  1  0  0  0
 63145  1  0  0  0
 63146  1  0  0  0
 63147  1  0  0  0
 64148  1  0  0  0
 65149  1  0  0  0
 68 86  1  0  0  0
 71 72  2  0  0  0
 71 73  1  0  0  0
 71150  1  0  0  0
 72 75  1  0  0  0
 72151  1  0  0  0
 73 74  2  0  0  0
 73 84  1  0  0  0
 74 76  1  0  0  0
 74 85  1  0  0  0
 75 76  2  0  0  0
 75 88  1  0  0  0
 76 89  1  0  0  0
 77 79  1  0  0  0
 77 81  1  0  0  0
 77152  1  0  0  0
 77153  1  0  0  0
 78 80  1  0  0  0
 78 81  1  0  0  0
 78154  1  0  0  0
 78155  1  0  0  0
 79 87  1  0  0  0
 79156  1  0  0  0
 79157  1  0  0  0
 80 87  1  0  0  0
 80158  1  0  0  0
 80159  1  0  0  0
 81 88  1  0  0  0
 81160  1  0  0  0
 82 89  1  0  0  0
 82161  1  0  0  0
 82162  1  0  0  0
 82163  1  0  0  0
 83 90  1  0  0  0
 83164  1  0  0  0
 83165  1  0  0  0
 83166  1  0  0  0
 84 86  1  0  0  0
 84167  1  0  0  0
 84168  1  0  0  0
 85 90  1  0  0  0
 85169  1  0  0  0
 85170  1  0  0  0
 86171  1  0  0  0
 86172  1  0  0  0
M  ISO  4   1 100  68 101  86 101  87 100
M  END
> <chiral flag>
0

> <version>
0

> <s_m_source_file>
/data/baiqing/PycharmProjects/Reinvent-master-3.2/result/LINK_invent/BTK/process_docking_weight1_custom_sum_contain_oxygen_bond_distance_aromatic_linkinvent_7_9_3/rearranged_h_0150.sdf

> <i_m_source_file_index>
34

> <r_mmod_Potential_Energy-OPLS-2005>
323.463989257812

> <r_mmod_Stretch_Energy-OPLS-2005>
54.5122756958008

> <r_mmod_Bend_Energy-OPLS-2005>
147.687255859375

> <r_mmod_Torsional_Energy-OPLS-2005>
393.371673583984

> <r_mmod_Improper_Torsional_Energy-OPLS-2005>
6.25253629684448

> <r_mmod_Van_der_Waal_Energy-OPLS-2005>
159.648330688477

> <r_mmod_Electrostatic_Energy-OPLS-2005>
-249.015853881836

> <r_mmod_Solvation_Energy-OPLS-2005>
-215.131530761719

> <b_mmod_Minimization_Converged-OPLS-2005>
0

> <r_mmod_RMS_Derivative-OPLS-2005>
4.90595579147339

$$$$
34
                    3D
 Structure written by MMmdl.
181191  0  0  1  0            999 V2000
  -30.6345  -14.7559   20.4718 C   0  0  0  0  0  0
  -30.4087  -12.4550   19.4928 C   0  0  0  0  0  0
  -29.5048  -12.4934   18.2417 C   0  0  0  0  0  0
  -28.0267  -12.3370   18.6492 C   0  0  0  0  0  0
  -27.6325  -13.2424   19.8481 C   0  0  2  0  0  0
  -28.6701  -13.1993   20.9868 C   0  0  0  0  0  0
  -25.2471  -13.8204   20.5757 C   0  0  0  0  0  0
  -24.1781  -13.0475   20.9200 C   0  0  0  0  0  0
  -24.6361  -11.6925   20.8746 C   0  0  0  0  0  0
  -23.9057  -10.4303   21.0388 C   0  0  0  0  0  0
  -24.3598   -9.4218   21.9180 C   0  0  0  0  0  0
  -23.6280   -8.2253   22.0761 C   0  0  0  0  0  0
  -22.4273   -8.0270   21.3543 C   0  0  0  0  0  0
  -21.9898   -9.0242   20.4654 C   0  0  0  0  0  0
  -22.7216  -10.2126   20.3056 C   0  0  0  0  0  0
  -21.6855   -6.0737   22.5284 C   0  0  0  0  0  0
  -21.4021   -6.5638   23.8215 C   0  0  0  0  0  0
  -21.3666   -5.6787   24.9178 C   0  0  0  0  0  0
  -21.6037   -4.3050   24.7223 C   0  0  0  0  0  0
  -21.8815   -3.8143   23.4347 C   0  0  0  0  0  0
  -21.9194   -4.6968   22.3401 C   0  0  0  0  0  0
  -22.7790  -13.5213   21.1854 C   0  0  0  0  0  0
  -22.1658   -4.2143   21.0984 F   0  0  0  0  0  0
  -21.5632   -3.4542   25.7741 F   0  0  0  0  0  0
  -29.9618  -13.5510   20.3913 N   0  0  0  0  0  0
  -26.2894  -12.9451   20.3293 N   0  0  0  0  0  0
  -25.9290  -11.6577   20.5741 N   0  0  0  0  0  0
  -22.0439  -12.8229   22.0420 N   0  0  0  0  0  0
  -25.4208  -15.1949   20.4213 N   0  0  0  0  0  0
  -31.8453  -14.7457   20.2159 O   0  0  0  0  0  0
  -21.6651   -6.8873   21.4237 O   0  0  0  0  0  0
  -22.3472  -14.5537   20.6704 O   0  0  0  0  0  0
  -24.6351  -31.8502   23.1915 C   0  0  0  0  0  0
  -25.9143  -32.4727   23.8273 C   0  0  1  0  0  0
  -27.2201  -27.2173   20.1252 C   0  0  0  0  0  0
  -25.5916  -33.8516   24.2206 N   0  0  0  0  0  0
  -23.4337  -30.4702   21.5395 C   0  0  2  0  0  0
  -24.8819  -28.9110   20.1101 C   0  0  0  0  0  0
  -22.7508  -29.4566   22.4921 C   0  0  0  0  0  0
  -18.0268  -28.1395   22.8464 C   0  0  0  0  0  0
  -24.1503  -36.7281   23.2630 C   0  0  0  0  0  0
  -25.9841  -30.7495   21.3784 C   0  0  0  0  0  0
  -26.0576  -29.3670   20.7214 C   0  0  0  0  0  0
  -27.2326  -28.5357   20.7091 C   0  0  0  0  0  0
  -26.0159  -26.8396   19.4916 C   0  0  0  0  0  0
  -24.8702  -27.6606   19.4787 C   0  0  0  0  0  0
  -23.6533  -29.8001   20.1584 C   0  0  0  0  0  0
  -25.4132  -36.3040   24.0300 C   0  0  1  0  0  0
  -20.5867  -28.3703   23.1274 C   0  0  2  0  0  0
  -20.6788  -26.9429   22.5404 C   0  0  0  0  0  0
  -19.5767  -26.6394   21.5207 C   0  0  0  0  0  0
  -18.1936  -26.7930   22.1620 C   0  0  0  0  0  0
  -19.1514  -28.8872   23.2856 C   0  0  0  0  0  0
  -18.9455  -30.1468   23.8870 C   0  0  0  0  0  0
  -17.6459  -30.6598   24.0557 C   0  0  0  0  0  0
  -25.9062  -34.9406   23.5059 C   0  0  0  0  0  0
  -16.5347  -29.9097   23.6334 C   0  0  0  0  0  0
  -16.7259  -28.6521   23.0348 C   0  0  0  0  0  0
  -26.4528  -31.6558   25.0666 C   0  0  0  0  0  0
  -25.3762  -31.3695   26.1398 C   0  0  0  0  0  0
  -27.0393  -30.2967   24.6187 C   0  0  0  0  0  0
  -27.6030  -32.4346   25.7475 C   0  0  0  0  0  0
  -27.5574  -37.1791   24.8455 C   0  0  0  0  0  0
  -21.4213  -29.3025   22.3658 N   0  0  0  0  0  0
  -26.4298  -37.3754   23.9381 N   0  0  0  0  0  0
  -24.7034  -31.0425   22.0932 N   0  0  0  0  0  0
  -23.4168  -28.8061   23.3038 O   0  0  0  0  0  0
  -28.3052  -26.2929   20.1263 O   0  0  0  0  0  0
  -26.5649  -34.8893   22.4636 O   0  0  0  0  0  0
  -23.5499  -32.1319   23.7216 O   0  0  0  0  0  0
  -31.9650  -22.4532   25.1401 C   0  0  0  0  0  0
  -33.1174  -21.8967   24.3544 C   0  0  0  0  0  0
  -29.5882  -18.2788   21.5989 C   0  0  0  0  0  0
  -29.6613  -18.3618   19.1473 C   0  0  0  0  0  0
  -29.1470  -16.7417   21.3518 C   0  0  0  0  0  0
  -30.4787  -17.0049   19.3749 C   0  0  0  0  0  0
  -29.7731  -22.7073   23.0385 C   0  0  0  0  0  0
  -31.5035  -21.1014   22.0380 C   0  0  0  0  0  0
  -28.6406  -21.9587   22.2964 C   0  0  2  0  0  0
  -32.1368  -22.8546   23.6874 C   0  0  0  0  0  0
  -29.2489  -19.2562   20.3836 C   0  0  0  0  0  0
  -31.0993  -21.1335   20.5533 C   0  0  1  0  0  0
  -28.7373  -21.9775   20.7518 C   0  0  1  0  0  0
  -27.2738  -22.4560   22.8016 C   0  0  0  0  0  0
  -32.1231  -20.4479   19.6358 C   0  0  0  0  0  0
  -28.9916  -23.5311   20.1704 C   0  0  0  0  0  0
  -28.0564  -24.8424   20.5286 C   0  0  0  0  0  0
  -29.9451  -15.9831   20.3308 N   0  0  0  0  0  0
  -31.1664  -22.3689   22.7018 N   0  0  0  0  0  0
  -29.6651  -20.7929   20.2966 N   0  3  2  0  0  0
  -31.4571  -12.5476   19.2026 H   0  0  0  0  0  0
  -30.3240  -11.4852   19.9872 H   0  0  0  0  0  0
  -29.7766  -11.6976   17.5467 H   0  0  0  0  0  0
  -29.6481  -13.4341   17.7065 H   0  0  0  0  0  0
  -27.8673  -11.2917   18.9156 H   0  0  0  0  0  0
  -27.3752  -12.5299   17.7959 H   0  0  0  0  0  0
  -27.6207  -14.2630   19.4625 H   0  0  0  0  0  0
  -28.7053  -12.2120   21.4503 H   0  0  0  0  0  0
  -28.4011  -13.9041   21.7746 H   0  0  0  0  0  0
  -25.2735   -9.5718   22.4768 H   0  0  0  0  0  0
  -23.9999   -7.4647   22.7492 H   0  0  0  0  0  0
  -21.0827   -8.8740   19.8956 H   0  0  0  0  0  0
  -22.3641  -10.9666   19.6173 H   0  0  0  0  0  0
  -21.2011   -7.6145   23.9711 H   0  0  0  0  0  0
  -21.1502   -6.0530   25.9080 H   0  0  0  0  0  0
  -22.0586   -2.7605   23.2850 H   0  0  0  0  0  0
  -22.4040  -11.9870   22.4816 H   0  0  0  0  0  0
  -21.1049  -13.1273   22.2642 H   0  0  0  0  0  0
  -24.6615  -15.8561   20.5521 H   0  0  0  0  0  0
  -26.2818  -15.6296   20.1164 H   0  0  0  0  0  0
  -26.7171  -32.5365   23.0982 H   0  0  0  0  0  0
  -25.0065  -33.9657   25.0351 H   0  0  0  0  0  0
  -22.7304  -31.2912   21.3884 H   0  0  0  0  0  0
  -23.3765  -35.9616   23.3301 H   0  0  0  0  0  0
  -24.3590  -36.8931   22.2044 H   0  0  0  0  0  0
  -23.7284  -37.6476   23.6703 H   0  0  0  0  0  0
  -26.1167  -31.5087   20.6064 H   0  0  0  0  0  0
  -26.8637  -30.8037   22.0091 H   0  0  0  0  0  0
  -28.1397  -28.8856   21.1813 H   0  0  0  0  0  0
  -25.9383  -25.8845   18.9932 H   0  0  0  0  0  0
  -23.9732  -27.3147   18.9789 H   0  0  0  0  0  0
  -23.7674  -30.5695   19.3942 H   0  0  0  0  0  0
  -22.7784  -29.2226   19.8609 H   0  0  0  0  0  0
  -25.1342  -36.1861   25.0804 H   0  0  0  0  0  0
  -20.9928  -28.3288   24.1409 H   0  0  0  0  0  0
  -20.5745  -26.2295   23.3593 H   0  0  0  0  0  0
  -21.6656  -26.7519   22.1153 H   0  0  0  0  0  0
  -19.6953  -25.6300   21.1245 H   0  0  0  0  0  0
  -19.6712  -27.3201   20.6733 H   0  0  0  0  0  0
  -17.4205  -26.6610   21.4033 H   0  0  0  0  0  0
  -18.0379  -26.0089   22.9047 H   0  0  0  0  0  0
  -19.7934  -30.7278   24.2238 H   0  0  0  0  0  0
  -17.5026  -31.6276   24.5156 H   0  0  0  0  0  0
  -15.5351  -30.3016   23.7698 H   0  0  0  0  0  0
  -15.8641  -28.0861   22.7105 H   0  0  0  0  0  0
  -24.5807  -30.7255   25.7656 H   0  0  0  0  0  0
  -24.9147  -32.2898   26.5003 H   0  0  0  0  0  0
  -25.8053  -30.8632   27.0064 H   0  0  0  0  0  0
  -26.2973  -29.6668   24.1288 H   0  0  0  0  0  0
  -27.4144  -29.7277   25.4707 H   0  0  0  0  0  0
  -27.8827  -30.4222   23.9388 H   0  0  0  0  0  0
  -27.2531  -33.3549   26.2193 H   0  0  0  0  0  0
  -28.3783  -32.7120   25.0304 H   0  0  0  0  0  0
  -28.0825  -31.8433   26.5312 H   0  0  0  0  0  0
  -28.2590  -38.0085   24.7502 H   0  0  0  0  0  0
  -28.1072  -36.2615   24.6317 H   0  0  0  0  0  0
  -27.2272  -37.1475   25.8850 H   0  0  0  0  0  0
  -20.9404  -29.8709   21.6818 H   0  0  0  0  0  0
  -26.0163  -38.2810   24.1426 H   0  0  0  0  0  0
  -32.1870  -23.2056   25.8967 H   0  0  0  0  0  0
  -31.1803  -21.7431   25.3908 H   0  0  0  0  0  0
  -33.0707  -20.8256   24.1743 H   0  0  0  0  0  0
  -34.1088  -22.2778   24.5878 H   0  0  0  0  0  0
  -30.6651  -18.2636   21.7827 H   0  0  0  0  0  0
  -29.1300  -18.6223   22.5279 H   0  0  0  0  0  0
  -28.7481  -18.1016   18.6171 H   0  0  0  0  0  0
  -30.2233  -18.9682   18.4432 H   0  0  0  0  0  0
  -28.1152  -16.7429   20.9872 H   0  0  0  0  0  0
  -29.1216  -16.1834   22.2865 H   0  0  0  0  0  0
  -31.4804  -17.2695   19.7240 H   0  0  0  0  0  0
  -30.6210  -16.5058   18.4124 H   0  0  0  0  0  0
  -29.6022  -22.5430   24.0986 H   0  0  0  0  0  0
  -29.6617  -23.7838   22.8861 H   0  0  0  0  0  0
  -32.5921  -21.0137   22.0355 H   0  0  0  0  0  0
  -31.1378  -20.2320   22.5767 H   0  0  0  0  0  0
  -28.6795  -20.9183   22.6070 H   0  0  0  0  0  0
  -32.5256  -23.8620   23.5420 H   0  0  0  0  0  0
  -28.1580  -19.2931   20.3536 H   0  0  0  0  0  0
  -31.2351  -22.1664   20.2501 H   0  0  0  0  0  0
  -27.7609  -21.6762   20.3707 H   0  0  0  0  0  0
  -27.2350  -23.5375   22.8831 H   0  0  0  0  0  0
  -27.0811  -22.0778   23.8075 H   0  0  0  0  0  0
  -26.4497  -22.1320   22.1675 H   0  0  0  0  0  0
  -31.8956  -20.6283   18.5845 H   0  0  0  0  0  0
  -32.2279  -19.3835   19.8192 H   0  0  0  0  0  0
  -33.1122  -20.8709   19.8079 H   0  0  0  0  0  0
  -29.0079  -23.4538   19.0844 H   0  0  0  0  0  0
  -29.9981  -23.8344   20.4499 H   0  0  0  0  0  0
  -28.0823  -24.9298   21.6104 H   0  0  0  0  0  0
  -27.0336  -24.5634   20.2896 H   0  0  0  0  0  0
  -29.5748  -20.9258   19.3006 H   0  0  0  0  0  0
  1 25  1  0  0  0
  1 30  2  0  0  0
  1 88  1  0  0  0
  2  3  1  0  0  0
  2 25  1  0  0  0
  2 91  1  0  0  0
  2 92  1  0  0  0
  3  4  1  0  0  0
  3 93  1  0  0  0
  3 94  1  0  0  0
  4  5  1  0  0  0
  4 95  1  0  0  0
  4 96  1  0  0  0
  5  6  1  0  0  0
  5 26  1  0  0  0
  5 97  1  0  0  0
  6 25  1  0  0  0
  6 98  1  0  0  0
  6 99  1  0  0  0
  7  8  2  0  0  0
  7 26  1  0  0  0
  7 29  1  0  0  0
  8  9  1  0  0  0
  8 22  1  0  0  0
  9 10  1  0  0  0
  9 27  2  0  0  0
 10 11  2  0  0  0
 10 15  1  0  0  0
 11 12  1  0  0  0
 11100  1  0  0  0
 12 13  2  0  0  0
 12101  1  0  0  0
 13 14  1  0  0  0
 13 31  1  0  0  0
 14 15  2  0  0  0
 14102  1  0  0  0
 15103  1  0  0  0
 16 17  2  0  0  0
 16 21  1  0  0  0
 16 31  1  0  0  0
 17 18  1  0  0  0
 17104  1  0  0  0
 18 19  2  0  0  0
 18105  1  0  0  0
 19 20  1  0  0  0
 19 24  1  0  0  0
 20 21  2  0  0  0
 20106  1  0  0  0
 21 23  1  0  0  0
 22 28  1  0  0  0
 22 32  2  0  0  0
 26 27  1  0  0  0
 28107  1  0  0  0
 28108  1  0  0  0
 29109  1  0  0  0
 29110  1  0  0  0
 33 34  1  0  0  0
 33 66  1  0  0  0
 33 70  2  0  0  0
 34 36  1  0  0  0
 34 59  1  0  0  0
 34111  1  0  0  0
 35 44  2  0  0  0
 35 45  1  0  0  0
 35 68  1  0  0  0
 36 56  1  0  0  0
 36112  1  0  0  0
 37 39  1  0  0  0
 37 47  1  0  0  0
 37 66  1  0  0  0
 37113  1  0  0  0
 38 43  2  0  0  0
 38 46  1  0  0  0
 38 47  1  0  0  0
 39 64  1  0  0  0
 39 67  2  0  0  0
 40 52  1  0  0  0
 40 53  2  0  0  0
 40 58  1  0  0  0
 41114  1  0  0  0
 41115  1  0  0  0
 41116  1  0  0  0
 41 48  1  0  0  0
 42 43  1  0  0  0
 42 66  1  0  0  0
 42117  1  0  0  0
 42118  1  0  0  0
 43 44  1  0  0  0
 44119  1  0  0  0
 45 46  2  0  0  0
 45120  1  0  0  0
 46121  1  0  0  0
 47122  1  0  0  0
 47123  1  0  0  0
 48 56  1  0  0  0
 48 65  1  0  0  0
 48124  1  0  0  0
 49 50  1  0  0  0
 49 53  1  0  0  0
 49 64  1  0  0  0
 49125  1  0  0  0
 50 51  1  0  0  0
 50126  1  0  0  0
 50127  1  0  0  0
 51 52  1  0  0  0
 51128  1  0  0  0
 51129  1  0  0  0
 52130  1  0  0  0
 52131  1  0  0  0
 53 54  1  0  0  0
 54 55  2  0  0  0
 54132  1  0  0  0
 55 57  1  0  0  0
 55133  1  0  0  0
 56 69  2  0  0  0
 57 58  2  0  0  0
 57134  1  0  0  0
 58135  1  0  0  0
 59 60  1  0  0  0
 59 61  1  0  0  0
 59 62  1  0  0  0
 60136  1  0  0  0
 60137  1  0  0  0
 60138  1  0  0  0
 61139  1  0  0  0
 61140  1  0  0  0
 61141  1  0  0  0
 62142  1  0  0  0
 62143  1  0  0  0
 62144  1  0  0  0
 63 65  1  0  0  0
 63145  1  0  0  0
 63146  1  0  0  0
 63147  1  0  0  0
 64148  1  0  0  0
 65149  1  0  0  0
 68 87  1  0  0  0
 71 72  1  0  0  0
 71 80  1  0  0  0
 71150  1  0  0  0
 71151  1  0  0  0
 72 80  1  0  0  0
 72152  1  0  0  0
 72153  1  0  0  0
 73 75  1  0  0  0
 73154  1  0  0  0
 73155  1  0  0  0
 73 81  1  0  0  0
 74 76  1  0  0  0
 74 81  1  0  0  0
 74156  1  0  0  0
 74157  1  0  0  0
 75 88  1  0  0  0
 75158  1  0  0  0
 75159  1  0  0  0
 76 88  1  0  0  0
 76160  1  0  0  0
 76161  1  0  0  0
 77 79  1  0  0  0
 77 89  1  0  0  0
 77162  1  0  0  0
 77163  1  0  0  0
 78 82  1  0  0  0
 78 89  1  0  0  0
 78164  1  0  0  0
 78165  1  0  0  0
 79 83  1  0  0  0
 79 84  1  0  0  0
 79166  1  0  0  0
 80167  1  0  0  0
 80 89  1  0  0  0
 81168  1  0  0  0
 81 90  1  0  0  0
 82 85  1  0  0  0
 82 90  1  0  0  0
 82169  1  0  0  0
 83 86  1  0  0  0
 83 90  1  0  0  0
 83170  1  0  0  0
 84171  1  0  0  0
 84172  1  0  0  0
 84173  1  0  0  0
 85174  1  0  0  0
 85175  1  0  0  0
 85176  1  0  0  0
 86 87  1  0  0  0
 86177  1  0  0  0
 86178  1  0  0  0
 87179  1  0  0  0
 87180  1  0  0  0
 90181  1  0  0  0
M  CHG  1  90   1
M  ISO  4   1 100  68 101  87 101  88 100
M  END
> <chiral flag>
0

> <version>
0

> <s_m_source_file>
/data/baiqing/PycharmProjects/Reinvent-master-3.2/result/LINK_invent/BTK/process_docking_weight1_custom_sum_contain_oxygen_bond_distance_aromatic_linkinvent_7_9_3/rearranged_h_0150.sdf

> <i_m_source_file_index>
35

> <r_mmod_Potential_Energy-OPLS-2005>
664.77392578125

> <r_mmod_Stretch_Energy-OPLS-2005>
195.221542358398

> <r_mmod_Bend_Energy-OPLS-2005>
310.363861083984

> <r_mmod_Torsional_Energy-OPLS-2005>
453.424438476562

> <r_mmod_Improper_Torsional_Energy-OPLS-2005>
18.1509609222412

> <r_mmod_Van_der_Waal_Energy-OPLS-2005>
145.183380126953

> <r_mmod_Electrostatic_Energy-OPLS-2005>
-144.239776611328

> <r_mmod_Solvation_Energy-OPLS-2005>
-414.307952880859

> <b_mmod_Minimization_Converged-OPLS-2005>
0

> <r_mmod_RMS_Derivative-OPLS-2005>
8.2216157913208

$$$$
35
                    3D
 Structure written by MMmdl.
184193  0  0  1  0            999 V2000
  -30.7159  -14.4173   20.6266 C   0  0  0  0  0  0
  -30.4286  -12.2921   19.4099 C   0  0  0  0  0  0
  -29.4979  -12.5226   18.2006 C   0  0  0  0  0  0
  -28.0128  -12.4045   18.6046 C   0  0  0  0  0  0
  -27.6633  -13.1877   19.8995 C   0  0  2  0  0  0
  -28.7076  -12.9173   21.0013 C   0  0  0  0  0  0
  -25.2604  -13.8060   20.5786 C   0  0  0  0  0  0
  -24.1816  -13.0350   20.9190 C   0  0  0  0  0  0
  -24.6359  -11.6822   20.8744 C   0  0  0  0  0  0
  -23.9031  -10.4225   21.0433 C   0  0  0  0  0  0
  -24.3593   -9.4155   21.9218 C   0  0  0  0  0  0
  -23.6241   -8.2209   22.0780 C   0  0  0  0  0  0
  -22.4222   -8.0256   21.3574 C   0  0  0  0  0  0
  -21.9872   -9.0227   20.4674 C   0  0  0  0  0  0
  -22.7230  -10.2088   20.3057 C   0  0  0  0  0  0
  -21.6828   -6.0714   22.5278 C   0  0  0  0  0  0
  -21.4009   -6.5621   23.8214 C   0  0  0  0  0  0
  -21.3669   -5.6777   24.9174 C   0  0  0  0  0  0
  -21.6049   -4.3031   24.7232 C   0  0  0  0  0  0
  -21.8806   -3.8126   23.4345 C   0  0  0  0  0  0
  -21.9176   -4.6941   22.3408 C   0  0  0  0  0  0
  -22.7852  -13.5181   21.1827 C   0  0  0  0  0  0
  -22.1658   -4.2140   21.0981 F   0  0  0  0  0  0
  -21.5637   -3.4513   25.7753 F   0  0  0  0  0  0
  -30.0427  -13.2454   20.4590 N   0  0  0  0  0  0
  -26.3022  -12.9187   20.3488 N   0  0  0  0  0  0
  -25.9268  -11.6360   20.5749 N   0  0  0  0  0  0
  -22.0443  -12.8244   22.0381 N   0  0  0  0  0  0
  -25.4342  -15.1801   20.4358 N   0  0  0  0  0  0
  -31.8049  -14.6521   20.0910 O   0  0  0  0  0  0
  -21.6587   -6.8867   21.4247 O   0  0  0  0  0  0
  -22.3601  -14.5530   20.6669 O   0  0  0  0  0  0
  -24.6093  -31.8706   23.2128 C   0  0  0  0  0  0
  -25.9012  -32.4838   23.8407 C   0  0  1  0  0  0
  -27.2516  -27.4871   20.0764 C   0  0  0  0  0  0
  -25.5885  -33.8635   24.2340 N   0  0  0  0  0  0
  -23.3956  -30.4918   21.5520 C   0  0  2  0  0  0
  -24.8452  -28.9566   20.1233 C   0  0  0  0  0  0
  -22.7380  -29.4673   22.5021 C   0  0  0  0  0  0
  -18.0263  -28.1369   22.8492 C   0  0  0  0  0  0
  -24.1488  -36.7329   23.2638 C   0  0  0  0  0  0
  -25.9187  -30.8501   21.3583 C   0  0  0  0  0  0
  -26.0010  -29.4852   20.7122 C   0  0  0  0  0  0
  -27.2065  -28.7565   20.6928 C   0  0  0  0  0  0
  -26.0769  -26.9480   19.5168 C   0  0  0  0  0  0
  -24.8739  -27.6812   19.5294 C   0  0  0  0  0  0
  -23.6039  -29.8173   20.1686 C   0  0  0  0  0  0
  -25.4106  -36.3121   24.0337 C   0  0  1  0  0  0
  -20.5847  -28.3650   23.1336 C   0  0  2  0  0  0
  -20.6758  -26.9395   22.5421 C   0  0  0  0  0  0
  -19.5740  -26.6385   21.5212 C   0  0  0  0  0  0
  -18.1914  -26.7918   22.1621 C   0  0  0  0  0  0
  -19.1512  -28.8827   23.2912 C   0  0  0  0  0  0
  -18.9443  -30.1432   23.8915 C   0  0  0  0  0  0
  -17.6449  -30.6582   24.0565 C   0  0  0  0  0  0
  -25.9026  -34.9488   23.5136 C   0  0  0  0  0  0
  -16.5338  -29.9087   23.6321 C   0  0  0  0  0  0
  -16.7259  -28.6502   23.0345 C   0  0  0  0  0  0
  -26.4462  -31.6602   25.0716 C   0  0  0  0  0  0
  -25.3751  -31.3702   26.1483 C   0  0  0  0  0  0
  -27.0272  -30.3047   24.6055 C   0  0  0  0  0  0
  -27.6045  -32.4310   25.7471 C   0  0  0  0  0  0
  -27.5579  -37.1820   24.8464 C   0  0  0  0  0  0
  -21.4116  -29.3024   22.3755 N   0  0  0  0  0  0
  -26.4296  -37.3798   23.9404 N   0  0  0  0  0  0
  -24.6591  -31.0844   22.0999 N   0  0  0  0  0  0
  -23.4168  -28.8218   23.3056 O   0  0  0  0  0  0
  -28.4094  -26.7558   19.9835 O   0  0  0  0  0  0
  -26.5584  -34.8928   22.4695 O   0  0  0  0  0  0
  -23.5300  -32.1441   23.7548 O   0  0  0  0  0  0
  -30.9237  -23.1312   14.9651 C   0  0  0  0  0  0
  -31.4300  -25.1282   16.2780 C   0  0  0  0  0  0
  -29.1528  -24.2706   16.1883 C   0  0  0  0  0  0
  -31.8514  -24.0924   15.4178 C   0  0  0  0  0  0
  -29.5732  -23.2054   15.3619 C   0  0  0  0  0  0
  -30.0731  -25.2245   16.6637 C   0  0  0  0  0  0
  -30.4687  -17.8698   20.7026 C   0  0  0  0  0  0
  -29.4205  -16.5021   18.9268 C   0  0  0  0  0  0
  -29.8382  -19.1355   20.0775 C   0  0  0  0  0  0
  -28.7577  -17.7548   18.3354 C   0  0  0  0  0  0
  -29.5638  -16.6437   20.4628 C   0  0  1  0  0  0
  -33.3022  -24.0175   14.9843 C   0  0  0  0  0  0
  -26.6597  -20.9606   15.5690 C   0  0  0  0  0  0
  -29.8811  -15.4988   22.6435 C   0  0  0  0  0  0
  -28.9323  -20.3317   16.5426 C   0  0  0  0  0  0
  -28.8793  -20.2070   18.0819 C   0  0  0  0  0  0
  -29.5451  -27.4801   19.5113 C   0  0  0  0  0  0
  -30.3802  -26.5643   18.6064 C   0  0  0  0  0  0
  -28.0308  -21.4771   16.0290 C   0  0  1  0  0  0
  -28.6748  -22.2129   14.9440 N   0  0  0  0  0  0
  -29.9885  -15.4157   21.1809 N   0  0  0  0  0  0
  -29.5380  -18.9884   18.6230 N   0  3  1  0  0  0
  -29.5900  -26.2260   17.4707 O   0  0  0  0  0  0
  -31.4732  -12.3992   19.1118 H   0  0  0  0  0  0
  -30.3315  -11.2733   19.7864 H   0  0  0  0  0  0
  -29.7177  -11.7973   17.4170 H   0  0  0  0  0  0
  -29.6939  -13.5026   17.7644 H   0  0  0  0  0  0
  -27.7946  -11.3455   18.7417 H   0  0  0  0  0  0
  -27.3760  -12.7405   17.7865 H   0  0  0  0  0  0
  -27.7034  -14.2459   19.6717 H   0  0  0  0  0  0
  -28.6810  -11.8681   21.2987 H   0  0  0  0  0  0
  -28.4495  -13.4733   21.8995 H   0  0  0  0  0  0
  -25.2758   -9.5598   22.4771 H   0  0  0  0  0  0
  -23.9931   -7.4590   22.7490 H   0  0  0  0  0  0
  -21.0797   -8.8764   19.8987 H   0  0  0  0  0  0
  -22.3733  -10.9609   19.6124 H   0  0  0  0  0  0
  -21.2015   -7.6133   23.9726 H   0  0  0  0  0  0
  -21.1521   -6.0510   25.9091 H   0  0  0  0  0  0
  -22.0576   -2.7579   23.2840 H   0  0  0  0  0  0
  -22.3965  -11.9899   22.4841 H   0  0  0  0  0  0
  -21.1072  -13.1366   22.2528 H   0  0  0  0  0  0
  -24.6843  -15.8342   20.6258 H   0  0  0  0  0  0
  -26.3164  -15.6292   20.2322 H   0  0  0  0  0  0
  -26.7087  -32.5572   23.1180 H   0  0  0  0  0  0
  -25.0047  -33.9803   25.0490 H   0  0  0  0  0  0
  -22.6824  -31.3063   21.4114 H   0  0  0  0  0  0
  -23.3734  -35.9679   23.3326 H   0  0  0  0  0  0
  -24.3580  -36.8914   22.2045 H   0  0  0  0  0  0
  -23.7262  -37.6554   23.6629 H   0  0  0  0  0  0
  -26.0207  -31.6145   20.5865 H   0  0  0  0  0  0
  -26.8096  -30.9096   21.9709 H   0  0  0  0  0  0
  -28.0976  -29.1731   21.1417 H   0  0  0  0  0  0
  -26.1037  -25.9735   19.0494 H   0  0  0  0  0  0
  -23.9839  -27.2621   19.0804 H   0  0  0  0  0  0
  -23.7079  -30.5881   19.4044 H   0  0  0  0  0  0
  -22.7297  -29.2309   19.8774 H   0  0  0  0  0  0
  -25.1282  -36.1993   25.0831 H   0  0  0  0  0  0
  -20.9935  -28.3210   24.1458 H   0  0  0  0  0  0
  -20.5666  -26.2253   23.3600 H   0  0  0  0  0  0
  -21.6632  -26.7450   22.1214 H   0  0  0  0  0  0
  -19.6906  -25.6303   21.1225 H   0  0  0  0  0  0
  -19.6683  -27.3209   20.6752 H   0  0  0  0  0  0
  -17.4191  -26.6666   21.4021 H   0  0  0  0  0  0
  -18.0321  -26.0055   22.9012 H   0  0  0  0  0  0
  -19.7920  -30.7239   24.2297 H   0  0  0  0  0  0
  -17.5009  -31.6266   24.5163 H   0  0  0  0  0  0
  -15.5342  -30.2998   23.7635 H   0  0  0  0  0  0
  -15.8654  -28.0832   22.7048 H   0  0  0  0  0  0
  -24.5902  -30.7069   25.7835 H   0  0  0  0  0  0
  -24.8971  -32.2859   26.4972 H   0  0  0  0  0  0
  -25.8127  -30.8846   27.0213 H   0  0  0  0  0  0
  -26.2791  -29.6824   24.1126 H   0  0  0  0  0  0
  -27.4069  -29.7264   25.4489 H   0  0  0  0  0  0
  -27.8618  -30.4367   23.9164 H   0  0  0  0  0  0
  -27.2667  -33.3593   26.2089 H   0  0  0  0  0  0
  -28.3835  -32.6897   25.0288 H   0  0  0  0  0  0
  -28.0734  -31.8410   26.5355 H   0  0  0  0  0  0
  -28.2618  -38.0096   24.7486 H   0  0  0  0  0  0
  -28.1052  -36.2629   24.6318 H   0  0  0  0  0  0
  -27.2296  -37.1514   25.8867 H   0  0  0  0  0  0
  -20.9269  -29.8740   21.6973 H   0  0  0  0  0  0
  -26.0191  -38.2882   24.1385 H   0  0  0  0  0  0
  -31.2557  -22.3278   14.3225 H   0  0  0  0  0  0
  -32.1520  -25.8587   16.6146 H   0  0  0  0  0  0
  -28.1156  -24.3563   16.4803 H   0  0  0  0  0  0
  -30.6086  -18.0548   21.7681 H   0  0  0  0  0  0
  -31.4651  -17.7010   20.2929 H   0  0  0  0  0  0
  -30.3925  -16.3467   18.4553 H   0  0  0  0  0  0
  -28.8147  -15.6474   18.6418 H   0  0  0  0  0  0
  -30.5032  -19.9863   20.2355 H   0  0  0  0  0  0
  -28.9155  -19.3751   20.6070 H   0  0  0  0  0  0
  -27.7466  -17.8614   18.7349 H   0  0  0  0  0  0
  -28.6484  -17.6073   17.2616 H   0  0  0  0  0  0
  -28.5716  -16.8730   20.8575 H   0  0  0  0  0  0
  -33.4494  -23.2713   14.2032 H   0  0  0  0  0  0
  -33.9401  -23.7553   15.8283 H   0  0  0  0  0  0
  -33.6320  -24.9798   14.5923 H   0  0  0  0  0  0
  -26.1550  -20.4129   16.3663 H   0  0  0  0  0  0
  -26.7435  -20.2876   14.7138 H   0  0  0  0  0  0
  -26.0060  -21.7835   15.2783 H   0  0  0  0  0  0
  -28.8729  -15.7831   22.9467 H   0  0  0  0  0  0
  -30.5749  -16.2325   23.0528 H   0  0  0  0  0  0
  -30.1058  -14.5487   23.1316 H   0  0  0  0  0  0
  -28.6347  -19.4090   16.0468 H   0  0  0  0  0  0
  -29.9736  -20.4863   16.2533 H   0  0  0  0  0  0
  -27.8486  -20.2466   18.4360 H   0  0  0  0  0  0
  -29.3688  -21.0907   18.4944 H   0  0  0  0  0  0
  -29.2627  -28.3692   18.9436 H   0  0  0  0  0  0
  -30.1405  -27.8139   20.3613 H   0  0  0  0  0  0
  -30.6773  -25.6654   19.1496 H   0  0  0  0  0  0
  -31.2878  -27.0860   18.3007 H   0  0  0  0  0  0
  -27.8447  -22.1569   16.8604 H   0  0  0  0  0  0
  -29.0325  -21.6134   14.2055 H   0  0  0  0  0  0
  -30.4279  -18.9019   18.1552 H   0  0  0  0  0  0
  1 25  1  0  0  0
  1 30  2  0  0  0
  1 91  1  0  0  0
  2  3  1  0  0  0
  2 25  1  0  0  0
  2 94  1  0  0  0
  2 95  1  0  0  0
  3  4  1  0  0  0
  3 96  1  0  0  0
  3 97  1  0  0  0
  4  5  1  0  0  0
  4 98  1  0  0  0
  4 99  1  0  0  0
  5  6  1  0  0  0
  5 26  1  0  0  0
  5100  1  0  0  0
  6 25  1  0  0  0
  6101  1  0  0  0
  6102  1  0  0  0
  7  8  2  0  0  0
  7 26  1  0  0  0
  7 29  1  0  0  0
  8  9  1  0  0  0
  8 22  1  0  0  0
  9 10  1  0  0  0
  9 27  2  0  0  0
 10 11  2  0  0  0
 10 15  1  0  0  0
 11 12  1  0  0  0
 11103  1  0  0  0
 12 13  2  0  0  0
 12104  1  0  0  0
 13 14  1  0  0  0
 13 31  1  0  0  0
 14 15  2  0  0  0
 14105  1  0  0  0
 15106  1  0  0  0
 16 17  2  0  0  0
 16 21  1  0  0  0
 16 31  1  0  0  0
 17 18  1  0  0  0
 17107  1  0  0  0
 18 19  2  0  0  0
 18108  1  0  0  0
 19 20  1  0  0  0
 19 24  1  0  0  0
 20 21  2  0  0  0
 20109  1  0  0  0
 21 23  1  0  0  0
 22 28  1  0  0  0
 22 32  2  0  0  0
 26 27  1  0  0  0
 28110  1  0  0  0
 28111  1  0  0  0
 29112  1  0  0  0
 29113  1  0  0  0
 33 34  1  0  0  0
 33 66  1  0  0  0
 33 70  2  0  0  0
 34 36  1  0  0  0
 34 59  1  0  0  0
 34114  1  0  0  0
 35 44  2  0  0  0
 35 45  1  0  0  0
 35 68  1  0  0  0
 36 56  1  0  0  0
 36115  1  0  0  0
 37 39  1  0  0  0
 37 47  1  0  0  0
 37 66  1  0  0  0
 37116  1  0  0  0
 38 43  2  0  0  0
 38 46  1  0  0  0
 38 47  1  0  0  0
 39 64  1  0  0  0
 39 67  2  0  0  0
 40 52  1  0  0  0
 40 53  2  0  0  0
 40 58  1  0  0  0
 41117  1  0  0  0
 41118  1  0  0  0
 41119  1  0  0  0
 41 48  1  0  0  0
 42 43  1  0  0  0
 42 66  1  0  0  0
 42120  1  0  0  0
 42121  1  0  0  0
 43 44  1  0  0  0
 44122  1  0  0  0
 45 46  2  0  0  0
 45123  1  0  0  0
 46124  1  0  0  0
 47125  1  0  0  0
 47126  1  0  0  0
 48 56  1  0  0  0
 48 65  1  0  0  0
 48127  1  0  0  0
 49 50  1  0  0  0
 49 53  1  0  0  0
 49 64  1  0  0  0
 49128  1  0  0  0
 50 51  1  0  0  0
 50129  1  0  0  0
 50130  1  0  0  0
 51 52  1  0  0  0
 51131  1  0  0  0
 51132  1  0  0  0
 52133  1  0  0  0
 52134  1  0  0  0
 53 54  1  0  0  0
 54 55  2  0  0  0
 54135  1  0  0  0
 55 57  1  0  0  0
 55136  1  0  0  0
 56 69  2  0  0  0
 57 58  2  0  0  0
 57137  1  0  0  0
 58138  1  0  0  0
 59 60  1  0  0  0
 59 61  1  0  0  0
 59 62  1  0  0  0
 60139  1  0  0  0
 60140  1  0  0  0
 60141  1  0  0  0
 61142  1  0  0  0
 61143  1  0  0  0
 61144  1  0  0  0
 62145  1  0  0  0
 62146  1  0  0  0
 62147  1  0  0  0
 63 65  1  0  0  0
 63148  1  0  0  0
 63149  1  0  0  0
 63150  1  0  0  0
 64151  1  0  0  0
 65152  1  0  0  0
 68 87  1  0  0  0
 71 74  2  0  0  0
 71 75  1  0  0  0
 71153  1  0  0  0
 72 74  1  0  0  0
 72 76  2  0  0  0
 72154  1  0  0  0
 73 75  2  0  0  0
 73 76  1  0  0  0
 73155  1  0  0  0
 74 82  1  0  0  0
 75 90  1  0  0  0
 76 93  1  0  0  0
 77 79  1  0  0  0
 77 81  1  0  0  0
 77156  1  0  0  0
 77157  1  0  0  0
 78 80  1  0  0  0
 78 81  1  0  0  0
 78158  1  0  0  0
 78159  1  0  0  0
 79 92  1  0  0  0
 79160  1  0  0  0
 79161  1  0  0  0
 80 92  1  0  0  0
 80162  1  0  0  0
 80163  1  0  0  0
 81 91  1  0  0  0
 81164  1  0  0  0
 82165  1  0  0  0
 82166  1  0  0  0
 82167  1  0  0  0
 83168  1  0  0  0
 83169  1  0  0  0
 83170  1  0  0  0
 83 89  1  0  0  0
 84 91  1  0  0  0
 84171  1  0  0  0
 84172  1  0  0  0
 84173  1  0  0  0
 85 86  1  0  0  0
 85 89  1  0  0  0
 85174  1  0  0  0
 85175  1  0  0  0
 86176  1  0  0  0
 86177  1  0  0  0
 86 92  1  0  0  0
 87 88  1  0  0  0
 87178  1  0  0  0
 87179  1  0  0  0
 88 93  1  0  0  0
 88180  1  0  0  0
 88181  1  0  0  0
 89 90  1  0  0  0
 89182  1  0  0  0
 90183  1  0  0  0
 92184  1  0  0  0
M  CHG  1  92   1
M  ISO  4   1 100  68 101  87 101  91 100
M  END
> <chiral flag>
0

> <version>
0

> <s_m_source_file>
/data/baiqing/PycharmProjects/Reinvent-master-3.2/result/LINK_invent/BTK/process_docking_weight1_custom_sum_contain_oxygen_bond_distance_aromatic_linkinvent_7_9_3/rearranged_h_0150.sdf

> <i_m_source_file_index>
36

> <r_mmod_Potential_Energy-OPLS-2005>
106.677772521973

> <r_mmod_Stretch_Energy-OPLS-2005>
37.8981590270996

> <r_mmod_Bend_Energy-OPLS-2005>
106.890228271484

> <r_mmod_Torsional_Energy-OPLS-2005>
360.301513671875

> <r_mmod_Improper_Torsional_Energy-OPLS-2005>
11.6430692672729

> <r_mmod_Van_der_Waal_Energy-OPLS-2005>
161.858291625977

> <r_mmod_Electrostatic_Energy-OPLS-2005>
-141.192657470703

> <r_mmod_Solvation_Energy-OPLS-2005>
-438.113708496094

> <b_mmod_Minimization_Converged-OPLS-2005>
0

> <r_mmod_RMS_Derivative-OPLS-2005>
3.15136408805847

$$$$
36
                    3D
 Structure written by MMmdl.
163172  0  0  1  0            999 V2000
  -30.6896  -14.4533   20.5764 C   0  0  0  0  0  0
  -30.4226  -12.2894   19.4249 C   0  0  0  0  0  0
  -29.4951  -12.4969   18.2081 C   0  0  0  0  0  0
  -28.0141  -12.3659   18.6173 C   0  0  0  0  0  0
  -27.6639  -13.2015   19.8772 C   0  0  2  0  0  0
  -28.7007  -12.9629   20.9982 C   0  0  0  0  0  0
  -25.2600  -13.8162   20.5668 C   0  0  0  0  0  0
  -24.1841  -13.0450   20.9173 C   0  0  0  0  0  0
  -24.6381  -11.6910   20.8721 C   0  0  0  0  0  0
  -23.9048  -10.4292   21.0402 C   0  0  0  0  0  0
  -24.3605   -9.4212   21.9182 C   0  0  0  0  0  0
  -23.6286   -8.2242   22.0747 C   0  0  0  0  0  0
  -22.4272   -8.0276   21.3540 C   0  0  0  0  0  0
  -21.9903   -9.0248   20.4643 C   0  0  0  0  0  0
  -22.7219  -10.2134   20.3052 C   0  0  0  0  0  0
  -21.6858   -6.0731   22.5278 C   0  0  0  0  0  0
  -21.4008   -6.5639   23.8210 C   0  0  0  0  0  0
  -21.3659   -5.6790   24.9172 C   0  0  0  0  0  0
  -21.6046   -4.3053   24.7227 C   0  0  0  0  0  0
  -21.8823   -3.8149   23.4345 C   0  0  0  0  0  0
  -21.9191   -4.6958   22.3398 C   0  0  0  0  0  0
  -22.7861  -13.5243   21.1843 C   0  0  0  0  0  0
  -22.1665   -4.2142   21.0979 F   0  0  0  0  0  0
  -21.5630   -3.4538   25.7742 F   0  0  0  0  0  0
  -30.0394  -13.2630   20.4600 N   0  0  0  0  0  0
  -26.3023  -12.9317   20.3357 N   0  0  0  0  0  0
  -25.9306  -11.6483   20.5758 N   0  0  0  0  0  0
  -22.0509  -12.8226   22.0406 N   0  0  0  0  0  0
  -25.4368  -15.1874   20.4084 N   0  0  0  0  0  0
  -31.7987  -14.6585   20.0697 O   0  0  0  0  0  0
  -21.6645   -6.8871   21.4235 O   0  0  0  0  0  0
  -22.3545  -14.5559   20.6710 O   0  0  0  0  0  0
  -24.6126  -31.8682   23.2101 C   0  0  0  0  0  0
  -25.9014  -32.4833   23.8405 C   0  0  1  0  0  0
  -27.2190  -27.4257   20.1075 C   0  0  0  0  0  0
  -25.5878  -33.8624   24.2335 N   0  0  0  0  0  0
  -23.4025  -30.4938   21.5486 C   0  0  2  0  0  0
  -24.8510  -28.9648   20.1072 C   0  0  0  0  0  0
  -22.7408  -29.4655   22.4948 C   0  0  0  0  0  0
  -18.0282  -28.1374   22.8508 C   0  0  0  0  0  0
  -24.1485  -36.7304   23.2638 C   0  0  0  0  0  0
  -25.9326  -30.8350   21.3644 C   0  0  0  0  0  0
  -26.0112  -29.4703   20.7083 C   0  0  0  0  0  0
  -27.2056  -28.7091   20.7041 C   0  0  0  0  0  0
  -26.0492  -26.9470   19.4822 C   0  0  0  0  0  0
  -24.8647  -27.7050   19.4863 C   0  0  0  0  0  0
  -23.6133  -29.8314   20.1610 C   0  0  0  0  0  0
  -25.4110  -36.3112   24.0345 C   0  0  1  0  0  0
  -20.5872  -28.3652   23.1313 C   0  0  2  0  0  0
  -20.6767  -26.9389   22.5415 C   0  0  0  0  0  0
  -19.5750  -26.6385   21.5209 C   0  0  0  0  0  0
  -18.1926  -26.7927   22.1623 C   0  0  0  0  0  0
  -19.1530  -28.8833   23.2912 C   0  0  0  0  0  0
  -18.9464  -30.1445   23.8914 C   0  0  0  0  0  0
  -17.6467  -30.6592   24.0580 C   0  0  0  0  0  0
  -25.9028  -34.9488   23.5145 C   0  0  0  0  0  0
  -16.5356  -29.9098   23.6344 C   0  0  0  0  0  0
  -16.7264  -28.6514   23.0355 C   0  0  0  0  0  0
  -26.4448  -31.6604   25.0724 C   0  0  0  0  0  0
  -25.3721  -31.3740   26.1482 C   0  0  0  0  0  0
  -27.0266  -30.3053   24.6081 C   0  0  0  0  0  0
  -27.6036  -32.4308   25.7474 C   0  0  0  0  0  0
  -27.5589  -37.1804   24.8466 C   0  0  0  0  0  0
  -21.4137  -29.3031   22.3715 N   0  0  0  0  0  0
  -26.4297  -37.3796   23.9425 N   0  0  0  0  0  0
  -24.6674  -31.0786   22.1005 N   0  0  0  0  0  0
  -23.4183  -28.8182   23.2976 O   0  0  0  0  0  0
  -28.3213  -26.6019   20.1711 O   0  0  0  0  0  0
  -26.5590  -34.8933   22.4699 O   0  0  0  0  0  0
  -23.5319  -32.1422   23.7501 O   0  0  0  0  0  0
  -29.2879  -17.6234   21.8505 C   0  0  0  0  0  0
  -29.8979  -18.5369   19.3433 C   0  0  0  0  0  0
  -29.0387  -18.9808   21.5479 C   0  0  0  0  0  0
  -29.3498  -19.4576   20.2562 C   0  0  0  0  0  0
  -29.8591  -16.7711   20.8805 C   0  0  0  0  0  0
  -28.3905  -19.9072   22.5725 C   0  0  2  0  0  0
  -28.0055  -21.2934   21.9744 C   0  0  1  0  0  0
  -29.0818  -21.6959   20.9169 C   0  0  2  0  0  0
  -29.2412  -20.0362   23.8479 C   0  0  0  0  0  0
  -26.5821  -21.2306   21.3642 C   0  0  0  0  0  0
  -29.1017  -24.3142   20.9643 C   0  0  0  0  0  0
  -28.1033  -25.4951   21.0778 C   0  0  0  0  0  0
  -30.1526  -17.2435   19.6450 N   0  0  0  0  0  0
  -30.0175  -15.4063   21.2478 N   0  0  0  0  0  0
  -28.5363  -23.0905   20.3233 N   0  3  0  0  0  0
  -29.1131  -20.7644   19.8737 O   0  0  0  0  0  0
  -31.4686  -12.3835   19.1263 H   0  0  0  0  0  0
  -30.3188  -11.2753   19.8141 H   0  0  0  0  0  0
  -29.7296  -11.7694   17.4294 H   0  0  0  0  0  0
  -29.6712  -13.4805   17.7701 H   0  0  0  0  0  0
  -27.8159  -11.3104   18.8087 H   0  0  0  0  0  0
  -27.3670  -12.6477   17.7859 H   0  0  0  0  0  0
  -27.7155  -14.2513   19.5865 H   0  0  0  0  0  0
  -28.6680  -11.9231   21.3264 H   0  0  0  0  0  0
  -28.4531  -13.5471   21.8845 H   0  0  0  0  0  0
  -25.2748   -9.5698   22.4748 H   0  0  0  0  0  0
  -24.0007   -7.4636   22.7464 H   0  0  0  0  0  0
  -21.0838   -8.8758   19.8948 H   0  0  0  0  0  0
  -22.3676  -10.9666   19.6158 H   0  0  0  0  0  0
  -21.2001   -7.6145   23.9706 H   0  0  0  0  0  0
  -21.1477   -6.0525   25.9075 H   0  0  0  0  0  0
  -22.0602   -2.7607   23.2849 H   0  0  0  0  0  0
  -22.4121  -11.9873   22.4768 H   0  0  0  0  0  0
  -21.1126  -13.1233   22.2621 H   0  0  0  0  0  0
  -24.6762  -15.8498   20.5177 H   0  0  0  0  0  0
  -26.2967  -15.6205   20.0961 H   0  0  0  0  0  0
  -26.7072  -32.5552   23.1163 H   0  0  0  0  0  0
  -25.0052  -33.9793   25.0501 H   0  0  0  0  0  0
  -22.6942  -31.3128   21.4117 H   0  0  0  0  0  0
  -23.3753  -35.9622   23.3297 H   0  0  0  0  0  0
  -24.3595  -36.8911   22.2051 H   0  0  0  0  0  0
  -23.7216  -37.6506   23.6642 H   0  0  0  0  0  0
  -26.0470  -31.6038   20.5987 H   0  0  0  0  0  0
  -26.8199  -30.8873   21.9833 H   0  0  0  0  0  0
  -28.0971  -29.0885   21.1864 H   0  0  0  0  0  0
  -26.0483  -25.9746   19.0110 H   0  0  0  0  0  0
  -23.9734  -27.3151   19.0132 H   0  0  0  0  0  0
  -23.7192  -30.6098   19.4042 H   0  0  0  0  0  0
  -22.7385  -29.2488   19.8650 H   0  0  0  0  0  0
  -25.1287  -36.1984   25.0836 H   0  0  0  0  0  0
  -20.9978  -28.3209   24.1426 H   0  0  0  0  0  0
  -20.5663  -26.2256   23.3603 H   0  0  0  0  0  0
  -21.6638  -26.7438   22.1206 H   0  0  0  0  0  0
  -19.6917  -25.6299   21.1225 H   0  0  0  0  0  0
  -19.6697  -27.3209   20.6751 H   0  0  0  0  0  0
  -17.4202  -26.6685   21.4017 H   0  0  0  0  0  0
  -18.0339  -26.0079   22.9034 H   0  0  0  0  0  0
  -19.7941  -30.7272   24.2265 H   0  0  0  0  0  0
  -17.5028  -31.6276   24.5174 H   0  0  0  0  0  0
  -15.5355  -30.3015   23.7653 H   0  0  0  0  0  0
  -15.8670  -28.0854   22.7031 H   0  0  0  0  0  0
  -24.5864  -30.7119   25.7837 H   0  0  0  0  0  0
  -24.8952  -32.2912   26.4952 H   0  0  0  0  0  0
  -25.8069  -30.8898   27.0238 H   0  0  0  0  0  0
  -26.2812  -29.6833   24.1111 H   0  0  0  0  0  0
  -27.4032  -29.7269   25.4531 H   0  0  0  0  0  0
  -27.8643  -30.4398   23.9230 H   0  0  0  0  0  0
  -27.2676  -33.3613   26.2068 H   0  0  0  0  0  0
  -28.3821  -32.6856   25.0270 H   0  0  0  0  0  0
  -28.0712  -31.8415   26.5380 H   0  0  0  0  0  0
  -28.2590  -38.0119   24.7546 H   0  0  0  0  0  0
  -28.1100  -36.2659   24.6241 H   0  0  0  0  0  0
  -27.2324  -37.1379   25.8870 H   0  0  0  0  0  0
  -20.9264  -29.8771   21.6979 H   0  0  0  0  0  0
  -26.0190  -38.2867   24.1455 H   0  0  0  0  0  0
  -29.0290  -17.2361   22.8267 H   0  0  0  0  0  0
  -30.1448  -18.8492   18.3402 H   0  0  0  0  0  0
  -27.4720  -19.4073   22.8850 H   0  0  0  0  0  0
  -27.9964  -22.0441   22.7663 H   0  0  0  0  0  0
  -30.0814  -21.8193   21.3394 H   0  0  0  0  0  0
  -30.2224  -20.4587   23.6318 H   0  0  0  0  0  0
  -29.3946  -19.0648   24.3194 H   0  0  0  0  0  0
  -28.7537  -20.6738   24.5862 H   0  0  0  0  0  0
  -26.5272  -20.5258   20.5320 H   0  0  0  0  0  0
  -26.2156  -22.1942   21.0131 H   0  0  0  0  0  0
  -25.8623  -20.8931   22.1113 H   0  0  0  0  0  0
  -29.3990  -24.0430   21.9782 H   0  0  0  0  0  0
  -30.0146  -24.6174   20.4522 H   0  0  0  0  0  0
  -28.1919  -25.9092   22.0836 H   0  0  0  0  0  0
  -27.0840  -25.1070   21.0299 H   0  0  0  0  0  0
  -29.3091  -15.0559   21.8718 H   0  0  0  0  0  0
  -27.5313  -23.0925   20.3885 H   0  0  0  0  0  0
  -28.7596  -23.1419   19.3415 H   0  0  0  0  0  0
  1 25  1  0  0  0
  1 30  2  0  0  0
  1 84  1  0  0  0
  2  3  1  0  0  0
  2 25  1  0  0  0
  2 87  1  0  0  0
  2 88  1  0  0  0
  3  4  1  0  0  0
  3 89  1  0  0  0
  3 90  1  0  0  0
  4  5  1  0  0  0
  4 91  1  0  0  0
  4 92  1  0  0  0
  5  6  1  0  0  0
  5 26  1  0  0  0
  5 93  1  0  0  0
  6 25  1  0  0  0
  6 94  1  0  0  0
  6 95  1  0  0  0
  7  8  2  0  0  0
  7 26  1  0  0  0
  7 29  1  0  0  0
  8  9  1  0  0  0
  8 22  1  0  0  0
  9 10  1  0  0  0
  9 27  2  0  0  0
 10 11  2  0  0  0
 10 15  1  0  0  0
 11 12  1  0  0  0
 11 96  1  0  0  0
 12 13  2  0  0  0
 12 97  1  0  0  0
 13 14  1  0  0  0
 13 31  1  0  0  0
 14 15  2  0  0  0
 14 98  1  0  0  0
 15 99  1  0  0  0
 16 17  2  0  0  0
 16 21  1  0  0  0
 16 31  1  0  0  0
 17 18  1  0  0  0
 17100  1  0  0  0
 18 19  2  0  0  0
 18101  1  0  0  0
 19 20  1  0  0  0
 19 24  1  0  0  0
 20 21  2  0  0  0
 20102  1  0  0  0
 21 23  1  0  0  0
 22 28  1  0  0  0
 22 32  2  0  0  0
 26 27  1  0  0  0
 28103  1  0  0  0
 28104  1  0  0  0
 29105  1  0  0  0
 29106  1  0  0  0
 33 34  1  0  0  0
 33 66  1  0  0  0
 33 70  2  0  0  0
 34 36  1  0  0  0
 34 59  1  0  0  0
 34107  1  0  0  0
 35 44  2  0  0  0
 35 45  1  0  0  0
 35 68  1  0  0  0
 36 56  1  0  0  0
 36108  1  0  0  0
 37 39  1  0  0  0
 37 47  1  0  0  0
 37 66  1  0  0  0
 37109  1  0  0  0
 38 43  2  0  0  0
 38 46  1  0  0  0
 38 47  1  0  0  0
 39 64  1  0  0  0
 39 67  2  0  0  0
 40 52  1  0  0  0
 40 53  2  0  0  0
 40 58  1  0  0  0
 41110  1  0  0  0
 41111  1  0  0  0
 41112  1  0  0  0
 41 48  1  0  0  0
 42 43  1  0  0  0
 42 66  1  0  0  0
 42113  1  0  0  0
 42114  1  0  0  0
 43 44  1  0  0  0
 44115  1  0  0  0
 45 46  2  0  0  0
 45116  1  0  0  0
 46117  1  0  0  0
 47118  1  0  0  0
 47119  1  0  0  0
 48 56  1  0  0  0
 48 65  1  0  0  0
 48120  1  0  0  0
 49 50  1  0  0  0
 49 53  1  0  0  0
 49 64  1  0  0  0
 49121  1  0  0  0
 50 51  1  0  0  0
 50122  1  0  0  0
 50123  1  0  0  0
 51 52  1  0  0  0
 51124  1  0  0  0
 51125  1  0  0  0
 52126  1  0  0  0
 52127  1  0  0  0
 53 54  1  0  0  0
 54 55  2  0  0  0
 54128  1  0  0  0
 55 57  1  0  0  0
 55129  1  0  0  0
 56 69  2  0  0  0
 57 58  2  0  0  0
 57130  1  0  0  0
 58131  1  0  0  0
 59 60  1  0  0  0
 59 61  1  0  0  0
 59 62  1  0  0  0
 60132  1  0  0  0
 60133  1  0  0  0
 60134  1  0  0  0
 61135  1  0  0  0
 61136  1  0  0  0
 61137  1  0  0  0
 62138  1  0  0  0
 62139  1  0  0  0
 62140  1  0  0  0
 63 65  1  0  0  0
 63141  1  0  0  0
 63142  1  0  0  0
 63143  1  0  0  0
 64144  1  0  0  0
 65145  1  0  0  0
 68 82  1  0  0  0
 71 73  2  0  0  0
 71 75  1  0  0  0
 71146  1  0  0  0
 72 74  2  0  0  0
 72 83  1  0  0  0
 72147  1  0  0  0
 73 74  1  0  0  0
 73 76  1  0  0  0
 74 86  1  0  0  0
 75 83  2  0  0  0
 75 84  1  0  0  0
 76 77  1  0  0  0
 76 79  1  0  0  0
 76148  1  0  0  0
 77 78  1  0  0  0
 77 80  1  0  0  0
 77149  1  0  0  0
 78 85  1  0  0  0
 78 86  1  0  0  0
 78150  1  0  0  0
 79151  1  0  0  0
 79152  1  0  0  0
 79153  1  0  0  0
 80154  1  0  0  0
 80155  1  0  0  0
 80156  1  0  0  0
 81 82  1  0  0  0
 81 85  1  0  0  0
 81157  1  0  0  0
 81158  1  0  0  0
 82159  1  0  0  0
 82160  1  0  0  0
 84161  1  0  0  0
 85162  1  0  0  0
 85163  1  0  0  0
M  CHG  1  85   1
M  ISO  4   1 100  68 101  82 101  84 100
M  END
> <chiral flag>
0

> <version>
0

> <s_m_source_file>
/data/baiqing/PycharmProjects/Reinvent-master-3.2/result/LINK_invent/BTK/process_docking_weight1_custom_sum_contain_oxygen_bond_distance_aromatic_linkinvent_7_9_3/rearranged_h_0150.sdf

> <i_m_source_file_index>
37

> <r_mmod_Potential_Energy-OPLS-2005>
-279.430084228516

> <r_mmod_Stretch_Energy-OPLS-2005>
40.7924041748047

> <r_mmod_Bend_Energy-OPLS-2005>
103.085510253906

> <r_mmod_Torsional_Energy-OPLS-2005>
295.223571777344

> <r_mmod_Improper_Torsional_Energy-OPLS-2005>
3.85155534744263

> <r_mmod_Van_der_Waal_Energy-OPLS-2005>
163.465225219727

> <r_mmod_Electrostatic_Energy-OPLS-2005>
-424.232727050781

> <r_mmod_Solvation_Energy-OPLS-2005>
-477.267333984375

> <b_mmod_Minimization_Converged-OPLS-2005>
0

> <r_mmod_RMS_Derivative-OPLS-2005>
2.25688362121582

$$$$
37
                    3D
 Structure written by MMmdl.
171181  0  0  1  0            999 V2000
  -30.6794  -14.6351   20.4815 C   0  0  0  0  0  0
  -30.4146  -12.3892   19.4517 C   0  0  0  0  0  0
  -29.4922  -12.4892   18.2187 C   0  0  0  0  0  0
  -28.0185  -12.3281   18.6363 C   0  0  0  0  0  0
  -27.6391  -13.2164   19.8512 C   0  0  2  0  0  0
  -28.6891  -13.1369   20.9815 C   0  0  0  0  0  0
  -25.2524  -13.8172   20.5707 C   0  0  0  0  0  0
  -24.1792  -13.0428   20.9203 C   0  0  0  0  0  0
  -24.6361  -11.6900   20.8744 C   0  0  0  0  0  0
  -23.9035  -10.4283   21.0405 C   0  0  0  0  0  0
  -24.3600   -9.4196   21.9174 C   0  0  0  0  0  0
  -23.6285   -8.2228   22.0736 C   0  0  0  0  0  0
  -22.4266   -8.0270   21.3535 C   0  0  0  0  0  0
  -21.9897   -9.0233   20.4631 C   0  0  0  0  0  0
  -22.7211  -10.2122   20.3045 C   0  0  0  0  0  0
  -21.6847   -6.0728   22.5269 C   0  0  0  0  0  0
  -21.4016   -6.5630   23.8203 C   0  0  0  0  0  0
  -21.3670   -5.6783   24.9165 C   0  0  0  0  0  0
  -21.6044   -4.3045   24.7212 C   0  0  0  0  0  0
  -21.8821   -3.8140   23.4333 C   0  0  0  0  0  0
  -21.9189   -4.6957   22.3392 C   0  0  0  0  0  0
  -22.7819  -13.5222   21.1859 C   0  0  0  0  0  0
  -22.1655   -4.2144   21.0970 F   0  0  0  0  0  0
  -21.5636   -3.4530   25.7730 F   0  0  0  0  0  0
  -29.9993  -13.4466   20.3956 N   0  0  0  0  0  0
  -26.2925  -12.9334   20.3323 N   0  0  0  0  0  0
  -25.9288  -11.6491   20.5770 N   0  0  0  0  0  0
  -22.0470  -12.8227   22.0428 N   0  0  0  0  0  0
  -25.4293  -15.1887   20.4144 N   0  0  0  0  0  0
  -31.8654  -14.7074   20.1463 O   0  0  0  0  0  0
  -21.6629   -6.8873   21.4232 O   0  0  0  0  0  0
  -22.3504  -14.5513   20.6683 O   0  0  0  0  0  0
  -24.6244  -31.8594   23.2004 C   0  0  0  0  0  0
  -25.9094  -32.4770   23.8328 C   0  0  1  0  0  0
  -27.2279  -27.3291   20.1048 C   0  0  0  0  0  0
  -25.5911  -33.8571   24.2249 N   0  0  0  0  0  0
  -23.4167  -30.4820   21.5420 C   0  0  2  0  0  0
  -24.8641  -28.9390   20.1054 C   0  0  0  0  0  0
  -22.7455  -29.4613   22.4913 C   0  0  0  0  0  0
  -18.0283  -28.1384   22.8481 C   0  0  0  0  0  0
  -24.1484  -36.7301   23.2636 C   0  0  0  0  0  0
  -25.9563  -30.7919   21.3695 C   0  0  0  0  0  0
  -26.0309  -29.4196   20.7120 C   0  0  0  0  0  0
  -27.2141  -28.6249   20.7051 C   0  0  0  0  0  0
  -26.0410  -26.9045   19.4636 C   0  0  0  0  0  0
  -24.8701  -27.6856   19.4727 C   0  0  0  0  0  0
  -23.6297  -29.8148   20.1577 C   0  0  0  0  0  0
  -25.4111  -36.3077   24.0314 C   0  0  1  0  0  0
  -20.5876  -28.3679   23.1281 C   0  0  2  0  0  0
  -20.6769  -26.9401   22.5406 C   0  0  0  0  0  0
  -19.5750  -26.6380   21.5199 C   0  0  0  0  0  0
  -18.1928  -26.7927   22.1617 C   0  0  0  0  0  0
  -19.1535  -28.8852   23.2876 C   0  0  0  0  0  0
  -18.9464  -30.1458   23.8887 C   0  0  0  0  0  0
  -17.6466  -30.6587   24.0562 C   0  0  0  0  0  0
  -25.9044  -34.9446   23.5079 C   0  0  0  0  0  0
  -16.5352  -29.9085   23.6336 C   0  0  0  0  0  0
  -16.7271  -28.6509   23.0347 C   0  0  0  0  0  0
  -26.4478  -31.6584   25.0701 C   0  0  0  0  0  0
  -25.3718  -31.3743   26.1433 C   0  0  0  0  0  0
  -27.0309  -30.3000   24.6160 C   0  0  0  0  0  0
  -27.6026  -32.4326   25.7486 C   0  0  0  0  0  0
  -27.5567  -37.1801   24.8457 C   0  0  0  0  0  0
  -21.4167  -29.3037   22.3672 N   0  0  0  0  0  0
  -26.4280  -37.3780   23.9405 N   0  0  0  0  0  0
  -24.6844  -31.0617   22.0942 N   0  0  0  0  0  0
  -23.4187  -28.8160   23.2991 O   0  0  0  0  0  0
  -28.3528  -26.4901   20.1758 O   0  0  0  0  0  0
  -26.5627  -34.8916   22.4652 O   0  0  0  0  0  0
  -23.5419  -32.1367   23.7356 O   0  0  0  0  0  0
  -28.0640  -19.1805   22.7814 C   0  0  0  0  0  0
  -27.3239  -19.7954   23.7986 C   0  0  0  0  0  0
  -27.7402  -21.9250   22.7502 C   0  0  0  0  0  0
  -28.6615  -19.8982   21.7157 C   0  0  0  0  0  0
  -28.4692  -21.3470   21.6745 C   0  0  0  0  0  0
  -27.1576  -21.1904   23.7929 C   0  0  0  0  0  0
  -30.6576  -18.2207   21.4762 C   0  0  0  0  0  0
  -28.6512  -17.8806   20.0276 C   0  0  0  0  0  0
  -27.2476  -24.3605   20.7417 C   0  0  0  0  0  0
  -30.4472  -16.6980   21.8432 C   0  0  0  0  0  0
  -29.4529  -16.5958   19.6144 C   0  0  0  0  0  0
  -29.4903  -18.9783   20.7575 C   0  0  0  0  0  0
  -28.6903  -23.9070   20.8299 C   0  0  2  0  0  0
  -28.2311  -25.0504   19.8395 C   0  0  2  0  0  0
  -24.3486  -20.7167   25.0458 C   0  0  0  0  0  0
  -28.9611  -22.3584   20.5730 C   0  0  0  0  0  0
  -25.6521  -21.2122   25.6905 C   0  0  0  0  0  0
  -29.9796  -15.7948   20.7530 N   0  0  0  0  0  0
  -26.4583  -21.9066   24.7421 O   0  0  0  0  0  0
  -31.4581  -12.4831   19.1480 H   0  0  0  0  0  0
  -30.3275  -11.4075   19.9189 H   0  0  0  0  0  0
  -29.7566  -11.7236   17.4871 H   0  0  0  0  0  0
  -29.6349  -13.4499   17.7221 H   0  0  0  0  0  0
  -27.8593  -11.2779   18.8832 H   0  0  0  0  0  0
  -27.3623  -12.5411   17.7910 H   0  0  0  0  0  0
  -27.6297  -14.2366   19.4783 H   0  0  0  0  0  0
  -28.7014  -12.1436   21.4324 H   0  0  0  0  0  0
  -28.4417  -13.8369   21.7816 H   0  0  0  0  0  0
  -25.2744   -9.5674   22.4743 H   0  0  0  0  0  0
  -23.9992   -7.4616   22.7446 H   0  0  0  0  0  0
  -21.0829   -8.8742   19.8933 H   0  0  0  0  0  0
  -22.3660  -10.9658   19.6155 H   0  0  0  0  0  0
  -21.2009   -7.6138   23.9717 H   0  0  0  0  0  0
  -21.1501   -6.0505   25.9075 H   0  0  0  0  0  0
  -22.0599   -2.7605   23.2823 H   0  0  0  0  0  0
  -22.4093  -11.9887   22.4814 H   0  0  0  0  0  0
  -21.1082  -13.1245   22.2624 H   0  0  0  0  0  0
  -24.6744  -15.8545   20.5344 H   0  0  0  0  0  0
  -26.3017  -15.6239   20.1422 H   0  0  0  0  0  0
  -26.7152  -32.5434   23.1073 H   0  0  0  0  0  0
  -25.0044  -33.9706   25.0384 H   0  0  0  0  0  0
  -22.7100  -31.3024   21.3989 H   0  0  0  0  0  0
  -23.3729  -35.9645   23.3301 H   0  0  0  0  0  0
  -24.3584  -36.8929   22.2049 H   0  0  0  0  0  0
  -23.7243  -37.6505   23.6670 H   0  0  0  0  0  0
  -26.0826  -31.5553   20.6002 H   0  0  0  0  0  0
  -26.8404  -30.8442   21.9942 H   0  0  0  0  0  0
  -28.1081  -28.9871   21.1925 H   0  0  0  0  0  0
  -25.9926  -25.9489   18.9630 H   0  0  0  0  0  0
  -23.9775  -27.3145   18.9868 H   0  0  0  0  0  0
  -23.7402  -30.5893   19.3978 H   0  0  0  0  0  0
  -22.7520  -29.2383   19.8593 H   0  0  0  0  0  0
  -25.1293  -36.1913   25.0806 H   0  0  0  0  0  0
  -20.9981  -28.3257   24.1395 H   0  0  0  0  0  0
  -20.5654  -26.2286   23.3604 H   0  0  0  0  0  0
  -21.6638  -26.7415   22.1209 H   0  0  0  0  0  0
  -19.6902  -25.6290   21.1232 H   0  0  0  0  0  0
  -19.6694  -27.3192   20.6733 H   0  0  0  0  0  0
  -17.4189  -26.6657   21.4029 H   0  0  0  0  0  0
  -18.0344  -26.0075   22.9027 H   0  0  0  0  0  0
  -19.7943  -30.7274   24.2240 H   0  0  0  0  0  0
  -17.5024  -31.6269   24.5166 H   0  0  0  0  0  0
  -15.5357  -30.2989   23.7670 H   0  0  0  0  0  0
  -15.8666  -28.0833   22.7056 H   0  0  0  0  0  0
  -24.5889  -30.7087   25.7783 H   0  0  0  0  0  0
  -24.8917  -32.2923   26.4837 H   0  0  0  0  0  0
  -25.8049  -30.8946   27.0215 H   0  0  0  0  0  0
  -26.2874  -29.6770   24.1174 H   0  0  0  0  0  0
  -27.3978  -29.7244   25.4669 H   0  0  0  0  0  0
  -27.8758  -30.4273   23.9386 H   0  0  0  0  0  0
  -27.2609  -33.3617   26.2060 H   0  0  0  0  0  0
  -28.3850  -32.6898   25.0335 H   0  0  0  0  0  0
  -28.0670  -31.8451   26.5416 H   0  0  0  0  0  0
  -28.2579  -38.0105   24.7517 H   0  0  0  0  0  0
  -28.1062  -36.2634   24.6262 H   0  0  0  0  0  0
  -27.2290  -37.1431   25.8862 H   0  0  0  0  0  0
  -20.9328  -29.8770   21.6902 H   0  0  0  0  0  0
  -26.0145  -38.2838   24.1444 H   0  0  0  0  0  0
  -28.1727  -18.1094   22.8390 H   0  0  0  0  0  0
  -26.9064  -19.1702   24.5740 H   0  0  0  0  0  0
  -27.5859  -22.9875   22.8166 H   0  0  0  0  0  0
  -31.5192  -18.2538   20.8063 H   0  0  0  0  0  0
  -30.9784  -18.7791   22.3564 H   0  0  0  0  0  0
  -27.8319  -17.5443   20.6640 H   0  0  0  0  0  0
  -28.1654  -18.3239   19.1573 H   0  0  0  0  0  0
  -26.5359  -23.6903   20.2642 H   0  0  0  0  0  0
  -26.8539  -24.9117   21.5939 H   0  0  0  0  0  0
  -29.7388  -16.6052   22.6648 H   0  0  0  0  0  0
  -31.3886  -16.3260   22.2540 H   0  0  0  0  0  0
  -30.2869  -16.8832   18.9712 H   0  0  0  0  0  0
  -28.8170  -15.9698   18.9918 H   0  0  0  0  0  0
  -29.9375  -19.6308   20.0064 H   0  0  0  0  0  0
  -29.2597  -24.2785   21.6808 H   0  0  0  0  0  0
  -28.2024  -24.8458   18.7705 H   0  0  0  0  0  0
  -23.7662  -21.5483   24.6482 H   0  0  0  0  0  0
  -23.7259  -20.2008   25.7760 H   0  0  0  0  0  0
  -24.5385  -20.0232   24.2266 H   0  0  0  0  0  0
  -28.5126  -22.0753   19.6211 H   0  0  0  0  0  0
  -30.0364  -22.2231   20.4513 H   0  0  0  0  0  0
  -26.2002  -20.4088   26.1827 H   0  0  0  0  0  0
  -25.4013  -21.9155   26.4854 H   0  0  0  0  0  0
  1 25  1  0  0  0
  1 30  2  0  0  0
  1 88  1  0  0  0
  2  3  1  0  0  0
  2 25  1  0  0  0
  2 90  1  0  0  0
  2 91  1  0  0  0
  3  4  1  0  0  0
  3 92  1  0  0  0
  3 93  1  0  0  0
  4  5  1  0  0  0
  4 94  1  0  0  0
  4 95  1  0  0  0
  5  6  1  0  0  0
  5 26  1  0  0  0
  5 96  1  0  0  0
  6 25  1  0  0  0
  6 97  1  0  0  0
  6 98  1  0  0  0
  7  8  2  0  0  0
  7 26  1  0  0  0
  7 29  1  0  0  0
  8  9  1  0  0  0
  8 22  1  0  0  0
  9 10  1  0  0  0
  9 27  2  0  0  0
 10 11  2  0  0  0
 10 15  1  0  0  0
 11 12  1  0  0  0
 11 99  1  0  0  0
 12 13  2  0  0  0
 12100  1  0  0  0
 13 14  1  0  0  0
 13 31  1  0  0  0
 14 15  2  0  0  0
 14101  1  0  0  0
 15102  1  0  0  0
 16 17  2  0  0  0
 16 21  1  0  0  0
 16 31  1  0  0  0
 17 18  1  0  0  0
 17103  1  0  0  0
 18 19  2  0  0  0
 18104  1  0  0  0
 19 20  1  0  0  0
 19 24  1  0  0  0
 20 21  2  0  0  0
 20105  1  0  0  0
 21 23  1  0  0  0
 22 28  1  0  0  0
 22 32  2  0  0  0
 26 27  1  0  0  0
 28106  1  0  0  0
 28107  1  0  0  0
 29108  1  0  0  0
 29109  1  0  0  0
 33 34  1  0  0  0
 33 66  1  0  0  0
 33 70  2  0  0  0
 34 36  1  0  0  0
 34 59  1  0  0  0
 34110  1  0  0  0
 35 44  2  0  0  0
 35 45  1  0  0  0
 35 68  1  0  0  0
 36 56  1  0  0  0
 36111  1  0  0  0
 37 39  1  0  0  0
 37 47  1  0  0  0
 37 66  1  0  0  0
 37112  1  0  0  0
 38 43  2  0  0  0
 38 46  1  0  0  0
 38 47  1  0  0  0
 39 64  1  0  0  0
 39 67  2  0  0  0
 40 52  1  0  0  0
 40 53  2  0  0  0
 40 58  1  0  0  0
 41113  1  0  0  0
 41114  1  0  0  0
 41115  1  0  0  0
 41 48  1  0  0  0
 42 43  1  0  0  0
 42 66  1  0  0  0
 42116  1  0  0  0
 42117  1  0  0  0
 43 44  1  0  0  0
 44118  1  0  0  0
 45 46  2  0  0  0
 45119  1  0  0  0
 46120  1  0  0  0
 47121  1  0  0  0
 47122  1  0  0  0
 48 56  1  0  0  0
 48 65  1  0  0  0
 48123  1  0  0  0
 49 50  1  0  0  0
 49 53  1  0  0  0
 49 64  1  0  0  0
 49124  1  0  0  0
 50 51  1  0  0  0
 50125  1  0  0  0
 50126  1  0  0  0
 51 52  1  0  0  0
 51127  1  0  0  0
 51128  1  0  0  0
 52129  1  0  0  0
 52130  1  0  0  0
 53 54  1  0  0  0
 54 55  2  0  0  0
 54131  1  0  0  0
 55 57  1  0  0  0
 55132  1  0  0  0
 56 69  2  0  0  0
 57 58  2  0  0  0
 57133  1  0  0  0
 58134  1  0  0  0
 59 60  1  0  0  0
 59 61  1  0  0  0
 59 62  1  0  0  0
 60135  1  0  0  0
 60136  1  0  0  0
 60137  1  0  0  0
 61138  1  0  0  0
 61139  1  0  0  0
 61140  1  0  0  0
 62141  1  0  0  0
 62142  1  0  0  0
 62143  1  0  0  0
 63 65  1  0  0  0
 63144  1  0  0  0
 63145  1  0  0  0
 63146  1  0  0  0
 64147  1  0  0  0
 65148  1  0  0  0
 68 84  1  0  0  0
 71 72  2  0  0  0
 71 74  1  0  0  0
 71149  1  0  0  0
 72 76  1  0  0  0
 72150  1  0  0  0
 73 75  1  0  0  0
 73 76  2  0  0  0
 73151  1  0  0  0
 74 75  2  0  0  0
 74 82  1  0  0  0
 75 86  1  0  0  0
 76 89  1  0  0  0
 77 80  1  0  0  0
 77 82  1  0  0  0
 77152  1  0  0  0
 77153  1  0  0  0
 78 81  1  0  0  0
 78 82  1  0  0  0
 78154  1  0  0  0
 78155  1  0  0  0
 79 83  1  0  0  0
 79 84  1  0  0  0
 79156  1  0  0  0
 79157  1  0  0  0
 80 88  1  0  0  0
 80158  1  0  0  0
 80159  1  0  0  0
 81 88  1  0  0  0
 81160  1  0  0  0
 81161  1  0  0  0
 82162  1  0  0  0
 83 84  1  0  0  0
 83 86  1  0  0  0
 83163  1  0  0  0
 84164  1  0  0  0
 85 87  1  0  0  0
 85165  1  0  0  0
 85166  1  0  0  0
 85167  1  0  0  0
 86168  1  0  0  0
 86169  1  0  0  0
 87 89  1  0  0  0
 87170  1  0  0  0
 87171  1  0  0  0
M  ISO  4   1 100  68 101  84 101  88 100
M  END
> <chiral flag>
0

> <version>
0

> <s_m_source_file>
/data/baiqing/PycharmProjects/Reinvent-master-3.2/result/LINK_invent/BTK/process_docking_weight1_custom_sum_contain_oxygen_bond_distance_aromatic_linkinvent_7_9_3/rearranged_h_0150.sdf

> <i_m_source_file_index>
38

> <r_mmod_Potential_Energy-OPLS-2005>
360.401672363281

> <r_mmod_Stretch_Energy-OPLS-2005>
94.1052474975586

> <r_mmod_Bend_Energy-OPLS-2005>
180.350280761719

> <r_mmod_Torsional_Energy-OPLS-2005>
366.697845458984

> <r_mmod_Improper_Torsional_Energy-OPLS-2005>
7.48554992675781

> <r_mmod_Van_der_Waal_Energy-OPLS-2005>
164.382705688477

> <r_mmod_Electrostatic_Energy-OPLS-2005>
-304.981750488281

> <r_mmod_Solvation_Energy-OPLS-2005>
-197.556045532227

> <b_mmod_Minimization_Converged-OPLS-2005>
0

> <r_mmod_RMS_Derivative-OPLS-2005>
1.92178440093994

$$$$
38
                    3D
 Structure written by MMmdl.
169178  0  0  1  0            999 V2000
  -30.4333  -15.0302   20.4803 C   0  0  0  0  0  0
  -30.4407  -12.6534   19.5541 C   0  0  0  0  0  0
  -29.5283  -12.5676   18.3033 C   0  0  0  0  0  0
  -28.0556  -12.3347   18.6939 C   0  0  0  0  0  0
  -27.6207  -13.2501   19.8658 C   0  0  2  0  0  0
  -28.6491  -13.2556   21.0256 C   0  0  0  0  0  0
  -25.2361  -13.8257   20.5735 C   0  0  0  0  0  0
  -24.1673  -13.0377   20.9209 C   0  0  0  0  0  0
  -24.6335  -11.6957   20.8790 C   0  0  0  0  0  0
  -23.9015  -10.4280   21.0445 C   0  0  0  0  0  0
  -24.3616   -9.4194   21.9190 C   0  0  0  0  0  0
  -23.6303   -8.2236   22.0744 C   0  0  0  0  0  0
  -22.4299   -8.0227   21.3508 C   0  0  0  0  0  0
  -21.9901   -9.0243   20.4637 C   0  0  0  0  0  0
  -22.7240  -10.2145   20.3052 C   0  0  0  0  0  0
  -21.6872   -6.0755   22.5304 C   0  0  0  0  0  0
  -21.3991   -6.5633   23.8217 C   0  0  0  0  0  0
  -21.3673   -5.6793   24.9175 C   0  0  0  0  0  0
  -21.6039   -4.3033   24.7239 C   0  0  0  0  0  0
  -21.8830   -3.8153   23.4338 C   0  0  0  0  0  0
  -21.9165   -4.6981   22.3405 C   0  0  0  0  0  0
  -22.7689  -13.5175   21.2005 C   0  0  0  0  0  0
  -22.1669   -4.2154   21.0994 F   0  0  0  0  0  0
  -21.5636   -3.4522   25.7751 F   0  0  0  0  0  0
  -29.9282  -13.7280   20.4619 N   0  0  0  0  0  0
  -26.2707  -12.9470   20.3235 N   0  0  0  0  0  0
  -25.9254  -11.6578   20.5782 N   0  0  0  0  0  0
  -22.0373  -12.8149   22.0520 N   0  0  0  0  0  0
  -25.4006  -15.1974   20.4075 N   0  0  0  0  0  0
  -31.6091  -15.1468   20.0909 O   0  0  0  0  0  0
  -21.6627   -6.8927   21.4255 O   0  0  0  0  0  0
  -22.3360  -14.5466   20.6789 O   0  0  0  0  0  0
  -24.6352  -31.8472   23.1805 C   0  0  0  0  0  0
  -25.9185  -32.4697   23.8206 C   0  0  1  0  0  0
  -27.2718  -27.1735   20.1932 C   0  0  0  0  0  0
  -25.5951  -33.8477   24.2139 N   0  0  0  0  0  0
  -23.4435  -30.4492   21.5221 C   0  0  2  0  0  0
  -24.9017  -28.8577   20.1293 C   0  0  0  0  0  0
  -22.7544  -29.4473   22.4860 C   0  0  0  0  0  0
  -18.0287  -28.1269   22.8441 C   0  0  0  0  0  0
  -24.1483  -36.7225   23.2630 C   0  0  0  0  0  0
  -25.9852  -30.7369   21.3765 C   0  0  0  0  0  0
  -26.0700  -29.3369   20.7287 C   0  0  0  0  0  0
  -27.2431  -28.5073   20.7603 C   0  0  0  0  0  0
  -26.0939  -26.7891   19.5326 C   0  0  0  0  0  0
  -24.9330  -27.6043   19.4896 C   0  0  0  0  0  0
  -23.6719  -29.7597   20.1426 C   0  0  0  0  0  0
  -25.4118  -36.2986   24.0276 C   0  0  1  0  0  0
  -20.5947  -28.3592   23.1241 C   0  0  2  0  0  0
  -20.6774  -26.9321   22.5322 C   0  0  0  0  0  0
  -19.5801  -26.6536   21.5060 C   0  0  0  0  0  0
  -18.1976  -26.7941   22.1346 C   0  0  0  0  0  0
  -19.1572  -28.8768   23.2829 C   0  0  0  0  0  0
  -18.9506  -30.1320   23.8886 C   0  0  0  0  0  0
  -17.6569  -30.6467   24.0670 C   0  0  0  0  0  0
  -25.9091  -34.9360   23.5042 C   0  0  0  0  0  0
  -16.5417  -29.9107   23.6281 C   0  0  0  0  0  0
  -16.7302  -28.6526   23.0278 C   0  0  0  0  0  0
  -26.4495  -31.6518   25.0607 C   0  0  0  0  0  0
  -25.3675  -31.3756   26.1308 C   0  0  0  0  0  0
  -27.0451  -30.2912   24.6253 C   0  0  0  0  0  0
  -27.6010  -32.4301   25.7414 C   0  0  0  0  0  0
  -27.5596  -37.1762   24.8482 C   0  0  0  0  0  0
  -21.4234  -29.2918   22.3683 N   0  0  0  0  0  0
  -26.4298  -37.3713   23.9428 N   0  0  0  0  0  0
  -24.7022  -31.0406   22.0801 N   0  0  0  0  0  0
  -23.4199  -28.8117   23.3112 O   0  0  0  0  0  0
  -28.3478  -26.2281   20.3427 O   0  0  0  0  0  0
  -26.5687  -34.8893   22.4628 O   0  0  0  0  0  0
  -23.5462  -32.1295   23.7062 O   0  0  0  0  0  0
  -28.6571  -21.9311   20.2823 C   0  0  0  0  0  0
  -27.7756  -20.8918   22.2709 C   0  0  0  0  0  0
  -28.4362  -20.6602   21.0500 C   0  0  0  0  0  0
  -28.2451  -23.3175   20.6983 C   0  0  0  0  0  0
  -27.5745  -23.3434   21.9533 C   0  0  0  0  0  0
  -27.3337  -22.1678   22.7034 C   0  0  0  0  0  0
  -27.4793  -19.0189   19.4096 C   0  0  0  0  0  0
  -29.6720  -17.9862   18.7991 C   0  0  0  0  0  0
  -28.3846  -19.0240   20.6491 C   0  0  1  0  0  0
  -29.4723  -17.7294   20.3054 C   0  0  1  0  0  0
  -28.3258  -18.5200   18.2285 C   0  0  1  0  0  0
  -27.0468  -24.6542   22.4834 C   0  0  0  0  0  0
  -25.3080  -21.6360   23.7624 C   0  0  0  0  0  0
  -28.5031  -24.7402   19.8619 C   0  0  0  0  0  0
  -27.5537  -17.4790   17.3862 C   0  0  0  0  0  0
  -29.6011  -16.1722   20.7401 N   0  0  0  0  0  0
  -28.5707  -19.6014   17.3511 O   0  0  0  0  0  0
  -26.4982  -18.1718   16.7496 O   0  0  0  0  0  0
  -26.6003  -22.2250   23.8716 O   0  0  0  0  0  0
  -31.4642  -12.8472   19.2260 H   0  0  0  0  0  0
  -30.4916  -11.6893   20.0744 H   0  0  0  0  0  0
  -29.8735  -11.7891   17.6233 H   0  0  0  0  0  0
  -29.6011  -13.5019   17.7529 H   0  0  0  0  0  0
  -27.9433  -11.2804   18.9832 H   0  0  0  0  0  0
  -27.4075  -12.4843   17.8268 H   0  0  0  0  0  0
  -27.5896  -14.2605   19.4600 H   0  0  0  0  0  0
  -28.7454  -12.2482   21.4417 H   0  0  0  0  0  0
  -28.3095  -13.9038   21.8355 H   0  0  0  0  0  0
  -25.2763   -9.5683   22.4765 H   0  0  0  0  0  0
  -24.0042   -7.4585   22.7367 H   0  0  0  0  0  0
  -21.0897   -8.8775   19.8869 H   0  0  0  0  0  0
  -22.3699  -10.9721   19.6165 H   0  0  0  0  0  0
  -21.1968   -7.6127   23.9762 H   0  0  0  0  0  0
  -21.1507   -6.0487   25.9114 H   0  0  0  0  0  0
  -22.0587   -2.7602   23.2840 H   0  0  0  0  0  0
  -22.4032  -11.9830   22.4935 H   0  0  0  0  0  0
  -21.0928  -13.1099   22.2717 H   0  0  0  0  0  0
  -24.6315  -15.8492   20.5198 H   0  0  0  0  0  0
  -26.2384  -15.6413   20.0606 H   0  0  0  0  0  0
  -26.7241  -32.5293   23.0945 H   0  0  0  0  0  0
  -25.0064  -33.9582   25.0228 H   0  0  0  0  0  0
  -22.7414  -31.2704   21.3547 H   0  0  0  0  0  0
  -23.3792  -35.9562   23.3290 H   0  0  0  0  0  0
  -24.3555  -36.8870   22.2085 H   0  0  0  0  0  0
  -23.7253  -37.6365   23.6699 H   0  0  0  0  0  0
  -26.1538  -31.5094   20.6246 H   0  0  0  0  0  0
  -26.8505  -30.7876   22.0269 H   0  0  0  0  0  0
  -28.1104  -28.8760   21.2949 H   0  0  0  0  0  0
  -26.0716  -25.8081   19.0869 H   0  0  0  0  0  0
  -24.0642  -27.2244   18.9648 H   0  0  0  0  0  0
  -23.7882  -30.5323   19.3722 H   0  0  0  0  0  0
  -22.8062  -29.1710   19.8393 H   0  0  0  0  0  0
  -25.1342  -36.1788   25.0781 H   0  0  0  0  0  0
  -20.9972  -28.3080   24.1338 H   0  0  0  0  0  0
  -21.6593  -26.7357   22.1247 H   0  0  0  0  0  0
  -20.5558  -26.2123   23.3406 H   0  0  0  0  0  0
  -19.6894  -27.3430   20.6748 H   0  0  0  0  0  0
  -19.6973  -25.6596   21.0691 H   0  0  0  0  0  0
  -17.4271  -26.6943   21.3680 H   0  0  0  0  0  0
  -18.0257  -25.9865   22.8475 H   0  0  0  0  0  0
  -19.8012  -30.7014   24.2326 H   0  0  0  0  0  0
  -17.5179  -31.6115   24.5271 H   0  0  0  0  0  0
  -15.5496  -30.3218   23.7477 H   0  0  0  0  0  0
  -15.8573  -28.0935   22.7117 H   0  0  0  0  0  0
  -24.5828  -30.7148   25.7607 H   0  0  0  0  0  0
  -24.8893  -32.2974   26.4633 H   0  0  0  0  0  0
  -25.7891  -30.8949   27.0156 H   0  0  0  0  0  0
  -26.3123  -29.6567   24.1274 H   0  0  0  0  0  0
  -27.4077  -29.7261   25.4858 H   0  0  0  0  0  0
  -27.8982  -30.4148   23.9595 H   0  0  0  0  0  0
  -27.2581  -33.3642   26.1925 H   0  0  0  0  0  0
  -28.3863  -32.6848   25.0262 H   0  0  0  0  0  0
  -28.0682  -31.8496   26.5405 H   0  0  0  0  0  0
  -28.2579  -38.0068   24.7520 H   0  0  0  0  0  0
  -28.1097  -36.2602   24.6316 H   0  0  0  0  0  0
  -27.2305  -37.1416   25.8863 H   0  0  0  0  0  0
  -20.9379  -29.8969   21.7193 H   0  0  0  0  0  0
  -26.0153  -38.2778   24.1402 H   0  0  0  0  0  0
  -29.0858  -21.8118   19.3140 H   0  0  0  0  0  0
  -27.4988  -20.0405   22.8907 H   0  0  0  0  0  0
  -27.0066  -19.9769   19.2170 H   0  0  0  0  0  0
  -26.6298  -18.3533   19.5879 H   0  0  0  0  0  0
  -30.0392  -17.1109   18.2631 H   0  0  0  0  0  0
  -30.4408  -18.7459   18.6952 H   0  0  0  0  0  0
  -27.7881  -18.6015   21.4656 H   0  0  0  0  0  0
  -28.5417  -17.1581   20.2289 H   0  0  0  0  0  0
  -27.8548  -25.3804   22.6183 H   0  0  0  0  0  0
  -26.4869  -24.5473   23.4197 H   0  0  0  0  0  0
  -26.3608  -25.0449   21.7352 H   0  0  0  0  0  0
  -24.8353  -21.5622   24.7399 H   0  0  0  0  0  0
  -25.3304  -20.6236   23.3616 H   0  0  0  0  0  0
  -24.6511  -22.2213   23.1186 H   0  0  0  0  0  0
  -29.6059  -24.7216   19.8477 H   0  0  0  0  0  0
  -28.1989  -24.6596   18.8073 H   0  0  0  0  0  0
  -27.1872  -16.6444   17.9832 H   0  0  0  0  0  0
  -28.2076  -17.0621   16.6172 H   0  0  0  0  0  0
  -28.7397  -15.8531   21.1892 H   0  0  0  0  0  0
  -29.1764  -20.1913   17.7899 H   0  0  0  0  0  0
  -26.8753  -19.0493   16.6497 H   0  0  0  0  0  0
  1 25  1  0  0  0
  1 30  2  0  0  0
  1 86  1  0  0  0
  2  3  1  0  0  0
  2 25  1  0  0  0
  2 90  1  0  0  0
  2 91  1  0  0  0
  3  4  1  0  0  0
  3 92  1  0  0  0
  3 93  1  0  0  0
  4  5  1  0  0  0
  4 94  1  0  0  0
  4 95  1  0  0  0
  5  6  1  0  0  0
  5 26  1  0  0  0
  5 96  1  0  0  0
  6 25  1  0  0  0
  6 97  1  0  0  0
  6 98  1  0  0  0
  7  8  2  0  0  0
  7 26  1  0  0  0
  7 29  1  0  0  0
  8  9  1  0  0  0
  8 22  1  0  0  0
  9 10  1  0  0  0
  9 27  2  0  0  0
 10 11  2  0  0  0
 10 15  1  0  0  0
 11 12  1  0  0  0
 11 99  1  0  0  0
 12 13  2  0  0  0
 12100  1  0  0  0
 13 14  1  0  0  0
 13 31  1  0  0  0
 14 15  2  0  0  0
 14101  1  0  0  0
 15102  1  0  0  0
 16 17  2  0  0  0
 16 21  1  0  0  0
 16 31  1  0  0  0
 17 18  1  0  0  0
 17103  1  0  0  0
 18 19  2  0  0  0
 18104  1  0  0  0
 19 20  1  0  0  0
 19 24  1  0  0  0
 20 21  2  0  0  0
 20105  1  0  0  0
 21 23  1  0  0  0
 22 28  1  0  0  0
 22 32  2  0  0  0
 26 27  1  0  0  0
 28106  1  0  0  0
 28107  1  0  0  0
 29108  1  0  0  0
 29109  1  0  0  0
 33 34  1  0  0  0
 33 66  1  0  0  0
 33 70  2  0  0  0
 34 36  1  0  0  0
 34 59  1  0  0  0
 34110  1  0  0  0
 35 44  2  0  0  0
 35 45  1  0  0  0
 35 68  1  0  0  0
 36 56  1  0  0  0
 36111  1  0  0  0
 37 39  1  0  0  0
 37 47  1  0  0  0
 37 66  1  0  0  0
 37112  1  0  0  0
 38 43  2  0  0  0
 38 46  1  0  0  0
 38 47  1  0  0  0
 39 64  1  0  0  0
 39 67  2  0  0  0
 40 52  1  0  0  0
 40 53  2  0  0  0
 40 58  1  0  0  0
 41113  1  0  0  0
 41114  1  0  0  0
 41115  1  0  0  0
 41 48  1  0  0  0
 42 43  1  0  0  0
 42 66  1  0  0  0
 42116  1  0  0  0
 42117  1  0  0  0
 43 44  1  0  0  0
 44118  1  0  0  0
 45 46  2  0  0  0
 45119  1  0  0  0
 46120  1  0  0  0
 47121  1  0  0  0
 47122  1  0  0  0
 48 56  1  0  0  0
 48 65  1  0  0  0
 48123  1  0  0  0
 49 50  1  0  0  0
 49 53  1  0  0  0
 49 64  1  0  0  0
 49124  1  0  0  0
 50 51  1  0  0  0
 50125  1  0  0  0
 50126  1  0  0  0
 51 52  1  0  0  0
 51127  1  0  0  0
 51128  1  0  0  0
 52129  1  0  0  0
 52130  1  0  0  0
 53 54  1  0  0  0
 54 55  2  0  0  0
 54131  1  0  0  0
 55 57  1  0  0  0
 55132  1  0  0  0
 56 69  2  0  0  0
 57 58  2  0  0  0
 57133  1  0  0  0
 58134  1  0  0  0
 59 60  1  0  0  0
 59 61  1  0  0  0
 59 62  1  0  0  0
 60135  1  0  0  0
 60136  1  0  0  0
 60137  1  0  0  0
 61138  1  0  0  0
 61139  1  0  0  0
 61140  1  0  0  0
 62141  1  0  0  0
 62142  1  0  0  0
 62143  1  0  0  0
 63 65  1  0  0  0
 63144  1  0  0  0
 63145  1  0  0  0
 63146  1  0  0  0
 64147  1  0  0  0
 65148  1  0  0  0
 68 84  1  0  0  0
 71 73  2  0  0  0
 71 74  1  0  0  0
 71149  1  0  0  0
 72 73  1  0  0  0
 72 76  2  0  0  0
 72150  1  0  0  0
 73 79  1  0  0  0
 74 75  2  0  0  0
 74 84  1  0  0  0
 75 76  1  0  0  0
 75 82  1  0  0  0
 76 89  1  0  0  0
 77 79  1  0  0  0
 77 81  1  0  0  0
 77151  1  0  0  0
 77152  1  0  0  0
 78 80  1  0  0  0
 78 81  1  0  0  0
 78153  1  0  0  0
 78154  1  0  0  0
 79 80  1  0  0  0
 79155  1  0  0  0
 80 86  1  0  0  0
 80156  1  0  0  0
 81 85  1  0  0  0
 81 87  1  0  0  0
 82157  1  0  0  0
 82158  1  0  0  0
 82159  1  0  0  0
 83 89  1  0  0  0
 83160  1  0  0  0
 83161  1  0  0  0
 83162  1  0  0  0
 84163  1  0  0  0
 84164  1  0  0  0
 85 88  1  0  0  0
 85165  1  0  0  0
 85166  1  0  0  0
 86167  1  0  0  0
 87168  1  0  0  0
 88169  1  0  0  0
M  ISO  4   1 100  68 101  84 101  86 100
M  END
> <chiral flag>
0

> <version>
0

> <s_m_source_file>
/data/baiqing/PycharmProjects/Reinvent-master-3.2/result/LINK_invent/BTK/process_docking_weight1_custom_sum_contain_oxygen_bond_distance_aromatic_linkinvent_7_9_3/rearranged_h_0150.sdf

> <i_m_source_file_index>
39

> <r_mmod_Potential_Energy-OPLS-2005>
944.669311523438

> <r_mmod_Stretch_Energy-OPLS-2005>
328.080444335938

> <r_mmod_Bend_Energy-OPLS-2005>
585.655395507812

> <r_mmod_Torsional_Energy-OPLS-2005>
339.394134521484

> <r_mmod_Improper_Torsional_Energy-OPLS-2005>
9.61885452270508

> <r_mmod_Van_der_Waal_Energy-OPLS-2005>
147.935302734375

> <r_mmod_Electrostatic_Energy-OPLS-2005>
-440.313842773438

> <r_mmod_Solvation_Energy-OPLS-2005>
-248.137878417969

> <b_mmod_Minimization_Converged-OPLS-2005>
0

> <r_mmod_RMS_Derivative-OPLS-2005>
20.7580051422119

$$$$
39
                    3D
 Structure written by MMmdl.
163173  0  0  1  0            999 V2000
  -30.7237  -14.7168   20.4671 C   0  0  0  0  0  0
  -30.4031  -12.4579   19.4570 C   0  0  0  0  0  0
  -29.4860  -12.4972   18.2208 C   0  0  0  0  0  0
  -28.0177  -12.3280   18.6478 C   0  0  0  0  0  0
  -27.6315  -13.2407   19.8433 C   0  0  2  0  0  0
  -28.6893  -13.2118   20.9696 C   0  0  0  0  0  0
  -25.2460  -13.8220   20.5727 C   0  0  0  0  0  0
  -24.1771  -13.0445   20.9238 C   0  0  0  0  0  0
  -24.6384  -11.6931   20.8782 C   0  0  0  0  0  0
  -23.9069  -10.4298   21.0419 C   0  0  0  0  0  0
  -24.3620   -9.4207   21.9192 C   0  0  0  0  0  0
  -23.6297   -8.2239   22.0753 C   0  0  0  0  0  0
  -22.4276   -8.0280   21.3544 C   0  0  0  0  0  0
  -21.9914   -9.0255   20.4648 C   0  0  0  0  0  0
  -22.7244  -10.2136   20.3064 C   0  0  0  0  0  0
  -21.6851   -6.0737   22.5279 C   0  0  0  0  0  0
  -21.4014   -6.5640   23.8214 C   0  0  0  0  0  0
  -21.3660   -5.6791   24.9175 C   0  0  0  0  0  0
  -21.6043   -4.3055   24.7224 C   0  0  0  0  0  0
  -21.8817   -3.8148   23.4345 C   0  0  0  0  0  0
  -21.9191   -4.6963   22.3401 C   0  0  0  0  0  0
  -22.7790  -13.5217   21.1880 C   0  0  0  0  0  0
  -22.1658   -4.2149   21.0979 F   0  0  0  0  0  0
  -21.5630   -3.4537   25.7737 F   0  0  0  0  0  0
  -29.9715  -13.5645   20.3489 N   0  0  0  0  0  0
  -26.2901  -12.9450   20.3329 N   0  0  0  0  0  0
  -25.9320  -11.6582   20.5806 N   0  0  0  0  0  0
  -22.0436  -12.8213   22.0438 N   0  0  0  0  0  0
  -25.4103  -15.1942   20.4113 N   0  0  0  0  0  0
  -31.9333  -14.6119   20.2441 O   0  0  0  0  0  0
  -21.6639   -6.8877   21.4241 O   0  0  0  0  0  0
  -22.3474  -14.5521   20.6721 O   0  0  0  0  0  0
  -24.6337  -31.8578   23.2044 C   0  0  0  0  0  0
  -25.9168  -32.4761   23.8372 C   0  0  1  0  0  0
  -27.1939  -27.2512   20.1089 C   0  0  0  0  0  0
  -25.5967  -33.8567   24.2279 N   0  0  0  0  0  0
  -23.4284  -30.4890   21.5496 C   0  0  2  0  0  0
  -24.8693  -28.9534   20.1075 C   0  0  0  0  0  0
  -22.7511  -29.4625   22.4912 C   0  0  0  0  0  0
  -18.0295  -28.1389   22.8479 C   0  0  0  0  0  0
  -24.1492  -36.7284   23.2635 C   0  0  0  0  0  0
  -25.9809  -30.7651   21.3915 C   0  0  0  0  0  0
  -26.0476  -29.3922   20.7248 C   0  0  0  0  0  0
  -27.2132  -28.5530   20.7223 C   0  0  0  0  0  0
  -25.9896  -26.9128   19.4375 C   0  0  0  0  0  0
  -24.8467  -27.7207   19.4541 C   0  0  0  0  0  0
  -23.6447  -29.8416   20.1611 C   0  0  0  0  0  0
  -25.4116  -36.3069   24.0324 C   0  0  1  0  0  0
  -20.5900  -28.3704   23.1257 C   0  0  2  0  0  0
  -20.6785  -26.9422   22.5400 C   0  0  0  0  0  0
  -19.5759  -26.6382   21.5209 C   0  0  0  0  0  0
  -18.1938  -26.7930   22.1620 C   0  0  0  0  0  0
  -19.1548  -28.8864   23.2863 C   0  0  0  0  0  0
  -18.9465  -30.1462   23.8885 C   0  0  0  0  0  0
  -17.6464  -30.6589   24.0556 C   0  0  0  0  0  0
  -25.9066  -34.9441   23.5096 C   0  0  0  0  0  0
  -16.5355  -29.9082   23.6335 C   0  0  0  0  0  0
  -16.7280  -28.6501   23.0354 C   0  0  0  0  0  0
  -26.4515  -31.6582   25.0764 C   0  0  0  0  0  0
  -25.3721  -31.3757   26.1473 C   0  0  0  0  0  0
  -27.0351  -30.2980   24.6285 C   0  0  0  0  0  0
  -27.6070  -32.4316   25.7541 C   0  0  0  0  0  0
  -27.5583  -37.1792   24.8454 C   0  0  0  0  0  0
  -21.4218  -29.3058   22.3650 N   0  0  0  0  0  0
  -26.4284  -37.3772   23.9414 N   0  0  0  0  0  0
  -24.7005  -31.0542   22.1038 N   0  0  0  0  0  0
  -23.4214  -28.8139   23.2986 O   0  0  0  0  0  0
  -28.2417  -26.2886   20.1842 O   0  0  0  0  0  0
  -26.5623  -34.8912   22.4656 O   0  0  0  0  0  0
  -23.5483  -32.1417   23.7324 O   0  0  0  0  0  0
  -29.0744  -21.2227   19.1866 C   0  0  0  0  0  0
  -29.2478  -20.6922   20.4910 C   0  0  0  0  0  0
  -28.7645  -22.5967   18.9654 C   0  0  0  0  0  0
  -29.1177  -21.6809   21.5227 C   0  0  0  0  0  0
  -28.6190  -23.5053   20.0542 C   0  0  0  0  0  0
  -28.4496  -20.3608   23.6884 C   0  0  0  0  0  0
  -28.4086  -21.8178   24.0574 C   0  0  0  0  0  0
  -28.5299  -18.0691   20.8130 C   0  0  0  0  0  0
  -30.6044  -18.5439   19.7058 C   0  0  0  0  0  0
  -28.9900  -16.5718   21.1361 C   0  0  0  0  0  0
  -31.1470  -17.1231   20.0811 C   0  0  0  0  0  0
  -29.6485  -19.1602   20.7459 C   0  0  0  0  0  0
  -29.3498  -21.3429   22.9679 C   0  0  0  0  0  0
  -27.8370  -24.8781   19.8293 C   0  0  0  0  0  0
  -28.8117  -23.0107   21.3133 N   0  0  0  0  0  0
  -30.1849  -16.0193   20.4258 N   0  0  0  0  0  0
  -28.5392  -23.0114   17.6940 F   0  0  0  0  0  0
  -31.4443  -12.5354   19.1396 H   0  0  0  0  0  0
  -30.3250  -11.4964   19.9672 H   0  0  0  0  0  0
  -29.7641  -11.7127   17.5158 H   0  0  0  0  0  0
  -29.6114  -13.4450   17.6947 H   0  0  0  0  0  0
  -27.8768  -11.2815   18.9203 H   0  0  0  0  0  0
  -27.3533  -12.5112   17.8024 H   0  0  0  0  0  0
  -27.6114  -14.2529   19.4401 H   0  0  0  0  0  0
  -28.7411  -12.2232   21.4275 H   0  0  0  0  0  0
  -28.4370  -13.8989   21.7768 H   0  0  0  0  0  0
  -25.2756   -9.5687   22.4776 H   0  0  0  0  0  0
  -24.0003   -7.4626   22.7469 H   0  0  0  0  0  0
  -21.0844   -8.8780   19.8953 H   0  0  0  0  0  0
  -22.3699  -10.9681   19.6182 H   0  0  0  0  0  0
  -21.2007   -7.6147   23.9724 H   0  0  0  0  0  0
  -21.1485   -6.0518   25.9081 H   0  0  0  0  0  0
  -22.0596   -2.7608   23.2843 H   0  0  0  0  0  0
  -22.4054  -11.9881   22.4834 H   0  0  0  0  0  0
  -21.1058  -13.1247   22.2649 H   0  0  0  0  0  0
  -24.6398  -15.8441   20.5234 H   0  0  0  0  0  0
  -26.2574  -15.6380   20.0825 H   0  0  0  0  0  0
  -26.7234  -32.5393   23.1111 H   0  0  0  0  0  0
  -25.0118  -33.9716   25.0426 H   0  0  0  0  0  0
  -22.7253  -31.3134   21.4125 H   0  0  0  0  0  0
  -23.3761  -35.9608   23.3272 H   0  0  0  0  0  0
  -24.3595  -36.8933   22.2056 H   0  0  0  0  0  0
  -23.7234  -37.6474   23.6674 H   0  0  0  0  0  0
  -26.1297  -31.5294   20.6272 H   0  0  0  0  0  0
  -26.8556  -30.8029   22.0292 H   0  0  0  0  0  0
  -28.1076  -28.8780   21.2359 H   0  0  0  0  0  0
  -25.8548  -25.9925   18.8927 H   0  0  0  0  0  0
  -23.9493  -27.3848   18.9526 H   0  0  0  0  0  0
  -23.7737  -30.6266   19.4151 H   0  0  0  0  0  0
  -22.7608  -29.2827   19.8486 H   0  0  0  0  0  0
  -25.1292  -36.1911   25.0813 H   0  0  0  0  0  0
  -20.9991  -28.3280   24.1379 H   0  0  0  0  0  0
  -20.5686  -26.2318   23.3608 H   0  0  0  0  0  0
  -21.6652  -26.7445   22.1192 H   0  0  0  0  0  0
  -19.6921  -25.6288   21.1255 H   0  0  0  0  0  0
  -19.6699  -27.3179   20.6729 H   0  0  0  0  0  0
  -17.4208  -26.6674   21.4021 H   0  0  0  0  0  0
  -18.0337  -26.0074   22.9018 H   0  0  0  0  0  0
  -19.7941  -30.7276   24.2253 H   0  0  0  0  0  0
  -17.5021  -31.6272   24.5151 H   0  0  0  0  0  0
  -15.5354  -30.2977   23.7675 H   0  0  0  0  0  0
  -15.8681  -28.0817   22.7076 H   0  0  0  0  0  0
  -24.5902  -30.7100   25.7802 H   0  0  0  0  0  0
  -24.8909  -32.2936   26.4859 H   0  0  0  0  0  0
  -25.8018  -30.8962   27.0275 H   0  0  0  0  0  0
  -26.2947  -29.6732   24.1274 H   0  0  0  0  0  0
  -27.3956  -29.7244   25.4834 H   0  0  0  0  0  0
  -27.8866  -30.4221   23.9592 H   0  0  0  0  0  0
  -27.2681  -33.3621   26.2108 H   0  0  0  0  0  0
  -28.3896  -32.6860   25.0382 H   0  0  0  0  0  0
  -28.0720  -31.8442   26.5469 H   0  0  0  0  0  0
  -28.2563  -38.0123   24.7536 H   0  0  0  0  0  0
  -28.1112  -36.2653   24.6224 H   0  0  0  0  0  0
  -27.2311  -37.1371   25.8858 H   0  0  0  0  0  0
  -20.9397  -29.8808   21.6883 H   0  0  0  0  0  0
  -26.0156  -38.2838   24.1434 H   0  0  0  0  0  0
  -29.1599  -20.5710   18.3298 H   0  0  0  0  0  0
  -27.5820  -19.9718   23.1608 H   0  0  0  0  0  0
  -28.9132  -19.6795   24.3985 H   0  0  0  0  0  0
  -28.8420  -22.0967   25.0152 H   0  0  0  0  0  0
  -27.5296  -22.3856   23.7585 H   0  0  0  0  0  0
  -27.7845  -18.3608   21.5515 H   0  0  0  0  0  0
  -27.9959  -18.0648   19.8615 H   0  0  0  0  0  0
  -30.1144  -18.4864   18.7329 H   0  0  0  0  0  0
  -31.4581  -19.2093   19.5691 H   0  0  0  0  0  0
  -28.1348  -15.9275   20.9539 H   0  0  0  0  0  0
  -29.1974  -16.4961   22.2046 H   0  0  0  0  0  0
  -31.8282  -17.2327   20.9268 H   0  0  0  0  0  0
  -31.7686  -16.8157   19.2379 H   0  0  0  0  0  0
  -30.1756  -19.1402   21.7001 H   0  0  0  0  0  0
  -30.4140  -21.3170   23.1955 H   0  0  0  0  0  0
  -26.8880  -24.6765   20.3289 H   0  0  0  0  0  0
  -27.6308  -24.9002   18.7601 H   0  0  0  0  0  0
  1 25  1  0  0  0
  1 30  2  0  0  0
  1 86  1  0  0  0
  2  3  1  0  0  0
  2 25  1  0  0  0
  2 88  1  0  0  0
  2 89  1  0  0  0
  3  4  1  0  0  0
  3 90  1  0  0  0
  3 91  1  0  0  0
  4  5  1  0  0  0
  4 92  1  0  0  0
  4 93  1  0  0  0
  5  6  1  0  0  0
  5 26  1  0  0  0
  5 94  1  0  0  0
  6 25  1  0  0  0
  6 95  1  0  0  0
  6 96  1  0  0  0
  7  8  2  0  0  0
  7 26  1  0  0  0
  7 29  1  0  0  0
  8  9  1  0  0  0
  8 22  1  0  0  0
  9 10  1  0  0  0
  9 27  2  0  0  0
 10 11  2  0  0  0
 10 15  1  0  0  0
 11 12  1  0  0  0
 11 97  1  0  0  0
 12 13  2  0  0  0
 12 98  1  0  0  0
 13 14  1  0  0  0
 13 31  1  0  0  0
 14 15  2  0  0  0
 14 99  1  0  0  0
 15100  1  0  0  0
 16 17  2  0  0  0
 16 21  1  0  0  0
 16 31  1  0  0  0
 17 18  1  0  0  0
 17101  1  0  0  0
 18 19  2  0  0  0
 18102  1  0  0  0
 19 20  1  0  0  0
 19 24  1  0  0  0
 20 21  2  0  0  0
 20103  1  0  0  0
 21 23  1  0  0  0
 22 28  1  0  0  0
 22 32  2  0  0  0
 26 27  1  0  0  0
 28104  1  0  0  0
 28105  1  0  0  0
 29106  1  0  0  0
 29107  1  0  0  0
 33 34  1  0  0  0
 33 66  1  0  0  0
 33 70  2  0  0  0
 34 36  1  0  0  0
 34 59  1  0  0  0
 34108  1  0  0  0
 35 44  2  0  0  0
 35 45  1  0  0  0
 35 68  1  0  0  0
 36 56  1  0  0  0
 36109  1  0  0  0
 37 39  1  0  0  0
 37 47  1  0  0  0
 37 66  1  0  0  0
 37110  1  0  0  0
 38 43  2  0  0  0
 38 46  1  0  0  0
 38 47  1  0  0  0
 39 64  1  0  0  0
 39 67  2  0  0  0
 40 52  1  0  0  0
 40 53  2  0  0  0
 40 58  1  0  0  0
 41111  1  0  0  0
 41112  1  0  0  0
 41113  1  0  0  0
 41 48  1  0  0  0
 42 43  1  0  0  0
 42 66  1  0  0  0
 42114  1  0  0  0
 42115  1  0  0  0
 43 44  1  0  0  0
 44116  1  0  0  0
 45 46  2  0  0  0
 45117  1  0  0  0
 46118  1  0  0  0
 47119  1  0  0  0
 47120  1  0  0  0
 48 56  1  0  0  0
 48 65  1  0  0  0
 48121  1  0  0  0
 49 50  1  0  0  0
 49 53  1  0  0  0
 49 64  1  0  0  0
 49122  1  0  0  0
 50 51  1  0  0  0
 50123  1  0  0  0
 50124  1  0  0  0
 51 52  1  0  0  0
 51125  1  0  0  0
 51126  1  0  0  0
 52127  1  0  0  0
 52128  1  0  0  0
 53 54  1  0  0  0
 54 55  2  0  0  0
 54129  1  0  0  0
 55 57  1  0  0  0
 55130  1  0  0  0
 56 69  2  0  0  0
 57 58  2  0  0  0
 57131  1  0  0  0
 58132  1  0  0  0
 59 60  1  0  0  0
 59 61  1  0  0  0
 59 62  1  0  0  0
 60133  1  0  0  0
 60134  1  0  0  0
 60135  1  0  0  0
 61136  1  0  0  0
 61137  1  0  0  0
 61138  1  0  0  0
 62139  1  0  0  0
 62140  1  0  0  0
 62141  1  0  0  0
 63 65  1  0  0  0
 63142  1  0  0  0
 63143  1  0  0  0
 63144  1  0  0  0
 64145  1  0  0  0
 65146  1  0  0  0
 68 84  1  0  0  0
 71 72  2  0  0  0
 71 73  1  0  0  0
 71147  1  0  0  0
 72 74  1  0  0  0
 72 82  1  0  0  0
 73 75  2  0  0  0
 73 87  1  0  0  0
 74 85  2  0  0  0
 74 83  1  0  0  0
 75 84  1  0  0  0
 75 85  1  0  0  0
 76 77  1  0  0  0
 76 83  1  0  0  0
 76148  1  0  0  0
 76149  1  0  0  0
 77 83  1  0  0  0
 77150  1  0  0  0
 77151  1  0  0  0
 78 80  1  0  0  0
 78 82  1  0  0  0
 78152  1  0  0  0
 78153  1  0  0  0
 79 81  1  0  0  0
 79 82  1  0  0  0
 79154  1  0  0  0
 79155  1  0  0  0
 80 86  1  0  0  0
 80156  1  0  0  0
 80157  1  0  0  0
 81 86  1  0  0  0
 81158  1  0  0  0
 81159  1  0  0  0
 82160  1  0  0  0
 83161  1  0  0  0
 84162  1  0  0  0
 84163  1  0  0  0
M  ISO  4   1 100  68 101  84 101  86 100
M  END
> <chiral flag>
0

> <version>
0

> <s_m_source_file>
/data/baiqing/PycharmProjects/Reinvent-master-3.2/result/LINK_invent/BTK/process_docking_weight1_custom_sum_contain_oxygen_bond_distance_aromatic_linkinvent_7_9_3/rearranged_h_0150.sdf

> <i_m_source_file_index>
40

> <r_mmod_Potential_Energy-OPLS-2005>
395.360260009766

> <r_mmod_Stretch_Energy-OPLS-2005>
119.962074279785

> <r_mmod_Bend_Energy-OPLS-2005>
219.693389892578

> <r_mmod_Torsional_Energy-OPLS-2005>
333.760498046875

> <r_mmod_Improper_Torsional_Energy-OPLS-2005>
16.5429553985596

> <r_mmod_Van_der_Waal_Energy-OPLS-2005>
165.252960205078

> <r_mmod_Electrostatic_Energy-OPLS-2005>
-352.896118164062

> <r_mmod_Solvation_Energy-OPLS-2005>
-207.483779907227

> <b_mmod_Minimization_Converged-OPLS-2005>
0

> <r_mmod_RMS_Derivative-OPLS-2005>
0.719440042972565

$$$$
40
                    3D
 Structure written by MMmdl.
169178  0  0  1  0            999 V2000
  -30.6862  -14.5754   20.6114 C   0  0  0  0  0  0
  -30.4458  -12.3752   19.4844 C   0  0  0  0  0  0
  -29.5393  -12.5295   18.2417 C   0  0  0  0  0  0
  -28.0580  -12.3346   18.6319 C   0  0  0  0  0  0
  -27.6676  -13.2009   19.8568 C   0  0  2  0  0  0
  -28.6799  -13.0342   21.0024 C   0  0  0  0  0  0
  -25.2749  -13.8193   20.5770 C   0  0  0  0  0  0
  -24.1927  -13.0543   20.9154 C   0  0  0  0  0  0
  -24.6356  -11.6927   20.8583 C   0  0  0  0  0  0
  -23.9020  -10.4345   21.0410 C   0  0  0  0  0  0
  -24.3630   -9.4253   21.9189 C   0  0  0  0  0  0
  -23.6325   -8.2250   22.0715 C   0  0  0  0  0  0
  -22.4294   -8.0333   21.3513 C   0  0  0  0  0  0
  -21.9928   -9.0291   20.4592 C   0  0  0  0  0  0
  -22.7220  -10.2167   20.3029 C   0  0  0  0  0  0
  -21.6823   -6.0768   22.5275 C   0  0  0  0  0  0
  -21.4073   -6.5646   23.8242 C   0  0  0  0  0  0
  -21.3669   -5.6773   24.9156 C   0  0  0  0  0  0
  -21.6018   -4.3030   24.7181 C   0  0  0  0  0  0
  -21.8831   -3.8164   23.4295 C   0  0  0  0  0  0
  -21.9181   -4.6996   22.3371 C   0  0  0  0  0  0
  -22.7965  -13.5384   21.1772 C   0  0  0  0  0  0
  -22.1654   -4.2204   21.0918 F   0  0  0  0  0  0
  -21.5576   -3.4526   25.7693 F   0  0  0  0  0  0
  -30.0186  -13.3835   20.4868 N   0  0  0  0  0  0
  -26.3083  -12.9279   20.3165 N   0  0  0  0  0  0
  -25.9229  -11.6460   20.5446 N   0  0  0  0  0  0
  -22.0523  -12.8504   22.0344 N   0  0  0  0  0  0
  -25.4601  -15.1959   20.4539 N   0  0  0  0  0  0
  -31.7735  -14.7446   20.0497 O   0  0  0  0  0  0
  -21.6627   -6.8948   21.4245 O   0  0  0  0  0  0
  -22.3710  -14.5683   20.6517 O   0  0  0  0  0  0
  -24.6271  -31.8627   23.1951 C   0  0  0  0  0  0
  -25.9059  -32.4839   23.8361 C   0  0  1  0  0  0
  -27.2215  -27.3148   20.0295 C   0  0  0  0  0  0
  -25.5815  -33.8627   24.2242 N   0  0  0  0  0  0
  -23.4287  -30.4856   21.5493 C   0  0  2  0  0  0
  -24.8653  -28.9365   20.1382 C   0  0  0  0  0  0
  -22.7553  -29.4640   22.4996 C   0  0  0  0  0  0
  -18.0315  -28.1405   22.8554 C   0  0  0  0  0  0
  -24.1462  -36.7317   23.2671 C   0  0  0  0  0  0
  -25.9822  -30.7879   21.3759 C   0  0  0  0  0  0
  -26.0564  -29.4180   20.7027 C   0  0  0  0  0  0
  -27.2411  -28.6216   20.6245 C   0  0  0  0  0  0
  -25.9794  -26.8846   19.5025 C   0  0  0  0  0  0
  -24.8280  -27.6668   19.5514 C   0  0  0  0  0  0
  -23.6471  -29.8165   20.1768 C   0  0  0  0  0  0
  -25.4089  -36.3097   24.0340 C   0  0  1  0  0  0
  -20.5938  -28.3686   23.1321 C   0  0  2  0  0  0
  -20.6761  -26.9370   22.5459 C   0  0  0  0  0  0
  -19.5725  -26.6387   21.5259 C   0  0  0  0  0  0
  -18.1904  -26.7965   22.1664 C   0  0  0  0  0  0
  -19.1570  -28.8856   23.2972 C   0  0  0  0  0  0
  -18.9484  -30.1459   23.8983 C   0  0  0  0  0  0
  -17.6461  -30.6598   24.0608 C   0  0  0  0  0  0
  -25.9044  -34.9505   23.5148 C   0  0  0  0  0  0
  -16.5358  -29.9113   23.6327 C   0  0  0  0  0  0
  -16.7296  -28.6538   23.0367 C   0  0  0  0  0  0
  -26.4420  -31.6721   25.0792 C   0  0  0  0  0  0
  -25.3603  -31.3960   26.1505 C   0  0  0  0  0  0
  -27.0259  -30.3114   24.6327 C   0  0  0  0  0  0
  -27.5980  -32.4539   25.7479 C   0  0  0  0  0  0
  -27.5591  -37.1779   24.8435 C   0  0  0  0  0  0
  -21.4246  -29.3070   22.3705 N   0  0  0  0  0  0
  -26.4270  -37.3793   23.9458 N   0  0  0  0  0  0
  -24.7019  -31.0624   22.0941 N   0  0  0  0  0  0
  -23.4252  -28.8190   23.3070 O   0  0  0  0  0  0
  -28.3605  -26.4902   19.9190 O   0  0  0  0  0  0
  -26.5697  -34.8940   22.4753 O   0  0  0  0  0  0
  -23.5403  -32.1426   23.7185 O   0  0  0  0  0  0
  -29.5216  -19.8321   21.0952 C   0  0  0  0  0  0
  -30.0789  -17.8171   19.8262 C   0  0  0  0  0  0
  -29.8325  -17.7165   22.2410 C   0  0  0  0  0  0
  -29.8400  -19.2558   19.8406 C   0  0  0  0  0  0
  -29.5338  -19.0919   22.3046 C   0  0  0  0  0  0
  -30.0407  -17.0309   21.0453 C   0  0  0  0  0  0
  -29.9285  -16.7972   23.4318 C   0  0  0  0  0  0
  -30.1777  -15.4090   22.8305 C   0  0  0  0  0  0
  -28.2741  -20.9051   23.6934 C   0  0  0  0  0  0
  -30.6681  -20.1925   24.2515 C   0  0  0  0  0  0
  -29.9072  -20.2091   18.5589 C   0  0  0  0  0  0
  -29.0978  -21.5966   18.4353 C   0  0  0  0  0  0
  -29.3021  -24.1723   19.0101 C   0  0  0  0  0  0
  -28.2087  -25.0094   19.7848 C   0  0  0  0  0  0
  -29.3066  -19.7691   23.6652 C   0  0  0  0  0  0
  -30.1410  -15.5913   21.3574 N   0  0  0  0  0  0
  -29.4661  -22.7064   19.3955 N   0  3  0  0  0  0
  -31.4946  -12.4759   19.1992 H   0  0  0  0  0  0
  -30.3837  -11.3697   19.9075 H   0  0  0  0  0  0
  -29.8364  -11.8191   17.4728 H   0  0  0  0  0  0
  -29.6827  -13.5236   17.8126 H   0  0  0  0  0  0
  -27.9132  -11.2822   18.8842 H   0  0  0  0  0  0
  -27.4037  -12.5295   17.7807 H   0  0  0  0  0  0
  -27.6989  -14.2408   19.5271 H   0  0  0  0  0  0
  -28.6693  -11.9937   21.3525 H   0  0  0  0  0  0
  -28.3620  -13.6380   21.8472 H   0  0  0  0  0  0
  -25.2763   -9.5709   22.4796 H   0  0  0  0  0  0
  -24.0005   -7.4660   22.7493 H   0  0  0  0  0  0
  -21.0815   -8.8833   19.8949 H   0  0  0  0  0  0
  -22.3722  -10.9718   19.6168 H   0  0  0  0  0  0
  -21.2139   -7.6168   23.9793 H   0  0  0  0  0  0
  -21.1449   -6.0441   25.9065 H   0  0  0  0  0  0
  -22.0588   -2.7632   23.2709 H   0  0  0  0  0  0
  -22.4137  -12.0197   22.4781 H   0  0  0  0  0  0
  -21.1132  -13.1570   22.2397 H   0  0  0  0  0  0
  -24.7397  -15.8765   20.6744 H   0  0  0  0  0  0
  -26.3308  -15.6273   20.1640 H   0  0  0  0  0  0
  -26.7158  -32.5500   23.1162 H   0  0  0  0  0  0
  -24.9653  -33.9740   25.0143 H   0  0  0  0  0  0
  -22.7269  -31.3057   21.3959 H   0  0  0  0  0  0
  -23.3729  -35.9647   23.3266 H   0  0  0  0  0  0
  -24.3552  -36.8977   22.2092 H   0  0  0  0  0  0
  -23.7162  -37.6475   23.6746 H   0  0  0  0  0  0
  -26.1451  -31.5627   20.6218 H   0  0  0  0  0  0
  -26.8495  -30.8133   22.0270 H   0  0  0  0  0  0
  -28.1843  -28.9979   21.0085 H   0  0  0  0  0  0
  -25.8266  -25.9389   19.0099 H   0  0  0  0  0  0
  -23.9001  -27.2828   19.1509 H   0  0  0  0  0  0
  -23.7699  -30.5810   19.4058 H   0  0  0  0  0  0
  -22.7696  -29.2362   19.8845 H   0  0  0  0  0  0
  -25.1235  -36.1953   25.0833 H   0  0  0  0  0  0
  -21.0091  -28.3248   24.1437 H   0  0  0  0  0  0
  -20.5607  -26.2284   23.3696 H   0  0  0  0  0  0
  -21.6627  -26.7355   22.1281 H   0  0  0  0  0  0
  -19.6815  -25.6304   21.1289 H   0  0  0  0  0  0
  -19.6631  -27.3209   20.6807 H   0  0  0  0  0  0
  -17.4179  -26.6855   21.4027 H   0  0  0  0  0  0
  -18.0191  -26.0060   22.9014 H   0  0  0  0  0  0
  -19.7947  -30.7278   24.2373 H   0  0  0  0  0  0
  -17.5010  -31.6270   24.5249 H   0  0  0  0  0  0
  -15.5352  -30.3045   23.7538 H   0  0  0  0  0  0
  -15.8744  -28.0846   22.7030 H   0  0  0  0  0  0
  -24.5649  -30.7488   25.7797 H   0  0  0  0  0  0
  -24.8943  -32.3199   26.4974 H   0  0  0  0  0  0
  -25.7802  -30.9050   27.0281 H   0  0  0  0  0  0
  -26.2889  -29.6932   24.1203 H   0  0  0  0  0  0
  -27.3712  -29.7335   25.4896 H   0  0  0  0  0  0
  -27.8854  -30.4349   23.9736 H   0  0  0  0  0  0
  -27.2547  -33.3766   26.2182 H   0  0  0  0  0  0
  -28.3617  -32.7296   25.0204 H   0  0  0  0  0  0
  -28.0914  -31.8695   26.5240 H   0  0  0  0  0  0
  -28.2569  -38.0106   24.7520 H   0  0  0  0  0  0
  -28.1085  -36.2650   24.6127 H   0  0  0  0  0  0
  -27.2388  -37.1286   25.8851 H   0  0  0  0  0  0
  -20.9371  -29.8801   21.6936 H   0  0  0  0  0  0
  -26.0137  -38.2866   24.1453 H   0  0  0  0  0  0
  -29.2482  -20.8677   21.1613 H   0  0  0  0  0  0
  -30.2839  -17.3090   18.8923 H   0  0  0  0  0  0
  -29.0016  -16.8216   24.0070 H   0  0  0  0  0  0
  -30.7516  -17.1015   24.0742 H   0  0  0  0  0  0
  -29.4737  -14.6925   23.2755 H   0  0  0  0  0  0
  -31.1747  -15.0752   23.1305 H   0  0  0  0  0  0
  -27.2956  -20.5684   23.3420 H   0  0  0  0  0  0
  -28.5715  -21.7821   23.1241 H   0  0  0  0  0  0
  -28.1421  -21.2280   24.7261 H   0  0  0  0  0  0
  -31.2551  -19.3119   24.5165 H   0  0  0  0  0  0
  -30.5770  -20.8112   25.1475 H   0  0  0  0  0  0
  -31.2518  -20.7702   23.5373 H   0  0  0  0  0  0
  -29.5948  -19.6196   17.6935 H   0  0  0  0  0  0
  -30.9507  -20.4391   18.3172 H   0  0  0  0  0  0
  -28.0246  -21.4121   18.5010 H   0  0  0  0  0  0
  -29.2381  -21.9771   17.4131 H   0  0  0  0  0  0
  -30.2680  -24.6327   19.1987 H   0  0  0  0  0  0
  -29.1486  -24.2680   17.9385 H   0  0  0  0  0  0
  -28.1064  -24.6198   20.7922 H   0  0  0  0  0  0
  -27.3032  -24.6812   19.2859 H   0  0  0  0  0  0
  -28.8720  -19.0476   24.3639 H   0  0  0  0  0  0
  -30.4509  -22.5905   19.5676 H   0  0  0  0  0  0
  -28.9947  -22.5252   20.2658 H   0  0  0  0  0  0
  1 25  1  0  0  0
  1 30  2  0  0  0
  1 86  1  0  0  0
  2  3  1  0  0  0
  2 25  1  0  0  0
  2 88  1  0  0  0
  2 89  1  0  0  0
  3  4  1  0  0  0
  3 90  1  0  0  0
  3 91  1  0  0  0
  4  5  1  0  0  0
  4 92  1  0  0  0
  4 93  1  0  0  0
  5  6  1  0  0  0
  5 26  1  0  0  0
  5 94  1  0  0  0
  6 25  1  0  0  0
  6 95  1  0  0  0
  6 96  1  0  0  0
  7  8  2  0  0  0
  7 26  1  0  0  0
  7 29  1  0  0  0
  8  9  1  0  0  0
  8 22  1  0  0  0
  9 10  1  0  0  0
  9 27  2  0  0  0
 10 11  2  0  0  0
 10 15  1  0  0  0
 11 12  1  0  0  0
 11 97  1  0  0  0
 12 13  2  0  0  0
 12 98  1  0  0  0
 13 14  1  0  0  0
 13 31  1  0  0  0
 14 15  2  0  0  0
 14 99  1  0  0  0
 15100  1  0  0  0
 16 17  2  0  0  0
 16 21  1  0  0  0
 16 31  1  0  0  0
 17 18  1  0  0  0
 17101  1  0  0  0
 18 19  2  0  0  0
 18102  1  0  0  0
 19 20  1  0  0  0
 19 24  1  0  0  0
 20 21  2  0  0  0
 20103  1  0  0  0
 21 23  1  0  0  0
 22 28  1  0  0  0
 22 32  2  0  0  0
 26 27  1  0  0  0
 28104  1  0  0  0
 28105  1  0  0  0
 29106  1  0  0  0
 29107  1  0  0  0
 33 34  1  0  0  0
 33 66  1  0  0  0
 33 70  2  0  0  0
 34 36  1  0  0  0
 34 59  1  0  0  0
 34108  1  0  0  0
 35 44  2  0  0  0
 35 45  1  0  0  0
 35 68  1  0  0  0
 36 56  1  0  0  0
 36109  1  0  0  0
 37 39  1  0  0  0
 37 47  1  0  0  0
 37 66  1  0  0  0
 37110  1  0  0  0
 38 43  2  0  0  0
 38 46  1  0  0  0
 38 47  1  0  0  0
 39 64  1  0  0  0
 39 67  2  0  0  0
 40 52  1  0  0  0
 40 53  2  0  0  0
 40 58  1  0  0  0
 41111  1  0  0  0
 41112  1  0  0  0
 41113  1  0  0  0
 41 48  1  0  0  0
 42 43  1  0  0  0
 42 66  1  0  0  0
 42114  1  0  0  0
 42115  1  0  0  0
 43 44  1  0  0  0
 44116  1  0  0  0
 45 46  2  0  0  0
 45117  1  0  0  0
 46118  1  0  0  0
 47119  1  0  0  0
 47120  1  0  0  0
 48 56  1  0  0  0
 48 65  1  0  0  0
 48121  1  0  0  0
 49 50  1  0  0  0
 49 53  1  0  0  0
 49 64  1  0  0  0
 49122  1  0  0  0
 50 51  1  0  0  0
 50123  1  0  0  0
 50124  1  0  0  0
 51 52  1  0  0  0
 51125  1  0  0  0
 51126  1  0  0  0
 52127  1  0  0  0
 52128  1  0  0  0
 53 54  1  0  0  0
 54 55  2  0  0  0
 54129  1  0  0  0
 55 57  1  0  0  0
 55130  1  0  0  0
 56 69  2  0  0  0
 57 58  2  0  0  0
 57131  1  0  0  0
 58132  1  0  0  0
 59 60  1  0  0  0
 59 61  1  0  0  0
 59 62  1  0  0  0
 60133  1  0  0  0
 60134  1  0  0  0
 60135  1  0  0  0
 61136  1  0  0  0
 61137  1  0  0  0
 61138  1  0  0  0
 62139  1  0  0  0
 62140  1  0  0  0
 62141  1  0  0  0
 63 65  1  0  0  0
 63142  1  0  0  0
 63143  1  0  0  0
 63144  1  0  0  0
 64145  1  0  0  0
 65146  1  0  0  0
 68 84  1  0  0  0
 71 74  2  0  0  0
 71 75  1  0  0  0
 71147  1  0  0  0
 72 74  1  0  0  0
 72 76  2  0  0  0
 72148  1  0  0  0
 73 75  2  0  0  0
 73 76  1  0  0  0
 73 77  1  0  0  0
 74 81  1  0  0  0
 75 85  1  0  0  0
 76 86  1  0  0  0
 77 78  1  0  0  0
 77149  1  0  0  0
 77150  1  0  0  0
 78 86  1  0  0  0
 78151  1  0  0  0
 78152  1  0  0  0
 79153  1  0  0  0
 79154  1  0  0  0
 79155  1  0  0  0
 79 85  1  0  0  0
 80 85  1  0  0  0
 80156  1  0  0  0
 80157  1  0  0  0
 80158  1  0  0  0
 81 82  1  0  0  0
 81159  1  0  0  0
 81160  1  0  0  0
 82 87  1  0  0  0
 82161  1  0  0  0
 82162  1  0  0  0
 83 84  1  0  0  0
 83 87  1  0  0  0
 83163  1  0  0  0
 83164  1  0  0  0
 84165  1  0  0  0
 84166  1  0  0  0
 85167  1  0  0  0
 87168  1  0  0  0
 87169  1  0  0  0
M  CHG  1  87   1
M  ISO  4   1 100  68 101  84 101  86 100
M  END
> <chiral flag>
0

> <version>
0

> <s_m_source_file>
/data/baiqing/PycharmProjects/Reinvent-master-3.2/result/LINK_invent/BTK/process_docking_weight1_custom_sum_contain_oxygen_bond_distance_aromatic_linkinvent_7_9_3/rearranged_h_0150.sdf

> <i_m_source_file_index>
41

> <r_mmod_Potential_Energy-OPLS-2005>
201.542816162109

> <r_mmod_Stretch_Energy-OPLS-2005>
107.717712402344

> <r_mmod_Bend_Energy-OPLS-2005>
237.966201782227

> <r_mmod_Torsional_Energy-OPLS-2005>
313.368560791016

> <r_mmod_Improper_Torsional_Energy-OPLS-2005>
3.93101501464844

> <r_mmod_Van_der_Waal_Energy-OPLS-2005>
142.068435668945

> <r_mmod_Electrostatic_Energy-OPLS-2005>
-206.232879638672

> <r_mmod_Solvation_Energy-OPLS-2005>
-439.835540771484

> <b_mmod_Minimization_Converged-OPLS-2005>
0

> <r_mmod_RMS_Derivative-OPLS-2005>
13.3247880935669

$$$$
41
                    3D
 Structure written by MMmdl.
167177  0  0  1  0            999 V2000
  -30.7425  -14.4805   20.6252 C   0  0  0  0  0  0
  -30.4231  -12.3365   19.4216 C   0  0  0  0  0  0
  -29.4860  -12.4902   18.2080 C   0  0  0  0  0  0
  -28.0172  -12.3056   18.6303 C   0  0  0  0  0  0
  -27.6547  -13.1721   19.8583 C   0  0  2  0  0  0
  -28.7014  -12.9830   20.9871 C   0  0  0  0  0  0
  -25.2610  -13.8082   20.5650 C   0  0  0  0  0  0
  -24.1837  -13.0422   20.9177 C   0  0  0  0  0  0
  -24.6342  -11.6863   20.8747 C   0  0  0  0  0  0
  -23.8995  -10.4278   21.0424 C   0  0  0  0  0  0
  -24.3565   -9.4202   21.9204 C   0  0  0  0  0  0
  -23.6257   -8.2234   22.0760 C   0  0  0  0  0  0
  -22.4243   -8.0266   21.3547 C   0  0  0  0  0  0
  -21.9882   -9.0229   20.4641 C   0  0  0  0  0  0
  -22.7191  -10.2118   20.3054 C   0  0  0  0  0  0
  -21.6834   -6.0727   22.5275 C   0  0  0  0  0  0
  -21.4003   -6.5634   23.8213 C   0  0  0  0  0  0
  -21.3661   -5.6795   24.9178 C   0  0  0  0  0  0
  -21.6035   -4.3056   24.7230 C   0  0  0  0  0  0
  -21.8823   -3.8144   23.4350 C   0  0  0  0  0  0
  -21.9184   -4.6957   22.3402 C   0  0  0  0  0  0
  -22.7868  -13.5246   21.1842 C   0  0  0  0  0  0
  -22.1655   -4.2142   21.0980 F   0  0  0  0  0  0
  -21.5632   -3.4538   25.7747 F   0  0  0  0  0  0
  -30.0273  -13.3263   20.4438 N   0  0  0  0  0  0
  -26.2981  -12.9169   20.3295 N   0  0  0  0  0  0
  -25.9242  -11.6377   20.5760 N   0  0  0  0  0  0
  -22.0499  -12.8229   22.0391 N   0  0  0  0  0  0
  -25.4411  -15.1797   20.4018 N   0  0  0  0  0  0
  -31.8343  -14.6436   20.0684 O   0  0  0  0  0  0
  -21.6616   -6.8861   21.4239 O   0  0  0  0  0  0
  -22.3572  -14.5575   20.6716 O   0  0  0  0  0  0
  -24.6115  -31.8713   23.2156 C   0  0  0  0  0  0
  -25.9017  -32.4841   23.8442 C   0  0  1  0  0  0
  -27.2262  -27.4459   20.0900 C   0  0  0  0  0  0
  -25.5895  -33.8648   24.2365 N   0  0  0  0  0  0
  -23.3966  -30.4979   21.5570 C   0  0  2  0  0  0
  -24.8419  -28.9752   20.1098 C   0  0  0  0  0  0
  -22.7381  -29.4672   22.5009 C   0  0  0  0  0  0
  -18.0258  -28.1365   22.8506 C   0  0  0  0  0  0
  -24.1483  -36.7331   23.2642 C   0  0  0  0  0  0
  -25.9258  -30.8424   21.3647 C   0  0  0  0  0  0
  -26.0027  -29.4801   20.7097 C   0  0  0  0  0  0
  -27.1972  -28.7234   20.6952 C   0  0  0  0  0  0
  -26.0463  -26.9667   19.4678 C   0  0  0  0  0  0
  -24.8609  -27.7208   19.4816 C   0  0  0  0  0  0
  -23.6011  -29.8373   20.1675 C   0  0  0  0  0  0
  -25.4102  -36.3131   24.0337 C   0  0  1  0  0  0
  -20.5849  -28.3649   23.1339 C   0  0  2  0  0  0
  -20.6752  -26.9387   22.5414 C   0  0  0  0  0  0
  -19.5723  -26.6382   21.5204 C   0  0  0  0  0  0
  -18.1900  -26.7922   22.1608 C   0  0  0  0  0  0
  -19.1509  -28.8816   23.2926 C   0  0  0  0  0  0
  -18.9436  -30.1431   23.8916 C   0  0  0  0  0  0
  -17.6441  -30.6579   24.0562 C   0  0  0  0  0  0
  -25.9023  -34.9487   23.5142 C   0  0  0  0  0  0
  -16.5333  -29.9081   23.6320 C   0  0  0  0  0  0
  -16.7250  -28.6488   23.0365 C   0  0  0  0  0  0
  -26.4463  -31.6610   25.0751 C   0  0  0  0  0  0
  -25.3746  -31.3678   26.1505 C   0  0  0  0  0  0
  -27.0289  -30.3065   24.6087 C   0  0  0  0  0  0
  -27.6059  -32.4313   25.7509 C   0  0  0  0  0  0
  -27.5581  -37.1827   24.8449 C   0  0  0  0  0  0
  -21.4104  -29.3043   22.3759 N   0  0  0  0  0  0
  -26.4295  -37.3804   23.9401 N   0  0  0  0  0  0
  -24.6634  -31.0827   22.1049 N   0  0  0  0  0  0
  -23.4168  -28.8183   23.3018 O   0  0  0  0  0  0
  -28.3944  -26.7102   20.1256 O   0  0  0  0  0  0
  -26.5575  -34.8926   22.4697 O   0  0  0  0  0  0
  -23.5304  -32.1471   23.7551 O   0  0  0  0  0  0
  -28.8964  -21.9106   22.7968 C   0  0  0  0  0  0
  -30.3701  -20.4905   20.9829 C   0  0  0  0  0  0
  -28.9846  -20.5186   22.9746 C   0  0  0  0  0  0
  -29.7620  -19.7823   22.0452 C   0  0  0  0  0  0
  -29.5206  -22.5234   21.7055 C   0  0  0  0  0  0
  -26.9493  -19.1452   23.9146 C   0  0  0  0  0  0
  -26.9685  -20.4459   24.6788 C   0  0  0  0  0  0
  -28.9797  -17.5118   21.2047 C   0  0  0  0  0  0
  -31.3103  -17.6777   22.0511 C   0  0  0  0  0  0
  -28.9670  -16.0152   21.5567 C   0  0  0  0  0  0
  -31.2809  -16.1577   22.3664 C   0  0  0  0  0  0
  -28.2567  -19.8780   24.1261 C   0  0  0  0  0  0
  -29.8935  -18.2597   22.1721 C   0  0  0  0  0  0
  -28.2602  -25.2896   19.9790 C   0  0  0  0  0  0
  -29.5580  -24.5310   20.3159 C   0  0  0  0  0  0
  -30.2523  -21.8280   20.8078 N   0  0  0  0  0  0
  -30.3115  -15.4007   21.5381 N   0  0  0  0  0  0
  -29.4004  -23.8923   21.5851 O   0  0  0  0  0  0
  -31.4614  -12.4440   19.1047 H   0  0  0  0  0  0
  -30.3522  -11.3296   19.8367 H   0  0  0  0  0  0
  -29.7447  -11.7595   17.4409 H   0  0  0  0  0  0
  -29.6202  -13.4733   17.7536 H   0  0  0  0  0  0
  -27.8667  -11.2511   18.8674 H   0  0  0  0  0  0
  -27.3490  -12.5263   17.7977 H   0  0  0  0  0  0
  -27.6760  -14.1893   19.4791 H   0  0  0  0  0  0
  -28.7047  -11.9443   21.3202 H   0  0  0  0  0  0
  -28.4446  -13.5455   21.8833 H   0  0  0  0  0  0
  -25.2704   -9.5691   22.4785 H   0  0  0  0  0  0
  -23.9968   -7.4629   22.7484 H   0  0  0  0  0  0
  -21.0823   -8.8728   19.8932 H   0  0  0  0  0  0
  -22.3650  -10.9649   19.6155 H   0  0  0  0  0  0
  -21.1994   -7.6145   23.9714 H   0  0  0  0  0  0
  -21.1476   -6.0524   25.9084 H   0  0  0  0  0  0
  -22.0598   -2.7604   23.2853 H   0  0  0  0  0  0
  -22.4076  -11.9829   22.4700 H   0  0  0  0  0  0
  -21.1136  -13.1279   22.2633 H   0  0  0  0  0  0
  -24.6833  -15.8446   20.5110 H   0  0  0  0  0  0
  -26.2992  -15.6076   20.0814 H   0  0  0  0  0  0
  -26.7088  -32.5562   23.1212 H   0  0  0  0  0  0
  -25.0063  -33.9832   25.0521 H   0  0  0  0  0  0
  -22.6829  -31.3134   21.4243 H   0  0  0  0  0  0
  -23.3748  -35.9655   23.3273 H   0  0  0  0  0  0
  -24.3569  -36.8992   22.2062 H   0  0  0  0  0  0
  -23.7233  -37.6520   23.6689 H   0  0  0  0  0  0
  -26.0300  -31.6097   20.5964 H   0  0  0  0  0  0
  -26.8174  -30.8993   21.9773 H   0  0  0  0  0  0
  -28.0935  -29.1097   21.1618 H   0  0  0  0  0  0
  -26.0171  -26.0182   18.9544 H   0  0  0  0  0  0
  -23.9739  -27.3377   18.9966 H   0  0  0  0  0  0
  -23.6983  -30.6180   19.4122 H   0  0  0  0  0  0
  -22.7236  -29.2553   19.8748 H   0  0  0  0  0  0
  -25.1278  -36.2011   25.0831 H   0  0  0  0  0  0
  -20.9942  -28.3205   24.1461 H   0  0  0  0  0  0
  -20.5672  -26.2234   23.3574 H   0  0  0  0  0  0
  -21.6618  -26.7438   22.1200 H   0  0  0  0  0  0
  -19.6874  -25.6299   21.1222 H   0  0  0  0  0  0
  -19.6669  -27.3190   20.6741 H   0  0  0  0  0  0
  -17.4179  -26.6703   21.4003 H   0  0  0  0  0  0
  -18.0266  -26.0041   22.8980 H   0  0  0  0  0  0
  -19.7909  -30.7241   24.2300 H   0  0  0  0  0  0
  -17.4993  -31.6268   24.5142 H   0  0  0  0  0  0
  -15.5331  -30.2988   23.7632 H   0  0  0  0  0  0
  -15.8648  -28.0807   22.7084 H   0  0  0  0  0  0
  -24.5899  -30.7061   25.7827 H   0  0  0  0  0  0
  -24.8957  -32.2816   26.5028 H   0  0  0  0  0  0
  -25.8113  -30.8782   27.0221 H   0  0  0  0  0  0
  -26.2815  -29.6819   24.1184 H   0  0  0  0  0  0
  -27.4129  -29.7304   25.4519 H   0  0  0  0  0  0
  -27.8620  -30.4401   23.9183 H   0  0  0  0  0  0
  -27.2741  -33.3684   26.1986 H   0  0  0  0  0  0
  -28.3924  -32.6737   25.0355 H   0  0  0  0  0  0
  -28.0635  -31.8471   26.5498 H   0  0  0  0  0  0
  -28.2578  -38.0144   24.7517 H   0  0  0  0  0  0
  -28.1108  -36.2674   24.6266 H   0  0  0  0  0  0
  -27.2287  -37.1472   25.8846 H   0  0  0  0  0  0
  -20.9218  -29.8840   21.7082 H   0  0  0  0  0  0
  -26.0181  -38.2887   24.1396 H   0  0  0  0  0  0
  -28.3299  -22.5209   23.4861 H   0  0  0  0  0  0
  -30.9615  -19.9736   20.2412 H   0  0  0  0  0  0
  -26.5002  -19.1671   22.9229 H   0  0  0  0  0  0
  -26.7667  -18.2433   24.4940 H   0  0  0  0  0  0
  -26.8206  -20.3931   25.7555 H   0  0  0  0  0  0
  -26.5195  -21.3062   24.1884 H   0  0  0  0  0  0
  -27.9646  -17.9053   21.2707 H   0  0  0  0  0  0
  -29.3008  -17.6614   20.1726 H   0  0  0  0  0  0
  -31.7219  -17.8505   21.0559 H   0  0  0  0  0  0
  -31.9751  -18.1791   22.7566 H   0  0  0  0  0  0
  -28.2883  -15.5604   20.8541 H   0  0  0  0  0  0
  -28.5266  -15.8691   22.5440 H   0  0  0  0  0  0
  -31.0040  -16.0121   23.4114 H   0  0  0  0  0  0
  -32.2916  -15.7527   22.2830 H   0  0  0  0  0  0
  -28.9611  -19.4625   24.8449 H   0  0  0  0  0  0
  -29.5727  -17.9888   23.1745 H   0  0  0  0  0  0
  -27.4522  -24.9229   20.6173 H   0  0  0  0  0  0
  -27.9854  -25.0578   18.9496 H   0  0  0  0  0  0
  -30.4033  -25.2161   20.3669 H   0  0  0  0  0  0
  -29.7701  -23.8423   19.4982 H   0  0  0  0  0  0
  1 25  1  0  0  0
  1 30  2  0  0  0
  1 87  1  0  0  0
  2  3  1  0  0  0
  2 25  1  0  0  0
  2 89  1  0  0  0
  2 90  1  0  0  0
  3  4  1  0  0  0
  3 91  1  0  0  0
  3 92  1  0  0  0
  4  5  1  0  0  0
  4 93  1  0  0  0
  4 94  1  0  0  0
  5  6  1  0  0  0
  5 26  1  0  0  0
  5 95  1  0  0  0
  6 25  1  0  0  0
  6 96  1  0  0  0
  6 97  1  0  0  0
  7  8  2  0  0  0
  7 26  1  0  0  0
  7 29  1  0  0  0
  8  9  1  0  0  0
  8 22  1  0  0  0
  9 10  1  0  0  0
  9 27  2  0  0  0
 10 11  2  0  0  0
 10 15  1  0  0  0
 11 12  1  0  0  0
 11 98  1  0  0  0
 12 13  2  0  0  0
 12 99  1  0  0  0
 13 14  1  0  0  0
 13 31  1  0  0  0
 14 15  2  0  0  0
 14100  1  0  0  0
 15101  1  0  0  0
 16 17  2  0  0  0
 16 21  1  0  0  0
 16 31  1  0  0  0
 17 18  1  0  0  0
 17102  1  0  0  0
 18 19  2  0  0  0
 18103  1  0  0  0
 19 20  1  0  0  0
 19 24  1  0  0  0
 20 21  2  0  0  0
 20104  1  0  0  0
 21 23  1  0  0  0
 22 28  1  0  0  0
 22 32  2  0  0  0
 26 27  1  0  0  0
 28105  1  0  0  0
 28106  1  0  0  0
 29107  1  0  0  0
 29108  1  0  0  0
 33 34  1  0  0  0
 33 66  1  0  0  0
 33 70  2  0  0  0
 34 36  1  0  0  0
 34 59  1  0  0  0
 34109  1  0  0  0
 35 44  2  0  0  0
 35 45  1  0  0  0
 35 68  1  0  0  0
 36 56  1  0  0  0
 36110  1  0  0  0
 37 39  1  0  0  0
 37 47  1  0  0  0
 37 66  1  0  0  0
 37111  1  0  0  0
 38 43  2  0  0  0
 38 46  1  0  0  0
 38 47  1  0  0  0
 39 64  1  0  0  0
 39 67  2  0  0  0
 40 52  1  0  0  0
 40 53  2  0  0  0
 40 58  1  0  0  0
 41112  1  0  0  0
 41113  1  0  0  0
 41114  1  0  0  0
 41 48  1  0  0  0
 42 43  1  0  0  0
 42 66  1  0  0  0
 42115  1  0  0  0
 42116  1  0  0  0
 43 44  1  0  0  0
 44117  1  0  0  0
 45 46  2  0  0  0
 45118  1  0  0  0
 46119  1  0  0  0
 47120  1  0  0  0
 47121  1  0  0  0
 48 56  1  0  0  0
 48 65  1  0  0  0
 48122  1  0  0  0
 49 50  1  0  0  0
 49 53  1  0  0  0
 49 64  1  0  0  0
 49123  1  0  0  0
 50 51  1  0  0  0
 50124  1  0  0  0
 50125  1  0  0  0
 51 52  1  0  0  0
 51126  1  0  0  0
 51127  1  0  0  0
 52128  1  0  0  0
 52129  1  0  0  0
 53 54  1  0  0  0
 54 55  2  0  0  0
 54130  1  0  0  0
 55 57  1  0  0  0
 55131  1  0  0  0
 56 69  2  0  0  0
 57 58  2  0  0  0
 57132  1  0  0  0
 58133  1  0  0  0
 59 60  1  0  0  0
 59 61  1  0  0  0
 59 62  1  0  0  0
 60134  1  0  0  0
 60135  1  0  0  0
 60136  1  0  0  0
 61137  1  0  0  0
 61138  1  0  0  0
 61139  1  0  0  0
 62140  1  0  0  0
 62141  1  0  0  0
 62142  1  0  0  0
 63 65  1  0  0  0
 63143  1  0  0  0
 63144  1  0  0  0
 63145  1  0  0  0
 64146  1  0  0  0
 65147  1  0  0  0
 68 84  1  0  0  0
 71 73  2  0  0  0
 71 75  1  0  0  0
 71148  1  0  0  0
 72 74  2  0  0  0
 72 86  1  0  0  0
 72149  1  0  0  0
 73 74  1  0  0  0
 73 82  1  0  0  0
 74 83  1  0  0  0
 75 86  2  0  0  0
 75 88  1  0  0  0
 76 77  1  0  0  0
 76 82  1  0  0  0
 76150  1  0  0  0
 76151  1  0  0  0
 77 82  1  0  0  0
 77152  1  0  0  0
 77153  1  0  0  0
 78 80  1  0  0  0
 78 83  1  0  0  0
 78154  1  0  0  0
 78155  1  0  0  0
 79 81  1  0  0  0
 79 83  1  0  0  0
 79156  1  0  0  0
 79157  1  0  0  0
 80 87  1  0  0  0
 80158  1  0  0  0
 80159  1  0  0  0
 81 87  1  0  0  0
 81160  1  0  0  0
 81161  1  0  0  0
 82162  1  0  0  0
 83163  1  0  0  0
 84 85  1  0  0  0
 84164  1  0  0  0
 84165  1  0  0  0
 85 88  1  0  0  0
 85166  1  0  0  0
 85167  1  0  0  0
M  ISO  4   1 100  68 101  84 101  87 100
M  END
> <chiral flag>
0

> <version>
0

> <s_m_source_file>
/data/baiqing/PycharmProjects/Reinvent-master-3.2/result/LINK_invent/BTK/process_docking_weight1_custom_sum_contain_oxygen_bond_distance_aromatic_linkinvent_7_9_3/rearranged_h_0150.sdf

> <i_m_source_file_index>
42

> <r_mmod_Potential_Energy-OPLS-2005>
5.76690340042114

> <r_mmod_Stretch_Energy-OPLS-2005>
41.5336761474609

> <r_mmod_Bend_Energy-OPLS-2005>
123.879188537598

> <r_mmod_Torsional_Energy-OPLS-2005>
323.989501953125

> <r_mmod_Improper_Torsional_Energy-OPLS-2005>
3.64344620704651

> <r_mmod_Van_der_Waal_Energy-OPLS-2005>
179.721939086914

> <r_mmod_Electrostatic_Energy-OPLS-2005>
-473.491485595703

> <r_mmod_Solvation_Energy-OPLS-2005>
-207.960296630859

> <b_mmod_Minimization_Converged-OPLS-2005>
0

> <r_mmod_RMS_Derivative-OPLS-2005>
2.75285887718201

$$$$
42
                    3D
 Structure written by MMmdl.
152162  0  0  1  0            999 V2000
  -30.5419  -14.9868   20.4125 C   0  0  0  0  0  0
  -30.4448  -12.6165   19.5073 C   0  0  0  0  0  0
  -29.5216  -12.5343   18.2685 C   0  0  0  0  0  0
  -28.0609  -12.3057   18.6890 C   0  0  0  0  0  0
  -27.6310  -13.2503   19.8404 C   0  0  2  0  0  0
  -28.6727  -13.3089   20.9782 C   0  0  0  0  0  0
  -25.2471  -13.8229   20.5721 C   0  0  0  0  0  0
  -24.1795  -13.0462   20.9234 C   0  0  0  0  0  0
  -24.6404  -11.6940   20.8763 C   0  0  0  0  0  0
  -23.9101  -10.4304   21.0429 C   0  0  0  0  0  0
  -24.3654   -9.4216   21.9210 C   0  0  0  0  0  0
  -23.6320   -8.2254   22.0763 C   0  0  0  0  0  0
  -22.4297   -8.0298   21.3538 C   0  0  0  0  0  0
  -21.9947   -9.0284   20.4655 C   0  0  0  0  0  0
  -22.7286  -10.2155   20.3078 C   0  0  0  0  0  0
  -21.6859   -6.0763   22.5283 C   0  0  0  0  0  0
  -21.4022   -6.5663   23.8216 C   0  0  0  0  0  0
  -21.3654   -5.6805   24.9171 C   0  0  0  0  0  0
  -21.6026   -4.3066   24.7217 C   0  0  0  0  0  0
  -21.8819   -3.8169   23.4335 C   0  0  0  0  0  0
  -21.9199   -4.6986   22.3399 C   0  0  0  0  0  0
  -22.7810  -13.5210   21.1871 C   0  0  0  0  0  0
  -22.1663   -4.2180   21.0972 F   0  0  0  0  0  0
  -21.5623   -3.4544   25.7723 F   0  0  0  0  0  0
  -29.9483  -13.7218   20.3783 N   0  0  0  0  0  0
  -26.2900  -12.9465   20.3278 N   0  0  0  0  0  0
  -25.9350  -11.6597   20.5811 N   0  0  0  0  0  0
  -22.0466  -12.8203   22.0417 N   0  0  0  0  0  0
  -25.4144  -15.1966   20.4143 N   0  0  0  0  0  0
  -31.7434  -15.0454   20.1282 O   0  0  0  0  0  0
  -21.6635   -6.8915   21.4251 O   0  0  0  0  0  0
  -22.3498  -14.5506   20.6689 O   0  0  0  0  0  0
  -24.6450  -31.8416   23.1845 C   0  0  0  0  0  0
  -25.9211  -32.4689   23.8249 C   0  0  1  0  0  0
  -27.2312  -27.1196   20.1594 C   0  0  0  0  0  0
  -25.5952  -33.8489   24.2168 N   0  0  0  0  0  0
  -23.4499  -30.4571   21.5294 C   0  0  2  0  0  0
  -24.9028  -28.8728   20.1175 C   0  0  0  0  0  0
  -22.7577  -29.4534   22.4853 C   0  0  0  0  0  0
  -18.0307  -28.1404   22.8471 C   0  0  0  0  0  0
  -24.1495  -36.7243   23.2637 C   0  0  0  0  0  0
  -26.0065  -30.7106   21.3850 C   0  0  0  0  0  0
  -26.0805  -29.3168   20.7319 C   0  0  0  0  0  0
  -27.2462  -28.4595   20.7288 C   0  0  0  0  0  0
  -26.0238  -26.7742   19.5176 C   0  0  0  0  0  0
  -24.8870  -27.6151   19.4947 C   0  0  0  0  0  0
  -23.6787  -29.7752   20.1538 C   0  0  0  0  0  0
  -25.4130  -36.3014   24.0307 C   0  0  1  0  0  0
  -20.5918  -28.3729   23.1236 C   0  0  2  0  0  0
  -20.6789  -26.9432   22.5409 C   0  0  0  0  0  0
  -19.5764  -26.6385   21.5212 C   0  0  0  0  0  0
  -18.1949  -26.7936   22.1621 C   0  0  0  0  0  0
  -19.1567  -28.8879   23.2837 C   0  0  0  0  0  0
  -18.9473  -30.1478   23.8866 C   0  0  0  0  0  0
  -17.6475  -30.6594   24.0558 C   0  0  0  0  0  0
  -25.9082  -34.9396   23.5054 C   0  0  0  0  0  0
  -16.5360  -29.9094   23.6337 C   0  0  0  0  0  0
  -16.7293  -28.6517   23.0350 C   0  0  0  0  0  0
  -26.4533  -31.6552   25.0695 C   0  0  0  0  0  0
  -25.3708  -31.3748   26.1379 C   0  0  0  0  0  0
  -27.0405  -30.2945   24.6292 C   0  0  0  0  0  0
  -27.6058  -32.4321   25.7485 C   0  0  0  0  0  0
  -27.5576  -37.1785   24.8473 C   0  0  0  0  0  0
  -21.4259  -29.3049   22.3599 N   0  0  0  0  0  0
  -26.4298  -37.3734   23.9397 N   0  0  0  0  0  0
  -24.7195  -31.0258   22.0890 N   0  0  0  0  0  0
  -23.4210  -28.8074   23.3008 O   0  0  0  0  0  0
  -28.3083  -26.1547   20.1622 O   0  0  0  0  0  0
  -26.5668  -34.8906   22.4633 O   0  0  0  0  0  0
  -23.5564  -32.1292   23.7065 O   0  0  0  0  0  0
  -30.4794  -21.4810   21.1195 C   0  0  0  0  0  0
  -29.4767  -20.3603   21.4771 C   0  0  1  0  0  0
  -30.0240  -22.3610   19.9316 C   0  0  1  0  0  0
  -28.4226  -20.4387   20.4132 C   0  0  1  0  0  0
  -28.7348  -21.7270   19.4773 C   0  0  1  0  0  0
  -29.0657  -18.9856   20.8360 C   0  0  2  0  0  0
  -28.8545  -23.3572   19.6268 C   0  0  2  0  0  0
  -30.0176  -17.7339   20.2702 C   0  0  0  0  0  0
  -28.1434  -24.6171   20.4546 C   0  0  0  0  0  0
  -29.7640  -16.1785   20.5494 N   0  0  0  0  0  0
  -31.4719  -12.7857   19.1844 H   0  0  0  0  0  0
  -30.4607  -11.6773   20.0621 H   0  0  0  0  0  0
  -29.8519  -11.7368   17.6044 H   0  0  0  0  0  0
  -29.5856  -13.4606   17.6974 H   0  0  0  0  0  0
  -27.9627  -11.2657   19.0040 H   0  0  0  0  0  0
  -27.3944  -12.4301   17.8364 H   0  0  0  0  0  0
  -27.5880  -14.2437   19.3923 H   0  0  0  0  0  0
  -28.7687  -12.3466   21.4824 H   0  0  0  0  0  0
  -28.3639  -14.0318   21.7331 H   0  0  0  0  0  0
  -25.2812   -9.5661   22.4779 H   0  0  0  0  0  0
  -24.0024   -7.4631   22.7471 H   0  0  0  0  0  0
  -21.0889   -8.8824   19.8955 H   0  0  0  0  0  0
  -22.3781  -10.9702   19.6172 H   0  0  0  0  0  0
  -21.2024   -7.6176   23.9728 H   0  0  0  0  0  0
  -21.1463   -6.0535   25.9069 H   0  0  0  0  0  0
  -22.0605   -2.7639   23.2819 H   0  0  0  0  0  0
  -22.4144  -11.9881   22.4779 H   0  0  0  0  0  0
  -21.1064  -13.1205   22.2640 H   0  0  0  0  0  0
  -24.6416  -15.8453   20.5197 H   0  0  0  0  0  0
  -26.2542  -15.6357   20.0629 H   0  0  0  0  0  0
  -26.7275  -32.5300   23.0969 H   0  0  0  0  0  0
  -25.0068  -33.9596   25.0292 H   0  0  0  0  0  0
  -22.7542  -31.2832   21.3693 H   0  0  0  0  0  0
  -23.3766  -35.9577   23.3311 H   0  0  0  0  0  0
  -24.3558  -36.8873   22.2053 H   0  0  0  0  0  0
  -23.7275  -37.6447   23.6676 H   0  0  0  0  0  0
  -26.1627  -31.4631   20.6092 H   0  0  0  0  0  0
  -26.8766  -30.7658   22.0275 H   0  0  0  0  0  0
  -28.1479  -28.7988   21.2172 H   0  0  0  0  0  0
  -25.9469  -25.8113   19.0328 H   0  0  0  0  0  0
  -23.9860  -27.2679   19.0055 H   0  0  0  0  0  0
  -23.8205  -30.5442   19.3960 H   0  0  0  0  0  0
  -22.7944  -29.2170   19.8403 H   0  0  0  0  0  0
  -25.1331  -36.1829   25.0810 H   0  0  0  0  0  0
  -21.0012  -28.3332   24.1349 H   0  0  0  0  0  0
  -20.5684  -26.2341   23.3627 H   0  0  0  0  0  0
  -21.6657  -26.7430   22.1200 H   0  0  0  0  0  0
  -19.6925  -25.6289   21.1261 H   0  0  0  0  0  0
  -19.6706  -27.3182   20.6733 H   0  0  0  0  0  0
  -17.4210  -26.6673   21.4033 H   0  0  0  0  0  0
  -18.0347  -26.0088   22.9029 H   0  0  0  0  0  0
  -19.7954  -30.7303   24.2225 H   0  0  0  0  0  0
  -17.5027  -31.6270   24.5171 H   0  0  0  0  0  0
  -15.5368  -30.2982   23.7678 H   0  0  0  0  0  0
  -15.8687  -28.0827   22.7075 H   0  0  0  0  0  0
  -24.5903  -30.7080   25.7688 H   0  0  0  0  0  0
  -24.8876  -32.2938   26.4713 H   0  0  0  0  0  0
  -25.7978  -30.8976   27.0206 H   0  0  0  0  0  0
  -26.3030  -29.6651   24.1301 H   0  0  0  0  0  0
  -27.4009  -29.7260   25.4872 H   0  0  0  0  0  0
  -27.8937  -30.4169   23.9618 H   0  0  0  0  0  0
  -27.2650  -33.3647   26.1990 H   0  0  0  0  0  0
  -28.3911  -32.6837   25.0344 H   0  0  0  0  0  0
  -28.0676  -31.8490   26.5461 H   0  0  0  0  0  0
  -28.2603  -38.0063   24.7477 H   0  0  0  0  0  0
  -28.1056  -36.2594   24.6356 H   0  0  0  0  0  0
  -27.2271  -37.1499   25.8867 H   0  0  0  0  0  0
  -20.9476  -29.8749   21.6755 H   0  0  0  0  0  0
  -26.0156  -38.2806   24.1381 H   0  0  0  0  0  0
  -31.4389  -21.0220   20.8664 H   0  0  0  0  0  0
  -30.6504  -22.1147   21.9900 H   0  0  0  0  0  0
  -29.1345  -20.4602   22.5078 H   0  0  0  0  0  0
  -30.8268  -22.4527   19.1988 H   0  0  0  0  0  0
  -27.3926  -20.4883   20.7629 H   0  0  0  0  0  0
  -28.6760  -21.4476   18.4251 H   0  0  0  0  0  0
  -28.3407  -18.4724   21.4653 H   0  0  0  0  0  0
  -28.9440  -23.7732   18.6219 H   0  0  0  0  0  0
  -31.0311  -17.9464   20.6123 H   0  0  0  0  0  0
  -30.0717  -17.8457   19.1868 H   0  0  0  0  0  0
  -28.4177  -24.4852   21.5020 H   0  0  0  0  0  0
  -27.0754  -24.4050   20.4349 H   0  0  0  0  0  0
  -28.8107  -15.9775   20.8102 H   0  0  0  0  0  0
  1 25  1  0  0  0
  1 30  2  0  0  0
  1 80  1  0  0  0
  2  3  1  0  0  0
  2 25  1  0  0  0
  2 81  1  0  0  0
  2 82  1  0  0  0
  3  4  1  0  0  0
  3 83  1  0  0  0
  3 84  1  0  0  0
  4  5  1  0  0  0
  4 85  1  0  0  0
  4 86  1  0  0  0
  5  6  1  0  0  0
  5 26  1  0  0  0
  5 87  1  0  0  0
  6 25  1  0  0  0
  6 88  1  0  0  0
  6 89  1  0  0  0
  7  8  2  0  0  0
  7 26  1  0  0  0
  7 29  1  0  0  0
  8  9  1  0  0  0
  8 22  1  0  0  0
  9 10  1  0  0  0
  9 27  2  0  0  0
 10 11  2  0  0  0
 10 15  1  0  0  0
 11 12  1  0  0  0
 11 90  1  0  0  0
 12 13  2  0  0  0
 12 91  1  0  0  0
 13 14  1  0  0  0
 13 31  1  0  0  0
 14 15  2  0  0  0
 14 92  1  0  0  0
 15 93  1  0  0  0
 16 17  2  0  0  0
 16 21  1  0  0  0
 16 31  1  0  0  0
 17 18  1  0  0  0
 17 94  1  0  0  0
 18 19  2  0  0  0
 18 95  1  0  0  0
 19 20  1  0  0  0
 19 24  1  0  0  0
 20 21  2  0  0  0
 20 96  1  0  0  0
 21 23  1  0  0  0
 22 28  1  0  0  0
 22 32  2  0  0  0
 26 27  1  0  0  0
 28 97  1  0  0  0
 28 98  1  0  0  0
 29 99  1  0  0  0
 29100  1  0  0  0
 33 34  1  0  0  0
 33 66  1  0  0  0
 33 70  2  0  0  0
 34 36  1  0  0  0
 34 59  1  0  0  0
 34101  1  0  0  0
 35 44  2  0  0  0
 35 45  1  0  0  0
 35 68  1  0  0  0
 36 56  1  0  0  0
 36102  1  0  0  0
 37 39  1  0  0  0
 37 47  1  0  0  0
 37 66  1  0  0  0
 37103  1  0  0  0
 38 43  2  0  0  0
 38 46  1  0  0  0
 38 47  1  0  0  0
 39 64  1  0  0  0
 39 67  2  0  0  0
 40 52  1  0  0  0
 40 53  2  0  0  0
 40 58  1  0  0  0
 41104  1  0  0  0
 41105  1  0  0  0
 41106  1  0  0  0
 41 48  1  0  0  0
 42 43  1  0  0  0
 42 66  1  0  0  0
 42107  1  0  0  0
 42108  1  0  0  0
 43 44  1  0  0  0
 44109  1  0  0  0
 45 46  2  0  0  0
 45110  1  0  0  0
 46111  1  0  0  0
 47112  1  0  0  0
 47113  1  0  0  0
 48 56  1  0  0  0
 48 65  1  0  0  0
 48114  1  0  0  0
 49 50  1  0  0  0
 49 53  1  0  0  0
 49 64  1  0  0  0
 49115  1  0  0  0
 50 51  1  0  0  0
 50116  1  0  0  0
 50117  1  0  0  0
 51 52  1  0  0  0
 51118  1  0  0  0
 51119  1  0  0  0
 52120  1  0  0  0
 52121  1  0  0  0
 53 54  1  0  0  0
 54 55  2  0  0  0
 54122  1  0  0  0
 55 57  1  0  0  0
 55123  1  0  0  0
 56 69  2  0  0  0
 57 58  2  0  0  0
 57124  1  0  0  0
 58125  1  0  0  0
 59 60  1  0  0  0
 59 61  1  0  0  0
 59 62  1  0  0  0
 60126  1  0  0  0
 60127  1  0  0  0
 60128  1  0  0  0
 61129  1  0  0  0
 61130  1  0  0  0
 61131  1  0  0  0
 62132  1  0  0  0
 62133  1  0  0  0
 62134  1  0  0  0
 63 65  1  0  0  0
 63135  1  0  0  0
 63136  1  0  0  0
 63137  1  0  0  0
 64138  1  0  0  0
 65139  1  0  0  0
 68 79  1  0  0  0
 71140  1  0  0  0
 71141  1  0  0  0
 71 72  1  0  0  0
 71 73  1  0  0  0
 72 74  1  0  0  0
 72 76  1  0  0  0
 72142  1  0  0  0
 73 75  1  0  0  0
 73 77  1  0  0  0
 73143  1  0  0  0
 74 75  1  0  0  0
 74 76  1  0  0  0
 74144  1  0  0  0
 75 77  1  0  0  0
 75145  1  0  0  0
 76 78  1  0  0  0
 76146  1  0  0  0
 77 79  1  0  0  0
 77147  1  0  0  0
 78 80  1  0  0  0
 78148  1  0  0  0
 78149  1  0  0  0
 79150  1  0  0  0
 79151  1  0  0  0
 80152  1  0  0  0
M  ISO  4   1 100  68 101  79 101  80 100
M  END
> <chiral flag>
0

> <version>
0

> <s_m_source_file>
/data/baiqing/PycharmProjects/Reinvent-master-3.2/result/LINK_invent/BTK/process_docking_weight1_custom_sum_contain_oxygen_bond_distance_aromatic_linkinvent_7_9_3/rearranged_h_0150.sdf

> <i_m_source_file_index>
43

> <r_mmod_Potential_Energy-OPLS-2005>
870.836853027344

> <r_mmod_Stretch_Energy-OPLS-2005>
274.1201171875

> <r_mmod_Bend_Energy-OPLS-2005>
460.741149902344

> <r_mmod_Torsional_Energy-OPLS-2005>
376.953460693359

> <r_mmod_Improper_Torsional_Energy-OPLS-2005>
4.62048482894897

> <r_mmod_Van_der_Waal_Energy-OPLS-2005>
107.310050964355

> <r_mmod_Electrostatic_Energy-OPLS-2005>
-356.572692871094

> <r_mmod_Solvation_Energy-OPLS-2005>
-205.311706542969

> <b_mmod_Minimization_Converged-OPLS-2005>
0

> <r_mmod_RMS_Derivative-OPLS-2005>
3.74671816825867

$$$$
43
                    3D
 Structure written by MMmdl.
165174  0  0  1  0            999 V2000
  -30.6711  -14.6965   20.5145 C   0  0  0  0  0  0
  -30.4123  -12.4450   19.4807 C   0  0  0  0  0  0
  -29.4967  -12.5128   18.2414 C   0  0  0  0  0  0
  -28.0282  -12.3220   18.6610 C   0  0  0  0  0  0
  -27.6363  -13.2297   19.8587 C   0  0  2  0  0  0
  -28.6792  -13.1542   20.9960 C   0  0  0  0  0  0
  -25.2357  -13.8157   20.5471 C   0  0  0  0  0  0
  -24.1764  -13.0420   20.9226 C   0  0  0  0  0  0
  -24.6399  -11.6904   20.8905 C   0  0  0  0  0  0
  -23.9094  -10.4267   21.0508 C   0  0  0  0  0  0
  -24.3625   -9.4157   21.9251 C   0  0  0  0  0  0
  -23.6294   -8.2198   22.0778 C   0  0  0  0  0  0
  -22.4279   -8.0270   21.3566 C   0  0  0  0  0  0
  -21.9938   -9.0268   20.4673 C   0  0  0  0  0  0
  -22.7283  -10.2142   20.3116 C   0  0  0  0  0  0
  -21.6842   -6.0732   22.5282 C   0  0  0  0  0  0
  -21.3985   -6.5637   23.8217 C   0  0  0  0  0  0
  -21.3637   -5.6791   24.9186 C   0  0  0  0  0  0
  -21.6060   -4.3064   24.7244 C   0  0  0  0  0  0
  -21.8822   -3.8149   23.4365 C   0  0  0  0  0  0
  -21.9179   -4.6959   22.3415 C   0  0  0  0  0  0
  -22.7785  -13.5179   21.1856 C   0  0  0  0  0  0
  -22.1666   -4.2135   21.1003 F   0  0  0  0  0  0
  -21.5632   -3.4554   25.7768 F   0  0  0  0  0  0
  -29.9759  -13.5111   20.4169 N   0  0  0  0  0  0
  -26.2887  -12.9416   20.3339 N   0  0  0  0  0  0
  -25.9349  -11.6572   20.5991 N   0  0  0  0  0  0
  -22.0440  -12.8209   22.0437 N   0  0  0  0  0  0
  -25.3751  -15.1838   20.3263 N   0  0  0  0  0  0
  -31.8324  -14.7402   20.1081 O   0  0  0  0  0  0
  -21.6635   -6.8875   21.4244 O   0  0  0  0  0  0
  -22.3463  -14.5466   20.6657 O   0  0  0  0  0  0
  -24.6287  -31.8589   23.1980 C   0  0  0  0  0  0
  -25.9107  -32.4789   23.8342 C   0  0  1  0  0  0
  -27.2201  -27.2774   20.1167 C   0  0  0  0  0  0
  -25.5882  -33.8587   24.2262 N   0  0  0  0  0  0
  -23.4242  -30.4828   21.5410 C   0  0  2  0  0  0
  -24.8691  -28.9266   20.1137 C   0  0  0  0  0  0
  -22.7456  -29.4670   22.4916 C   0  0  0  0  0  0
  -18.0321  -28.1321   22.8630 C   0  0  0  0  0  0
  -24.1479  -36.7298   23.2643 C   0  0  0  0  0  0
  -25.9694  -30.7791   21.3698 C   0  0  0  0  0  0
  -26.0411  -29.4002   20.7147 C   0  0  0  0  0  0
  -27.2169  -28.5875   20.7041 C   0  0  0  0  0  0
  -26.0149  -26.8528   19.5152 C   0  0  0  0  0  0
  -24.8589  -27.6590   19.5092 C   0  0  0  0  0  0
  -23.6423  -29.8166   20.1588 C   0  0  0  0  0  0
  -25.4106  -36.3102   24.0338 C   0  0  1  0  0  0
  -20.5922  -28.3752   23.1377 C   0  0  2  0  0  0
  -20.6836  -26.9395   22.5730 C   0  0  0  0  0  0
  -19.5859  -26.6334   21.5468 C   0  0  0  0  0  0
  -18.2038  -26.7786   22.1915 C   0  0  0  0  0  0
  -19.1550  -28.8878   23.2944 C   0  0  0  0  0  0
  -18.9426  -30.1483   23.8921 C   0  0  0  0  0  0
  -17.6407  -30.6586   24.0542 C   0  0  0  0  0  0
  -25.9039  -34.9464   23.5118 C   0  0  0  0  0  0
  -16.5320  -29.9011   23.6379 C   0  0  0  0  0  0
  -16.7301  -28.6395   23.0480 C   0  0  0  0  0  0
  -26.4458  -31.6608   25.0723 C   0  0  0  0  0  0
  -25.3660  -31.3759   26.1428 C   0  0  0  0  0  0
  -27.0312  -30.3037   24.6190 C   0  0  0  0  0  0
  -27.6022  -32.4352   25.7463 C   0  0  0  0  0  0
  -27.5575  -37.1808   24.8468 C   0  0  0  0  0  0
  -21.4183  -29.2985   22.3576 N   0  0  0  0  0  0
  -26.4287  -37.3793   23.9416 N   0  0  0  0  0  0
  -24.6942  -31.0585   22.0933 N   0  0  0  0  0  0
  -23.4150  -28.8333   23.3112 O   0  0  0  0  0  0
  -28.3482  -26.4361   20.1820 O   0  0  0  0  0  0
  -26.5639  -34.8941   22.4699 O   0  0  0  0  0  0
  -23.5434  -32.1395   23.7293 O   0  0  0  0  0  0
  -30.0580  -18.8716   19.9845 C   0  0  0  0  0  0
  -30.0820  -20.2823   19.7251 C   0  0  0  0  0  0
  -28.0341  -20.5789   20.9174 C   0  0  0  0  0  0
  -29.0118  -18.2570   20.7209 C   0  0  0  0  0  0
  -28.0016  -19.1650   21.1731 C   0  0  0  0  0  0
  -29.0784  -21.1929   20.1758 C   0  0  0  0  0  0
  -26.8675  -18.6020   22.0064 C   0  0  0  0  0  0
  -28.0466  -16.3780   22.2667 C   0  0  0  0  0  0
  -28.9099  -16.6820   20.9983 C   0  0  2  0  0  0
  -27.4322  -17.5876   23.0125 C   0  0  2  0  0  0
  -25.9361  -18.3169   25.0168 C   0  0  0  0  0  0
  -28.4357  -25.0824   19.5487 C   0  0  0  0  0  0
  -28.3618  -23.6847   20.3641 C   0  0  0  0  0  0
  -26.4408  -17.1672   24.1296 C   0  0  1  0  0  0
  -30.1752  -15.8617   21.0705 N   0  0  0  0  0  0
  -25.3215  -16.4847   23.6010 O   0  0  0  0  0  0
  -29.1840  -22.5706   19.8277 O   0  0  0  0  0  0
  -31.4574  -12.5341   19.1829 H   0  0  0  0  0  0
  -30.3391  -11.4691   19.9621 H   0  0  0  0  0  0
  -29.7800  -11.7424   17.5227 H   0  0  0  0  0  0
  -29.6158  -13.4729   17.7356 H   0  0  0  0  0  0
  -27.9028  -11.2754   18.9441 H   0  0  0  0  0  0
  -27.3622  -12.4896   17.8139 H   0  0  0  0  0  0
  -27.6348  -14.2488   19.4761 H   0  0  0  0  0  0
  -28.7143  -12.1516   21.4195 H   0  0  0  0  0  0
  -28.4261  -13.8098   21.8246 H   0  0  0  0  0  0
  -25.2762   -9.5630   22.4844 H   0  0  0  0  0  0
  -24.0010   -7.4559   22.7457 H   0  0  0  0  0  0
  -21.0891   -8.8827   19.8934 H   0  0  0  0  0  0
  -22.3780  -10.9724   19.6251 H   0  0  0  0  0  0
  -21.1972   -7.6141   23.9741 H   0  0  0  0  0  0
  -21.1451   -6.0511   25.9087 H   0  0  0  0  0  0
  -22.0614   -2.7602   23.2897 H   0  0  0  0  0  0
  -22.4067  -11.9865   22.4829 H   0  0  0  0  0  0
  -21.1061  -13.1235   22.2644 H   0  0  0  0  0  0
  -24.5288  -15.7311   20.2132 H   0  0  0  0  0  0
  -26.1384  -15.5365   19.7667 H   0  0  0  0  0  0
  -26.7203  -32.5460   23.1113 H   0  0  0  0  0  0
  -25.0003  -33.9735   25.0391 H   0  0  0  0  0  0
  -22.7210  -31.3058   21.3973 H   0  0  0  0  0  0
  -23.3755  -35.9614   23.3303 H   0  0  0  0  0  0
  -24.3576  -36.8921   22.2062 H   0  0  0  0  0  0
  -23.7217  -37.6492   23.6658 H   0  0  0  0  0  0
  -26.0955  -31.5371   20.5946 H   0  0  0  0  0  0
  -26.8546  -30.8392   21.9911 H   0  0  0  0  0  0
  -28.1180  -28.9464   21.1820 H   0  0  0  0  0  0
  -25.9236  -25.8698   19.0812 H   0  0  0  0  0  0
  -23.9507  -27.2831   19.0588 H   0  0  0  0  0  0
  -23.7780  -30.5957   19.4074 H   0  0  0  0  0  0
  -22.7577  -29.2581   19.8459 H   0  0  0  0  0  0
  -25.1287  -36.1962   25.0833 H   0  0  0  0  0  0
  -21.0044  -28.3520   24.1504 H   0  0  0  0  0  0
  -20.5625  -26.2432   23.4064 H   0  0  0  0  0  0
  -21.6790  -26.7323   22.1762 H   0  0  0  0  0  0
  -19.7109  -25.6289   21.1443 H   0  0  0  0  0  0
  -19.6699  -27.3215   20.7039 H   0  0  0  0  0  0
  -17.4270  -26.6334   21.4394 H   0  0  0  0  0  0
  -18.0590  -26.0002   22.9441 H   0  0  0  0  0  0
  -19.7881  -30.7341   24.2294 H   0  0  0  0  0  0
  -17.4917  -31.6285   24.5089 H   0  0  0  0  0  0
  -15.5310  -30.2867   23.7720 H   0  0  0  0  0  0
  -15.8738  -28.0583   22.7316 H   0  0  0  0  0  0
  -24.5820  -30.7137   25.7726 H   0  0  0  0  0  0
  -24.8850  -32.2935   26.4832 H   0  0  0  0  0  0
  -25.7925  -30.8928   27.0231 H   0  0  0  0  0  0
  -26.2906  -29.6780   24.1193 H   0  0  0  0  0  0
  -27.4002  -29.7300   25.4707 H   0  0  0  0  0  0
  -27.8770  -30.4350   23.9435 H   0  0  0  0  0  0
  -27.2641  -33.3665   26.2027 H   0  0  0  0  0  0
  -28.3788  -32.6907   25.0235 H   0  0  0  0  0  0
  -28.0732  -31.8498   26.5370 H   0  0  0  0  0  0
  -28.2613  -38.0088   24.7522 H   0  0  0  0  0  0
  -28.1062  -36.2631   24.6289 H   0  0  0  0  0  0
  -27.2308  -37.1459   25.8876 H   0  0  0  0  0  0
  -20.9424  -29.8262   21.6393 H   0  0  0  0  0  0
  -26.0180  -38.2874   24.1402 H   0  0  0  0  0  0
  -30.8580  -18.2566   19.5980 H   0  0  0  0  0  0
  -30.9074  -20.6711   19.1461 H   0  0  0  0  0  0
  -27.2301  -21.1920   21.2976 H   0  0  0  0  0  0
  -26.1275  -18.1301   21.3556 H   0  0  0  0  0  0
  -26.3620  -19.4210   22.5144 H   0  0  0  0  0  0
  -28.6280  -15.8126   22.9962 H   0  0  0  0  0  0
  -27.2461  -15.7022   21.9826 H   0  0  0  0  0  0
  -28.3696  -16.3011   20.1323 H   0  0  0  0  0  0
  -28.2574  -18.0857   23.5280 H   0  0  0  0  0  0
  -26.7675  -18.8791   25.4414 H   0  0  0  0  0  0
  -25.3519  -17.9291   25.8525 H   0  0  0  0  0  0
  -25.2981  -19.0217   24.4830 H   0  0  0  0  0  0
  -27.8081  -25.0164   18.6624 H   0  0  0  0  0  0
  -29.4378  -25.0971   19.1181 H   0  0  0  0  0  0
  -27.3215  -23.3761   20.4393 H   0  0  0  0  0  0
  -28.7040  -23.8583   21.3850 H   0  0  0  0  0  0
  -26.9591  -16.4656   24.7864 H   0  0  0  0  0  0
  -30.9500  -16.4731   21.2780 H   0  0  0  0  0  0
  -25.1535  -16.8196   22.7263 H   0  0  0  0  0  0
  1 25  1  0  0  0
  1 30  2  0  0  0
  1 85  1  0  0  0
  2  3  1  0  0  0
  2 25  1  0  0  0
  2 88  1  0  0  0
  2 89  1  0  0  0
  3  4  1  0  0  0
  3 90  1  0  0  0
  3 91  1  0  0  0
  4  5  1  0  0  0
  4 92  1  0  0  0
  4 93  1  0  0  0
  5  6  1  0  0  0
  5 26  1  0  0  0
  5 94  1  0  0  0
  6 25  1  0  0  0
  6 95  1  0  0  0
  6 96  1  0  0  0
  7  8  2  0  0  0
  7 26  1  0  0  0
  7 29  1  0  0  0
  8  9  1  0  0  0
  8 22  1  0  0  0
  9 10  1  0  0  0
  9 27  2  0  0  0
 10 11  2  0  0  0
 10 15  1  0  0  0
 11 12  1  0  0  0
 11 97  1  0  0  0
 12 13  2  0  0  0
 12 98  1  0  0  0
 13 14  1  0  0  0
 13 31  1  0  0  0
 14 15  2  0  0  0
 14 99  1  0  0  0
 15100  1  0  0  0
 16 17  2  0  0  0
 16 21  1  0  0  0
 16 31  1  0  0  0
 17 18  1  0  0  0
 17101  1  0  0  0
 18 19  2  0  0  0
 18102  1  0  0  0
 19 20  1  0  0  0
 19 24  1  0  0  0
 20 21  2  0  0  0
 20103  1  0  0  0
 21 23  1  0  0  0
 22 28  1  0  0  0
 22 32  2  0  0  0
 26 27  1  0  0  0
 28104  1  0  0  0
 28105  1  0  0  0
 29106  1  0  0  0
 29107  1  0  0  0
 33 34  1  0  0  0
 33 66  1  0  0  0
 33 70  2  0  0  0
 34 36  1  0  0  0
 34 59  1  0  0  0
 34108  1  0  0  0
 35 44  2  0  0  0
 35 45  1  0  0  0
 35 68  1  0  0  0
 36 56  1  0  0  0
 36109  1  0  0  0
 37 39  1  0  0  0
 37 47  1  0  0  0
 37 66  1  0  0  0
 37110  1  0  0  0
 38 43  2  0  0  0
 38 46  1  0  0  0
 38 47  1  0  0  0
 39 64  1  0  0  0
 39 67  2  0  0  0
 40 52  1  0  0  0
 40 53  2  0  0  0
 40 58  1  0  0  0
 41111  1  0  0  0
 41112  1  0  0  0
 41113  1  0  0  0
 41 48  1  0  0  0
 42 43  1  0  0  0
 42 66  1  0  0  0
 42114  1  0  0  0
 42115  1  0  0  0
 43 44  1  0  0  0
 44116  1  0  0  0
 45 46  2  0  0  0
 45117  1  0  0  0
 46118  1  0  0  0
 47119  1  0  0  0
 47120  1  0  0  0
 48 56  1  0  0  0
 48 65  1  0  0  0
 48121  1  0  0  0
 49 50  1  0  0  0
 49 53  1  0  0  0
 49 64  1  0  0  0
 49122  1  0  0  0
 50 51  1  0  0  0
 50123  1  0  0  0
 50124  1  0  0  0
 51 52  1  0  0  0
 51125  1  0  0  0
 51126  1  0  0  0
 52127  1  0  0  0
 52128  1  0  0  0
 53 54  1  0  0  0
 54 55  2  0  0  0
 54129  1  0  0  0
 55 57  1  0  0  0
 55130  1  0  0  0
 56 69  2  0  0  0
 57 58  2  0  0  0
 57131  1  0  0  0
 58132  1  0  0  0
 59 60  1  0  0  0
 59 61  1  0  0  0
 59 62  1  0  0  0
 60133  1  0  0  0
 60134  1  0  0  0
 60135  1  0  0  0
 61136  1  0  0  0
 61137  1  0  0  0
 61138  1  0  0  0
 62139  1  0  0  0
 62140  1  0  0  0
 62141  1  0  0  0
 63 65  1  0  0  0
 63142  1  0  0  0
 63143  1  0  0  0
 63144  1  0  0  0
 64145  1  0  0  0
 65146  1  0  0  0
 68 82  1  0  0  0
 71 72  2  0  0  0
 71 74  1  0  0  0
 71147  1  0  0  0
 72 76  1  0  0  0
 72148  1  0  0  0
 73 75  1  0  0  0
 73 76  2  0  0  0
 73149  1  0  0  0
 74 75  2  0  0  0
 74 79  1  0  0  0
 75 77  1  0  0  0
 76 87  1  0  0  0
 77150  1  0  0  0
 77151  1  0  0  0
 77 80  1  0  0  0
 78 79  1  0  0  0
 78 80  1  0  0  0
 78152  1  0  0  0
 78153  1  0  0  0
 79 85  1  0  0  0
 79154  1  0  0  0
 80 84  1  0  0  0
 80155  1  0  0  0
 81156  1  0  0  0
 81157  1  0  0  0
 81158  1  0  0  0
 81 84  1  0  0  0
 82 83  1  0  0  0
 82159  1  0  0  0
 82160  1  0  0  0
 83 87  1  0  0  0
 83161  1  0  0  0
 83162  1  0  0  0
 84 86  1  0  0  0
 84163  1  0  0  0
 85164  1  0  0  0
 86165  1  0  0  0
M  ISO  4   1 100  68 101  82 101  85 100
M  END
> <chiral flag>
0

> <version>
0

> <s_m_source_file>
/data/baiqing/PycharmProjects/Reinvent-master-3.2/result/LINK_invent/BTK/process_docking_weight1_custom_sum_contain_oxygen_bond_distance_aromatic_linkinvent_7_9_3/rearranged_h_0150.sdf

> <i_m_source_file_index>
44

> <r_mmod_Potential_Energy-OPLS-2005>
146.02278137207

> <r_mmod_Stretch_Energy-OPLS-2005>
109.255104064941

> <r_mmod_Bend_Energy-OPLS-2005>
228.719207763672

> <r_mmod_Torsional_Energy-OPLS-2005>
262.364318847656

> <r_mmod_Improper_Torsional_Energy-OPLS-2005>
6.73155403137207

> <r_mmod_Van_der_Waal_Energy-OPLS-2005>
136.629364013672

> <r_mmod_Electrostatic_Energy-OPLS-2005>
-449.529632568359

> <r_mmod_Solvation_Energy-OPLS-2005>
-217.598785400391

> <b_mmod_Minimization_Converged-OPLS-2005>
0

> <r_mmod_RMS_Derivative-OPLS-2005>
4.27766799926758

$$$$
44
                    3D
 Structure written by MMmdl.
169178  0  0  1  0            999 V2000
  -30.6971  -14.4290   20.5516 C   0  0  0  0  0  0
  -30.4181  -12.2680   19.4285 C   0  0  0  0  0  0
  -29.4959  -12.4951   18.2113 C   0  0  0  0  0  0
  -28.0144  -12.3630   18.6178 C   0  0  0  0  0  0
  -27.6625  -13.1979   19.8784 C   0  0  2  0  0  0
  -28.7007  -12.9617   21.0019 C   0  0  0  0  0  0
  -25.2586  -13.8141   20.5668 C   0  0  0  0  0  0
  -24.1830  -13.0432   20.9166 C   0  0  0  0  0  0
  -24.6369  -11.6899   20.8721 C   0  0  0  0  0  0
  -23.9033  -10.4288   21.0395 C   0  0  0  0  0  0
  -24.3591   -9.4211   21.9177 C   0  0  0  0  0  0
  -23.6279   -8.2243   22.0752 C   0  0  0  0  0  0
  -22.4263   -8.0270   21.3541 C   0  0  0  0  0  0
  -21.9886   -9.0239   20.4644 C   0  0  0  0  0  0
  -22.7203  -10.2125   20.3051 C   0  0  0  0  0  0
  -21.6850   -6.0728   22.5279 C   0  0  0  0  0  0
  -21.4011   -6.5632   23.8211 C   0  0  0  0  0  0
  -21.3663   -5.6790   24.9171 C   0  0  0  0  0  0
  -21.6042   -4.3053   24.7227 C   0  0  0  0  0  0
  -21.8820   -3.8140   23.4349 C   0  0  0  0  0  0
  -21.9191   -4.6956   22.3401 C   0  0  0  0  0  0
  -22.7857  -13.5240   21.1839 C   0  0  0  0  0  0
  -22.1662   -4.2138   21.0983 F   0  0  0  0  0  0
  -21.5631   -3.4540   25.7742 F   0  0  0  0  0  0
  -30.0405  -13.2450   20.4588 N   0  0  0  0  0  0
  -26.3013  -12.9294   20.3359 N   0  0  0  0  0  0
  -25.9288  -11.6461   20.5754 N   0  0  0  0  0  0
  -22.0491  -12.8238   22.0398 N   0  0  0  0  0  0
  -25.4312  -15.1860   20.4071 N   0  0  0  0  0  0
  -31.8310  -14.6147   20.1008 O   0  0  0  0  0  0
  -21.6636   -6.8864   21.4240 O   0  0  0  0  0  0
  -22.3544  -14.5546   20.6686 O   0  0  0  0  0  0
  -24.6111  -31.8702   23.2110 C   0  0  0  0  0  0
  -25.9017  -32.4839   23.8392 C   0  0  1  0  0  0
  -27.2364  -27.4630   20.1025 C   0  0  0  0  0  0
  -25.5885  -33.8636   24.2339 N   0  0  0  0  0  0
  -23.3964  -30.4942   21.5506 C   0  0  2  0  0  0
  -24.8424  -28.9619   20.1154 C   0  0  0  0  0  0
  -22.7389  -29.4659   22.4984 C   0  0  0  0  0  0
  -18.0274  -28.1381   22.8486 C   0  0  0  0  0  0
  -24.1483  -36.7321   23.2640 C   0  0  0  0  0  0
  -25.9199  -30.8485   21.3546 C   0  0  0  0  0  0
  -25.9996  -29.4826   20.7084 C   0  0  0  0  0  0
  -27.1984  -28.7415   20.6959 C   0  0  0  0  0  0
  -26.0649  -26.9505   19.4982 C   0  0  0  0  0  0
  -24.8692  -27.6940   19.5079 C   0  0  0  0  0  0
  -23.6032  -29.8264   20.1641 C   0  0  0  0  0  0
  -25.4100  -36.3123   24.0346 C   0  0  1  0  0  0
  -20.5861  -28.3649   23.1339 C   0  0  2  0  0  0
  -20.6763  -26.9393   22.5427 C   0  0  0  0  0  0
  -19.5744  -26.6391   21.5217 C   0  0  0  0  0  0
  -18.1919  -26.7930   22.1622 C   0  0  0  0  0  0
  -19.1523  -28.8830   23.2909 C   0  0  0  0  0  0
  -18.9453  -30.1436   23.8913 C   0  0  0  0  0  0
  -17.6454  -30.6583   24.0566 C   0  0  0  0  0  0
  -25.9033  -34.9491   23.5146 C   0  0  0  0  0  0
  -16.5345  -29.9092   23.6325 C   0  0  0  0  0  0
  -16.7264  -28.6518   23.0330 C   0  0  0  0  0  0
  -26.4457  -31.6603   25.0706 C   0  0  0  0  0  0
  -25.3745  -31.3695   26.1476 C   0  0  0  0  0  0
  -27.0283  -30.3060   24.6029 C   0  0  0  0  0  0
  -27.6036  -32.4312   25.7474 C   0  0  0  0  0  0
  -27.5576  -37.1816   24.8469 C   0  0  0  0  0  0
  -21.4121  -29.3026   22.3739 N   0  0  0  0  0  0
  -26.4286  -37.3804   23.9418 N   0  0  0  0  0  0
  -24.6611  -31.0840   22.0984 N   0  0  0  0  0  0
  -23.4189  -28.8197   23.3002 O   0  0  0  0  0  0
  -28.4279  -26.7773   20.1009 O   0  0  0  0  0  0
  -26.5593  -34.8935   22.4707 O   0  0  0  0  0  0
  -23.5319  -32.1422   23.7540 O   0  0  0  0  0  0
  -31.3966  -18.6666   21.1554 C   0  0  0  0  0  0
  -29.1527  -18.3845   22.0198 C   0  0  0  0  0  0
  -30.4369  -20.3984   22.6168 C   0  0  0  0  0  0
  -30.1957  -17.9441   21.1903 C   0  0  0  0  0  0
  -31.5342  -19.8711   21.8706 C   0  0  0  0  0  0
  -29.2583  -19.5986   22.7333 C   0  0  0  0  0  0
  -30.6102  -22.2035   24.6783 C   0  0  0  0  0  0
  -30.0527  -23.5854   24.2808 C   0  0  0  0  0  0
  -30.5345  -21.8285   23.1896 C   0  0  2  0  0  0
  -29.4280  -22.8961   23.0516 C   0  0  2  0  0  0
  -32.8810  -20.5741   21.7670 C   0  0  0  0  0  0
  -28.0515  -19.9855   23.5724 C   0  0  0  0  0  0
  -30.0044  -16.7610   20.2620 C   0  0  0  0  0  0
  -29.2743  -25.0809   21.5838 C   0  0  0  0  0  0
  -28.3893  -25.3732   20.3603 C   0  0  0  0  0  0
  -29.9209  -15.4579   20.9154 N   0  0  0  0  0  0
  -29.4849  -23.6292   21.7673 N   0  3  0  0  0  0
  -31.4660  -12.3527   19.1355 H   0  0  0  0  0  0
  -30.2993  -11.2550   19.8161 H   0  0  0  0  0  0
  -29.7316  -11.7785   17.4234 H   0  0  0  0  0  0
  -29.6739  -13.4854   17.7891 H   0  0  0  0  0  0
  -27.8183  -11.3067   18.8071 H   0  0  0  0  0  0
  -27.3680  -12.6458   17.7860 H   0  0  0  0  0  0
  -27.7112  -14.2465   19.5850 H   0  0  0  0  0  0
  -28.6592  -11.9257   21.3413 H   0  0  0  0  0  0
  -28.4723  -13.5657   21.8814 H   0  0  0  0  0  0
  -25.2738   -9.5696   22.4745 H   0  0  0  0  0  0
  -23.9996   -7.4635   22.7467 H   0  0  0  0  0  0
  -21.0818   -8.8737   19.8949 H   0  0  0  0  0  0
  -22.3647  -10.9654   19.6155 H   0  0  0  0  0  0
  -21.2002   -7.6140   23.9706 H   0  0  0  0  0  0
  -21.1486   -6.0523   25.9074 H   0  0  0  0  0  0
  -22.0597   -2.7602   23.2852 H   0  0  0  0  0  0
  -22.4109  -11.9907   22.4802 H   0  0  0  0  0  0
  -21.1103  -13.1255   22.2591 H   0  0  0  0  0  0
  -24.6599  -15.8377   20.5034 H   0  0  0  0  0  0
  -26.2805  -15.6250   20.0758 H   0  0  0  0  0  0
  -26.7098  -32.5571   23.1168 H   0  0  0  0  0  0
  -25.0042  -33.9794   25.0491 H   0  0  0  0  0  0
  -22.6841  -31.3107   21.4137 H   0  0  0  0  0  0
  -23.3742  -35.9660   23.3320 H   0  0  0  0  0  0
  -24.3578  -36.8917   22.2052 H   0  0  0  0  0  0
  -23.7244  -37.6540   23.6638 H   0  0  0  0  0  0
  -26.0223  -31.6135   20.5834 H   0  0  0  0  0  0
  -26.8130  -30.9109   21.9640 H   0  0  0  0  0  0
  -28.0941  -29.1428   21.1504 H   0  0  0  0  0  0
  -26.0695  -25.9890   19.0048 H   0  0  0  0  0  0
  -23.9813  -27.2913   19.0405 H   0  0  0  0  0  0
  -23.7089  -30.6029   19.4047 H   0  0  0  0  0  0
  -22.7272  -29.2465   19.8676 H   0  0  0  0  0  0
  -25.1278  -36.1993   25.0838 H   0  0  0  0  0  0
  -20.9947  -28.3214   24.1464 H   0  0  0  0  0  0
  -20.5677  -26.2248   23.3603 H   0  0  0  0  0  0
  -21.6628  -26.7456   22.1206 H   0  0  0  0  0  0
  -19.6908  -25.6314   21.1222 H   0  0  0  0  0  0
  -19.6689  -27.3219   20.6758 H   0  0  0  0  0  0
  -17.4191  -26.6675   21.4022 H   0  0  0  0  0  0
  -18.0310  -26.0076   22.9021 H   0  0  0  0  0  0
  -19.7932  -30.7246   24.2281 H   0  0  0  0  0  0
  -17.5027  -31.6266   24.5169 H   0  0  0  0  0  0
  -15.5350  -30.3005   23.7649 H   0  0  0  0  0  0
  -15.8661  -28.0863   22.7010 H   0  0  0  0  0  0
  -24.5910  -30.7042   25.7827 H   0  0  0  0  0  0
  -24.8933  -32.2846   26.4944 H   0  0  0  0  0  0
  -25.8120  -30.8861   27.0220 H   0  0  0  0  0  0
  -26.2801  -29.6838   24.1100 H   0  0  0  0  0  0
  -27.4120  -29.7279   25.4444 H   0  0  0  0  0  0
  -27.8601  -30.4416   23.9113 H   0  0  0  0  0  0
  -27.2650  -33.3594   26.2086 H   0  0  0  0  0  0
  -28.3827  -32.6899   25.0295 H   0  0  0  0  0  0
  -28.0721  -31.8414   26.5368 H   0  0  0  0  0  0
  -28.2608  -38.0096   24.7513 H   0  0  0  0  0  0
  -28.1061  -36.2638   24.6300 H   0  0  0  0  0  0
  -27.2301  -37.1474   25.8871 H   0  0  0  0  0  0
  -20.9268  -29.8778   21.6997 H   0  0  0  0  0  0
  -26.0191  -38.2890   24.1413 H   0  0  0  0  0  0
  -32.2087  -18.3133   20.5338 H   0  0  0  0  0  0
  -28.2376  -17.8091   22.0643 H   0  0  0  0  0  0
  -29.9342  -21.6486   25.3268 H   0  0  0  0  0  0
  -31.6195  -22.2170   25.0920 H   0  0  0  0  0  0
  -30.8446  -24.2995   24.0440 H   0  0  0  0  0  0
  -29.3383  -24.0022   24.9928 H   0  0  0  0  0  0
  -31.4151  -22.2815   22.7371 H   0  0  0  0  0  0
  -28.4209  -22.5483   23.2696 H   0  0  0  0  0  0
  -32.8226  -21.4237   21.0860 H   0  0  0  0  0  0
  -33.6510  -19.9010   21.3876 H   0  0  0  0  0  0
  -33.2239  -20.9233   22.7414 H   0  0  0  0  0  0
  -27.3440  -20.5702   22.9850 H   0  0  0  0  0  0
  -28.3181  -20.5421   24.4660 H   0  0  0  0  0  0
  -27.5251  -19.0934   23.9149 H   0  0  0  0  0  0
  -30.7772  -16.7833   19.4899 H   0  0  0  0  0  0
  -29.0700  -16.9119   19.7198 H   0  0  0  0  0  0
  -28.8340  -25.5218   22.4791 H   0  0  0  0  0  0
  -30.2512  -25.5442   21.4445 H   0  0  0  0  0  0
  -27.3850  -24.9916   20.5498 H   0  0  0  0  0  0
  -28.7695  -24.8540   19.4798 H   0  0  0  0  0  0
  -29.0298  -15.2184   21.3210 H   0  0  0  0  0  0
  -30.3048  -23.9741   22.2394 H   0  0  0  0  0  0
  -28.4968  -23.6689   21.9623 H   0  0  0  0  0  0
  1 25  1  0  0  0
  1 30  2  0  0  0
  1 86  1  0  0  0
  2  3  1  0  0  0
  2 25  1  0  0  0
  2 88  1  0  0  0
  2 89  1  0  0  0
  3  4  1  0  0  0
  3 90  1  0  0  0
  3 91  1  0  0  0
  4  5  1  0  0  0
  4 92  1  0  0  0
  4 93  1  0  0  0
  5  6  1  0  0  0
  5 26  1  0  0  0
  5 94  1  0  0  0
  6 25  1  0  0  0
  6 95  1  0  0  0
  6 96  1  0  0  0
  7  8  2  0  0  0
  7 26  1  0  0  0
  7 29  1  0  0  0
  8  9  1  0  0  0
  8 22  1  0  0  0
  9 10  1  0  0  0
  9 27  2  0  0  0
 10 11  2  0  0  0
 10 15  1  0  0  0
 11 12  1  0  0  0
 11 97  1  0  0  0
 12 13  2  0  0  0
 12 98  1  0  0  0
 13 14  1  0  0  0
 13 31  1  0  0  0
 14 15  2  0  0  0
 14 99  1  0  0  0
 15100  1  0  0  0
 16 17  2  0  0  0
 16 21  1  0  0  0
 16 31  1  0  0  0
 17 18  1  0  0  0
 17101  1  0  0  0
 18 19  2  0  0  0
 18102  1  0  0  0
 19 20  1  0  0  0
 19 24  1  0  0  0
 20 21  2  0  0  0
 20103  1  0  0  0
 21 23  1  0  0  0
 22 28  1  0  0  0
 22 32  2  0  0  0
 26 27  1  0  0  0
 28104  1  0  0  0
 28105  1  0  0  0
 29106  1  0  0  0
 29107  1  0  0  0
 33 34  1  0  0  0
 33 66  1  0  0  0
 33 70  2  0  0  0
 34 36  1  0  0  0
 34 59  1  0  0  0
 34108  1  0  0  0
 35 44  2  0  0  0
 35 45  1  0  0  0
 35 68  1  0  0  0
 36 56  1  0  0  0
 36109  1  0  0  0
 37 39  1  0  0  0
 37 47  1  0  0  0
 37 66  1  0  0  0
 37110  1  0  0  0
 38 43  2  0  0  0
 38 46  1  0  0  0
 38 47  1  0  0  0
 39 64  1  0  0  0
 39 67  2  0  0  0
 40 52  1  0  0  0
 40 53  2  0  0  0
 40 58  1  0  0  0
 41111  1  0  0  0
 41112  1  0  0  0
 41113  1  0  0  0
 41 48  1  0  0  0
 42 43  1  0  0  0
 42 66  1  0  0  0
 42114  1  0  0  0
 42115  1  0  0  0
 43 44  1  0  0  0
 44116  1  0  0  0
 45 46  2  0  0  0
 45117  1  0  0  0
 46118  1  0  0  0
 47119  1  0  0  0
 47120  1  0  0  0
 48 56  1  0  0  0
 48 65  1  0  0  0
 48121  1  0  0  0
 49 50  1  0  0  0
 49 53  1  0  0  0
 49 64  1  0  0  0
 49122  1  0  0  0
 50 51  1  0  0  0
 50123  1  0  0  0
 50124  1  0  0  0
 51 52  1  0  0  0
 51125  1  0  0  0
 51126  1  0  0  0
 52127  1  0  0  0
 52128  1  0  0  0
 53 54  1  0  0  0
 54 55  2  0  0  0
 54129  1  0  0  0
 55 57  1  0  0  0
 55130  1  0  0  0
 56 69  2  0  0  0
 57 58  2  0  0  0
 57131  1  0  0  0
 58132  1  0  0  0
 59 60  1  0  0  0
 59 61  1  0  0  0
 59 62  1  0  0  0
 60133  1  0  0  0
 60134  1  0  0  0
 60135  1  0  0  0
 61136  1  0  0  0
 61137  1  0  0  0
 61138  1  0  0  0
 62139  1  0  0  0
 62140  1  0  0  0
 62141  1  0  0  0
 63 65  1  0  0  0
 63142  1  0  0  0
 63143  1  0  0  0
 63144  1  0  0  0
 64145  1  0  0  0
 65146  1  0  0  0
 68 85  1  0  0  0
 71 74  2  0  0  0
 71 75  1  0  0  0
 71147  1  0  0  0
 72 74  1  0  0  0
 72 76  2  0  0  0
 72148  1  0  0  0
 73 75  2  0  0  0
 73 76  1  0  0  0
 73 79  1  0  0  0
 74 83  1  0  0  0
 75 81  1  0  0  0
 76 82  1  0  0  0
 77 78  1  0  0  0
 77 79  1  0  0  0
 77149  1  0  0  0
 77150  1  0  0  0
 78 80  1  0  0  0
 78151  1  0  0  0
 78152  1  0  0  0
 79 80  1  0  0  0
 79153  1  0  0  0
 80 87  1  0  0  0
 80154  1  0  0  0
 81155  1  0  0  0
 81156  1  0  0  0
 81157  1  0  0  0
 82158  1  0  0  0
 82159  1  0  0  0
 82160  1  0  0  0
 83 86  1  0  0  0
 83161  1  0  0  0
 83162  1  0  0  0
 84 85  1  0  0  0
 84 87  1  0  0  0
 84163  1  0  0  0
 84164  1  0  0  0
 85165  1  0  0  0
 85166  1  0  0  0
 86167  1  0  0  0
 87168  1  0  0  0
 87169  1  0  0  0
M  CHG  1  87   1
M  ISO  4   1 100  68 101  85 101  86 100
M  END
> <chiral flag>
0

> <version>
0

> <s_m_source_file>
/data/baiqing/PycharmProjects/Reinvent-master-3.2/result/LINK_invent/BTK/process_docking_weight1_custom_sum_contain_oxygen_bond_distance_aromatic_linkinvent_7_9_3/rearranged_h_0150.sdf

> <i_m_source_file_index>
45

> <r_mmod_Potential_Energy-OPLS-2005>
21.7588481903076

> <r_mmod_Stretch_Energy-OPLS-2005>
35.6614570617676

> <r_mmod_Bend_Energy-OPLS-2005>
319.738555908203

> <r_mmod_Torsional_Energy-OPLS-2005>
276.815765380859

> <r_mmod_Improper_Torsional_Energy-OPLS-2005>
8.99530220031738

> <r_mmod_Van_der_Waal_Energy-OPLS-2005>
162.594741821289

> <r_mmod_Electrostatic_Energy-OPLS-2005>
-337.955017089844

> <r_mmod_Solvation_Energy-OPLS-2005>
-454.688873291016

> <b_mmod_Minimization_Converged-OPLS-2005>
0

> <r_mmod_RMS_Derivative-OPLS-2005>
1.37058460712433

$$$$
45
                    3D
 Structure written by MMmdl.
174183  0  0  1  0            999 V2000
  -30.7106  -14.4624   20.5565 C   0  0  0  0  0  0
  -30.4155  -12.2951   19.4262 C   0  0  0  0  0  0
  -29.4912  -12.4944   18.2075 C   0  0  0  0  0  0
  -28.0110  -12.3641   18.6180 C   0  0  0  0  0  0
  -27.6588  -13.2074   19.8727 C   0  0  2  0  0  0
  -28.6994  -12.9996   20.9949 C   0  0  0  0  0  0
  -25.2572  -13.8174   20.5668 C   0  0  0  0  0  0
  -24.1830  -13.0449   20.9171 C   0  0  0  0  0  0
  -24.6383  -11.6914   20.8743 C   0  0  0  0  0  0
  -23.9058  -10.4295   21.0406 C   0  0  0  0  0  0
  -24.3610   -9.4208   21.9182 C   0  0  0  0  0  0
  -23.6288   -8.2245   22.0756 C   0  0  0  0  0  0
  -22.4270   -8.0282   21.3546 C   0  0  0  0  0  0
  -21.9905   -9.0256   20.4643 C   0  0  0  0  0  0
  -22.7231  -10.2140   20.3056 C   0  0  0  0  0  0
  -21.6851   -6.0739   22.5274 C   0  0  0  0  0  0
  -21.4013   -6.5641   23.8209 C   0  0  0  0  0  0
  -21.3660   -5.6794   24.9172 C   0  0  0  0  0  0
  -21.6041   -4.3057   24.7224 C   0  0  0  0  0  0
  -21.8823   -3.8152   23.4344 C   0  0  0  0  0  0
  -21.9191   -4.6967   22.3397 C   0  0  0  0  0  0
  -22.7858  -13.5243   21.1838 C   0  0  0  0  0  0
  -22.1659   -4.2156   21.0970 F   0  0  0  0  0  0
  -21.5629   -3.4541   25.7734 F   0  0  0  0  0  0
  -30.0278  -13.2921   20.4355 N   0  0  0  0  0  0
  -26.3010  -12.9341   20.3362 N   0  0  0  0  0  0
  -25.9311  -11.6502   20.5786 N   0  0  0  0  0  0
  -22.0507  -12.8226   22.0394 N   0  0  0  0  0  0
  -25.4309  -15.1887   20.4056 N   0  0  0  0  0  0
  -31.8655  -14.6006   20.1375 O   0  0  0  0  0  0
  -21.6635   -6.8885   21.4237 O   0  0  0  0  0  0
  -22.3540  -14.5554   20.6696 O   0  0  0  0  0  0
  -24.6153  -31.8669   23.2092 C   0  0  0  0  0  0
  -25.9044  -32.4813   23.8385 C   0  0  1  0  0  0
  -27.2376  -27.4306   20.0754 C   0  0  0  0  0  0
  -25.5899  -33.8612   24.2312 N   0  0  0  0  0  0
  -23.4025  -30.4920   21.5496 C   0  0  2  0  0  0
  -24.8468  -28.9550   20.1150 C   0  0  0  0  0  0
  -22.7398  -29.4664   22.4976 C   0  0  0  0  0  0
  -18.0273  -28.1384   22.8492 C   0  0  0  0  0  0
  -24.1491  -36.7317   23.2636 C   0  0  0  0  0  0
  -25.9327  -30.8275   21.3652 C   0  0  0  0  0  0
  -26.0071  -29.4620   20.7106 C   0  0  0  0  0  0
  -27.2001  -28.7030   20.6944 C   0  0  0  0  0  0
  -26.0466  -26.9284   19.4998 C   0  0  0  0  0  0
  -24.8604  -27.6861   19.5125 C   0  0  0  0  0  0
  -23.6100  -29.8232   20.1649 C   0  0  0  0  0  0
  -25.4112  -36.3107   24.0334 C   0  0  1  0  0  0
  -20.5860  -28.3678   23.1328 C   0  0  2  0  0  0
  -20.6754  -26.9405   22.5454 C   0  0  0  0  0  0
  -19.5757  -26.6388   21.5222 C   0  0  0  0  0  0
  -18.1917  -26.7948   22.1590 C   0  0  0  0  0  0
  -19.1520  -28.8842   23.2912 C   0  0  0  0  0  0
  -18.9446  -30.1443   23.8931 C   0  0  0  0  0  0
  -17.6454  -30.6593   24.0570 C   0  0  0  0  0  0
  -25.9046  -34.9472   23.5122 C   0  0  0  0  0  0
  -16.5345  -29.9099   23.6326 C   0  0  0  0  0  0
  -16.7265  -28.6510   23.0354 C   0  0  0  0  0  0
  -26.4460  -31.6599   25.0726 C   0  0  0  0  0  0
  -25.3707  -31.3719   26.1461 C   0  0  0  0  0  0
  -27.0289  -30.3030   24.6134 C   0  0  0  0  0  0
  -27.6045  -32.4314   25.7480 C   0  0  0  0  0  0
  -27.5608  -37.1785   24.8434 C   0  0  0  0  0  0
  -21.4123  -29.3041   22.3713 N   0  0  0  0  0  0
  -26.4286  -37.3809   23.9433 N   0  0  0  0  0  0
  -24.6685  -31.0763   22.0997 N   0  0  0  0  0  0
  -23.4159  -28.8205   23.3026 O   0  0  0  0  0  0
  -28.4291  -26.7292   20.0932 O   0  0  0  0  0  0
  -26.5614  -34.8928   22.4686 O   0  0  0  0  0  0
  -23.5349  -32.1421   23.7489 O   0  0  0  0  0  0
  -28.7990  -22.1075   23.5918 C   0  0  0  0  0  0
  -28.7865  -21.2868   20.9091 C   0  0  0  0  0  0
  -29.2004  -20.7979   23.2608 C   0  0  0  0  0  0
  -28.4021  -23.0235   22.5939 C   0  0  0  0  0  0
  -29.1693  -20.3672   21.9167 C   0  0  0  0  0  0
  -28.4299  -22.6206   21.2347 C   0  0  0  0  0  0
  -28.8211  -17.5926   19.8640 C   0  0  0  0  0  0
  -28.5525  -16.9784   22.2859 C   0  0  0  0  0  0
  -30.0618  -16.6777   19.8302 C   0  0  0  0  0  0
  -29.7975  -16.0686   22.1605 C   0  0  0  0  0  0
  -28.5581  -18.1459   21.2730 C   0  0  0  0  0  0
  -29.6597  -19.8627   24.3634 C   0  0  0  0  0  0
  -29.0869  -25.2369   23.6359 C   0  0  0  0  0  0
  -26.7229  -24.3757   23.9354 C   0  0  0  0  0  0
  -28.6784  -25.6663   19.1573 C   0  0  0  0  0  0
  -29.1712  -24.3723   19.8455 C   0  0  0  0  0  0
  -27.9452  -24.4253   23.0047 C   0  0  0  0  0  0
  -29.9478  -15.5615   20.7881 N   0  0  0  0  0  0
  -29.5823  -19.0878   21.6087 O   0  0  0  0  0  0
  -28.0987  -23.5098   20.2365 O   0  0  0  0  0  0
  -31.4609  -12.3828   19.1247 H   0  0  0  0  0  0
  -30.3071  -11.2886   19.8321 H   0  0  0  0  0  0
  -29.7273  -11.7656   17.4306 H   0  0  0  0  0  0
  -29.6650  -13.4782   17.7680 H   0  0  0  0  0  0
  -27.8127  -11.3094   18.8135 H   0  0  0  0  0  0
  -27.3644  -12.6437   17.7856 H   0  0  0  0  0  0
  -27.7005  -14.2537   19.5698 H   0  0  0  0  0  0
  -28.6712  -11.9715   21.3597 H   0  0  0  0  0  0
  -28.4656  -13.6274   21.8538 H   0  0  0  0  0  0
  -25.2751   -9.5691   22.4757 H   0  0  0  0  0  0
  -23.9998   -7.4641   22.7477 H   0  0  0  0  0  0
  -21.0838   -8.8778   19.8945 H   0  0  0  0  0  0
  -22.3684  -10.9684   19.6174 H   0  0  0  0  0  0
  -21.2015   -7.6153   23.9711 H   0  0  0  0  0  0
  -21.1474   -6.0525   25.9071 H   0  0  0  0  0  0
  -22.0607   -2.7614   23.2837 H   0  0  0  0  0  0
  -22.4124  -11.9874   22.4755 H   0  0  0  0  0  0
  -21.1139  -13.1270   22.2638 H   0  0  0  0  0  0
  -24.6690  -15.8490   20.5114 H   0  0  0  0  0  0
  -26.2900  -15.6199   20.0919 H   0  0  0  0  0  0
  -26.7114  -32.5528   23.1147 H   0  0  0  0  0  0
  -25.0026  -33.9772   25.0440 H   0  0  0  0  0  0
  -22.6930  -31.3099   21.4094 H   0  0  0  0  0  0
  -23.3778  -35.9617   23.3228 H   0  0  0  0  0  0
  -24.3595  -36.9020   22.2063 H   0  0  0  0  0  0
  -23.7198  -37.6480   23.6701 H   0  0  0  0  0  0
  -26.0482  -31.5940   20.5977 H   0  0  0  0  0  0
  -26.8195  -30.8769   21.9859 H   0  0  0  0  0  0
  -28.0982  -29.0933   21.1529 H   0  0  0  0  0  0
  -25.9922  -25.9457   19.0574 H   0  0  0  0  0  0
  -23.9627  -27.2828   19.0646 H   0  0  0  0  0  0
  -23.7183  -30.5964   19.4034 H   0  0  0  0  0  0
  -22.7334  -29.2431   19.8705 H   0  0  0  0  0  0
  -25.1278  -36.1958   25.0824 H   0  0  0  0  0  0
  -20.9958  -28.3265   24.1445 H   0  0  0  0  0  0
  -20.5627  -26.2289   23.3648 H   0  0  0  0  0  0
  -21.6638  -26.7418   22.1294 H   0  0  0  0  0  0
  -19.6927  -25.6296   21.1258 H   0  0  0  0  0  0
  -19.6733  -27.3187   20.6745 H   0  0  0  0  0  0
  -17.4217  -26.6750   21.3951 H   0  0  0  0  0  0
  -18.0259  -26.0060   22.8945 H   0  0  0  0  0  0
  -19.7919  -30.7241   24.2331 H   0  0  0  0  0  0
  -17.5010  -31.6274   24.5171 H   0  0  0  0  0  0
  -15.5350  -30.3014   23.7625 H   0  0  0  0  0  0
  -15.8664  -28.0839   22.7060 H   0  0  0  0  0  0
  -24.5986  -30.6920   25.7837 H   0  0  0  0  0  0
  -24.8753  -32.2856   26.4759 H   0  0  0  0  0  0
  -25.8072  -30.9061   27.0305 H   0  0  0  0  0  0
  -26.2845  -29.6802   24.1162 H   0  0  0  0  0  0
  -27.4002  -29.7267   25.4621 H   0  0  0  0  0  0
  -27.8700  -30.4334   23.9322 H   0  0  0  0  0  0
  -27.2683  -33.3611   26.2084 H   0  0  0  0  0  0
  -28.3834  -32.6876   25.0286 H   0  0  0  0  0  0
  -28.0729  -31.8415   26.5372 H   0  0  0  0  0  0
  -28.2554  -38.0155   24.7603 H   0  0  0  0  0  0
  -28.1178  -36.2698   24.6088 H   0  0  0  0  0  0
  -27.2353  -37.1246   25.8839 H   0  0  0  0  0  0
  -20.9273  -29.8766   21.6942 H   0  0  0  0  0  0
  -26.0172  -38.2865   24.1530 H   0  0  0  0  0  0
  -28.8010  -22.4163   24.6277 H   0  0  0  0  0  0
  -28.7923  -20.9735   19.8743 H   0  0  0  0  0  0
  -27.9512  -17.0244   19.5327 H   0  0  0  0  0  0
  -28.9359  -18.4127   19.1547 H   0  0  0  0  0  0
  -28.4686  -17.3600   23.3023 H   0  0  0  0  0  0
  -27.6584  -16.3748   22.1227 H   0  0  0  0  0  0
  -30.9615  -17.2557   20.0491 H   0  0  0  0  0  0
  -30.1822  -16.2926   18.8146 H   0  0  0  0  0  0
  -29.7268  -15.2477   22.8761 H   0  0  0  0  0  0
  -30.6923  -16.6299   22.4349 H   0  0  0  0  0  0
  -27.5786  -18.6301   21.2874 H   0  0  0  0  0  0
  -29.9902  -20.4205   25.2403 H   0  0  0  0  0  0
  -30.4965  -19.2482   24.0296 H   0  0  0  0  0  0
  -28.8459  -19.2062   24.6690 H   0  0  0  0  0  0
  -29.9290  -25.3358   22.9510 H   0  0  0  0  0  0
  -29.4549  -24.7724   24.5511 H   0  0  0  0  0  0
  -28.7539  -26.2445   23.8881 H   0  0  0  0  0  0
  -25.8873  -23.8625   23.4584 H   0  0  0  0  0  0
  -26.3859  -25.3813   24.1892 H   0  0  0  0  0  0
  -26.9411  -23.8594   24.8705 H   0  0  0  0  0  0
  -27.8875  -25.4467   18.4448 H   0  0  0  0  0  0
  -29.4973  -26.0325   18.5377 H   0  0  0  0  0  0
  -29.8312  -24.6228   20.6769 H   0  0  0  0  0  0
  -29.7813  -23.8115   19.1358 H   0  0  0  0  0  0
  -27.6249  -24.9673   22.1151 H   0  0  0  0  0  0
  1 25  1  0  0  0
  1 30  2  0  0  0
  1 88  1  0  0  0
  2  3  1  0  0  0
  2 25  1  0  0  0
  2 91  1  0  0  0
  2 92  1  0  0  0
  3  4  1  0  0  0
  3 93  1  0  0  0
  3 94  1  0  0  0
  4  5  1  0  0  0
  4 95  1  0  0  0
  4 96  1  0  0  0
  5  6  1  0  0  0
  5 26  1  0  0  0
  5 97  1  0  0  0
  6 25  1  0  0  0
  6 98  1  0  0  0
  6 99  1  0  0  0
  7  8  2  0  0  0
  7 26  1  0  0  0
  7 29  1  0  0  0
  8  9  1  0  0  0
  8 22  1  0  0  0
  9 10  1  0  0  0
  9 27  2  0  0  0
 10 11  2  0  0  0
 10 15  1  0  0  0
 11 12  1  0  0  0
 11100  1  0  0  0
 12 13  2  0  0  0
 12101  1  0  0  0
 13 14  1  0  0  0
 13 31  1  0  0  0
 14 15  2  0  0  0
 14102  1  0  0  0
 15103  1  0  0  0
 16 17  2  0  0  0
 16 21  1  0  0  0
 16 31  1  0  0  0
 17 18  1  0  0  0
 17104  1  0  0  0
 18 19  2  0  0  0
 18105  1  0  0  0
 19 20  1  0  0  0
 19 24  1  0  0  0
 20 21  2  0  0  0
 20106  1  0  0  0
 21 23  1  0  0  0
 22 28  1  0  0  0
 22 32  2  0  0  0
 26 27  1  0  0  0
 28107  1  0  0  0
 28108  1  0  0  0
 29109  1  0  0  0
 29110  1  0  0  0
 33 34  1  0  0  0
 33 66  1  0  0  0
 33 70  2  0  0  0
 34 36  1  0  0  0
 34 59  1  0  0  0
 34111  1  0  0  0
 35 44  2  0  0  0
 35 45  1  0  0  0
 35 68  1  0  0  0
 36 56  1  0  0  0
 36112  1  0  0  0
 37 39  1  0  0  0
 37 47  1  0  0  0
 37 66  1  0  0  0
 37113  1  0  0  0
 38 43  2  0  0  0
 38 46  1  0  0  0
 38 47  1  0  0  0
 39 64  1  0  0  0
 39 67  2  0  0  0
 40 52  1  0  0  0
 40 53  2  0  0  0
 40 58  1  0  0  0
 41114  1  0  0  0
 41115  1  0  0  0
 41116  1  0  0  0
 41 48  1  0  0  0
 42 43  1  0  0  0
 42 66  1  0  0  0
 42117  1  0  0  0
 42118  1  0  0  0
 43 44  1  0  0  0
 44119  1  0  0  0
 45 46  2  0  0  0
 45120  1  0  0  0
 46121  1  0  0  0
 47122  1  0  0  0
 47123  1  0  0  0
 48 56  1  0  0  0
 48 65  1  0  0  0
 48124  1  0  0  0
 49 50  1  0  0  0
 49 53  1  0  0  0
 49 64  1  0  0  0
 49125  1  0  0  0
 50 51  1  0  0  0
 50126  1  0  0  0
 50127  1  0  0  0
 51 52  1  0  0  0
 51128  1  0  0  0
 51129  1  0  0  0
 52130  1  0  0  0
 52131  1  0  0  0
 53 54  1  0  0  0
 54 55  2  0  0  0
 54132  1  0  0  0
 55 57  1  0  0  0
 55133  1  0  0  0
 56 69  2  0  0  0
 57 58  2  0  0  0
 57134  1  0  0  0
 58135  1  0  0  0
 59 60  1  0  0  0
 59 61  1  0  0  0
 59 62  1  0  0  0
 60136  1  0  0  0
 60137  1  0  0  0
 60138  1  0  0  0
 61139  1  0  0  0
 61140  1  0  0  0
 61141  1  0  0  0
 62142  1  0  0  0
 62143  1  0  0  0
 62144  1  0  0  0
 63 65  1  0  0  0
 63145  1  0  0  0
 63146  1  0  0  0
 63147  1  0  0  0
 64148  1  0  0  0
 65149  1  0  0  0
 68 85  1  0  0  0
 71 73  2  0  0  0
 71 74  1  0  0  0
 71150  1  0  0  0
 72 75  2  0  0  0
 72 76  1  0  0  0
 72151  1  0  0  0
 73 75  1  0  0  0
 73 82  1  0  0  0
 74 76  2  0  0  0
 74 87  1  0  0  0
 75 89  1  0  0  0
 76 90  1  0  0  0
 77 79  1  0  0  0
 77 81  1  0  0  0
 77152  1  0  0  0
 77153  1  0  0  0
 78 80  1  0  0  0
 78 81  1  0  0  0
 78154  1  0  0  0
 78155  1  0  0  0
 79 88  1  0  0  0
 79156  1  0  0  0
 79157  1  0  0  0
 80 88  1  0  0  0
 80158  1  0  0  0
 80159  1  0  0  0
 81 89  1  0  0  0
 81160  1  0  0  0
 82161  1  0  0  0
 82162  1  0  0  0
 82163  1  0  0  0
 83164  1  0  0  0
 83165  1  0  0  0
 83166  1  0  0  0
 83 87  1  0  0  0
 84 87  1  0  0  0
 84167  1  0  0  0
 84168  1  0  0  0
 84169  1  0  0  0
 85 86  1  0  0  0
 85170  1  0  0  0
 85171  1  0  0  0
 86 90  1  0  0  0
 86172  1  0  0  0
 86173  1  0  0  0
 87174  1  0  0  0
M  ISO  4   1 100  68 101  85 101  88 100
M  END
> <chiral flag>
0

> <version>
0

> <s_m_source_file>
/data/baiqing/PycharmProjects/Reinvent-master-3.2/result/LINK_invent/BTK/process_docking_weight1_custom_sum_contain_oxygen_bond_distance_aromatic_linkinvent_7_9_3/rearranged_h_0150.sdf

> <i_m_source_file_index>
46

> <r_mmod_Potential_Energy-OPLS-2005>
187.940414428711

> <r_mmod_Stretch_Energy-OPLS-2005>
40.0805625915527

> <r_mmod_Bend_Energy-OPLS-2005>
111.326629638672

> <r_mmod_Torsional_Energy-OPLS-2005>
374.493896484375

> <r_mmod_Improper_Torsional_Energy-OPLS-2005>
14.2749814987183

> <r_mmod_Van_der_Waal_Energy-OPLS-2005>
140.40217590332

> <r_mmod_Electrostatic_Energy-OPLS-2005>
-313.750762939453

> <r_mmod_Solvation_Energy-OPLS-2005>
-193.363967895508

> <b_mmod_Minimization_Converged-OPLS-2005>
0

> <r_mmod_RMS_Derivative-OPLS-2005>
1.37006497383118

$$$$
46
                    3D
 Structure written by MMmdl.
177186  0  0  1  0            999 V2000
  -30.7126  -14.4003   20.6304 C   0  0  0  0  0  0
  -30.4209  -12.2895   19.3876 C   0  0  0  0  0  0
  -29.4816  -12.5343   18.1902 C   0  0  0  0  0  0
  -28.0032  -12.3912   18.6036 C   0  0  0  0  0  0
  -27.6652  -13.1923   19.8873 C   0  0  2  0  0  0
  -28.7084  -12.9153   20.9923 C   0  0  0  0  0  0
  -25.2633  -13.8119   20.5721 C   0  0  0  0  0  0
  -24.1848  -13.0419   20.9157 C   0  0  0  0  0  0
  -24.6390  -11.6874   20.8748 C   0  0  0  0  0  0
  -23.9053  -10.4270   21.0418 C   0  0  0  0  0  0
  -24.3601   -9.4191   21.9203 C   0  0  0  0  0  0
  -23.6277   -8.2228   22.0765 C   0  0  0  0  0  0
  -22.4270   -8.0261   21.3543 C   0  0  0  0  0  0
  -21.9901   -9.0239   20.4653 C   0  0  0  0  0  0
  -22.7225  -10.2123   20.3071 C   0  0  0  0  0  0
  -21.6835   -6.0727   22.5280 C   0  0  0  0  0  0
  -21.3986   -6.5636   23.8206 C   0  0  0  0  0  0
  -21.3667   -5.6807   24.9180 C   0  0  0  0  0  0
  -21.6051   -4.3071   24.7236 C   0  0  0  0  0  0
  -21.8815   -3.8153   23.4362 C   0  0  0  0  0  0
  -21.9179   -4.6958   22.3409 C   0  0  0  0  0  0
  -22.7877  -13.5234   21.1829 C   0  0  0  0  0  0
  -22.1640   -4.2146   21.0985 F   0  0  0  0  0  0
  -21.5663   -3.4560   25.7753 F   0  0  0  0  0  0
  -30.0435  -13.2322   20.4498 N   0  0  0  0  0  0
  -26.3045  -12.9253   20.3440 N   0  0  0  0  0  0
  -25.9314  -11.6425   20.5812 N   0  0  0  0  0  0
  -22.0509  -12.8224   22.0382 N   0  0  0  0  0  0
  -25.4448  -15.1824   20.4152 N   0  0  0  0  0  0
  -31.8018  -14.6509   20.1027 O   0  0  0  0  0  0
  -21.6626   -6.8866   21.4244 O   0  0  0  0  0  0
  -22.3564  -14.5549   20.6694 O   0  0  0  0  0  0
  -24.6089  -31.8713   23.2104 C   0  0  0  0  0  0
  -25.9005  -32.4847   23.8391 C   0  0  1  0  0  0
  -27.2566  -27.4767   20.1070 C   0  0  0  0  0  0
  -25.5878  -33.8640   24.2342 N   0  0  0  0  0  0
  -23.3953  -30.4890   21.5522 C   0  0  2  0  0  0
  -24.8457  -28.9522   20.1250 C   0  0  0  0  0  0
  -22.7380  -29.4660   22.5051 C   0  0  0  0  0  0
  -18.0254  -28.1368   22.8496 C   0  0  0  0  0  0
  -24.1484  -36.7319   23.2638 C   0  0  0  0  0  0
  -25.9151  -30.8547   21.3497 C   0  0  0  0  0  0
  -25.9995  -29.4871   20.7082 C   0  0  0  0  0  0
  -27.2091  -28.7659   20.6820 C   0  0  0  0  0  0
  -26.0890  -26.9507   19.5164 C   0  0  0  0  0  0
  -24.8830  -27.6816   19.5236 C   0  0  0  0  0  0
  -23.6023  -29.8100   20.1711 C   0  0  0  0  0  0
  -25.4104  -36.3128   24.0348 C   0  0  1  0  0  0
  -20.5837  -28.3631   23.1362 C   0  0  2  0  0  0
  -20.6754  -26.9381   22.5430 C   0  0  0  0  0  0
  -19.5741  -26.6382   21.5222 C   0  0  0  0  0  0
  -18.1906  -26.7924   22.1612 C   0  0  0  0  0  0
  -19.1499  -28.8817   23.2928 C   0  0  0  0  0  0
  -18.9433  -30.1434   23.8923 C   0  0  0  0  0  0
  -17.6436  -30.6581   24.0560 C   0  0  0  0  0  0
  -25.9035  -34.9491   23.5151 C   0  0  0  0  0  0
  -16.5331  -29.9076   23.6339 C   0  0  0  0  0  0
  -16.7245  -28.6495   23.0359 C   0  0  0  0  0  0
  -26.4459  -31.6593   25.0687 C   0  0  0  0  0  0
  -25.3725  -31.3642   26.1422 C   0  0  0  0  0  0
  -27.0293  -30.3048   24.6009 C   0  0  0  0  0  0
  -27.6032  -32.4296   25.7458 C   0  0  0  0  0  0
  -27.5601  -37.1808   24.8451 C   0  0  0  0  0  0
  -21.4111  -29.3010   22.3789 N   0  0  0  0  0  0
  -26.4287  -37.3819   23.9435 N   0  0  0  0  0  0
  -24.6585  -31.0840   22.0981 N   0  0  0  0  0  0
  -23.4177  -28.8213   23.3085 O   0  0  0  0  0  0
  -28.4268  -26.7590   19.9994 O   0  0  0  0  0  0
  -26.5610  -34.8939   22.4719 O   0  0  0  0  0  0
  -23.5293  -32.1425   23.7533 O   0  0  0  0  0  0
  -29.4180  -18.7869   20.3110 C   0  0  0  0  0  0
  -31.2635  -18.7766   21.9068 C   0  0  0  0  0  0
  -30.3831  -19.4888   21.0620 C   0  0  0  0  0  0
  -30.2084  -16.6869   21.2586 C   0  0  0  0  0  0
  -29.3234  -17.3782   20.3984 C   0  0  0  0  0  0
  -31.1841  -17.3679   22.0198 C   0  0  0  0  0  0
  -30.4122  -21.6065   19.5933 C   0  0  0  0  0  0
  -29.3914  -21.6884   21.8510 C   0  0  0  0  0  0
  -30.6599  -23.1276   19.6497 C   0  0  0  0  0  0
  -29.6594  -23.2015   21.9268 C   0  0  0  0  0  0
  -30.4730  -21.0088   21.0066 C   0  0  1  0  0  0
  -33.8091  -16.2264   24.3652 C   0  0  0  0  0  0
  -29.6798  -27.3504   22.0635 C   0  0  0  0  0  0
  -27.7280  -17.2505   18.6055 C   0  0  0  0  0  0
  -30.1520  -25.2842   20.6948 C   0  0  0  0  0  0
  -32.9891  -17.2772   23.6144 C   0  0  0  0  0  0
  -29.0444  -26.2497   21.1898 C   0  0  2  0  0  0
  -30.0637  -15.2897   21.3884 N   0  0  0  0  0  0
  -29.7464  -23.8529   20.5842 N   0  3  1  0  0  0
  -28.4044  -16.6289   19.6921 O   0  0  0  0  0  0
  -31.9935  -16.6122   22.8477 O   0  0  0  0  0  0
  -31.4615  -12.4034   19.0788 H   0  0  0  0  0  0
  -30.3250  -11.2645   19.7483 H   0  0  0  0  0  0
  -29.7110  -11.8473   17.3754 H   0  0  0  0  0  0
  -29.6503  -13.5376   17.7962 H   0  0  0  0  0  0
  -27.7938  -11.3316   18.7588 H   0  0  0  0  0  0
  -27.3561  -12.7154   17.7867 H   0  0  0  0  0  0
  -27.7224  -14.2461   19.6261 H   0  0  0  0  0  0
  -28.6828  -11.8627   21.2753 H   0  0  0  0  0  0
  -28.4654  -13.4587   21.9064 H   0  0  0  0  0  0
  -25.2740   -9.5657   22.4787 H   0  0  0  0  0  0
  -23.9978   -7.4620   22.7493 H   0  0  0  0  0  0
  -21.0829   -8.8756   19.8961 H   0  0  0  0  0  0
  -22.3681  -10.9669   19.6178 H   0  0  0  0  0  0
  -21.1943   -7.6136   23.9709 H   0  0  0  0  0  0
  -21.1505   -6.0539   25.9082 H   0  0  0  0  0  0
  -22.0589   -2.7612   23.2878 H   0  0  0  0  0  0
  -22.4090  -11.9843   22.4725 H   0  0  0  0  0  0
  -21.1148  -13.1284   22.2633 H   0  0  0  0  0  0
  -24.6978  -15.8542   20.5478 H   0  0  0  0  0  0
  -26.3259  -15.6122   20.1599 H   0  0  0  0  0  0
  -26.7082  -32.5590   23.1171 H   0  0  0  0  0  0
  -25.0003  -33.9795   25.0470 H   0  0  0  0  0  0
  -22.6815  -31.3026   21.4095 H   0  0  0  0  0  0
  -23.3771  -35.9624   23.3243 H   0  0  0  0  0  0
  -24.3584  -36.8993   22.2066 H   0  0  0  0  0  0
  -23.7190  -37.6490   23.6678 H   0  0  0  0  0  0
  -26.0107  -31.6190   20.5770 H   0  0  0  0  0  0
  -26.8088  -30.9207   21.9574 H   0  0  0  0  0  0
  -28.1032  -29.2316   21.0661 H   0  0  0  0  0  0
  -26.1193  -25.9806   19.0404 H   0  0  0  0  0  0
  -23.9975  -27.2645   19.0641 H   0  0  0  0  0  0
  -23.6984  -30.5781   19.4032 H   0  0  0  0  0  0
  -22.7310  -29.2197   19.8833 H   0  0  0  0  0  0
  -25.1278  -36.2007   25.0842 H   0  0  0  0  0  0
  -20.9923  -28.3180   24.1486 H   0  0  0  0  0  0
  -20.5664  -26.2233   23.3597 H   0  0  0  0  0  0
  -21.6624  -26.7431   22.1218 H   0  0  0  0  0  0
  -19.6890  -25.6303   21.1226 H   0  0  0  0  0  0
  -19.6703  -27.3216   20.6774 H   0  0  0  0  0  0
  -17.4202  -26.6723   21.3985 H   0  0  0  0  0  0
  -18.0249  -26.0040   22.8972 H   0  0  0  0  0  0
  -19.7905  -30.7256   24.2298 H   0  0  0  0  0  0
  -17.4982  -31.6264   24.5138 H   0  0  0  0  0  0
  -15.5335  -30.2984   23.7639 H   0  0  0  0  0  0
  -15.8643  -28.0822   22.7068 H   0  0  0  0  0  0
  -24.5911  -30.7001   25.7711 H   0  0  0  0  0  0
  -24.8894  -32.2770   26.4919 H   0  0  0  0  0  0
  -25.8075  -30.8748   27.0144 H   0  0  0  0  0  0
  -26.2824  -29.6811   24.1076 H   0  0  0  0  0  0
  -27.4105  -29.7281   25.4450 H   0  0  0  0  0  0
  -27.8637  -30.4393   23.9115 H   0  0  0  0  0  0
  -27.2670  -33.3587   26.2073 H   0  0  0  0  0  0
  -28.3834  -32.6872   25.0279 H   0  0  0  0  0  0
  -28.0703  -31.8378   26.5341 H   0  0  0  0  0  0
  -28.2562  -38.0163   24.7595 H   0  0  0  0  0  0
  -28.1162  -36.2705   24.6155 H   0  0  0  0  0  0
  -27.2325  -37.1309   25.8848 H   0  0  0  0  0  0
  -20.9269  -29.8715   21.7001 H   0  0  0  0  0  0
  -26.0185  -38.2894   24.1471 H   0  0  0  0  0  0
  -28.7393  -19.3470   19.6854 H   0  0  0  0  0  0
  -31.9881  -19.3399   22.4761 H   0  0  0  0  0  0
  -31.1683  -21.1408   18.9606 H   0  0  0  0  0  0
  -29.4509  -21.4058   19.1197 H   0  0  0  0  0  0
  -28.3997  -21.4903   21.4405 H   0  0  0  0  0  0
  -29.3947  -21.2736   22.8600 H   0  0  0  0  0  0
  -30.5588  -23.5418   18.6464 H   0  0  0  0  0  0
  -31.6939  -23.3054   19.9492 H   0  0  0  0  0  0
  -30.5945  -23.3593   22.4669 H   0  0  0  0  0  0
  -28.8795  -23.6672   22.5278 H   0  0  0  0  0  0
  -31.4441  -21.2787   21.4262 H   0  0  0  0  0  0
  -34.6158  -16.6965   24.9294 H   0  0  0  0  0  0
  -34.2568  -15.5131   23.6722 H   0  0  0  0  0  0
  -33.1922  -15.6683   25.0699 H   0  0  0  0  0  0
  -30.2933  -26.9159   22.8536 H   0  0  0  0  0  0
  -28.9348  -27.9564   22.5755 H   0  0  0  0  0  0
  -30.3195  -28.0066   21.4728 H   0  0  0  0  0  0
  -27.1077  -16.5113   18.0970 H   0  0  0  0  0  0
  -28.4332  -17.6466   17.8725 H   0  0  0  0  0  0
  -27.0693  -18.0513   18.9448 H   0  0  0  0  0  0
  -31.0225  -25.3320   21.3517 H   0  0  0  0  0  0
  -30.5130  -25.6449   19.7297 H   0  0  0  0  0  0
  -33.6527  -17.8530   22.9683 H   0  0  0  0  0  0
  -32.5276  -17.9617   24.3279 H   0  0  0  0  0  0
  -28.3011  -25.7202   21.7865 H   0  0  0  0  0  0
  -29.1621  -14.9727   21.7065 H   0  0  0  0  0  0
  -28.8257  -23.8277   20.1667 H   0  0  0  0  0  0
  1 25  1  0  0  0
  1 30  2  0  0  0
  1 88  1  0  0  0
  2  3  1  0  0  0
  2 25  1  0  0  0
  2 92  1  0  0  0
  2 93  1  0  0  0
  3  4  1  0  0  0
  3 94  1  0  0  0
  3 95  1  0  0  0
  4  5  1  0  0  0
  4 96  1  0  0  0
  4 97  1  0  0  0
  5  6  1  0  0  0
  5 26  1  0  0  0
  5 98  1  0  0  0
  6 25  1  0  0  0
  6 99  1  0  0  0
  6100  1  0  0  0
  7  8  2  0  0  0
  7 26  1  0  0  0
  7 29  1  0  0  0
  8  9  1  0  0  0
  8 22  1  0  0  0
  9 10  1  0  0  0
  9 27  2  0  0  0
 10 11  2  0  0  0
 10 15  1  0  0  0
 11 12  1  0  0  0
 11101  1  0  0  0
 12 13  2  0  0  0
 12102  1  0  0  0
 13 14  1  0  0  0
 13 31  1  0  0  0
 14 15  2  0  0  0
 14103  1  0  0  0
 15104  1  0  0  0
 16 17  2  0  0  0
 16 21  1  0  0  0
 16 31  1  0  0  0
 17 18  1  0  0  0
 17105  1  0  0  0
 18 19  2  0  0  0
 18106  1  0  0  0
 19 20  1  0  0  0
 19 24  1  0  0  0
 20 21  2  0  0  0
 20107  1  0  0  0
 21 23  1  0  0  0
 22 28  1  0  0  0
 22 32  2  0  0  0
 26 27  1  0  0  0
 28108  1  0  0  0
 28109  1  0  0  0
 29110  1  0  0  0
 29111  1  0  0  0
 33 34  1  0  0  0
 33 66  1  0  0  0
 33 70  2  0  0  0
 34 36  1  0  0  0
 34 59  1  0  0  0
 34112  1  0  0  0
 35 44  2  0  0  0
 35 45  1  0  0  0
 35 68  1  0  0  0
 36 56  1  0  0  0
 36113  1  0  0  0
 37 39  1  0  0  0
 37 47  1  0  0  0
 37 66  1  0  0  0
 37114  1  0  0  0
 38 43  2  0  0  0
 38 46  1  0  0  0
 38 47  1  0  0  0
 39 64  1  0  0  0
 39 67  2  0  0  0
 40 52  1  0  0  0
 40 53  2  0  0  0
 40 58  1  0  0  0
 41115  1  0  0  0
 41116  1  0  0  0
 41117  1  0  0  0
 41 48  1  0  0  0
 42 43  1  0  0  0
 42 66  1  0  0  0
 42118  1  0  0  0
 42119  1  0  0  0
 43 44  1  0  0  0
 44120  1  0  0  0
 45 46  2  0  0  0
 45121  1  0  0  0
 46122  1  0  0  0
 47123  1  0  0  0
 47124  1  0  0  0
 48 56  1  0  0  0
 48 65  1  0  0  0
 48125  1  0  0  0
 49 50  1  0  0  0
 49 53  1  0  0  0
 49 64  1  0  0  0
 49126  1  0  0  0
 50 51  1  0  0  0
 50127  1  0  0  0
 50128  1  0  0  0
 51 52  1  0  0  0
 51129  1  0  0  0
 51130  1  0  0  0
 52131  1  0  0  0
 52132  1  0  0  0
 53 54  1  0  0  0
 54 55  2  0  0  0
 54133  1  0  0  0
 55 57  1  0  0  0
 55134  1  0  0  0
 56 69  2  0  0  0
 57 58  2  0  0  0
 57135  1  0  0  0
 58136  1  0  0  0
 59 60  1  0  0  0
 59 61  1  0  0  0
 59 62  1  0  0  0
 60137  1  0  0  0
 60138  1  0  0  0
 60139  1  0  0  0
 61140  1  0  0  0
 61141  1  0  0  0
 61142  1  0  0  0
 62143  1  0  0  0
 62144  1  0  0  0
 62145  1  0  0  0
 63 65  1  0  0  0
 63146  1  0  0  0
 63147  1  0  0  0
 63148  1  0  0  0
 64149  1  0  0  0
 65150  1  0  0  0
 68 87  1  0  0  0
 71 73  2  0  0  0
 71 75  1  0  0  0
 71151  1  0  0  0
 72 73  1  0  0  0
 72 76  2  0  0  0
 72152  1  0  0  0
 73 81  1  0  0  0
 74 75  2  0  0  0
 74 76  1  0  0  0
 74 88  1  0  0  0
 75 90  1  0  0  0
 76 91  1  0  0  0
 77 79  1  0  0  0
 77 81  1  0  0  0
 77153  1  0  0  0
 77154  1  0  0  0
 78 80  1  0  0  0
 78 81  1  0  0  0
 78155  1  0  0  0
 78156  1  0  0  0
 79 89  1  0  0  0
 79157  1  0  0  0
 79158  1  0  0  0
 80 89  1  0  0  0
 80159  1  0  0  0
 80160  1  0  0  0
 81161  1  0  0  0
 82 86  1  0  0  0
 82162  1  0  0  0
 82163  1  0  0  0
 82164  1  0  0  0
 83165  1  0  0  0
 83166  1  0  0  0
 83167  1  0  0  0
 83 87  1  0  0  0
 84 90  1  0  0  0
 84168  1  0  0  0
 84169  1  0  0  0
 84170  1  0  0  0
 85 87  1  0  0  0
 85171  1  0  0  0
 85172  1  0  0  0
 85 89  1  0  0  0
 86 91  1  0  0  0
 86173  1  0  0  0
 86174  1  0  0  0
 87175  1  0  0  0
 88176  1  0  0  0
 89177  1  0  0  0
M  CHG  1  89   1
M  ISO  4   1 100  68 101  87 101  88 100
M  END
> <chiral flag>
0

> <version>
0

> <s_m_source_file>
/data/baiqing/PycharmProjects/Reinvent-master-3.2/result/LINK_invent/BTK/process_docking_weight1_custom_sum_contain_oxygen_bond_distance_aromatic_linkinvent_7_9_3/rearranged_h_0150.sdf

> <i_m_source_file_index>
47

> <r_mmod_Potential_Energy-OPLS-2005>
-160.480499267578

> <r_mmod_Stretch_Energy-OPLS-2005>
36.8174705505371

> <r_mmod_Bend_Energy-OPLS-2005>
115.786491394043

> <r_mmod_Torsional_Energy-OPLS-2005>
296.085662841797

> <r_mmod_Improper_Torsional_Energy-OPLS-2005>
4.50313234329224

> <r_mmod_Van_der_Waal_Energy-OPLS-2005>
165.746978759766

> <r_mmod_Electrostatic_Energy-OPLS-2005>
-350.121307373047

> <r_mmod_Solvation_Energy-OPLS-2005>
-436.11328125

> <b_mmod_Minimization_Converged-OPLS-2005>
0

> <r_mmod_RMS_Derivative-OPLS-2005>
2.50541806221008

$$$$
47
                    3D
 Structure written by MMmdl.
167176  0  0  1  0            999 V2000
  -30.7172  -14.5258   20.5825 C   0  0  0  0  0  0
  -30.4187  -12.3469   19.4325 C   0  0  0  0  0  0
  -29.4909  -12.5000   18.2103 C   0  0  0  0  0  0
  -28.0173  -12.3250   18.6258 C   0  0  0  0  0  0
  -27.6492  -13.1891   19.8581 C   0  0  2  0  0  0
  -28.6972  -13.0306   20.9889 C   0  0  0  0  0  0
  -25.2533  -13.8094   20.5631 C   0  0  0  0  0  0
  -24.1803  -13.0392   20.9202 C   0  0  0  0  0  0
  -24.6354  -11.6864   20.8773 C   0  0  0  0  0  0
  -23.9020  -10.4263   21.0443 C   0  0  0  0  0  0
  -24.3580   -9.4182   21.9209 C   0  0  0  0  0  0
  -23.6269   -8.2212   22.0761 C   0  0  0  0  0  0
  -22.4254   -8.0253   21.3545 C   0  0  0  0  0  0
  -21.9887   -9.0225   20.4646 C   0  0  0  0  0  0
  -22.7208  -10.2110   20.3074 C   0  0  0  0  0  0
  -21.6829   -6.0724   22.5284 C   0  0  0  0  0  0
  -21.3996   -6.5635   23.8214 C   0  0  0  0  0  0
  -21.3661   -5.6793   24.9181 C   0  0  0  0  0  0
  -21.6050   -4.3053   24.7236 C   0  0  0  0  0  0
  -21.8816   -3.8140   23.4353 C   0  0  0  0  0  0
  -21.9178   -4.6955   22.3407 C   0  0  0  0  0  0
  -22.7830  -13.5205   21.1867 C   0  0  0  0  0  0
  -22.1649   -4.2139   21.0983 F   0  0  0  0  0  0
  -21.5643   -3.4545   25.7750 F   0  0  0  0  0  0
  -30.0178  -13.3584   20.4304 N   0  0  0  0  0  0
  -26.2948  -12.9232   20.3298 N   0  0  0  0  0  0
  -25.9266  -11.6421   20.5783 N   0  0  0  0  0  0
  -22.0454  -12.8214   22.0424 N   0  0  0  0  0  0
  -25.4171  -15.1806   20.3941 N   0  0  0  0  0  0
  -31.8606  -14.6478   20.1304 O   0  0  0  0  0  0
  -21.6615   -6.8857   21.4241 O   0  0  0  0  0  0
  -22.3533  -14.5516   20.6712 O   0  0  0  0  0  0
  -24.6153  -31.8676   23.2103 C   0  0  0  0  0  0
  -25.9048  -32.4822   23.8398 C   0  0  1  0  0  0
  -27.2428  -27.4234   20.1043 C   0  0  0  0  0  0
  -25.5890  -33.8621   24.2322 N   0  0  0  0  0  0
  -23.4059  -30.4902   21.5496 C   0  0  2  0  0  0
  -24.8581  -28.9512   20.1218 C   0  0  0  0  0  0
  -22.7416  -29.4657   22.4985 C   0  0  0  0  0  0
  -18.0271  -28.1375   22.8491 C   0  0  0  0  0  0
  -24.1480  -36.7317   23.2638 C   0  0  0  0  0  0
  -25.9366  -30.8247   21.3721 C   0  0  0  0  0  0
  -26.0164  -29.4544   20.7296 C   0  0  0  0  0  0
  -27.2122  -28.6947   20.7320 C   0  0  0  0  0  0
  -26.0723  -26.9442   19.4839 C   0  0  0  0  0  0
  -24.8791  -27.6918   19.4997 C   0  0  0  0  0  0
  -23.6196  -29.8198   20.1663 C   0  0  0  0  0  0
  -25.4102  -36.3113   24.0337 C   0  0  1  0  0  0
  -20.5863  -28.3665   23.1313 C   0  0  2  0  0  0
  -20.6759  -26.9397   22.5423 C   0  0  0  0  0  0
  -19.5743  -26.6379   21.5215 C   0  0  0  0  0  0
  -18.1919  -26.7921   22.1622 C   0  0  0  0  0  0
  -19.1521  -28.8835   23.2900 C   0  0  0  0  0  0
  -18.9452  -30.1438   23.8912 C   0  0  0  0  0  0
  -17.6457  -30.6579   24.0563 C   0  0  0  0  0  0
  -25.9029  -34.9481   23.5131 C   0  0  0  0  0  0
  -16.5348  -29.9083   23.6327 C   0  0  0  0  0  0
  -16.7260  -28.6501   23.0349 C   0  0  0  0  0  0
  -26.4476  -31.6603   25.0729 C   0  0  0  0  0  0
  -25.3728  -31.3712   26.1466 C   0  0  0  0  0  0
  -27.0307  -30.3039   24.6119 C   0  0  0  0  0  0
  -27.6034  -32.4325   25.7503 C   0  0  0  0  0  0
  -27.5582  -37.1815   24.8461 C   0  0  0  0  0  0
  -21.4145  -29.3033   22.3720 N   0  0  0  0  0  0
  -26.4289  -37.3800   23.9408 N   0  0  0  0  0  0
  -24.6702  -31.0757   22.1020 N   0  0  0  0  0  0
  -23.4179  -28.8205   23.3040 O   0  0  0  0  0  0
  -28.3592  -26.6169   20.0072 O   0  0  0  0  0  0
  -26.5599  -34.8930   22.4696 O   0  0  0  0  0  0
  -23.5343  -32.1446   23.7479 O   0  0  0  0  0  0
  -30.4285  -23.3045   22.3751 C   0  0  0  0  0  0
  -29.3958  -23.0583   20.2033 C   0  0  0  0  0  0
  -30.0012  -23.8924   21.1672 C   0  0  0  0  0  0
  -30.2747  -21.9189   22.6090 C   0  0  0  0  0  0
  -29.2184  -21.6667   20.4305 C   0  0  0  0  0  0
  -29.6940  -21.0664   21.6366 C   0  0  0  0  0  0
  -31.1362  -17.8956   21.5557 C   0  0  0  0  0  0
  -28.6414  -17.6536   21.2617 C   0  0  0  0  0  0
  -30.9416  -16.4574   22.1238 C   0  0  0  0  0  0
  -28.9152  -16.2265   20.7313 C   0  0  0  0  0  0
  -29.8310  -18.6240   21.1410 C   0  0  0  0  0  0
  -30.7444  -21.3427   23.9339 C   0  0  0  0  0  0
  -28.4571  -20.8894   19.3718 C   0  0  0  0  0  0
  -30.2928  -25.3798   20.8969 C   0  0  0  0  0  0
  -29.1653  -26.4176   21.1680 C   0  0  0  0  0  0
  -30.1355  -15.5693   21.2541 N   0  0  0  0  0  0
  -29.5385  -19.7344   22.0122 O   0  0  0  0  0  0
  -31.4619  -12.4446   19.1266 H   0  0  0  0  0  0
  -30.3293  -11.3462   19.8580 H   0  0  0  0  0  0
  -29.7515  -11.7695   17.4431 H   0  0  0  0  0  0
  -29.6334  -13.4827   17.7582 H   0  0  0  0  0  0
  -27.8582  -11.2703   18.8519 H   0  0  0  0  0  0
  -27.3565  -12.5592   17.7905 H   0  0  0  0  0  0
  -27.6613  -14.2098   19.4878 H   0  0  0  0  0  0
  -28.6987  -12.0053   21.3625 H   0  0  0  0  0  0
  -28.4520  -13.6459   21.8548 H   0  0  0  0  0  0
  -25.2717   -9.5660   22.4799 H   0  0  0  0  0  0
  -23.9979   -7.4598   22.7475 H   0  0  0  0  0  0
  -21.0822   -8.8734   19.8942 H   0  0  0  0  0  0
  -22.3666  -10.9655   19.6188 H   0  0  0  0  0  0
  -21.1982   -7.6143   23.9723 H   0  0  0  0  0  0
  -21.1494   -6.0521   25.9087 H   0  0  0  0  0  0
  -22.0594   -2.7601   23.2863 H   0  0  0  0  0  0
  -22.4042  -11.9865   22.4825 H   0  0  0  0  0  0
  -21.1080  -13.1262   22.2629 H   0  0  0  0  0  0
  -24.6439  -15.8265   20.5071 H   0  0  0  0  0  0
  -26.2539  -15.6210   20.0362 H   0  0  0  0  0  0
  -26.7120  -32.5535   23.1165 H   0  0  0  0  0  0
  -25.0030  -33.9779   25.0463 H   0  0  0  0  0  0
  -22.6955  -31.3073   21.4065 H   0  0  0  0  0  0
  -23.3739  -35.9652   23.3308 H   0  0  0  0  0  0
  -24.3577  -36.8923   22.2050 H   0  0  0  0  0  0
  -23.7233  -37.6526   23.6646 H   0  0  0  0  0  0
  -26.0521  -31.5855   20.5991 H   0  0  0  0  0  0
  -26.8236  -30.8820   21.9913 H   0  0  0  0  0  0
  -28.1033  -29.0938   21.1959 H   0  0  0  0  0  0
  -26.0855  -25.9817   18.9915 H   0  0  0  0  0  0
  -23.9924  -27.2985   19.0220 H   0  0  0  0  0  0
  -23.7311  -30.5929   19.4051 H   0  0  0  0  0  0
  -22.7449  -29.2392   19.8678 H   0  0  0  0  0  0
  -25.1288  -36.1980   25.0832 H   0  0  0  0  0  0
  -20.9951  -28.3227   24.1432 H   0  0  0  0  0  0
  -20.5654  -26.2273   23.3615 H   0  0  0  0  0  0
  -21.6631  -26.7438   22.1215 H   0  0  0  0  0  0
  -19.6906  -25.6291   21.1237 H   0  0  0  0  0  0
  -19.6689  -27.3195   20.6751 H   0  0  0  0  0  0
  -17.4199  -26.6678   21.4015 H   0  0  0  0  0  0
  -18.0313  -26.0054   22.9008 H   0  0  0  0  0  0
  -19.7936  -30.7245   24.2288 H   0  0  0  0  0  0
  -17.5020  -31.6265   24.5155 H   0  0  0  0  0  0
  -15.5350  -30.2996   23.7644 H   0  0  0  0  0  0
  -15.8656  -28.0826   22.7059 H   0  0  0  0  0  0
  -24.5885  -30.7090   25.7796 H   0  0  0  0  0  0
  -24.8947  -32.2871   26.4943 H   0  0  0  0  0  0
  -25.8067  -30.8849   27.0212 H   0  0  0  0  0  0
  -26.2870  -29.6808   24.1140 H   0  0  0  0  0  0
  -27.4037  -29.7268   25.4595 H   0  0  0  0  0  0
  -27.8725  -30.4359   23.9312 H   0  0  0  0  0  0
  -27.2637  -33.3602   26.2124 H   0  0  0  0  0  0
  -28.3832  -32.6924   25.0329 H   0  0  0  0  0  0
  -28.0721  -31.8423   26.5394 H   0  0  0  0  0  0
  -28.2599  -38.0112   24.7507 H   0  0  0  0  0  0
  -28.1077  -36.2647   24.6285 H   0  0  0  0  0  0
  -27.2303  -37.1456   25.8863 H   0  0  0  0  0  0
  -20.9307  -29.8754   21.6940 H   0  0  0  0  0  0
  -26.0183  -38.2879   24.1406 H   0  0  0  0  0  0
  -30.9002  -23.9228   23.1281 H   0  0  0  0  0  0
  -29.0595  -23.4955   19.2728 H   0  0  0  0  0  0
  -31.7855  -17.8278   20.6817 H   0  0  0  0  0  0
  -31.6885  -18.5023   22.2747 H   0  0  0  0  0  0
  -28.3614  -17.5713   22.3127 H   0  0  0  0  0  0
  -27.7629  -18.0649   20.7666 H   0  0  0  0  0  0
  -30.4438  -16.5134   23.0928 H   0  0  0  0  0  0
  -31.9186  -16.0175   22.3343 H   0  0  0  0  0  0
  -28.9529  -16.2499   19.6404 H   0  0  0  0  0  0
  -28.0464  -15.6452   21.0206 H   0  0  0  0  0  0
  -29.9526  -18.9396   20.1081 H   0  0  0  0  0  0
  -31.1309  -22.1175   24.5965 H   0  0  0  0  0  0
  -31.5393  -20.6149   23.7722 H   0  0  0  0  0  0
  -29.9220  -20.8434   24.4479 H   0  0  0  0  0  0
  -27.7762  -21.5425   18.8259 H   0  0  0  0  0  0
  -27.8492  -20.1038   19.8161 H   0  0  0  0  0  0
  -29.1423  -20.4514   18.6458 H   0  0  0  0  0  0
  -30.6479  -25.4891   19.8717 H   0  0  0  0  0  0
  -31.1498  -25.6527   21.5144 H   0  0  0  0  0  0
  -29.6337  -27.3717   21.4140 H   0  0  0  0  0  0
  -28.5648  -26.1263   22.0311 H   0  0  0  0  0  0
  1 25  1  0  0  0
  1 30  2  0  0  0
  1 86  1  0  0  0
  2  3  1  0  0  0
  2 25  1  0  0  0
  2 88  1  0  0  0
  2 89  1  0  0  0
  3  4  1  0  0  0
  3 90  1  0  0  0
  3 91  1  0  0  0
  4  5  1  0  0  0
  4 92  1  0  0  0
  4 93  1  0  0  0
  5  6  1  0  0  0
  5 26  1  0  0  0
  5 94  1  0  0  0
  6 25  1  0  0  0
  6 95  1  0  0  0
  6 96  1  0  0  0
  7  8  2  0  0  0
  7 26  1  0  0  0
  7 29  1  0  0  0
  8  9  1  0  0  0
  8 22  1  0  0  0
  9 10  1  0  0  0
  9 27  2  0  0  0
 10 11  2  0  0  0
 10 15  1  0  0  0
 11 12  1  0  0  0
 11 97  1  0  0  0
 12 13  2  0  0  0
 12 98  1  0  0  0
 13 14  1  0  0  0
 13 31  1  0  0  0
 14 15  2  0  0  0
 14 99  1  0  0  0
 15100  1  0  0  0
 16 17  2  0  0  0
 16 21  1  0  0  0
 16 31  1  0  0  0
 17 18  1  0  0  0
 17101  1  0  0  0
 18 19  2  0  0  0
 18102  1  0  0  0
 19 20  1  0  0  0
 19 24  1  0  0  0
 20 21  2  0  0  0
 20103  1  0  0  0
 21 23  1  0  0  0
 22 28  1  0  0  0
 22 32  2  0  0  0
 26 27  1  0  0  0
 28104  1  0  0  0
 28105  1  0  0  0
 29106  1  0  0  0
 29107  1  0  0  0
 33 34  1  0  0  0
 33 66  1  0  0  0
 33 70  2  0  0  0
 34 36  1  0  0  0
 34 59  1  0  0  0
 34108  1  0  0  0
 35 44  2  0  0  0
 35 45  1  0  0  0
 35 68  1  0  0  0
 36 56  1  0  0  0
 36109  1  0  0  0
 37 39  1  0  0  0
 37 47  1  0  0  0
 37 66  1  0  0  0
 37110  1  0  0  0
 38 43  2  0  0  0
 38 46  1  0  0  0
 38 47  1  0  0  0
 39 64  1  0  0  0
 39 67  2  0  0  0
 40 52  1  0  0  0
 40 53  2  0  0  0
 40 58  1  0  0  0
 41111  1  0  0  0
 41112  1  0  0  0
 41113  1  0  0  0
 41 48  1  0  0  0
 42 43  1  0  0  0
 42 66  1  0  0  0
 42114  1  0  0  0
 42115  1  0  0  0
 43 44  1  0  0  0
 44116  1  0  0  0
 45 46  2  0  0  0
 45117  1  0  0  0
 46118  1  0  0  0
 47119  1  0  0  0
 47120  1  0  0  0
 48 56  1  0  0  0
 48 65  1  0  0  0
 48121  1  0  0  0
 49 50  1  0  0  0
 49 53  1  0  0  0
 49 64  1  0  0  0
 49122  1  0  0  0
 50 51  1  0  0  0
 50123  1  0  0  0
 50124  1  0  0  0
 51 52  1  0  0  0
 51125  1  0  0  0
 51126  1  0  0  0
 52127  1  0  0  0
 52128  1  0  0  0
 53 54  1  0  0  0
 54 55  2  0  0  0
 54129  1  0  0  0
 55 57  1  0  0  0
 55130  1  0  0  0
 56 69  2  0  0  0
 57 58  2  0  0  0
 57131  1  0  0  0
 58132  1  0  0  0
 59 60  1  0  0  0
 59 61  1  0  0  0
 59 62  1  0  0  0
 60133  1  0  0  0
 60134  1  0  0  0
 60135  1  0  0  0
 61136  1  0  0  0
 61137  1  0  0  0
 61138  1  0  0  0
 62139  1  0  0  0
 62140  1  0  0  0
 62141  1  0  0  0
 63 65  1  0  0  0
 63142  1  0  0  0
 63143  1  0  0  0
 63144  1  0  0  0
 64145  1  0  0  0
 65146  1  0  0  0
 68 85  1  0  0  0
 71 73  2  0  0  0
 71 74  1  0  0  0
 71147  1  0  0  0
 72 73  1  0  0  0
 72 75  2  0  0  0
 72148  1  0  0  0
 73 84  1  0  0  0
 74 76  2  0  0  0
 74 82  1  0  0  0
 75 76  1  0  0  0
 75 83  1  0  0  0
 76 87  1  0  0  0
 77 79  1  0  0  0
 77 81  1  0  0  0
 77149  1  0  0  0
 77150  1  0  0  0
 78 80  1  0  0  0
 78 81  1  0  0  0
 78151  1  0  0  0
 78152  1  0  0  0
 79 86  1  0  0  0
 79153  1  0  0  0
 79154  1  0  0  0
 80 86  1  0  0  0
 80155  1  0  0  0
 80156  1  0  0  0
 81 87  1  0  0  0
 81157  1  0  0  0
 82158  1  0  0  0
 82159  1  0  0  0
 82160  1  0  0  0
 83161  1  0  0  0
 83162  1  0  0  0
 83163  1  0  0  0
 84 85  1  0  0  0
 84164  1  0  0  0
 84165  1  0  0  0
 85166  1  0  0  0
 85167  1  0  0  0
M  ISO  4   1 100  68 101  85 101  86 100
M  END
> <chiral flag>
0

> <version>
0

> <s_m_source_file>
/data/baiqing/PycharmProjects/Reinvent-master-3.2/result/LINK_invent/BTK/process_docking_weight1_custom_sum_contain_oxygen_bond_distance_aromatic_linkinvent_7_9_3/rearranged_h_0150.sdf

> <i_m_source_file_index>
48

> <r_mmod_Potential_Energy-OPLS-2005>
211.658737182617

> <r_mmod_Stretch_Energy-OPLS-2005>
48.0336112976074

> <r_mmod_Bend_Energy-OPLS-2005>
135.53044128418

> <r_mmod_Torsional_Energy-OPLS-2005>
355.026702880859

> <r_mmod_Improper_Torsional_Energy-OPLS-2005>
4.1740984916687

> <r_mmod_Van_der_Waal_Energy-OPLS-2005>
156.936767578125

> <r_mmod_Electrostatic_Energy-OPLS-2005>
-305.625457763672

> <r_mmod_Solvation_Energy-OPLS-2005>
-201.455261230469

> <b_mmod_Minimization_Converged-OPLS-2005>
0

> <r_mmod_RMS_Derivative-OPLS-2005>
1.35569286346436

$$$$
48
                    3D
 Structure written by MMmdl.
168178  0  0  1  0            999 V2000
  -30.7731  -14.5528   20.5396 C   0  0  0  0  0  0
  -30.4065  -12.3592   19.4545 C   0  0  0  0  0  0
  -29.4980  -12.4756   18.2175 C   0  0  0  0  0  0
  -28.0221  -12.3325   18.6322 C   0  0  0  0  0  0
  -27.6431  -13.2347   19.8398 C   0  0  2  0  0  0
  -28.6871  -13.1584   20.9747 C   0  0  0  0  0  0
  -25.2504  -13.8218   20.5647 C   0  0  0  0  0  0
  -24.1798  -13.0448   20.9164 C   0  0  0  0  0  0
  -24.6403  -11.6942   20.8706 C   0  0  0  0  0  0
  -23.9084  -10.4300   21.0366 C   0  0  0  0  0  0
  -24.3631   -9.4199   21.9143 C   0  0  0  0  0  0
  -23.6290   -8.2242   22.0744 C   0  0  0  0  0  0
  -22.4261   -8.0289   21.3547 C   0  0  0  0  0  0
  -21.9903   -9.0252   20.4628 C   0  0  0  0  0  0
  -22.7248  -10.2124   20.3015 C   0  0  0  0  0  0
  -21.6858   -6.0721   22.5270 C   0  0  0  0  0  0
  -21.4031   -6.5623   23.8203 C   0  0  0  0  0  0
  -21.3644   -5.6770   24.9154 C   0  0  0  0  0  0
  -21.6039   -4.3038   24.7211 C   0  0  0  0  0  0
  -21.8827   -3.8134   23.4335 C   0  0  0  0  0  0
  -21.9200   -4.6950   22.3390 C   0  0  0  0  0  0
  -22.7816  -13.5211   21.1832 C   0  0  0  0  0  0
  -22.1662   -4.2131   21.0969 F   0  0  0  0  0  0
  -21.5616   -3.4523   25.7724 F   0  0  0  0  0  0
  -30.0036  -13.4311   20.3906 N   0  0  0  0  0  0
  -26.2951  -12.9445   20.3219 N   0  0  0  0  0  0
  -25.9340  -11.6586   20.5728 N   0  0  0  0  0  0
  -22.0462  -12.8207   22.0394 N   0  0  0  0  0  0
  -25.4156  -15.1944   20.4093 N   0  0  0  0  0  0
  -31.9700  -14.4985   20.2447 O   0  0  0  0  0  0
  -21.6640   -6.8874   21.4241 O   0  0  0  0  0  0
  -22.3480  -14.5485   20.6640 O   0  0  0  0  0  0
  -24.6160  -31.8676   23.2135 C   0  0  0  0  0  0
  -25.9054  -32.4825   23.8435 C   0  0  1  0  0  0
  -27.2177  -27.3997   20.1125 C   0  0  0  0  0  0
  -25.5895  -33.8627   24.2344 N   0  0  0  0  0  0
  -23.4064  -30.4936   21.5521 C   0  0  2  0  0  0
  -24.8513  -28.9694   20.1089 C   0  0  0  0  0  0
  -22.7405  -29.4666   22.4971 C   0  0  0  0  0  0
  -18.0278  -28.1310   22.8490 C   0  0  0  0  0  0
  -24.1485  -36.7326   23.2646 C   0  0  0  0  0  0
  -25.9378  -30.8239   21.3742 C   0  0  0  0  0  0
  -26.0127  -29.4596   20.7168 C   0  0  0  0  0  0
  -27.2009  -28.6831   20.7132 C   0  0  0  0  0  0
  -26.0414  -26.9516   19.4658 C   0  0  0  0  0  0
  -24.8635  -27.7186   19.4732 C   0  0  0  0  0  0
  -23.6167  -29.8384   20.1639 C   0  0  0  0  0  0
  -25.4097  -36.3111   24.0338 C   0  0  1  0  0  0
  -20.5887  -28.3672   23.1354 C   0  0  2  0  0  0
  -20.6786  -26.9397   22.5454 C   0  0  0  0  0  0
  -19.5801  -26.6478   21.5196 C   0  0  0  0  0  0
  -18.1975  -26.7855   22.1628 C   0  0  0  0  0  0
  -19.1513  -28.8799   23.2911 C   0  0  0  0  0  0
  -18.9396  -30.1424   23.8872 C   0  0  0  0  0  0
  -17.6396  -30.6533   24.0532 C   0  0  0  0  0  0
  -25.9032  -34.9471   23.5139 C   0  0  0  0  0  0
  -16.5296  -29.8993   23.6338 C   0  0  0  0  0  0
  -16.7247  -28.6395   23.0388 C   0  0  0  0  0  0
  -26.4473  -31.6583   25.0763 C   0  0  0  0  0  0
  -25.3735  -31.3690   26.1512 C   0  0  0  0  0  0
  -27.0293  -30.3027   24.6149 C   0  0  0  0  0  0
  -27.6052  -32.4301   25.7529 C   0  0  0  0  0  0
  -27.5577  -37.1810   24.8467 C   0  0  0  0  0  0
  -21.4125  -29.3079   22.3752 N   0  0  0  0  0  0
  -26.4291  -37.3779   23.9410 N   0  0  0  0  0  0
  -24.6719  -31.0759   22.1057 N   0  0  0  0  0  0
  -23.4182  -28.8190   23.3007 O   0  0  0  0  0  0
  -28.3523  -26.6012   20.1898 O   0  0  0  0  0  0
  -26.5613  -34.8925   22.4708 O   0  0  0  0  0  0
  -23.5334  -32.1466   23.7477 O   0  0  0  0  0  0
  -27.1752  -20.2852   23.6958 C   0  0  0  0  0  0
  -28.5406  -20.6722   21.7122 C   0  0  0  0  0  0
  -26.8721  -21.6573   23.6939 C   0  0  0  0  0  0
  -27.3933  -22.5378   22.7630 C   0  0  0  0  0  0
  -28.0139  -19.7633   22.6867 C   0  0  0  0  0  0
  -28.2684  -22.0798   21.7362 C   0  0  0  0  0  0
  -25.9395  -22.3839   24.6188 C   0  0  0  0  0  0
  -26.7881  -23.8966   23.0534 C   0  0  0  0  0  0
  -31.6381  -17.7000   20.9670 C   0  0  0  0  0  0
  -31.0160  -17.2233   22.2739 C   0  0  0  0  0  0
  -30.9125  -16.8817   19.8813 C   0  0  0  0  0  0
  -29.7435  -16.4881   21.8245 C   0  0  1  0  0  0
  -28.5724  -17.5171   21.5833 C   0  0  0  0  0  0
  -28.1466  -25.1650   20.0924 C   0  0  0  0  0  0
  -29.1283  -24.2683   20.8998 C   0  0  0  0  0  0
  -30.1748  -15.7939   20.5784 N   0  0  0  0  0  0
  -28.2906  -18.3719   22.7461 N   0  0  0  0  0  0
  -26.0603  -23.7751   24.2874 O   0  0  0  0  0  0
  -28.8480  -22.8601   20.7363 O   0  0  0  0  0  0
  -31.4516  -12.4178   19.1419 H   0  0  0  0  0  0
  -30.3022  -11.3824   19.9286 H   0  0  0  0  0  0
  -29.7583  -11.7047   17.4898 H   0  0  0  0  0  0
  -29.6576  -13.4354   17.7217 H   0  0  0  0  0  0
  -27.8596  -11.2853   18.8907 H   0  0  0  0  0  0
  -27.3710  -12.5418   17.7821 H   0  0  0  0  0  0
  -27.6410  -14.2580   19.4620 H   0  0  0  0  0  0
  -28.6827  -12.1759   21.4475 H   0  0  0  0  0  0
  -28.4428  -13.8783   21.7560 H   0  0  0  0  0  0
  -25.2785   -9.5671   22.4700 H   0  0  0  0  0  0
  -23.9985   -7.4648   22.7485 H   0  0  0  0  0  0
  -21.0820   -8.8765   19.8960 H   0  0  0  0  0  0
  -22.3697  -10.9642   19.6107 H   0  0  0  0  0  0
  -21.2044   -7.6134   23.9706 H   0  0  0  0  0  0
  -21.1445   -6.0490   25.9051 H   0  0  0  0  0  0
  -22.0629   -2.7602   23.2835 H   0  0  0  0  0  0
  -22.4122  -11.9926   22.4851 H   0  0  0  0  0  0
  -21.1055  -13.1203   22.2540 H   0  0  0  0  0  0
  -24.6519  -15.8500   20.5351 H   0  0  0  0  0  0
  -26.2714  -15.6402   20.1062 H   0  0  0  0  0  0
  -26.7115  -32.5531   23.1199 H   0  0  0  0  0  0
  -24.9941  -33.9776   25.0415 H   0  0  0  0  0  0
  -22.6982  -31.3117   21.4179 H   0  0  0  0  0  0
  -23.3725  -35.9683   23.3309 H   0  0  0  0  0  0
  -24.3564  -36.8946   22.2064 H   0  0  0  0  0  0
  -23.7260  -37.6535   23.6659 H   0  0  0  0  0  0
  -26.0569  -31.5908   20.6077 H   0  0  0  0  0  0
  -26.8245  -30.8717   21.9953 H   0  0  0  0  0  0
  -28.0925  -29.0499   21.2024 H   0  0  0  0  0  0
  -26.0037  -26.0014   18.9543 H   0  0  0  0  0  0
  -23.9797  -27.3417   18.9773 H   0  0  0  0  0  0
  -23.7260  -30.6190   19.4124 H   0  0  0  0  0  0
  -22.7404  -29.2615   19.8621 H   0  0  0  0  0  0
  -25.1262  -36.1982   25.0822 H   0  0  0  0  0  0
  -21.0021  -28.3255   24.1472 H   0  0  0  0  0  0
  -20.5615  -26.2235   23.3630 H   0  0  0  0  0  0
  -21.6675  -26.7461   22.1311 H   0  0  0  0  0  0
  -19.7015  -25.6439   21.1152 H   0  0  0  0  0  0
  -19.6680  -27.3356   20.6781 H   0  0  0  0  0  0
  -17.4269  -26.6454   21.4054 H   0  0  0  0  0  0
  -18.0455  -25.9959   22.9018 H   0  0  0  0  0  0
  -19.7841  -30.7275   24.2233 H   0  0  0  0  0  0
  -17.4924  -31.6234   24.5060 H   0  0  0  0  0  0
  -15.5288  -30.2870   23.7685 H   0  0  0  0  0  0
  -15.8647  -28.0672   22.7181 H   0  0  0  0  0  0
  -24.5915  -30.7037   25.7834 H   0  0  0  0  0  0
  -24.8922  -32.2839   26.4945 H   0  0  0  0  0  0
  -25.8083  -30.8849   27.0277 H   0  0  0  0  0  0
  -26.2844  -29.6813   24.1162 H   0  0  0  0  0  0
  -27.4026  -29.7226   25.4612 H   0  0  0  0  0  0
  -27.8688  -30.4349   23.9317 H   0  0  0  0  0  0
  -27.2672  -33.3591   26.2114 H   0  0  0  0  0  0
  -28.3832  -32.6864   25.0328 H   0  0  0  0  0  0
  -28.0753  -31.8424   26.5438 H   0  0  0  0  0  0
  -28.2589  -38.0112   24.7477 H   0  0  0  0  0  0
  -28.1067  -36.2631   24.6311 H   0  0  0  0  0  0
  -27.2288  -37.1483   25.8872 H   0  0  0  0  0  0
  -20.9275  -29.8876   21.7022 H   0  0  0  0  0  0
  -26.0181  -38.2851   24.1410 H   0  0  0  0  0  0
  -26.7510  -19.6458   24.4577 H   0  0  0  0  0  0
  -29.2012  -20.2987   20.9448 H   0  0  0  0  0  0
  -26.2010  -22.2073   25.6614 H   0  0  0  0  0  0
  -24.9154  -22.0440   24.4633 H   0  0  0  0  0  0
  -26.0978  -24.1677   22.2556 H   0  0  0  0  0  0
  -27.5178  -24.6940   23.1794 H   0  0  0  0  0  0
  -32.7146  -17.5219   20.9670 H   0  0  0  0  0  0
  -31.4836  -18.7692   20.8163 H   0  0  0  0  0  0
  -30.8365  -18.0342   22.9794 H   0  0  0  0  0  0
  -31.6899  -16.5216   22.7720 H   0  0  0  0  0  0
  -31.6160  -16.5592   19.1105 H   0  0  0  0  0  0
  -30.2032  -17.5039   19.3359 H   0  0  0  0  0  0
  -29.4481  -15.7717   22.5929 H   0  0  0  0  0  0
  -27.6576  -16.9678   21.3540 H   0  0  0  0  0  0
  -28.7565  -18.1496   20.7180 H   0  0  0  0  0  0
  -27.1535  -24.8922   20.4379 H   0  0  0  0  0  0
  -28.1914  -24.8888   19.0372 H   0  0  0  0  0  0
  -29.1954  -24.5584   21.9455 H   0  0  0  0  0  0
  -30.1371  -24.4269   20.5168 H   0  0  0  0  0  0
  -27.9539  -17.8694   23.5627 H   0  0  0  0  0  0
  1 25  1  0  0  0
  1 30  2  0  0  0
  1 86  1  0  0  0
  2  3  1  0  0  0
  2 25  1  0  0  0
  2 90  1  0  0  0
  2 91  1  0  0  0
  3  4  1  0  0  0
  3 92  1  0  0  0
  3 93  1  0  0  0
  4  5  1  0  0  0
  4 94  1  0  0  0
  4 95  1  0  0  0
  5  6  1  0  0  0
  5 26  1  0  0  0
  5 96  1  0  0  0
  6 25  1  0  0  0
  6 97  1  0  0  0
  6 98  1  0  0  0
  7  8  2  0  0  0
  7 26  1  0  0  0
  7 29  1  0  0  0
  8  9  1  0  0  0
  8 22  1  0  0  0
  9 10  1  0  0  0
  9 27  2  0  0  0
 10 11  2  0  0  0
 10 15  1  0  0  0
 11 12  1  0  0  0
 11 99  1  0  0  0
 12 13  2  0  0  0
 12100  1  0  0  0
 13 14  1  0  0  0
 13 31  1  0  0  0
 14 15  2  0  0  0
 14101  1  0  0  0
 15102  1  0  0  0
 16 17  2  0  0  0
 16 21  1  0  0  0
 16 31  1  0  0  0
 17 18  1  0  0  0
 17103  1  0  0  0
 18 19  2  0  0  0
 18104  1  0  0  0
 19 20  1  0  0  0
 19 24  1  0  0  0
 20 21  2  0  0  0
 20105  1  0  0  0
 21 23  1  0  0  0
 22 28  1  0  0  0
 22 32  2  0  0  0
 26 27  1  0  0  0
 28106  1  0  0  0
 28107  1  0  0  0
 29108  1  0  0  0
 29109  1  0  0  0
 33 34  1  0  0  0
 33 66  1  0  0  0
 33 70  2  0  0  0
 34 36  1  0  0  0
 34 59  1  0  0  0
 34110  1  0  0  0
 35 44  2  0  0  0
 35 45  1  0  0  0
 35 68  1  0  0  0
 36 56  1  0  0  0
 36111  1  0  0  0
 37 39  1  0  0  0
 37 47  1  0  0  0
 37 66  1  0  0  0
 37112  1  0  0  0
 38 43  2  0  0  0
 38 46  1  0  0  0
 38 47  1  0  0  0
 39 64  1  0  0  0
 39 67  2  0  0  0
 40 52  1  0  0  0
 40 53  2  0  0  0
 40 58  1  0  0  0
 41113  1  0  0  0
 41114  1  0  0  0
 41115  1  0  0  0
 41 48  1  0  0  0
 42 43  1  0  0  0
 42 66  1  0  0  0
 42116  1  0  0  0
 42117  1  0  0  0
 43 44  1  0  0  0
 44118  1  0  0  0
 45 46  2  0  0  0
 45119  1  0  0  0
 46120  1  0  0  0
 47121  1  0  0  0
 47122  1  0  0  0
 48 56  1  0  0  0
 48 65  1  0  0  0
 48123  1  0  0  0
 49 50  1  0  0  0
 49 53  1  0  0  0
 49 64  1  0  0  0
 49124  1  0  0  0
 50 51  1  0  0  0
 50125  1  0  0  0
 50126  1  0  0  0
 51 52  1  0  0  0
 51127  1  0  0  0
 51128  1  0  0  0
 52129  1  0  0  0
 52130  1  0  0  0
 53 54  1  0  0  0
 54 55  2  0  0  0
 54131  1  0  0  0
 55 57  1  0  0  0
 55132  1  0  0  0
 56 69  2  0  0  0
 57 58  2  0  0  0
 57133  1  0  0  0
 58134  1  0  0  0
 59 60  1  0  0  0
 59 61  1  0  0  0
 59 62  1  0  0  0
 60135  1  0  0  0
 60136  1  0  0  0
 60137  1  0  0  0
 61138  1  0  0  0
 61139  1  0  0  0
 61140  1  0  0  0
 62141  1  0  0  0
 62142  1  0  0  0
 62143  1  0  0  0
 63 65  1  0  0  0
 63144  1  0  0  0
 63145  1  0  0  0
 63146  1  0  0  0
 64147  1  0  0  0
 65148  1  0  0  0
 68 84  1  0  0  0
 71 73  2  0  0  0
 71 75  1  0  0  0
 71149  1  0  0  0
 72 75  2  0  0  0
 72 76  1  0  0  0
 72150  1  0  0  0
 73 74  1  0  0  0
 73 77  1  0  0  0
 74 76  2  0  0  0
 74 78  1  0  0  0
 75 87  1  0  0  0
 76 89  1  0  0  0
 77 88  1  0  0  0
 77151  1  0  0  0
 77152  1  0  0  0
 78 88  1  0  0  0
 78153  1  0  0  0
 78154  1  0  0  0
 79 80  1  0  0  0
 79 81  1  0  0  0
 79155  1  0  0  0
 79156  1  0  0  0
 80 82  1  0  0  0
 80157  1  0  0  0
 80158  1  0  0  0
 81 86  1  0  0  0
 81159  1  0  0  0
 81160  1  0  0  0
 82 83  1  0  0  0
 82 86  1  0  0  0
 82161  1  0  0  0
 83 87  1  0  0  0
 83162  1  0  0  0
 83163  1  0  0  0
 84 85  1  0  0  0
 84164  1  0  0  0
 84165  1  0  0  0
 85 89  1  0  0  0
 85166  1  0  0  0
 85167  1  0  0  0
 87168  1  0  0  0
M  ISO  4   1 100  68 101  84 101  86 100
M  END
> <chiral flag>
0

> <version>
0

> <s_m_source_file>
/data/baiqing/PycharmProjects/Reinvent-master-3.2/result/LINK_invent/BTK/process_docking_weight1_custom_sum_contain_oxygen_bond_distance_aromatic_linkinvent_7_9_3/rearranged_h_0150.sdf

> <i_m_source_file_index>
49

> <r_mmod_Potential_Energy-OPLS-2005>
403.549987792969

> <r_mmod_Stretch_Energy-OPLS-2005>
61.3592948913574

> <r_mmod_Bend_Energy-OPLS-2005>
233.282516479492

> <r_mmod_Torsional_Energy-OPLS-2005>
377.532592773438

> <r_mmod_Improper_Torsional_Energy-OPLS-2005>
19.626443862915

> <r_mmod_Van_der_Waal_Energy-OPLS-2005>
158.492324829102

> <r_mmod_Electrostatic_Energy-OPLS-2005>
-275.975738525391

> <r_mmod_Solvation_Energy-OPLS-2005>
-213.27734375

> <b_mmod_Minimization_Converged-OPLS-2005>
0

> <r_mmod_RMS_Derivative-OPLS-2005>
4.51109981536865

$$$$
49
                    3D
 Structure written by MMmdl.
177187  0  0  1  0            999 V2000
  -30.6694  -14.5119   20.4337 C   0  0  0  0  0  0
  -30.4302  -12.2596   19.4929 C   0  0  0  0  0  0
  -29.5244  -12.3634   18.2541 C   0  0  0  0  0  0
  -28.0318  -12.2958   18.6409 C   0  0  0  0  0  0
  -27.6567  -13.1960   19.8524 C   0  0  2  0  0  0
  -28.6904  -13.0507   20.9919 C   0  0  0  0  0  0
  -25.2605  -13.8145   20.5645 C   0  0  0  0  0  0
  -24.1848  -13.0445   20.9197 C   0  0  0  0  0  0
  -24.6368  -11.6905   20.8739 C   0  0  0  0  0  0
  -23.9033  -10.4300   21.0400 C   0  0  0  0  0  0
  -24.3598   -9.4214   21.9171 C   0  0  0  0  0  0
  -23.6285   -8.2245   22.0742 C   0  0  0  0  0  0
  -22.4270   -8.0276   21.3535 C   0  0  0  0  0  0
  -21.9891   -9.0250   20.4643 C   0  0  0  0  0  0
  -22.7204  -10.2134   20.3053 C   0  0  0  0  0  0
  -21.6853   -6.0726   22.5279 C   0  0  0  0  0  0
  -21.4020   -6.5633   23.8210 C   0  0  0  0  0  0
  -21.3666   -5.6781   24.9173 C   0  0  0  0  0  0
  -21.6041   -4.3046   24.7219 C   0  0  0  0  0  0
  -21.8820   -3.8140   23.4346 C   0  0  0  0  0  0
  -21.9197   -4.6957   22.3401 C   0  0  0  0  0  0
  -22.7870  -13.5248   21.1848 C   0  0  0  0  0  0
  -22.1653   -4.2143   21.0976 F   0  0  0  0  0  0
  -21.5634   -3.4528   25.7732 F   0  0  0  0  0  0
  -30.0226  -13.3161   20.4297 N   0  0  0  0  0  0
  -26.2987  -12.9274   20.3230 N   0  0  0  0  0  0
  -25.9286  -11.6461   20.5760 N   0  0  0  0  0  0
  -22.0488  -12.8282   22.0411 N   0  0  0  0  0  0
  -25.4362  -15.1865   20.4055 N   0  0  0  0  0  0
  -31.8582  -14.6277   20.1197 O   0  0  0  0  0  0
  -21.6640   -6.8867   21.4239 O   0  0  0  0  0  0
  -22.3560  -14.5528   20.6651 O   0  0  0  0  0  0
  -24.6102  -31.8703   23.2132 C   0  0  0  0  0  0
  -25.8997  -32.4842   23.8418 C   0  0  1  0  0  0
  -27.2557  -27.4758   20.1055 C   0  0  0  0  0  0
  -25.5837  -33.8635   24.2347 N   0  0  0  0  0  0
  -23.3985  -30.4923   21.5521 C   0  0  2  0  0  0
  -24.8517  -28.9653   20.1176 C   0  0  0  0  0  0
  -22.7400  -29.4664   22.5017 C   0  0  0  0  0  0
  -18.0263  -28.1382   22.8490 C   0  0  0  0  0  0
  -24.1481  -36.7349   23.2639 C   0  0  0  0  0  0
  -25.9194  -30.8570   21.3560 C   0  0  0  0  0  0
  -26.0068  -29.4917   20.7117 C   0  0  0  0  0  0
  -27.2115  -28.7580   20.7044 C   0  0  0  0  0  0
  -26.0875  -26.9645   19.5060 C   0  0  0  0  0  0
  -24.8856  -27.6974   19.5131 C   0  0  0  0  0  0
  -23.6073  -29.8218   20.1674 C   0  0  0  0  0  0
  -25.4085  -36.3128   24.0345 C   0  0  1  0  0  0
  -20.5854  -28.3658   23.1344 C   0  0  2  0  0  0
  -20.6749  -26.9397   22.5439 C   0  0  0  0  0  0
  -19.5737  -26.6398   21.5213 C   0  0  0  0  0  0
  -18.1912  -26.7936   22.1616 C   0  0  0  0  0  0
  -19.1521  -28.8839   23.2907 C   0  0  0  0  0  0
  -18.9436  -30.1444   23.8932 C   0  0  0  0  0  0
  -17.6434  -30.6580   24.0580 C   0  0  0  0  0  0
  -25.9008  -34.9490   23.5151 C   0  0  0  0  0  0
  -16.5334  -29.9092   23.6317 C   0  0  0  0  0  0
  -16.7259  -28.6516   23.0343 C   0  0  0  0  0  0
  -26.4458  -31.6594   25.0713 C   0  0  0  0  0  0
  -25.3755  -31.3682   26.1488 C   0  0  0  0  0  0
  -27.0235  -30.3032   24.6029 C   0  0  0  0  0  0
  -27.6076  -32.4274   25.7442 C   0  0  0  0  0  0
  -27.5576  -37.1823   24.8454 C   0  0  0  0  0  0
  -21.4131  -29.3014   22.3750 N   0  0  0  0  0  0
  -26.4290  -37.3801   23.9406 N   0  0  0  0  0  0
  -24.6609  -31.0865   22.1001 N   0  0  0  0  0  0
  -23.4176  -28.8212   23.3053 O   0  0  0  0  0  0
  -28.3704  -26.6678   20.0490 O   0  0  0  0  0  0
  -26.5603  -34.8935   22.4731 O   0  0  0  0  0  0
  -23.5305  -32.1417   23.7563 O   0  0  0  0  0  0
  -30.1811  -18.0794   20.4439 C   0  0  0  0  0  0
  -30.1991  -17.0002   18.4607 C   0  0  0  0  0  0
  -30.1012  -16.8355   19.8744 C   0  0  0  0  0  0
  -30.5355  -18.3026   18.2097 C   0  0  0  0  0  0
  -29.4348  -16.2655   16.0172 C   0  0  0  0  0  0
  -28.5560  -15.5610   17.0124 C   0  0  0  0  0  0
  -29.4507  -21.2243   18.9821 C   0  0  0  0  0  0
  -30.9247  -20.9867   20.9539 C   0  0  0  0  0  0
  -29.8132  -22.7134   18.8640 C   0  0  0  0  0  0
  -31.2488  -22.5011   20.8830 C   0  0  0  0  0  0
  -29.9732  -15.9431   17.4007 C   0  0  0  0  0  0
  -30.6486  -20.4444   19.5432 C   0  0  1  0  0  0
  -30.9041  -18.9717   16.9115 C   0  0  0  0  0  0
  -31.3876  -25.8922   22.1721 C   0  0  0  0  0  0
  -30.5723  -24.7504   20.0240 C   0  0  0  0  0  0
  -29.5041  -26.9490   20.8656 C   0  0  0  0  0  0
  -30.1800  -25.6122   21.2556 C   0  0  2  0  0  0
  -30.4641  -18.9922   19.4235 N   0  0  0  0  0  0
  -29.8858  -15.6036   20.5709 N   0  0  0  0  0  0
  -30.2089  -23.3085   20.1706 N   0  3  1  0  0  0
  -31.4791  -12.3352   19.2030 H   0  0  0  0  0  0
  -30.3218  -11.2810   19.9635 H   0  0  0  0  0  0
  -29.7596  -11.5536   17.5637 H   0  0  0  0  0  0
  -29.7574  -13.2729   17.7201 H   0  0  0  0  0  0
  -27.8277  -11.2538   18.8910 H   0  0  0  0  0  0
  -27.3986  -12.5213   17.7817 H   0  0  0  0  0  0
  -27.6817  -14.2271   19.5002 H   0  0  0  0  0  0
  -28.6580  -12.0429   21.4106 H   0  0  0  0  0  0
  -28.4585  -13.7261   21.8163 H   0  0  0  0  0  0
  -25.2742   -9.5704   22.4732 H   0  0  0  0  0  0
  -24.0006   -7.4642   22.7456 H   0  0  0  0  0  0
  -21.0815   -8.8746   19.8959 H   0  0  0  0  0  0
  -22.3632  -10.9667   19.6167 H   0  0  0  0  0  0
  -21.1999   -7.6136   23.9722 H   0  0  0  0  0  0
  -21.1490   -6.0500   25.9072 H   0  0  0  0  0  0
  -22.0596   -2.7607   23.2840 H   0  0  0  0  0  0
  -22.4071  -11.9991   22.4906 H   0  0  0  0  0  0
  -21.1100  -13.1330   22.2542 H   0  0  0  0  0  0
  -24.6754  -15.8448   20.5247 H   0  0  0  0  0  0
  -26.2819  -15.6236   20.0618 H   0  0  0  0  0  0
  -26.7077  -32.5630   23.1212 H   0  0  0  0  0  0
  -24.9890  -33.9788   25.0422 H   0  0  0  0  0  0
  -22.6831  -31.3043   21.4122 H   0  0  0  0  0  0
  -23.3736  -35.9695   23.3300 H   0  0  0  0  0  0
  -24.3582  -36.8971   22.2057 H   0  0  0  0  0  0
  -23.7255  -37.6560   23.6656 H   0  0  0  0  0  0
  -26.0135  -31.6235   20.5862 H   0  0  0  0  0  0
  -26.8118  -30.9266   21.9659 H   0  0  0  0  0  0
  -28.0916  -29.1989   21.1510 H   0  0  0  0  0  0
  -26.1124  -25.9904   19.0368 H   0  0  0  0  0  0
  -24.0017  -27.2841   19.0491 H   0  0  0  0  0  0
  -23.7099  -30.5949   19.4048 H   0  0  0  0  0  0
  -22.7340  -29.2355   19.8740 H   0  0  0  0  0  0
  -25.1279  -36.1989   25.0845 H   0  0  0  0  0  0
  -20.9952  -28.3203   24.1464 H   0  0  0  0  0  0
  -20.5638  -26.2257   23.3614 H   0  0  0  0  0  0
  -21.6612  -26.7437   22.1232 H   0  0  0  0  0  0
  -19.6887  -25.6321   21.1206 H   0  0  0  0  0  0
  -19.6673  -27.3243   20.6768 H   0  0  0  0  0  0
  -17.4187  -26.6708   21.4003 H   0  0  0  0  0  0
  -18.0296  -26.0058   22.8993 H   0  0  0  0  0  0
  -19.7906  -30.7246   24.2307 H   0  0  0  0  0  0
  -17.4990  -31.6261   24.5186 H   0  0  0  0  0  0
  -15.5329  -30.3008   23.7615 H   0  0  0  0  0  0
  -15.8655  -28.0838   22.7036 H   0  0  0  0  0  0
  -24.5941  -30.7005   25.7837 H   0  0  0  0  0  0
  -24.8927  -32.2826   26.4952 H   0  0  0  0  0  0
  -25.8157  -30.8859   27.0229 H   0  0  0  0  0  0
  -26.2723  -29.6811   24.1149 H   0  0  0  0  0  0
  -27.4065  -29.7257   25.4452 H   0  0  0  0  0  0
  -27.8545  -30.4337   23.9093 H   0  0  0  0  0  0
  -27.2734  -33.3565   26.2077 H   0  0  0  0  0  0
  -28.3844  -32.6833   25.0221 H   0  0  0  0  0  0
  -28.0797  -31.8360   26.5300 H   0  0  0  0  0  0
  -28.2607  -38.0107   24.7488 H   0  0  0  0  0  0
  -28.1067  -36.2648   24.6296 H   0  0  0  0  0  0
  -27.2307  -37.1492   25.8861 H   0  0  0  0  0  0
  -20.9285  -29.8748   21.6991 H   0  0  0  0  0  0
  -26.0197  -38.2891   24.1409 H   0  0  0  0  0  0
  -30.0891  -18.4002   21.4738 H   0  0  0  0  0  0
  -29.1387  -17.2813   15.7657 H   0  0  0  0  0  0
  -29.8257  -15.6791   15.1863 H   0  0  0  0  0  0
  -28.3016  -14.5345   16.7631 H   0  0  0  0  0  0
  -27.7493  -16.1317   17.4680 H   0  0  0  0  0  0
  -29.1574  -20.8548   18.0009 H   0  0  0  0  0  0
  -28.5759  -21.0923   19.6222 H   0  0  0  0  0  0
  -30.0692  -20.8204   21.6103 H   0  0  0  0  0  0
  -31.7656  -20.4564   21.4014 H   0  0  0  0  0  0
  -28.9587  -23.2558   18.4570 H   0  0  0  0  0  0
  -30.6289  -22.8323   18.1470 H   0  0  0  0  0  0
  -32.2126  -22.6335   20.3872 H   0  0  0  0  0  0
  -31.3666  -22.8770   21.8985 H   0  0  0  0  0  0
  -30.7505  -15.1847   17.4465 H   0  0  0  0  0  0
  -31.5308  -20.6883   18.9516 H   0  0  0  0  0  0
  -31.2892  -18.2468   16.1959 H   0  0  0  0  0  0
  -31.6946  -19.7124   17.0277 H   0  0  0  0  0  0
  -30.0425  -19.4580   16.4533 H   0  0  0  0  0  0
  -31.8907  -24.9792   22.4874 H   0  0  0  0  0  0
  -31.0788  -26.4211   23.0741 H   0  0  0  0  0  0
  -32.1275  -26.5149   21.6668 H   0  0  0  0  0  0
  -31.6286  -24.8622   19.7764 H   0  0  0  0  0  0
  -30.0527  -25.1447   19.1493 H   0  0  0  0  0  0
  -30.1891  -27.6016   20.3209 H   0  0  0  0  0  0
  -29.2227  -27.4594   21.7872 H   0  0  0  0  0  0
  -29.4389  -25.0633   21.8389 H   0  0  0  0  0  0
  -28.9627  -15.4519   20.9489 H   0  0  0  0  0  0
  -29.3743  -23.2928   20.7378 H   0  0  0  0  0  0
  1 25  1  0  0  0
  1 30  2  0  0  0
  1 89  1  0  0  0
  2  3  1  0  0  0
  2 25  1  0  0  0
  2 91  1  0  0  0
  2 92  1  0  0  0
  3  4  1  0  0  0
  3 93  1  0  0  0
  3 94  1  0  0  0
  4  5  1  0  0  0
  4 95  1  0  0  0
  4 96  1  0  0  0
  5  6  1  0  0  0
  5 26  1  0  0  0
  5 97  1  0  0  0
  6 25  1  0  0  0
  6 98  1  0  0  0
  6 99  1  0  0  0
  7  8  2  0  0  0
  7 26  1  0  0  0
  7 29  1  0  0  0
  8  9  1  0  0  0
  8 22  1  0  0  0
  9 10  1  0  0  0
  9 27  2  0  0  0
 10 11  2  0  0  0
 10 15  1  0  0  0
 11 12  1  0  0  0
 11100  1  0  0  0
 12 13  2  0  0  0
 12101  1  0  0  0
 13 14  1  0  0  0
 13 31  1  0  0  0
 14 15  2  0  0  0
 14102  1  0  0  0
 15103  1  0  0  0
 16 17  2  0  0  0
 16 21  1  0  0  0
 16 31  1  0  0  0
 17 18  1  0  0  0
 17104  1  0  0  0
 18 19  2  0  0  0
 18105  1  0  0  0
 19 20  1  0  0  0
 19 24  1  0  0  0
 20 21  2  0  0  0
 20106  1  0  0  0
 21 23  1  0  0  0
 22 28  1  0  0  0
 22 32  2  0  0  0
 26 27  1  0  0  0
 28107  1  0  0  0
 28108  1  0  0  0
 29109  1  0  0  0
 29110  1  0  0  0
 33 34  1  0  0  0
 33 66  1  0  0  0
 33 70  2  0  0  0
 34 36  1  0  0  0
 34 59  1  0  0  0
 34111  1  0  0  0
 35 44  2  0  0  0
 35 45  1  0  0  0
 35 68  1  0  0  0
 36 56  1  0  0  0
 36112  1  0  0  0
 37 39  1  0  0  0
 37 47  1  0  0  0
 37 66  1  0  0  0
 37113  1  0  0  0
 38 43  2  0  0  0
 38 46  1  0  0  0
 38 47  1  0  0  0
 39 64  1  0  0  0
 39 67  2  0  0  0
 40 52  1  0  0  0
 40 53  2  0  0  0
 40 58  1  0  0  0
 41114  1  0  0  0
 41115  1  0  0  0
 41116  1  0  0  0
 41 48  1  0  0  0
 42 43  1  0  0  0
 42 66  1  0  0  0
 42117  1  0  0  0
 42118  1  0  0  0
 43 44  1  0  0  0
 44119  1  0  0  0
 45 46  2  0  0  0
 45120  1  0  0  0
 46121  1  0  0  0
 47122  1  0  0  0
 47123  1  0  0  0
 48 56  1  0  0  0
 48 65  1  0  0  0
 48124  1  0  0  0
 49 50  1  0  0  0
 49 53  1  0  0  0
 49 64  1  0  0  0
 49125  1  0  0  0
 50 51  1  0  0  0
 50126  1  0  0  0
 50127  1  0  0  0
 51 52  1  0  0  0
 51128  1  0  0  0
 51129  1  0  0  0
 52130  1  0  0  0
 52131  1  0  0  0
 53 54  1  0  0  0
 54 55  2  0  0  0
 54132  1  0  0  0
 55 57  1  0  0  0
 55133  1  0  0  0
 56 69  2  0  0  0
 57 58  2  0  0  0
 57134  1  0  0  0
 58135  1  0  0  0
 59 60  1  0  0  0
 59 61  1  0  0  0
 59 62  1  0  0  0
 60136  1  0  0  0
 60137  1  0  0  0
 60138  1  0  0  0
 61139  1  0  0  0
 61140  1  0  0  0
 61141  1  0  0  0
 62142  1  0  0  0
 62143  1  0  0  0
 62144  1  0  0  0
 63 65  1  0  0  0
 63145  1  0  0  0
 63146  1  0  0  0
 63147  1  0  0  0
 64148  1  0  0  0
 65149  1  0  0  0
 68 86  1  0  0  0
 71 73  2  0  0  0
 71 88  1  0  0  0
 71150  1  0  0  0
 72 73  1  0  0  0
 72 74  2  0  0  0
 72 81  1  0  0  0
 73 89  1  0  0  0
 74 83  1  0  0  0
 74 88  1  0  0  0
 75 76  1  0  0  0
 75 81  1  0  0  0
 75151  1  0  0  0
 75152  1  0  0  0
 76 81  1  0  0  0
 76153  1  0  0  0
 76154  1  0  0  0
 77 79  1  0  0  0
 77 82  1  0  0  0
 77155  1  0  0  0
 77156  1  0  0  0
 78 80  1  0  0  0
 78 82  1  0  0  0
 78157  1  0  0  0
 78158  1  0  0  0
 79 90  1  0  0  0
 79159  1  0  0  0
 79160  1  0  0  0
 80 90  1  0  0  0
 80161  1  0  0  0
 80162  1  0  0  0
 81163  1  0  0  0
 82 88  1  0  0  0
 82164  1  0  0  0
 83165  1  0  0  0
 83166  1  0  0  0
 83167  1  0  0  0
 84168  1  0  0  0
 84169  1  0  0  0
 84170  1  0  0  0
 84 87  1  0  0  0
 85 87  1  0  0  0
 85171  1  0  0  0
 85172  1  0  0  0
 85 90  1  0  0  0
 86 87  1  0  0  0
 86173  1  0  0  0
 86174  1  0  0  0
 87175  1  0  0  0
 89176  1  0  0  0
 90177  1  0  0  0
M  CHG  1  90   1
M  ISO  4   1 100  68 101  86 101  89 100
M  END
> <chiral flag>
0

> <version>
0

> <s_m_source_file>
/data/baiqing/PycharmProjects/Reinvent-master-3.2/result/LINK_invent/BTK/process_docking_weight1_custom_sum_contain_oxygen_bond_distance_aromatic_linkinvent_7_9_3/rearranged_h_0150.sdf

> <i_m_source_file_index>
50

> <r_mmod_Potential_Energy-OPLS-2005>
-64.1815872192383

> <r_mmod_Stretch_Energy-OPLS-2005>
37.6816673278809

> <r_mmod_Bend_Energy-OPLS-2005>
125.283950805664

> <r_mmod_Torsional_Energy-OPLS-2005>
345.540130615234

> <r_mmod_Improper_Torsional_Energy-OPLS-2005>
6.46953105926514

> <r_mmod_Van_der_Waal_Energy-OPLS-2005>
133.959899902344

> <r_mmod_Electrostatic_Energy-OPLS-2005>
-291.209075927734

> <r_mmod_Solvation_Energy-OPLS-2005>
-445.794097900391

> <b_mmod_Minimization_Converged-OPLS-2005>
0

> <r_mmod_RMS_Derivative-OPLS-2005>
2.60286498069763

$$$$
50
                    3D
 Structure written by MMmdl.
174183  0  0  1  0            999 V2000
  -30.8259  -14.2758   20.7608 C   0  0  0  0  0  0
  -30.4078  -12.2844   19.3710 C   0  0  0  0  0  0
  -29.4713  -12.5442   18.1812 C   0  0  0  0  0  0
  -28.0023  -12.3849   18.6068 C   0  0  0  0  0  0
  -27.6665  -13.2037   19.8788 C   0  0  2  0  0  0
  -28.7030  -12.9474   20.9944 C   0  0  0  0  0  0
  -25.2597  -13.8156   20.5666 C   0  0  0  0  0  0
  -24.1838  -13.0434   20.9148 C   0  0  0  0  0  0
  -24.6387  -11.6903   20.8708 C   0  0  0  0  0  0
  -23.9049  -10.4291   21.0388 C   0  0  0  0  0  0
  -24.3606   -9.4214   21.9172 C   0  0  0  0  0  0
  -23.6284   -8.2248   22.0751 C   0  0  0  0  0  0
  -22.4269   -8.0278   21.3543 C   0  0  0  0  0  0
  -21.9899   -9.0245   20.4642 C   0  0  0  0  0  0
  -22.7220  -10.2125   20.3042 C   0  0  0  0  0  0
  -21.6857   -6.0730   22.5274 C   0  0  0  0  0  0
  -21.4013   -6.5635   23.8207 C   0  0  0  0  0  0
  -21.3657   -5.6789   24.9171 C   0  0  0  0  0  0
  -21.6046   -4.3052   24.7224 C   0  0  0  0  0  0
  -21.8821   -3.8142   23.4346 C   0  0  0  0  0  0
  -21.9195   -4.6957   22.3401 C   0  0  0  0  0  0
  -22.7865  -13.5236   21.1829 C   0  0  0  0  0  0
  -22.1666   -4.2142   21.0979 F   0  0  0  0  0  0
  -21.5628   -3.4535   25.7739 F   0  0  0  0  0  0
  -30.0563  -13.2017   20.4630 N   0  0  0  0  0  0
  -26.3047  -12.9330   20.3383 N   0  0  0  0  0  0
  -25.9315  -11.6484   20.5750 N   0  0  0  0  0  0
  -22.0513  -12.8225   22.0389 N   0  0  0  0  0  0
  -25.4308  -15.1870   20.4086 N   0  0  0  0  0  0
  -31.7471  -14.6797   20.0424 O   0  0  0  0  0  0
  -21.6640   -6.8870   21.4238 O   0  0  0  0  0  0
  -22.3543  -14.5546   20.6693 O   0  0  0  0  0  0
  -24.6110  -31.8720   23.2126 C   0  0  0  0  0  0
  -25.9026  -32.4835   23.8417 C   0  0  1  0  0  0
  -27.2336  -27.4717   20.0834 C   0  0  0  0  0  0
  -25.5916  -33.8634   24.2360 N   0  0  0  0  0  0
  -23.3958  -30.4947   21.5538 C   0  0  2  0  0  0
  -24.8394  -28.9643   20.1163 C   0  0  0  0  0  0
  -22.7385  -29.4677   22.5025 C   0  0  0  0  0  0
  -18.0266  -28.1367   22.8489 C   0  0  0  0  0  0
  -24.1490  -36.7306   23.2639 C   0  0  0  0  0  0
  -25.9201  -30.8472   21.3599 C   0  0  0  0  0  0
  -25.9964  -29.4839   20.7089 C   0  0  0  0  0  0
  -27.1954  -28.7441   20.6890 C   0  0  0  0  0  0
  -26.0622  -26.9603   19.4824 C   0  0  0  0  0  0
  -24.8651  -27.6997   19.5028 C   0  0  0  0  0  0
  -23.5996  -29.8255   20.1681 C   0  0  0  0  0  0
  -25.4112  -36.3120   24.0344 C   0  0  1  0  0  0
  -20.5854  -28.3653   23.1331 C   0  0  2  0  0  0
  -20.6765  -26.9396   22.5419 C   0  0  0  0  0  0
  -19.5746  -26.6382   21.5211 C   0  0  0  0  0  0
  -18.1920  -26.7919   22.1613 C   0  0  0  0  0  0
  -19.1513  -28.8824   23.2908 C   0  0  0  0  0  0
  -18.9445  -30.1434   23.8914 C   0  0  0  0  0  0
  -17.6451  -30.6578   24.0560 C   0  0  0  0  0  0
  -25.9037  -34.9480   23.5140 C   0  0  0  0  0  0
  -16.5339  -29.9078   23.6320 C   0  0  0  0  0  0
  -16.7255  -28.6495   23.0341 C   0  0  0  0  0  0
  -26.4472  -31.6589   25.0719 C   0  0  0  0  0  0
  -25.3755  -31.3658   26.1470 C   0  0  0  0  0  0
  -27.0308  -30.3052   24.6043 C   0  0  0  0  0  0
  -27.6068  -32.4293   25.7477 C   0  0  0  0  0  0
  -27.5578  -37.1814   24.8467 C   0  0  0  0  0  0
  -21.4123  -29.3029   22.3752 N   0  0  0  0  0  0
  -26.4297  -37.3803   23.9408 N   0  0  0  0  0  0
  -24.6607  -31.0851   22.1012 N   0  0  0  0  0  0
  -23.4172  -28.8232   23.3065 O   0  0  0  0  0  0
  -28.4324  -26.7999   20.0714 O   0  0  0  0  0  0
  -26.5579  -34.8924   22.4690 O   0  0  0  0  0  0
  -23.5318  -32.1462   23.7548 O   0  0  0  0  0  0
  -28.1185  -20.1027   20.5351 C   0  0  0  0  0  0
  -28.5295  -20.8726   22.8030 C   0  0  0  0  0  0
  -28.1556  -21.1597   21.4695 C   0  0  0  0  0  0
  -28.5151  -18.7990   20.8953 C   0  0  0  0  0  0
  -28.9114  -19.5720   23.1840 C   0  0  0  0  0  0
  -28.9381  -18.5385   22.2204 C   0  0  0  0  0  0
  -28.7435  -23.0174   19.8473 C   0  0  0  0  0  0
  -27.8430  -23.6324   22.1424 C   0  0  0  0  0  0
  -28.4253  -24.4328   19.3417 C   0  0  0  0  0  0
  -27.5356  -25.0504   21.6447 C   0  0  0  0  0  0
  -27.8131  -22.5790   21.0052 C   0  0  2  0  0  0
  -28.4955  -25.4382   20.5002 C   0  0  1  0  0  0
  -28.4827  -17.7006   19.8429 C   0  0  0  0  0  0
  -29.3203  -19.3140   24.6260 C   0  0  0  0  0  0
  -31.4327  -15.6028   24.1600 C   0  0  0  0  0  0
  -30.8447  -17.1731   22.2392 C   0  0  0  0  0  0
  -31.4142  -15.8048   22.6353 C   0  0  2  0  0  0
  -29.4293  -17.2809   22.5759 N   0  0  0  0  0  0
  -30.6371  -14.7483   21.9969 N   0  0  0  0  0  0
  -31.4494  -12.3883   19.0616 H   0  0  0  0  0  0
  -30.3044  -11.2548   19.7165 H   0  0  0  0  0  0
  -29.7004  -11.8597   17.3637 H   0  0  0  0  0  0
  -29.6364  -13.5514   17.7952 H   0  0  0  0  0  0
  -27.8172  -11.3254   18.7858 H   0  0  0  0  0  0
  -27.3409  -12.6751   17.7896 H   0  0  0  0  0  0
  -27.7261  -14.2583   19.6081 H   0  0  0  0  0  0
  -28.6458  -11.9138   21.3390 H   0  0  0  0  0  0
  -28.4520  -13.5627   21.8589 H   0  0  0  0  0  0
  -25.2751   -9.5699   22.4744 H   0  0  0  0  0  0
  -23.9996   -7.4647   22.7476 H   0  0  0  0  0  0
  -21.0829   -8.8756   19.8953 H   0  0  0  0  0  0
  -22.3672  -10.9659   19.6148 H   0  0  0  0  0  0
  -21.2004   -7.6143   23.9707 H   0  0  0  0  0  0
  -21.1478   -6.0520   25.9073 H   0  0  0  0  0  0
  -22.0603   -2.7604   23.2848 H   0  0  0  0  0  0
  -22.4130  -11.9877   22.4759 H   0  0  0  0  0  0
  -21.1137  -13.1252   22.2615 H   0  0  0  0  0  0
  -24.6717  -15.8475   20.5343 H   0  0  0  0  0  0
  -26.3047  -15.6291   20.1545 H   0  0  0  0  0  0
  -26.7099  -32.5560   23.1189 H   0  0  0  0  0  0
  -25.0136  -33.9814   25.0549 H   0  0  0  0  0  0
  -22.6830  -31.3103   21.4167 H   0  0  0  0  0  0
  -23.3755  -35.9635   23.3326 H   0  0  0  0  0  0
  -24.3593  -36.8888   22.2051 H   0  0  0  0  0  0
  -23.7234  -37.6518   23.6630 H   0  0  0  0  0  0
  -26.0267  -31.6131   20.5907 H   0  0  0  0  0  0
  -26.8113  -30.9026   21.9729 H   0  0  0  0  0  0
  -28.0921  -29.1437   21.1424 H   0  0  0  0  0  0
  -26.0594  -26.0036   18.9874 H   0  0  0  0  0  0
  -23.9762  -27.2966   19.0372 H   0  0  0  0  0  0
  -23.7015  -30.5980   19.4052 H   0  0  0  0  0  0
  -22.7256  -29.2392   19.8782 H   0  0  0  0  0  0
  -25.1290  -36.2000   25.0840 H   0  0  0  0  0  0
  -20.9942  -28.3209   24.1453 H   0  0  0  0  0  0
  -20.5685  -26.2255   23.3600 H   0  0  0  0  0  0
  -21.6638  -26.7461   22.1205 H   0  0  0  0  0  0
  -19.6919  -25.6298   21.1227 H   0  0  0  0  0  0
  -19.6691  -27.3207   20.6754 H   0  0  0  0  0  0
  -17.4205  -26.6673   21.3999 H   0  0  0  0  0  0
  -18.0308  -26.0050   22.8994 H   0  0  0  0  0  0
  -19.7925  -30.7239   24.2294 H   0  0  0  0  0  0
  -17.5007  -31.6264   24.5156 H   0  0  0  0  0  0
  -15.5340  -30.2985   23.7646 H   0  0  0  0  0  0
  -15.8653  -28.0824   22.7042 H   0  0  0  0  0  0
  -24.5947  -30.6986   25.7797 H   0  0  0  0  0  0
  -24.8914  -32.2788   26.4946 H   0  0  0  0  0  0
  -25.8125  -30.8813   27.0207 H   0  0  0  0  0  0
  -26.2834  -29.6803   24.1136 H   0  0  0  0  0  0
  -27.4163  -29.7290   25.4463 H   0  0  0  0  0  0
  -27.8626  -30.4412   23.9128 H   0  0  0  0  0  0
  -27.2716  -33.3587   26.2092 H   0  0  0  0  0  0
  -28.3856  -32.6854   25.0281 H   0  0  0  0  0  0
  -28.0754  -31.8382   26.5354 H   0  0  0  0  0  0
  -28.2613  -38.0095   24.7516 H   0  0  0  0  0  0
  -28.1056  -36.2631   24.6299 H   0  0  0  0  0  0
  -27.2292  -37.1470   25.8867 H   0  0  0  0  0  0
  -20.9285  -29.8733   21.6960 H   0  0  0  0  0  0
  -26.0187  -38.2884   24.1399 H   0  0  0  0  0  0
  -27.8057  -20.2968   19.5187 H   0  0  0  0  0  0
  -28.5492  -21.6456   23.5560 H   0  0  0  0  0  0
  -29.7820  -22.9769   20.1808 H   0  0  0  0  0  0
  -28.6693  -22.3289   19.0058 H   0  0  0  0  0  0
  -27.1262  -23.3675   22.9205 H   0  0  0  0  0  0
  -28.8285  -23.6465   22.6103 H   0  0  0  0  0  0
  -27.4438  -24.4263   18.8739 H   0  0  0  0  0  0
  -29.1367  -24.7142   18.5647 H   0  0  0  0  0  0
  -27.6333  -25.7573   22.4695 H   0  0  0  0  0  0
  -26.4958  -25.0887   21.3219 H   0  0  0  0  0  0
  -26.7917  -22.5386   20.6212 H   0  0  0  0  0  0
  -29.5045  -25.3602   20.9084 H   0  0  0  0  0  0
  -27.8093  -17.9552   19.0246 H   0  0  0  0  0  0
  -28.1390  -16.7597   20.2717 H   0  0  0  0  0  0
  -29.4763  -17.5420   19.4252 H   0  0  0  0  0  0
  -29.1996  -20.2043   25.2429 H   0  0  0  0  0  0
  -30.3649  -19.0084   24.6825 H   0  0  0  0  0  0
  -28.7061  -18.5252   25.0599 H   0  0  0  0  0  0
  -31.9914  -16.4009   24.6508 H   0  0  0  0  0  0
  -31.9112  -14.6596   24.4267 H   0  0  0  0  0  0
  -30.4289  -15.5958   24.5864 H   0  0  0  0  0  0
  -30.9886  -17.3337   21.1700 H   0  0  0  0  0  0
  -31.4073  -17.9633   22.7407 H   0  0  0  0  0  0
  -32.4489  -15.7536   22.2885 H   0  0  0  0  0  0
  -29.2976  -17.0902   23.5620 H   0  0  0  0  0  0
  -29.8739  -14.3539   22.5245 H   0  0  0  0  0  0
  1 25  1  0  0  0
  1 30  2  0  0  0
  1 89  1  0  0  0
  2  3  1  0  0  0
  2 25  1  0  0  0
  2 90  1  0  0  0
  2 91  1  0  0  0
  3  4  1  0  0  0
  3 92  1  0  0  0
  3 93  1  0  0  0
  4  5  1  0  0  0
  4 94  1  0  0  0
  4 95  1  0  0  0
  5  6  1  0  0  0
  5 26  1  0  0  0
  5 96  1  0  0  0
  6 25  1  0  0  0
  6 97  1  0  0  0
  6 98  1  0  0  0
  7  8  2  0  0  0
  7 26  1  0  0  0
  7 29  1  0  0  0
  8  9  1  0  0  0
  8 22  1  0  0  0
  9 10  1  0  0  0
  9 27  2  0  0  0
 10 11  2  0  0  0
 10 15  1  0  0  0
 11 12  1  0  0  0
 11 99  1  0  0  0
 12 13  2  0  0  0
 12100  1  0  0  0
 13 14  1  0  0  0
 13 31  1  0  0  0
 14 15  2  0  0  0
 14101  1  0  0  0
 15102  1  0  0  0
 16 17  2  0  0  0
 16 21  1  0  0  0
 16 31  1  0  0  0
 17 18  1  0  0  0
 17103  1  0  0  0
 18 19  2  0  0  0
 18104  1  0  0  0
 19 20  1  0  0  0
 19 24  1  0  0  0
 20 21  2  0  0  0
 20105  1  0  0  0
 21 23  1  0  0  0
 22 28  1  0  0  0
 22 32  2  0  0  0
 26 27  1  0  0  0
 28106  1  0  0  0
 28107  1  0  0  0
 29108  1  0  0  0
 29109  1  0  0  0
 33 34  1  0  0  0
 33 66  1  0  0  0
 33 70  2  0  0  0
 34 36  1  0  0  0
 34 59  1  0  0  0
 34110  1  0  0  0
 35 44  2  0  0  0
 35 45  1  0  0  0
 35 68  1  0  0  0
 36 56  1  0  0  0
 36111  1  0  0  0
 37 39  1  0  0  0
 37 47  1  0  0  0
 37 66  1  0  0  0
 37112  1  0  0  0
 38 43  2  0  0  0
 38 46  1  0  0  0
 38 47  1  0  0  0
 39 64  1  0  0  0
 39 67  2  0  0  0
 40 52  1  0  0  0
 40 53  2  0  0  0
 40 58  1  0  0  0
 41113  1  0  0  0
 41114  1  0  0  0
 41115  1  0  0  0
 41 48  1  0  0  0
 42 43  1  0  0  0
 42 66  1  0  0  0
 42116  1  0  0  0
 42117  1  0  0  0
 43 44  1  0  0  0
 44118  1  0  0  0
 45 46  2  0  0  0
 45119  1  0  0  0
 46120  1  0  0  0
 47121  1  0  0  0
 47122  1  0  0  0
 48 56  1  0  0  0
 48 65  1  0  0  0
 48123  1  0  0  0
 49 50  1  0  0  0
 49 53  1  0  0  0
 49 64  1  0  0  0
 49124  1  0  0  0
 50 51  1  0  0  0
 50125  1  0  0  0
 50126  1  0  0  0
 51 52  1  0  0  0
 51127  1  0  0  0
 51128  1  0  0  0
 52129  1  0  0  0
 52130  1  0  0  0
 53 54  1  0  0  0
 54 55  2  0  0  0
 54131  1  0  0  0
 55 57  1  0  0  0
 55132  1  0  0  0
 56 69  2  0  0  0
 57 58  2  0  0  0
 57133  1  0  0  0
 58134  1  0  0  0
 59 60  1  0  0  0
 59 61  1  0  0  0
 59 62  1  0  0  0
 60135  1  0  0  0
 60136  1  0  0  0
 60137  1  0  0  0
 61138  1  0  0  0
 61139  1  0  0  0
 61140  1  0  0  0
 62141  1  0  0  0
 62142  1  0  0  0
 62143  1  0  0  0
 63 65  1  0  0  0
 63144  1  0  0  0
 63145  1  0  0  0
 63146  1  0  0  0
 64147  1  0  0  0
 65148  1  0  0  0
 68 82  1  0  0  0
 71 73  2  0  0  0
 71 74  1  0  0  0
 71149  1  0  0  0
 72 73  1  0  0  0
 72 75  2  0  0  0
 72150  1  0  0  0
 73 81  1  0  0  0
 74 76  2  0  0  0
 74 83  1  0  0  0
 75 76  1  0  0  0
 75 84  1  0  0  0
 76 88  1  0  0  0
 77 79  1  0  0  0
 77 81  1  0  0  0
 77151  1  0  0  0
 77152  1  0  0  0
 78 80  1  0  0  0
 78 81  1  0  0  0
 78153  1  0  0  0
 78154  1  0  0  0
 79 82  1  0  0  0
 79155  1  0  0  0
 79156  1  0  0  0
 80 82  1  0  0  0
 80157  1  0  0  0
 80158  1  0  0  0
 81159  1  0  0  0
 82160  1  0  0  0
 83161  1  0  0  0
 83162  1  0  0  0
 83163  1  0  0  0
 84164  1  0  0  0
 84165  1  0  0  0
 84166  1  0  0  0
 85167  1  0  0  0
 85168  1  0  0  0
 85169  1  0  0  0
 85 87  1  0  0  0
 86 87  1  0  0  0
 86 88  1  0  0  0
 86170  1  0  0  0
 86171  1  0  0  0
 87 89  1  0  0  0
 87172  1  0  0  0
 88173  1  0  0  0
 89174  1  0  0  0
M  ISO  4   1 100  68 101  82 101  89 100
M  END
> <chiral flag>
0

> <version>
0

> <s_m_source_file>
/data/baiqing/PycharmProjects/Reinvent-master-3.2/result/LINK_invent/BTK/process_docking_weight1_custom_sum_contain_oxygen_bond_distance_aromatic_linkinvent_7_9_3/rearranged_h_0150.sdf

> <i_m_source_file_index>
51

> <r_mmod_Potential_Energy-OPLS-2005>
-157.590545654297

> <r_mmod_Stretch_Energy-OPLS-2005>
32.8034210205078

> <r_mmod_Bend_Energy-OPLS-2005>
100.00114440918

> <r_mmod_Torsional_Energy-OPLS-2005>
263.014068603516

> <r_mmod_Improper_Torsional_Energy-OPLS-2005>
9.74213981628418

> <r_mmod_Van_der_Waal_Energy-OPLS-2005>
161.738464355469

> <r_mmod_Electrostatic_Energy-OPLS-2005>
-542.940979003906

> <r_mmod_Solvation_Energy-OPLS-2005>
-191.182830810547

> <b_mmod_Minimization_Converged-OPLS-2005>
0

> <r_mmod_RMS_Derivative-OPLS-2005>
0.901974558830261

$$$$
51
                    3D
 Structure written by MMmdl.
175185  0  0  1  0            999 V2000
  -30.7349  -14.3854   20.6391 C   0  0  0  0  0  0
  -30.4264  -12.2794   19.3868 C   0  0  0  0  0  0
  -29.4873  -12.4982   18.1850 C   0  0  0  0  0  0
  -28.0095  -12.3298   18.5972 C   0  0  0  0  0  0
  -27.6644  -13.1505   19.8645 C   0  0  2  0  0  0
  -28.7127  -12.8820   20.9781 C   0  0  0  0  0  0
  -25.2649  -13.8001   20.5590 C   0  0  0  0  0  0
  -24.1870  -13.0380   20.9166 C   0  0  0  0  0  0
  -24.6344  -11.6811   20.8749 C   0  0  0  0  0  0
  -23.9000  -10.4232   21.0430 C   0  0  0  0  0  0
  -24.3571   -9.4145   21.9218 C   0  0  0  0  0  0
  -23.6267   -8.2174   22.0747 C   0  0  0  0  0  0
  -22.4265   -8.0212   21.3510 C   0  0  0  0  0  0
  -21.9865   -9.0191   20.4623 C   0  0  0  0  0  0
  -22.7167  -10.2089   20.3059 C   0  0  0  0  0  0
  -21.6829   -6.0702   22.5259 C   0  0  0  0  0  0
  -21.3998   -6.5615   23.8202 C   0  0  0  0  0  0
  -21.3675   -5.6773   24.9181 C   0  0  0  0  0  0
  -21.6054   -4.3032   24.7231 C   0  0  0  0  0  0
  -21.8818   -3.8120   23.4353 C   0  0  0  0  0  0
  -21.9184   -4.6933   22.3407 C   0  0  0  0  0  0
  -22.7905  -13.5215   21.1848 C   0  0  0  0  0  0
  -22.1627   -4.2127   21.0990 F   0  0  0  0  0  0
  -21.5668   -3.4515   25.7745 F   0  0  0  0  0  0
  -30.0380  -13.2287   20.4403 N   0  0  0  0  0  0
  -26.3041  -12.9052   20.3304 N   0  0  0  0  0  0
  -25.9240  -11.6287   20.5762 N   0  0  0  0  0  0
  -22.0520  -12.8249   22.0417 N   0  0  0  0  0  0
  -25.4430  -15.1717   20.3911 N   0  0  0  0  0  0
  -31.8303  -14.5860   20.1003 O   0  0  0  0  0  0
  -21.6599   -6.8828   21.4210 O   0  0  0  0  0  0
  -22.3611  -14.5539   20.6694 O   0  0  0  0  0  0
  -24.6110  -31.8684   23.2097 C   0  0  0  0  0  0
  -25.9012  -32.4820   23.8392 C   0  0  1  0  0  0
  -27.2589  -27.4635   20.1044 C   0  0  0  0  0  0
  -25.5911  -33.8612   24.2354 N   0  0  0  0  0  0
  -23.3965  -30.4830   21.5503 C   0  0  2  0  0  0
  -24.8531  -28.9509   20.1191 C   0  0  0  0  0  0
  -22.7363  -29.4655   22.5072 C   0  0  0  0  0  0
  -18.0252  -28.1330   22.8516 C   0  0  0  0  0  0
  -24.1474  -36.7280   23.2639 C   0  0  0  0  0  0
  -25.9227  -30.8367   21.3694 C   0  0  0  0  0  0
  -26.0068  -29.4765   20.7138 C   0  0  0  0  0  0
  -27.2127  -28.7405   20.7076 C   0  0  0  0  0  0
  -26.0942  -26.9519   19.4952 C   0  0  0  0  0  0
  -24.8903  -27.6845   19.5094 C   0  0  0  0  0  0
  -23.6014  -29.7966   20.1718 C   0  0  0  0  0  0
  -25.4112  -36.3112   24.0358 C   0  0  1  0  0  0
  -20.5831  -28.3605   23.1352 C   0  0  2  0  0  0
  -20.6737  -26.9345   22.5433 C   0  0  0  0  0  0
  -19.5725  -26.6351   21.5210 C   0  0  0  0  0  0
  -18.1894  -26.7902   22.1611 C   0  0  0  0  0  0
  -19.1495  -28.8799   23.2927 C   0  0  0  0  0  0
  -18.9429  -30.1426   23.8897 C   0  0  0  0  0  0
  -17.6438  -30.6564   24.0532 C   0  0  0  0  0  0
  -25.9045  -34.9476   23.5165 C   0  0  0  0  0  0
  -16.5331  -29.9036   23.6333 C   0  0  0  0  0  0
  -16.7240  -28.6438   23.0375 C   0  0  0  0  0  0
  -26.4469  -31.6597   25.0730 C   0  0  0  0  0  0
  -25.3751  -31.3689   26.1512 C   0  0  0  0  0  0
  -27.0341  -30.3039   24.6132 C   0  0  0  0  0  0
  -27.6048  -32.4325   25.7479 C   0  0  0  0  0  0
  -27.5582  -37.1783   24.8459 C   0  0  0  0  0  0
  -21.4088  -29.3001   22.3799 N   0  0  0  0  0  0
  -26.4303  -37.3789   23.9403 N   0  0  0  0  0  0
  -24.6578  -31.0789   22.0993 N   0  0  0  0  0  0
  -23.4180  -28.8257   23.3129 O   0  0  0  0  0  0
  -28.3932  -26.6851   20.0665 O   0  0  0  0  0  0
  -26.5571  -34.8915   22.4704 O   0  0  0  0  0  0
  -23.5330  -32.1472   23.7517 O   0  0  0  0  0  0
  -30.7803  -22.8107   20.1176 C   0  0  0  0  0  0
  -29.5387  -21.9314   21.9964 C   0  0  0  0  0  0
  -29.9659  -23.0515   21.2497 C   0  0  0  0  0  0
  -31.0700  -21.4816   19.7568 C   0  0  0  0  0  0
  -29.9173  -20.6355   21.5960 C   0  0  0  0  0  0
  -30.4224  -21.9061   16.3648 C   0  0  0  0  0  0
  -31.3367  -20.7981   15.9007 C   0  0  0  0  0  0
  -28.6338  -17.3647   21.6177 C   0  0  0  0  0  0
  -30.6172  -17.3284   23.0105 C   0  0  0  0  0  0
  -28.9670  -15.9966   21.0219 C   0  0  0  0  0  0
  -31.1376  -16.0141   22.3930 C   0  0  0  0  0  0
  -30.8605  -20.8301   17.3378 C   0  0  0  0  0  0
  -29.8919  -18.1501   21.9444 C   0  0  0  0  0  0
  -32.8670  -20.0355   18.6517 C   0  0  0  0  0  0
  -29.2103  -26.6780   21.2389 C   0  0  0  0  0  0
  -30.1734  -25.4788   21.1742 C   0  0  0  0  0  0
  -31.8262  -21.1569   18.4686 C   0  0  2  0  0  0
  -30.6354  -20.4278   20.4768 N   0  0  0  0  0  0
  -30.1976  -15.3045   21.4870 N   0  0  0  0  0  0
  -29.5718  -19.5149   22.3707 N   0  0  0  0  0  0
  -29.5280  -24.2963   21.6603 O   0  0  0  0  0  0
  -31.4671  -12.3867   19.0794 H   0  0  0  0  0  0
  -30.3413  -11.2561   19.7531 H   0  0  0  0  0  0
  -29.7365  -11.8005   17.3812 H   0  0  0  0  0  0
  -29.6419  -13.5011   17.7862 H   0  0  0  0  0  0
  -27.8241  -11.2691   18.7791 H   0  0  0  0  0  0
  -27.3578  -12.6133   17.7693 H   0  0  0  0  0  0
  -27.7074  -14.1856   19.5412 H   0  0  0  0  0  0
  -28.7008  -11.8226   21.2374 H   0  0  0  0  0  0
  -28.4869  -13.3865   21.9154 H   0  0  0  0  0  0
  -25.2692   -9.5623   22.4846 H   0  0  0  0  0  0
  -23.9948   -7.4543   22.7451 H   0  0  0  0  0  0
  -21.0788   -8.8685   19.8928 H   0  0  0  0  0  0
  -22.3591  -10.9650   19.6191 H   0  0  0  0  0  0
  -21.1952   -7.6123   23.9705 H   0  0  0  0  0  0
  -21.1521   -6.0508   25.9091 H   0  0  0  0  0  0
  -22.0605   -2.7585   23.2860 H   0  0  0  0  0  0
  -22.4040  -11.9878   22.4817 H   0  0  0  0  0  0
  -21.1144  -13.1318   22.2609 H   0  0  0  0  0  0
  -24.6884  -15.8388   20.5121 H   0  0  0  0  0  0
  -26.3033  -15.5963   20.0720 H   0  0  0  0  0  0
  -26.7081  -32.5525   23.1156 H   0  0  0  0  0  0
  -25.0130  -33.9743   25.0553 H   0  0  0  0  0  0
  -22.6846  -31.2965   21.3995 H   0  0  0  0  0  0
  -23.3761  -35.9578   23.3321 H   0  0  0  0  0  0
  -24.3566  -36.8873   22.2044 H   0  0  0  0  0  0
  -23.7187  -37.6480   23.6640 H   0  0  0  0  0  0
  -26.0572  -31.6061   20.6096 H   0  0  0  0  0  0
  -26.8005  -30.8722   22.0022 H   0  0  0  0  0  0
  -28.1028  -29.1653   21.1512 H   0  0  0  0  0  0
  -26.1155  -25.9776   19.0262 H   0  0  0  0  0  0
  -24.0030  -27.2636   19.0559 H   0  0  0  0  0  0
  -23.6775  -30.5507   19.3875 H   0  0  0  0  0  0
  -22.7354  -29.1825   19.9106 H   0  0  0  0  0  0
  -25.1282  -36.1991   25.0854 H   0  0  0  0  0  0
  -20.9880  -28.3128   24.1484 H   0  0  0  0  0  0
  -20.5568  -26.2192   23.3611 H   0  0  0  0  0  0
  -21.6609  -26.7372   22.1244 H   0  0  0  0  0  0
  -19.6850  -25.6254   21.1229 H   0  0  0  0  0  0
  -19.6678  -27.3152   20.6746 H   0  0  0  0  0  0
  -17.4170  -26.6688   21.3992 H   0  0  0  0  0  0
  -18.0264  -26.0021   22.8972 H   0  0  0  0  0  0
  -19.7915  -30.7228   24.2247 H   0  0  0  0  0  0
  -17.4992  -31.6251   24.5097 H   0  0  0  0  0  0
  -15.5310  -30.2906   23.7705 H   0  0  0  0  0  0
  -15.8646  -28.0730   22.7132 H   0  0  0  0  0  0
  -24.5912  -30.7059   25.7840 H   0  0  0  0  0  0
  -24.8984  -32.2843   26.5010 H   0  0  0  0  0  0
  -25.8149  -30.8818   27.0226 H   0  0  0  0  0  0
  -26.2900  -29.6742   24.1252 H   0  0  0  0  0  0
  -27.4169  -29.7339   25.4602 H   0  0  0  0  0  0
  -27.8698  -30.4343   23.9260 H   0  0  0  0  0  0
  -27.2671  -33.3591   26.2126 H   0  0  0  0  0  0
  -28.3835  -32.6955   25.0302 H   0  0  0  0  0  0
  -28.0773  -31.8430   26.5359 H   0  0  0  0  0  0
  -28.2619  -38.0064   24.7545 H   0  0  0  0  0  0
  -28.1088  -36.2614   24.6278 H   0  0  0  0  0  0
  -27.2299  -37.1382   25.8859 H   0  0  0  0  0  0
  -20.9255  -29.8704   21.6993 H   0  0  0  0  0  0
  -26.0222  -38.2876   24.1403 H   0  0  0  0  0  0
  -31.1572  -23.5959   19.4807 H   0  0  0  0  0  0
  -28.9297  -22.0811   22.8783 H   0  0  0  0  0  0
  -29.3814  -21.8937   16.0434 H   0  0  0  0  0  0
  -30.8565  -22.8989   16.4772 H   0  0  0  0  0  0
  -32.3845  -21.0379   15.7235 H   0  0  0  0  0  0
  -30.9195  -20.0345   15.2467 H   0  0  0  0  0  0
  -28.0236  -17.2305   22.5142 H   0  0  0  0  0  0
  -28.0052  -17.9089   20.9113 H   0  0  0  0  0  0
  -31.4518  -17.8878   23.4313 H   0  0  0  0  0  0
  -29.9516  -17.1095   23.8474 H   0  0  0  0  0  0
  -29.0272  -16.1081   19.9372 H   0  0  0  0  0  0
  -28.0968  -15.3908   21.2421 H   0  0  0  0  0  0
  -31.4479  -15.3307   23.1860 H   0  0  0  0  0  0
  -32.0550  -16.2686   21.8549 H   0  0  0  0  0  0
  -30.1338  -20.0601   17.5898 H   0  0  0  0  0  0
  -30.5238  -18.1567   21.0560 H   0  0  0  0  0  0
  -33.5719  -20.2783   19.4448 H   0  0  0  0  0  0
  -33.4345  -19.8742   17.7360 H   0  0  0  0  0  0
  -32.3912  -19.0868   18.9077 H   0  0  0  0  0  0
  -29.7932  -27.5988   21.2825 H   0  0  0  0  0  0
  -28.6036  -26.6239   22.1445 H   0  0  0  0  0  0
  -31.0362  -25.6677   21.8136 H   0  0  0  0  0  0
  -30.5466  -25.4121   20.1553 H   0  0  0  0  0  0
  -32.3785  -22.0525   18.1850 H   0  0  0  0  0  0
  -28.9724  -19.6348   23.1808 H   0  0  0  0  0  0
  1 25  1  0  0  0
  1 30  2  0  0  0
  1 89  1  0  0  0
  2  3  1  0  0  0
  2 25  1  0  0  0
  2 92  1  0  0  0
  2 93  1  0  0  0
  3  4  1  0  0  0
  3 94  1  0  0  0
  3 95  1  0  0  0
  4  5  1  0  0  0
  4 96  1  0  0  0
  4 97  1  0  0  0
  5  6  1  0  0  0
  5 26  1  0  0  0
  5 98  1  0  0  0
  6 25  1  0  0  0
  6 99  1  0  0  0
  6100  1  0  0  0
  7  8  2  0  0  0
  7 26  1  0  0  0
  7 29  1  0  0  0
  8  9  1  0  0  0
  8 22  1  0  0  0
  9 10  1  0  0  0
  9 27  2  0  0  0
 10 11  2  0  0  0
 10 15  1  0  0  0
 11 12  1  0  0  0
 11101  1  0  0  0
 12 13  2  0  0  0
 12102  1  0  0  0
 13 14  1  0  0  0
 13 31  1  0  0  0
 14 15  2  0  0  0
 14103  1  0  0  0
 15104  1  0  0  0
 16 17  2  0  0  0
 16 21  1  0  0  0
 16 31  1  0  0  0
 17 18  1  0  0  0
 17105  1  0  0  0
 18 19  2  0  0  0
 18106  1  0  0  0
 19 20  1  0  0  0
 19 24  1  0  0  0
 20 21  2  0  0  0
 20107  1  0  0  0
 21 23  1  0  0  0
 22 28  1  0  0  0
 22 32  2  0  0  0
 26 27  1  0  0  0
 28108  1  0  0  0
 28109  1  0  0  0
 29110  1  0  0  0
 29111  1  0  0  0
 33 34  1  0  0  0
 33 66  1  0  0  0
 33 70  2  0  0  0
 34 36  1  0  0  0
 34 59  1  0  0  0
 34112  1  0  0  0
 35 44  2  0  0  0
 35 45  1  0  0  0
 35 68  1  0  0  0
 36 56  1  0  0  0
 36113  1  0  0  0
 37 39  1  0  0  0
 37 47  1  0  0  0
 37 66  1  0  0  0
 37114  1  0  0  0
 38 43  2  0  0  0
 38 46  1  0  0  0
 38 47  1  0  0  0
 39 64  1  0  0  0
 39 67  2  0  0  0
 40 52  1  0  0  0
 40 53  2  0  0  0
 40 58  1  0  0  0
 41115  1  0  0  0
 41116  1  0  0  0
 41117  1  0  0  0
 41 48  1  0  0  0
 42 43  1  0  0  0
 42 66  1  0  0  0
 42118  1  0  0  0
 42119  1  0  0  0
 43 44  1  0  0  0
 44120  1  0  0  0
 45 46  2  0  0  0
 45121  1  0  0  0
 46122  1  0  0  0
 47123  1  0  0  0
 47124  1  0  0  0
 48 56  1  0  0  0
 48 65  1  0  0  0
 48125  1  0  0  0
 49 50  1  0  0  0
 49 53  1  0  0  0
 49 64  1  0  0  0
 49126  1  0  0  0
 50 51  1  0  0  0
 50127  1  0  0  0
 50128  1  0  0  0
 51 52  1  0  0  0
 51129  1  0  0  0
 51130  1  0  0  0
 52131  1  0  0  0
 52132  1  0  0  0
 53 54  1  0  0  0
 54 55  2  0  0  0
 54133  1  0  0  0
 55 57  1  0  0  0
 55134  1  0  0  0
 56 69  2  0  0  0
 57 58  2  0  0  0
 57135  1  0  0  0
 58136  1  0  0  0
 59 60  1  0  0  0
 59 61  1  0  0  0
 59 62  1  0  0  0
 60137  1  0  0  0
 60138  1  0  0  0
 60139  1  0  0  0
 61140  1  0  0  0
 61141  1  0  0  0
 61142  1  0  0  0
 62143  1  0  0  0
 62144  1  0  0  0
 62145  1  0  0  0
 63 65  1  0  0  0
 63146  1  0  0  0
 63147  1  0  0  0
 63148  1  0  0  0
 64149  1  0  0  0
 65150  1  0  0  0
 68 85  1  0  0  0
 71 73  2  0  0  0
 71 74  1  0  0  0
 71151  1  0  0  0
 72 73  1  0  0  0
 72 75  2  0  0  0
 72152  1  0  0  0
 73 91  1  0  0  0
 74 87  1  0  0  0
 74 88  2  0  0  0
 75 88  1  0  0  0
 75 90  1  0  0  0
 76 77  1  0  0  0
 76153  1  0  0  0
 76154  1  0  0  0
 76 82  1  0  0  0
 77 82  1  0  0  0
 77155  1  0  0  0
 77156  1  0  0  0
 78 80  1  0  0  0
 78 83  1  0  0  0
 78157  1  0  0  0
 78158  1  0  0  0
 79 81  1  0  0  0
 79 83  1  0  0  0
 79159  1  0  0  0
 79160  1  0  0  0
 80 89  1  0  0  0
 80161  1  0  0  0
 80162  1  0  0  0
 81 89  1  0  0  0
 81163  1  0  0  0
 81164  1  0  0  0
 82 87  1  0  0  0
 82165  1  0  0  0
 83 90  1  0  0  0
 83166  1  0  0  0
 84167  1  0  0  0
 84168  1  0  0  0
 84169  1  0  0  0
 84 87  1  0  0  0
 85 86  1  0  0  0
 85170  1  0  0  0
 85171  1  0  0  0
 86 91  1  0  0  0
 86172  1  0  0  0
 86173  1  0  0  0
 87174  1  0  0  0
 90175  1  0  0  0
M  ISO  4   1 100  68 101  85 101  89 100
M  END
> <chiral flag>
0

> <version>
0

> <s_m_source_file>
/data/baiqing/PycharmProjects/Reinvent-master-3.2/result/LINK_invent/BTK/process_docking_weight1_custom_sum_contain_oxygen_bond_distance_aromatic_linkinvent_7_9_3/rearranged_h_0150.sdf

> <i_m_source_file_index>
52

> <r_mmod_Potential_Energy-OPLS-2005>
-17.9733600616455

> <r_mmod_Stretch_Energy-OPLS-2005>
40.6321601867676

> <r_mmod_Bend_Energy-OPLS-2005>
139.50862121582

> <r_mmod_Torsional_Energy-OPLS-2005>
345.916717529297

> <r_mmod_Improper_Torsional_Energy-OPLS-2005>
4.19543886184692

> <r_mmod_Van_der_Waal_Energy-OPLS-2005>
181.015228271484

> <r_mmod_Electrostatic_Energy-OPLS-2005>
-516.527404785156

> <r_mmod_Solvation_Energy-OPLS-2005>
-222.626693725586

> <b_mmod_Minimization_Converged-OPLS-2005>
0

> <r_mmod_RMS_Derivative-OPLS-2005>
4.79878664016724

$$$$
52
                    3D
 Structure written by MMmdl.
166175  0  0  1  0            999 V2000
  -30.7832  -14.3852   20.6271 C   0  0  0  0  0  0
  -30.4006  -12.2744   19.4241 C   0  0  0  0  0  0
  -29.4899  -12.5189   18.2061 C   0  0  0  0  0  0
  -28.0096  -12.3832   18.6090 C   0  0  0  0  0  0
  -27.6605  -13.2123   19.8736 C   0  0  2  0  0  0
  -28.6965  -12.9875   20.9970 C   0  0  0  0  0  0
  -25.2591  -13.8187   20.5698 C   0  0  0  0  0  0
  -24.1837  -13.0447   20.9190 C   0  0  0  0  0  0
  -24.6396  -11.6920   20.8726 C   0  0  0  0  0  0
  -23.9067  -10.4300   21.0405 C   0  0  0  0  0  0
  -24.3622   -9.4221   21.9181 C   0  0  0  0  0  0
  -23.6302   -8.2249   22.0749 C   0  0  0  0  0  0
  -22.4282   -8.0279   21.3545 C   0  0  0  0  0  0
  -21.9923   -9.0249   20.4643 C   0  0  0  0  0  0
  -22.7245  -10.2129   20.3058 C   0  0  0  0  0  0
  -21.6856   -6.0741   22.5285 C   0  0  0  0  0  0
  -21.4006   -6.5636   23.8212 C   0  0  0  0  0  0
  -21.3656   -5.6786   24.9169 C   0  0  0  0  0  0
  -21.6050   -4.3051   24.7223 C   0  0  0  0  0  0
  -21.8814   -3.8149   23.4337 C   0  0  0  0  0  0
  -21.9193   -4.6972   22.3402 C   0  0  0  0  0  0
  -22.7859  -13.5253   21.1847 C   0  0  0  0  0  0
  -22.1657   -4.2168   21.0977 F   0  0  0  0  0  0
  -21.5644   -3.4532   25.7736 F   0  0  0  0  0  0
  -30.0376  -13.2595   20.4548 N   0  0  0  0  0  0
  -26.3012  -12.9353   20.3341 N   0  0  0  0  0  0
  -25.9326  -11.6509   20.5746 N   0  0  0  0  0  0
  -22.0486  -12.8230   22.0380 N   0  0  0  0  0  0
  -25.4336  -15.1898   20.4131 N   0  0  0  0  0  0
  -31.8860  -14.5329   20.0906 O   0  0  0  0  0  0
  -21.6639   -6.8880   21.4245 O   0  0  0  0  0  0
  -22.3553  -14.5565   20.6709 O   0  0  0  0  0  0
  -24.6165  -31.8689   23.2155 C   0  0  0  0  0  0
  -25.9084  -32.4823   23.8418 C   0  0  1  0  0  0
  -27.2265  -27.4387   20.1115 C   0  0  0  0  0  0
  -25.5961  -33.8626   24.2368 N   0  0  0  0  0  0
  -23.4019  -30.4970   21.5527 C   0  0  2  0  0  0
  -24.8470  -28.9669   20.1156 C   0  0  0  0  0  0
  -22.7385  -29.4693   22.4984 C   0  0  0  0  0  0
  -18.0272  -28.1373   22.8502 C   0  0  0  0  0  0
  -24.1480  -36.7274   23.2614 C   0  0  0  0  0  0
  -25.9315  -30.8376   21.3704 C   0  0  0  0  0  0
  -26.0083  -29.4759   20.7121 C   0  0  0  0  0  0
  -27.2028  -28.7202   20.7046 C   0  0  0  0  0  0
  -26.0498  -26.9507   19.4972 C   0  0  0  0  0  0
  -24.8628  -27.7025   19.5050 C   0  0  0  0  0  0
  -23.6100  -29.8327   20.1660 C   0  0  0  0  0  0
  -25.4093  -36.3103   24.0341 C   0  0  1  0  0  0
  -20.5858  -28.3671   23.1301 C   0  0  2  0  0  0
  -20.6770  -26.9404   22.5409 C   0  0  0  0  0  0
  -19.5743  -26.6381   21.5215 C   0  0  0  0  0  0
  -18.1917  -26.7927   22.1607 C   0  0  0  0  0  0
  -19.1517  -28.8840   23.2901 C   0  0  0  0  0  0
  -18.9444  -30.1451   23.8910 C   0  0  0  0  0  0
  -17.6450  -30.6584   24.0576 C   0  0  0  0  0  0
  -25.9047  -34.9476   23.5138 C   0  0  0  0  0  0
  -16.5343  -29.9080   23.6352 C   0  0  0  0  0  0
  -16.7260  -28.6491   23.0378 C   0  0  0  0  0  0
  -26.4520  -31.6584   25.0734 C   0  0  0  0  0  0
  -25.3791  -31.3666   26.1473 C   0  0  0  0  0  0
  -27.0375  -30.3028   24.6140 C   0  0  0  0  0  0
  -27.6106  -32.4282   25.7495 C   0  0  0  0  0  0
  -27.5630  -37.1726   24.8401 C   0  0  0  0  0  0
  -21.4114  -29.3052   22.3703 N   0  0  0  0  0  0
  -26.4243  -37.3839   23.9499 N   0  0  0  0  0  0
  -24.6676  -31.0809   22.1045 N   0  0  0  0  0  0
  -23.4151  -28.8229   23.3025 O   0  0  0  0  0  0
  -28.3733  -26.6743   20.1525 O   0  0  0  0  0  0
  -26.5576  -34.8929   22.4682 O   0  0  0  0  0  0
  -23.5359  -32.1428   23.7562 O   0  0  0  0  0  0
  -28.4380  -22.1642   20.4133 C   0  0  0  0  0  0
  -28.1445  -20.8728   20.8891 C   0  0  0  0  0  0
  -29.6317  -22.6423   22.4717 C   0  0  0  0  0  0
  -29.1721  -23.0688   21.2065 C   0  0  0  0  0  0
  -28.5907  -20.4393   22.1584 C   0  0  0  0  0  0
  -29.3508  -21.3402   22.9542 C   0  0  0  0  0  0
  -30.4213  -16.7439   20.4760 C   0  0  0  0  0  0
  -30.0793  -15.6463   22.6079 C   0  0  0  0  0  0
  -29.3632  -17.7996   20.8116 C   0  0  0  0  0  0
  -28.9942  -16.6896   22.9752 C   0  0  0  0  0  0
  -29.8568  -20.9748   24.3421 C   0  0  0  0  0  0
  -29.4414  -24.4871   20.7000 C   0  0  0  0  0  0
  -28.2034  -19.0268   22.6249 C   0  0  0  0  0  0
  -28.1660  -25.3513   20.6786 C   0  0  0  0  0  0
  -30.1581  -15.4649   21.1515 N   0  0  0  0  0  0
  -29.2127  -17.9881   22.2761 N   0  3  0  0  0  0
  -31.4508  -12.3229   19.1323 H   0  0  0  0  0  0
  -30.2537  -11.2636   19.8090 H   0  0  0  0  0  0
  -29.7293  -11.8172   17.4058 H   0  0  0  0  0  0
  -29.6716  -13.5173   17.8018 H   0  0  0  0  0  0
  -27.8110  -11.3259   18.7900 H   0  0  0  0  0  0
  -27.3648  -12.6750   17.7792 H   0  0  0  0  0  0
  -27.7077  -14.2637   19.5865 H   0  0  0  0  0  0
  -28.6529  -11.9572   21.3538 H   0  0  0  0  0  0
  -28.4463  -13.6040   21.8580 H   0  0  0  0  0  0
  -25.2766   -9.5700   22.4755 H   0  0  0  0  0  0
  -24.0031   -7.4637   22.7462 H   0  0  0  0  0  0
  -21.0870   -8.8753   19.8937 H   0  0  0  0  0  0
  -22.3709  -10.9660   19.6166 H   0  0  0  0  0  0
  -21.1967   -7.6135   23.9731 H   0  0  0  0  0  0
  -21.1492   -6.0502   25.9076 H   0  0  0  0  0  0
  -22.0596   -2.7616   23.2834 H   0  0  0  0  0  0
  -22.4083  -11.9875   22.4754 H   0  0  0  0  0  0
  -21.1087  -13.1222   22.2555 H   0  0  0  0  0  0
  -24.6623  -15.8424   20.4994 H   0  0  0  0  0  0
  -26.2719  -15.6126   20.0378 H   0  0  0  0  0  0
  -26.7160  -32.5539   23.1175 H   0  0  0  0  0  0
  -25.0251  -33.9803   25.0606 H   0  0  0  0  0  0
  -22.6939  -31.3161   21.4146 H   0  0  0  0  0  0
  -23.3854  -35.9481   23.3068 H   0  0  0  0  0  0
  -24.3657  -36.9101   22.2077 H   0  0  0  0  0  0
  -23.7048  -37.6332   23.6757 H   0  0  0  0  0  0
  -26.0525  -31.6094   20.6090 H   0  0  0  0  0  0
  -26.8167  -30.8804   21.9937 H   0  0  0  0  0  0
  -28.0958  -29.1031   21.1794 H   0  0  0  0  0  0
  -26.0330  -25.9870   19.0100 H   0  0  0  0  0  0
  -23.9703  -27.3040   19.0418 H   0  0  0  0  0  0
  -23.7210  -30.6087   19.4079 H   0  0  0  0  0  0
  -22.7341  -29.2541   19.8684 H   0  0  0  0  0  0
  -25.1251  -36.1925   25.0821 H   0  0  0  0  0  0
  -20.9964  -28.3247   24.1415 H   0  0  0  0  0  0
  -20.5682  -26.2281   23.3608 H   0  0  0  0  0  0
  -21.6643  -26.7468   22.1188 H   0  0  0  0  0  0
  -19.6906  -25.6297   21.1240 H   0  0  0  0  0  0
  -19.6684  -27.3205   20.6764 H   0  0  0  0  0  0
  -17.4201  -26.6723   21.3990 H   0  0  0  0  0  0
  -18.0281  -26.0039   22.8961 H   0  0  0  0  0  0
  -19.7917  -30.7271   24.2259 H   0  0  0  0  0  0
  -17.5001  -31.6265   24.5161 H   0  0  0  0  0  0
  -15.5347  -30.2986   23.7667 H   0  0  0  0  0  0
  -15.8650  -28.0813   22.7109 H   0  0  0  0  0  0
  -24.6006  -30.6967   25.7807 H   0  0  0  0  0  0
  -24.8944  -32.2800   26.4924 H   0  0  0  0  0  0
  -25.8141  -30.8835   27.0226 H   0  0  0  0  0  0
  -26.2937  -29.6731   24.1237 H   0  0  0  0  0  0
  -27.4188  -29.7323   25.4623 H   0  0  0  0  0  0
  -27.8756  -30.4366   23.9294 H   0  0  0  0  0  0
  -27.2777  -33.3594   26.2091 H   0  0  0  0  0  0
  -28.3915  -32.6788   25.0303 H   0  0  0  0  0  0
  -28.0775  -31.8374   26.5386 H   0  0  0  0  0  0
  -28.2380  -38.0282   24.7898 H   0  0  0  0  0  0
  -28.1386  -36.2876   24.5650 H   0  0  0  0  0  0
  -27.2432  -37.0645   25.8780 H   0  0  0  0  0  0
  -20.9247  -29.8753   21.6925 H   0  0  0  0  0  0
  -26.0101  -38.2832   24.1800 H   0  0  0  0  0  0
  -28.0817  -22.4606   19.4362 H   0  0  0  0  0  0
  -27.5650  -20.2077   20.2632 H   0  0  0  0  0  0
  -30.1997  -23.3251   23.0896 H   0  0  0  0  0  0
  -31.4132  -17.1082   20.7512 H   0  0  0  0  0  0
  -30.4319  -16.6087   19.3917 H   0  0  0  0  0  0
  -29.8831  -14.7036   23.1203 H   0  0  0  0  0  0
  -31.0532  -15.9755   22.9767 H   0  0  0  0  0  0
  -28.4045  -17.5086   20.3792 H   0  0  0  0  0  0
  -29.6588  -18.7325   20.3342 H   0  0  0  0  0  0
  -28.9881  -16.8451   24.0554 H   0  0  0  0  0  0
  -28.0106  -16.2941   22.7139 H   0  0  0  0  0  0
  -30.8795  -21.3272   24.4769 H   0  0  0  0  0  0
  -29.8654  -19.9052   24.5412 H   0  0  0  0  0  0
  -29.2357  -21.4540   25.0995 H   0  0  0  0  0  0
  -29.8512  -24.4221   19.6908 H   0  0  0  0  0  0
  -30.2057  -24.9637   21.3136 H   0  0  0  0  0  0
  -27.2452  -18.7559   22.1790 H   0  0  0  0  0  0
  -28.0179  -19.0341   23.6988 H   0  0  0  0  0  0
  -27.7653  -25.4300   21.6910 H   0  0  0  0  0  0
  -27.4231  -24.8128   20.0937 H   0  0  0  0  0  0
  -30.0930  -18.3451   22.6153 H   0  0  0  0  0  0
  1 25  1  0  0  0
  1 30  2  0  0  0
  1 85  1  0  0  0
  2  3  1  0  0  0
  2 25  1  0  0  0
  2 87  1  0  0  0
  2 88  1  0  0  0
  3  4  1  0  0  0
  3 89  1  0  0  0
  3 90  1  0  0  0
  4  5  1  0  0  0
  4 91  1  0  0  0
  4 92  1  0  0  0
  5  6  1  0  0  0
  5 26  1  0  0  0
  5 93  1  0  0  0
  6 25  1  0  0  0
  6 94  1  0  0  0
  6 95  1  0  0  0
  7  8  2  0  0  0
  7 26  1  0  0  0
  7 29  1  0  0  0
  8  9  1  0  0  0
  8 22  1  0  0  0
  9 10  1  0  0  0
  9 27  2  0  0  0
 10 11  2  0  0  0
 10 15  1  0  0  0
 11 12  1  0  0  0
 11 96  1  0  0  0
 12 13  2  0  0  0
 12 97  1  0  0  0
 13 14  1  0  0  0
 13 31  1  0  0  0
 14 15  2  0  0  0
 14 98  1  0  0  0
 15 99  1  0  0  0
 16 17  2  0  0  0
 16 21  1  0  0  0
 16 31  1  0  0  0
 17 18  1  0  0  0
 17100  1  0  0  0
 18 19  2  0  0  0
 18101  1  0  0  0
 19 20  1  0  0  0
 19 24  1  0  0  0
 20 21  2  0  0  0
 20102  1  0  0  0
 21 23  1  0  0  0
 22 28  1  0  0  0
 22 32  2  0  0  0
 26 27  1  0  0  0
 28103  1  0  0  0
 28104  1  0  0  0
 29105  1  0  0  0
 29106  1  0  0  0
 33 34  1  0  0  0
 33 66  1  0  0  0
 33 70  2  0  0  0
 34 36  1  0  0  0
 34 59  1  0  0  0
 34107  1  0  0  0
 35 44  2  0  0  0
 35 45  1  0  0  0
 35 68  1  0  0  0
 36 56  1  0  0  0
 36108  1  0  0  0
 37 39  1  0  0  0
 37 47  1  0  0  0
 37 66  1  0  0  0
 37109  1  0  0  0
 38 43  2  0  0  0
 38 46  1  0  0  0
 38 47  1  0  0  0
 39 64  1  0  0  0
 39 67  2  0  0  0
 40 52  1  0  0  0
 40 53  2  0  0  0
 40 58  1  0  0  0
 41110  1  0  0  0
 41111  1  0  0  0
 41112  1  0  0  0
 41 48  1  0  0  0
 42 43  1  0  0  0
 42 66  1  0  0  0
 42113  1  0  0  0
 42114  1  0  0  0
 43 44  1  0  0  0
 44115  1  0  0  0
 45 46  2  0  0  0
 45116  1  0  0  0
 46117  1  0  0  0
 47118  1  0  0  0
 47119  1  0  0  0
 48 56  1  0  0  0
 48 65  1  0  0  0
 48120  1  0  0  0
 49 50  1  0  0  0
 49 53  1  0  0  0
 49 64  1  0  0  0
 49121  1  0  0  0
 50 51  1  0  0  0
 50122  1  0  0  0
 50123  1  0  0  0
 51 52  1  0  0  0
 51124  1  0  0  0
 51125  1  0  0  0
 52126  1  0  0  0
 52127  1  0  0  0
 53 54  1  0  0  0
 54 55  2  0  0  0
 54128  1  0  0  0
 55 57  1  0  0  0
 55129  1  0  0  0
 56 69  2  0  0  0
 57 58  2  0  0  0
 57130  1  0  0  0
 58131  1  0  0  0
 59 60  1  0  0  0
 59 61  1  0  0  0
 59 62  1  0  0  0
 60132  1  0  0  0
 60133  1  0  0  0
 60134  1  0  0  0
 61135  1  0  0  0
 61136  1  0  0  0
 61137  1  0  0  0
 62138  1  0  0  0
 62139  1  0  0  0
 62140  1  0  0  0
 63 65  1  0  0  0
 63141  1  0  0  0
 63142  1  0  0  0
 63143  1  0  0  0
 64144  1  0  0  0
 65145  1  0  0  0
 68 84  1  0  0  0
 71 72  2  0  0  0
 71 74  1  0  0  0
 71146  1  0  0  0
 72 75  1  0  0  0
 72147  1  0  0  0
 73 74  2  0  0  0
 73 76  1  0  0  0
 73148  1  0  0  0
 74 82  1  0  0  0
 75 76  2  0  0  0
 75 83  1  0  0  0
 76 81  1  0  0  0
 77 79  1  0  0  0
 77 85  1  0  0  0
 77149  1  0  0  0
 77150  1  0  0  0
 78 80  1  0  0  0
 78 85  1  0  0  0
 78151  1  0  0  0
 78152  1  0  0  0
 79 86  1  0  0  0
 79153  1  0  0  0
 79154  1  0  0  0
 80 86  1  0  0  0
 80155  1  0  0  0
 80156  1  0  0  0
 81157  1  0  0  0
 81158  1  0  0  0
 81159  1  0  0  0
 82 84  1  0  0  0
 82160  1  0  0  0
 82161  1  0  0  0
 83162  1  0  0  0
 83163  1  0  0  0
 83 86  1  0  0  0
 84164  1  0  0  0
 84165  1  0  0  0
 86166  1  0  0  0
M  CHG  1  86   1
M  ISO  4   1 100  68 101  84 101  85 100
M  END
> <chiral flag>
0

> <version>
0

> <s_m_source_file>
/data/baiqing/PycharmProjects/Reinvent-master-3.2/result/LINK_invent/BTK/process_docking_weight1_custom_sum_contain_oxygen_bond_distance_aromatic_linkinvent_7_9_3/rearranged_h_0150.sdf

> <i_m_source_file_index>
53

> <r_mmod_Potential_Energy-OPLS-2005>
33.050537109375

> <r_mmod_Stretch_Energy-OPLS-2005>
38.4892692565918

> <r_mmod_Bend_Energy-OPLS-2005>
97.7257766723633

> <r_mmod_Torsional_Energy-OPLS-2005>
365.255279541016

> <r_mmod_Improper_Torsional_Energy-OPLS-2005>
11.0826396942139

> <r_mmod_Van_der_Waal_Energy-OPLS-2005>
162.732498168945

> <r_mmod_Electrostatic_Energy-OPLS-2005>
-223.985015869141

> <r_mmod_Solvation_Energy-OPLS-2005>
-431.601135253906

> <b_mmod_Minimization_Converged-OPLS-2005>
0

> <r_mmod_RMS_Derivative-OPLS-2005>
2.55072116851807

$$$$
53
                    3D
 Structure written by MMmdl.
158167  0  0  1  0            999 V2000
  -30.6692  -14.5111   20.5374 C   0  0  0  0  0  0
  -30.4280  -12.3216   19.4356 C   0  0  0  0  0  0
  -29.5029  -12.5093   18.2148 C   0  0  0  0  0  0
  -28.0229  -12.3669   18.6205 C   0  0  0  0  0  0
  -27.6602  -13.2079   19.8743 C   0  0  2  0  0  0
  -28.7001  -13.0094   21.0005 C   0  0  0  0  0  0
  -25.2589  -13.8158   20.5675 C   0  0  0  0  0  0
  -24.1834  -13.0439   20.9166 C   0  0  0  0  0  0
  -24.6388  -11.6906   20.8727 C   0  0  0  0  0  0
  -23.9053  -10.4291   21.0400 C   0  0  0  0  0  0
  -24.3606   -9.4211   21.9179 C   0  0  0  0  0  0
  -23.6280   -8.2243   22.0750 C   0  0  0  0  0  0
  -22.4264   -8.0283   21.3537 C   0  0  0  0  0  0
  -21.9894   -9.0260   20.4646 C   0  0  0  0  0  0
  -22.7223  -10.2130   20.3052 C   0  0  0  0  0  0
  -21.6856   -6.0726   22.5265 C   0  0  0  0  0  0
  -21.4025   -6.5635   23.8193 C   0  0  0  0  0  0
  -21.3652   -5.6783   24.9154 C   0  0  0  0  0  0
  -21.6042   -4.3048   24.7208 C   0  0  0  0  0  0
  -21.8832   -3.8144   23.4330 C   0  0  0  0  0  0
  -21.9198   -4.6954   22.3384 C   0  0  0  0  0  0
  -22.7855  -13.5242   21.1824 C   0  0  0  0  0  0
  -22.1673   -4.2144   21.0961 F   0  0  0  0  0  0
  -21.5614   -3.4533   25.7719 F   0  0  0  0  0  0
  -30.0296  -13.3135   20.4486 N   0  0  0  0  0  0
  -26.3015  -12.9327   20.3354 N   0  0  0  0  0  0
  -25.9316  -11.6489   20.5752 N   0  0  0  0  0  0
  -22.0493  -12.8246   22.0385 N   0  0  0  0  0  0
  -25.4357  -15.1871   20.4078 N   0  0  0  0  0  0
  -31.8233  -14.6825   20.1313 O   0  0  0  0  0  0
  -21.6642   -6.8871   21.4227 O   0  0  0  0  0  0
  -22.3549  -14.5549   20.6669 O   0  0  0  0  0  0
  -24.6159  -31.8679   23.2102 C   0  0  0  0  0  0
  -25.9049  -32.4825   23.8416 C   0  0  1  0  0  0
  -27.2328  -27.4187   20.1149 C   0  0  0  0  0  0
  -25.5910  -33.8621   24.2350 N   0  0  0  0  0  0
  -23.4076  -30.4897   21.5491 C   0  0  2  0  0  0
  -24.8563  -28.9492   20.1213 C   0  0  0  0  0  0
  -22.7429  -29.4655   22.4974 C   0  0  0  0  0  0
  -18.0278  -28.1395   22.8487 C   0  0  0  0  0  0
  -24.1475  -36.7293   23.2636 C   0  0  0  0  0  0
  -25.9370  -30.8281   21.3667 C   0  0  0  0  0  0
  -26.0151  -29.4571   20.7232 C   0  0  0  0  0  0
  -27.2092  -28.6972   20.7218 C   0  0  0  0  0  0
  -26.0642  -26.9285   19.5012 C   0  0  0  0  0  0
  -24.8746  -27.6826   19.5096 C   0  0  0  0  0  0
  -23.6213  -29.8217   20.1644 C   0  0  0  0  0  0
  -25.4096  -36.3107   24.0349 C   0  0  1  0  0  0
  -20.5873  -28.3677   23.1310 C   0  0  2  0  0  0
  -20.6763  -26.9410   22.5423 C   0  0  0  0  0  0
  -19.5742  -26.6391   21.5217 C   0  0  0  0  0  0
  -18.1919  -26.7943   22.1619 C   0  0  0  0  0  0
  -19.1531  -28.8851   23.2902 C   0  0  0  0  0  0
  -18.9460  -30.1450   23.8927 C   0  0  0  0  0  0
  -17.6463  -30.6590   24.0580 C   0  0  0  0  0  0
  -25.9031  -34.9479   23.5143 C   0  0  0  0  0  0
  -16.5354  -29.9105   23.6316 C   0  0  0  0  0  0
  -16.7267  -28.6524   23.0333 C   0  0  0  0  0  0
  -26.4472  -31.6597   25.0739 C   0  0  0  0  0  0
  -25.3745  -31.3700   26.1499 C   0  0  0  0  0  0
  -27.0288  -30.3041   24.6091 C   0  0  0  0  0  0
  -27.6060  -32.4307   25.7494 C   0  0  0  0  0  0
  -27.5582  -37.1785   24.8457 C   0  0  0  0  0  0
  -21.4153  -29.3043   22.3717 N   0  0  0  0  0  0
  -26.4275  -37.3802   23.9433 N   0  0  0  0  0  0
  -24.6718  -31.0771   22.1007 N   0  0  0  0  0  0
  -23.4190  -28.8184   23.3020 O   0  0  0  0  0  0
  -28.3778  -26.6572   20.0516 O   0  0  0  0  0  0
  -26.5573  -34.8928   22.4690 O   0  0  0  0  0  0
  -23.5344  -32.1442   23.7475 O   0  0  0  0  0  0
  -29.1087  -20.1803   18.9465 C   0  0  0  0  0  0
  -29.0635  -21.5848   18.9468 C   0  0  0  0  0  0
  -29.0417  -19.4644   20.1637 C   0  0  0  0  0  0
  -28.9149  -22.2680   20.1600 C   0  0  0  0  0  0
  -28.9117  -20.2413   21.3400 C   0  0  0  0  0  0
  -29.7585  -17.2449   19.0293 C   0  0  0  0  0  0
  -29.0041  -17.9366   20.1438 C   0  0  1  0  0  0
  -30.1382  -16.9365   20.4538 C   0  0  1  0  0  0
  -28.8141  -20.3849   23.7396 C   0  0  0  0  0  0
  -28.6963  -25.8763   21.2159 C   0  0  0  0  0  0
  -28.2374  -24.3903   21.1806 C   0  0  0  0  0  0
  -28.8376  -21.6047   21.3377 N   0  0  0  0  0  0
  -29.8743  -15.5643   20.8284 N   0  0  0  0  0  0
  -28.8416  -19.5924   22.5543 O   0  0  0  0  0  0
  -28.8937  -23.6550   20.1378 O   0  0  0  0  0  0
  -31.4727  -12.4267   19.1381 H   0  0  0  0  0  0
  -30.3345  -11.3126   19.8398 H   0  0  0  0  0  0
  -29.7505  -11.7866   17.4365 H   0  0  0  0  0  0
  -29.6709  -13.4961   17.7783 H   0  0  0  0  0  0
  -27.8301  -11.3100   18.8148 H   0  0  0  0  0  0
  -27.3772  -12.6447   17.7870 H   0  0  0  0  0  0
  -27.6980  -14.2524   19.5662 H   0  0  0  0  0  0
  -28.6777  -11.9809   21.3627 H   0  0  0  0  0  0
  -28.4672  -13.6327   21.8656 H   0  0  0  0  0  0
  -25.2751   -9.5691   22.4759 H   0  0  0  0  0  0
  -23.9989   -7.4636   22.7468 H   0  0  0  0  0  0
  -21.0820   -8.8783   19.8953 H   0  0  0  0  0  0
  -22.3680  -10.9675   19.6162 H   0  0  0  0  0  0
  -21.2035   -7.6146   23.9696 H   0  0  0  0  0  0
  -21.1457   -6.0512   25.9053 H   0  0  0  0  0  0
  -22.0622   -2.7606   23.2833 H   0  0  0  0  0  0
  -22.4095  -11.9908   22.4793 H   0  0  0  0  0  0
  -21.1124  -13.1294   22.2596 H   0  0  0  0  0  0
  -24.6716  -15.8485   20.5022 H   0  0  0  0  0  0
  -26.2870  -15.6172   20.0726 H   0  0  0  0  0  0
  -26.7118  -32.5538   23.1180 H   0  0  0  0  0  0
  -25.0133  -33.9791   25.0549 H   0  0  0  0  0  0
  -22.6971  -31.3068   21.4065 H   0  0  0  0  0  0
  -23.3760  -35.9597   23.3279 H   0  0  0  0  0  0
  -24.3585  -36.8922   22.2056 H   0  0  0  0  0  0
  -23.7196  -37.6481   23.6658 H   0  0  0  0  0  0
  -26.0491  -31.5883   20.5928 H   0  0  0  0  0  0
  -26.8260  -30.8896   21.9827 H   0  0  0  0  0  0
  -28.1089  -29.0889   21.1754 H   0  0  0  0  0  0
  -26.0769  -25.9622   19.0171 H   0  0  0  0  0  0
  -23.9850  -27.2861   19.0409 H   0  0  0  0  0  0
  -23.7420  -30.5978   19.4076 H   0  0  0  0  0  0
  -22.7437  -29.2490   19.8591 H   0  0  0  0  0  0
  -25.1259  -36.1974   25.0837 H   0  0  0  0  0  0
  -20.9968  -28.3249   24.1431 H   0  0  0  0  0  0
  -20.5659  -26.2288   23.3616 H   0  0  0  0  0  0
  -21.6638  -26.7442   22.1226 H   0  0  0  0  0  0
  -19.6899  -25.6302   21.1250 H   0  0  0  0  0  0
  -19.6685  -27.3195   20.6742 H   0  0  0  0  0  0
  -17.4192  -26.6700   21.4014 H   0  0  0  0  0  0
  -18.0300  -26.0090   22.9012 H   0  0  0  0  0  0
  -19.7939  -30.7251   24.2318 H   0  0  0  0  0  0
  -17.5024  -31.6264   24.5195 H   0  0  0  0  0  0
  -15.5358  -30.3018   23.7629 H   0  0  0  0  0  0
  -15.8666  -28.0858   22.7028 H   0  0  0  0  0  0
  -24.5921  -30.7027   25.7866 H   0  0  0  0  0  0
  -24.8924  -32.2847   26.4955 H   0  0  0  0  0  0
  -25.8125  -30.8892   27.0255 H   0  0  0  0  0  0
  -26.2812  -29.6821   24.1151 H   0  0  0  0  0  0
  -27.4077  -29.7257   25.4528 H   0  0  0  0  0  0
  -27.8643  -30.4374   23.9217 H   0  0  0  0  0  0
  -27.2693  -33.3596   26.2111 H   0  0  0  0  0  0
  -28.3843  -32.6887   25.0300 H   0  0  0  0  0  0
  -28.0752  -31.8406   26.5377 H   0  0  0  0  0  0
  -28.2570  -38.0112   24.7569 H   0  0  0  0  0  0
  -28.1105  -36.2652   24.6190 H   0  0  0  0  0  0
  -27.2319  -37.1342   25.8862 H   0  0  0  0  0  0
  -20.9316  -29.8787   21.6958 H   0  0  0  0  0  0
  -26.0161  -38.2865   24.1488 H   0  0  0  0  0  0
  -29.1801  -19.6616   18.0017 H   0  0  0  0  0  0
  -29.1198  -22.1331   18.0169 H   0  0  0  0  0  0
  -30.5118  -17.7880   18.4618 H   0  0  0  0  0  0
  -29.2180  -16.4882   18.4618 H   0  0  0  0  0  0
  -27.9859  -17.6027   20.3364 H   0  0  0  0  0  0
  -31.0657  -17.3705   20.8258 H   0  0  0  0  0  0
  -28.8402  -19.7319   24.6110 H   0  0  0  0  0  0
  -27.9053  -20.9855   23.8007 H   0  0  0  0  0  0
  -29.6812  -21.0448   23.7991 H   0  0  0  0  0  0
  -29.7783  -25.9064   21.3471 H   0  0  0  0  0  0
  -28.2806  -26.3527   22.1058 H   0  0  0  0  0  0
  -27.1567  -24.3216   21.0507 H   0  0  0  0  0  0
  -28.4629  -23.9605   22.1565 H   0  0  0  0  0  0
  -28.9466  -15.3472   21.1593 H   0  0  0  0  0  0
  1 25  1  0  0  0
  1 30  2  0  0  0
  1 83  1  0  0  0
  2  3  1  0  0  0
  2 25  1  0  0  0
  2 86  1  0  0  0
  2 87  1  0  0  0
  3  4  1  0  0  0
  3 88  1  0  0  0
  3 89  1  0  0  0
  4  5  1  0  0  0
  4 90  1  0  0  0
  4 91  1  0  0  0
  5  6  1  0  0  0
  5 26  1  0  0  0
  5 92  1  0  0  0
  6 25  1  0  0  0
  6 93  1  0  0  0
  6 94  1  0  0  0
  7  8  2  0  0  0
  7 26  1  0  0  0
  7 29  1  0  0  0
  8  9  1  0  0  0
  8 22  1  0  0  0
  9 10  1  0  0  0
  9 27  2  0  0  0
 10 11  2  0  0  0
 10 15  1  0  0  0
 11 12  1  0  0  0
 11 95  1  0  0  0
 12 13  2  0  0  0
 12 96  1  0  0  0
 13 14  1  0  0  0
 13 31  1  0  0  0
 14 15  2  0  0  0
 14 97  1  0  0  0
 15 98  1  0  0  0
 16 17  2  0  0  0
 16 21  1  0  0  0
 16 31  1  0  0  0
 17 18  1  0  0  0
 17 99  1  0  0  0
 18 19  2  0  0  0
 18100  1  0  0  0
 19 20  1  0  0  0
 19 24  1  0  0  0
 20 21  2  0  0  0
 20101  1  0  0  0
 21 23  1  0  0  0
 22 28  1  0  0  0
 22 32  2  0  0  0
 26 27  1  0  0  0
 28102  1  0  0  0
 28103  1  0  0  0
 29104  1  0  0  0
 29105  1  0  0  0
 33 34  1  0  0  0
 33 66  1  0  0  0
 33 70  2  0  0  0
 34 36  1  0  0  0
 34 59  1  0  0  0
 34106  1  0  0  0
 35 44  2  0  0  0
 35 45  1  0  0  0
 35 68  1  0  0  0
 36 56  1  0  0  0
 36107  1  0  0  0
 37 39  1  0  0  0
 37 47  1  0  0  0
 37 66  1  0  0  0
 37108  1  0  0  0
 38 43  2  0  0  0
 38 46  1  0  0  0
 38 47  1  0  0  0
 39 64  1  0  0  0
 39 67  2  0  0  0
 40 52  1  0  0  0
 40 53  2  0  0  0
 40 58  1  0  0  0
 41109  1  0  0  0
 41110  1  0  0  0
 41111  1  0  0  0
 41 48  1  0  0  0
 42 43  1  0  0  0
 42 66  1  0  0  0
 42112  1  0  0  0
 42113  1  0  0  0
 43 44  1  0  0  0
 44114  1  0  0  0
 45 46  2  0  0  0
 45115  1  0  0  0
 46116  1  0  0  0
 47117  1  0  0  0
 47118  1  0  0  0
 48 56  1  0  0  0
 48 65  1  0  0  0
 48119  1  0  0  0
 49 50  1  0  0  0
 49 53  1  0  0  0
 49 64  1  0  0  0
 49120  1  0  0  0
 50 51  1  0  0  0
 50121  1  0  0  0
 50122  1  0  0  0
 51 52  1  0  0  0
 51123  1  0  0  0
 51124  1  0  0  0
 52125  1  0  0  0
 52126  1  0  0  0
 53 54  1  0  0  0
 54 55  2  0  0  0
 54127  1  0  0  0
 55 57  1  0  0  0
 55128  1  0  0  0
 56 69  2  0  0  0
 57 58  2  0  0  0
 57129  1  0  0  0
 58130  1  0  0  0
 59 60  1  0  0  0
 59 61  1  0  0  0
 59 62  1  0  0  0
 60131  1  0  0  0
 60132  1  0  0  0
 60133  1  0  0  0
 61134  1  0  0  0
 61135  1  0  0  0
 61136  1  0  0  0
 62137  1  0  0  0
 62138  1  0  0  0
 62139  1  0  0  0
 63 65  1  0  0  0
 63140  1  0  0  0
 63141  1  0  0  0
 63142  1  0  0  0
 64143  1  0  0  0
 65144  1  0  0  0
 68 80  1  0  0  0
 71 72  2  0  0  0
 71 73  1  0  0  0
 71145  1  0  0  0
 72 74  1  0  0  0
 72146  1  0  0  0
 73 75  2  0  0  0
 73 77  1  0  0  0
 74 82  2  0  0  0
 74 85  1  0  0  0
 75 82  1  0  0  0
 75 84  1  0  0  0
 76 77  1  0  0  0
 76 78  1  0  0  0
 76147  1  0  0  0
 76148  1  0  0  0
 77 78  1  0  0  0
 77149  1  0  0  0
 78 83  1  0  0  0
 78150  1  0  0  0
 79 84  1  0  0  0
 79151  1  0  0  0
 79152  1  0  0  0
 79153  1  0  0  0
 80 81  1  0  0  0
 80154  1  0  0  0
 80155  1  0  0  0
 81 85  1  0  0  0
 81156  1  0  0  0
 81157  1  0  0  0
 83158  1  0  0  0
M  ISO  4   1 100  68 101  80 101  83 100
M  END
> <chiral flag>
0

> <version>
0

> <s_m_source_file>
/data/baiqing/PycharmProjects/Reinvent-master-3.2/result/LINK_invent/BTK/process_docking_weight1_custom_sum_contain_oxygen_bond_distance_aromatic_linkinvent_7_9_3/rearranged_h_0150.sdf

> <i_m_source_file_index>
54

> <r_mmod_Potential_Energy-OPLS-2005>
-215.3330078125

> <r_mmod_Stretch_Energy-OPLS-2005>
41.5237312316895

> <r_mmod_Bend_Energy-OPLS-2005>
117.396499633789

> <r_mmod_Torsional_Energy-OPLS-2005>
276.627197265625

> <r_mmod_Improper_Torsional_Energy-OPLS-2005>
7.6895604133606

> <r_mmod_Van_der_Waal_Energy-OPLS-2005>
154.053817749023

> <r_mmod_Electrostatic_Energy-OPLS-2005>
-614.199829101562

> <r_mmod_Solvation_Energy-OPLS-2005>
-214.937103271484

> <b_mmod_Minimization_Converged-OPLS-2005>
0

> <r_mmod_RMS_Derivative-OPLS-2005>
1.97939383983612

$$$$
54
                    3D
 Structure written by MMmdl.
164173  0  0  1  0            999 V2000
  -30.6982  -14.5085   20.4914 C   0  0  0  0  0  0
  -30.4240  -12.3043   19.4269 C   0  0  0  0  0  0
  -29.4981  -12.4662   18.2038 C   0  0  0  0  0  0
  -28.0162  -12.3320   18.6149 C   0  0  0  0  0  0
  -27.6508  -13.1866   19.8583 C   0  0  2  0  0  0
  -28.7030  -13.0388   20.9821 C   0  0  0  0  0  0
  -25.2584  -13.8095   20.5666 C   0  0  0  0  0  0
  -24.1814  -13.0410   20.9171 C   0  0  0  0  0  0
  -24.6351  -11.6871   20.8727 C   0  0  0  0  0  0
  -23.9020  -10.4268   21.0396 C   0  0  0  0  0  0
  -24.3592   -9.4187   21.9167 C   0  0  0  0  0  0
  -23.6283   -8.2215   22.0743 C   0  0  0  0  0  0
  -22.4256   -8.0261   21.3539 C   0  0  0  0  0  0
  -21.9885   -9.0225   20.4645 C   0  0  0  0  0  0
  -22.7204  -10.2102   20.3048 C   0  0  0  0  0  0
  -21.6847   -6.0720   22.5267 C   0  0  0  0  0  0
  -21.4004   -6.5630   23.8196 C   0  0  0  0  0  0
  -21.3654   -5.6789   24.9161 C   0  0  0  0  0  0
  -21.6050   -4.3053   24.7211 C   0  0  0  0  0  0
  -21.8827   -3.8138   23.4334 C   0  0  0  0  0  0
  -21.9189   -4.6949   22.3389 C   0  0  0  0  0  0
  -22.7844  -13.5225   21.1861 C   0  0  0  0  0  0
  -22.1668   -4.2136   21.0969 F   0  0  0  0  0  0
  -21.5635   -3.4553   25.7730 F   0  0  0  0  0  0
  -30.0280  -13.3238   20.4079 N   0  0  0  0  0  0
  -26.2969  -12.9200   20.3316 N   0  0  0  0  0  0
  -25.9262  -11.6396   20.5737 N   0  0  0  0  0  0
  -22.0501  -12.8202   22.0415 N   0  0  0  0  0  0
  -25.4383  -15.1808   20.4082 N   0  0  0  0  0  0
  -31.8840  -14.6282   20.1761 O   0  0  0  0  0  0
  -21.6636   -6.8856   21.4227 O   0  0  0  0  0  0
  -22.3528  -14.5543   20.6736 O   0  0  0  0  0  0
  -24.6180  -31.8676   23.2103 C   0  0  0  0  0  0
  -25.9071  -32.4815   23.8398 C   0  0  1  0  0  0
  -27.2289  -27.4134   20.0974 C   0  0  0  0  0  0
  -25.5925  -33.8615   24.2327 N   0  0  0  0  0  0
  -23.4050  -30.4947   21.5511 C   0  0  2  0  0  0
  -24.8484  -28.9621   20.1136 C   0  0  0  0  0  0
  -22.7433  -29.4672   22.4975 C   0  0  0  0  0  0
  -18.0278  -28.1372   22.8492 C   0  0  0  0  0  0
  -24.1482  -36.7314   23.2637 C   0  0  0  0  0  0
  -25.9380  -30.8260   21.3667 C   0  0  0  0  0  0
  -26.0119  -29.4620   20.7091 C   0  0  0  0  0  0
  -27.2041  -28.6974   20.6941 C   0  0  0  0  0  0
  -26.0381  -26.9352   19.4943 C   0  0  0  0  0  0
  -24.8576  -27.6988   19.5022 C   0  0  0  0  0  0
  -23.6140  -29.8334   20.1640 C   0  0  0  0  0  0
  -25.4103  -36.3110   24.0341 C   0  0  1  0  0  0
  -20.5868  -28.3675   23.1302 C   0  0  2  0  0  0
  -20.6769  -26.9408   22.5412 C   0  0  0  0  0  0
  -19.5745  -26.6376   21.5219 C   0  0  0  0  0  0
  -18.1924  -26.7923   22.1621 C   0  0  0  0  0  0
  -19.1528  -28.8840   23.2894 C   0  0  0  0  0  0
  -18.9453  -30.1444   23.8902 C   0  0  0  0  0  0
  -17.6454  -30.6580   24.0553 C   0  0  0  0  0  0
  -25.9039  -34.9478   23.5131 C   0  0  0  0  0  0
  -16.5347  -29.9085   23.6312 C   0  0  0  0  0  0
  -16.7264  -28.6498   23.0345 C   0  0  0  0  0  0
  -26.4493  -31.6595   25.0732 C   0  0  0  0  0  0
  -25.3758  -31.3702   26.1484 C   0  0  0  0  0  0
  -27.0320  -30.3029   24.6122 C   0  0  0  0  0  0
  -27.6045  -32.4327   25.7506 C   0  0  0  0  0  0
  -27.5581  -37.1812   24.8462 C   0  0  0  0  0  0
  -21.4155  -29.3045   22.3720 N   0  0  0  0  0  0
  -26.4286  -37.3799   23.9416 N   0  0  0  0  0  0
  -24.6721  -31.0775   22.1007 N   0  0  0  0  0  0
  -23.4205  -28.8209   23.3014 O   0  0  0  0  0  0
  -28.3969  -26.6638   20.1300 O   0  0  0  0  0  0
  -26.5597  -34.8930   22.4687 O   0  0  0  0  0  0
  -23.5377  -32.1443   23.7494 O   0  0  0  0  0  0
  -29.5112  -19.8304   21.6773 C   0  0  0  0  0  0
  -29.1901  -21.1980   21.8169 C   0  0  0  0  0  0
  -30.8492  -21.7672   20.1555 C   0  0  0  0  0  0
  -30.4877  -19.3984   20.7469 C   0  0  0  0  0  0
  -31.1885  -20.3984   20.0155 C   0  0  0  0  0  0
  -29.8122  -22.1832   21.0230 C   0  0  0  0  0  0
  -29.9929  -17.4876   19.1571 C   0  0  0  0  0  0
  -29.2860  -16.1724   19.4801 C   0  0  0  0  0  0
  -30.7159  -17.8978   20.4408 C   0  0  2  0  0  0
  -30.2661  -16.8173   21.4646 C   0  0  2  0  0  0
  -32.2984  -20.0325   19.0413 C   0  0  0  0  0  0
  -31.2522  -16.5838   22.6259 C   0  0  0  0  0  0
  -28.2895  -25.2597   19.8167 C   0  0  0  0  0  0
  -29.5679  -24.4200   20.0699 C   0  0  0  0  0  0
  -29.9201  -15.6087   20.6794 N   0  0  0  0  0  0
  -29.3750  -23.4928   21.1541 O   0  0  0  0  0  0
  -31.4693  -12.3966   19.1241 H   0  0  0  0  0  0
  -30.3238  -11.3067   19.8580 H   0  0  0  0  0  0
  -29.7444  -11.7177   17.4490 H   0  0  0  0  0  0
  -29.6706  -13.4321   17.7301 H   0  0  0  0  0  0
  -27.8289  -11.2786   18.8235 H   0  0  0  0  0  0
  -27.3676  -12.5944   17.7779 H   0  0  0  0  0  0
  -27.6509  -14.2126   19.5138 H   0  0  0  0  0  0
  -28.6874  -12.0271   21.3929 H   0  0  0  0  0  0
  -28.4770  -13.7117   21.8112 H   0  0  0  0  0  0
  -25.2738   -9.5685   22.4725 H   0  0  0  0  0  0
  -24.0016   -7.4601   22.7447 H   0  0  0  0  0  0
  -21.0818   -8.8730   19.8946 H   0  0  0  0  0  0
  -22.3660  -10.9634   19.6156 H   0  0  0  0  0  0
  -21.2004   -7.6140   23.9695 H   0  0  0  0  0  0
  -21.1477   -6.0519   25.9065 H   0  0  0  0  0  0
  -22.0621   -2.7604   23.2826 H   0  0  0  0  0  0
  -22.4140  -11.9834   22.4735 H   0  0  0  0  0  0
  -21.1133  -13.1215   22.2695 H   0  0  0  0  0  0
  -24.6868  -15.8523   20.5193 H   0  0  0  0  0  0
  -26.3115  -15.6062   20.1257 H   0  0  0  0  0  0
  -26.7144  -32.5508   23.1158 H   0  0  0  0  0  0
  -25.0104  -33.9779   25.0497 H   0  0  0  0  0  0
  -22.6937  -31.3127   21.4144 H   0  0  0  0  0  0
  -23.3746  -35.9644   23.3300 H   0  0  0  0  0  0
  -24.3582  -36.8931   22.2053 H   0  0  0  0  0  0
  -23.7227  -37.6519   23.6645 H   0  0  0  0  0  0
  -26.0596  -31.5923   20.6003 H   0  0  0  0  0  0
  -26.8237  -30.8721   21.9893 H   0  0  0  0  0  0
  -28.1011  -29.0817   21.1588 H   0  0  0  0  0  0
  -25.9883  -25.9694   19.0139 H   0  0  0  0  0  0
  -23.9610  -27.3093   19.0391 H   0  0  0  0  0  0
  -23.7308  -30.6128   19.4101 H   0  0  0  0  0  0
  -22.7348  -29.2613   19.8619 H   0  0  0  0  0  0
  -25.1273  -36.1973   25.0836 H   0  0  0  0  0  0
  -20.9955  -28.3237   24.1422 H   0  0  0  0  0  0
  -20.5682  -26.2289   23.3607 H   0  0  0  0  0  0
  -21.6633  -26.7457   22.1184 H   0  0  0  0  0  0
  -19.6907  -25.6286   21.1251 H   0  0  0  0  0  0
  -19.6682  -27.3191   20.6753 H   0  0  0  0  0  0
  -17.4201  -26.6676   21.4012 H   0  0  0  0  0  0
  -18.0314  -26.0053   22.9000 H   0  0  0  0  0  0
  -19.7937  -30.7253   24.2262 H   0  0  0  0  0  0
  -17.5019  -31.6260   24.5159 H   0  0  0  0  0  0
  -15.5346  -30.2992   23.7629 H   0  0  0  0  0  0
  -15.8663  -28.0818   22.7055 H   0  0  0  0  0  0
  -24.5917  -30.7070   25.7820 H   0  0  0  0  0  0
  -24.8981  -32.2868   26.4961 H   0  0  0  0  0  0
  -25.8132  -30.8844   27.0223 H   0  0  0  0  0  0
  -26.2872  -29.6795   24.1168 H   0  0  0  0  0  0
  -27.4070  -29.7259   25.4587 H   0  0  0  0  0  0
  -27.8719  -30.4324   23.9290 H   0  0  0  0  0  0
  -27.2630  -33.3604   26.2111 H   0  0  0  0  0  0
  -28.3852  -32.6938   25.0348 H   0  0  0  0  0  0
  -28.0727  -31.8450   26.5415 H   0  0  0  0  0  0
  -28.2586  -38.0120   24.7524 H   0  0  0  0  0  0
  -28.1089  -36.2655   24.6258 H   0  0  0  0  0  0
  -27.2313  -37.1430   25.8869 H   0  0  0  0  0  0
  -20.9331  -29.8777   21.6940 H   0  0  0  0  0  0
  -26.0178  -38.2879   24.1419 H   0  0  0  0  0  0
  -28.9596  -19.1262   22.2791 H   0  0  0  0  0  0
  -28.4235  -21.4910   22.5205 H   0  0  0  0  0  0
  -31.3921  -22.4986   19.5751 H   0  0  0  0  0  0
  -29.2666  -18.2324   18.8293 H   0  0  0  0  0  0
  -30.7060  -17.3569   18.3425 H   0  0  0  0  0  0
  -29.3056  -15.5106   18.6129 H   0  0  0  0  0  0
  -28.2382  -16.3738   19.7051 H   0  0  0  0  0  0
  -31.7830  -17.7389   20.2837 H   0  0  0  0  0  0
  -29.3105  -17.0954   21.9052 H   0  0  0  0  0  0
  -32.7787  -20.9187   18.6273 H   0  0  0  0  0  0
  -31.9080  -19.4498   18.2079 H   0  0  0  0  0  0
  -33.0759  -19.4522   19.5380 H   0  0  0  0  0  0
  -32.2359  -16.2722   22.2716 H   0  0  0  0  0  0
  -30.8849  -15.8216   23.3139 H   0  0  0  0  0  0
  -31.3930  -17.5003   23.1986 H   0  0  0  0  0  0
  -27.4647  -24.8095   20.3729 H   0  0  0  0  0  0
  -28.0412  -25.1657   18.7579 H   0  0  0  0  0  0
  -30.4256  -25.0612   20.2748 H   0  0  0  0  0  0
  -29.7791  -23.8994   19.1356 H   0  0  0  0  0  0
  1 25  1  0  0  0
  1 30  2  0  0  0
  1 85  1  0  0  0
  2  3  1  0  0  0
  2 25  1  0  0  0
  2 87  1  0  0  0
  2 88  1  0  0  0
  3  4  1  0  0  0
  3 89  1  0  0  0
  3 90  1  0  0  0
  4  5  1  0  0  0
  4 91  1  0  0  0
  4 92  1  0  0  0
  5  6  1  0  0  0
  5 26  1  0  0  0
  5 93  1  0  0  0
  6 25  1  0  0  0
  6 94  1  0  0  0
  6 95  1  0  0  0
  7  8  2  0  0  0
  7 26  1  0  0  0
  7 29  1  0  0  0
  8  9  1  0  0  0
  8 22  1  0  0  0
  9 10  1  0  0  0
  9 27  2  0  0  0
 10 11  2  0  0  0
 10 15  1  0  0  0
 11 12  1  0  0  0
 11 96  1  0  0  0
 12 13  2  0  0  0
 12 97  1  0  0  0
 13 14  1  0  0  0
 13 31  1  0  0  0
 14 15  2  0  0  0
 14 98  1  0  0  0
 15 99  1  0  0  0
 16 17  2  0  0  0
 16 21  1  0  0  0
 16 31  1  0  0  0
 17 18  1  0  0  0
 17100  1  0  0  0
 18 19  2  0  0  0
 18101  1  0  0  0
 19 20  1  0  0  0
 19 24  1  0  0  0
 20 21  2  0  0  0
 20102  1  0  0  0
 21 23  1  0  0  0
 22 28  1  0  0  0
 22 32  2  0  0  0
 26 27  1  0  0  0
 28103  1  0  0  0
 28104  1  0  0  0
 29105  1  0  0  0
 29106  1  0  0  0
 33 34  1  0  0  0
 33 66  1  0  0  0
 33 70  2  0  0  0
 34 36  1  0  0  0
 34 59  1  0  0  0
 34107  1  0  0  0
 35 44  2  0  0  0
 35 45  1  0  0  0
 35 68  1  0  0  0
 36 56  1  0  0  0
 36108  1  0  0  0
 37 39  1  0  0  0
 37 47  1  0  0  0
 37 66  1  0  0  0
 37109  1  0  0  0
 38 43  2  0  0  0
 38 46  1  0  0  0
 38 47  1  0  0  0
 39 64  1  0  0  0
 39 67  2  0  0  0
 40 52  1  0  0  0
 40 53  2  0  0  0
 40 58  1  0  0  0
 41110  1  0  0  0
 41111  1  0  0  0
 41112  1  0  0  0
 41 48  1  0  0  0
 42 43  1  0  0  0
 42 66  1  0  0  0
 42113  1  0  0  0
 42114  1  0  0  0
 43 44  1  0  0  0
 44115  1  0  0  0
 45 46  2  0  0  0
 45116  1  0  0  0
 46117  1  0  0  0
 47118  1  0  0  0
 47119  1  0  0  0
 48 56  1  0  0  0
 48 65  1  0  0  0
 48120  1  0  0  0
 49 50  1  0  0  0
 49 53  1  0  0  0
 49 64  1  0  0  0
 49121  1  0  0  0
 50 51  1  0  0  0
 50122  1  0  0  0
 50123  1  0  0  0
 51 52  1  0  0  0
 51124  1  0  0  0
 51125  1  0  0  0
 52126  1  0  0  0
 52127  1  0  0  0
 53 54  1  0  0  0
 54 55  2  0  0  0
 54128  1  0  0  0
 55 57  1  0  0  0
 55129  1  0  0  0
 56 69  2  0  0  0
 57 58  2  0  0  0
 57130  1  0  0  0
 58131  1  0  0  0
 59 60  1  0  0  0
 59 61  1  0  0  0
 59 62  1  0  0  0
 60132  1  0  0  0
 60133  1  0  0  0
 60134  1  0  0  0
 61135  1  0  0  0
 61136  1  0  0  0
 61137  1  0  0  0
 62138  1  0  0  0
 62139  1  0  0  0
 62140  1  0  0  0
 63 65  1  0  0  0
 63141  1  0  0  0
 63142  1  0  0  0
 63143  1  0  0  0
 64144  1  0  0  0
 65145  1  0  0  0
 68 83  1  0  0  0
 71 72  2  0  0  0
 71 74  1  0  0  0
 71146  1  0  0  0
 72 76  1  0  0  0
 72147  1  0  0  0
 73 75  1  0  0  0
 73 76  2  0  0  0
 73148  1  0  0  0
 74 75  2  0  0  0
 74 79  1  0  0  0
 75 81  1  0  0  0
 76 86  1  0  0  0
 77 78  1  0  0  0
 77 79  1  0  0  0
 77149  1  0  0  0
 77150  1  0  0  0
 78 85  1  0  0  0
 78151  1  0  0  0
 78152  1  0  0  0
 79 80  1  0  0  0
 79153  1  0  0  0
 80 82  1  0  0  0
 80 85  1  0  0  0
 80154  1  0  0  0
 81155  1  0  0  0
 81156  1  0  0  0
 81157  1  0  0  0
 82158  1  0  0  0
 82159  1  0  0  0
 82160  1  0  0  0
 83 84  1  0  0  0
 83161  1  0  0  0
 83162  1  0  0  0
 84 86  1  0  0  0
 84163  1  0  0  0
 84164  1  0  0  0
M  ISO  4   1 100  68 101  83 101  85 100
M  END
> <chiral flag>
0

> <version>
0

> <s_m_source_file>
/data/baiqing/PycharmProjects/Reinvent-master-3.2/result/LINK_invent/BTK/process_docking_weight1_custom_sum_contain_oxygen_bond_distance_aromatic_linkinvent_7_9_3/rearranged_h_0150.sdf

> <i_m_source_file_index>
55

> <r_mmod_Potential_Energy-OPLS-2005>
259.406005859375

> <r_mmod_Stretch_Energy-OPLS-2005>
44.5648193359375

> <r_mmod_Bend_Energy-OPLS-2005>
142.967697143555

> <r_mmod_Torsional_Energy-OPLS-2005>
348.622375488281

> <r_mmod_Improper_Torsional_Energy-OPLS-2005>
10.7992544174194

> <r_mmod_Van_der_Waal_Energy-OPLS-2005>
161.637283325195

> <r_mmod_Electrostatic_Energy-OPLS-2005>
-275.803741455078

> <r_mmod_Solvation_Energy-OPLS-2005>
-195.902709960938

> <b_mmod_Minimization_Converged-OPLS-2005>
0

> <r_mmod_RMS_Derivative-OPLS-2005>
2.01792407035828

$$$$
55
                    3D
 Structure written by MMmdl.
171180  0  0  1  0            999 V2000
  -30.6962  -14.5978   20.5216 C   0  0  0  0  0  0
  -30.4101  -12.3815   19.4453 C   0  0  0  0  0  0
  -29.4831  -12.5009   18.2178 C   0  0  0  0  0  0
  -28.0072  -12.3423   18.6348 C   0  0  0  0  0  0
  -27.6433  -13.2014   19.8748 C   0  0  2  0  0  0
  -28.7023  -13.0379   20.9918 C   0  0  0  0  0  0
  -25.2509  -13.8171   20.5737 C   0  0  0  0  0  0
  -24.1794  -13.0465   20.9261 C   0  0  0  0  0  0
  -24.6328  -11.6918   20.8783 C   0  0  0  0  0  0
  -23.9014  -10.4315   21.0415 C   0  0  0  0  0  0
  -24.3590   -9.4243   21.9177 C   0  0  0  0  0  0
  -23.6301   -8.2264   22.0730 C   0  0  0  0  0  0
  -22.4274   -8.0300   21.3541 C   0  0  0  0  0  0
  -21.9901   -9.0252   20.4629 C   0  0  0  0  0  0
  -22.7202  -10.2144   20.3053 C   0  0  0  0  0  0
  -21.6867   -6.0758   22.5296 C   0  0  0  0  0  0
  -21.4018   -6.5657   23.8240 C   0  0  0  0  0  0
  -21.3663   -5.6793   24.9186 C   0  0  0  0  0  0
  -21.6041   -4.3059   24.7213 C   0  0  0  0  0  0
  -21.8838   -3.8156   23.4340 C   0  0  0  0  0  0
  -21.9204   -4.6981   22.3402 C   0  0  0  0  0  0
  -22.7807  -13.5259   21.1912 C   0  0  0  0  0  0
  -22.1687   -4.2187   21.0971 F   0  0  0  0  0  0
  -21.5607   -3.4530   25.7711 F   0  0  0  0  0  0
  -29.9891  -13.4251   20.4054 N   0  0  0  0  0  0
  -26.2927  -12.9314   20.3422 N   0  0  0  0  0  0
  -25.9259  -11.6478   20.5827 N   0  0  0  0  0  0
  -22.0449  -12.8230   22.0437 N   0  0  0  0  0  0
  -25.4160  -15.1893   20.4075 N   0  0  0  0  0  0
  -31.9017  -14.5796   20.2457 O   0  0  0  0  0  0
  -21.6660   -6.8892   21.4256 O   0  0  0  0  0  0
  -22.3513  -14.5575   20.6763 O   0  0  0  0  0  0
  -24.6182  -31.8709   23.2102 C   0  0  0  0  0  0
  -25.9067  -32.4849   23.8411 C   0  0  1  0  0  0
  -27.2117  -27.3928   20.1172 C   0  0  0  0  0  0
  -25.5941  -33.8626   24.2370 N   0  0  0  0  0  0
  -23.4090  -30.4942   21.5492 C   0  0  2  0  0  0
  -24.8441  -28.9549   20.1131 C   0  0  0  0  0  0
  -22.7454  -29.4691   22.4966 C   0  0  0  0  0  0
  -18.0315  -28.1425   22.8510 C   0  0  0  0  0  0
  -24.1466  -36.7259   23.2640 C   0  0  0  0  0  0
  -25.9395  -30.8260   21.3633 C   0  0  0  0  0  0
  -26.0057  -29.4546   20.7142 C   0  0  0  0  0  0
  -27.1897  -28.6794   20.7143 C   0  0  0  0  0  0
  -26.0283  -26.9195   19.5026 C   0  0  0  0  0  0
  -24.8484  -27.6887   19.5068 C   0  0  0  0  0  0
  -23.6134  -29.8319   20.1603 C   0  0  0  0  0  0
  -25.4091  -36.3089   24.0355 C   0  0  1  0  0  0
  -20.5898  -28.3703   23.1315 C   0  0  2  0  0  0
  -20.6783  -26.9428   22.5417 C   0  0  0  0  0  0
  -19.5755  -26.6414   21.5227 C   0  0  0  0  0  0
  -18.1947  -26.7974   22.1648 C   0  0  0  0  0  0
  -19.1557  -28.8882   23.2914 C   0  0  0  0  0  0
  -18.9478  -30.1485   23.8921 C   0  0  0  0  0  0
  -17.6467  -30.6593   24.0578 C   0  0  0  0  0  0
  -25.9030  -34.9475   23.5139 C   0  0  0  0  0  0
  -16.5366  -29.9093   23.6345 C   0  0  0  0  0  0
  -16.7302  -28.6523   23.0349 C   0  0  0  0  0  0
  -26.4476  -31.6638   25.0751 C   0  0  0  0  0  0
  -25.3700  -31.3714   26.1459 C   0  0  0  0  0  0
  -27.0303  -30.3105   24.6104 C   0  0  0  0  0  0
  -27.6109  -32.4320   25.7485 C   0  0  0  0  0  0
  -27.5569  -37.1772   24.8487 C   0  0  0  0  0  0
  -21.4174  -29.3087   22.3718 N   0  0  0  0  0  0
  -26.4273  -37.3782   23.9439 N   0  0  0  0  0  0
  -24.6745  -31.0810   22.0987 N   0  0  0  0  0  0
  -23.4228  -28.8213   23.2986 O   0  0  0  0  0  0
  -28.3845  -26.6528   20.1510 O   0  0  0  0  0  0
  -26.5556  -34.8933   22.4688 O   0  0  0  0  0  0
  -23.5360  -32.1449   23.7513 O   0  0  0  0  0  0
  -28.2739  -20.5338   20.5780 C   0  0  0  0  0  0
  -29.8998  -21.0903   22.2727 C   0  0  0  0  0  0
  -29.2305  -20.0976   21.5259 C   0  0  0  0  0  0
  -28.5630  -22.8994   21.2661 C   0  0  0  0  0  0
  -27.9414  -21.9196   20.4376 C   0  0  0  0  0  0
  -29.5880  -22.4651   22.1468 C   0  0  0  0  0  0
  -28.4527  -17.5418   21.7215 C   0  0  0  0  0  0
  -30.9187  -18.1428   21.1821 C   0  0  0  0  0  0
  -28.6705  -16.2453   20.8688 C   0  0  0  0  0  0
  -30.7676  -17.0510   20.1053 C   0  0  0  0  0  0
  -29.5843  -18.6093   21.7941 C   0  0  0  0  0  0
  -26.6535  -24.5013   21.7991 C   0  0  0  0  0  0
  -26.4689  -21.4527   18.5861 C   0  0  0  0  0  0
  -31.6679  -23.3764   22.7600 C   0  0  0  0  0  0
  -28.3741  -25.2090   19.9851 C   0  0  0  0  0  0
  -28.1065  -24.3931   21.2913 C   0  0  1  0  0  0
  -30.0752  -15.8391   20.6122 N   0  0  0  0  0  0
  -27.0119  -22.3745   19.5240 O   0  0  0  0  0  0
  -30.2540  -23.3870   22.9147 O   0  0  0  0  0  0
  -31.4504  -12.4816   19.1317 H   0  0  0  0  0  0
  -30.3387  -11.3873   19.8899 H   0  0  0  0  0  0
  -29.7410  -11.7535   17.4681 H   0  0  0  0  0  0
  -29.6277  -13.4710   17.7417 H   0  0  0  0  0  0
  -27.8291  -11.2890   18.8444 H   0  0  0  0  0  0
  -27.3484  -12.5917   17.8029 H   0  0  0  0  0  0
  -27.6605  -14.2276   19.5201 H   0  0  0  0  0  0
  -28.7379  -11.9959   21.3115 H   0  0  0  0  0  0
  -28.4801  -13.5826   21.9071 H   0  0  0  0  0  0
  -25.2727   -9.5788   22.4763 H   0  0  0  0  0  0
  -24.0070   -7.4662   22.7427 H   0  0  0  0  0  0
  -21.0864   -8.8748   19.8918 H   0  0  0  0  0  0
  -22.3644  -10.9686   19.6188 H   0  0  0  0  0  0
  -21.2033   -7.6169   23.9764 H   0  0  0  0  0  0
  -21.1459   -6.0499   25.9090 H   0  0  0  0  0  0
  -22.0606   -2.7621   23.2805 H   0  0  0  0  0  0
  -22.4004  -11.9859   22.4831 H   0  0  0  0  0  0
  -21.1070  -13.1250   22.2679 H   0  0  0  0  0  0
  -24.6416  -15.8317   20.5266 H   0  0  0  0  0  0
  -26.2589  -15.6345   20.0722 H   0  0  0  0  0  0
  -26.7153  -32.5508   23.1182 H   0  0  0  0  0  0
  -25.0211  -33.9759   25.0599 H   0  0  0  0  0  0
  -22.7009  -31.3113   21.4155 H   0  0  0  0  0  0
  -23.3749  -35.9567   23.3305 H   0  0  0  0  0  0
  -24.3570  -36.8842   22.2051 H   0  0  0  0  0  0
  -23.7176  -37.6457   23.6630 H   0  0  0  0  0  0
  -26.0474  -31.5872   20.5882 H   0  0  0  0  0  0
  -26.8282  -30.8807   21.9812 H   0  0  0  0  0  0
  -28.0793  -29.0574   21.1991 H   0  0  0  0  0  0
  -25.9834  -25.9581   19.0171 H   0  0  0  0  0  0
  -23.9495  -27.3009   19.0422 H   0  0  0  0  0  0
  -23.7370  -30.6120   19.4081 H   0  0  0  0  0  0
  -22.7333  -29.2626   19.8565 H   0  0  0  0  0  0
  -25.1265  -36.1939   25.0843 H   0  0  0  0  0  0
  -21.0023  -28.3226   24.1412 H   0  0  0  0  0  0
  -20.5736  -26.2281   23.3594 H   0  0  0  0  0  0
  -21.6648  -26.7466   22.1190 H   0  0  0  0  0  0
  -19.6884  -25.6330   21.1254 H   0  0  0  0  0  0
  -19.6685  -27.3227   20.6759 H   0  0  0  0  0  0
  -17.4220  -26.6779   21.4033 H   0  0  0  0  0  0
  -18.0285  -26.0119   22.9043 H   0  0  0  0  0  0
  -19.7946  -30.7310   24.2275 H   0  0  0  0  0  0
  -17.5016  -31.6273   24.5182 H   0  0  0  0  0  0
  -15.5360  -30.2984   23.7633 H   0  0  0  0  0  0
  -15.8732  -28.0825   22.7023 H   0  0  0  0  0  0
  -24.5904  -30.7057   25.7722 H   0  0  0  0  0  0
  -24.8816  -32.2837   26.4908 H   0  0  0  0  0  0
  -25.7973  -30.8856   27.0238 H   0  0  0  0  0  0
  -26.2836  -29.6890   24.1152 H   0  0  0  0  0  0
  -27.4131  -29.7332   25.4527 H   0  0  0  0  0  0
  -27.8640  -30.4500   23.9217 H   0  0  0  0  0  0
  -27.2848  -33.3651   26.2096 H   0  0  0  0  0  0
  -28.3892  -32.6813   25.0256 H   0  0  0  0  0  0
  -28.0831  -31.8416   26.5342 H   0  0  0  0  0  0
  -28.2603  -38.0059   24.7548 H   0  0  0  0  0  0
  -28.1053  -36.2585   24.6298 H   0  0  0  0  0  0
  -27.2302  -37.1442   25.8902 H   0  0  0  0  0  0
  -20.9308  -29.8742   21.6901 H   0  0  0  0  0  0
  -26.0151  -38.2858   24.1448 H   0  0  0  0  0  0
  -27.7825  -19.7796   19.9829 H   0  0  0  0  0  0
  -30.6468  -20.7795   22.9900 H   0  0  0  0  0  0
  -28.2504  -17.2234   22.7457 H   0  0  0  0  0  0
  -27.5155  -18.0038   21.4129 H   0  0  0  0  0  0
  -31.5452  -17.7476   21.9857 H   0  0  0  0  0  0
  -31.4643  -18.9963   20.7780 H   0  0  0  0  0  0
  -28.0814  -15.4842   21.3589 H   0  0  0  0  0  0
  -28.2085  -16.4081   19.8924 H   0  0  0  0  0  0
  -31.7578  -16.8528   19.6952 H   0  0  0  0  0  0
  -30.2031  -17.4494   19.2587 H   0  0  0  0  0  0
  -29.7981  -18.6450   22.8641 H   0  0  0  0  0  0
  -25.9397  -24.0762   21.0946 H   0  0  0  0  0  0
  -26.3627  -25.5331   21.9944 H   0  0  0  0  0  0
  -26.5322  -23.9645   22.7405 H   0  0  0  0  0  0
  -25.8524  -22.0008   17.8729 H   0  0  0  0  0  0
  -25.8418  -20.7066   19.0776 H   0  0  0  0  0  0
  -27.2544  -20.9559   18.0155 H   0  0  0  0  0  0
  -31.9400  -23.4738   21.7070 H   0  0  0  0  0  0
  -32.1214  -22.4650   23.1468 H   0  0  0  0  0  0
  -32.1055  -24.2211   23.2920 H   0  0  0  0  0  0
  -29.3916  -24.9719   19.6730 H   0  0  0  0  0  0
  -27.7513  -24.8750   19.1592 H   0  0  0  0  0  0
  -28.7004  -24.9035   22.0467 H   0  0  0  0  0  0
  1 25  1  0  0  0
  1 30  2  0  0  0
  1 87  1  0  0  0
  2  3  1  0  0  0
  2 25  1  0  0  0
  2 90  1  0  0  0
  2 91  1  0  0  0
  3  4  1  0  0  0
  3 92  1  0  0  0
  3 93  1  0  0  0
  4  5  1  0  0  0
  4 94  1  0  0  0
  4 95  1  0  0  0
  5  6  1  0  0  0
  5 26  1  0  0  0
  5 96  1  0  0  0
  6 25  1  0  0  0
  6 97  1  0  0  0
  6 98  1  0  0  0
  7  8  2  0  0  0
  7 26  1  0  0  0
  7 29  1  0  0  0
  8  9  1  0  0  0
  8 22  1  0  0  0
  9 10  1  0  0  0
  9 27  2  0  0  0
 10 11  2  0  0  0
 10 15  1  0  0  0
 11 12  1  0  0  0
 11 99  1  0  0  0
 12 13  2  0  0  0
 12100  1  0  0  0
 13 14  1  0  0  0
 13 31  1  0  0  0
 14 15  2  0  0  0
 14101  1  0  0  0
 15102  1  0  0  0
 16 17  2  0  0  0
 16 21  1  0  0  0
 16 31  1  0  0  0
 17 18  1  0  0  0
 17103  1  0  0  0
 18 19  2  0  0  0
 18104  1  0  0  0
 19 20  1  0  0  0
 19 24  1  0  0  0
 20 21  2  0  0  0
 20105  1  0  0  0
 21 23  1  0  0  0
 22 28  1  0  0  0
 22 32  2  0  0  0
 26 27  1  0  0  0
 28106  1  0  0  0
 28107  1  0  0  0
 29108  1  0  0  0
 29109  1  0  0  0
 33 34  1  0  0  0
 33 66  1  0  0  0
 33 70  2  0  0  0
 34 36  1  0  0  0
 34 59  1  0  0  0
 34110  1  0  0  0
 35 44  2  0  0  0
 35 45  1  0  0  0
 35 68  1  0  0  0
 36 56  1  0  0  0
 36111  1  0  0  0
 37 39  1  0  0  0
 37 47  1  0  0  0
 37 66  1  0  0  0
 37112  1  0  0  0
 38 43  2  0  0  0
 38 46  1  0  0  0
 38 47  1  0  0  0
 39 64  1  0  0  0
 39 67  2  0  0  0
 40 52  1  0  0  0
 40 53  2  0  0  0
 40 58  1  0  0  0
 41113  1  0  0  0
 41114  1  0  0  0
 41115  1  0  0  0
 41 48  1  0  0  0
 42 43  1  0  0  0
 42 66  1  0  0  0
 42116  1  0  0  0
 42117  1  0  0  0
 43 44  1  0  0  0
 44118  1  0  0  0
 45 46  2  0  0  0
 45119  1  0  0  0
 46120  1  0  0  0
 47121  1  0  0  0
 47122  1  0  0  0
 48 56  1  0  0  0
 48 65  1  0  0  0
 48123  1  0  0  0
 49 50  1  0  0  0
 49 53  1  0  0  0
 49 64  1  0  0  0
 49124  1  0  0  0
 50 51  1  0  0  0
 50125  1  0  0  0
 50126  1  0  0  0
 51 52  1  0  0  0
 51127  1  0  0  0
 51128  1  0  0  0
 52129  1  0  0  0
 52130  1  0  0  0
 53 54  1  0  0  0
 54 55  2  0  0  0
 54131  1  0  0  0
 55 57  1  0  0  0
 55132  1  0  0  0
 56 69  2  0  0  0
 57 58  2  0  0  0
 57133  1  0  0  0
 58134  1  0  0  0
 59 60  1  0  0  0
 59 61  1  0  0  0
 59 62  1  0  0  0
 60135  1  0  0  0
 60136  1  0  0  0
 60137  1  0  0  0
 61138  1  0  0  0
 61139  1  0  0  0
 61140  1  0  0  0
 62141  1  0  0  0
 62142  1  0  0  0
 62143  1  0  0  0
 63 65  1  0  0  0
 63144  1  0  0  0
 63145  1  0  0  0
 63146  1  0  0  0
 64147  1  0  0  0
 65148  1  0  0  0
 68 85  1  0  0  0
 71 73  2  0  0  0
 71 75  1  0  0  0
 71149  1  0  0  0
 72 73  1  0  0  0
 72 76  2  0  0  0
 72150  1  0  0  0
 73 81  1  0  0  0
 74 75  2  0  0  0
 74 76  1  0  0  0
 74 86  1  0  0  0
 75 88  1  0  0  0
 76 89  1  0  0  0
 77 79  1  0  0  0
 77 81  1  0  0  0
 77151  1  0  0  0
 77152  1  0  0  0
 78 80  1  0  0  0
 78 81  1  0  0  0
 78153  1  0  0  0
 78154  1  0  0  0
 79 87  1  0  0  0
 79155  1  0  0  0
 79156  1  0  0  0
 80 87  1  0  0  0
 80157  1  0  0  0
 80158  1  0  0  0
 81159  1  0  0  0
 82160  1  0  0  0
 82161  1  0  0  0
 82162  1  0  0  0
 82 86  1  0  0  0
 83 88  1  0  0  0
 83163  1  0  0  0
 83164  1  0  0  0
 83165  1  0  0  0
 84 89  1  0  0  0
 84166  1  0  0  0
 84167  1  0  0  0
 84168  1  0  0  0
 85 86  1  0  0  0
 85169  1  0  0  0
 85170  1  0  0  0
 86171  1  0  0  0
M  ISO  4   1 100  68 101  85 101  87 100
M  END
> <chiral flag>
0

> <version>
0

> <s_m_source_file>
/data/baiqing/PycharmProjects/Reinvent-master-3.2/result/LINK_invent/BTK/process_docking_weight1_custom_sum_contain_oxygen_bond_distance_aromatic_linkinvent_7_9_3/rearranged_h_0150.sdf

> <i_m_source_file_index>
56

> <r_mmod_Potential_Energy-OPLS-2005>
315.490997314453

> <r_mmod_Stretch_Energy-OPLS-2005>
62.2441024780273

> <r_mmod_Bend_Energy-OPLS-2005>
185.312454223633

> <r_mmod_Torsional_Energy-OPLS-2005>
346.086761474609

> <r_mmod_Improper_Torsional_Energy-OPLS-2005>
8.87247371673584

> <r_mmod_Van_der_Waal_Energy-OPLS-2005>
175.287460327148

> <r_mmod_Electrostatic_Energy-OPLS-2005>
-296.970001220703

> <r_mmod_Solvation_Energy-OPLS-2005>
-200.425979614258

> <b_mmod_Minimization_Converged-OPLS-2005>
0

> <r_mmod_RMS_Derivative-OPLS-2005>
4.47784471511841

$$$$
56
                    3D
 Structure written by MMmdl.
173182  0  0  1  0            999 V2000
  -30.6987  -14.4166   20.6434 C   0  0  0  0  0  0
  -30.4326  -12.2948   19.4065 C   0  0  0  0  0  0
  -29.4954  -12.5233   18.2020 C   0  0  0  0  0  0
  -28.0163  -12.3805   18.6131 C   0  0  0  0  0  0
  -27.6703  -13.1978   19.8854 C   0  0  2  0  0  0
  -28.7057  -12.9169   20.9965 C   0  0  0  0  0  0
  -25.2621  -13.8145   20.5672 C   0  0  0  0  0  0
  -24.1862  -13.0432   20.9161 C   0  0  0  0  0  0
  -24.6402  -11.6896   20.8721 C   0  0  0  0  0  0
  -23.9066  -10.4287   21.0398 C   0  0  0  0  0  0
  -24.3617   -9.4203   21.9180 C   0  0  0  0  0  0
  -23.6291   -8.2241   22.0757 C   0  0  0  0  0  0
  -22.4275   -8.0281   21.3547 C   0  0  0  0  0  0
  -21.9911   -9.0253   20.4645 C   0  0  0  0  0  0
  -22.7240  -10.2130   20.3046 C   0  0  0  0  0  0
  -21.6851   -6.0737   22.5284 C   0  0  0  0  0  0
  -21.4013   -6.5641   23.8219 C   0  0  0  0  0  0
  -21.3657   -5.6795   24.9181 C   0  0  0  0  0  0
  -21.6044   -4.3057   24.7228 C   0  0  0  0  0  0
  -21.8818   -3.8147   23.4352 C   0  0  0  0  0  0
  -21.9192   -4.6966   22.3407 C   0  0  0  0  0  0
  -22.7883  -13.5232   21.1831 C   0  0  0  0  0  0
  -22.1656   -4.2151   21.0985 F   0  0  0  0  0  0
  -21.5629   -3.4539   25.7739 F   0  0  0  0  0  0
  -30.0499  -13.2338   20.4711 N   0  0  0  0  0  0
  -26.3066  -12.9305   20.3395 N   0  0  0  0  0  0
  -25.9326  -11.6468   20.5756 N   0  0  0  0  0  0
  -22.0524  -12.8224   22.0388 N   0  0  0  0  0  0
  -25.4340  -15.1868   20.4093 N   0  0  0  0  0  0
  -31.7499  -14.7071   20.0619 O   0  0  0  0  0  0
  -21.6638   -6.8881   21.4247 O   0  0  0  0  0  0
  -22.3565  -14.5540   20.6681 O   0  0  0  0  0  0
  -24.6132  -31.8682   23.2107 C   0  0  0  0  0  0
  -25.9031  -32.4823   23.8391 C   0  0  1  0  0  0
  -27.2401  -27.4476   20.0696 C   0  0  0  0  0  0
  -25.5896  -33.8622   24.2324 N   0  0  0  0  0  0
  -23.3989  -30.4928   21.5525 C   0  0  2  0  0  0
  -24.8410  -28.9581   20.1177 C   0  0  0  0  0  0
  -22.7390  -29.4664   22.5004 C   0  0  0  0  0  0
  -18.0267  -28.1366   22.8500 C   0  0  0  0  0  0
  -24.1488  -36.7312   23.2641 C   0  0  0  0  0  0
  -25.9264  -30.8360   21.3618 C   0  0  0  0  0  0
  -26.0008  -29.4711   20.7082 C   0  0  0  0  0  0
  -27.1968  -28.7213   20.6835 C   0  0  0  0  0  0
  -26.0463  -26.9351   19.5028 C   0  0  0  0  0  0
  -24.8575  -27.6877   19.5192 C   0  0  0  0  0  0
  -23.6037  -29.8243   20.1673 C   0  0  0  0  0  0
  -25.4110  -36.3113   24.0339 C   0  0  1  0  0  0
  -20.5854  -28.3657   23.1325 C   0  0  2  0  0  0
  -20.6753  -26.9397   22.5420 C   0  0  0  0  0  0
  -19.5732  -26.6384   21.5209 C   0  0  0  0  0  0
  -18.1912  -26.7915   22.1625 C   0  0  0  0  0  0
  -19.1515  -28.8828   23.2908 C   0  0  0  0  0  0
  -18.9442  -30.1436   23.8916 C   0  0  0  0  0  0
  -17.6447  -30.6581   24.0565 C   0  0  0  0  0  0
  -25.9041  -34.9478   23.5131 C   0  0  0  0  0  0
  -16.5341  -29.9084   23.6319 C   0  0  0  0  0  0
  -16.7255  -28.6498   23.0353 C   0  0  0  0  0  0
  -26.4463  -31.6601   25.0716 C   0  0  0  0  0  0
  -25.3736  -31.3685   26.1463 C   0  0  0  0  0  0
  -27.0294  -30.3051   24.6076 C   0  0  0  0  0  0
  -27.6032  -32.4314   25.7491 C   0  0  0  0  0  0
  -27.5580  -37.1819   24.8467 C   0  0  0  0  0  0
  -21.4123  -29.3034   22.3742 N   0  0  0  0  0  0
  -26.4296  -37.3796   23.9405 N   0  0  0  0  0  0
  -24.6646  -31.0795   22.1003 N   0  0  0  0  0  0
  -23.4169  -28.8195   23.3029 O   0  0  0  0  0  0
  -28.4579  -26.7922   20.0596 O   0  0  0  0  0  0
  -26.5599  -34.8927   22.4691 O   0  0  0  0  0  0
  -23.5331  -32.1431   23.7512 O   0  0  0  0  0  0
  -28.4543  -16.9857   21.7701 C   0  0  0  0  0  0
  -30.5171  -17.5424   20.6197 C   0  0  0  0  0  0
  -28.7790  -19.2619   20.9044 C   0  0  0  0  0  0
  -27.9762  -18.2950   21.5678 C   0  0  0  0  0  0
  -29.7161  -16.5918   21.2904 C   0  0  0  0  0  0
  -30.0543  -18.8729   20.4137 C   0  0  0  0  0  0
  -28.2418  -20.6677   20.6862 C   0  0  2  0  0  0
  -29.0457  -21.9627   20.7745 C   0  0  2  0  0  0
  -28.0732  -21.6074   21.8829 C   0  0  0  0  0  0
  -26.5761  -18.6230   22.0664 C   0  0  0  0  0  0
  -28.6789  -21.2863   23.2417 C   0  0  0  0  0  0
  -26.7207  -22.2842   22.0779 C   0  0  0  0  0  0
  -29.9453  -25.7192   18.5685 C   0  0  0  0  0  0
  -32.0523  -19.4578   19.2004 C   0  0  0  0  0  0
  -28.7630  -24.4250   20.4360 C   0  0  0  0  0  0
  -28.6530  -25.5458   19.3770 C   0  0  1  0  0  0
  -30.1011  -15.2404   21.5192 N   0  0  0  0  0  0
  -28.5905  -23.0566   19.8769 N   0  3  0  0  0  0
  -30.7837  -19.8236   19.7306 O   0  0  0  0  0  0
  -31.4747  -12.4135   19.1045 H   0  0  0  0  0  0
  -30.3459  -11.2696   19.7698 H   0  0  0  0  0  0
  -29.7296  -11.8167   17.4047 H   0  0  0  0  0  0
  -29.6657  -13.5188   17.7887 H   0  0  0  0  0  0
  -27.8226  -11.3217   18.7904 H   0  0  0  0  0  0
  -27.3659  -12.6743   17.7884 H   0  0  0  0  0  0
  -27.7331  -14.2546   19.6240 H   0  0  0  0  0  0
  -28.6741  -11.8637   21.2795 H   0  0  0  0  0  0
  -28.4451  -13.4559   21.9068 H   0  0  0  0  0  0
  -25.2769   -9.5674   22.4743 H   0  0  0  0  0  0
  -24.0000   -7.4637   22.7481 H   0  0  0  0  0  0
  -21.0844   -8.8770   19.8948 H   0  0  0  0  0  0
  -22.3708  -10.9666   19.6145 H   0  0  0  0  0  0
  -21.2009   -7.6151   23.9723 H   0  0  0  0  0  0
  -21.1479   -6.0526   25.9085 H   0  0  0  0  0  0
  -22.0602   -2.7608   23.2856 H   0  0  0  0  0  0
  -22.4139  -11.9882   22.4774 H   0  0  0  0  0  0
  -21.1137  -13.1244   22.2581 H   0  0  0  0  0  0
  -24.6629  -15.8379   20.5069 H   0  0  0  0  0  0
  -26.2908  -15.6299   20.1027 H   0  0  0  0  0  0
  -26.7098  -32.5533   23.1151 H   0  0  0  0  0  0
  -25.0059  -33.9783   25.0477 H   0  0  0  0  0  0
  -22.6876  -31.3097   21.4150 H   0  0  0  0  0  0
  -23.3751  -35.9646   23.3313 H   0  0  0  0  0  0
  -24.3586  -36.8914   22.2054 H   0  0  0  0  0  0
  -23.7237  -37.6521   23.6646 H   0  0  0  0  0  0
  -26.0378  -31.6045   20.5956 H   0  0  0  0  0  0
  -26.8148  -30.8865   21.9796 H   0  0  0  0  0  0
  -28.0960  -29.1238   21.1291 H   0  0  0  0  0  0
  -25.9845  -25.9629   19.0412 H   0  0  0  0  0  0
  -23.9602  -27.2813   19.0731 H   0  0  0  0  0  0
  -23.7093  -30.5979   19.4060 H   0  0  0  0  0  0
  -22.7274  -29.2432   19.8750 H   0  0  0  0  0  0
  -25.1288  -36.1986   25.0834 H   0  0  0  0  0  0
  -20.9942  -28.3213   24.1446 H   0  0  0  0  0  0
  -20.5647  -26.2261   23.3601 H   0  0  0  0  0  0
  -21.6626  -26.7434   22.1222 H   0  0  0  0  0  0
  -19.6899  -25.6300   21.1224 H   0  0  0  0  0  0
  -19.6672  -27.3206   20.6750 H   0  0  0  0  0  0
  -17.4183  -26.6667   21.4029 H   0  0  0  0  0  0
  -18.0319  -26.0048   22.9014 H   0  0  0  0  0  0
  -19.7922  -30.7242   24.2302 H   0  0  0  0  0  0
  -17.5006  -31.6264   24.5160 H   0  0  0  0  0  0
  -15.5343  -30.2997   23.7627 H   0  0  0  0  0  0
  -15.8654  -28.0819   22.7067 H   0  0  0  0  0  0
  -24.5911  -30.7033   25.7795 H   0  0  0  0  0  0
  -24.8929  -32.2834   26.4938 H   0  0  0  0  0  0
  -25.8102  -30.8835   27.0203 H   0  0  0  0  0  0
  -26.2837  -29.6821   24.1123 H   0  0  0  0  0  0
  -27.4067  -29.7273   25.4524 H   0  0  0  0  0  0
  -27.8665  -30.4384   23.9219 H   0  0  0  0  0  0
  -27.2650  -33.3603   26.2095 H   0  0  0  0  0  0
  -28.3839  -32.6888   25.0323 H   0  0  0  0  0  0
  -28.0698  -31.8417   26.5394 H   0  0  0  0  0  0
  -28.2604  -38.0112   24.7514 H   0  0  0  0  0  0
  -28.1071  -36.2641   24.6303 H   0  0  0  0  0  0
  -27.2291  -37.1478   25.8870 H   0  0  0  0  0  0
  -20.9269  -29.8780   21.6995 H   0  0  0  0  0  0
  -26.0187  -38.2876   24.1406 H   0  0  0  0  0  0
  -27.8264  -16.2688   22.2834 H   0  0  0  0  0  0
  -31.4874  -17.2320   20.2632 H   0  0  0  0  0  0
  -27.4430  -20.6328   19.9474 H   0  0  0  0  0  0
  -30.1166  -21.9476   20.9714 H   0  0  0  0  0  0
  -25.9794  -17.7177   22.1842 H   0  0  0  0  0  0
  -26.0377  -19.2708   21.3747 H   0  0  0  0  0  0
  -26.6174  -19.1127   23.0379 H   0  0  0  0  0  0
  -29.5950  -20.7047   23.1344 H   0  0  0  0  0  0
  -27.9850  -20.7173   23.8591 H   0  0  0  0  0  0
  -28.9266  -22.2078   23.7695 H   0  0  0  0  0  0
  -26.2328  -22.5042   21.1288 H   0  0  0  0  0  0
  -26.8316  -23.2122   22.6392 H   0  0  0  0  0  0
  -26.0542  -21.6336   22.6444 H   0  0  0  0  0  0
  -30.1989  -24.8175   18.0128 H   0  0  0  0  0  0
  -30.7880  -25.9647   19.2148 H   0  0  0  0  0  0
  -29.8385  -26.5281   17.8452 H   0  0  0  0  0  0
  -32.4935  -20.3172   18.6947 H   0  0  0  0  0  0
  -31.9648  -18.6539   18.4677 H   0  0  0  0  0  0
  -32.7413  -19.1532   19.9893 H   0  0  0  0  0  0
  -27.9994  -24.5836   21.1959 H   0  0  0  0  0  0
  -29.7223  -24.5014   20.9494 H   0  0  0  0  0  0
  -27.8699  -25.3177   18.6590 H   0  0  0  0  0  0
  -29.4475  -14.7346   22.0972 H   0  0  0  0  0  0
  -27.6254  -22.9121   19.6246 H   0  0  0  0  0  0
  -29.1297  -22.9796   19.0284 H   0  0  0  0  0  0
  1 25  1  0  0  0
  1 30  2  0  0  0
  1 87  1  0  0  0
  2  3  1  0  0  0
  2 25  1  0  0  0
  2 90  1  0  0  0
  2 91  1  0  0  0
  3  4  1  0  0  0
  3 92  1  0  0  0
  3 93  1  0  0  0
  4  5  1  0  0  0
  4 94  1  0  0  0
  4 95  1  0  0  0
  5  6  1  0  0  0
  5 26  1  0  0  0
  5 96  1  0  0  0
  6 25  1  0  0  0
  6 97  1  0  0  0
  6 98  1  0  0  0
  7  8  2  0  0  0
  7 26  1  0  0  0
  7 29  1  0  0  0
  8  9  1  0  0  0
  8 22  1  0  0  0
  9 10  1  0  0  0
  9 27  2  0  0  0
 10 11  2  0  0  0
 10 15  1  0  0  0
 11 12  1  0  0  0
 11 99  1  0  0  0
 12 13  2  0  0  0
 12100  1  0  0  0
 13 14  1  0  0  0
 13 31  1  0  0  0
 14 15  2  0  0  0
 14101  1  0  0  0
 15102  1  0  0  0
 16 17  2  0  0  0
 16 21  1  0  0  0
 16 31  1  0  0  0
 17 18  1  0  0  0
 17103  1  0  0  0
 18 19  2  0  0  0
 18104  1  0  0  0
 19 20  1  0  0  0
 19 24  1  0  0  0
 20 21  2  0  0  0
 20105  1  0  0  0
 21 23  1  0  0  0
 22 28  1  0  0  0
 22 32  2  0  0  0
 26 27  1  0  0  0
 28106  1  0  0  0
 28107  1  0  0  0
 29108  1  0  0  0
 29109  1  0  0  0
 33 34  1  0  0  0
 33 66  1  0  0  0
 33 70  2  0  0  0
 34 36  1  0  0  0
 34 59  1  0  0  0
 34110  1  0  0  0
 35 44  2  0  0  0
 35 45  1  0  0  0
 35 68  1  0  0  0
 36 56  1  0  0  0
 36111  1  0  0  0
 37 39  1  0  0  0
 37 47  1  0  0  0
 37 66  1  0  0  0
 37112  1  0  0  0
 38 43  2  0  0  0
 38 46  1  0  0  0
 38 47  1  0  0  0
 39 64  1  0  0  0
 39 67  2  0  0  0
 40 52  1  0  0  0
 40 53  2  0  0  0
 40 58  1  0  0  0
 41113  1  0  0  0
 41114  1  0  0  0
 41115  1  0  0  0
 41 48  1  0  0  0
 42 43  1  0  0  0
 42 66  1  0  0  0
 42116  1  0  0  0
 42117  1  0  0  0
 43 44  1  0  0  0
 44118  1  0  0  0
 45 46  2  0  0  0
 45119  1  0  0  0
 46120  1  0  0  0
 47121  1  0  0  0
 47122  1  0  0  0
 48 56  1  0  0  0
 48 65  1  0  0  0
 48123  1  0  0  0
 49 50  1  0  0  0
 49 53  1  0  0  0
 49 64  1  0  0  0
 49124  1  0  0  0
 50 51  1  0  0  0
 50125  1  0  0  0
 50126  1  0  0  0
 51 52  1  0  0  0
 51127  1  0  0  0
 51128  1  0  0  0
 52129  1  0  0  0
 52130  1  0  0  0
 53 54  1  0  0  0
 54 55  2  0  0  0
 54131  1  0  0  0
 55 57  1  0  0  0
 55132  1  0  0  0
 56 69  2  0  0  0
 57 58  2  0  0  0
 57133  1  0  0  0
 58134  1  0  0  0
 59 60  1  0  0  0
 59 61  1  0  0  0
 59 62  1  0  0  0
 60135  1  0  0  0
 60136  1  0  0  0
 60137  1  0  0  0
 61138  1  0  0  0
 61139  1  0  0  0
 61140  1  0  0  0
 62141  1  0  0  0
 62142  1  0  0  0
 62143  1  0  0  0
 63 65  1  0  0  0
 63144  1  0  0  0
 63145  1  0  0  0
 63146  1  0  0  0
 64147  1  0  0  0
 65148  1  0  0  0
 68 86  1  0  0  0
 71 74  2  0  0  0
 71 75  1  0  0  0
 71149  1  0  0  0
 72 75  2  0  0  0
 72 76  1  0  0  0
 72150  1  0  0  0
 73 74  1  0  0  0
 73 76  2  0  0  0
 73 77  1  0  0  0
 74 80  1  0  0  0
 75 87  1  0  0  0
 76 89  1  0  0  0
 77 78  1  0  0  0
 77 79  1  0  0  0
 77151  1  0  0  0
 78 79  1  0  0  0
 78 88  1  0  0  0
 78152  1  0  0  0
 79 81  1  0  0  0
 79 82  1  0  0  0
 80153  1  0  0  0
 80154  1  0  0  0
 80155  1  0  0  0
 81156  1  0  0  0
 81157  1  0  0  0
 81158  1  0  0  0
 82159  1  0  0  0
 82160  1  0  0  0
 82161  1  0  0  0
 83162  1  0  0  0
 83163  1  0  0  0
 83164  1  0  0  0
 83 86  1  0  0  0
 84 89  1  0  0  0
 84165  1  0  0  0
 84166  1  0  0  0
 84167  1  0  0  0
 85 86  1  0  0  0
 85 88  1  0  0  0
 85168  1  0  0  0
 85169  1  0  0  0
 86170  1  0  0  0
 87171  1  0  0  0
 88172  1  0  0  0
 88173  1  0  0  0
M  CHG  1  88   1
M  ISO  4   1 100  68 101  86 101  87 100
M  END
> <chiral flag>
0

> <version>
0

> <s_m_source_file>
/data/baiqing/PycharmProjects/Reinvent-master-3.2/result/LINK_invent/BTK/process_docking_weight1_custom_sum_contain_oxygen_bond_distance_aromatic_linkinvent_7_9_3/rearranged_h_0150.sdf

> <i_m_source_file_index>
57

> <r_mmod_Potential_Energy-OPLS-2005>
-132.312438964844

> <r_mmod_Stretch_Energy-OPLS-2005>
39.2331428527832

> <r_mmod_Bend_Energy-OPLS-2005>
128.053039550781

> <r_mmod_Torsional_Energy-OPLS-2005>
293.53662109375

> <r_mmod_Improper_Torsional_Energy-OPLS-2005>
5.07474756240845

> <r_mmod_Van_der_Waal_Energy-OPLS-2005>
152.017364501953

> <r_mmod_Electrostatic_Energy-OPLS-2005>
-327.870910644531

> <r_mmod_Solvation_Energy-OPLS-2005>
-431.792938232422

> <b_mmod_Minimization_Converged-OPLS-2005>
0

> <r_mmod_RMS_Derivative-OPLS-2005>
1.06908738613129

$$$$
57
                    3D
 Structure written by MMmdl.
171181  0  0  1  0            999 V2000
  -30.6017  -14.8708   20.4311 C   0  0  0  0  0  0
  -30.4230  -12.5355   19.4929 C   0  0  0  0  0  0
  -29.5116  -12.5189   18.2466 C   0  0  0  0  0  0
  -28.0420  -12.3250   18.6627 C   0  0  0  0  0  0
  -27.6282  -13.2506   19.8382 C   0  0  2  0  0  0
  -28.6715  -13.2676   20.9752 C   0  0  0  0  0  0
  -25.2468  -13.8237   20.5738 C   0  0  0  0  0  0
  -24.1771  -13.0451   20.9217 C   0  0  0  0  0  0
  -24.6391  -11.6940   20.8757 C   0  0  0  0  0  0
  -23.9082  -10.4299   21.0415 C   0  0  0  0  0  0
  -24.3634   -9.4213   21.9185 C   0  0  0  0  0  0
  -23.6307   -8.2252   22.0758 C   0  0  0  0  0  0
  -22.4290   -8.0284   21.3550 C   0  0  0  0  0  0
  -21.9924   -9.0258   20.4651 C   0  0  0  0  0  0
  -22.7256  -10.2137   20.3061 C   0  0  0  0  0  0
  -21.6857   -6.0745   22.5285 C   0  0  0  0  0  0
  -21.4016   -6.5649   23.8217 C   0  0  0  0  0  0
  -21.3659   -5.6800   24.9181 C   0  0  0  0  0  0
  -21.6045   -4.3060   24.7237 C   0  0  0  0  0  0
  -21.8817   -3.8154   23.4351 C   0  0  0  0  0  0
  -21.9194   -4.6971   22.3406 C   0  0  0  0  0  0
  -22.7791  -13.5211   21.1869 C   0  0  0  0  0  0
  -22.1655   -4.2161   21.0981 F   0  0  0  0  0  0
  -21.5632   -3.4539   25.7744 F   0  0  0  0  0  0
  -29.9536  -13.6433   20.3710 N   0  0  0  0  0  0
  -26.2880  -12.9476   20.3257 N   0  0  0  0  0  0
  -25.9327  -11.6598   20.5741 N   0  0  0  0  0  0
  -22.0441  -12.8191   22.0426 N   0  0  0  0  0  0
  -25.4173  -15.1969   20.4218 N   0  0  0  0  0  0
  -31.8057  -14.8843   20.1482 O   0  0  0  0  0  0
  -21.6646   -6.8890   21.4247 O   0  0  0  0  0  0
  -22.3457  -14.5502   20.6711 O   0  0  0  0  0  0
  -24.6398  -31.8489   23.1931 C   0  0  0  0  0  0
  -25.9199  -32.4713   23.8301 C   0  0  1  0  0  0
  -27.1982  -27.1735   20.1418 C   0  0  0  0  0  0
  -25.5971  -33.8517   24.2228 N   0  0  0  0  0  0
  -23.4386  -30.4717   21.5388 C   0  0  2  0  0  0
  -24.8837  -28.9094   20.1067 C   0  0  0  0  0  0
  -22.7540  -29.4576   22.4885 C   0  0  0  0  0  0
  -18.0298  -28.1383   22.8480 C   0  0  0  0  0  0
  -24.1498  -36.7253   23.2635 C   0  0  0  0  0  0
  -25.9931  -30.7332   21.3878 C   0  0  0  0  0  0
  -26.0602  -29.3500   20.7258 C   0  0  0  0  0  0
  -27.2206  -28.4957   20.7307 C   0  0  0  0  0  0
  -26.0015  -26.8324   19.4745 C   0  0  0  0  0  0
  -24.8650  -27.6630   19.4666 C   0  0  0  0  0  0
  -23.6598  -29.8065   20.1554 C   0  0  0  0  0  0
  -25.4126  -36.3039   24.0322 C   0  0  1  0  0  0
  -20.5910  -28.3708   23.1244 C   0  0  2  0  0  0
  -20.6786  -26.9421   22.5397 C   0  0  0  0  0  0
  -19.5760  -26.6374   21.5206 C   0  0  0  0  0  0
  -18.1941  -26.7924   22.1619 C   0  0  0  0  0  0
  -19.1555  -28.8866   23.2851 C   0  0  0  0  0  0
  -18.9472  -30.1465   23.8868 C   0  0  0  0  0  0
  -17.6470  -30.6588   24.0550 C   0  0  0  0  0  0
  -25.9075  -34.9414   23.5073 C   0  0  0  0  0  0
  -16.5362  -29.9078   23.6336 C   0  0  0  0  0  0
  -16.7285  -28.6494   23.0364 C   0  0  0  0  0  0
  -26.4530  -31.6553   25.0720 C   0  0  0  0  0  0
  -25.3732  -31.3743   26.1428 C   0  0  0  0  0  0
  -27.0383  -30.2952   24.6282 C   0  0  0  0  0  0
  -27.6081  -32.4298   25.7497 C   0  0  0  0  0  0
  -27.5591  -37.1776   24.8455 C   0  0  0  0  0  0
  -21.4241  -29.3045   22.3632 N   0  0  0  0  0  0
  -26.4290  -37.3756   23.9421 N   0  0  0  0  0  0
  -24.7101  -31.0384   22.0943 N   0  0  0  0  0  0
  -23.4211  -28.8115   23.3007 O   0  0  0  0  0  0
  -28.2381  -26.1936   20.2359 O   0  0  0  0  0  0
  -26.5649  -34.8905   22.4645 O   0  0  0  0  0  0
  -23.5533  -32.1346   23.7187 O   0  0  0  0  0  0
  -28.7975  -22.0419   20.3141 C   0  0  0  0  0  0
  -29.8516  -23.9071   21.4775 C   0  0  0  0  0  0
  -29.6853  -21.0310   20.9270 C   0  0  0  0  0  0
  -28.8633  -23.4994   20.5817 C   0  0  0  0  0  0
  -30.6475  -21.5987   21.8322 C   0  0  0  0  0  0
  -30.7537  -22.9984   22.0713 C   0  0  0  0  0  0
  -34.2877  -24.1187   24.1461 C   0  0  0  0  0  0
  -34.4534  -25.1093   23.0232 C   0  0  0  0  0  0
  -29.2388  -18.3889   21.7627 C   0  0  0  0  0  0
  -29.4493  -18.6073   19.3980 C   0  0  0  0  0  0
  -29.8768  -16.9141   21.7494 C   0  0  0  0  0  0
  -30.0381  -17.0975   19.3328 C   0  0  0  0  0  0
  -29.7971  -19.3957   20.6967 C   0  0  0  0  0  0
  -33.2044  -25.1443   23.8773 C   0  0  0  0  0  0
  -31.6574  -20.7343   22.5947 C   0  0  0  0  0  0
  -27.9243  -24.6972   20.0245 C   0  0  0  0  0  0
  -31.8728  -24.8092   23.2351 C   0  0  0  0  0  0
  -29.8932  -16.1072   20.4800 N   0  0  0  0  0  0
  -31.7880  -23.4289   22.8834 O   0  0  0  0  0  0
  -31.4632  -12.6572   19.1862 H   0  0  0  0  0  0
  -30.3780  -11.5810   20.0198 H   0  0  0  0  0  0
  -29.8145  -11.7267   17.5614 H   0  0  0  0  0  0
  -29.6189  -13.4572   17.6988 H   0  0  0  0  0  0
  -27.9188  -11.2811   18.9538 H   0  0  0  0  0  0
  -27.3836  -12.4814   17.8074 H   0  0  0  0  0  0
  -27.5954  -14.2566   19.4193 H   0  0  0  0  0  0
  -28.7358  -12.2939   21.4634 H   0  0  0  0  0  0
  -28.3874  -13.9874   21.7445 H   0  0  0  0  0  0
  -25.2784   -9.5685   22.4754 H   0  0  0  0  0  0
  -24.0023   -7.4639   22.7478 H   0  0  0  0  0  0
  -21.0856   -8.8779   19.8946 H   0  0  0  0  0  0
  -22.3719  -10.9679   19.6169 H   0  0  0  0  0  0
  -21.2001   -7.6155   23.9726 H   0  0  0  0  0  0
  -21.1480   -6.0530   25.9084 H   0  0  0  0  0  0
  -22.0593   -2.7618   23.2856 H   0  0  0  0  0  0
  -22.4072  -11.9873   22.4835 H   0  0  0  0  0  0
  -21.1058  -13.1221   22.2627 H   0  0  0  0  0  0
  -24.6609  -15.8590   20.5543 H   0  0  0  0  0  0
  -26.2867  -15.6377   20.1476 H   0  0  0  0  0  0
  -26.7258  -32.5331   23.1026 H   0  0  0  0  0  0
  -25.0125  -33.9635   25.0378 H   0  0  0  0  0  0
  -22.7373  -31.2963   21.3909 H   0  0  0  0  0  0
  -23.3777  -35.9563   23.3257 H   0  0  0  0  0  0
  -24.3586  -36.8921   22.2054 H   0  0  0  0  0  0
  -23.7235  -37.6433   23.6687 H   0  0  0  0  0  0
  -26.1494  -31.4921   20.6199 H   0  0  0  0  0  0
  -26.8637  -30.7764   22.0305 H   0  0  0  0  0  0
  -28.1141  -28.8205   21.2446 H   0  0  0  0  0  0
  -25.9029  -25.8816   18.9725 H   0  0  0  0  0  0
  -23.9661  -27.3224   18.9710 H   0  0  0  0  0  0
  -23.7910  -30.5831   19.4009 H   0  0  0  0  0  0
  -22.7746  -29.2469   19.8473 H   0  0  0  0  0  0
  -25.1309  -36.1867   25.0814 H   0  0  0  0  0  0
  -20.9992  -28.3295   24.1367 H   0  0  0  0  0  0
  -20.5690  -26.2320   23.3608 H   0  0  0  0  0  0
  -21.6653  -26.7434   22.1193 H   0  0  0  0  0  0
  -19.6920  -25.6276   21.1252 H   0  0  0  0  0  0
  -19.6697  -27.3168   20.6722 H   0  0  0  0  0  0
  -17.4209  -26.6669   21.4022 H   0  0  0  0  0  0
  -18.0341  -26.0068   22.9017 H   0  0  0  0  0  0
  -19.7948  -30.7290   24.2225 H   0  0  0  0  0  0
  -17.5023  -31.6269   24.5149 H   0  0  0  0  0  0
  -15.5362  -30.2972   23.7671 H   0  0  0  0  0  0
  -15.8684  -28.0802   22.7100 H   0  0  0  0  0  0
  -24.5864  -30.7155   25.7733 H   0  0  0  0  0  0
  -24.8979  -32.2931   26.4867 H   0  0  0  0  0  0
  -25.8006  -30.8871   27.0199 H   0  0  0  0  0  0
  -26.2986  -29.6681   24.1292 H   0  0  0  0  0  0
  -27.4001  -29.7248   25.4845 H   0  0  0  0  0  0
  -27.8896  -30.4184   23.9588 H   0  0  0  0  0  0
  -27.2692  -33.3609   26.2056 H   0  0  0  0  0  0
  -28.3900  -32.6845   25.0328 H   0  0  0  0  0  0
  -28.0740  -31.8434   26.5428 H   0  0  0  0  0  0
  -28.2563  -38.0119   24.7565 H   0  0  0  0  0  0
  -28.1142  -36.2653   24.6201 H   0  0  0  0  0  0
  -27.2316  -37.1319   25.8857 H   0  0  0  0  0  0
  -20.9442  -29.8774   21.6828 H   0  0  0  0  0  0
  -26.0157  -38.2820   24.1450 H   0  0  0  0  0  0
  -28.0447  -21.6941   19.6206 H   0  0  0  0  0  0
  -29.8894  -24.9635   21.6895 H   0  0  0  0  0  0
  -34.9019  -24.2594   25.0333 H   0  0  0  0  0  0
  -34.1068  -23.0818   23.8692 H   0  0  0  0  0  0
  -34.3571  -24.7378   22.0041 H   0  0  0  0  0  0
  -35.1680  -25.9197   23.1552 H   0  0  0  0  0  0
  -29.3675  -18.8048   22.7610 H   0  0  0  0  0  0
  -28.1566  -18.3124   21.6434 H   0  0  0  0  0  0
  -28.3678  -18.5889   19.2613 H   0  0  0  0  0  0
  -29.8393  -19.1602   18.5412 H   0  0  0  0  0  0
  -29.3796  -16.3172   22.5147 H   0  0  0  0  0  0
  -30.9129  -17.0041   22.0817 H   0  0  0  0  0  0
  -31.1063  -17.1904   19.1285 H   0  0  0  0  0  0
  -29.6258  -16.6179   18.4440 H   0  0  0  0  0  0
  -30.8772  -19.2588   20.7011 H   0  0  0  0  0  0
  -33.1471  -25.9887   24.5625 H   0  0  0  0  0  0
  -31.3452  -19.7112   22.7749 H   0  0  0  0  0  0
  -31.8441  -21.1379   23.5901 H   0  0  0  0  0  0
  -32.6082  -20.7117   22.0623 H   0  0  0  0  0  0
  -26.9493  -24.5027   20.4738 H   0  0  0  0  0  0
  -27.8022  -24.5322   18.9539 H   0  0  0  0  0  0
  -31.7864  -25.4631   22.3672 H   0  0  0  0  0  0
  -31.0671  -25.0518   23.9301 H   0  0  0  0  0  0
  1 25  1  0  0  0
  1 30  2  0  0  0
  1 88  1  0  0  0
  2  3  1  0  0  0
  2 25  1  0  0  0
  2 90  1  0  0  0
  2 91  1  0  0  0
  3  4  1  0  0  0
  3 92  1  0  0  0
  3 93  1  0  0  0
  4  5  1  0  0  0
  4 94  1  0  0  0
  4 95  1  0  0  0
  5  6  1  0  0  0
  5 26  1  0  0  0
  5 96  1  0  0  0
  6 25  1  0  0  0
  6 97  1  0  0  0
  6 98  1  0  0  0
  7  8  2  0  0  0
  7 26  1  0  0  0
  7 29  1  0  0  0
  8  9  1  0  0  0
  8 22  1  0  0  0
  9 10  1  0  0  0
  9 27  2  0  0  0
 10 11  2  0  0  0
 10 15  1  0  0  0
 11 12  1  0  0  0
 11 99  1  0  0  0
 12 13  2  0  0  0
 12100  1  0  0  0
 13 14  1  0  0  0
 13 31  1  0  0  0
 14 15  2  0  0  0
 14101  1  0  0  0
 15102  1  0  0  0
 16 17  2  0  0  0
 16 21  1  0  0  0
 16 31  1  0  0  0
 17 18  1  0  0  0
 17103  1  0  0  0
 18 19  2  0  0  0
 18104  1  0  0  0
 19 20  1  0  0  0
 19 24  1  0  0  0
 20 21  2  0  0  0
 20105  1  0  0  0
 21 23  1  0  0  0
 22 28  1  0  0  0
 22 32  2  0  0  0
 26 27  1  0  0  0
 28106  1  0  0  0
 28107  1  0  0  0
 29108  1  0  0  0
 29109  1  0  0  0
 33 34  1  0  0  0
 33 66  1  0  0  0
 33 70  2  0  0  0
 34 36  1  0  0  0
 34 59  1  0  0  0
 34110  1  0  0  0
 35 44  2  0  0  0
 35 45  1  0  0  0
 35 68  1  0  0  0
 36 56  1  0  0  0
 36111  1  0  0  0
 37 39  1  0  0  0
 37 47  1  0  0  0
 37 66  1  0  0  0
 37112  1  0  0  0
 38 43  2  0  0  0
 38 46  1  0  0  0
 38 47  1  0  0  0
 39 64  1  0  0  0
 39 67  2  0  0  0
 40 52  1  0  0  0
 40 53  2  0  0  0
 40 58  1  0  0  0
 41113  1  0  0  0
 41114  1  0  0  0
 41115  1  0  0  0
 41 48  1  0  0  0
 42 43  1  0  0  0
 42 66  1  0  0  0
 42116  1  0  0  0
 42117  1  0  0  0
 43 44  1  0  0  0
 44118  1  0  0  0
 45 46  2  0  0  0
 45119  1  0  0  0
 46120  1  0  0  0
 47121  1  0  0  0
 47122  1  0  0  0
 48 56  1  0  0  0
 48 65  1  0  0  0
 48123  1  0  0  0
 49 50  1  0  0  0
 49 53  1  0  0  0
 49 64  1  0  0  0
 49124  1  0  0  0
 50 51  1  0  0  0
 50125  1  0  0  0
 50126  1  0  0  0
 51 52  1  0  0  0
 51127  1  0  0  0
 51128  1  0  0  0
 52129  1  0  0  0
 52130  1  0  0  0
 53 54  1  0  0  0
 54 55  2  0  0  0
 54131  1  0  0  0
 55 57  1  0  0  0
 55132  1  0  0  0
 56 69  2  0  0  0
 57 58  2  0  0  0
 57133  1  0  0  0
 58134  1  0  0  0
 59 60  1  0  0  0
 59 61  1  0  0  0
 59 62  1  0  0  0
 60135  1  0  0  0
 60136  1  0  0  0
 60137  1  0  0  0
 61138  1  0  0  0
 61139  1  0  0  0
 61140  1  0  0  0
 62141  1  0  0  0
 62142  1  0  0  0
 62143  1  0  0  0
 63 65  1  0  0  0
 63144  1  0  0  0
 63145  1  0  0  0
 63146  1  0  0  0
 64147  1  0  0  0
 65148  1  0  0  0
 68 86  1  0  0  0
 71 73  2  0  0  0
 71 74  1  0  0  0
 71149  1  0  0  0
 72 74  2  0  0  0
 72 76  1  0  0  0
 72150  1  0  0  0
 73 75  1  0  0  0
 73 83  1  0  0  0
 74 86  1  0  0  0
 75 76  2  0  0  0
 75 85  1  0  0  0
 76 89  1  0  0  0
 77 78  1  0  0  0
 77 84  1  0  0  0
 77151  1  0  0  0
 77152  1  0  0  0
 78 84  1  0  0  0
 78153  1  0  0  0
 78154  1  0  0  0
 79 81  1  0  0  0
 79 83  1  0  0  0
 79155  1  0  0  0
 79156  1  0  0  0
 80 82  1  0  0  0
 80 83  1  0  0  0
 80157  1  0  0  0
 80158  1  0  0  0
 81 88  1  0  0  0
 81159  1  0  0  0
 81160  1  0  0  0
 82 88  1  0  0  0
 82161  1  0  0  0
 82162  1  0  0  0
 83163  1  0  0  0
 84 87  1  0  0  0
 84164  1  0  0  0
 85165  1  0  0  0
 85166  1  0  0  0
 85167  1  0  0  0
 86168  1  0  0  0
 86169  1  0  0  0
 87 89  1  0  0  0
 87170  1  0  0  0
 87171  1  0  0  0
M  ISO  4   1 100  68 101  86 101  88 100
M  END
> <chiral flag>
0

> <version>
0

> <s_m_source_file>
/data/baiqing/PycharmProjects/Reinvent-master-3.2/result/LINK_invent/BTK/process_docking_weight1_custom_sum_contain_oxygen_bond_distance_aromatic_linkinvent_7_9_3/rearranged_h_0150.sdf

> <i_m_source_file_index>
58

> <r_mmod_Potential_Energy-OPLS-2005>
663.742614746094

> <r_mmod_Stretch_Energy-OPLS-2005>
202.032669067383

> <r_mmod_Bend_Energy-OPLS-2005>
266.378509521484

> <r_mmod_Torsional_Energy-OPLS-2005>
369.742218017578

> <r_mmod_Improper_Torsional_Energy-OPLS-2005>
12.2302618026733

> <r_mmod_Van_der_Waal_Energy-OPLS-2005>
155.456420898438

> <r_mmod_Electrostatic_Energy-OPLS-2005>
-302.795989990234

> <r_mmod_Solvation_Energy-OPLS-2005>
-193.899169921875

> <b_mmod_Minimization_Converged-OPLS-2005>
0

> <r_mmod_RMS_Derivative-OPLS-2005>
1.81352198123932

$$$$
58
                    3D
 Structure written by MMmdl.
177187  0  0  1  0            999 V2000
  -30.6592  -14.5335   20.5120 C   0  0  0  0  0  0
  -30.4218  -12.3281   19.4389 C   0  0  0  0  0  0
  -29.4968  -12.4876   18.2147 C   0  0  0  0  0  0
  -28.0160  -12.3474   18.6215 C   0  0  0  0  0  0
  -27.6510  -13.2023   19.8652 C   0  0  2  0  0  0
  -28.6942  -13.0220   20.9920 C   0  0  0  0  0  0
  -25.2572  -13.8163   20.5698 C   0  0  0  0  0  0
  -24.1814  -13.0439   20.9184 C   0  0  0  0  0  0
  -24.6372  -11.6899   20.8736 C   0  0  0  0  0  0
  -23.9038  -10.4302   21.0426 C   0  0  0  0  0  0
  -24.3601   -9.4221   21.9194 C   0  0  0  0  0  0
  -23.6291   -8.2238   22.0745 C   0  0  0  0  0  0
  -22.4280   -8.0278   21.3535 C   0  0  0  0  0  0
  -21.9915   -9.0256   20.4639 C   0  0  0  0  0  0
  -22.7217  -10.2137   20.3065 C   0  0  0  0  0  0
  -21.6851   -6.0733   22.5289 C   0  0  0  0  0  0
  -21.4018   -6.5636   23.8224 C   0  0  0  0  0  0
  -21.3656   -5.6784   24.9184 C   0  0  0  0  0  0
  -21.6049   -4.3041   24.7232 C   0  0  0  0  0  0
  -21.8810   -3.8143   23.4345 C   0  0  0  0  0  0
  -21.9193   -4.6967   22.3409 C   0  0  0  0  0  0
  -22.7845  -13.5242   21.1844 C   0  0  0  0  0  0
  -22.1659   -4.2157   21.0981 F   0  0  0  0  0  0
  -21.5625   -3.4520   25.7736 F   0  0  0  0  0  0
  -30.0139  -13.3358   20.4313 N   0  0  0  0  0  0
  -26.2967  -12.9299   20.3320 N   0  0  0  0  0  0
  -25.9279  -11.6455   20.5747 N   0  0  0  0  0  0
  -22.0472  -12.8263   22.0407 N   0  0  0  0  0  0
  -25.4366  -15.1887   20.4142 N   0  0  0  0  0  0
  -31.8352  -14.6608   20.1567 O   0  0  0  0  0  0
  -21.6636   -6.8870   21.4240 O   0  0  0  0  0  0
  -22.3558  -14.5551   20.6685 O   0  0  0  0  0  0
  -24.6185  -31.8653   23.2081 C   0  0  0  0  0  0
  -25.9074  -32.4779   23.8406 C   0  0  1  0  0  0
  -27.2188  -27.4131   20.1001 C   0  0  0  0  0  0
  -25.5931  -33.8583   24.2338 N   0  0  0  0  0  0
  -23.4060  -30.4925   21.5475 C   0  0  2  0  0  0
  -24.8506  -28.9535   20.1130 C   0  0  0  0  0  0
  -22.7428  -29.4660   22.4943 C   0  0  0  0  0  0
  -18.0286  -28.1396   22.8489 C   0  0  0  0  0  0
  -24.1473  -36.7322   23.2637 C   0  0  0  0  0  0
  -25.9383  -30.8250   21.3636 C   0  0  0  0  0  0
  -26.0117  -29.4580   20.7135 C   0  0  0  0  0  0
  -27.2013  -28.6956   20.7082 C   0  0  0  0  0  0
  -26.0500  -26.9343   19.4805 C   0  0  0  0  0  0
  -24.8642  -27.6921   19.4946 C   0  0  0  0  0  0
  -23.6150  -29.8258   20.1624 C   0  0  0  0  0  0
  -25.4090  -36.3093   24.0332 C   0  0  1  0  0  0
  -20.5880  -28.3683   23.1292 C   0  0  2  0  0  0
  -20.6772  -26.9409   22.5414 C   0  0  0  0  0  0
  -19.5747  -26.6392   21.5211 C   0  0  0  0  0  0
  -18.1931  -26.7942   22.1622 C   0  0  0  0  0  0
  -19.1536  -28.8852   23.2899 C   0  0  0  0  0  0
  -18.9469  -30.1447   23.8919 C   0  0  0  0  0  0
  -17.6468  -30.6592   24.0575 C   0  0  0  0  0  0
  -25.9008  -34.9443   23.5119 C   0  0  0  0  0  0
  -16.5357  -29.9101   23.6335 C   0  0  0  0  0  0
  -16.7283  -28.6518   23.0352 C   0  0  0  0  0  0
  -26.4466  -31.6537   25.0738 C   0  0  0  0  0  0
  -25.3695  -31.3617   26.1450 C   0  0  0  0  0  0
  -27.0316  -30.2975   24.6124 C   0  0  0  0  0  0
  -27.6031  -32.4259   25.7529 C   0  0  0  0  0  0
  -27.5564  -37.1821   24.8461 C   0  0  0  0  0  0
  -21.4152  -29.3053   22.3690 N   0  0  0  0  0  0
  -26.4271  -37.3776   23.9405 N   0  0  0  0  0  0
  -24.6734  -31.0745   22.0979 N   0  0  0  0  0  0
  -23.4191  -28.8176   23.2970 O   0  0  0  0  0  0
  -28.3229  -26.5913   20.0943 O   0  0  0  0  0  0
  -26.5533  -34.8907   22.4658 O   0  0  0  0  0  0
  -23.5372  -32.1413   23.7457 O   0  0  0  0  0  0
  -26.9629  -23.1912   21.2776 C   0  0  0  0  0  0
  -29.2124  -22.2989   21.0368 C   0  0  0  0  0  0
  -27.3041  -20.8050   20.8380 C   0  0  0  0  0  0
  -28.3545  -23.4081   21.3001 C   0  0  0  0  0  0
  -26.4426  -21.8973   21.0732 C   0  0  0  0  0  0
  -28.7096  -20.9829   20.8129 C   0  0  0  0  0  0
  -30.1368  -17.8941   19.4173 C   0  0  0  0  0  0
  -29.3987  -17.7714   21.7818 C   0  0  0  0  0  0
  -30.3103  -26.3029   21.4728 C   0  0  0  0  0  0
  -29.7359  -16.4143   19.2221 C   0  0  0  0  0  0
  -29.1601  -16.2339   21.6293 C   0  0  0  0  0  0
  -28.8663  -24.7491   21.8835 C   0  0  1  0  0  0
  -30.3384  -24.9936   22.2799 C   0  0  2  0  0  0
  -29.2410  -18.5693   20.4691 C   0  0  0  0  0  0
  -28.7876  -26.2300   21.3977 C   0  0  2  0  0  0
  -24.9491  -21.6689   21.1973 C   0  0  0  0  0  0
  -30.3284  -23.7041   24.4665 C   0  0  0  0  0  0
  -32.1303  -25.4315   24.0346 C   0  0  0  0  0  0
  -30.6705  -25.0367   23.7762 C   0  0  0  0  0  0
  -29.8365  -15.6229   20.4637 N   0  0  0  0  0  0
  -29.6335  -19.9560   20.6189 O   0  0  0  0  0  0
  -31.4633  -12.4419   19.1305 H   0  0  0  0  0  0
  -30.3384  -11.3247   19.8598 H   0  0  0  0  0  0
  -29.7394  -11.7370   17.4595 H   0  0  0  0  0  0
  -29.6599  -13.4584   17.7457 H   0  0  0  0  0  0
  -27.8304  -11.2923   18.8315 H   0  0  0  0  0  0
  -27.3692  -12.6046   17.7802 H   0  0  0  0  0  0
  -27.6786  -14.2418   19.5400 H   0  0  0  0  0  0
  -28.6864  -11.9959   21.3640 H   0  0  0  0  0  0
  -28.4553  -13.6450   21.8524 H   0  0  0  0  0  0
  -25.2747   -9.5688   22.4773 H   0  0  0  0  0  0
  -23.9998   -7.4628   22.7469 H   0  0  0  0  0  0
  -21.0831   -8.8765   19.8968 H   0  0  0  0  0  0
  -22.3675  -10.9673   19.6177 H   0  0  0  0  0  0
  -21.2009   -7.6148   23.9733 H   0  0  0  0  0  0
  -21.1489   -6.0513   25.9087 H   0  0  0  0  0  0
  -22.0598   -2.7617   23.2846 H   0  0  0  0  0  0
  -22.4026  -11.9917   22.4821 H   0  0  0  0  0  0
  -21.1111  -13.1340   22.2598 H   0  0  0  0  0  0
  -24.6778  -15.8525   20.5271 H   0  0  0  0  0  0
  -26.2941  -15.6226   20.1000 H   0  0  0  0  0  0
  -26.7193  -32.5467   23.1206 H   0  0  0  0  0  0
  -25.0250  -33.9732   25.0605 H   0  0  0  0  0  0
  -22.6966  -31.3115   21.4084 H   0  0  0  0  0  0
  -23.3710  -35.9678   23.3297 H   0  0  0  0  0  0
  -24.3555  -36.8939   22.2057 H   0  0  0  0  0  0
  -23.7264  -37.6541   23.6660 H   0  0  0  0  0  0
  -26.0568  -31.5890   20.5934 H   0  0  0  0  0  0
  -26.8243  -30.8761   21.9851 H   0  0  0  0  0  0
  -28.0989  -29.0791   21.1721 H   0  0  0  0  0  0
  -26.0516  -25.9624   19.0075 H   0  0  0  0  0  0
  -23.9710  -27.2997   19.0285 H   0  0  0  0  0  0
  -23.7340  -30.5991   19.4017 H   0  0  0  0  0  0
  -22.7379  -29.2492   19.8617 H   0  0  0  0  0  0
  -25.1271  -36.1964   25.0829 H   0  0  0  0  0  0
  -21.0003  -28.3279   24.1395 H   0  0  0  0  0  0
  -20.5661  -26.2297   23.3602 H   0  0  0  0  0  0
  -21.6648  -26.7446   22.1211 H   0  0  0  0  0  0
  -19.6890  -25.6305   21.1236 H   0  0  0  0  0  0
  -19.6688  -27.3211   20.6738 H   0  0  0  0  0  0
  -17.4196  -26.6700   21.4027 H   0  0  0  0  0  0
  -18.0329  -26.0087   22.9019 H   0  0  0  0  0  0
  -19.7943  -30.7260   24.2299 H   0  0  0  0  0  0
  -17.5030  -31.6271   24.5187 H   0  0  0  0  0  0
  -15.5361  -30.3011   23.7633 H   0  0  0  0  0  0
  -15.8684  -28.0841   22.7050 H   0  0  0  0  0  0
  -24.5817  -30.7033   25.7758 H   0  0  0  0  0  0
  -24.8950  -32.2764   26.4982 H   0  0  0  0  0  0
  -25.7999  -30.8690   27.0184 H   0  0  0  0  0  0
  -26.2848  -29.6746   24.1161 H   0  0  0  0  0  0
  -27.4038  -29.7203   25.4604 H   0  0  0  0  0  0
  -27.8708  -30.4270   23.9285 H   0  0  0  0  0  0
  -27.2655  -33.3566   26.2098 H   0  0  0  0  0  0
  -28.3868  -32.6780   25.0359 H   0  0  0  0  0  0
  -28.0683  -31.8395   26.5464 H   0  0  0  0  0  0
  -28.2587  -38.0116   24.7498 H   0  0  0  0  0  0
  -28.1058  -36.2653   24.6292 H   0  0  0  0  0  0
  -27.2286  -37.1473   25.8864 H   0  0  0  0  0  0
  -20.9292  -29.8801   21.6951 H   0  0  0  0  0  0
  -26.0148  -38.2835   24.1437 H   0  0  0  0  0  0
  -26.2872  -24.0034   21.5125 H   0  0  0  0  0  0
  -30.2839  -22.4226   21.0705 H   0  0  0  0  0  0
  -26.8477  -19.8363   20.7113 H   0  0  0  0  0  0
  -30.0475  -18.4189   18.4656 H   0  0  0  0  0  0
  -31.1876  -17.9642   19.7078 H   0  0  0  0  0  0
  -30.4044  -17.9341   22.1690 H   0  0  0  0  0  0
  -28.7211  -18.1752   22.5379 H   0  0  0  0  0  0
  -30.7847  -26.2113   20.4932 H   0  0  0  0  0  0
  -30.6784  -27.1804   22.0072 H   0  0  0  0  0  0
  -30.3292  -15.9722   18.4166 H   0  0  0  0  0  0
  -28.7026  -16.3640   18.8762 H   0  0  0  0  0  0
  -28.0895  -16.0531   21.5254 H   0  0  0  0  0  0
  -29.4699  -15.7345   22.5489 H   0  0  0  0  0  0
  -28.2905  -24.7822   22.8099 H   0  0  0  0  0  0
  -31.0097  -24.3186   21.7509 H   0  0  0  0  0  0
  -28.2239  -18.4690   20.0975 H   0  0  0  0  0  0
  -28.3614  -26.8461   22.1938 H   0  0  0  0  0  0
  -24.6577  -21.7210   22.2479 H   0  0  0  0  0  0
  -24.6543  -20.6907   20.8143 H   0  0  0  0  0  0
  -24.3901  -22.4275   20.6472 H   0  0  0  0  0  0
  -29.2591  -23.4930   24.4185 H   0  0  0  0  0  0
  -30.5988  -23.7172   25.5220 H   0  0  0  0  0  0
  -30.8475  -22.8672   23.9967 H   0  0  0  0  0  0
  -32.3595  -26.4085   23.6081 H   0  0  0  0  0  0
  -32.8243  -24.7052   23.6079 H   0  0  0  0  0  0
  -32.3346  -25.4884   25.1040 H   0  0  0  0  0  0
  -30.0547  -25.8065   24.2471 H   0  0  0  0  0  0
  1 25  1  0  0  0
  1 30  2  0  0  0
  1 90  1  0  0  0
  2  3  1  0  0  0
  2 25  1  0  0  0
  2 92  1  0  0  0
  2 93  1  0  0  0
  3  4  1  0  0  0
  3 94  1  0  0  0
  3 95  1  0  0  0
  4  5  1  0  0  0
  4 96  1  0  0  0
  4 97  1  0  0  0
  5  6  1  0  0  0
  5 26  1  0  0  0
  5 98  1  0  0  0
  6 25  1  0  0  0
  6 99  1  0  0  0
  6100  1  0  0  0
  7  8  2  0  0  0
  7 26  1  0  0  0
  7 29  1  0  0  0
  8  9  1  0  0  0
  8 22  1  0  0  0
  9 10  1  0  0  0
  9 27  2  0  0  0
 10 11  2  0  0  0
 10 15  1  0  0  0
 11 12  1  0  0  0
 11101  1  0  0  0
 12 13  2  0  0  0
 12102  1  0  0  0
 13 14  1  0  0  0
 13 31  1  0  0  0
 14 15  2  0  0  0
 14103  1  0  0  0
 15104  1  0  0  0
 16 17  2  0  0  0
 16 21  1  0  0  0
 16 31  1  0  0  0
 17 18  1  0  0  0
 17105  1  0  0  0
 18 19  2  0  0  0
 18106  1  0  0  0
 19 20  1  0  0  0
 19 24  1  0  0  0
 20 21  2  0  0  0
 20107  1  0  0  0
 21 23  1  0  0  0
 22 28  1  0  0  0
 22 32  2  0  0  0
 26 27  1  0  0  0
 28108  1  0  0  0
 28109  1  0  0  0
 29110  1  0  0  0
 29111  1  0  0  0
 33 34  1  0  0  0
 33 66  1  0  0  0
 33 70  2  0  0  0
 34 36  1  0  0  0
 34 59  1  0  0  0
 34112  1  0  0  0
 35 44  2  0  0  0
 35 45  1  0  0  0
 35 68  1  0  0  0
 36 56  1  0  0  0
 36113  1  0  0  0
 37 39  1  0  0  0
 37 47  1  0  0  0
 37 66  1  0  0  0
 37114  1  0  0  0
 38 43  2  0  0  0
 38 46  1  0  0  0
 38 47  1  0  0  0
 39 64  1  0  0  0
 39 67  2  0  0  0
 40 52  1  0  0  0
 40 53  2  0  0  0
 40 58  1  0  0  0
 41115  1  0  0  0
 41116  1  0  0  0
 41117  1  0  0  0
 41 48  1  0  0  0
 42 43  1  0  0  0
 42 66  1  0  0  0
 42118  1  0  0  0
 42119  1  0  0  0
 43 44  1  0  0  0
 44120  1  0  0  0
 45 46  2  0  0  0
 45121  1  0  0  0
 46122  1  0  0  0
 47123  1  0  0  0
 47124  1  0  0  0
 48 56  1  0  0  0
 48 65  1  0  0  0
 48125  1  0  0  0
 49 50  1  0  0  0
 49 53  1  0  0  0
 49 64  1  0  0  0
 49126  1  0  0  0
 50 51  1  0  0  0
 50127  1  0  0  0
 50128  1  0  0  0
 51 52  1  0  0  0
 51129  1  0  0  0
 51130  1  0  0  0
 52131  1  0  0  0
 52132  1  0  0  0
 53 54  1  0  0  0
 54 55  2  0  0  0
 54133  1  0  0  0
 55 57  1  0  0  0
 55134  1  0  0  0
 56 69  2  0  0  0
 57 58  2  0  0  0
 57135  1  0  0  0
 58136  1  0  0  0
 59 60  1  0  0  0
 59 61  1  0  0  0
 59 62  1  0  0  0
 60137  1  0  0  0
 60138  1  0  0  0
 60139  1  0  0  0
 61140  1  0  0  0
 61141  1  0  0  0
 61142  1  0  0  0
 62143  1  0  0  0
 62144  1  0  0  0
 62145  1  0  0  0
 63 65  1  0  0  0
 63146  1  0  0  0
 63147  1  0  0  0
 63148  1  0  0  0
 64149  1  0  0  0
 65150  1  0  0  0
 68 85  1  0  0  0
 71 74  2  0  0  0
 71 75  1  0  0  0
 71151  1  0  0  0
 72 74  1  0  0  0
 72 76  2  0  0  0
 72152  1  0  0  0
 73 75  2  0  0  0
 73 76  1  0  0  0
 73153  1  0  0  0
 74 82  1  0  0  0
 75 86  1  0  0  0
 76 91  1  0  0  0
 77 80  1  0  0  0
 77 84  1  0  0  0
 77154  1  0  0  0
 77155  1  0  0  0
 78 81  1  0  0  0
 78 84  1  0  0  0
 78156  1  0  0  0
 78157  1  0  0  0
 79 85  1  0  0  0
 79158  1  0  0  0
 79159  1  0  0  0
 79 83  1  0  0  0
 80 90  1  0  0  0
 80160  1  0  0  0
 80161  1  0  0  0
 81 90  1  0  0  0
 81162  1  0  0  0
 81163  1  0  0  0
 82 83  1  0  0  0
 82 85  1  0  0  0
 82164  1  0  0  0
 83 89  1  0  0  0
 83165  1  0  0  0
 84 91  1  0  0  0
 84166  1  0  0  0
 85167  1  0  0  0
 86168  1  0  0  0
 86169  1  0  0  0
 86170  1  0  0  0
 87171  1  0  0  0
 87172  1  0  0  0
 87173  1  0  0  0
 87 89  1  0  0  0
 88 89  1  0  0  0
 88174  1  0  0  0
 88175  1  0  0  0
 88176  1  0  0  0
 89177  1  0  0  0
M  ISO  4   1 100  68 101  85 101  90 100
M  END
> <chiral flag>
0

> <version>
0

> <s_m_source_file>
/data/baiqing/PycharmProjects/Reinvent-master-3.2/result/LINK_invent/BTK/process_docking_weight1_custom_sum_contain_oxygen_bond_distance_aromatic_linkinvent_7_9_3/rearranged_h_0150.sdf

> <i_m_source_file_index>
59

> <r_mmod_Potential_Energy-OPLS-2005>
299.654632568359

> <r_mmod_Stretch_Energy-OPLS-2005>
48.3979949951172

> <r_mmod_Bend_Energy-OPLS-2005>
154.056045532227

> <r_mmod_Torsional_Energy-OPLS-2005>
388.33984375

> <r_mmod_Improper_Torsional_Energy-OPLS-2005>
19.791597366333

> <r_mmod_Van_der_Waal_Energy-OPLS-2005>
139.260604858398

> <r_mmod_Electrostatic_Energy-OPLS-2005>
-278.428192138672

> <r_mmod_Solvation_Energy-OPLS-2005>
-194.751953125

> <b_mmod_Minimization_Converged-OPLS-2005>
0

> <r_mmod_RMS_Derivative-OPLS-2005>
4.10280275344849

$$$$
59
                    3D
 Structure written by MMmdl.
172182  0  0  1  0            999 V2000
  -30.6970  -14.3715   20.6905 C   0  0  0  0  0  0
  -30.4169  -12.2918   19.3786 C   0  0  0  0  0  0
  -29.4905  -12.5763   18.1791 C   0  0  0  0  0  0
  -28.0030  -12.4436   18.5704 C   0  0  0  0  0  0
  -27.6715  -13.1824   19.8946 C   0  0  2  0  0  0
  -28.7119  -12.8094   20.9779 C   0  0  0  0  0  0
  -25.2628  -13.8085   20.5623 C   0  0  0  0  0  0
  -24.1881  -13.0399   20.9179 C   0  0  0  0  0  0
  -24.6394  -11.6866   20.8744 C   0  0  0  0  0  0
  -23.9042  -10.4269   21.0411 C   0  0  0  0  0  0
  -24.3600   -9.4187   21.9171 C   0  0  0  0  0  0
  -23.6293   -8.2213   22.0723 C   0  0  0  0  0  0
  -22.4266   -8.0257   21.3525 C   0  0  0  0  0  0
  -21.9906   -9.0222   20.4623 C   0  0  0  0  0  0
  -22.7226  -10.2103   20.3048 C   0  0  0  0  0  0
  -21.6849   -6.0764   22.5307 C   0  0  0  0  0  0
  -21.4007   -6.5648   23.8242 C   0  0  0  0  0  0
  -21.3680   -5.6790   24.9201 C   0  0  0  0  0  0
  -21.6064   -4.3056   24.7248 C   0  0  0  0  0  0
  -21.8806   -3.8162   23.4367 C   0  0  0  0  0  0
  -21.9166   -4.6990   22.3427 C   0  0  0  0  0  0
  -22.7873  -13.5192   21.1871 C   0  0  0  0  0  0
  -22.1628   -4.2168   21.1006 F   0  0  0  0  0  0
  -21.5654   -3.4535   25.7762 F   0  0  0  0  0  0
  -30.0317  -13.2011   20.4728 N   0  0  0  0  0  0
  -26.3072  -12.9212   20.3415 N   0  0  0  0  0  0
  -25.9297  -11.6398   20.5724 N   0  0  0  0  0  0
  -22.0508  -12.8171   22.0443 N   0  0  0  0  0  0
  -25.4397  -15.1802   20.3969 N   0  0  0  0  0  0
  -31.7589  -14.6056   20.0923 O   0  0  0  0  0  0
  -21.6607   -6.8887   21.4259 O   0  0  0  0  0  0
  -22.3576  -14.5518   20.6741 O   0  0  0  0  0  0
  -24.6101  -31.8725   23.2141 C   0  0  0  0  0  0
  -25.9021  -32.4837   23.8392 C   0  0  1  0  0  0
  -27.2269  -27.4802   20.0798 C   0  0  0  0  0  0
  -25.5922  -33.8638   24.2354 N   0  0  0  0  0  0
  -23.3907  -30.4995   21.5569 C   0  0  2  0  0  0
  -24.8329  -28.9720   20.1188 C   0  0  0  0  0  0
  -22.7355  -29.4671   22.5027 C   0  0  0  0  0  0
  -18.0244  -28.1359   22.8521 C   0  0  0  0  0  0
  -24.1496  -36.7283   23.2629 C   0  0  0  0  0  0
  -25.9114  -30.8597   21.3493 C   0  0  0  0  0  0
  -25.9926  -29.4931   20.7071 C   0  0  0  0  0  0
  -27.1949  -28.7542   20.6934 C   0  0  0  0  0  0
  -26.0433  -26.9523   19.5272 C   0  0  0  0  0  0
  -24.8485  -27.6948   19.5331 C   0  0  0  0  0  0
  -23.5944  -29.8360   20.1706 C   0  0  0  0  0  0
  -25.4113  -36.3109   24.0327 C   0  0  1  0  0  0
  -20.5832  -28.3621   23.1339 C   0  0  2  0  0  0
  -20.6720  -26.9362   22.5418 C   0  0  0  0  0  0
  -19.5709  -26.6378   21.5198 C   0  0  0  0  0  0
  -18.1886  -26.7918   22.1616 C   0  0  0  0  0  0
  -19.1502  -28.8800   23.2936 C   0  0  0  0  0  0
  -18.9440  -30.1425   23.8911 C   0  0  0  0  0  0
  -17.6444  -30.6583   24.0551 C   0  0  0  0  0  0
  -25.9047  -34.9484   23.5143 C   0  0  0  0  0  0
  -16.5331  -29.9080   23.6323 C   0  0  0  0  0  0
  -16.7233  -28.6491   23.0352 C   0  0  0  0  0  0
  -26.4469  -31.6570   25.0681 C   0  0  0  0  0  0
  -25.3741  -31.3593   26.1406 C   0  0  0  0  0  0
  -27.0299  -30.3055   24.5927 C   0  0  0  0  0  0
  -27.6045  -32.4221   25.7503 C   0  0  0  0  0  0
  -27.5580  -37.1798   24.8454 C   0  0  0  0  0  0
  -21.4082  -29.3024   22.3774 N   0  0  0  0  0  0
  -26.4279  -37.3803   23.9427 N   0  0  0  0  0  0
  -24.6569  -31.0870   22.1013 N   0  0  0  0  0  0
  -23.4150  -28.8192   23.3021 O   0  0  0  0  0  0
  -28.3435  -26.6862   19.9841 O   0  0  0  0  0  0
  -26.5586  -34.8930   22.4686 O   0  0  0  0  0  0
  -23.5326  -32.1440   23.7601 O   0  0  0  0  0  0
  -31.3461  -22.1129   20.2632 C   0  0  0  0  0  0
  -30.9691  -20.7692   20.4832 C   0  0  0  0  0  0
  -30.0180  -20.6393   18.2281 C   0  0  0  0  0  0
  -31.0281  -22.7060   19.0268 C   0  0  0  0  0  0
  -30.3791  -21.9814   18.0351 C   0  0  0  0  0  0
  -30.3051  -20.0307   19.4701 C   0  0  0  0  0  0
  -30.1274  -22.8096   16.8095 C   0  0  0  0  0  0
  -30.9350  -24.0998   17.0852 C   0  0  0  0  0  0
  -31.2436  -17.4427   21.2963 C   0  0  0  0  0  0
  -28.7456  -16.9328   20.7890 C   0  0  0  0  0  0
  -31.1808  -16.2117   22.2300 C   0  0  0  0  0  0
  -28.9006  -15.8011   21.8042 C   0  0  0  0  0  0
  -31.2904  -24.1309   18.6012 C   0  0  1  0  0  0
  -29.8478  -18.0093   20.9079 C   0  0  0  0  0  0
  -30.5169  -26.4747   19.0924 C   0  0  0  0  0  0
  -29.6299  -27.2856   20.0465 C   0  0  0  0  0  0
  -30.2542  -15.2148   21.6740 N   0  0  0  0  0  0
  -29.8985  -18.7029   19.6296 N   0  0  0  0  0  0
  -30.4282  -25.0287   19.3974 N   0  3  0  0  0  0
  -31.4615  -12.4033   19.0793 H   0  0  0  0  0  0
  -30.3234  -11.2493   19.6873 H   0  0  0  0  0  0
  -29.7206  -11.9127   17.3454 H   0  0  0  0  0  0
  -29.6766  -13.5919   17.8259 H   0  0  0  0  0  0
  -27.7577  -11.3868   18.6445 H   0  0  0  0  0  0
  -27.3801  -12.8446   17.7701 H   0  0  0  0  0  0
  -27.7482  -14.2456   19.6706 H   0  0  0  0  0  0
  -28.6915  -11.7250   21.1173 H   0  0  0  0  0  0
  -28.4946  -13.1816   21.9763 H   0  0  0  0  0  0
  -25.2750   -9.5642   22.4742 H   0  0  0  0  0  0
  -24.0023   -7.4577   22.7417 H   0  0  0  0  0  0
  -21.0843   -8.8726   19.8910 H   0  0  0  0  0  0
  -22.3688  -10.9636   19.6156 H   0  0  0  0  0  0
  -21.1967   -7.6128   23.9771 H   0  0  0  0  0  0
  -21.1550   -6.0508   25.9108 H   0  0  0  0  0  0
  -22.0569   -2.7623   23.2861 H   0  0  0  0  0  0
  -22.4028  -11.9774   22.4775 H   0  0  0  0  0  0
  -21.1152  -13.1229   22.2691 H   0  0  0  0  0  0
  -24.6754  -15.8406   20.4848 H   0  0  0  0  0  0
  -26.3012  -15.6143   20.0908 H   0  0  0  0  0  0
  -26.7102  -32.5594   23.1182 H   0  0  0  0  0  0
  -25.0105  -33.9802   25.0517 H   0  0  0  0  0  0
  -22.6789  -31.3168   21.4245 H   0  0  0  0  0  0
  -23.3778  -35.9590   23.3261 H   0  0  0  0  0  0
  -24.3607  -36.8934   22.2054 H   0  0  0  0  0  0
  -23.7207  -37.6462   23.6653 H   0  0  0  0  0  0
  -25.9909  -31.6178   20.5689 H   0  0  0  0  0  0
  -26.8102  -30.9366   21.9469 H   0  0  0  0  0  0
  -28.0745  -29.1784   21.1581 H   0  0  0  0  0  0
  -26.0463  -25.9691   19.0806 H   0  0  0  0  0  0
  -23.9487  -27.2789   19.0989 H   0  0  0  0  0  0
  -23.7028  -30.6117   19.4131 H   0  0  0  0  0  0
  -22.7166  -29.2622   19.8727 H   0  0  0  0  0  0
  -25.1293  -36.1954   25.0809 H   0  0  0  0  0  0
  -20.9935  -28.3150   24.1447 H   0  0  0  0  0  0
  -20.5585  -26.2216   23.3600 H   0  0  0  0  0  0
  -21.6588  -26.7372   22.1224 H   0  0  0  0  0  0
  -19.6853  -25.6294   21.1205 H   0  0  0  0  0  0
  -19.6656  -27.3198   20.6743 H   0  0  0  0  0  0
  -17.4161  -26.6697   21.4007 H   0  0  0  0  0  0
  -18.0264  -26.0036   22.8993 H   0  0  0  0  0  0
  -19.7900  -30.7262   24.2276 H   0  0  0  0  0  0
  -17.4974  -31.6271   24.5146 H   0  0  0  0  0  0
  -15.5329  -30.2996   23.7620 H   0  0  0  0  0  0
  -15.8631  -28.0821   22.7060 H   0  0  0  0  0  0
  -24.5965  -30.6897   25.7694 H   0  0  0  0  0  0
  -24.8863  -32.2725   26.4836 H   0  0  0  0  0  0
  -25.8110  -30.8760   27.0158 H   0  0  0  0  0  0
  -26.2826  -29.6846   24.0959 H   0  0  0  0  0  0
  -27.4146  -29.7236   25.4313 H   0  0  0  0  0  0
  -27.8618  -30.4460   23.9009 H   0  0  0  0  0  0
  -27.2683  -33.3529   26.2084 H   0  0  0  0  0  0
  -28.3922  -32.6727   25.0380 H   0  0  0  0  0  0
  -28.0601  -31.8275   26.5438 H   0  0  0  0  0  0
  -28.2539  -38.0160   24.7602 H   0  0  0  0  0  0
  -28.1160  -36.2693   24.6179 H   0  0  0  0  0  0
  -27.2304  -37.1305   25.8859 H   0  0  0  0  0  0
  -20.9211  -29.8818   21.7087 H   0  0  0  0  0  0
  -26.0162  -38.2866   24.1486 H   0  0  0  0  0  0
  -31.8488  -22.6715   21.0393 H   0  0  0  0  0  0
  -31.1931  -20.3250   21.4405 H   0  0  0  0  0  0
  -29.5178  -20.0941   17.4378 H   0  0  0  0  0  0
  -29.0593  -23.0162   16.7246 H   0  0  0  0  0  0
  -30.4550  -22.3010   15.9021 H   0  0  0  0  0  0
  -30.4592  -24.9935   16.6821 H   0  0  0  0  0  0
  -31.8741  -23.9986   16.5406 H   0  0  0  0  0  0
  -31.7992  -17.1677   20.3990 H   0  0  0  0  0  0
  -31.8380  -18.2158   21.7827 H   0  0  0  0  0  0
  -27.7635  -17.3959   20.9017 H   0  0  0  0  0  0
  -28.7454  -16.4811   19.7930 H   0  0  0  0  0  0
  -30.8590  -16.5112   23.2267 H   0  0  0  0  0  0
  -32.1748  -15.7841   22.3685 H   0  0  0  0  0  0
  -28.0634  -15.1316   21.6774 H   0  0  0  0  0  0
  -28.7553  -16.1892   22.8113 H   0  0  0  0  0  0
  -32.3411  -24.3856   18.7574 H   0  0  0  0  0  0
  -29.5346  -18.7014   21.6931 H   0  0  0  0  0  0
  -31.5508  -26.8144   19.1654 H   0  0  0  0  0  0
  -30.1882  -26.6614   18.0692 H   0  0  0  0  0  0
  -29.6323  -28.3306   19.7330 H   0  0  0  0  0  0
  -29.9936  -27.2369   21.0713 H   0  0  0  0  0  0
  -29.3329  -18.3136   18.8791 H   0  0  0  0  0  0
  -30.6818  -24.8933   20.3632 H   0  0  0  0  0  0
  -29.4679  -24.7308   19.3077 H   0  0  0  0  0  0
  1 25  1  0  0  0
  1 30  2  0  0  0
  1 87  1  0  0  0
  2  3  1  0  0  0
  2 25  1  0  0  0
  2 90  1  0  0  0
  2 91  1  0  0  0
  3  4  1  0  0  0
  3 92  1  0  0  0
  3 93  1  0  0  0
  4  5  1  0  0  0
  4 94  1  0  0  0
  4 95  1  0  0  0
  5  6  1  0  0  0
  5 26  1  0  0  0
  5 96  1  0  0  0
  6 25  1  0  0  0
  6 97  1  0  0  0
  6 98  1  0  0  0
  7  8  2  0  0  0
  7 26  1  0  0  0
  7 29  1  0  0  0
  8  9  1  0  0  0
  8 22  1  0  0  0
  9 10  1  0  0  0
  9 27  2  0  0  0
 10 11  2  0  0  0
 10 15  1  0  0  0
 11 12  1  0  0  0
 11 99  1  0  0  0
 12 13  2  0  0  0
 12100  1  0  0  0
 13 14  1  0  0  0
 13 31  1  0  0  0
 14 15  2  0  0  0
 14101  1  0  0  0
 15102  1  0  0  0
 16 17  2  0  0  0
 16 21  1  0  0  0
 16 31  1  0  0  0
 17 18  1  0  0  0
 17103  1  0  0  0
 18 19  2  0  0  0
 18104  1  0  0  0
 19 20  1  0  0  0
 19 24  1  0  0  0
 20 21  2  0  0  0
 20105  1  0  0  0
 21 23  1  0  0  0
 22 28  1  0  0  0
 22 32  2  0  0  0
 26 27  1  0  0  0
 28106  1  0  0  0
 28107  1  0  0  0
 29108  1  0  0  0
 29109  1  0  0  0
 33 34  1  0  0  0
 33 66  1  0  0  0
 33 70  2  0  0  0
 34 36  1  0  0  0
 34 59  1  0  0  0
 34110  1  0  0  0
 35 44  2  0  0  0
 35 45  1  0  0  0
 35 68  1  0  0  0
 36 56  1  0  0  0
 36111  1  0  0  0
 37 39  1  0  0  0
 37 47  1  0  0  0
 37 66  1  0  0  0
 37112  1  0  0  0
 38 43  2  0  0  0
 38 46  1  0  0  0
 38 47  1  0  0  0
 39 64  1  0  0  0
 39 67  2  0  0  0
 40 52  1  0  0  0
 40 53  2  0  0  0
 40 58  1  0  0  0
 41113  1  0  0  0
 41114  1  0  0  0
 41115  1  0  0  0
 41 48  1  0  0  0
 42 43  1  0  0  0
 42 66  1  0  0  0
 42116  1  0  0  0
 42117  1  0  0  0
 43 44  1  0  0  0
 44118  1  0  0  0
 45 46  2  0  0  0
 45119  1  0  0  0
 46120  1  0  0  0
 47121  1  0  0  0
 47122  1  0  0  0
 48 56  1  0  0  0
 48 65  1  0  0  0
 48123  1  0  0  0
 49 50  1  0  0  0
 49 53  1  0  0  0
 49 64  1  0  0  0
 49124  1  0  0  0
 50 51  1  0  0  0
 50125  1  0  0  0
 50126  1  0  0  0
 51 52  1  0  0  0
 51127  1  0  0  0
 51128  1  0  0  0
 52129  1  0  0  0
 52130  1  0  0  0
 53 54  1  0  0  0
 54 55  2  0  0  0
 54131  1  0  0  0
 55 57  1  0  0  0
 55132  1  0  0  0
 56 69  2  0  0  0
 57 58  2  0  0  0
 57133  1  0  0  0
 58134  1  0  0  0
 59 60  1  0  0  0
 59 61  1  0  0  0
 59 62  1  0  0  0
 60135  1  0  0  0
 60136  1  0  0  0
 60137  1  0  0  0
 61138  1  0  0  0
 61139  1  0  0  0
 61140  1  0  0  0
 62141  1  0  0  0
 62142  1  0  0  0
 62143  1  0  0  0
 63 65  1  0  0  0
 63144  1  0  0  0
 63145  1  0  0  0
 63146  1  0  0  0
 64147  1  0  0  0
 65148  1  0  0  0
 68 86  1  0  0  0
 71 72  2  0  0  0
 71 74  1  0  0  0
 71149  1  0  0  0
 72 76  1  0  0  0
 72150  1  0  0  0
 73 75  1  0  0  0
 73 76  2  0  0  0
 73151  1  0  0  0
 74 75  2  0  0  0
 74 83  1  0  0  0
 75 77  1  0  0  0
 76 88  1  0  0  0
 77 78  1  0  0  0
 77152  1  0  0  0
 77153  1  0  0  0
 78 83  1  0  0  0
 78154  1  0  0  0
 78155  1  0  0  0
 79 81  1  0  0  0
 79 84  1  0  0  0
 79156  1  0  0  0
 79157  1  0  0  0
 80 82  1  0  0  0
 80 84  1  0  0  0
 80158  1  0  0  0
 80159  1  0  0  0
 81 87  1  0  0  0
 81160  1  0  0  0
 81161  1  0  0  0
 82 87  1  0  0  0
 82162  1  0  0  0
 82163  1  0  0  0
 83 89  1  0  0  0
 83164  1  0  0  0
 84 88  1  0  0  0
 84165  1  0  0  0
 85 86  1  0  0  0
 85 89  1  0  0  0
 85166  1  0  0  0
 85167  1  0  0  0
 86168  1  0  0  0
 86169  1  0  0  0
 88170  1  0  0  0
 89171  1  0  0  0
 89172  1  0  0  0
M  CHG  1  89   1
M  ISO  4   1 100  68 101  86 101  87 100
M  END
> <chiral flag>
0

> <version>
0

> <s_m_source_file>
/data/baiqing/PycharmProjects/Reinvent-master-3.2/result/LINK_invent/BTK/process_docking_weight1_custom_sum_contain_oxygen_bond_distance_aromatic_linkinvent_7_9_3/rearranged_h_0150.sdf

> <i_m_source_file_index>
60

> <r_mmod_Potential_Energy-OPLS-2005>
13.0935649871826

> <r_mmod_Stretch_Energy-OPLS-2005>
38.3139305114746

> <r_mmod_Bend_Energy-OPLS-2005>
183.855682373047

> <r_mmod_Torsional_Energy-OPLS-2005>
304.47216796875

> <r_mmod_Improper_Torsional_Energy-OPLS-2005>
7.09640073776245

> <r_mmod_Van_der_Waal_Energy-OPLS-2005>
173.600936889648

> <r_mmod_Electrostatic_Energy-OPLS-2005>
-268.184936523438

> <r_mmod_Solvation_Energy-OPLS-2005>
-436.988128662109

> <b_mmod_Minimization_Converged-OPLS-2005>
0

> <r_mmod_RMS_Derivative-OPLS-2005>
4.85697889328003

$$$$
60
                    3D
 Structure written by MMmdl.
180189  0  0  1  0            999 V2000
  -30.6914  -14.4640   20.6447 C   0  0  0  0  0  0
  -30.4236  -12.3313   19.4129 C   0  0  0  0  0  0
  -29.4914  -12.5356   18.2026 C   0  0  0  0  0  0
  -28.0067  -12.4036   18.6053 C   0  0  0  0  0  0
  -27.6581  -13.2125   19.8844 C   0  0  2  0  0  0
  -28.6982  -12.9570   20.9942 C   0  0  0  0  0  0
  -25.2553  -13.8166   20.5697 C   0  0  0  0  0  0
  -24.1811  -13.0436   20.9164 C   0  0  0  0  0  0
  -24.6375  -11.6905   20.8714 C   0  0  0  0  0  0
  -23.9055  -10.4282   21.0383 C   0  0  0  0  0  0
  -24.3599   -9.4201   21.9173 C   0  0  0  0  0  0
  -23.6275   -8.2229   22.0737 C   0  0  0  0  0  0
  -22.4261   -8.0272   21.3539 C   0  0  0  0  0  0
  -21.9896   -9.0242   20.4635 C   0  0  0  0  0  0
  -22.7212  -10.2119   20.3051 C   0  0  0  0  0  0
  -21.6851   -6.0738   22.5283 C   0  0  0  0  0  0
  -21.4002   -6.5632   23.8214 C   0  0  0  0  0  0
  -21.3643   -5.6787   24.9176 C   0  0  0  0  0  0
  -21.6050   -4.3052   24.7217 C   0  0  0  0  0  0
  -21.8812   -3.8142   23.4331 C   0  0  0  0  0  0
  -21.9173   -4.6964   22.3391 C   0  0  0  0  0  0
  -22.7822  -13.5221   21.1822 C   0  0  0  0  0  0
  -22.1651   -4.2166   21.0966 F   0  0  0  0  0  0
  -21.5625   -3.4520   25.7713 F   0  0  0  0  0  0
  -30.0242  -13.2943   20.4518 N   0  0  0  0  0  0
  -26.2997  -12.9347   20.3399 N   0  0  0  0  0  0
  -25.9299  -11.6493   20.5745 N   0  0  0  0  0  0
  -22.0486  -12.8240   22.0408 N   0  0  0  0  0  0
  -25.4242  -15.1886   20.4129 N   0  0  0  0  0  0
  -31.7986  -14.6918   20.1478 O   0  0  0  0  0  0
  -21.6618   -6.8885   21.4254 O   0  0  0  0  0  0
  -22.3496  -14.5543   20.6689 O   0  0  0  0  0  0
  -24.6198  -31.8650   23.2111 C   0  0  0  0  0  0
  -25.9086  -32.4801   23.8389 C   0  0  1  0  0  0
  -27.2188  -27.3953   20.0941 C   0  0  0  0  0  0
  -25.5955  -33.8602   24.2321 N   0  0  0  0  0  0
  -23.4078  -30.4927   21.5503 C   0  0  2  0  0  0
  -24.8519  -28.9633   20.1154 C   0  0  0  0  0  0
  -22.7444  -29.4654   22.4954 C   0  0  0  0  0  0
  -18.0304  -28.1366   22.8486 C   0  0  0  0  0  0
  -24.1493  -36.7323   23.2637 C   0  0  0  0  0  0
  -25.9431  -30.8226   21.3684 C   0  0  0  0  0  0
  -26.0191  -29.4556   20.7143 C   0  0  0  0  0  0
  -27.2104  -28.6797   20.6994 C   0  0  0  0  0  0
  -26.0354  -26.9513   19.4709 C   0  0  0  0  0  0
  -24.8559  -27.7107   19.4906 C   0  0  0  0  0  0
  -23.6177  -29.8327   20.1641 C   0  0  0  0  0  0
  -25.4124  -36.3113   24.0328 C   0  0  1  0  0  0
  -20.5910  -28.3678   23.1342 C   0  0  2  0  0  0
  -20.6800  -26.9412   22.5419 C   0  0  0  0  0  0
  -19.5813  -26.6524   21.5142 C   0  0  0  0  0  0
  -18.1979  -26.7939   22.1568 C   0  0  0  0  0  0
  -19.1554  -28.8822   23.2942 C   0  0  0  0  0  0
  -18.9486  -30.1407   23.8992 C   0  0  0  0  0  0
  -17.6509  -30.6598   24.0593 C   0  0  0  0  0  0
  -25.9043  -34.9469   23.5119 C   0  0  0  0  0  0
  -16.5398  -29.9113   23.6307 C   0  0  0  0  0  0
  -16.7300  -28.6527   23.0327 C   0  0  0  0  0  0
  -26.4488  -31.6599   25.0730 C   0  0  0  0  0  0
  -25.3734  -31.3734   26.1466 C   0  0  0  0  0  0
  -27.0321  -30.3034   24.6127 C   0  0  0  0  0  0
  -27.6071  -32.4298   25.7508 C   0  0  0  0  0  0
  -27.5586  -37.1813   24.8453 C   0  0  0  0  0  0
  -21.4158  -29.3079   22.3752 N   0  0  0  0  0  0
  -26.4311  -37.3799   23.9390 N   0  0  0  0  0  0
  -24.6754  -31.0738   22.1016 N   0  0  0  0  0  0
  -23.4215  -28.8168   23.2975 O   0  0  0  0  0  0
  -28.3399  -26.5764   20.1022 O   0  0  0  0  0  0
  -26.5584  -34.8916   22.4657 O   0  0  0  0  0  0
  -23.5389  -32.1429   23.7479 O   0  0  0  0  0  0
  -29.2736  -18.0536   20.1496 C   0  0  0  0  0  0
  -30.0907  -19.1479   22.1434 C   0  0  0  0  0  0
  -29.0648  -20.5058   20.3646 C   0  0  0  0  0  0
  -29.9563  -17.9676   21.3766 C   0  0  0  0  0  0
  -28.8037  -19.2912   19.6473 C   0  0  0  0  0  0
  -29.6245  -20.4009   21.6638 C   0  0  0  0  0  0
  -29.6111  -23.1720   19.8401 C   0  0  0  0  0  0
  -28.7391  -21.9065   19.7624 C   0  0  2  0  0  0
  -28.2877  -23.9762   19.7873 C   0  0  2  0  0  0
  -27.7399  -24.2422   18.3561 C   0  0  0  0  0  0
  -25.3066  -23.4191   20.7558 C   0  0  0  0  0  0
  -25.9618  -21.0466   21.0617 C   0  0  0  0  0  0
  -29.6212  -21.3940   23.8442 C   0  0  0  0  0  0
  -26.1122  -18.2642   17.3000 C   0  0  0  0  0  0
  -30.5662  -16.6553   21.8979 C   0  0  0  0  0  0
  -28.0054  -19.2280   18.3436 C   0  0  0  0  0  0
  -28.1541  -25.2566   20.6995 C   0  0  0  0  0  0
  -26.2923  -22.3352   20.2785 C   0  0  0  0  0  0
  -30.0314  -15.3915   21.3681 N   0  0  0  0  0  0
  -27.7299  -22.7362   20.4498 N   0  3  1  0  0  0
  -29.6663  -21.5479   22.4273 O   0  0  0  0  0  0
  -27.0168  -18.2060   18.3933 O   0  0  0  0  0  0
  -31.4650  -12.4556   19.1103 H   0  0  0  0  0  0
  -30.3426  -11.3154   19.7998 H   0  0  0  0  0  0
  -29.7314  -11.8205   17.4148 H   0  0  0  0  0  0
  -29.6673  -13.5266   17.7827 H   0  0  0  0  0  0
  -27.7910  -11.3457   18.7590 H   0  0  0  0  0  0
  -27.3714  -12.7263   17.7788 H   0  0  0  0  0  0
  -27.7115  -14.2687   19.6230 H   0  0  0  0  0  0
  -28.6862  -11.9073   21.2930 H   0  0  0  0  0  0
  -28.4490  -13.5090   21.8991 H   0  0  0  0  0  0
  -25.2744   -9.5678   22.4750 H   0  0  0  0  0  0
  -23.9990   -7.4620   22.7447 H   0  0  0  0  0  0
  -21.0832   -8.8749   19.8952 H   0  0  0  0  0  0
  -22.3668  -10.9650   19.6170 H   0  0  0  0  0  0
  -21.2025   -7.6148   23.9723 H   0  0  0  0  0  0
  -21.1479   -6.0518   25.9074 H   0  0  0  0  0  0
  -22.0616   -2.7617   23.2827 H   0  0  0  0  0  0
  -22.4104  -11.9904   22.4826 H   0  0  0  0  0  0
  -21.1091  -13.1249   22.2596 H   0  0  0  0  0  0
  -24.6562  -15.8361   20.5407 H   0  0  0  0  0  0
  -26.2768  -15.6394   20.1061 H   0  0  0  0  0  0
  -26.7160  -32.5493   23.1157 H   0  0  0  0  0  0
  -25.0141  -33.9723   25.0499 H   0  0  0  0  0  0
  -22.6983  -31.3101   21.4096 H   0  0  0  0  0  0
  -23.3749  -35.9666   23.3321 H   0  0  0  0  0  0
  -24.3605  -36.8896   22.2044 H   0  0  0  0  0  0
  -23.7229  -37.6527   23.6632 H   0  0  0  0  0  0
  -26.0629  -31.5919   20.6038 H   0  0  0  0  0  0
  -26.8309  -30.8735   21.9867 H   0  0  0  0  0  0
  -28.1132  -29.0502   21.1669 H   0  0  0  0  0  0
  -25.9988  -26.0191   18.9449 H   0  0  0  0  0  0
  -23.9621  -27.3337   19.0141 H   0  0  0  0  0  0
  -23.7259  -30.6077   19.4037 H   0  0  0  0  0  0
  -22.7404  -29.2549   19.8681 H   0  0  0  0  0  0
  -25.1289  -36.2001   25.0823 H   0  0  0  0  0  0
  -21.0000  -28.3216   24.1462 H   0  0  0  0  0  0
  -20.5585  -26.2257   23.3566 H   0  0  0  0  0  0
  -21.6680  -26.7378   22.1272 H   0  0  0  0  0  0
  -19.7069  -25.6540   21.0940 H   0  0  0  0  0  0
  -19.6792  -27.3511   20.6811 H   0  0  0  0  0  0
  -17.4249  -26.6691   21.3961 H   0  0  0  0  0  0
  -18.0469  -26.0019   22.8913 H   0  0  0  0  0  0
  -19.7965  -30.7182   24.2428 H   0  0  0  0  0  0
  -17.5067  -31.6288   24.5173 H   0  0  0  0  0  0
  -15.5404  -30.3046   23.7629 H   0  0  0  0  0  0
  -15.8679  -28.0877   22.7003 H   0  0  0  0  0  0
  -24.5940  -30.7032   25.7828 H   0  0  0  0  0  0
  -24.8908  -32.2884   26.4881 H   0  0  0  0  0  0
  -25.8088  -30.8946   27.0245 H   0  0  0  0  0  0
  -26.2880  -29.6799   24.1149 H   0  0  0  0  0  0
  -27.4032  -29.7259   25.4609 H   0  0  0  0  0  0
  -27.8744  -30.4342   23.9342 H   0  0  0  0  0  0
  -27.2716  -33.3600   26.2111 H   0  0  0  0  0  0
  -28.3895  -32.6835   25.0345 H   0  0  0  0  0  0
  -28.0727  -31.8391   26.5389 H   0  0  0  0  0  0
  -28.2598  -38.0114   24.7494 H   0  0  0  0  0  0
  -28.1069  -36.2629   24.6297 H   0  0  0  0  0  0
  -27.2289  -37.1483   25.8851 H   0  0  0  0  0  0
  -20.9308  -29.8856   21.7041 H   0  0  0  0  0  0
  -26.0197  -38.2876   24.1403 H   0  0  0  0  0  0
  -29.1072  -17.1566   19.5709 H   0  0  0  0  0  0
  -30.5692  -19.0774   23.1092 H   0  0  0  0  0  0
  -30.2796  -23.3148   18.9911 H   0  0  0  0  0  0
  -30.1541  -23.3017   20.7775 H   0  0  0  0  0  0
  -28.5077  -21.7769   18.7110 H   0  0  0  0  0  0
  -28.0040  -25.2361   17.9979 H   0  0  0  0  0  0
  -26.6586  -24.1534   18.2752 H   0  0  0  0  0  0
  -28.1511  -23.5680   17.6065 H   0  0  0  0  0  0
  -24.2806  -23.0668   20.6498 H   0  0  0  0  0  0
  -25.3732  -24.3349   20.1774 H   0  0  0  0  0  0
  -25.4538  -23.6603   21.8101 H   0  0  0  0  0  0
  -24.8946  -20.8268   21.0207 H   0  0  0  0  0  0
  -26.2310  -21.1332   22.1157 H   0  0  0  0  0  0
  -26.4563  -20.1669   20.6568 H   0  0  0  0  0  0
  -29.3788  -22.3564   24.2950 H   0  0  0  0  0  0
  -28.8503  -20.6878   24.1578 H   0  0  0  0  0  0
  -30.5818  -21.0721   24.2466 H   0  0  0  0  0  0
  -25.3780  -17.4616   17.3845 H   0  0  0  0  0  0
  -26.6351  -18.1538   16.3499 H   0  0  0  0  0  0
  -25.5689  -19.2100   17.2860 H   0  0  0  0  0  0
  -30.4310  -16.6245   22.9805 H   0  0  0  0  0  0
  -31.6463  -16.7092   21.7432 H   0  0  0  0  0  0
  -28.6879  -19.0498   17.5120 H   0  0  0  0  0  0
  -27.4765  -20.1517   18.1365 H   0  0  0  0  0  0
  -28.9011  -25.1892   21.4923 H   0  0  0  0  0  0
  -27.2152  -25.2429   21.2528 H   0  0  0  0  0  0
  -26.1011  -22.1309   19.2251 H   0  0  0  0  0  0
  -29.1174  -15.1232   21.6986 H   0  0  0  0  0  0
  -27.9736  -22.7524   21.4299 H   0  0  0  0  0  0
  1 25  1  0  0  0
  1 30  2  0  0  0
  1 89  1  0  0  0
  2  3  1  0  0  0
  2 25  1  0  0  0
  2 93  1  0  0  0
  2 94  1  0  0  0
  3  4  1  0  0  0
  3 95  1  0  0  0
  3 96  1  0  0  0
  4  5  1  0  0  0
  4 97  1  0  0  0
  4 98  1  0  0  0
  5  6  1  0  0  0
  5 26  1  0  0  0
  5 99  1  0  0  0
  6 25  1  0  0  0
  6100  1  0  0  0
  6101  1  0  0  0
  7  8  2  0  0  0
  7 26  1  0  0  0
  7 29  1  0  0  0
  8  9  1  0  0  0
  8 22  1  0  0  0
  9 10  1  0  0  0
  9 27  2  0  0  0
 10 11  2  0  0  0
 10 15  1  0  0  0
 11 12  1  0  0  0
 11102  1  0  0  0
 12 13  2  0  0  0
 12103  1  0  0  0
 13 14  1  0  0  0
 13 31  1  0  0  0
 14 15  2  0  0  0
 14104  1  0  0  0
 15105  1  0  0  0
 16 17  2  0  0  0
 16 21  1  0  0  0
 16 31  1  0  0  0
 17 18  1  0  0  0
 17106  1  0  0  0
 18 19  2  0  0  0
 18107  1  0  0  0
 19 20  1  0  0  0
 19 24  1  0  0  0
 20 21  2  0  0  0
 20108  1  0  0  0
 21 23  1  0  0  0
 22 28  1  0  0  0
 22 32  2  0  0  0
 26 27  1  0  0  0
 28109  1  0  0  0
 28110  1  0  0  0
 29111  1  0  0  0
 29112  1  0  0  0
 33 34  1  0  0  0
 33 66  1  0  0  0
 33 70  2  0  0  0
 34 36  1  0  0  0
 34 59  1  0  0  0
 34113  1  0  0  0
 35 44  2  0  0  0
 35 45  1  0  0  0
 35 68  1  0  0  0
 36 56  1  0  0  0
 36114  1  0  0  0
 37 39  1  0  0  0
 37 47  1  0  0  0
 37 66  1  0  0  0
 37115  1  0  0  0
 38 43  2  0  0  0
 38 46  1  0  0  0
 38 47  1  0  0  0
 39 64  1  0  0  0
 39 67  2  0  0  0
 40 52  1  0  0  0
 40 53  2  0  0  0
 40 58  1  0  0  0
 41116  1  0  0  0
 41117  1  0  0  0
 41118  1  0  0  0
 41 48  1  0  0  0
 42 43  1  0  0  0
 42 66  1  0  0  0
 42119  1  0  0  0
 42120  1  0  0  0
 43 44  1  0  0  0
 44121  1  0  0  0
 45 46  2  0  0  0
 45122  1  0  0  0
 46123  1  0  0  0
 47124  1  0  0  0
 47125  1  0  0  0
 48 56  1  0  0  0
 48 65  1  0  0  0
 48126  1  0  0  0
 49 50  1  0  0  0
 49 53  1  0  0  0
 49 64  1  0  0  0
 49127  1  0  0  0
 50 51  1  0  0  0
 50128  1  0  0  0
 50129  1  0  0  0
 51 52  1  0  0  0
 51130  1  0  0  0
 51131  1  0  0  0
 52132  1  0  0  0
 52133  1  0  0  0
 53 54  1  0  0  0
 54 55  2  0  0  0
 54134  1  0  0  0
 55 57  1  0  0  0
 55135  1  0  0  0
 56 69  2  0  0  0
 57 58  2  0  0  0
 57136  1  0  0  0
 58137  1  0  0  0
 59 60  1  0  0  0
 59 61  1  0  0  0
 59 62  1  0  0  0
 60138  1  0  0  0
 60139  1  0  0  0
 60140  1  0  0  0
 61141  1  0  0  0
 61142  1  0  0  0
 61143  1  0  0  0
 62144  1  0  0  0
 62145  1  0  0  0
 62146  1  0  0  0
 63 65  1  0  0  0
 63147  1  0  0  0
 63148  1  0  0  0
 63149  1  0  0  0
 64150  1  0  0  0
 65151  1  0  0  0
 68 87  1  0  0  0
 71 74  2  0  0  0
 71 75  1  0  0  0
 71152  1  0  0  0
 72 74  1  0  0  0
 72 76  2  0  0  0
 72153  1  0  0  0
 73 75  2  0  0  0
 73 76  1  0  0  0
 73 78  1  0  0  0
 74 85  1  0  0  0
 75 86  1  0  0  0
 76 91  1  0  0  0
 77 78  1  0  0  0
 77 79  1  0  0  0
 77154  1  0  0  0
 77155  1  0  0  0
 78 90  1  0  0  0
 78156  1  0  0  0
 79 80  1  0  0  0
 79 87  1  0  0  0
 79 90  1  0  0  0
 80157  1  0  0  0
 80158  1  0  0  0
 80159  1  0  0  0
 81160  1  0  0  0
 81161  1  0  0  0
 81162  1  0  0  0
 81 88  1  0  0  0
 82 88  1  0  0  0
 82163  1  0  0  0
 82164  1  0  0  0
 82165  1  0  0  0
 83 91  1  0  0  0
 83166  1  0  0  0
 83167  1  0  0  0
 83168  1  0  0  0
 84 92  1  0  0  0
 84169  1  0  0  0
 84170  1  0  0  0
 84171  1  0  0  0
 85 89  1  0  0  0
 85172  1  0  0  0
 85173  1  0  0  0
 86 92  1  0  0  0
 86174  1  0  0  0
 86175  1  0  0  0
 87176  1  0  0  0
 87177  1  0  0  0
 88178  1  0  0  0
 88 90  1  0  0  0
 89179  1  0  0  0
 90180  1  0  0  0
M  CHG  1  90   1
M  ISO  4   1 100  68 101  87 101  89 100
M  END
> <chiral flag>
0

> <version>
0

> <s_m_source_file>
/data/baiqing/PycharmProjects/Reinvent-master-3.2/result/LINK_invent/BTK/process_docking_weight1_custom_sum_contain_oxygen_bond_distance_aromatic_linkinvent_7_9_3/rearranged_h_0150.sdf

> <i_m_source_file_index>
61

> <r_mmod_Potential_Energy-OPLS-2005>
-108.411033630371

> <r_mmod_Stretch_Energy-OPLS-2005>
60.7938842773438

> <r_mmod_Bend_Energy-OPLS-2005>
149.986373901367

> <r_mmod_Torsional_Energy-OPLS-2005>
261.53955078125

> <r_mmod_Improper_Torsional_Energy-OPLS-2005>
2.23957633972168

> <r_mmod_Van_der_Waal_Energy-OPLS-2005>
164.276290893555

> <r_mmod_Electrostatic_Energy-OPLS-2005>
-360.331329345703

> <r_mmod_Solvation_Energy-OPLS-2005>
-404.130279541016

> <b_mmod_Minimization_Converged-OPLS-2005>
0

> <r_mmod_RMS_Derivative-OPLS-2005>
4.14885377883911

$$$$
61
                    3D
 Structure written by MMmdl.
164172  0  0  1  0            999 V2000
  -30.6810  -14.5178   20.5179 C   0  0  0  0  0  0
  -30.4208  -12.3203   19.4382 C   0  0  0  0  0  0
  -29.4971  -12.5011   18.2146 C   0  0  0  0  0  0
  -28.0177  -12.3607   18.6238 C   0  0  0  0  0  0
  -27.6545  -13.2129   19.8697 C   0  0  2  0  0  0
  -28.6977  -13.0295   20.9964 C   0  0  0  0  0  0
  -25.2547  -13.8172   20.5692 C   0  0  0  0  0  0
  -24.1808  -13.0438   20.9206 C   0  0  0  0  0  0
  -24.6379  -11.6911   20.8744 C   0  0  0  0  0  0
  -23.9048  -10.4304   21.0428 C   0  0  0  0  0  0
  -24.3608   -9.4220   21.9200 C   0  0  0  0  0  0
  -23.6291   -8.2244   22.0740 C   0  0  0  0  0  0
  -22.4275   -8.0277   21.3530 C   0  0  0  0  0  0
  -21.9909   -9.0256   20.4632 C   0  0  0  0  0  0
  -22.7227  -10.2141   20.3066 C   0  0  0  0  0  0
  -21.6843   -6.0731   22.5278 C   0  0  0  0  0  0
  -21.4011   -6.5628   23.8218 C   0  0  0  0  0  0
  -21.3665   -5.6789   24.9179 C   0  0  0  0  0  0
  -21.6058   -4.3052   24.7240 C   0  0  0  0  0  0
  -21.8811   -3.8143   23.4358 C   0  0  0  0  0  0
  -21.9191   -4.6960   22.3406 C   0  0  0  0  0  0
  -22.7849  -13.5238   21.1870 C   0  0  0  0  0  0
  -22.1666   -4.2144   21.0980 F   0  0  0  0  0  0
  -21.5633   -3.4532   25.7747 F   0  0  0  0  0  0
  -30.0245  -13.3282   20.4357 N   0  0  0  0  0  0
  -26.2974  -12.9355   20.3347 N   0  0  0  0  0  0
  -25.9298  -11.6512   20.5772 N   0  0  0  0  0  0
  -22.0482  -12.8233   22.0425 N   0  0  0  0  0  0
  -25.4275  -15.1886   20.4078 N   0  0  0  0  0  0
  -31.8350  -14.6727   20.1145 O   0  0  0  0  0  0
  -21.6624   -6.8876   21.4237 O   0  0  0  0  0  0
  -22.3556  -14.5557   20.6717 O   0  0  0  0  0  0
  -24.6188  -31.8674   23.2076 C   0  0  0  0  0  0
  -25.9073  -32.4817   23.8374 C   0  0  1  0  0  0
  -27.2325  -27.3956   20.0914 C   0  0  0  0  0  0
  -25.5917  -33.8609   24.2328 N   0  0  0  0  0  0
  -23.4064  -30.4917   21.5515 C   0  0  2  0  0  0
  -24.8485  -28.9513   20.1219 C   0  0  0  0  0  0
  -22.7441  -29.4655   22.4997 C   0  0  0  0  0  0
  -18.0276  -28.1365   22.8497 C   0  0  0  0  0  0
  -24.1485  -36.7307   23.2637 C   0  0  0  0  0  0
  -25.9398  -30.8205   21.3626 C   0  0  0  0  0  0
  -26.0137  -29.4502   20.7149 C   0  0  0  0  0  0
  -27.2049  -28.6820   20.6932 C   0  0  0  0  0  0
  -26.0351  -26.9200   19.5013 C   0  0  0  0  0  0
  -24.8571  -27.6881   19.5144 C   0  0  0  0  0  0
  -23.6146  -29.8247   20.1673 C   0  0  0  0  0  0
  -25.4107  -36.3116   24.0345 C   0  0  1  0  0  0
  -20.5873  -28.3663   23.1323 C   0  0  2  0  0  0
  -20.6771  -26.9401   22.5423 C   0  0  0  0  0  0
  -19.5752  -26.6377   21.5223 C   0  0  0  0  0  0
  -18.1924  -26.7907   22.1627 C   0  0  0  0  0  0
  -19.1527  -28.8831   23.2900 C   0  0  0  0  0  0
  -18.9449  -30.1430   23.8917 C   0  0  0  0  0  0
  -17.6453  -30.6575   24.0563 C   0  0  0  0  0  0
  -25.9042  -34.9472   23.5148 C   0  0  0  0  0  0
  -16.5347  -29.9079   23.6316 C   0  0  0  0  0  0
  -16.7264  -28.6489   23.0352 C   0  0  0  0  0  0
  -26.4481  -31.6575   25.0693 C   0  0  0  0  0  0
  -25.3738  -31.3684   26.1440 C   0  0  0  0  0  0
  -27.0298  -30.3018   24.6041 C   0  0  0  0  0  0
  -27.6062  -32.4283   25.7460 C   0  0  0  0  0  0
  -27.5589  -37.1816   24.8477 C   0  0  0  0  0  0
  -21.4161  -29.3032   22.3732 N   0  0  0  0  0  0
  -26.4297  -37.3801   23.9417 N   0  0  0  0  0  0
  -24.6741  -31.0758   22.0981 N   0  0  0  0  0  0
  -23.4209  -28.8191   23.3037 O   0  0  0  0  0  0
  -28.4250  -26.6791   20.0811 O   0  0  0  0  0  0
  -26.5607  -34.8944   22.4712 O   0  0  0  0  0  0
  -23.5381  -32.1412   23.7485 O   0  0  0  0  0  0
  -26.8662  -22.5703   21.1231 C   0  0  0  0  0  0
  -27.3240  -20.1921   20.9760 C   0  0  0  0  0  0
  -28.2230  -22.8827   20.9105 C   0  0  0  0  0  0
  -29.1477  -21.8081   20.6793 C   0  0  0  0  0  0
  -26.4021  -21.2478   21.1606 C   0  0  0  0  0  0
  -28.6997  -20.4428   20.7399 C   0  0  0  0  0  0
  -31.0007  -21.6850   18.9162 C   0  0  0  0  0  0
  -24.5518  -19.7579   21.5467 C   0  0  0  0  0  0
  -28.5904  -24.3803   21.0483 C   0  0  0  0  0  0
  -30.3415  -17.0017   20.6718 C   0  0  0  0  0  0
  -28.4696  -25.2592   19.7737 C   0  0  0  0  0  0
  -29.1709  -18.0231   20.7500 C   0  0  0  0  0  0
  -30.6108  -22.1100   20.3428 C   0  0  2  0  0  0
  -29.9302  -15.5882   20.8571 N   0  0  0  0  0  0
  -25.0551  -21.0790   21.3957 O   0  0  0  0  0  0
  -29.6076  -19.3916   20.5800 O   0  0  0  0  0  0
  -31.7215  -21.3770   21.5331 Cl  0  0  0  0  0  0
  -31.4664  -12.4172   19.1411 H   0  0  0  0  0  0
  -30.3213  -11.3169   19.8567 H   0  0  0  0  0  0
  -29.7458  -11.7720   17.4420 H   0  0  0  0  0  0
  -29.6627  -13.4836   17.7697 H   0  0  0  0  0  0
  -27.8323  -11.3057   18.8310 H   0  0  0  0  0  0
  -27.3723  -12.6267   17.7857 H   0  0  0  0  0  0
  -27.6867  -14.2562   19.5553 H   0  0  0  0  0  0
  -28.6760  -12.0047   21.3712 H   0  0  0  0  0  0
  -28.4679  -13.6639   21.8539 H   0  0  0  0  0  0
  -25.2760   -9.5679   22.4772 H   0  0  0  0  0  0
  -23.9995   -7.4617   22.7441 H   0  0  0  0  0  0
  -21.0847   -8.8784   19.8932 H   0  0  0  0  0  0
  -22.3707  -10.9680   19.6167 H   0  0  0  0  0  0
  -21.2001   -7.6133   23.9723 H   0  0  0  0  0  0
  -21.1500   -6.0512   25.9077 H   0  0  0  0  0  0
  -22.0590   -2.7602   23.2858 H   0  0  0  0  0  0
  -22.4090  -11.9883   22.4811 H   0  0  0  0  0  0
  -21.1096  -13.1247   22.2623 H   0  0  0  0  0  0
  -24.6553  -15.8401   20.4918 H   0  0  0  0  0  0
  -26.2721  -15.6164   20.0519 H   0  0  0  0  0  0
  -26.7144  -32.5522   23.1131 H   0  0  0  0  0  0
  -25.0088  -33.9752   25.0494 H   0  0  0  0  0  0
  -22.6952  -31.3083   21.4134 H   0  0  0  0  0  0
  -23.3759  -35.9631   23.3308 H   0  0  0  0  0  0
  -24.3583  -36.8910   22.2054 H   0  0  0  0  0  0
  -23.7225  -37.6515   23.6630 H   0  0  0  0  0  0
  -26.0530  -31.5790   20.5870 H   0  0  0  0  0  0
  -26.8294  -30.8798   21.9780 H   0  0  0  0  0  0
  -28.1058  -29.0724   21.1465 H   0  0  0  0  0  0
  -25.9592  -25.9663   19.0070 H   0  0  0  0  0  0
  -23.9602  -27.2992   19.0526 H   0  0  0  0  0  0
  -23.7277  -30.5972   19.4062 H   0  0  0  0  0  0
  -22.7373  -29.2472   19.8704 H   0  0  0  0  0  0
  -25.1281  -36.1991   25.0837 H   0  0  0  0  0  0
  -20.9950  -28.3229   24.1453 H   0  0  0  0  0  0
  -20.5685  -26.2277   23.3606 H   0  0  0  0  0  0
  -21.6636  -26.7445   22.1216 H   0  0  0  0  0  0
  -19.6917  -25.6297   21.1231 H   0  0  0  0  0  0
  -19.6680  -27.3203   20.6766 H   0  0  0  0  0  0
  -17.4199  -26.6661   21.4019 H   0  0  0  0  0  0
  -18.0322  -26.0027   22.9006 H   0  0  0  0  0  0
  -19.7927  -30.7230   24.2300 H   0  0  0  0  0  0
  -17.5014  -31.6255   24.5160 H   0  0  0  0  0  0
  -15.5353  -30.2999   23.7605 H   0  0  0  0  0  0
  -15.8662  -28.0809   22.7073 H   0  0  0  0  0  0
  -24.5931  -30.7004   25.7788 H   0  0  0  0  0  0
  -24.8891  -32.2830   26.4860 H   0  0  0  0  0  0
  -25.8085  -30.8884   27.0213 H   0  0  0  0  0  0
  -26.2831  -29.6810   24.1071 H   0  0  0  0  0  0
  -27.4074  -29.7217   25.4472 H   0  0  0  0  0  0
  -27.8665  -30.4364   23.9180 H   0  0  0  0  0  0
  -27.2692  -33.3590   26.2036 H   0  0  0  0  0  0
  -28.3861  -32.6824   25.0270 H   0  0  0  0  0  0
  -28.0717  -31.8385   26.5367 H   0  0  0  0  0  0
  -28.2624  -38.0100   24.7529 H   0  0  0  0  0  0
  -28.1063  -36.2637   24.6285 H   0  0  0  0  0  0
  -27.2307  -37.1463   25.8881 H   0  0  0  0  0  0
  -20.9329  -29.8769   21.6958 H   0  0  0  0  0  0
  -26.0196  -38.2890   24.1391 H   0  0  0  0  0  0
  -26.1554  -23.3665   21.2950 H   0  0  0  0  0  0
  -26.9626  -19.1781   21.0170 H   0  0  0  0  0  0
  -30.9000  -20.6118   18.7539 H   0  0  0  0  0  0
  -32.0364  -21.9545   18.7065 H   0  0  0  0  0  0
  -30.3773  -22.1893   18.1761 H   0  0  0  0  0  0
  -25.0058  -19.2624   22.4065 H   0  0  0  0  0  0
  -24.7087  -19.1544   20.6512 H   0  0  0  0  0  0
  -23.4772  -19.8001   21.7231 H   0  0  0  0  0  0
  -29.5737  -24.5049   21.4999 H   0  0  0  0  0  0
  -27.9139  -24.7991   21.7946 H   0  0  0  0  0  0
  -31.0933  -17.2487   21.4221 H   0  0  0  0  0  0
  -30.8358  -17.1135   19.7048 H   0  0  0  0  0  0
  -27.6446  -24.9140   19.1619 H   0  0  0  0  0  0
  -29.3459  -25.0850   19.1489 H   0  0  0  0  0  0
  -28.4401  -17.7867   19.9744 H   0  0  0  0  0  0
  -28.6816  -17.9115   21.7187 H   0  0  0  0  0  0
  -30.8011  -23.1778   20.4020 H   0  0  0  0  0  0
  -28.9832  -15.4073   21.1523 H   0  0  0  0  0  0
  1 25  1  0  0  0
  1 30  2  0  0  0
  1 84  1  0  0  0
  2  3  1  0  0  0
  2 25  1  0  0  0
  2 88  1  0  0  0
  2 89  1  0  0  0
  3  4  1  0  0  0
  3 90  1  0  0  0
  3 91  1  0  0  0
  4  5  1  0  0  0
  4 92  1  0  0  0
  4 93  1  0  0  0
  5  6  1  0  0  0
  5 26  1  0  0  0
  5 94  1  0  0  0
  6 25  1  0  0  0
  6 95  1  0  0  0
  6 96  1  0  0  0
  7  8  2  0  0  0
  7 26  1  0  0  0
  7 29  1  0  0  0
  8  9  1  0  0  0
  8 22  1  0  0  0
  9 10  1  0  0  0
  9 27  2  0  0  0
 10 11  2  0  0  0
 10 15  1  0  0  0
 11 12  1  0  0  0
 11 97  1  0  0  0
 12 13  2  0  0  0
 12 98  1  0  0  0
 13 14  1  0  0  0
 13 31  1  0  0  0
 14 15  2  0  0  0
 14 99  1  0  0  0
 15100  1  0  0  0
 16 17  2  0  0  0
 16 21  1  0  0  0
 16 31  1  0  0  0
 17 18  1  0  0  0
 17101  1  0  0  0
 18 19  2  0  0  0
 18102  1  0  0  0
 19 20  1  0  0  0
 19 24  1  0  0  0
 20 21  2  0  0  0
 20103  1  0  0  0
 21 23  1  0  0  0
 22 28  1  0  0  0
 22 32  2  0  0  0
 26 27  1  0  0  0
 28104  1  0  0  0
 28105  1  0  0  0
 29106  1  0  0  0
 29107  1  0  0  0
 33 34  1  0  0  0
 33 66  1  0  0  0
 33 70  2  0  0  0
 34 36  1  0  0  0
 34 59  1  0  0  0
 34108  1  0  0  0
 35 44  2  0  0  0
 35 45  1  0  0  0
 35 68  1  0  0  0
 36 56  1  0  0  0
 36109  1  0  0  0
 37 39  1  0  0  0
 37 47  1  0  0  0
 37 66  1  0  0  0
 37110  1  0  0  0
 38 43  2  0  0  0
 38 46  1  0  0  0
 38 47  1  0  0  0
 39 64  1  0  0  0
 39 67  2  0  0  0
 40 52  1  0  0  0
 40 53  2  0  0  0
 40 58  1  0  0  0
 41111  1  0  0  0
 41112  1  0  0  0
 41113  1  0  0  0
 41 48  1  0  0  0
 42 43  1  0  0  0
 42 66  1  0  0  0
 42114  1  0  0  0
 42115  1  0  0  0
 43 44  1  0  0  0
 44116  1  0  0  0
 45 46  2  0  0  0
 45117  1  0  0  0
 46118  1  0  0  0
 47119  1  0  0  0
 47120  1  0  0  0
 48 56  1  0  0  0
 48 65  1  0  0  0
 48121  1  0  0  0
 49 50  1  0  0  0
 49 53  1  0  0  0
 49 64  1  0  0  0
 49122  1  0  0  0
 50 51  1  0  0  0
 50123  1  0  0  0
 50124  1  0  0  0
 51 52  1  0  0  0
 51125  1  0  0  0
 51126  1  0  0  0
 52127  1  0  0  0
 52128  1  0  0  0
 53 54  1  0  0  0
 54 55  2  0  0  0
 54129  1  0  0  0
 55 57  1  0  0  0
 55130  1  0  0  0
 56 69  2  0  0  0
 57 58  2  0  0  0
 57131  1  0  0  0
 58132  1  0  0  0
 59 60  1  0  0  0
 59 61  1  0  0  0
 59 62  1  0  0  0
 60133  1  0  0  0
 60134  1  0  0  0
 60135  1  0  0  0
 61136  1  0  0  0
 61137  1  0  0  0
 61138  1  0  0  0
 62139  1  0  0  0
 62140  1  0  0  0
 62141  1  0  0  0
 63 65  1  0  0  0
 63142  1  0  0  0
 63143  1  0  0  0
 63144  1  0  0  0
 64145  1  0  0  0
 65146  1  0  0  0
 68 81  1  0  0  0
 71 73  2  0  0  0
 71 75  1  0  0  0
 71147  1  0  0  0
 72 75  2  0  0  0
 72 76  1  0  0  0
 72148  1  0  0  0
 73 74  1  0  0  0
 73 79  1  0  0  0
 74 76  2  0  0  0
 74 83  1  0  0  0
 75 85  1  0  0  0
 76 86  1  0  0  0
 77149  1  0  0  0
 77150  1  0  0  0
 77151  1  0  0  0
 77 83  1  0  0  0
 78 85  1  0  0  0
 78152  1  0  0  0
 78153  1  0  0  0
 78154  1  0  0  0
 79 81  1  0  0  0
 79155  1  0  0  0
 79156  1  0  0  0
 80 82  1  0  0  0
 80 84  1  0  0  0
 80157  1  0  0  0
 80158  1  0  0  0
 81159  1  0  0  0
 81160  1  0  0  0
 82 86  1  0  0  0
 82161  1  0  0  0
 82162  1  0  0  0
 83 87  1  0  0  0
 83163  1  0  0  0
 84164  1  0  0  0
M  ISO  4   1 100  68 101  81 101  84 100
M  END
> <chiral flag>
0

> <version>
0

> <s_m_source_file>
/data/baiqing/PycharmProjects/Reinvent-master-3.2/result/LINK_invent/BTK/process_docking_weight1_custom_sum_contain_oxygen_bond_distance_aromatic_linkinvent_7_9_3/rearranged_h_0150.sdf

> <i_m_source_file_index>
62

> <r_mmod_Potential_Energy-OPLS-2005>
-35.2375183105469

> <r_mmod_Stretch_Energy-OPLS-2005>
51.9195289611816

> <r_mmod_Bend_Energy-OPLS-2005>
126.754745483398

> <r_mmod_Torsional_Energy-OPLS-2005>
202.935455322266

> <r_mmod_Improper_Torsional_Energy-OPLS-2005>
5.49340486526489

> <r_mmod_Van_der_Waal_Energy-OPLS-2005>
160.024551391602

> <r_mmod_Electrostatic_Energy-OPLS-2005>
-383.326477050781

> <r_mmod_Solvation_Energy-OPLS-2005>
-218.135437011719

> <b_mmod_Minimization_Converged-OPLS-2005>
0

> <r_mmod_RMS_Derivative-OPLS-2005>
2.38971853256226

$$$$
62
                    3D
 Structure written by MMmdl.
158167  0  0  1  0            999 V2000
  -30.6632  -14.6468   20.4652 C   0  0  0  0  0  0
  -30.4188  -12.3928   19.4647 C   0  0  0  0  0  0
  -29.5022  -12.4951   18.2279 C   0  0  0  0  0  0
  -28.0261  -12.3388   18.6399 C   0  0  0  0  0  0
  -27.6440  -13.2292   19.8534 C   0  0  2  0  0  0
  -28.6883  -13.1393   20.9883 C   0  0  0  0  0  0
  -25.2515  -13.8203   20.5694 C   0  0  0  0  0  0
  -24.1804  -13.0446   20.9204 C   0  0  0  0  0  0
  -24.6393  -11.6923   20.8748 C   0  0  0  0  0  0
  -23.9071  -10.4298   21.0408 C   0  0  0  0  0  0
  -24.3621   -9.4211   21.9184 C   0  0  0  0  0  0
  -23.6295   -8.2246   22.0754 C   0  0  0  0  0  0
  -22.4278   -8.0283   21.3545 C   0  0  0  0  0  0
  -21.9914   -9.0258   20.4647 C   0  0  0  0  0  0
  -22.7244  -10.2137   20.3056 C   0  0  0  0  0  0
  -21.6855   -6.0737   22.5279 C   0  0  0  0  0  0
  -21.4016   -6.5641   23.8213 C   0  0  0  0  0  0
  -21.3657   -5.6794   24.9174 C   0  0  0  0  0  0
  -21.6044   -4.3057   24.7226 C   0  0  0  0  0  0
  -21.8818   -3.8147   23.4348 C   0  0  0  0  0  0
  -21.9194   -4.6964   22.3404 C   0  0  0  0  0  0
  -22.7825  -13.5225   21.1862 C   0  0  0  0  0  0
  -22.1661   -4.2150   21.0982 F   0  0  0  0  0  0
  -21.5627   -3.4540   25.7739 F   0  0  0  0  0  0
  -29.9988  -13.4504   20.4076 N   0  0  0  0  0  0
  -26.2945  -12.9408   20.3295 N   0  0  0  0  0  0
  -25.9323  -11.6551   20.5759 N   0  0  0  0  0  0
  -22.0473  -12.8213   22.0419 N   0  0  0  0  0  0
  -25.4202  -15.1927   20.4111 N   0  0  0  0  0  0
  -31.8552  -14.7121   20.1564 O   0  0  0  0  0  0
  -21.6642   -6.8880   21.4241 O   0  0  0  0  0  0
  -22.3507  -14.5529   20.6711 O   0  0  0  0  0  0
  -24.6258  -31.8598   23.2026 C   0  0  0  0  0  0
  -25.9106  -32.4779   23.8356 C   0  0  1  0  0  0
  -27.2191  -27.3220   20.1278 C   0  0  0  0  0  0
  -25.5923  -33.8581   24.2285 N   0  0  0  0  0  0
  -23.4195  -30.4829   21.5448 C   0  0  2  0  0  0
  -24.8668  -28.9366   20.1117 C   0  0  0  0  0  0
  -22.7473  -29.4624   22.4938 C   0  0  0  0  0  0
  -18.0284  -28.1385   22.8488 C   0  0  0  0  0  0
  -24.1488  -36.7293   23.2638 C   0  0  0  0  0  0
  -25.9596  -30.7928   21.3719 C   0  0  0  0  0  0
  -26.0352  -29.4196   20.7162 C   0  0  0  0  0  0
  -27.2190  -28.6244   20.7123 C   0  0  0  0  0  0
  -26.0351  -26.8901   19.4950 C   0  0  0  0  0  0
  -24.8678  -27.6772   19.4909 C   0  0  0  0  0  0
  -23.6345  -29.8167   20.1603 C   0  0  0  0  0  0
  -25.4112  -36.3087   24.0332 C   0  0  1  0  0  0
  -20.5885  -28.3690   23.1283 C   0  0  2  0  0  0
  -20.6776  -26.9414   22.5410 C   0  0  0  0  0  0
  -19.5753  -26.6386   21.5212 C   0  0  0  0  0  0
  -18.1930  -26.7929   22.1621 C   0  0  0  0  0  0
  -19.1537  -28.8853   23.2881 C   0  0  0  0  0  0
  -18.9461  -30.1455   23.8900 C   0  0  0  0  0  0
  -17.6462  -30.6589   24.0564 C   0  0  0  0  0  0
  -25.9049  -34.9455   23.5110 C   0  0  0  0  0  0
  -16.5353  -29.9089   23.6331 C   0  0  0  0  0  0
  -16.7272  -28.6503   23.0357 C   0  0  0  0  0  0
  -26.4494  -31.6585   25.0722 C   0  0  0  0  0  0
  -25.3730  -31.3714   26.1450 C   0  0  0  0  0  0
  -27.0337  -30.3013   24.6167 C   0  0  0  0  0  0
  -27.6059  -32.4316   25.7491 C   0  0  0  0  0  0
  -27.5581  -37.1798   24.8464 C   0  0  0  0  0  0
  -21.4186  -29.3040   22.3676 N   0  0  0  0  0  0
  -26.4290  -37.3782   23.9411 N   0  0  0  0  0  0
  -24.6872  -31.0614   22.0971 N   0  0  0  0  0  0
  -23.4194  -28.8167   23.3023 O   0  0  0  0  0  0
  -28.3168  -26.4549   20.1553 O   0  0  0  0  0  0
  -26.5618  -34.8920   22.4676 O   0  0  0  0  0  0
  -23.5423  -32.1394   23.7358 O   0  0  0  0  0  0
  -29.4874  -20.8227   19.6304 C   0  0  0  0  0  0
  -28.7246  -20.3462   21.8728 C   0  0  0  0  0  0
  -29.8862  -19.4547   19.5346 C   0  0  0  0  0  0
  -29.7445  -18.5230   20.5761 C   0  0  0  0  0  0
  -29.1427  -18.9791   21.7724 C   0  0  0  0  0  0
  -28.8998  -21.3081   20.8308 C   0  0  0  0  0  0
  -30.5673  -18.8226   18.3492 C   0  0  0  0  0  0
  -30.6911  -17.3218   18.7146 C   0  0  0  0  0  0
  -30.4617  -17.1730   20.2437 C   0  0  2  0  0  0
  -28.9818  -18.0425   22.9541 C   0  0  0  0  0  0
  -28.0901  -25.1286   20.7799 C   0  0  0  0  0  0
  -28.7079  -23.7781   20.1884 C   0  0  0  0  0  0
  -29.9346  -15.8046   20.6069 N   0  0  0  0  0  0
  -28.4812  -22.6334   21.0792 O   0  0  0  0  0  0
  -31.4643  -12.4867   19.1657 H   0  0  0  0  0  0
  -30.3298  -11.4111   19.9324 H   0  0  0  0  0  0
  -29.7687  -11.7320   17.4953 H   0  0  0  0  0  0
  -29.6489  -13.4578   17.7353 H   0  0  0  0  0  0
  -27.8652  -11.2889   18.8867 H   0  0  0  0  0  0
  -27.3727  -12.5540   17.7935 H   0  0  0  0  0  0
  -27.6474  -14.2556   19.4861 H   0  0  0  0  0  0
  -28.6978  -12.1420   21.4301 H   0  0  0  0  0  0
  -28.4431  -13.8312   21.7959 H   0  0  0  0  0  0
  -25.2765   -9.5687   22.4759 H   0  0  0  0  0  0
  -24.0005   -7.4638   22.7474 H   0  0  0  0  0  0
  -21.0846   -8.8777   19.8953 H   0  0  0  0  0  0
  -22.3702  -10.9675   19.6166 H   0  0  0  0  0  0
  -21.2010   -7.6148   23.9716 H   0  0  0  0  0  0
  -21.1479   -6.0524   25.9077 H   0  0  0  0  0  0
  -22.0599   -2.7610   23.2850 H   0  0  0  0  0  0
  -22.4095  -11.9876   22.4806 H   0  0  0  0  0  0
  -21.1088  -13.1233   22.2625 H   0  0  0  0  0  0
  -24.6510  -15.8444   20.5216 H   0  0  0  0  0  0
  -26.2652  -15.6348   20.0726 H   0  0  0  0  0  0
  -26.7175  -32.5452   23.1107 H   0  0  0  0  0  0
  -25.0075  -33.9728   25.0434 H   0  0  0  0  0  0
  -22.7133  -31.3035   21.4014 H   0  0  0  0  0  0
  -23.3754  -35.9620   23.3299 H   0  0  0  0  0  0
  -24.3581  -36.8917   22.2053 H   0  0  0  0  0  0
  -23.7234  -37.6491   23.6662 H   0  0  0  0  0  0
  -26.0883  -31.5554   20.6024 H   0  0  0  0  0  0
  -26.8411  -30.8438   21.9995 H   0  0  0  0  0  0
  -28.1167  -28.9885   21.1921 H   0  0  0  0  0  0
  -26.0058  -25.9215   19.0161 H   0  0  0  0  0  0
  -23.9727  -27.3023   19.0136 H   0  0  0  0  0  0
  -23.7531  -30.5926   19.4033 H   0  0  0  0  0  0
  -22.7545  -29.2456   19.8588 H   0  0  0  0  0  0
  -25.1291  -36.1940   25.0824 H   0  0  0  0  0  0
  -20.9977  -28.3268   24.1405 H   0  0  0  0  0  0
  -20.5679  -26.2301   23.3611 H   0  0  0  0  0  0
  -21.6645  -26.7446   22.1205 H   0  0  0  0  0  0
  -19.6918  -25.6297   21.1243 H   0  0  0  0  0  0
  -19.6693  -27.3196   20.6742 H   0  0  0  0  0  0
  -17.4202  -26.6679   21.4020 H   0  0  0  0  0  0
  -18.0328  -26.0068   22.9014 H   0  0  0  0  0  0
  -19.7938  -30.7267   24.2274 H   0  0  0  0  0  0
  -17.5019  -31.6271   24.5163 H   0  0  0  0  0  0
  -15.5354  -30.2993   23.7657 H   0  0  0  0  0  0
  -15.8670  -28.0823   22.7079 H   0  0  0  0  0  0
  -24.5924  -30.7041   25.7780 H   0  0  0  0  0  0
  -24.8895  -32.2872   26.4861 H   0  0  0  0  0  0
  -25.8061  -30.8910   27.0232 H   0  0  0  0  0  0
  -26.2908  -29.6761   24.1202 H   0  0  0  0  0  0
  -27.4053  -29.7271   25.4663 H   0  0  0  0  0  0
  -27.8768  -30.4306   23.9378 H   0  0  0  0  0  0
  -27.2683  -33.3625   26.2061 H   0  0  0  0  0  0
  -28.3873  -32.6861   25.0318 H   0  0  0  0  0  0
  -28.0722  -31.8441   26.5410 H   0  0  0  0  0  0
  -28.2592  -38.0103   24.7528 H   0  0  0  0  0  0
  -28.1086  -36.2636   24.6271 H   0  0  0  0  0  0
  -27.2302  -37.1425   25.8867 H   0  0  0  0  0  0
  -20.9366  -29.8758   21.6880 H   0  0  0  0  0  0
  -26.0173  -38.2855   24.1423 H   0  0  0  0  0  0
  -29.6504  -21.4877   18.7940 H   0  0  0  0  0  0
  -28.2767  -20.6827   22.7977 H   0  0  0  0  0  0
  -31.5518  -19.2739   18.2203 H   0  0  0  0  0  0
  -29.9981  -18.9749   17.4316 H   0  0  0  0  0  0
  -31.6287  -16.8806   18.3744 H   0  0  0  0  0  0
  -29.8901  -16.7950   18.1936 H   0  0  0  0  0  0
  -31.4320  -17.2668   20.7357 H   0  0  0  0  0  0
  -28.6804  -18.5808   23.8531 H   0  0  0  0  0  0
  -29.9208  -17.5320   23.1705 H   0  0  0  0  0  0
  -28.2238  -17.2885   22.7409 H   0  0  0  0  0  0
  -28.4797  -25.2318   21.7931 H   0  0  0  0  0  0
  -27.0243  -24.9514   20.9261 H   0  0  0  0  0  0
  -29.7813  -23.8993   20.0401 H   0  0  0  0  0  0
  -28.2701  -23.5708   19.2114 H   0  0  0  0  0  0
  -28.9529  -15.7222   20.8191 H   0  0  0  0  0  0
  1 25  1  0  0  0
  1 30  2  0  0  0
  1 83  1  0  0  0
  2  3  1  0  0  0
  2 25  1  0  0  0
  2 85  1  0  0  0
  2 86  1  0  0  0
  3  4  1  0  0  0
  3 87  1  0  0  0
  3 88  1  0  0  0
  4  5  1  0  0  0
  4 89  1  0  0  0
  4 90  1  0  0  0
  5  6  1  0  0  0
  5 26  1  0  0  0
  5 91  1  0  0  0
  6 25  1  0  0  0
  6 92  1  0  0  0
  6 93  1  0  0  0
  7  8  2  0  0  0
  7 26  1  0  0  0
  7 29  1  0  0  0
  8  9  1  0  0  0
  8 22  1  0  0  0
  9 10  1  0  0  0
  9 27  2  0  0  0
 10 11  2  0  0  0
 10 15  1  0  0  0
 11 12  1  0  0  0
 11 94  1  0  0  0
 12 13  2  0  0  0
 12 95  1  0  0  0
 13 14  1  0  0  0
 13 31  1  0  0  0
 14 15  2  0  0  0
 14 96  1  0  0  0
 15 97  1  0  0  0
 16 17  2  0  0  0
 16 21  1  0  0  0
 16 31  1  0  0  0
 17 18  1  0  0  0
 17 98  1  0  0  0
 18 19  2  0  0  0
 18 99  1  0  0  0
 19 20  1  0  0  0
 19 24  1  0  0  0
 20 21  2  0  0  0
 20100  1  0  0  0
 21 23  1  0  0  0
 22 28  1  0  0  0
 22 32  2  0  0  0
 26 27  1  0  0  0
 28101  1  0  0  0
 28102  1  0  0  0
 29103  1  0  0  0
 29104  1  0  0  0
 33 34  1  0  0  0
 33 66  1  0  0  0
 33 70  2  0  0  0
 34 36  1  0  0  0
 34 59  1  0  0  0
 34105  1  0  0  0
 35 44  2  0  0  0
 35 45  1  0  0  0
 35 68  1  0  0  0
 36 56  1  0  0  0
 36106  1  0  0  0
 37 39  1  0  0  0
 37 47  1  0  0  0
 37 66  1  0  0  0
 37107  1  0  0  0
 38 43  2  0  0  0
 38 46  1  0  0  0
 38 47  1  0  0  0
 39 64  1  0  0  0
 39 67  2  0  0  0
 40 52  1  0  0  0
 40 53  2  0  0  0
 40 58  1  0  0  0
 41108  1  0  0  0
 41109  1  0  0  0
 41110  1  0  0  0
 41 48  1  0  0  0
 42 43  1  0  0  0
 42 66  1  0  0  0
 42111  1  0  0  0
 42112  1  0  0  0
 43 44  1  0  0  0
 44113  1  0  0  0
 45 46  2  0  0  0
 45114  1  0  0  0
 46115  1  0  0  0
 47116  1  0  0  0
 47117  1  0  0  0
 48 56  1  0  0  0
 48 65  1  0  0  0
 48118  1  0  0  0
 49 50  1  0  0  0
 49 53  1  0  0  0
 49 64  1  0  0  0
 49119  1  0  0  0
 50 51  1  0  0  0
 50120  1  0  0  0
 50121  1  0  0  0
 51 52  1  0  0  0
 51122  1  0  0  0
 51123  1  0  0  0
 52124  1  0  0  0
 52125  1  0  0  0
 53 54  1  0  0  0
 54 55  2  0  0  0
 54126  1  0  0  0
 55 57  1  0  0  0
 55127  1  0  0  0
 56 69  2  0  0  0
 57 58  2  0  0  0
 57128  1  0  0  0
 58129  1  0  0  0
 59 60  1  0  0  0
 59 61  1  0  0  0
 59 62  1  0  0  0
 60130  1  0  0  0
 60131  1  0  0  0
 60132  1  0  0  0
 61133  1  0  0  0
 61134  1  0  0  0
 61135  1  0  0  0
 62136  1  0  0  0
 62137  1  0  0  0
 62138  1  0  0  0
 63 65  1  0  0  0
 63139  1  0  0  0
 63140  1  0  0  0
 63141  1  0  0  0
 64142  1  0  0  0
 65143  1  0  0  0
 68 81  1  0  0  0
 71 73  2  0  0  0
 71 76  1  0  0  0
 71144  1  0  0  0
 72 75  1  0  0  0
 72 76  2  0  0  0
 72145  1  0  0  0
 73 74  1  0  0  0
 73 77  1  0  0  0
 74 75  2  0  0  0
 74 79  1  0  0  0
 75 80  1  0  0  0
 76 84  1  0  0  0
 77 78  1  0  0  0
 77146  1  0  0  0
 77147  1  0  0  0
 78 79  1  0  0  0
 78148  1  0  0  0
 78149  1  0  0  0
 79 83  1  0  0  0
 79150  1  0  0  0
 80151  1  0  0  0
 80152  1  0  0  0
 80153  1  0  0  0
 81 82  1  0  0  0
 81154  1  0  0  0
 81155  1  0  0  0
 82 84  1  0  0  0
 82156  1  0  0  0
 82157  1  0  0  0
 83158  1  0  0  0
M  ISO  4   1 100  68 101  81 101  83 100
M  END
> <chiral flag>
0

> <version>
0

> <s_m_source_file>
/data/baiqing/PycharmProjects/Reinvent-master-3.2/result/LINK_invent/BTK/process_docking_weight1_custom_sum_contain_oxygen_bond_distance_aromatic_linkinvent_7_9_3/rearranged_h_0150.sdf

> <i_m_source_file_index>
63

> <r_mmod_Potential_Energy-OPLS-2005>
86.0633697509766

> <r_mmod_Stretch_Energy-OPLS-2005>
77.9014129638672

> <r_mmod_Bend_Energy-OPLS-2005>
196.211898803711

> <r_mmod_Torsional_Energy-OPLS-2005>
231.085098266602

> <r_mmod_Improper_Torsional_Energy-OPLS-2005>
7.17797327041626

> <r_mmod_Van_der_Waal_Energy-OPLS-2005>
133.321533203125

> <r_mmod_Electrostatic_Energy-OPLS-2005>
-406.807281494141

> <r_mmod_Solvation_Energy-OPLS-2005>
-206.664276123047

> <b_mmod_Minimization_Converged-OPLS-2005>
0

> <r_mmod_RMS_Derivative-OPLS-2005>
0.313903898000717

$$$$
63
                    3D
 Structure written by MMmdl.
168178  0  0  1  0            999 V2000
  -30.5931  -14.8745   20.4413 C   0  0  0  0  0  0
  -30.4401  -12.5396   19.4908 C   0  0  0  0  0  0
  -29.5223  -12.5335   18.2468 C   0  0  0  0  0  0
  -28.0492  -12.3450   18.6573 C   0  0  0  0  0  0
  -27.6435  -13.2437   19.8567 C   0  0  2  0  0  0
  -28.6948  -13.2179   20.9874 C   0  0  0  0  0  0
  -25.2503  -13.8171   20.5692 C   0  0  0  0  0  0
  -24.1801  -13.0428   20.9186 C   0  0  0  0  0  0
  -24.6386  -11.6918   20.8726 C   0  0  0  0  0  0
  -23.9054  -10.4297   21.0404 C   0  0  0  0  0  0
  -24.3595   -9.4213   21.9183 C   0  0  0  0  0  0
  -23.6280   -8.2232   22.0738 C   0  0  0  0  0  0
  -22.4259   -8.0275   21.3538 C   0  0  0  0  0  0
  -21.9903   -9.0252   20.4630 C   0  0  0  0  0  0
  -22.7222  -10.2132   20.3046 C   0  0  0  0  0  0
  -21.6833   -6.0720   22.5280 C   0  0  0  0  0  0
  -21.4001   -6.5623   23.8224 C   0  0  0  0  0  0
  -21.3674   -5.6774   24.9170 C   0  0  0  0  0  0
  -21.6069   -4.3037   24.7203 C   0  0  0  0  0  0
  -21.8819   -3.8135   23.4331 C   0  0  0  0  0  0
  -21.9170   -4.6953   22.3378 C   0  0  0  0  0  0
  -22.7823  -13.5246   21.1816 C   0  0  0  0  0  0
  -22.1631   -4.2129   21.0961 F   0  0  0  0  0  0
  -21.5648   -3.4520   25.7720 F   0  0  0  0  0  0
  -29.9717  -13.6287   20.3933 N   0  0  0  0  0  0
  -26.2971  -12.9405   20.3324 N   0  0  0  0  0  0
  -25.9339  -11.6541   20.5751 N   0  0  0  0  0  0
  -22.0445  -12.8250   22.0361 N   0  0  0  0  0  0
  -25.4166  -15.1886   20.4110 N   0  0  0  0  0  0
  -31.7723  -14.9280   20.0756 O   0  0  0  0  0  0
  -21.6611   -6.8870   21.4249 O   0  0  0  0  0  0
  -22.3534  -14.5551   20.6661 O   0  0  0  0  0  0
  -24.6440  -31.8472   23.1978 C   0  0  0  0  0  0
  -25.9237  -32.4710   23.8309 C   0  0  1  0  0  0
  -27.2017  -27.1627   20.0931 C   0  0  0  0  0  0
  -25.6005  -33.8517   24.2225 N   0  0  0  0  0  0
  -23.4416  -30.4783   21.5456 C   0  0  2  0  0  0
  -24.8844  -28.9186   20.1080 C   0  0  0  0  0  0
  -22.7525  -29.4593   22.4896 C   0  0  0  0  0  0
  -18.0269  -28.1383   22.8464 C   0  0  0  0  0  0
  -24.1489  -36.7232   23.2638 C   0  0  0  0  0  0
  -26.0022  -30.7215   21.3965 C   0  0  0  0  0  0
  -26.0679  -29.3403   20.7273 C   0  0  0  0  0  0
  -27.2271  -28.4756   20.7167 C   0  0  0  0  0  0
  -25.9943  -26.8695   19.4134 C   0  0  0  0  0  0
  -24.8577  -27.6925   19.4422 C   0  0  0  0  0  0
  -23.6629  -29.8177   20.1626 C   0  0  0  0  0  0
  -25.4120  -36.3036   24.0325 C   0  0  1  0  0  0
  -20.5877  -28.3714   23.1193 C   0  0  2  0  0  0
  -20.6763  -26.9430   22.5370 C   0  0  0  0  0  0
  -19.5758  -26.6367   21.5165 C   0  0  0  0  0  0
  -18.1931  -26.7929   22.1576 C   0  0  0  0  0  0
  -19.1527  -28.8860   23.2825 C   0  0  0  0  0  0
  -18.9470  -30.1444   23.8878 C   0  0  0  0  0  0
  -17.6479  -30.6606   24.0526 C   0  0  0  0  0  0
  -25.9086  -34.9417   23.5069 C   0  0  0  0  0  0
  -16.5358  -29.9097   23.6338 C   0  0  0  0  0  0
  -16.7249  -28.6493   23.0397 C   0  0  0  0  0  0
  -26.4572  -31.6575   25.0747 C   0  0  0  0  0  0
  -25.3767  -31.3714   26.1443 C   0  0  0  0  0  0
  -27.0422  -30.2965   24.6334 C   0  0  0  0  0  0
  -27.6124  -32.4319   25.7518 C   0  0  0  0  0  0
  -27.5567  -37.1772   24.8464 C   0  0  0  0  0  0
  -21.4227  -29.3061   22.3601 N   0  0  0  0  0  0
  -26.4269  -37.3763   23.9421 N   0  0  0  0  0  0
  -24.7167  -31.0345   22.1001 N   0  0  0  0  0  0
  -23.4166  -28.8097   23.3019 O   0  0  0  0  0  0
  -28.2205  -26.1376   20.1539 O   0  0  0  0  0  0
  -26.5644  -34.8909   22.4631 O   0  0  0  0  0  0
  -23.5569  -32.1328   23.7218 O   0  0  0  0  0  0
  -27.9112  -22.1818   19.0337 C   0  0  0  0  0  0
  -29.6632  -21.2371   20.9197 C   0  0  0  0  0  0
  -28.1478  -20.7626   19.1496 C   0  0  0  0  0  0
  -29.0316  -20.1974   20.1323 C   0  0  0  0  0  0
  -28.4680  -23.2147   19.8509 C   0  0  0  0  0  0
  -29.3957  -22.6791   20.8044 C   0  0  0  0  0  0
  -27.9272  -18.8028   17.3644 C   0  0  0  0  0  0
  -27.4233  -20.0701   16.7304 C   0  0  0  0  0  0
  -29.1366  -18.0778   21.8747 C   0  0  0  0  0  0
  -29.1525  -16.5072   21.7917 C   0  0  0  0  0  0
  -30.0456  -17.4191   19.8243 C   0  0  0  0  0  0
  -27.3274  -19.8928   18.2310 C   0  0  0  0  0  0
  -29.0777  -18.5710   20.4291 C   0  0  2  0  0  0
  -30.2643  -24.4557   23.7920 C   0  0  0  0  0  0
  -27.8333  -24.7196   19.6688 C   0  0  0  0  0  0
  -30.4745  -23.2446   22.8811 C   0  0  0  0  0  0
  -29.8461  -16.0776   20.5577 N   0  0  0  0  0  0
  -29.9999  -23.6264   21.5990 O   0  0  0  0  0  0
  -31.4804  -12.6715   19.1867 H   0  0  0  0  0  0
  -30.4053  -11.5744   20.0006 H   0  0  0  0  0  0
  -29.8254  -11.7420   17.5588 H   0  0  0  0  0  0
  -29.6312  -13.4733   17.7053 H   0  0  0  0  0  0
  -27.9177  -11.2949   18.9218 H   0  0  0  0  0  0
  -27.3878  -12.5281   17.8094 H   0  0  0  0  0  0
  -27.6216  -14.2609   19.4672 H   0  0  0  0  0  0
  -28.7737  -12.2255   21.4338 H   0  0  0  0  0  0
  -28.4095  -13.8809   21.8002 H   0  0  0  0  0  0
  -25.2714   -9.5686   22.4788 H   0  0  0  0  0  0
  -23.9999   -7.4616   22.7451 H   0  0  0  0  0  0
  -21.0837   -8.8783   19.8932 H   0  0  0  0  0  0
  -22.3692  -10.9685   19.6172 H   0  0  0  0  0  0
  -21.1989   -7.6136   23.9724 H   0  0  0  0  0  0
  -21.1516   -6.0484   25.9077 H   0  0  0  0  0  0
  -22.0586   -2.7596   23.2816 H   0  0  0  0  0  0
  -22.4059  -11.9947   22.4814 H   0  0  0  0  0  0
  -21.1076  -13.1347   22.2547 H   0  0  0  0  0  0
  -24.6368  -15.8274   20.5122 H   0  0  0  0  0  0
  -26.2600  -15.6378   20.0778 H   0  0  0  0  0  0
  -26.7303  -32.5300   23.1029 H   0  0  0  0  0  0
  -25.0268  -33.9644   25.0446 H   0  0  0  0  0  0
  -22.7460  -31.3074   21.3968 H   0  0  0  0  0  0
  -23.3789  -35.9518   23.3276 H   0  0  0  0  0  0
  -24.3595  -36.8901   22.2065 H   0  0  0  0  0  0
  -23.7222  -37.6418   23.6668 H   0  0  0  0  0  0
  -26.1616  -31.4756   20.6241 H   0  0  0  0  0  0
  -26.8744  -30.7581   22.0380 H   0  0  0  0  0  0
  -28.1205  -28.7926   21.2377 H   0  0  0  0  0  0
  -25.8568  -25.9601   18.8491 H   0  0  0  0  0  0
  -23.9600  -27.3711   18.9307 H   0  0  0  0  0  0
  -23.7980  -30.5932   19.4096 H   0  0  0  0  0  0
  -22.7770  -29.2623   19.8507 H   0  0  0  0  0  0
  -25.1321  -36.1861   25.0825 H   0  0  0  0  0  0
  -20.9973  -28.3313   24.1297 H   0  0  0  0  0  0
  -20.5613  -26.2363   23.3604 H   0  0  0  0  0  0
  -21.6653  -26.7442   22.1203 H   0  0  0  0  0  0
  -19.6962  -25.6260   21.1247 H   0  0  0  0  0  0
  -19.6725  -27.3129   20.6661 H   0  0  0  0  0  0
  -17.4215  -26.6623   21.3972 H   0  0  0  0  0  0
  -18.0393  -26.0050   22.8974 H   0  0  0  0  0  0
  -19.7951  -30.7220   24.2290 H   0  0  0  0  0  0
  -17.5052  -31.6304   24.5093 H   0  0  0  0  0  0
  -15.5373  -30.3006   23.7686 H   0  0  0  0  0  0
  -15.8625  -28.0781   22.7206 H   0  0  0  0  0  0
  -24.6007  -30.7009   25.7750 H   0  0  0  0  0  0
  -24.8882  -32.2861   26.4798 H   0  0  0  0  0  0
  -25.8095  -30.8958   27.0255 H   0  0  0  0  0  0
  -26.3043  -29.6701   24.1320 H   0  0  0  0  0  0
  -27.4010  -29.7284   25.4928 H   0  0  0  0  0  0
  -27.8968  -30.4215   23.9680 H   0  0  0  0  0  0
  -27.2780  -33.3669   26.2006 H   0  0  0  0  0  0
  -28.3976  -32.6793   25.0362 H   0  0  0  0  0  0
  -28.0711  -31.8484   26.5507 H   0  0  0  0  0  0
  -28.2569  -38.0085   24.7577 H   0  0  0  0  0  0
  -28.1095  -36.2639   24.6224 H   0  0  0  0  0  0
  -27.2297  -37.1362   25.8866 H   0  0  0  0  0  0
  -20.9427  -29.8806   21.6811 H   0  0  0  0  0  0
  -26.0136  -38.2822   24.1464 H   0  0  0  0  0  0
  -27.1879  -22.4910   18.2912 H   0  0  0  0  0  0
  -30.3607  -20.9022   21.6741 H   0  0  0  0  0  0
  -29.0041  -18.6678   17.3335 H   0  0  0  0  0  0
  -27.3340  -17.9039   17.1995 H   0  0  0  0  0  0
  -26.5214  -19.9783   16.1297 H   0  0  0  0  0  0
  -28.1771  -20.7543   16.3459 H   0  0  0  0  0  0
  -30.0562  -18.4338   22.3422 H   0  0  0  0  0  0
  -28.3034  -18.4443   22.4765 H   0  0  0  0  0  0
  -28.1233  -16.1466   21.7485 H   0  0  0  0  0  0
  -29.6080  -16.0728   22.6825 H   0  0  0  0  0  0
  -31.0924  -17.7144   19.9131 H   0  0  0  0  0  0
  -29.8601  -17.2533   18.7652 H   0  0  0  0  0  0
  -26.3298  -19.7309   18.6400 H   0  0  0  0  0  0
  -28.0837  -18.2540   20.1119 H   0  0  0  0  0  0
  -30.5744  -24.2450   24.8160 H   0  0  0  0  0  0
  -29.2094  -24.7389   23.8097 H   0  0  0  0  0  0
  -30.8333  -25.3165   23.4410 H   0  0  0  0  0  0
  -26.8340  -24.5312   20.0621 H   0  0  0  0  0  0
  -27.7296  -24.8209   18.5870 H   0  0  0  0  0  0
  -29.9242  -22.4000   23.2981 H   0  0  0  0  0  0
  -31.5305  -22.9704   22.8282 H   0  0  0  0  0  0
  1 25  1  0  0  0
  1 30  2  0  0  0
  1 87  1  0  0  0
  2  3  1  0  0  0
  2 25  1  0  0  0
  2 89  1  0  0  0
  2 90  1  0  0  0
  3  4  1  0  0  0
  3 91  1  0  0  0
  3 92  1  0  0  0
  4  5  1  0  0  0
  4 93  1  0  0  0
  4 94  1  0  0  0
  5  6  1  0  0  0
  5 26  1  0  0  0
  5 95  1  0  0  0
  6 25  1  0  0  0
  6 96  1  0  0  0
  6 97  1  0  0  0
  7  8  2  0  0  0
  7 26  1  0  0  0
  7 29  1  0  0  0
  8  9  1  0  0  0
  8 22  1  0  0  0
  9 10  1  0  0  0
  9 27  2  0  0  0
 10 11  2  0  0  0
 10 15  1  0  0  0
 11 12  1  0  0  0
 11 98  1  0  0  0
 12 13  2  0  0  0
 12 99  1  0  0  0
 13 14  1  0  0  0
 13 31  1  0  0  0
 14 15  2  0  0  0
 14100  1  0  0  0
 15101  1  0  0  0
 16 17  2  0  0  0
 16 21  1  0  0  0
 16 31  1  0  0  0
 17 18  1  0  0  0
 17102  1  0  0  0
 18 19  2  0  0  0
 18103  1  0  0  0
 19 20  1  0  0  0
 19 24  1  0  0  0
 20 21  2  0  0  0
 20104  1  0  0  0
 21 23  1  0  0  0
 22 28  1  0  0  0
 22 32  2  0  0  0
 26 27  1  0  0  0
 28105  1  0  0  0
 28106  1  0  0  0
 29107  1  0  0  0
 29108  1  0  0  0
 33 34  1  0  0  0
 33 66  1  0  0  0
 33 70  2  0  0  0
 34 36  1  0  0  0
 34 59  1  0  0  0
 34109  1  0  0  0
 35 44  2  0  0  0
 35 45  1  0  0  0
 35 68  1  0  0  0
 36 56  1  0  0  0
 36110  1  0  0  0
 37 39  1  0  0  0
 37 47  1  0  0  0
 37 66  1  0  0  0
 37111  1  0  0  0
 38 43  2  0  0  0
 38 46  1  0  0  0
 38 47  1  0  0  0
 39 64  1  0  0  0
 39 67  2  0  0  0
 40 52  1  0  0  0
 40 53  2  0  0  0
 40 58  1  0  0  0
 41112  1  0  0  0
 41113  1  0  0  0
 41114  1  0  0  0
 41 48  1  0  0  0
 42 43  1  0  0  0
 42 66  1  0  0  0
 42115  1  0  0  0
 42116  1  0  0  0
 43 44  1  0  0  0
 44117  1  0  0  0
 45 46  2  0  0  0
 45118  1  0  0  0
 46119  1  0  0  0
 47120  1  0  0  0
 47121  1  0  0  0
 48 56  1  0  0  0
 48 65  1  0  0  0
 48122  1  0  0  0
 49 50  1  0  0  0
 49 53  1  0  0  0
 49 64  1  0  0  0
 49123  1  0  0  0
 50 51  1  0  0  0
 50124  1  0  0  0
 50125  1  0  0  0
 51 52  1  0  0  0
 51126  1  0  0  0
 51127  1  0  0  0
 52128  1  0  0  0
 52129  1  0  0  0
 53 54  1  0  0  0
 54 55  2  0  0  0
 54130  1  0  0  0
 55 57  1  0  0  0
 55131  1  0  0  0
 56 69  2  0  0  0
 57 58  2  0  0  0
 57132  1  0  0  0
 58133  1  0  0  0
 59 60  1  0  0  0
 59 61  1  0  0  0
 59 62  1  0  0  0
 60134  1  0  0  0
 60135  1  0  0  0
 60136  1  0  0  0
 61137  1  0  0  0
 61138  1  0  0  0
 61139  1  0  0  0
 62140  1  0  0  0
 62141  1  0  0  0
 62142  1  0  0  0
 63 65  1  0  0  0
 63143  1  0  0  0
 63144  1  0  0  0
 63145  1  0  0  0
 64146  1  0  0  0
 65147  1  0  0  0
 68 85  1  0  0  0
 71 73  2  0  0  0
 71 75  1  0  0  0
 71148  1  0  0  0
 72 74  2  0  0  0
 72 76  1  0  0  0
 72149  1  0  0  0
 73 74  1  0  0  0
 73 82  1  0  0  0
 74 83  1  0  0  0
 75 76  2  0  0  0
 75 85  1  0  0  0
 76 88  1  0  0  0
 77 78  1  0  0  0
 77 82  1  0  0  0
 77150  1  0  0  0
 77151  1  0  0  0
 78 82  1  0  0  0
 78152  1  0  0  0
 78153  1  0  0  0
 79 80  1  0  0  0
 79 83  1  0  0  0
 79154  1  0  0  0
 79155  1  0  0  0
 80 87  1  0  0  0
 80156  1  0  0  0
 80157  1  0  0  0
 81 83  1  0  0  0
 81 87  1  0  0  0
 81158  1  0  0  0
 81159  1  0  0  0
 82160  1  0  0  0
 83161  1  0  0  0
 84 86  1  0  0  0
 84162  1  0  0  0
 84163  1  0  0  0
 84164  1  0  0  0
 85165  1  0  0  0
 85166  1  0  0  0
 86 88  1  0  0  0
 86167  1  0  0  0
 86168  1  0  0  0
M  ISO  4   1 100  68 101  85 101  87 100
M  END
> <chiral flag>
0

> <version>
0

> <s_m_source_file>
/data/baiqing/PycharmProjects/Reinvent-master-3.2/result/LINK_invent/BTK/process_docking_weight1_custom_sum_contain_oxygen_bond_distance_aromatic_linkinvent_7_9_3/rearranged_h_0150.sdf

> <i_m_source_file_index>
64

> <r_mmod_Potential_Energy-OPLS-2005>
699.647155761719

> <r_mmod_Stretch_Energy-OPLS-2005>
204.763259887695

> <r_mmod_Bend_Energy-OPLS-2005>
325.763061523438

> <r_mmod_Torsional_Energy-OPLS-2005>
359.161560058594

> <r_mmod_Improper_Torsional_Energy-OPLS-2005>
12.9898157119751

> <r_mmod_Van_der_Waal_Energy-OPLS-2005>
137.613189697266

> <r_mmod_Electrostatic_Energy-OPLS-2005>
-293.514007568359

> <r_mmod_Solvation_Energy-OPLS-2005>
-205.261138916016

> <b_mmod_Minimization_Converged-OPLS-2005>
0

> <r_mmod_RMS_Derivative-OPLS-2005>
4.07918643951416

$$$$
64
                    3D
 Structure written by MMmdl.
164174  0  0  1  0            999 V2000
  -30.7125  -14.6935   20.4309 C   0  0  0  0  0  0
  -30.4019  -12.4305   19.4528 C   0  0  0  0  0  0
  -29.4913  -12.4856   18.2135 C   0  0  0  0  0  0
  -28.0206  -12.3246   18.6397 C   0  0  0  0  0  0
  -27.6315  -13.2425   19.8322 C   0  0  2  0  0  0
  -28.6851  -13.2276   20.9588 C   0  0  0  0  0  0
  -25.2495  -13.8238   20.5716 C   0  0  0  0  0  0
  -24.1799  -13.0460   20.9226 C   0  0  0  0  0  0
  -24.6401  -11.6942   20.8758 C   0  0  0  0  0  0
  -23.9083  -10.4306   21.0402 C   0  0  0  0  0  0
  -24.3633   -9.4221   21.9178 C   0  0  0  0  0  0
  -23.6309   -8.2259   22.0752 C   0  0  0  0  0  0
  -22.4286   -8.0296   21.3543 C   0  0  0  0  0  0
  -21.9928   -9.0265   20.4639 C   0  0  0  0  0  0
  -22.7256  -10.2143   20.3047 C   0  0  0  0  0  0
  -21.6867   -6.0745   22.5277 C   0  0  0  0  0  0
  -21.4025   -6.5642   23.8212 C   0  0  0  0  0  0
  -21.3666   -5.6790   24.9170 C   0  0  0  0  0  0
  -21.6044   -4.3053   24.7222 C   0  0  0  0  0  0
  -21.8817   -3.8149   23.4342 C   0  0  0  0  0  0
  -21.9196   -4.6969   22.3400 C   0  0  0  0  0  0
  -22.7815  -13.5230   21.1869 C   0  0  0  0  0  0
  -22.1657   -4.2152   21.0978 F   0  0  0  0  0  0
  -21.5631   -3.4538   25.7736 F   0  0  0  0  0  0
  -29.9728  -13.5406   20.3344 N   0  0  0  0  0  0
  -26.2914  -12.9461   20.3253 N   0  0  0  0  0  0
  -25.9335  -11.6593   20.5763 N   0  0  0  0  0  0
  -22.0448  -12.8223   22.0417 N   0  0  0  0  0  0
  -25.4178  -15.1966   20.4140 N   0  0  0  0  0  0
  -31.9290  -14.5870   20.2889 O   0  0  0  0  0  0
  -21.6652   -6.8890   21.4238 O   0  0  0  0  0  0
  -22.3496  -14.5524   20.6698 O   0  0  0  0  0  0
  -24.6279  -31.8557   23.1973 C   0  0  0  0  0  0
  -25.9111  -32.4753   23.8317 C   0  0  1  0  0  0
  -27.2180  -27.2885   20.1107 C   0  0  0  0  0  0
  -25.5902  -33.8553   24.2238 N   0  0  0  0  0  0
  -23.4209  -30.4785   21.5414 C   0  0  2  0  0  0
  -24.8646  -28.9262   20.1093 C   0  0  0  0  0  0
  -22.7470  -29.4604   22.4919 C   0  0  0  0  0  0
  -18.0284  -28.1390   22.8481 C   0  0  0  0  0  0
  -24.1484  -36.7285   23.2638 C   0  0  0  0  0  0
  -25.9636  -30.7776   21.3699 C   0  0  0  0  0  0
  -26.0345  -29.4017   20.7128 C   0  0  0  0  0  0
  -27.2114  -28.5931   20.7030 C   0  0  0  0  0  0
  -26.0183  -26.8621   19.4996 C   0  0  0  0  0  0
  -24.8598  -27.6638   19.4960 C   0  0  0  0  0  0
  -23.6330  -29.8076   20.1585 C   0  0  0  0  0  0
  -25.4108  -36.3067   24.0324 C   0  0  1  0  0  0
  -20.5885  -28.3681   23.1274 C   0  0  2  0  0  0
  -20.6765  -26.9397   22.5404 C   0  0  0  0  0  0
  -19.5741  -26.6379   21.5206 C   0  0  0  0  0  0
  -18.1927  -26.7930   22.1628 C   0  0  0  0  0  0
  -19.1539  -28.8853   23.2881 C   0  0  0  0  0  0
  -18.9462  -30.1458   23.8894 C   0  0  0  0  0  0
  -17.6460  -30.6591   24.0556 C   0  0  0  0  0  0
  -25.9047  -34.9437   23.5093 C   0  0  0  0  0  0
  -16.5351  -29.9084   23.6332 C   0  0  0  0  0  0
  -16.7272  -28.6507   23.0347 C   0  0  0  0  0  0
  -26.4483  -31.6577   25.0703 C   0  0  0  0  0  0
  -25.3691  -31.3739   26.1414 C   0  0  0  0  0  0
  -27.0319  -30.2989   24.6182 C   0  0  0  0  0  0
  -27.6039  -32.4313   25.7479 C   0  0  0  0  0  0
  -27.5581  -37.1784   24.8455 C   0  0  0  0  0  0
  -21.4180  -29.3035   22.3661 N   0  0  0  0  0  0
  -26.4282  -37.3770   23.9418 N   0  0  0  0  0  0
  -24.6900  -31.0554   22.0927 N   0  0  0  0  0  0
  -23.4189  -28.8142   23.3000 O   0  0  0  0  0  0
  -28.3485  -26.4528   20.1742 O   0  0  0  0  0  0
  -26.5636  -34.8916   22.4670 O   0  0  0  0  0  0
  -23.5440  -32.1367   23.7297 O   0  0  0  0  0  0
  -29.2671  -20.2035   19.0360 C   0  0  0  0  0  0
  -28.5249  -20.6993   21.2585 C   0  0  0  0  0  0
  -29.4369  -18.8232   19.3832 C   0  0  0  0  0  0
  -28.6747  -19.3140   21.6170 C   0  0  0  0  0  0
  -29.1504  -18.3409   20.6806 C   0  0  0  0  0  0
  -28.8298  -21.1936   19.9617 C   0  0  0  0  0  0
  -29.9085  -17.8199   18.3981 C   0  0  0  0  0  0
  -29.3153  -16.7947   21.0233 C   0  0  0  0  0  0
  -28.5287  -19.7434   24.2219 C   0  0  0  0  0  0
  -29.3513  -18.4967   24.0133 C   0  0  0  0  0  0
  -28.2942  -18.8779   23.0028 C   0  0  0  0  0  0
  -30.8000  -16.7107   19.0030 C   0  0  1  0  0  0
  -32.1698  -17.3345   19.3997 C   0  0  0  0  0  0
  -28.4336  -25.1112   19.5271 C   0  0  0  0  0  0
  -28.3391  -23.7128   20.3248 C   0  0  0  0  0  0
  -30.1449  -15.9296   20.1050 N   0  0  0  0  0  0
  -29.6840  -17.9056   17.1879 O   0  0  0  0  0  0
  -28.7391  -22.5398   19.5169 O   0  0  0  0  0  0
  -31.4470  -12.5006   19.1455 H   0  0  0  0  0  0
  -30.3061  -11.4706   19.9627 H   0  0  0  0  0  0
  -29.7646  -11.7018   17.5053 H   0  0  0  0  0  0
  -29.6274  -13.4350   17.6919 H   0  0  0  0  0  0
  -27.8764  -11.2788   18.9153 H   0  0  0  0  0  0
  -27.3612  -12.5060   17.7901 H   0  0  0  0  0  0
  -27.6112  -14.2555   19.4306 H   0  0  0  0  0  0
  -28.7195  -12.2564   21.4525 H   0  0  0  0  0  0
  -28.4395  -13.9640   21.7258 H   0  0  0  0  0  0
  -25.2775   -9.5711   22.4761 H   0  0  0  0  0  0
  -24.0019   -7.4656   22.7484 H   0  0  0  0  0  0
  -21.0860   -8.8785   19.8947 H   0  0  0  0  0  0
  -22.3710  -10.9685   19.6169 H   0  0  0  0  0  0
  -21.2013   -7.6148   23.9720 H   0  0  0  0  0  0
  -21.1495   -6.0515   25.9072 H   0  0  0  0  0  0
  -22.0590   -2.7613   23.2841 H   0  0  0  0  0  0
  -22.4063  -11.9904   22.4841 H   0  0  0  0  0  0
  -21.1053  -13.1246   22.2580 H   0  0  0  0  0  0
  -24.6510  -15.8501   20.5294 H   0  0  0  0  0  0
  -26.2675  -15.6384   20.0886 H   0  0  0  0  0  0
  -26.7163  -32.5404   23.1050 H   0  0  0  0  0  0
  -24.9980  -33.9682   25.0335 H   0  0  0  0  0  0
  -22.7179  -31.3015   21.3961 H   0  0  0  0  0  0
  -23.3756  -35.9608   23.3273 H   0  0  0  0  0  0
  -24.3583  -36.8939   22.2060 H   0  0  0  0  0  0
  -23.7229  -37.6472   23.6683 H   0  0  0  0  0  0
  -26.0957  -31.5383   20.5998 H   0  0  0  0  0  0
  -26.8453  -30.8289   21.9971 H   0  0  0  0  0  0
  -28.1110  -28.9544   21.1812 H   0  0  0  0  0  0
  -25.9336  -25.8874   19.0453 H   0  0  0  0  0  0
  -23.9581  -27.2904   19.0307 H   0  0  0  0  0  0
  -23.7434  -30.5799   19.3970 H   0  0  0  0  0  0
  -22.7541  -29.2315   19.8632 H   0  0  0  0  0  0
  -25.1294  -36.1906   25.0819 H   0  0  0  0  0  0
  -21.0000  -28.3257   24.1385 H   0  0  0  0  0  0
  -20.5648  -26.2287   23.3606 H   0  0  0  0  0  0
  -21.6632  -26.7402   22.1200 H   0  0  0  0  0  0
  -19.6893  -25.6285   21.1242 H   0  0  0  0  0  0
  -19.6689  -27.3182   20.6730 H   0  0  0  0  0  0
  -17.4184  -26.6662   21.4045 H   0  0  0  0  0  0
  -18.0341  -26.0085   22.9039 H   0  0  0  0  0  0
  -19.7938  -30.7281   24.2262 H   0  0  0  0  0  0
  -17.5011  -31.6277   24.5143 H   0  0  0  0  0  0
  -15.5352  -30.2984   23.7663 H   0  0  0  0  0  0
  -15.8672  -28.0829   22.7059 H   0  0  0  0  0  0
  -24.5871  -30.7086   25.7734 H   0  0  0  0  0  0
  -24.8867  -32.2910   26.4800 H   0  0  0  0  0  0
  -25.7979  -30.8934   27.0213 H   0  0  0  0  0  0
  -26.2890  -29.6745   24.1197 H   0  0  0  0  0  0
  -27.3986  -29.7249   25.4704 H   0  0  0  0  0  0
  -27.8776  -30.4263   23.9421 H   0  0  0  0  0  0
  -27.2650  -33.3622   26.2042 H   0  0  0  0  0  0
  -28.3856  -32.6857   25.0306 H   0  0  0  0  0  0
  -28.0691  -31.8437   26.5405 H   0  0  0  0  0  0
  -28.2561  -38.0116   24.7548 H   0  0  0  0  0  0
  -28.1114  -36.2649   24.6220 H   0  0  0  0  0  0
  -27.2303  -37.1355   25.8855 H   0  0  0  0  0  0
  -20.9356  -29.8749   21.6863 H   0  0  0  0  0  0
  -26.0157  -38.2833   24.1463 H   0  0  0  0  0  0
  -29.5075  -20.5178   18.0302 H   0  0  0  0  0  0
  -28.1595  -21.3923   22.0027 H   0  0  0  0  0  0
  -28.3159  -16.3618   21.0779 H   0  0  0  0  0  0
  -29.7373  -16.6991   22.0229 H   0  0  0  0  0  0
  -29.0495  -20.6916   24.1067 H   0  0  0  0  0  0
  -27.7833  -19.7139   25.0144 H   0  0  0  0  0  0
  -29.1456  -17.6484   24.6639 H   0  0  0  0  0  0
  -30.3967  -18.6377   23.7432 H   0  0  0  0  0  0
  -27.3838  -18.2805   22.9799 H   0  0  0  0  0  0
  -30.9953  -16.0064   18.1915 H   0  0  0  0  0  0
  -32.0992  -17.9037   20.3268 H   0  0  0  0  0  0
  -32.5239  -18.0185   18.6270 H   0  0  0  0  0  0
  -32.9655  -16.6018   19.5166 H   0  0  0  0  0  0
  -27.8096  -25.0602   18.6372 H   0  0  0  0  0  0
  -29.4407  -25.1196   19.1088 H   0  0  0  0  0  0
  -27.3194  -23.5693   20.6837 H   0  0  0  0  0  0
  -28.9782  -23.7598   21.2072 H   0  0  0  0  0  0
  1 25  1  0  0  0
  1 30  2  0  0  0
  1 86  1  0  0  0
  2  3  1  0  0  0
  2 25  1  0  0  0
  2 89  1  0  0  0
  2 90  1  0  0  0
  3  4  1  0  0  0
  3 91  1  0  0  0
  3 92  1  0  0  0
  4  5  1  0  0  0
  4 93  1  0  0  0
  4 94  1  0  0  0
  5  6  1  0  0  0
  5 26  1  0  0  0
  5 95  1  0  0  0
  6 25  1  0  0  0
  6 96  1  0  0  0
  6 97  1  0  0  0
  7  8  2  0  0  0
  7 26  1  0  0  0
  7 29  1  0  0  0
  8  9  1  0  0  0
  8 22  1  0  0  0
  9 10  1  0  0  0
  9 27  2  0  0  0
 10 11  2  0  0  0
 10 15  1  0  0  0
 11 12  1  0  0  0
 11 98  1  0  0  0
 12 13  2  0  0  0
 12 99  1  0  0  0
 13 14  1  0  0  0
 13 31  1  0  0  0
 14 15  2  0  0  0
 14100  1  0  0  0
 15101  1  0  0  0
 16 17  2  0  0  0
 16 21  1  0  0  0
 16 31  1  0  0  0
 17 18  1  0  0  0
 17102  1  0  0  0
 18 19  2  0  0  0
 18103  1  0  0  0
 19 20  1  0  0  0
 19 24  1  0  0  0
 20 21  2  0  0  0
 20104  1  0  0  0
 21 23  1  0  0  0
 22 28  1  0  0  0
 22 32  2  0  0  0
 26 27  1  0  0  0
 28105  1  0  0  0
 28106  1  0  0  0
 29107  1  0  0  0
 29108  1  0  0  0
 33 34  1  0  0  0
 33 66  1  0  0  0
 33 70  2  0  0  0
 34 36  1  0  0  0
 34 59  1  0  0  0
 34109  1  0  0  0
 35 44  2  0  0  0
 35 45  1  0  0  0
 35 68  1  0  0  0
 36 56  1  0  0  0
 36110  1  0  0  0
 37 39  1  0  0  0
 37 47  1  0  0  0
 37 66  1  0  0  0
 37111  1  0  0  0
 38 43  2  0  0  0
 38 46  1  0  0  0
 38 47  1  0  0  0
 39 64  1  0  0  0
 39 67  2  0  0  0
 40 52  1  0  0  0
 40 53  2  0  0  0
 40 58  1  0  0  0
 41112  1  0  0  0
 41113  1  0  0  0
 41114  1  0  0  0
 41 48  1  0  0  0
 42 43  1  0  0  0
 42 66  1  0  0  0
 42115  1  0  0  0
 42116  1  0  0  0
 43 44  1  0  0  0
 44117  1  0  0  0
 45 46  2  0  0  0
 45118  1  0  0  0
 46119  1  0  0  0
 47120  1  0  0  0
 47121  1  0  0  0
 48 56  1  0  0  0
 48 65  1  0  0  0
 48122  1  0  0  0
 49 50  1  0  0  0
 49 53  1  0  0  0
 49 64  1  0  0  0
 49123  1  0  0  0
 50 51  1  0  0  0
 50124  1  0  0  0
 50125  1  0  0  0
 51 52  1  0  0  0
 51126  1  0  0  0
 51127  1  0  0  0
 52128  1  0  0  0
 52129  1  0  0  0
 53 54  1  0  0  0
 54 55  2  0  0  0
 54130  1  0  0  0
 55 57  1  0  0  0
 55131  1  0  0  0
 56 69  2  0  0  0
 57 58  2  0  0  0
 57132  1  0  0  0
 58133  1  0  0  0
 59 60  1  0  0  0
 59 61  1  0  0  0
 59 62  1  0  0  0
 60134  1  0  0  0
 60135  1  0  0  0
 60136  1  0  0  0
 61137  1  0  0  0
 61138  1  0  0  0
 61139  1  0  0  0
 62140  1  0  0  0
 62141  1  0  0  0
 62142  1  0  0  0
 63 65  1  0  0  0
 63143  1  0  0  0
 63144  1  0  0  0
 63145  1  0  0  0
 64146  1  0  0  0
 65147  1  0  0  0
 68 84  1  0  0  0
 71 73  2  0  0  0
 71 76  1  0  0  0
 71148  1  0  0  0
 72 74  1  0  0  0
 72 76  2  0  0  0
 72149  1  0  0  0
 73 75  1  0  0  0
 73 77  1  0  0  0
 74 75  2  0  0  0
 74 81  1  0  0  0
 75 78  1  0  0  0
 76 88  1  0  0  0
 77 82  1  0  0  0
 77 87  2  0  0  0
 78 86  1  0  0  0
 78150  1  0  0  0
 78151  1  0  0  0
 79 80  1  0  0  0
 79 81  1  0  0  0
 79152  1  0  0  0
 79153  1  0  0  0
 80 81  1  0  0  0
 80154  1  0  0  0
 80155  1  0  0  0
 81156  1  0  0  0
 82 83  1  0  0  0
 82 86  1  0  0  0
 82157  1  0  0  0
 83158  1  0  0  0
 83159  1  0  0  0
 83160  1  0  0  0
 84 85  1  0  0  0
 84161  1  0  0  0
 84162  1  0  0  0
 85 88  1  0  0  0
 85163  1  0  0  0
 85164  1  0  0  0
M  ISO  4   1 100  68 101  84 101  86 100
M  END
> <chiral flag>
0

> <version>
0

> <s_m_source_file>
/data/baiqing/PycharmProjects/Reinvent-master-3.2/result/LINK_invent/BTK/process_docking_weight1_custom_sum_contain_oxygen_bond_distance_aromatic_linkinvent_7_9_3/rearranged_h_0150.sdf

> <i_m_source_file_index>
65

> <r_mmod_Potential_Energy-OPLS-2005>
327.319915771484

> <r_mmod_Stretch_Energy-OPLS-2005>
106.132583618164

> <r_mmod_Bend_Energy-OPLS-2005>
191.740600585938

> <r_mmod_Torsional_Energy-OPLS-2005>
335.024780273438

> <r_mmod_Improper_Torsional_Energy-OPLS-2005>
22.4205780029297

> <r_mmod_Van_der_Waal_Energy-OPLS-2005>
149.142166137695

> <r_mmod_Electrostatic_Energy-OPLS-2005>
-354.248199462891

> <r_mmod_Solvation_Energy-OPLS-2005>
-204.140075683594

> <b_mmod_Minimization_Converged-OPLS-2005>
0

> <r_mmod_RMS_Derivative-OPLS-2005>
1.65698397159576

$$$$
65
                    3D
 Structure written by MMmdl.
167176  0  0  1  0            999 V2000
  -30.6733  -14.4550   20.6883 C   0  0  0  0  0  0
  -30.4419  -12.3276   19.4218 C   0  0  0  0  0  0
  -29.5031  -12.5240   18.2098 C   0  0  0  0  0  0
  -28.0182  -12.3796   18.6066 C   0  0  0  0  0  0
  -27.6663  -13.1935   19.8762 C   0  0  2  0  0  0
  -28.6976  -12.8879   20.9775 C   0  0  0  0  0  0
  -25.2590  -13.8124   20.5574 C   0  0  0  0  0  0
  -24.1879  -13.0436   20.9152 C   0  0  0  0  0  0
  -24.6437  -11.6891   20.8757 C   0  0  0  0  0  0
  -23.9109  -10.4280   21.0398 C   0  0  0  0  0  0
  -24.3648   -9.4208   21.9193 C   0  0  0  0  0  0
  -23.6314   -8.2254   22.0761 C   0  0  0  0  0  0
  -22.4274   -8.0296   21.3582 C   0  0  0  0  0  0
  -21.9930   -9.0253   20.4658 C   0  0  0  0  0  0
  -22.7263  -10.2135   20.3059 C   0  0  0  0  0  0
  -21.6851   -6.0762   22.5285 C   0  0  0  0  0  0
  -21.3992   -6.5677   23.8211 C   0  0  0  0  0  0
  -21.3656   -5.6823   24.9166 C   0  0  0  0  0  0
  -21.6043   -4.3089   24.7214 C   0  0  0  0  0  0
  -21.8821   -3.8187   23.4331 C   0  0  0  0  0  0
  -21.9185   -4.7005   22.3389 C   0  0  0  0  0  0
  -22.7877  -13.5184   21.1847 C   0  0  0  0  0  0
  -22.1684   -4.2204   21.0955 F   0  0  0  0  0  0
  -21.5649   -3.4562   25.7719 F   0  0  0  0  0  0
  -30.0309  -13.2644   20.4832 N   0  0  0  0  0  0
  -26.3030  -12.9291   20.3306 N   0  0  0  0  0  0
  -25.9350  -11.6471   20.5783 N   0  0  0  0  0  0
  -22.0557  -12.8112   22.0391 N   0  0  0  0  0  0
  -25.4358  -15.1835   20.3858 N   0  0  0  0  0  0
  -31.7117  -14.7467   20.0822 O   0  0  0  0  0  0
  -21.6665   -6.8888   21.4258 O   0  0  0  0  0  0
  -22.3522  -14.5492   20.6713 O   0  0  0  0  0  0
  -24.6157  -31.8620   23.2052 C   0  0  0  0  0  0
  -25.9037  -32.4786   23.8355 C   0  0  1  0  0  0
  -27.2543  -27.4198   20.0992 C   0  0  0  0  0  0
  -25.5867  -33.8599   24.2282 N   0  0  0  0  0  0
  -23.4048  -30.4819   21.5468 C   0  0  2  0  0  0
  -24.8554  -28.9396   20.1096 C   0  0  0  0  0  0
  -22.7429  -29.4654   22.5032 C   0  0  0  0  0  0
  -18.0290  -28.1341   22.8442 C   0  0  0  0  0  0
  -24.1468  -36.7328   23.2650 C   0  0  0  0  0  0
  -25.9346  -30.8187   21.3608 C   0  0  0  0  0  0
  -26.0092  -29.4486   20.7169 C   0  0  0  0  0  0
  -27.2033  -28.6939   20.7103 C   0  0  0  0  0  0
  -26.0796  -26.9267   19.4815 C   0  0  0  0  0  0
  -24.8893  -27.6801   19.4835 C   0  0  0  0  0  0
  -23.6110  -29.7984   20.1646 C   0  0  0  0  0  0
  -25.4097  -36.3123   24.0346 C   0  0  1  0  0  0
  -20.5843  -28.3799   23.1354 C   0  0  2  0  0  0
  -20.6876  -26.9547   22.5460 C   0  0  0  0  0  0
  -19.5924  -26.6459   21.5195 C   0  0  0  0  0  0
  -18.2087  -26.7898   22.1530 C   0  0  0  0  0  0
  -19.1472  -28.8889   23.2844 C   0  0  0  0  0  0
  -18.9328  -30.1563   23.8715 C   0  0  0  0  0  0
  -17.6328  -30.6632   24.0361 C   0  0  0  0  0  0
  -25.9025  -34.9472   23.5141 C   0  0  0  0  0  0
  -16.5273  -29.8997   23.6209 C   0  0  0  0  0  0
  -16.7271  -28.6428   23.0247 C   0  0  0  0  0  0
  -26.4445  -31.6582   25.0698 C   0  0  0  0  0  0
  -25.3723  -31.3715   26.1464 C   0  0  0  0  0  0
  -27.0297  -30.3030   24.6103 C   0  0  0  0  0  0
  -27.6005  -32.4332   25.7451 C   0  0  0  0  0  0
  -27.5571  -37.1821   24.8472 C   0  0  0  0  0  0
  -21.4139  -29.3211   22.3873 N   0  0  0  0  0  0
  -26.4280  -37.3826   23.9420 N   0  0  0  0  0  0
  -24.6693  -31.0709   22.0944 N   0  0  0  0  0  0
  -23.4190  -28.8097   23.2992 O   0  0  0  0  0  0
  -28.4509  -26.7267   20.1484 O   0  0  0  0  0  0
  -26.5652  -34.8940   22.4732 O   0  0  0  0  0  0
  -23.5345  -32.1359   23.7473 O   0  0  0  0  0  0
  -30.1559  -19.7854   20.0139 C   0  0  0  0  0  0
  -28.6769  -20.0565   21.9078 C   0  0  0  0  0  0
  -29.6465  -19.2814   21.2274 C   0  0  0  0  0  0
  -29.7025  -21.0200   19.4925 C   0  0  0  0  0  0
  -28.2394  -21.3086   21.4137 C   0  0  0  0  0  0
  -28.7787  -21.8292   20.2045 C   0  0  0  0  0  0
  -30.2672  -16.3515   23.7226 C   0  0  0  0  0  0
  -29.7040  -17.6731   23.2225 C   0  0  0  0  0  0
  -29.7386  -15.1928   22.8680 C   0  0  0  0  0  0
  -29.6335  -16.7218   20.8924 C   0  0  0  0  0  0
  -30.1206  -17.9168   21.7629 C   0  0  1  0  0  0
  -30.1662  -21.4728   18.1214 C   0  0  0  0  0  0
  -27.1180  -21.9831   22.1785 C   0  0  0  0  0  0
  -28.6167  -25.4414   19.5255 C   0  0  0  0  0  0
  -28.1464  -24.2138   20.3484 C   0  0  0  0  0  0
  -29.9999  -15.3841   21.4277 N   0  0  0  0  0  0
  -28.4069  -23.0206   19.5917 O   0  0  0  0  0  0
  -31.4837  -12.4676   19.1250 H   0  0  0  0  0  0
  -30.3798  -11.2997   19.7911 H   0  0  0  0  0  0
  -29.7464  -11.8086   17.4244 H   0  0  0  0  0  0
  -29.6598  -13.5146   17.7702 H   0  0  0  0  0  0
  -27.8229  -11.3237   18.7913 H   0  0  0  0  0  0
  -27.3697  -12.6663   17.7791 H   0  0  0  0  0  0
  -27.7305  -14.2532   19.6217 H   0  0  0  0  0  0
  -28.6880  -11.8216   21.2042 H   0  0  0  0  0  0
  -28.4037  -13.3519   21.9061 H   0  0  0  0  0  0
  -25.2789   -9.5683   22.4782 H   0  0  0  0  0  0
  -24.0054   -7.4631   22.7445 H   0  0  0  0  0  0
  -21.0886   -8.8760   19.8898 H   0  0  0  0  0  0
  -22.3732  -10.9695   19.6171 H   0  0  0  0  0  0
  -21.1989   -7.6188   23.9734 H   0  0  0  0  0  0
  -21.1469   -6.0554   25.9077 H   0  0  0  0  0  0
  -22.0605   -2.7660   23.2805 H   0  0  0  0  0  0
  -22.4200  -11.9698   22.4632 H   0  0  0  0  0  0
  -21.1199  -13.1138   22.2728 H   0  0  0  0  0  0
  -24.6557  -15.8275   20.4323 H   0  0  0  0  0  0
  -26.2749  -15.6074   20.0111 H   0  0  0  0  0  0
  -26.7107  -32.5464   23.1113 H   0  0  0  0  0  0
  -24.9887  -33.9717   25.0346 H   0  0  0  0  0  0
  -22.6946  -31.2994   21.3992 H   0  0  0  0  0  0
  -23.3733  -35.9661   23.3323 H   0  0  0  0  0  0
  -24.3529  -36.8937   22.2054 H   0  0  0  0  0  0
  -23.7207  -37.6540   23.6646 H   0  0  0  0  0  0
  -26.0553  -31.5696   20.5809 H   0  0  0  0  0  0
  -26.8236  -30.8724   21.9787 H   0  0  0  0  0  0
  -28.0980  -29.0873   21.1741 H   0  0  0  0  0  0
  -26.0682  -25.9641   18.9931 H   0  0  0  0  0  0
  -24.0088  -27.2845   18.9944 H   0  0  0  0  0  0
  -23.7188  -30.5628   19.3943 H   0  0  0  0  0  0
  -22.7380  -29.2039   19.8778 H   0  0  0  0  0  0
  -25.1275  -36.1997   25.0845 H   0  0  0  0  0  0
  -20.9849  -28.3419   24.1509 H   0  0  0  0  0  0
  -20.5788  -26.2395   23.3639 H   0  0  0  0  0  0
  -21.6822  -26.7665   22.1440 H   0  0  0  0  0  0
  -19.7280  -25.6377   21.1231 H   0  0  0  0  0  0
  -19.6878  -27.3254   20.6711 H   0  0  0  0  0  0
  -17.4461  -26.6680   21.3823 H   0  0  0  0  0  0
  -18.0490  -25.9945   22.8839 H   0  0  0  0  0  0
  -19.7769  -30.7523   24.1831 H   0  0  0  0  0  0
  -17.4844  -31.6424   24.4715 H   0  0  0  0  0  0
  -15.5262  -30.2864   23.7502 H   0  0  0  0  0  0
  -15.8728  -28.0704   22.6925 H   0  0  0  0  0  0
  -24.5818  -30.7157   25.7794 H   0  0  0  0  0  0
  -24.9010  -32.2894   26.4985 H   0  0  0  0  0  0
  -25.8053  -30.8783   27.0178 H   0  0  0  0  0  0
  -26.2866  -29.6776   24.1147 H   0  0  0  0  0  0
  -27.4053  -29.7271   25.4565 H   0  0  0  0  0  0
  -27.8682  -30.4351   23.9275 H   0  0  0  0  0  0
  -27.2597  -33.3617   26.2056 H   0  0  0  0  0  0
  -28.3782  -32.6944   25.0258 H   0  0  0  0  0  0
  -28.0722  -31.8459   26.5342 H   0  0  0  0  0  0
  -28.2649  -38.0070   24.7536 H   0  0  0  0  0  0
  -28.1016  -36.2618   24.6293 H   0  0  0  0  0  0
  -27.2289  -37.1488   25.8878 H   0  0  0  0  0  0
  -20.9305  -29.9119   21.7277 H   0  0  0  0  0  0
  -26.0173  -38.2917   24.1410 H   0  0  0  0  0  0
  -30.8760  -19.1986   19.4623 H   0  0  0  0  0  0
  -28.2266  -19.6844   22.8157 H   0  0  0  0  0  0
  -29.9632  -16.2033   24.7611 H   0  0  0  0  0  0
  -31.3563  -16.3774   23.7157 H   0  0  0  0  0  0
  -30.0277  -18.4854   23.8754 H   0  0  0  0  0  0
  -28.6166  -17.6311   23.2960 H   0  0  0  0  0  0
  -30.1546  -14.2524   23.2336 H   0  0  0  0  0  0
  -28.6603  -15.1372   23.0246 H   0  0  0  0  0  0
  -28.5450  -16.7603   20.8259 H   0  0  0  0  0  0
  -29.9977  -16.8387   19.8708 H   0  0  0  0  0  0
  -31.2122  -17.9366   21.7326 H   0  0  0  0  0  0
  -29.3031  -21.8328   17.5580 H   0  0  0  0  0  0
  -30.6110  -20.6579   17.5579 H   0  0  0  0  0  0
  -30.8970  -22.2758   18.2071 H   0  0  0  0  0  0
  -26.6232  -21.2653   22.8389 H   0  0  0  0  0  0
  -26.3473  -22.3566   21.5015 H   0  0  0  0  0  0
  -27.4866  -22.7963   22.7992 H   0  0  0  0  0  0
  -28.1898  -25.4372   18.5221 H   0  0  0  0  0  0
  -29.6904  -25.3233   19.3733 H   0  0  0  0  0  0
  -27.0785  -24.2917   20.5380 H   0  0  0  0  0  0
  -28.6568  -24.2020   21.3128 H   0  0  0  0  0  0
  1 25  1  0  0  0
  1 30  2  0  0  0
  1 86  1  0  0  0
  2  3  1  0  0  0
  2 25  1  0  0  0
  2 88  1  0  0  0
  2 89  1  0  0  0
  3  4  1  0  0  0
  3 90  1  0  0  0
  3 91  1  0  0  0
  4  5  1  0  0  0
  4 92  1  0  0  0
  4 93  1  0  0  0
  5  6  1  0  0  0
  5 26  1  0  0  0
  5 94  1  0  0  0
  6 25  1  0  0  0
  6 95  1  0  0  0
  6 96  1  0  0  0
  7  8  2  0  0  0
  7 26  1  0  0  0
  7 29  1  0  0  0
  8  9  1  0  0  0
  8 22  1  0  0  0
  9 10  1  0  0  0
  9 27  2  0  0  0
 10 11  2  0  0  0
 10 15  1  0  0  0
 11 12  1  0  0  0
 11 97  1  0  0  0
 12 13  2  0  0  0
 12 98  1  0  0  0
 13 14  1  0  0  0
 13 31  1  0  0  0
 14 15  2  0  0  0
 14 99  1  0  0  0
 15100  1  0  0  0
 16 17  2  0  0  0
 16 21  1  0  0  0
 16 31  1  0  0  0
 17 18  1  0  0  0
 17101  1  0  0  0
 18 19  2  0  0  0
 18102  1  0  0  0
 19 20  1  0  0  0
 19 24  1  0  0  0
 20 21  2  0  0  0
 20103  1  0  0  0
 21 23  1  0  0  0
 22 28  1  0  0  0
 22 32  2  0  0  0
 26 27  1  0  0  0
 28104  1  0  0  0
 28105  1  0  0  0
 29106  1  0  0  0
 29107  1  0  0  0
 33 34  1  0  0  0
 33 66  1  0  0  0
 33 70  2  0  0  0
 34 36  1  0  0  0
 34 59  1  0  0  0
 34108  1  0  0  0
 35 44  2  0  0  0
 35 45  1  0  0  0
 35 68  1  0  0  0
 36 56  1  0  0  0
 36109  1  0  0  0
 37 39  1  0  0  0
 37 47  1  0  0  0
 37 66  1  0  0  0
 37110  1  0  0  0
 38 43  2  0  0  0
 38 46  1  0  0  0
 38 47  1  0  0  0
 39 64  1  0  0  0
 39 67  2  0  0  0
 40 52  1  0  0  0
 40 53  2  0  0  0
 40 58  1  0  0  0
 41111  1  0  0  0
 41112  1  0  0  0
 41113  1  0  0  0
 41 48  1  0  0  0
 42 43  1  0  0  0
 42 66  1  0  0  0
 42114  1  0  0  0
 42115  1  0  0  0
 43 44  1  0  0  0
 44116  1  0  0  0
 45 46  2  0  0  0
 45117  1  0  0  0
 46118  1  0  0  0
 47119  1  0  0  0
 47120  1  0  0  0
 48 56  1  0  0  0
 48 65  1  0  0  0
 48121  1  0  0  0
 49 50  1  0  0  0
 49 53  1  0  0  0
 49 64  1  0  0  0
 49122  1  0  0  0
 50 51  1  0  0  0
 50123  1  0  0  0
 50124  1  0  0  0
 51 52  1  0  0  0
 51125  1  0  0  0
 51126  1  0  0  0
 52127  1  0  0  0
 52128  1  0  0  0
 53 54  1  0  0  0
 54 55  2  0  0  0
 54129  1  0  0  0
 55 57  1  0  0  0
 55130  1  0  0  0
 56 69  2  0  0  0
 57 58  2  0  0  0
 57131  1  0  0  0
 58132  1  0  0  0
 59 60  1  0  0  0
 59 61  1  0  0  0
 59 62  1  0  0  0
 60133  1  0  0  0
 60134  1  0  0  0
 60135  1  0  0  0
 61136  1  0  0  0
 61137  1  0  0  0
 61138  1  0  0  0
 62139  1  0  0  0
 62140  1  0  0  0
 62141  1  0  0  0
 63 65  1  0  0  0
 63142  1  0  0  0
 63143  1  0  0  0
 63144  1  0  0  0
 64145  1  0  0  0
 65146  1  0  0  0
 68 84  1  0  0  0
 71 73  2  0  0  0
 71 74  1  0  0  0
 71147  1  0  0  0
 72 73  1  0  0  0
 72 75  2  0  0  0
 72148  1  0  0  0
 73 81  1  0  0  0
 74 76  2  0  0  0
 74 82  1  0  0  0
 75 76  1  0  0  0
 75 83  1  0  0  0
 76 87  1  0  0  0
 77 78  1  0  0  0
 77 79  1  0  0  0
 77149  1  0  0  0
 77150  1  0  0  0
 78 81  1  0  0  0
 78151  1  0  0  0
 78152  1  0  0  0
 79 86  1  0  0  0
 79153  1  0  0  0
 79154  1  0  0  0
 80 81  1  0  0  0
 80 86  1  0  0  0
 80155  1  0  0  0
 80156  1  0  0  0
 81157  1  0  0  0
 82158  1  0  0  0
 82159  1  0  0  0
 82160  1  0  0  0
 83161  1  0  0  0
 83162  1  0  0  0
 83163  1  0  0  0
 84 85  1  0  0  0
 84164  1  0  0  0
 84165  1  0  0  0
 85 87  1  0  0  0
 85166  1  0  0  0
 85167  1  0  0  0
M  ISO  4   1 100  68 101  84 101  86 100
M  END
> <chiral flag>
0

> <version>
0

> <s_m_source_file>
/data/baiqing/PycharmProjects/Reinvent-master-3.2/result/LINK_invent/BTK/process_docking_weight1_custom_sum_contain_oxygen_bond_distance_aromatic_linkinvent_7_9_3/rearranged_h_0150.sdf

> <i_m_source_file_index>
66

> <r_mmod_Potential_Energy-OPLS-2005>
160.659103393555

> <r_mmod_Stretch_Energy-OPLS-2005>
46.0371742248535

> <r_mmod_Bend_Energy-OPLS-2005>
127.734657287598

> <r_mmod_Torsional_Energy-OPLS-2005>
320.915161132812

> <r_mmod_Improper_Torsional_Energy-OPLS-2005>
5.84048557281494

> <r_mmod_Van_der_Waal_Energy-OPLS-2005>
165.612182617188

> <r_mmod_Electrostatic_Energy-OPLS-2005>
-330.297393798828

> <r_mmod_Solvation_Energy-OPLS-2005>
-190.435699462891

> <b_mmod_Minimization_Converged-OPLS-2005>
0

> <r_mmod_RMS_Derivative-OPLS-2005>
7.47646903991699

$$$$
66
                    3D
 Structure written by MMmdl.
168177  0  0  1  0            999 V2000
  -30.7006  -14.4828   20.3511 C   0  0  0  0  0  0
  -30.4291  -12.2502   19.4200 C   0  0  0  0  0  0
  -29.4729  -12.3032   18.2071 C   0  0  0  0  0  0
  -27.9950  -12.2673   18.6480 C   0  0  0  0  0  0
  -27.6477  -13.1786   19.8590 C   0  0  2  0  0  0
  -28.7164  -13.0662   20.9681 C   0  0  0  0  0  0
  -25.2602  -13.8078   20.5762 C   0  0  0  0  0  0
  -24.1820  -13.0407   20.9234 C   0  0  0  0  0  0
  -24.6329  -11.6860   20.8806 C   0  0  0  0  0  0
  -23.8998  -10.4256   21.0442 C   0  0  0  0  0  0
  -24.3567   -9.4161   21.9215 C   0  0  0  0  0  0
  -23.6262   -8.2188   22.0754 C   0  0  0  0  0  0
  -22.4240   -8.0238   21.3539 C   0  0  0  0  0  0
  -21.9877   -9.0214   20.4648 C   0  0  0  0  0  0
  -22.7184  -10.2107   20.3080 C   0  0  0  0  0  0
  -21.6843   -6.0714   22.5281 C   0  0  0  0  0  0
  -21.3992   -6.5620   23.8212 C   0  0  0  0  0  0
  -21.3664   -5.6784   24.9183 C   0  0  0  0  0  0
  -21.6055   -4.3042   24.7236 C   0  0  0  0  0  0
  -21.8815   -3.8132   23.4351 C   0  0  0  0  0  0
  -21.9185   -4.6945   22.3403 C   0  0  0  0  0  0
  -22.7848  -13.5228   21.1870 C   0  0  0  0  0  0
  -22.1660   -4.2112   21.0979 F   0  0  0  0  0  0
  -21.5647   -3.4531   25.7756 F   0  0  0  0  0  0
  -30.0326  -13.3038   20.3566 N   0  0  0  0  0  0
  -26.2991  -12.9182   20.3463 N   0  0  0  0  0  0
  -25.9261  -11.6386   20.5958 N   0  0  0  0  0  0
  -22.0460  -12.8237   22.0399 N   0  0  0  0  0  0
  -25.4399  -15.1811   20.4142 N   0  0  0  0  0  0
  -31.9268  -14.5764   20.2866 O   0  0  0  0  0  0
  -21.6614   -6.8842   21.4236 O   0  0  0  0  0  0
  -22.3575  -14.5557   20.6729 O   0  0  0  0  0  0
  -24.6075  -31.8733   23.2098 C   0  0  0  0  0  0
  -25.8992  -32.4846   23.8406 C   0  0  1  0  0  0
  -27.2560  -27.5004   20.0917 C   0  0  0  0  0  0
  -25.5885  -33.8643   24.2352 N   0  0  0  0  0  0
  -23.3922  -30.4922   21.5499 C   0  0  2  0  0  0
  -24.8405  -28.9541   20.1150 C   0  0  0  0  0  0
  -22.7368  -29.4684   22.5016 C   0  0  0  0  0  0
  -18.0265  -28.1373   22.8506 C   0  0  0  0  0  0
  -24.1478  -36.7330   23.2629 C   0  0  0  0  0  0
  -25.9065  -30.8574   21.3491 C   0  0  0  0  0  0
  -25.9867  -29.4887   20.7106 C   0  0  0  0  0  0
  -27.1881  -28.7642   20.7028 C   0  0  0  0  0  0
  -26.0974  -26.9480   19.5007 C   0  0  0  0  0  0
  -24.8873  -27.6791   19.5107 C   0  0  0  0  0  0
  -23.5963  -29.8141   20.1649 C   0  0  0  0  0  0
  -25.4088  -36.3128   24.0343 C   0  0  1  0  0  0
  -20.5847  -28.3647   23.1353 C   0  0  2  0  0  0
  -20.6743  -26.9399   22.5426 C   0  0  0  0  0  0
  -19.5727  -26.6387   21.5211 C   0  0  0  0  0  0
  -18.1906  -26.7925   22.1617 C   0  0  0  0  0  0
  -19.1516  -28.8821   23.2926 C   0  0  0  0  0  0
  -18.9438  -30.1429   23.8925 C   0  0  0  0  0  0
  -17.6440  -30.6574   24.0584 C   0  0  0  0  0  0
  -25.9020  -34.9491   23.5141 C   0  0  0  0  0  0
  -16.5329  -29.9094   23.6316 C   0  0  0  0  0  0
  -16.7253  -28.6526   23.0331 C   0  0  0  0  0  0
  -26.4451  -31.6598   25.0710 C   0  0  0  0  0  0
  -25.3722  -31.3693   26.1469 C   0  0  0  0  0  0
  -27.0280  -30.3053   24.6011 C   0  0  0  0  0  0
  -27.6049  -32.4310   25.7461 C   0  0  0  0  0  0
  -27.5581  -37.1800   24.8465 C   0  0  0  0  0  0
  -21.4109  -29.3033   22.3767 N   0  0  0  0  0  0
  -26.4271  -37.3807   23.9431 N   0  0  0  0  0  0
  -24.6531  -31.0897   22.0951 N   0  0  0  0  0  0
  -23.4180  -28.8228   23.3029 O   0  0  0  0  0  0
  -28.4897  -26.9151   20.1348 O   0  0  0  0  0  0
  -26.5564  -34.8939   22.4694 O   0  0  0  0  0  0
  -23.5294  -32.1450   23.7545 O   0  0  0  0  0  0
  -31.8807  -21.6229   17.1020 C   0  0  0  0  0  0
  -30.4638  -22.1597   19.0109 C   0  0  0  0  0  0
  -32.0695  -23.7926   18.1852 C   0  0  0  0  0  0
  -30.8740  -21.2593   18.0189 C   0  0  0  0  0  0
  -32.4870  -22.9008   17.1740 C   0  0  0  0  0  0
  -31.0537  -23.4248   19.0983 C   0  0  0  0  0  0
  -29.9637  -17.0214   17.9748 C   0  0  0  0  0  0
  -29.7707  -15.5953   18.4354 C   0  0  0  0  0  0
  -30.2340  -16.8976   20.3594 C   0  0  0  0  0  0
  -29.7671  -17.8354   19.2342 C   0  0  1  0  0  0
  -33.9377  -22.4149   15.3251 C   0  0  0  0  0  0
  -30.2147  -19.9044   17.9528 C   0  0  0  0  0  0
  -28.7905  -25.6951   19.5020 C   0  0  0  0  0  0
  -30.2980  -25.5524   19.7932 C   0  0  0  0  0  0
  -29.9600  -15.5247   19.9013 N   0  0  0  0  0  0
  -30.4671  -19.1356   19.1901 N   0  3  0  0  0  0
  -33.4695  -23.3322   16.3098 O   0  0  0  0  0  0
  -30.6358  -24.2205   20.1262 O   0  0  0  0  0  0
  -31.4646  -12.3563   19.0900 H   0  0  0  0  0  0
  -30.3680  -11.2823   19.9183 H   0  0  0  0  0  0
  -29.6679  -11.4399   17.5672 H   0  0  0  0  0  0
  -29.6544  -13.1528   17.5598 H   0  0  0  0  0  0
  -27.7917  -11.2296   18.9161 H   0  0  0  0  0  0
  -27.3404  -12.4843   17.8032 H   0  0  0  0  0  0
  -27.6334  -14.2030   19.5082 H   0  0  0  0  0  0
  -28.6932  -12.0759   21.4246 H   0  0  0  0  0  0
  -28.5288  -13.7918   21.7632 H   0  0  0  0  0  0
  -25.2711   -9.5637   22.4794 H   0  0  0  0  0  0
  -23.9973   -7.4566   22.7468 H   0  0  0  0  0  0
  -21.0808   -8.8735   19.8948 H   0  0  0  0  0  0
  -22.3649  -10.9657   19.6189 H   0  0  0  0  0  0
  -21.1955   -7.6115   23.9703 H   0  0  0  0  0  0
  -21.1517   -6.0510   25.9083 H   0  0  0  0  0  0
  -22.0595   -2.7581   23.2871 H   0  0  0  0  0  0
  -22.4056  -11.9868   22.4759 H   0  0  0  0  0  0
  -21.1089  -13.1306   22.2608 H   0  0  0  0  0  0
  -24.6830  -15.8477   20.5180 H   0  0  0  0  0  0
  -26.3128  -15.6116   20.1345 H   0  0  0  0  0  0
  -26.7068  -32.5594   23.1198 H   0  0  0  0  0  0
  -25.0034  -33.9822   25.0495 H   0  0  0  0  0  0
  -22.6748  -31.3030   21.4107 H   0  0  0  0  0  0
  -23.3729  -35.9674   23.3313 H   0  0  0  0  0  0
  -24.3557  -36.8939   22.2037 H   0  0  0  0  0  0
  -23.7257  -37.6548   23.6640 H   0  0  0  0  0  0
  -25.9890  -31.6120   20.5672 H   0  0  0  0  0  0
  -26.8062  -30.9329   21.9497 H   0  0  0  0  0  0
  -28.0810  -29.1788   21.1492 H   0  0  0  0  0  0
  -26.1245  -25.9748   19.0319 H   0  0  0  0  0  0
  -24.0031  -27.2638   19.0468 H   0  0  0  0  0  0
  -23.6952  -30.5871   19.4005 H   0  0  0  0  0  0
  -22.7234  -29.2259   19.8756 H   0  0  0  0  0  0
  -25.1266  -36.1987   25.0831 H   0  0  0  0  0  0
  -20.9923  -28.3209   24.1484 H   0  0  0  0  0  0
  -20.5622  -26.2269   23.3605 H   0  0  0  0  0  0
  -21.6622  -26.7434   22.1238 H   0  0  0  0  0  0
  -19.6882  -25.6297   21.1254 H   0  0  0  0  0  0
  -19.6671  -27.3188   20.6732 H   0  0  0  0  0  0
  -17.4181  -26.6691   21.4017 H   0  0  0  0  0  0
  -18.0301  -26.0031   22.8977 H   0  0  0  0  0  0
  -19.7909  -30.7253   24.2315 H   0  0  0  0  0  0
  -17.5002  -31.6270   24.5166 H   0  0  0  0  0  0
  -15.5342  -30.3018   23.7617 H   0  0  0  0  0  0
  -15.8655  -28.0874   22.6988 H   0  0  0  0  0  0
  -24.5908  -30.7017   25.7828 H   0  0  0  0  0  0
  -24.8865  -32.2834   26.4878 H   0  0  0  0  0  0
  -25.8069  -30.8906   27.0252 H   0  0  0  0  0  0
  -26.2800  -29.6819   24.1090 H   0  0  0  0  0  0
  -27.4126  -29.7273   25.4430 H   0  0  0  0  0  0
  -27.8605  -30.4402   23.9100 H   0  0  0  0  0  0
  -27.2681  -33.3615   26.2035 H   0  0  0  0  0  0
  -28.3846  -32.6850   25.0278 H   0  0  0  0  0  0
  -28.0714  -31.8426   26.5367 H   0  0  0  0  0  0
  -28.2595  -38.0100   24.7516 H   0  0  0  0  0  0
  -28.1084  -36.2627   24.6282 H   0  0  0  0  0  0
  -27.2307  -37.1470   25.8872 H   0  0  0  0  0  0
  -20.9252  -29.8793   21.7038 H   0  0  0  0  0  0
  -26.0184  -38.2908   24.1401 H   0  0  0  0  0  0
  -32.1653  -20.9089   16.3431 H   0  0  0  0  0  0
  -29.6866  -21.8932   19.7118 H   0  0  0  0  0  0
  -32.5521  -24.7558   18.2665 H   0  0  0  0  0  0
  -29.2704  -17.2980   17.1767 H   0  0  0  0  0  0
  -30.9802  -17.1301   17.5922 H   0  0  0  0  0  0
  -30.5095  -14.9983   17.8967 H   0  0  0  0  0  0
  -28.7804  -15.2583   18.1372 H   0  0  0  0  0  0
  -29.7055  -17.1066   21.2905 H   0  0  0  0  0  0
  -31.2995  -17.0327   20.5525 H   0  0  0  0  0  0
  -28.6982  -18.0252   19.3574 H   0  0  0  0  0  0
  -34.3769  -21.5322   15.7908 H   0  0  0  0  0  0
  -34.7140  -22.8833   14.7218 H   0  0  0  0  0  0
  -33.1406  -22.1038   14.6486 H   0  0  0  0  0  0
  -30.6078  -19.3764   17.0840 H   0  0  0  0  0  0
  -29.1443  -20.0374   17.7956 H   0  0  0  0  0  0
  -28.2155  -24.8885   19.9578 H   0  0  0  0  0  0
  -28.5883  -25.7190   18.4304 H   0  0  0  0  0  0
  -30.5541  -26.1171   20.6914 H   0  0  0  0  0  0
  -30.8919  -25.9974   18.9957 H   0  0  0  0  0  0
  -31.4605  -18.9875   19.2719 H   0  0  0  0  0  0
  -30.1792  -19.6954   19.9763 H   0  0  0  0  0  0
  1 25  1  0  0  0
  1 30  2  0  0  0
  1 85  1  0  0  0
  2  3  1  0  0  0
  2 25  1  0  0  0
  2 89  1  0  0  0
  2 90  1  0  0  0
  3  4  1  0  0  0
  3 91  1  0  0  0
  3 92  1  0  0  0
  4  5  1  0  0  0
  4 93  1  0  0  0
  4 94  1  0  0  0
  5  6  1  0  0  0
  5 26  1  0  0  0
  5 95  1  0  0  0
  6 25  1  0  0  0
  6 96  1  0  0  0
  6 97  1  0  0  0
  7  8  2  0  0  0
  7 26  1  0  0  0
  7 29  1  0  0  0
  8  9  1  0  0  0
  8 22  1  0  0  0
  9 10  1  0  0  0
  9 27  2  0  0  0
 10 11  2  0  0  0
 10 15  1  0  0  0
 11 12  1  0  0  0
 11 98  1  0  0  0
 12 13  2  0  0  0
 12 99  1  0  0  0
 13 14  1  0  0  0
 13 31  1  0  0  0
 14 15  2  0  0  0
 14100  1  0  0  0
 15101  1  0  0  0
 16 17  2  0  0  0
 16 21  1  0  0  0
 16 31  1  0  0  0
 17 18  1  0  0  0
 17102  1  0  0  0
 18 19  2  0  0  0
 18103  1  0  0  0
 19 20  1  0  0  0
 19 24  1  0  0  0
 20 21  2  0  0  0
 20104  1  0  0  0
 21 23  1  0  0  0
 22 28  1  0  0  0
 22 32  2  0  0  0
 26 27  1  0  0  0
 28105  1  0  0  0
 28106  1  0  0  0
 29107  1  0  0  0
 29108  1  0  0  0
 33 34  1  0  0  0
 33 66  1  0  0  0
 33 70  2  0  0  0
 34 36  1  0  0  0
 34 59  1  0  0  0
 34109  1  0  0  0
 35 44  2  0  0  0
 35 45  1  0  0  0
 35 68  1  0  0  0
 36 56  1  0  0  0
 36110  1  0  0  0
 37 39  1  0  0  0
 37 47  1  0  0  0
 37 66  1  0  0  0
 37111  1  0  0  0
 38 43  2  0  0  0
 38 46  1  0  0  0
 38 47  1  0  0  0
 39 64  1  0  0  0
 39 67  2  0  0  0
 40 52  1  0  0  0
 40 53  2  0  0  0
 40 58  1  0  0  0
 41112  1  0  0  0
 41113  1  0  0  0
 41114  1  0  0  0
 41 48  1  0  0  0
 42 43  1  0  0  0
 42 66  1  0  0  0
 42115  1  0  0  0
 42116  1  0  0  0
 43 44  1  0  0  0
 44117  1  0  0  0
 45 46  2  0  0  0
 45118  1  0  0  0
 46119  1  0  0  0
 47120  1  0  0  0
 47121  1  0  0  0
 48 56  1  0  0  0
 48 65  1  0  0  0
 48122  1  0  0  0
 49 50  1  0  0  0
 49 53  1  0  0  0
 49 64  1  0  0  0
 49123  1  0  0  0
 50 51  1  0  0  0
 50124  1  0  0  0
 50125  1  0  0  0
 51 52  1  0  0  0
 51126  1  0  0  0
 51127  1  0  0  0
 52128  1  0  0  0
 52129  1  0  0  0
 53 54  1  0  0  0
 54 55  2  0  0  0
 54130  1  0  0  0
 55 57  1  0  0  0
 55131  1  0  0  0
 56 69  2  0  0  0
 57 58  2  0  0  0
 57132  1  0  0  0
 58133  1  0  0  0
 59 60  1  0  0  0
 59 61  1  0  0  0
 59 62  1  0  0  0
 60134  1  0  0  0
 60135  1  0  0  0
 60136  1  0  0  0
 61137  1  0  0  0
 61138  1  0  0  0
 61139  1  0  0  0
 62140  1  0  0  0
 62141  1  0  0  0
 62142  1  0  0  0
 63 65  1  0  0  0
 63143  1  0  0  0
 63144  1  0  0  0
 63145  1  0  0  0
 64146  1  0  0  0
 65147  1  0  0  0
 68 83  1  0  0  0
 71 74  2  0  0  0
 71 75  1  0  0  0
 71148  1  0  0  0
 72 74  1  0  0  0
 72 76  2  0  0  0
 72149  1  0  0  0
 73 75  2  0  0  0
 73 76  1  0  0  0
 73150  1  0  0  0
 74 82  1  0  0  0
 75 87  1  0  0  0
 76 88  1  0  0  0
 77 78  1  0  0  0
 77 80  1  0  0  0
 77151  1  0  0  0
 77152  1  0  0  0
 78 85  1  0  0  0
 78153  1  0  0  0
 78154  1  0  0  0
 79 80  1  0  0  0
 79 85  1  0  0  0
 79155  1  0  0  0
 79156  1  0  0  0
 80 86  1  0  0  0
 80157  1  0  0  0
 81 87  1  0  0  0
 81158  1  0  0  0
 81159  1  0  0  0
 81160  1  0  0  0
 82 86  1  0  0  0
 82161  1  0  0  0
 82162  1  0  0  0
 83 84  1  0  0  0
 83163  1  0  0  0
 83164  1  0  0  0
 84 88  1  0  0  0
 84165  1  0  0  0
 84166  1  0  0  0
 86167  1  0  0  0
 86168  1  0  0  0
M  CHG  1  86   1
M  ISO  4   1 100  68 101  83 101  85 100
M  END
> <chiral flag>
0

> <version>
0

> <s_m_source_file>
/data/baiqing/PycharmProjects/Reinvent-master-3.2/result/LINK_invent/BTK/process_docking_weight1_custom_sum_contain_oxygen_bond_distance_aromatic_linkinvent_7_9_3/rearranged_h_0150.sdf

> <i_m_source_file_index>
67

> <r_mmod_Potential_Energy-OPLS-2005>
52.7910575866699

> <r_mmod_Stretch_Energy-OPLS-2005>
33.752384185791

> <r_mmod_Bend_Energy-OPLS-2005>
148.286560058594

> <r_mmod_Torsional_Energy-OPLS-2005>
369.461700439453

> <r_mmod_Improper_Torsional_Energy-OPLS-2005>
20.1445007324219

> <r_mmod_Van_der_Waal_Energy-OPLS-2005>
171.238586425781

> <r_mmod_Electrostatic_Energy-OPLS-2005>
-257.214294433594

> <r_mmod_Solvation_Energy-OPLS-2005>
-474.889404296875

> <b_mmod_Minimization_Converged-OPLS-2005>
0

> <r_mmod_RMS_Derivative-OPLS-2005>
3.73959994316101

$$$$
67
                    3D
 Structure written by MMmdl.
172181  0  0  1  0            999 V2000
  -30.6421  -14.4912   20.6447 C   0  0  0  0  0  0
  -30.4512  -12.3518   19.4050 C   0  0  0  0  0  0
  -29.5072  -12.5540   18.1978 C   0  0  0  0  0  0
  -28.0217  -12.4026   18.5925 C   0  0  0  0  0  0
  -27.6669  -13.1975   19.8784 C   0  0  2  0  0  0
  -28.7051  -12.9135   20.9887 C   0  0  0  0  0  0
  -25.2671  -13.8134   20.5683 C   0  0  0  0  0  0
  -24.1857  -13.0428   20.9126 C   0  0  0  0  0  0
  -24.6388  -11.6895   20.8672 C   0  0  0  0  0  0
  -23.9014  -10.4302   21.0361 C   0  0  0  0  0  0
  -24.3569   -9.4231   21.9138 C   0  0  0  0  0  0
  -23.6259   -8.2258   22.0720 C   0  0  0  0  0  0
  -22.4252   -8.0264   21.3508 C   0  0  0  0  0  0
  -21.9847   -9.0246   20.4639 C   0  0  0  0  0  0
  -22.7166  -10.2146   20.3065 C   0  0  0  0  0  0
  -21.6856   -6.0732   22.5253 C   0  0  0  0  0  0
  -21.4026   -6.5636   23.8191 C   0  0  0  0  0  0
  -21.3666   -5.6769   24.9131 C   0  0  0  0  0  0
  -21.6038   -4.3037   24.7155 C   0  0  0  0  0  0
  -21.8812   -3.8148   23.4277 C   0  0  0  0  0  0
  -21.9242   -4.6977   22.3356 C   0  0  0  0  0  0
  -22.7943  -13.5322   21.1737 C   0  0  0  0  0  0
  -22.1731   -4.2206   21.0919 F   0  0  0  0  0  0
  -21.5601   -3.4486   25.7647 F   0  0  0  0  0  0
  -30.0317  -13.2863   20.4600 N   0  0  0  0  0  0
  -26.3042  -12.9259   20.3292 N   0  0  0  0  0  0
  -25.9333  -11.6432   20.5691 N   0  0  0  0  0  0
  -22.0621  -12.8308   22.0302 N   0  0  0  0  0  0
  -25.4434  -15.1871   20.4274 N   0  0  0  0  0  0
  -31.7470  -14.7781   20.1661 O   0  0  0  0  0  0
  -21.6617   -6.8876   21.4223 O   0  0  0  0  0  0
  -22.3638  -14.5631   20.6594 O   0  0  0  0  0  0
  -24.6198  -31.8708   23.2139 C   0  0  0  0  0  0
  -25.9087  -32.4835   23.8398 C   0  0  1  0  0  0
  -27.2128  -27.3907   20.0721 C   0  0  0  0  0  0
  -25.5952  -33.8637   24.2337 N   0  0  0  0  0  0
  -23.4078  -30.5001   21.5572 C   0  0  2  0  0  0
  -24.8503  -28.9880   20.1071 C   0  0  0  0  0  0
  -22.7473  -29.4613   22.4945 C   0  0  0  0  0  0
  -18.0306  -28.1306   22.8586 C   0  0  0  0  0  0
  -24.1528  -36.7315   23.2618 C   0  0  0  0  0  0
  -25.9530  -30.8219   21.3825 C   0  0  0  0  0  0
  -26.0260  -29.4650   20.7011 C   0  0  0  0  0  0
  -27.2090  -28.6784   20.6749 C   0  0  0  0  0  0
  -25.9956  -26.9466   19.4890 C   0  0  0  0  0  0
  -24.8329  -27.7311   19.4943 C   0  0  0  0  0  0
  -23.6203  -29.8602   20.1650 C   0  0  0  0  0  0
  -25.4153  -36.3120   24.0313 C   0  0  1  0  0  0
  -20.5909  -28.3705   23.1416 C   0  0  2  0  0  0
  -20.6865  -26.9405   22.5643 C   0  0  0  0  0  0
  -19.5896  -26.6328   21.5412 C   0  0  0  0  0  0
  -18.2058  -26.7832   22.1794 C   0  0  0  0  0  0
  -19.1532  -28.8844   23.2949 C   0  0  0  0  0  0
  -18.9396  -30.1478   23.8873 C   0  0  0  0  0  0
  -17.6375  -30.6594   24.0431 C   0  0  0  0  0  0
  -25.9090  -34.9478   23.5112 C   0  0  0  0  0  0
  -16.5290  -29.9038   23.6229 C   0  0  0  0  0  0
  -16.7273  -28.6367   23.0389 C   0  0  0  0  0  0
  -26.4504  -31.6605   25.0743 C   0  0  0  0  0  0
  -25.3684  -31.3804   26.1428 C   0  0  0  0  0  0
  -27.0337  -30.2990   24.6255 C   0  0  0  0  0  0
  -27.6093  -32.4350   25.7475 C   0  0  0  0  0  0
  -27.5609  -37.1808   24.8446 C   0  0  0  0  0  0
  -21.4189  -29.3010   22.3738 N   0  0  0  0  0  0
  -26.4341  -37.3794   23.9382 N   0  0  0  0  0  0
  -24.6784  -31.0754   22.1091 N   0  0  0  0  0  0
  -23.4261  -28.8131   23.2936 O   0  0  0  0  0  0
  -28.3646  -26.5972   20.0648 O   0  0  0  0  0  0
  -26.5625  -34.8927   22.4667 O   0  0  0  0  0  0
  -23.5377  -32.1472   23.7501 O   0  0  0  0  0  0
  -29.3984  -23.1710   19.1386 C   0  0  0  0  0  0
  -29.2103  -24.1279   20.1328 C   0  0  0  0  0  0
  -30.1031  -21.9654   19.3570 C   0  0  0  0  0  0
  -29.7776  -23.9105   21.4067 C   0  0  0  0  0  0
  -30.3996  -22.6479   21.6872 C   0  0  0  0  0  0
  -30.5057  -21.6277   20.6795 C   0  0  0  0  0  0
  -28.6887  -23.5735   17.8670 C   0  0  0  0  0  0
  -28.2602  -25.0270   18.1194 C   0  0  0  0  0  0
  -28.2171  -25.2043   19.6597 C   0  0  2  0  0  0
  -30.3984  -21.0689   18.1588 C   0  0  0  0  0  0
  -29.6946  -25.0027   22.4672 C   0  0  0  0  0  0
  -30.9572  -22.4343   23.0919 C   0  0  0  0  0  0
  -28.7997  -17.2051   22.4997 C   0  0  0  0  0  0
  -30.9941  -20.1663   20.9538 C   0  0  0  0  0  0
  -30.1989  -17.7615   20.4308 C   0  0  0  0  0  0
  -30.0306  -16.8066   21.6573 C   0  0  2  0  0  0
  -29.8718  -15.3813   21.2985 N   0  0  0  0  0  0
  -29.8873  -19.1972   20.7114 N   0  3  0  0  0  0
  -31.4897  -12.5026   19.1014 H   0  0  0  0  0  0
  -30.3855  -11.3265   19.7672 H   0  0  0  0  0  0
  -29.7785  -11.8690   17.3951 H   0  0  0  0  0  0
  -29.6528  -13.5607   17.8033 H   0  0  0  0  0  0
  -27.8100  -11.3428   18.7293 H   0  0  0  0  0  0
  -27.3819  -12.7311   17.7685 H   0  0  0  0  0  0
  -27.7290  -14.2576   19.6361 H   0  0  0  0  0  0
  -28.4476  -13.4221   21.9175 H   0  0  0  0  0  0
  -28.6883  -11.8561   21.2528 H   0  0  0  0  0  0
  -25.2716   -9.5707   22.4695 H   0  0  0  0  0  0
  -23.9998   -7.4643   22.7399 H   0  0  0  0  0  0
  -21.0767   -8.8705   19.8950 H   0  0  0  0  0  0
  -22.3532  -10.9658   19.6191 H   0  0  0  0  0  0
  -21.1985   -7.6139   23.9688 H   0  0  0  0  0  0
  -21.1533   -6.0493   25.9042 H   0  0  0  0  0  0
  -22.0603   -2.7612   23.2713 H   0  0  0  0  0  0
  -22.4308  -11.9997   22.4653 H   0  0  0  0  0  0
  -21.1256  -13.1301   22.2496 H   0  0  0  0  0  0
  -24.7098  -15.8501   20.6568 H   0  0  0  0  0  0
  -26.2605  -15.6202   20.0212 H   0  0  0  0  0  0
  -26.7145  -32.5523   23.1130 H   0  0  0  0  0  0
  -25.0095  -33.9811   25.0473 H   0  0  0  0  0  0
  -22.6944  -31.3163   21.4284 H   0  0  0  0  0  0
  -23.3778  -35.9652   23.3310 H   0  0  0  0  0  0
  -24.3611  -36.8925   22.2028 H   0  0  0  0  0  0
  -23.7306  -37.6541   23.6620 H   0  0  0  0  0  0
  -26.0959  -31.6150   20.6480 H   0  0  0  0  0  0
  -26.8253  -30.8430   22.0268 H   0  0  0  0  0  0
  -28.1146  -29.0438   21.1364 H   0  0  0  0  0  0
  -25.8943  -25.9846   19.0191 H   0  0  0  0  0  0
  -23.9217  -27.3675   19.0342 H   0  0  0  0  0  0
  -23.7259  -30.6502   19.4222 H   0  0  0  0  0  0
  -22.7488  -29.2871   19.8532 H   0  0  0  0  0  0
  -25.1315  -36.1983   25.0794 H   0  0  0  0  0  0
  -20.9976  -28.3358   24.1545 H   0  0  0  0  0  0
  -20.5763  -26.2329   23.3893 H   0  0  0  0  0  0
  -21.6768  -26.7434   22.1489 H   0  0  0  0  0  0
  -19.7161  -25.6218   21.1554 H   0  0  0  0  0  0
  -19.6935  -27.3107   20.6922 H   0  0  0  0  0  0
  -17.4318  -26.6405   21.4220 H   0  0  0  0  0  0
  -18.0542  -26.0040   22.9287 H   0  0  0  0  0  0
  -19.7815  -30.7360   24.2244 H   0  0  0  0  0  0
  -17.4862  -31.6344   24.4866 H   0  0  0  0  0  0
  -15.5263  -30.2933   23.7414 H   0  0  0  0  0  0
  -15.8677  -28.0613   22.7217 H   0  0  0  0  0  0
  -24.5866  -30.7180   25.7692 H   0  0  0  0  0  0
  -24.8864  -32.3015   26.4707 H   0  0  0  0  0  0
  -25.7915  -30.9032   27.0271 H   0  0  0  0  0  0
  -26.2954  -29.6741   24.1245 H   0  0  0  0  0  0
  -27.3922  -29.7251   25.4810 H   0  0  0  0  0  0
  -27.8858  -30.4179   23.9564 H   0  0  0  0  0  0
  -27.2713  -33.3633   26.2054 H   0  0  0  0  0  0
  -28.3854  -32.6940   25.0269 H   0  0  0  0  0  0
  -28.0796  -31.8484   26.5376 H   0  0  0  0  0  0
  -28.2604  -38.0127   24.7511 H   0  0  0  0  0  0
  -28.1130  -36.2658   24.6247 H   0  0  0  0  0  0
  -27.2300  -37.1413   25.8838 H   0  0  0  0  0  0
  -20.9289  -29.8708   21.6963 H   0  0  0  0  0  0
  -26.0236  -38.2870   24.1383 H   0  0  0  0  0  0
  -27.8137  -22.9259   17.7523 H   0  0  0  0  0  0
  -29.3071  -23.4913   16.9756 H   0  0  0  0  0  0
  -27.3641  -25.2992   17.5638 H   0  0  0  0  0  0
  -29.0717  -25.6660   17.7661 H   0  0  0  0  0  0
  -27.2951  -24.8058   20.0850 H   0  0  0  0  0  0
  -30.8499  -21.6683   17.3695 H   0  0  0  0  0  0
  -29.4916  -20.6117   17.7696 H   0  0  0  0  0  0
  -31.1154  -20.2742   18.3426 H   0  0  0  0  0  0
  -29.3838  -25.9631   22.0669 H   0  0  0  0  0  0
  -30.6699  -25.1858   22.9197 H   0  0  0  0  0  0
  -28.9792  -24.7419   23.2423 H   0  0  0  0  0  0
  -31.6747  -23.2218   23.3226 H   0  0  0  0  0  0
  -31.5023  -21.5103   23.2338 H   0  0  0  0  0  0
  -30.1559  -22.4567   23.8317 H   0  0  0  0  0  0
  -28.5641  -16.4692   23.2699 H   0  0  0  0  0  0
  -27.9065  -17.3223   21.8822 H   0  0  0  0  0  0
  -28.9665  -18.1505   23.0111 H   0  0  0  0  0  0
  -31.3862  -19.9697   21.9440 H   0  0  0  0  0  0
  -31.8403  -19.9511   20.3065 H   0  0  0  0  0  0
  -29.4931  -17.4526   19.6605 H   0  0  0  0  0  0
  -31.1862  -17.6596   19.9788 H   0  0  0  0  0  0
  -30.9112  -16.8925   22.2924 H   0  0  0  0  0  0
  -28.9990  -14.9668   21.6020 H   0  0  0  0  0  0
  -29.2061  -19.2629   21.4517 H   0  0  0  0  0  0
  -29.4167  -19.5350   19.8883 H   0  0  0  0  0  0
  1 25  1  0  0  0
  1 30  2  0  0  0
  1 87  1  0  0  0
  2  3  1  0  0  0
  2 25  1  0  0  0
  2 89  1  0  0  0
  2 90  1  0  0  0
  3  4  1  0  0  0
  3 91  1  0  0  0
  3 92  1  0  0  0
  4  5  1  0  0  0
  4 93  1  0  0  0
  4 94  1  0  0  0
  5  6  1  0  0  0
  5 26  1  0  0  0
  5 95  1  0  0  0
  6 25  1  0  0  0
  6 96  1  0  0  0
  6 97  1  0  0  0
  7  8  2  0  0  0
  7 26  1  0  0  0
  7 29  1  0  0  0
  8  9  1  0  0  0
  8 22  1  0  0  0
  9 10  1  0  0  0
  9 27  2  0  0  0
 10 11  2  0  0  0
 10 15  1  0  0  0
 11 12  1  0  0  0
 11 98  1  0  0  0
 12 13  2  0  0  0
 12 99  1  0  0  0
 13 14  1  0  0  0
 13 31  1  0  0  0
 14 15  2  0  0  0
 14100  1  0  0  0
 15101  1  0  0  0
 16 17  2  0  0  0
 16 21  1  0  0  0
 16 31  1  0  0  0
 17 18  1  0  0  0
 17102  1  0  0  0
 18 19  2  0  0  0
 18103  1  0  0  0
 19 20  1  0  0  0
 19 24  1  0  0  0
 20 21  2  0  0  0
 20104  1  0  0  0
 21 23  1  0  0  0
 22 28  1  0  0  0
 22 32  2  0  0  0
 26 27  1  0  0  0
 28105  1  0  0  0
 28106  1  0  0  0
 29107  1  0  0  0
 29108  1  0  0  0
 33 34  1  0  0  0
 33 66  1  0  0  0
 33 70  2  0  0  0
 34 36  1  0  0  0
 34 59  1  0  0  0
 34109  1  0  0  0
 35 44  2  0  0  0
 35 45  1  0  0  0
 35 68  1  0  0  0
 36 56  1  0  0  0
 36110  1  0  0  0
 37 39  1  0  0  0
 37 47  1  0  0  0
 37 66  1  0  0  0
 37111  1  0  0  0
 38 43  2  0  0  0
 38 46  1  0  0  0
 38 47  1  0  0  0
 39 64  1  0  0  0
 39 67  2  0  0  0
 40 52  1  0  0  0
 40 53  2  0  0  0
 40 58  1  0  0  0
 41112  1  0  0  0
 41113  1  0  0  0
 41114  1  0  0  0
 41 48  1  0  0  0
 42 43  1  0  0  0
 42 66  1  0  0  0
 42115  1  0  0  0
 42116  1  0  0  0
 43 44  1  0  0  0
 44117  1  0  0  0
 45 46  2  0  0  0
 45118  1  0  0  0
 46119  1  0  0  0
 47120  1  0  0  0
 47121  1  0  0  0
 48 56  1  0  0  0
 48 65  1  0  0  0
 48122  1  0  0  0
 49 50  1  0  0  0
 49 53  1  0  0  0
 49 64  1  0  0  0
 49123  1  0  0  0
 50 51  1  0  0  0
 50124  1  0  0  0
 50125  1  0  0  0
 51 52  1  0  0  0
 51126  1  0  0  0
 51127  1  0  0  0
 52128  1  0  0  0
 52129  1  0  0  0
 53 54  1  0  0  0
 54 55  2  0  0  0
 54130  1  0  0  0
 55 57  1  0  0  0
 55131  1  0  0  0
 56 69  2  0  0  0
 57 58  2  0  0  0
 57132  1  0  0  0
 58133  1  0  0  0
 59 60  1  0  0  0
 59 61  1  0  0  0
 59 62  1  0  0  0
 60134  1  0  0  0
 60135  1  0  0  0
 60136  1  0  0  0
 61137  1  0  0  0
 61138  1  0  0  0
 61139  1  0  0  0
 62140  1  0  0  0
 62141  1  0  0  0
 62142  1  0  0  0
 63 65  1  0  0  0
 63143  1  0  0  0
 63144  1  0  0  0
 63145  1  0  0  0
 64146  1  0  0  0
 65147  1  0  0  0
 68 79  1  0  0  0
 71 72  1  0  0  0
 71 73  2  0  0  0
 71 77  1  0  0  0
 72 74  2  0  0  0
 72 79  1  0  0  0
 73 76  1  0  0  0
 73 80  1  0  0  0
 74 75  1  0  0  0
 74 81  1  0  0  0
 75 76  2  0  0  0
 75 82  1  0  0  0
 76 84  1  0  0  0
 77 78  1  0  0  0
 77148  1  0  0  0
 77149  1  0  0  0
 78 79  1  0  0  0
 78150  1  0  0  0
 78151  1  0  0  0
 79152  1  0  0  0
 80153  1  0  0  0
 80154  1  0  0  0
 80155  1  0  0  0
 81156  1  0  0  0
 81157  1  0  0  0
 81158  1  0  0  0
 82159  1  0  0  0
 82160  1  0  0  0
 82161  1  0  0  0
 83162  1  0  0  0
 83163  1  0  0  0
 83164  1  0  0  0
 83 86  1  0  0  0
 84 88  1  0  0  0
 84165  1  0  0  0
 84166  1  0  0  0
 85 86  1  0  0  0
 85 88  1  0  0  0
 85167  1  0  0  0
 85168  1  0  0  0
 86 87  1  0  0  0
 86169  1  0  0  0
 87170  1  0  0  0
 88171  1  0  0  0
 88172  1  0  0  0
M  CHG  1  88   1
M  ISO  4   1 100  68 101  79 101  87 100
M  END
> <chiral flag>
0

> <version>
0

> <s_m_source_file>
/data/baiqing/PycharmProjects/Reinvent-master-3.2/result/LINK_invent/BTK/process_docking_weight1_custom_sum_contain_oxygen_bond_distance_aromatic_linkinvent_7_9_3/rearranged_h_0150.sdf

> <i_m_source_file_index>
68

> <r_mmod_Potential_Energy-OPLS-2005>
-158.585922241211

> <r_mmod_Stretch_Energy-OPLS-2005>
56.0071563720703

> <r_mmod_Bend_Energy-OPLS-2005>
186.054870605469

> <r_mmod_Torsional_Energy-OPLS-2005>
233.433547973633

> <r_mmod_Improper_Torsional_Energy-OPLS-2005>
3.60026955604553

> <r_mmod_Van_der_Waal_Energy-OPLS-2005>
165.940933227539

> <r_mmod_Electrostatic_Energy-OPLS-2005>
-378.466491699219

> <r_mmod_Solvation_Energy-OPLS-2005>
-447.321655273438

> <b_mmod_Minimization_Converged-OPLS-2005>
0

> <r_mmod_RMS_Derivative-OPLS-2005>
8.56362819671631

$$$$
68
                    3D
 Structure written by MMmdl.
168177  0  0  1  0            999 V2000
  -30.7511  -14.5426   20.4626 C   0  0  0  0  0  0
  -30.3911  -12.3327   19.4401 C   0  0  0  0  0  0
  -29.4849  -12.4986   18.2049 C   0  0  0  0  0  0
  -28.0039  -12.3723   18.6098 C   0  0  0  0  0  0
  -27.6430  -13.2425   19.8481 C   0  0  2  0  0  0
  -28.6950  -13.1367   20.9764 C   0  0  0  0  0  0
  -25.2465  -13.8246   20.5708 C   0  0  0  0  0  0
  -24.1777  -13.0454   20.9204 C   0  0  0  0  0  0
  -24.6387  -11.6939   20.8706 C   0  0  0  0  0  0
  -23.9087  -10.4291   21.0360 C   0  0  0  0  0  0
  -24.3635   -9.4199   21.9130 C   0  0  0  0  0  0
  -23.6310   -8.2242   22.0725 C   0  0  0  0  0  0
  -22.4275   -8.0287   21.3552 C   0  0  0  0  0  0
  -21.9911   -9.0253   20.4640 C   0  0  0  0  0  0
  -22.7251  -10.2120   20.3021 C   0  0  0  0  0  0
  -21.6867   -6.0722   22.5278 C   0  0  0  0  0  0
  -21.4033   -6.5629   23.8206 C   0  0  0  0  0  0
  -21.3660   -5.6788   24.9173 C   0  0  0  0  0  0
  -21.6044   -4.3055   24.7232 C   0  0  0  0  0  0
  -21.8820   -3.8134   23.4356 C   0  0  0  0  0  0
  -21.9181   -4.6945   22.3404 C   0  0  0  0  0  0
  -22.7787  -13.5200   21.1861 C   0  0  0  0  0  0
  -22.1655   -4.2127   21.0984 F   0  0  0  0  0  0
  -21.5612   -3.4544   25.7749 F   0  0  0  0  0  0
  -30.0149  -13.3974   20.3885 N   0  0  0  0  0  0
  -26.2931  -12.9505   20.3307 N   0  0  0  0  0  0
  -25.9317  -11.6611   20.5712 N   0  0  0  0  0  0
  -22.0456  -12.8183   22.0443 N   0  0  0  0  0  0
  -25.4105  -15.1968   20.4131 N   0  0  0  0  0  0
  -31.9449  -14.5516   20.1680 O   0  0  0  0  0  0
  -21.6656   -6.8869   21.4234 O   0  0  0  0  0  0
  -22.3427  -14.5488   20.6691 O   0  0  0  0  0  0
  -24.6149  -31.8673   23.2101 C   0  0  0  0  0  0
  -25.9035  -32.4834   23.8370 C   0  0  1  0  0  0
  -27.2210  -27.3938   20.1026 C   0  0  0  0  0  0
  -25.5889  -33.8633   24.2280 N   0  0  0  0  0  0
  -23.4030  -30.4926   21.5534 C   0  0  2  0  0  0
  -24.8485  -28.9542   20.1152 C   0  0  0  0  0  0
  -22.7407  -29.4644   22.4989 C   0  0  0  0  0  0
  -18.0268  -28.1364   22.8483 C   0  0  0  0  0  0
  -24.1496  -36.7297   23.2626 C   0  0  0  0  0  0
  -25.9369  -30.8174   21.3714 C   0  0  0  0  0  0
  -26.0124  -29.4504   20.7160 C   0  0  0  0  0  0
  -27.2004  -28.6781   20.7040 C   0  0  0  0  0  0
  -26.0407  -26.9334   19.4757 C   0  0  0  0  0  0
  -24.8598  -27.6977   19.4917 C   0  0  0  0  0  0
  -23.6138  -29.8271   20.1670 C   0  0  0  0  0  0
  -25.4142  -36.3120   24.0301 C   0  0  1  0  0  0
  -20.5857  -28.3659   23.1330 C   0  0  2  0  0  0
  -20.6750  -26.9396   22.5428 C   0  0  0  0  0  0
  -19.5727  -26.6370   21.5218 C   0  0  0  0  0  0
  -18.1912  -26.7899   22.1627 C   0  0  0  0  0  0
  -19.1514  -28.8839   23.2896 C   0  0  0  0  0  0
  -18.9437  -30.1447   23.8908 C   0  0  0  0  0  0
  -17.6442  -30.6581   24.0577 C   0  0  0  0  0  0
  -25.9070  -34.9482   23.5103 C   0  0  0  0  0  0
  -16.5334  -29.9091   23.6334 C   0  0  0  0  0  0
  -16.7255  -28.6503   23.0355 C   0  0  0  0  0  0
  -26.4446  -31.6636   25.0722 C   0  0  0  0  0  0
  -25.3706  -31.3766   26.1484 C   0  0  0  0  0  0
  -27.0263  -30.3066   24.6108 C   0  0  0  0  0  0
  -27.6034  -32.4341   25.7473 C   0  0  0  0  0  0
  -27.5597  -37.1822   24.8456 C   0  0  0  0  0  0
  -21.4140  -29.3025   22.3742 N   0  0  0  0  0  0
  -26.4312  -37.3820   23.9385 N   0  0  0  0  0  0
  -24.6711  -31.0722   22.1042 N   0  0  0  0  0  0
  -23.4161  -28.8193   23.3053 O   0  0  0  0  0  0
  -28.3713  -26.6168   20.1529 O   0  0  0  0  0  0
  -26.5663  -34.8921   22.4686 O   0  0  0  0  0  0
  -23.5346  -32.1456   23.7471 O   0  0  0  0  0  0
  -30.7675  -20.8697   19.5273 C   0  0  0  0  0  0
  -30.0289  -21.8362   20.2916 C   0  0  0  0  0  0
  -30.0004  -23.2113   19.8680 C   0  0  0  0  0  0
  -31.3508  -21.3400   18.3158 C   0  0  0  0  0  0
  -30.6793  -23.5357   18.6738 C   0  0  0  0  0  0
  -31.6491  -19.1575   21.3982 C   0  0  0  0  0  0
  -31.3373  -17.6786   21.7322 C   0  0  0  0  0  0
  -30.0533  -18.2435   19.7634 C   0  0  0  0  0  0
  -31.0687  -19.3996   19.9869 C   0  0  1  0  0  0
  -30.8007  -17.0495   20.4319 C   0  0  2  0  0  0
  -29.3376  -21.4236   21.5797 C   0  0  0  0  0  0
  -32.1776  -20.4800   17.3726 C   0  0  0  0  0  0
  -30.8687  -24.9658   18.1908 C   0  0  0  0  0  0
  -29.3852  -24.3729   20.6987 C   0  0  0  0  0  0
  -28.2202  -25.1771   20.0357 C   0  0  0  0  0  0
  -31.2902  -22.6196   17.9114 N   0  0  0  0  0  0
  -30.1079  -15.7347   20.6115 N   0  0  0  0  0  0
  -31.4411  -12.3755   19.1476 H   0  0  0  0  0  0
  -30.2519  -11.3513   19.8946 H   0  0  0  0  0  0
  -29.7332  -11.7540   17.4481 H   0  0  0  0  0  0
  -29.6620  -13.4712   17.7428 H   0  0  0  0  0  0
  -27.8030  -11.3214   18.8160 H   0  0  0  0  0  0
  -27.3655  -12.6428   17.7662 H   0  0  0  0  0  0
  -27.6493  -14.2758   19.4978 H   0  0  0  0  0  0
  -28.6725  -12.1490   21.4392 H   0  0  0  0  0  0
  -28.4774  -13.8499   21.7719 H   0  0  0  0  0  0
  -25.2774   -9.5697   22.4708 H   0  0  0  0  0  0
  -24.0029   -7.4638   22.7443 H   0  0  0  0  0  0
  -21.0846   -8.8770   19.8954 H   0  0  0  0  0  0
  -22.3699  -10.9648   19.6133 H   0  0  0  0  0  0
  -21.2068   -7.6145   23.9726 H   0  0  0  0  0  0
  -21.1469   -6.0508   25.9077 H   0  0  0  0  0  0
  -22.0594   -2.7600   23.2862 H   0  0  0  0  0  0
  -22.4147  -11.9904   22.4896 H   0  0  0  0  0  0
  -21.1041  -13.1131   22.2611 H   0  0  0  0  0  0
  -24.6438  -15.8506   20.5378 H   0  0  0  0  0  0
  -26.2674  -15.6435   20.1110 H   0  0  0  0  0  0
  -26.7095  -32.5529   23.1111 H   0  0  0  0  0  0
  -24.9951  -33.9824   25.0366 H   0  0  0  0  0  0
  -22.6922  -31.3117   21.4165 H   0  0  0  0  0  0
  -23.3780  -35.9611   23.3325 H   0  0  0  0  0  0
  -24.3543  -36.8899   22.2026 H   0  0  0  0  0  0
  -23.7217  -37.6479   23.6657 H   0  0  0  0  0  0
  -26.0514  -31.5833   20.6019 H   0  0  0  0  0  0
  -26.8260  -30.8727   21.9888 H   0  0  0  0  0  0
  -28.0969  -29.0502   21.1796 H   0  0  0  0  0  0
  -26.0096  -25.9808   18.9660 H   0  0  0  0  0  0
  -23.9646  -27.3118   19.0221 H   0  0  0  0  0  0
  -23.7329  -30.6044   19.4122 H   0  0  0  0  0  0
  -22.7356  -29.2536   19.8634 H   0  0  0  0  0  0
  -25.1328  -36.1981   25.0793 H   0  0  0  0  0  0
  -20.9935  -28.3217   24.1452 H   0  0  0  0  0  0
  -20.5665  -26.2260   23.3613 H   0  0  0  0  0  0
  -21.6636  -26.7451   22.1242 H   0  0  0  0  0  0
  -19.6910  -25.6291   21.1246 H   0  0  0  0  0  0
  -19.6666  -27.3198   20.6761 H   0  0  0  0  0  0
  -17.4188  -26.6656   21.4026 H   0  0  0  0  0  0
  -18.0314  -26.0027   22.9011 H   0  0  0  0  0  0
  -19.7918  -30.7258   24.2253 H   0  0  0  0  0  0
  -17.5008  -31.6253   24.5182 H   0  0  0  0  0  0
  -15.5347  -30.3013   23.7633 H   0  0  0  0  0  0
  -15.8635  -28.0842   22.7061 H   0  0  0  0  0  0
  -24.5889  -30.7102   25.7811 H   0  0  0  0  0  0
  -24.8894  -32.2937   26.4919 H   0  0  0  0  0  0
  -25.8065  -30.8954   27.0252 H   0  0  0  0  0  0
  -26.2807  -29.6839   24.1154 H   0  0  0  0  0  0
  -27.4002  -29.7304   25.4574 H   0  0  0  0  0  0
  -27.8663  -30.4356   23.9274 H   0  0  0  0  0  0
  -27.2664  -33.3630   26.2065 H   0  0  0  0  0  0
  -28.3825  -32.6925   25.0297 H   0  0  0  0  0  0
  -28.0701  -31.8449   26.5373 H   0  0  0  0  0  0
  -28.2649  -38.0102   24.7547 H   0  0  0  0  0  0
  -28.1068  -36.2634   24.6279 H   0  0  0  0  0  0
  -27.2295  -37.1480   25.8854 H   0  0  0  0  0  0
  -20.9300  -29.8724   21.6960 H   0  0  0  0  0  0
  -26.0194  -38.2876   24.1452 H   0  0  0  0  0  0
  -32.7248  -19.3436   21.3973 H   0  0  0  0  0  0
  -31.2339  -19.7979   22.1720 H   0  0  0  0  0  0
  -30.5811  -17.6428   22.5186 H   0  0  0  0  0  0
  -32.2191  -17.1540   22.0997 H   0  0  0  0  0  0
  -29.8655  -18.0698   18.7020 H   0  0  0  0  0  0
  -29.0985  -18.4477   20.2504 H   0  0  0  0  0  0
  -31.9141  -19.0984   19.3748 H   0  0  0  0  0  0
  -31.6659  -16.8844   19.7849 H   0  0  0  0  0  0
  -29.1036  -20.3607   21.5892 H   0  0  0  0  0  0
  -28.3916  -21.9407   21.7193 H   0  0  0  0  0  0
  -29.9885  -21.6460   22.4267 H   0  0  0  0  0  0
  -33.1577  -20.2890   17.8108 H   0  0  0  0  0  0
  -32.3418  -20.9750   16.4137 H   0  0  0  0  0  0
  -31.6878  -19.5313   17.1600 H   0  0  0  0  0  0
  -31.6667  -25.0210   17.4516 H   0  0  0  0  0  0
  -31.1626  -25.6266   19.0054 H   0  0  0  0  0  0
  -29.9594  -25.3562   17.7390 H   0  0  0  0  0  0
  -30.1933  -25.0662   20.9255 H   0  0  0  0  0  0
  -29.0683  -24.0447   21.6868 H   0  0  0  0  0  0
  -27.2941  -24.8473   20.5105 H   0  0  0  0  0  0
  -28.1195  -24.9193   18.9809 H   0  0  0  0  0  0
  -29.1103  -15.7249   20.7640 H   0  0  0  0  0  0
  1 25  1  0  0  0
  1 30  2  0  0  0
  1 87  1  0  0  0
  2  3  1  0  0  0
  2 25  1  0  0  0
  2 88  1  0  0  0
  2 89  1  0  0  0
  3  4  1  0  0  0
  3 90  1  0  0  0
  3 91  1  0  0  0
  4  5  1  0  0  0
  4 92  1  0  0  0
  4 93  1  0  0  0
  5  6  1  0  0  0
  5 26  1  0  0  0
  5 94  1  0  0  0
  6 25  1  0  0  0
  6 95  1  0  0  0
  6 96  1  0  0  0
  7  8  2  0  0  0
  7 26  1  0  0  0
  7 29  1  0  0  0
  8  9  1  0  0  0
  8 22  1  0  0  0
  9 10  1  0  0  0
  9 27  2  0  0  0
 10 11  2  0  0  0
 10 15  1  0  0  0
 11 12  1  0  0  0
 11 97  1  0  0  0
 12 13  2  0  0  0
 12 98  1  0  0  0
 13 14  1  0  0  0
 13 31  1  0  0  0
 14 15  2  0  0  0
 14 99  1  0  0  0
 15100  1  0  0  0
 16 17  2  0  0  0
 16 21  1  0  0  0
 16 31  1  0  0  0
 17 18  1  0  0  0
 17101  1  0  0  0
 18 19  2  0  0  0
 18102  1  0  0  0
 19 20  1  0  0  0
 19 24  1  0  0  0
 20 21  2  0  0  0
 20103  1  0  0  0
 21 23  1  0  0  0
 22 28  1  0  0  0
 22 32  2  0  0  0
 26 27  1  0  0  0
 28104  1  0  0  0
 28105  1  0  0  0
 29106  1  0  0  0
 29107  1  0  0  0
 33 34  1  0  0  0
 33 66  1  0  0  0
 33 70  2  0  0  0
 34 36  1  0  0  0
 34 59  1  0  0  0
 34108  1  0  0  0
 35 44  2  0  0  0
 35 45  1  0  0  0
 35 68  1  0  0  0
 36 56  1  0  0  0
 36109  1  0  0  0
 37 39  1  0  0  0
 37 47  1  0  0  0
 37 66  1  0  0  0
 37110  1  0  0  0
 38 43  2  0  0  0
 38 46  1  0  0  0
 38 47  1  0  0  0
 39 64  1  0  0  0
 39 67  2  0  0  0
 40 52  1  0  0  0
 40 53  2  0  0  0
 40 58  1  0  0  0
 41111  1  0  0  0
 41112  1  0  0  0
 41113  1  0  0  0
 41 48  1  0  0  0
 42 43  1  0  0  0
 42 66  1  0  0  0
 42114  1  0  0  0
 42115  1  0  0  0
 43 44  1  0  0  0
 44116  1  0  0  0
 45 46  2  0  0  0
 45117  1  0  0  0
 46118  1  0  0  0
 47119  1  0  0  0
 47120  1  0  0  0
 48 56  1  0  0  0
 48 65  1  0  0  0
 48121  1  0  0  0
 49 50  1  0  0  0
 49 53  1  0  0  0
 49 64  1  0  0  0
 49122  1  0  0  0
 50 51  1  0  0  0
 50123  1  0  0  0
 50124  1  0  0  0
 51 52  1  0  0  0
 51125  1  0  0  0
 51126  1  0  0  0
 52127  1  0  0  0
 52128  1  0  0  0
 53 54  1  0  0  0
 54 55  2  0  0  0
 54129  1  0  0  0
 55 57  1  0  0  0
 55130  1  0  0  0
 56 69  2  0  0  0
 57 58  2  0  0  0
 57131  1  0  0  0
 58132  1  0  0  0
 59 60  1  0  0  0
 59 61  1  0  0  0
 59 62  1  0  0  0
 60133  1  0  0  0
 60134  1  0  0  0
 60135  1  0  0  0
 61136  1  0  0  0
 61137  1  0  0  0
 61138  1  0  0  0
 62139  1  0  0  0
 62140  1  0  0  0
 62141  1  0  0  0
 63 65  1  0  0  0
 63142  1  0  0  0
 63143  1  0  0  0
 63144  1  0  0  0
 64145  1  0  0  0
 65146  1  0  0  0
 68 85  1  0  0  0
 71 72  2  0  0  0
 71 74  1  0  0  0
 71 79  1  0  0  0
 72 73  1  0  0  0
 72 81  1  0  0  0
 73 75  2  0  0  0
 73 84  1  0  0  0
 74 82  1  0  0  0
 74 86  2  0  0  0
 75 83  1  0  0  0
 75 86  1  0  0  0
 76 77  1  0  0  0
 76 79  1  0  0  0
 76147  1  0  0  0
 76148  1  0  0  0
 77 80  1  0  0  0
 77149  1  0  0  0
 77150  1  0  0  0
 78 79  1  0  0  0
 78 80  1  0  0  0
 78151  1  0  0  0
 78152  1  0  0  0
 79153  1  0  0  0
 80 87  1  0  0  0
 80154  1  0  0  0
 81155  1  0  0  0
 81156  1  0  0  0
 81157  1  0  0  0
 82158  1  0  0  0
 82159  1  0  0  0
 82160  1  0  0  0
 83161  1  0  0  0
 83162  1  0  0  0
 83163  1  0  0  0
 84 85  1  0  0  0
 84164  1  0  0  0
 84165  1  0  0  0
 85166  1  0  0  0
 85167  1  0  0  0
 87168  1  0  0  0
M  ISO  4   1 100  68 101  85 101  87 100
M  END
> <chiral flag>
0

> <version>
0

> <s_m_source_file>
/data/baiqing/PycharmProjects/Reinvent-master-3.2/result/LINK_invent/BTK/process_docking_weight1_custom_sum_contain_oxygen_bond_distance_aromatic_linkinvent_7_9_3/rearranged_h_0150.sdf

> <i_m_source_file_index>
69

> <r_mmod_Potential_Energy-OPLS-2005>
-67.7549057006836

> <r_mmod_Stretch_Energy-OPLS-2005>
57.6577682495117

> <r_mmod_Bend_Energy-OPLS-2005>
173.52409362793

> <r_mmod_Torsional_Energy-OPLS-2005>
259.603668212891

> <r_mmod_Improper_Torsional_Energy-OPLS-2005>
6.78490877151489

> <r_mmod_Van_der_Waal_Energy-OPLS-2005>
170.872924804688

> <r_mmod_Electrostatic_Energy-OPLS-2005>
-548.838562011719

> <r_mmod_Solvation_Energy-OPLS-2005>
-222.199905395508

> <b_mmod_Minimization_Converged-OPLS-2005>
0

> <r_mmod_RMS_Derivative-OPLS-2005>
4.5109486579895

$$$$
69
                    3D
 Structure written by MMmdl.
176185  0  0  1  0            999 V2000
  -30.3960  -15.1259   21.3496 C   0  0  0  0  0  0
  -31.1642  -14.4574   19.0889 C   0  0  0  0  0  0
  -29.0410  -14.9071   16.8650 C   0  0  0  0  0  0
  -27.5973  -14.3935   17.5747 C   0  0  0  0  0  0
  -28.0518  -13.4515   20.1811 C   0  0  2  0  0  0
  -29.6363  -13.0297   20.7926 C   0  0  0  0  0  0
  -25.0171  -13.5916   21.1241 C   0  0  0  0  0  0
  -23.9309  -12.8490   21.0717 C   0  0  0  0  0  0
  -24.4227  -11.5768   20.8486 C   0  0  0  0  0  0
  -23.7821  -10.3262   20.9709 C   0  0  0  0  0  0
  -24.2970   -9.3665   21.8600 C   0  0  0  0  0  0
  -23.5979   -8.1685   22.0306 C   0  0  0  0  0  0
  -22.3908   -7.9642   21.3235 C   0  0  0  0  0  0
  -21.9218   -8.9252   20.4161 C   0  0  0  0  0  0
  -22.6119  -10.1205   20.2362 C   0  0  0  0  0  0
  -21.6720   -6.0623   22.5383 C   0  0  0  0  0  0
  -21.3924   -6.5564   23.8322 C   0  0  0  0  0  0
  -21.3598   -5.6671   24.9268 C   0  0  0  0  0  0
  -21.6085   -4.2963   24.7232 C   0  0  0  0  0  0
  -21.8843   -3.8113   23.4323 C   0  0  0  0  0  0
  -21.9113   -4.6938   22.3435 C   0  0  0  0  0  0
  -22.5408  -13.3496   21.2443 C   0  0  0  0  0  0
  -22.1646   -4.2195   21.1006 F   0  0  0  0  0  0
  -21.5608   -3.4453   25.7754 F   0  0  0  0  0  0
  -30.6152  -14.0603   20.5476 N   0  0  0  0  0  0
  -26.2218  -12.8327   20.6603 N   0  0  0  0  0  0
  -25.6352  -11.6233   20.4155 N   0  0  0  0  0  0
  -21.7871  -12.6745   22.0960 N   0  0  0  0  0  0
  -24.8239  -14.9682   21.3755 N   0  0  0  0  0  0
  -31.4739  -15.7184   21.3793 O   0  0  0  0  0  0
  -21.6154   -6.8475   21.4302 O   0  0  0  0  0  0
  -22.1687  -14.3908   20.6837 O   0  0  0  0  0  0
  -24.7505  -31.7219   23.0912 C   0  0  0  0  0  0
  -25.9788  -32.4080   23.7709 C   0  0  1  0  0  0
  -27.2395  -26.1746   19.9275 C   0  0  0  0  0  0
  -25.6045  -33.7924   24.1548 N   0  0  0  0  0  0
  -23.5821  -30.3198   21.4712 C   0  0  2  0  0  0
  -25.0058  -28.5440   20.0786 C   0  0  0  0  0  0
  -22.7998  -29.4003   22.4537 C   0  0  0  0  0  0
  -18.0386  -28.1457   22.8427 C   0  0  0  0  0  0
  -24.1485  -36.6978   23.2673 C   0  0  0  0  0  0
  -26.1915  -30.2514   21.4126 C   0  0  0  0  0  0
  -26.2359  -28.7742   20.7046 C   0  0  0  0  0  0
  -27.3019  -27.6371   20.5922 C   0  0  0  0  0  0
  -25.9342  -26.2841   19.3319 C   0  0  0  0  0  0
  -24.9188  -27.3225   19.3898 C   0  0  0  0  0  0
  -23.8310  -29.5782   20.1233 C   0  0  0  0  0  0
  -25.4161  -36.2667   24.0247 C   0  0  1  0  0  0
  -20.6037  -28.3831   23.1027 C   0  0  2  0  0  0
  -20.6821  -26.9443   22.5400 C   0  0  0  0  0  0
  -19.5808  -26.6358   21.5215 C   0  0  0  0  0  0
  -18.1993  -26.7975   22.1618 C   0  0  0  0  0  0
  -19.1661  -28.8987   23.2692 C   0  0  0  0  0  0
  -18.9572  -30.1563   23.8751 C   0  0  0  0  0  0
  -17.6559  -30.6627   24.0540 C   0  0  0  0  0  0
  -25.9195  -34.9074   23.4791 C   0  0  0  0  0  0
  -16.5441  -29.9093   23.6375 C   0  0  0  0  0  0
  -16.7368  -28.6520   23.0382 C   0  0  0  0  0  0
  -26.4721  -31.6386   25.0599 C   0  0  0  0  0  0
  -25.3613  -31.3835   26.1088 C   0  0  0  0  0  0
  -27.0758  -30.2689   24.6879 C   0  0  0  0  0  0
  -27.6025  -32.4397   25.7483 C   0  0  0  0  0  0
  -27.5540  -37.1628   24.8468 C   0  0  0  0  0  0
  -21.4596  -29.2956   22.3252 N   0  0  0  0  0  0
  -26.4223  -37.3522   23.9435 N   0  0  0  0  0  0
  -24.8785  -30.8073   22.0453 N   0  0  0  0  0  0
  -23.4200  -28.7685   23.3127 O   0  0  0  0  0  0
  -28.1701  -24.7256   19.7641 O   0  0  0  0  0  0
  -26.5939  -34.8801   22.4484 O   0  0  0  0  0  0
  -23.6403  -32.0573   23.5512 O   0  0  0  0  0  0
  -30.6437  -13.2516   17.1578 C   0  0  0  0  0  0
  -29.1449  -15.3923   19.0144 C   0  0  0  0  0  0
  -30.9672  -16.3201   17.3969 C   0  0  0  0  0  0
  -29.4016  -13.2884   18.3260 C   0  0  0  0  0  0
  -31.3728  -14.7639   16.7632 C   0  0  0  0  0  0
  -29.8091  -16.8867   18.4727 C   0  0  0  0  0  0
  -27.8950  -11.5919   21.8732 C   0  0  0  0  0  0
  -27.5426  -13.4310   22.6094 C   0  0  0  0  0  0
  -26.4856  -14.7662   19.4893 C   0  0  0  0  0  0
  -27.6042  -12.3242   18.4618 C   0  0  2  0  0  0
  -28.0103  -11.0561   19.9346 C   0  0  2  0  0  0
  -27.3630  -15.1207   21.5634 C   0  0  2  0  0  0
  -32.3334  -14.7052   15.6069 C   0  0  0  0  0  0
  -28.2863   -8.6601   20.9203 C   0  0  0  0  0  0
  -26.6831   -8.9559   18.9146 C   0  0  0  0  0  0
  -28.1923  -22.7056   19.3199 C   0  0  0  0  0  0
  -29.1454  -20.6343   18.9173 C   0  0  0  0  0  0
  -27.9204   -9.4970   19.6626 C   0  0  0  0  0  0
  -29.0131  -15.5943   21.7466 N   0  0  0  0  0  0
  -29.2398  -18.5685   18.9419 O   0  0  0  0  0  0
  -31.8735  -15.2683   19.2214 H   0  0  0  0  0  0
  -31.9432  -13.6699   19.0005 H   0  0  0  0  0  0
  -29.1019  -14.3849   15.8978 H   0  0  0  0  0  0
  -28.8383  -15.9077   16.4592 H   0  0  0  0  0  0
  -27.0674  -13.7700   16.8382 H   0  0  0  0  0  0
  -27.0016  -15.2730   17.3401 H   0  0  0  0  0  0
  -28.6356  -13.7300   20.8343 H   0  0  0  0  0  0
  -30.2130  -12.2282   20.3568 H   0  0  0  0  0  0
  -29.8474  -12.8348   21.8574 H   0  0  0  0  0  0
  -25.2085   -9.5617   22.4052 H   0  0  0  0  0  0
  -23.9747   -7.4179   22.7153 H   0  0  0  0  0  0
  -21.0042   -8.7524   19.8711 H   0  0  0  0  0  0
  -22.2219  -10.8791   19.5638 H   0  0  0  0  0  0
  -21.1961   -7.6083   23.9895 H   0  0  0  0  0  0
  -21.1455   -6.0401   25.9206 H   0  0  0  0  0  0
  -22.0722   -2.7628   23.2730 H   0  0  0  0  0  0
  -22.1260  -11.8485   22.5651 H   0  0  0  0  0  0
  -20.8691  -12.9970   22.3403 H   0  0  0  0  0  0
  -23.9085  -15.3399   21.1394 H   0  0  0  0  0  0
  -25.5895  -15.4116   20.8720 H   0  0  0  0  0  0
  -26.7950  -32.4382   23.0470 H   0  0  0  0  0  0
  -24.9968  -33.8815   24.9548 H   0  0  0  0  0  0
  -22.9407  -31.1766   21.2541 H   0  0  0  0  0  0
  -23.3803  -35.9242   23.3192 H   0  0  0  0  0  0
  -24.3539  -36.8824   22.2116 H   0  0  0  0  0  0
  -23.7176  -37.6062   23.6893 H   0  0  0  0  0  0
  -26.4665  -30.9556   20.6255 H   0  0  0  0  0  0
  -27.0188  -30.2742   22.1103 H   0  0  0  0  0  0
  -28.2289  -27.8382   21.1016 H   0  0  0  0  0  0
  -25.6165  -25.4220   18.7638 H   0  0  0  0  0  0
  -23.9877  -27.1309   18.8671 H   0  0  0  0  0  0
  -24.0062  -30.3217   19.3443 H   0  0  0  0  0  0
  -22.9084  -29.0862   19.8104 H   0  0  0  0  0  0
  -25.1386  -36.1331   25.0731 H   0  0  0  0  0  0
  -21.0127  -28.3514   24.1157 H   0  0  0  0  0  0
  -20.5636  -26.2487   23.3712 H   0  0  0  0  0  0
  -21.6671  -26.7299   22.1246 H   0  0  0  0  0  0
  -19.6945  -25.6233   21.1324 H   0  0  0  0  0  0
  -19.6756  -27.3090   20.6680 H   0  0  0  0  0  0
  -17.4253  -26.6704   21.4032 H   0  0  0  0  0  0
  -18.0388  -26.0160   22.9058 H   0  0  0  0  0  0
  -19.8052  -30.7417   24.2038 H   0  0  0  0  0  0
  -17.5113  -31.6296   24.5167 H   0  0  0  0  0  0
  -15.5431  -30.2955   23.7793 H   0  0  0  0  0  0
  -15.8772  -28.0795   22.7176 H   0  0  0  0  0  0
  -24.5821  -30.7213   25.7305 H   0  0  0  0  0  0
  -24.8804  -32.3097   26.4230 H   0  0  0  0  0  0
  -25.7633  -30.9118   27.0064 H   0  0  0  0  0  0
  -26.3574  -29.6110   24.1992 H   0  0  0  0  0  0
  -27.4102  -29.7388   25.5808 H   0  0  0  0  0  0
  -27.9552  -30.3740   24.0527 H   0  0  0  0  0  0
  -27.2471  -33.3812   26.1678 H   0  0  0  0  0  0
  -28.4042  -32.6790   25.0490 H   0  0  0  0  0  0
  -28.0482  -31.8810   26.5718 H   0  0  0  0  0  0
  -28.2451  -38.0025   24.7589 H   0  0  0  0  0  0
  -28.1143  -36.2542   24.6198 H   0  0  0  0  0  0
  -27.2266  -37.1124   25.8870 H   0  0  0  0  0  0
  -21.0019  -29.8486   21.6120 H   0  0  0  0  0  0
  -25.9986  -38.2525   24.1518 H   0  0  0  0  0  0
  -30.9081  -12.3652   16.6141 H   0  0  0  0  0  0
  -28.3911  -15.8212   19.5923 H   0  0  0  0  0  0
  -31.5350  -17.1132   16.9348 H   0  0  0  0  0  0
  -27.1253  -10.9612   22.3371 H   0  0  0  0  0  0
  -28.7654  -11.1411   22.3794 H   0  0  0  0  0  0
  -28.2867  -13.6259   23.3740 H   0  0  0  0  0  0
  -26.6174  -13.3452   23.1910 H   0  0  0  0  0  0
  -25.4443  -14.7313   19.1482 H   0  0  0  0  0  0
  -26.5277  -15.7942   19.1200 H   0  0  0  0  0  0
  -27.2306  -11.8535   17.5488 H   0  0  0  0  0  0
  -29.0538  -10.9258   19.7586 H   0  0  0  0  0  0
  -26.8677  -15.9177   22.1073 H   0  0  0  0  0  0
  -31.9969  -13.9060   14.9387 H   0  0  0  0  0  0
  -33.3403  -14.4999   15.9620 H   0  0  0  0  0  0
  -32.3331  -15.6444   15.0542 H   0  0  0  0  0  0
  -29.3078   -8.8751   21.2568 H   0  0  0  0  0  0
  -28.2250   -7.5843   20.7186 H   0  0  0  0  0  0
  -27.6192   -8.8429   21.7655 H   0  0  0  0  0  0
  -26.8046   -9.0533   17.8310 H   0  0  0  0  0  0
  -25.7704   -9.4677   19.2024 H   0  0  0  0  0  0
  -26.5430   -7.8861   19.1007 H   0  0  0  0  0  0
  -27.3524  -22.3861   19.9358 H   0  0  0  0  0  0
  -27.6972  -22.8204   18.3466 H   0  0  0  0  0  0
  -30.1959  -20.8431   19.1204 H   0  0  0  0  0  0
  -29.1258  -20.7199   17.8341 H   0  0  0  0  0  0
  -28.7161   -9.2203   18.9614 H   0  0  0  0  0  0
  -29.0633  -16.4677   22.2603 H   0  0  0  0  0  0
  1 25  1  0  0  0
  1 30  2  0  0  0
  1 89  1  0  0  0
  2  3  1  0  0  0
  2 25  1  0  0  0
  2 91  1  0  0  0
  2 92  1  0  0  0
  3  4  1  0  0  0
  3 93  1  0  0  0
  3 94  1  0  0  0
  4  5  1  0  0  0
  4 95  1  0  0  0
  4 96  1  0  0  0
  5  6  1  0  0  0
  5 26  1  0  0  0
  5 97  1  0  0  0
  6 25  1  0  0  0
  6 98  1  0  0  0
  6 99  1  0  0  0
  7  8  2  0  0  0
  7 26  1  0  0  0
  7 29  1  0  0  0
  8  9  1  0  0  0
  8 22  1  0  0  0
  9 10  1  0  0  0
  9 27  2  0  0  0
 10 11  2  0  0  0
 10 15  1  0  0  0
 11 12  1  0  0  0
 11100  1  0  0  0
 12 13  2  0  0  0
 12101  1  0  0  0
 13 14  1  0  0  0
 13 31  1  0  0  0
 14 15  2  0  0  0
 14102  1  0  0  0
 15103  1  0  0  0
 16 17  2  0  0  0
 16 21  1  0  0  0
 16 31  1  0  0  0
 17 18  1  0  0  0
 17104  1  0  0  0
 18 19  2  0  0  0
 18105  1  0  0  0
 19 20  1  0  0  0
 19 24  1  0  0  0
 20 21  2  0  0  0
 20106  1  0  0  0
 21 23  1  0  0  0
 22 28  1  0  0  0
 22 32  2  0  0  0
 26 27  1  0  0  0
 28107  1  0  0  0
 28108  1  0  0  0
 29109  1  0  0  0
 29110  1  0  0  0
 33 34  1  0  0  0
 33 66  1  0  0  0
 33 70  2  0  0  0
 34 36  1  0  0  0
 34 59  1  0  0  0
 34111  1  0  0  0
 35 44  2  0  0  0
 35 45  1  0  0  0
 35 68  1  0  0  0
 36 56  1  0  0  0
 36112  1  0  0  0
 37 39  1  0  0  0
 37 47  1  0  0  0
 37 66  1  0  0  0
 37113  1  0  0  0
 38 43  2  0  0  0
 38 46  1  0  0  0
 38 47  1  0  0  0
 39 64  1  0  0  0
 39 67  2  0  0  0
 40 52  1  0  0  0
 40 53  2  0  0  0
 40 58  1  0  0  0
 41114  1  0  0  0
 41115  1  0  0  0
 41116  1  0  0  0
 41 48  1  0  0  0
 42 43  1  0  0  0
 42 66  1  0  0  0
 42117  1  0  0  0
 42118  1  0  0  0
 43 44  1  0  0  0
 44119  1  0  0  0
 45 46  2  0  0  0
 45120  1  0  0  0
 46121  1  0  0  0
 47122  1  0  0  0
 47123  1  0  0  0
 48 56  1  0  0  0
 48 65  1  0  0  0
 48124  1  0  0  0
 49 50  1  0  0  0
 49 53  1  0  0  0
 49 64  1  0  0  0
 49125  1  0  0  0
 50 51  1  0  0  0
 50126  1  0  0  0
 50127  1  0  0  0
 51 52  1  0  0  0
 51128  1  0  0  0
 51129  1  0  0  0
 52130  1  0  0  0
 52131  1  0  0  0
 53 54  1  0  0  0
 54 55  2  0  0  0
 54132  1  0  0  0
 55 57  1  0  0  0
 55133  1  0  0  0
 56 69  2  0  0  0
 57 58  2  0  0  0
 57134  1  0  0  0
 58135  1  0  0  0
 59 60  1  0  0  0
 59 61  1  0  0  0
 59 62  1  0  0  0
 60136  1  0  0  0
 60137  1  0  0  0
 60138  1  0  0  0
 61139  1  0  0  0
 61140  1  0  0  0
 61141  1  0  0  0
 62142  1  0  0  0
 62143  1  0  0  0
 62144  1  0  0  0
 63 65  1  0  0  0
 63145  1  0  0  0
 63146  1  0  0  0
 63147  1  0  0  0
 64148  1  0  0  0
 65149  1  0  0  0
 68 86  1  0  0  0
 71 74  2  0  0  0
 71 75  1  0  0  0
 71150  1  0  0  0
 72 74  1  0  0  0
 72 76  2  0  0  0
 72151  1  0  0  0
 73 75  2  0  0  0
 73 76  1  0  0  0
 73152  1  0  0  0
 74 80  1  0  0  0
 75 83  1  0  0  0
 76 90  1  0  0  0
 77 78  1  0  0  0
 77153  1  0  0  0
 77154  1  0  0  0
 77 81  1  0  0  0
 78 82  1  0  0  0
 78155  1  0  0  0
 78156  1  0  0  0
 79 80  1  0  0  0
 79 82  1  0  0  0
 79157  1  0  0  0
 79158  1  0  0  0
 80 81  1  0  0  0
 80159  1  0  0  0
 81 88  1  0  0  0
 81160  1  0  0  0
 82 89  1  0  0  0
 82161  1  0  0  0
 83162  1  0  0  0
 83163  1  0  0  0
 83164  1  0  0  0
 84165  1  0  0  0
 84166  1  0  0  0
 84167  1  0  0  0
 84 88  1  0  0  0
 85 88  1  0  0  0
 85168  1  0  0  0
 85169  1  0  0  0
 85170  1  0  0  0
 86 87  1  0  0  0
 86171  1  0  0  0
 86172  1  0  0  0
 87 90  1  0  0  0
 87173  1  0  0  0
 87174  1  0  0  0
 88175  1  0  0  0
 89176  1  0  0  0
M  ISO  4   1 100  68 101  86 101  89 100
M  END
> <chiral flag>
0

> <version>
0

> <s_m_source_file>
/data/baiqing/PycharmProjects/Reinvent-master-3.2/result/LINK_invent/BTK/process_docking_weight1_custom_sum_contain_oxygen_bond_distance_aromatic_linkinvent_7_9_3/rearranged_h_0150.sdf

> <i_m_source_file_index>
70

> <r_mmod_Potential_Energy-OPLS-2005>
25742.529296875

> <r_mmod_Stretch_Energy-OPLS-2005>
14514.173828125

> <r_mmod_Bend_Energy-OPLS-2005>
1944.03955078125

> <r_mmod_Torsional_Energy-OPLS-2005>
454.191864013672

> <r_mmod_Improper_Torsional_Energy-OPLS-2005>
36.7921257019043

> <r_mmod_Van_der_Waal_Energy-OPLS-2005>
5650.5625

> <r_mmod_Electrostatic_Energy-OPLS-2005>
-360.552398681641

> <r_mmod_Solvation_Energy-OPLS-2005>
-206.134582519531

> <b_mmod_Minimization_Converged-OPLS-2005>
0

> <r_mmod_RMS_Derivative-OPLS-2005>
25.5543537139893

$$$$
70
                    3D
 Structure written by MMmdl.
179189  0  0  1  0            999 V2000
  -30.8035  -14.4560   20.6206 C   0  0  0  0  0  0
  -30.3839  -12.3172   19.4401 C   0  0  0  0  0  0
  -29.4800  -12.5595   18.2184 C   0  0  0  0  0  0
  -27.9994  -12.4096   18.6061 C   0  0  0  0  0  0
  -27.6543  -13.2156   19.8848 C   0  0  2  0  0  0
  -28.7043  -13.0529   21.0148 C   0  0  0  0  0  0
  -25.2571  -13.8151   20.5776 C   0  0  0  0  0  0
  -24.1825  -13.0400   20.9193 C   0  0  0  0  0  0
  -24.6405  -11.6889   20.8782 C   0  0  0  0  0  0
  -23.9074  -10.4251   21.0464 C   0  0  0  0  0  0
  -24.3587   -9.4149   21.9245 C   0  0  0  0  0  0
  -23.6245   -8.2222   22.0790 C   0  0  0  0  0  0
  -22.4242   -8.0292   21.3570 C   0  0  0  0  0  0
  -21.9911   -9.0259   20.4671 C   0  0  0  0  0  0
  -22.7261  -10.2126   20.3107 C   0  0  0  0  0  0
  -21.6837   -6.0754   22.5301 C   0  0  0  0  0  0
  -21.4070   -6.5670   23.8230 C   0  0  0  0  0  0
  -21.3619   -5.6807   24.9189 C   0  0  0  0  0  0
  -21.6013   -4.3087   24.7252 C   0  0  0  0  0  0
  -21.8834   -3.8180   23.4367 C   0  0  0  0  0  0
  -21.9187   -4.6977   22.3422 C   0  0  0  0  0  0
  -22.7851  -13.5180   21.1842 C   0  0  0  0  0  0
  -22.1663   -4.2173   21.0992 F   0  0  0  0  0  0
  -21.5535   -3.4570   25.7758 F   0  0  0  0  0  0
  -30.0390  -13.3345   20.4591 N   0  0  0  0  0  0
  -26.3003  -12.9348   20.3454 N   0  0  0  0  0  0
  -25.9335  -11.6485   20.5827 N   0  0  0  0  0  0
  -22.0486  -12.8145   22.0404 N   0  0  0  0  0  0
  -25.4262  -15.1863   20.4175 N   0  0  0  0  0  0
  -31.8983  -14.5617   20.0610 O   0  0  0  0  0  0
  -21.6637   -6.8876   21.4246 O   0  0  0  0  0  0
  -22.3507  -14.5452   20.6664 O   0  0  0  0  0  0
  -24.6173  -31.8603   23.2104 C   0  0  0  0  0  0
  -25.9045  -32.4772   23.8407 C   0  0  1  0  0  0
  -27.2061  -27.3986   20.1161 C   0  0  0  0  0  0
  -25.5885  -33.8582   24.2287 N   0  0  0  0  0  0
  -23.4010  -30.4878   21.5561 C   0  0  2  0  0  0
  -24.8392  -28.9516   20.1110 C   0  0  0  0  0  0
  -22.7364  -29.4663   22.5088 C   0  0  0  0  0  0
  -18.0243  -28.1399   22.8530 C   0  0  0  0  0  0
  -24.1506  -36.7296   23.2662 C   0  0  0  0  0  0
  -25.9295  -30.8304   21.3529 C   0  0  0  0  0  0
  -26.0053  -29.4641   20.6951 C   0  0  0  0  0  0
  -27.1950  -28.6976   20.6826 C   0  0  0  0  0  0
  -26.0254  -26.9092   19.5130 C   0  0  0  0  0  0
  -24.8470  -27.6829   19.5065 C   0  0  0  0  0  0
  -23.5988  -29.8167   20.1705 C   0  0  0  0  0  0
  -25.4122  -36.3069   24.0319 C   0  0  1  0  0  0
  -20.5816  -28.3679   23.1381 C   0  0  2  0  0  0
  -20.6733  -26.9434   22.5472 C   0  0  0  0  0  0
  -19.5717  -26.6418   21.5259 C   0  0  0  0  0  0
  -18.1869  -26.7983   22.1635 C   0  0  0  0  0  0
  -19.1492  -28.8859   23.2925 C   0  0  0  0  0  0
  -18.9415  -30.1471   23.8927 C   0  0  0  0  0  0
  -17.6423  -30.6629   24.0559 C   0  0  0  0  0  0
  -25.9052  -34.9431   23.5099 C   0  0  0  0  0  0
  -16.5319  -29.9124   23.6361 C   0  0  0  0  0  0
  -16.7240  -28.6524   23.0438 C   0  0  0  0  0  0
  -26.4463  -31.6594   25.0763 C   0  0  0  0  0  0
  -25.3752  -31.3441   26.1489 C   0  0  0  0  0  0
  -27.0404  -30.3123   24.6117 C   0  0  0  0  0  0
  -27.6046  -32.4335   25.7510 C   0  0  0  0  0  0
  -27.5565  -37.1785   24.8452 C   0  0  0  0  0  0
  -21.4092  -29.3036   22.3800 N   0  0  0  0  0  0
  -26.4273  -37.3788   23.9437 N   0  0  0  0  0  0
  -24.6696  -31.0713   22.0989 N   0  0  0  0  0  0
  -23.4136  -28.8229   23.3141 O   0  0  0  0  0  0
  -28.3611  -26.6396   20.1473 O   0  0  0  0  0  0
  -26.5649  -34.8861   22.4687 O   0  0  0  0  0  0
  -23.5375  -32.1377   23.7518 O   0  0  0  0  0  0
  -32.4701  -18.8189   18.9743 C   0  0  0  0  0  0
  -33.1939  -20.9856   18.1839 C   0  0  0  0  0  0
  -31.6453  -19.4004   19.9715 C   0  0  0  0  0  0
  -33.2484  -19.5925   18.0983 C   0  0  0  0  0  0
  -31.5270  -20.8413   20.0170 C   0  0  0  0  0  0
  -32.3447  -21.6146   19.1173 C   0  0  0  0  0  0
  -29.4484  -23.4659   21.9945 C   0  0  0  0  0  0
  -28.9946  -22.8942   19.6141 C   0  0  0  0  0  0
  -29.1159  -24.9597   21.7260 C   0  0  0  0  0  0
  -28.7167  -24.3760   19.2553 C   0  0  0  0  0  0
  -29.8151  -17.5807   20.3063 C   0  0  0  0  0  0
  -31.9985  -17.4020   21.6005 C   0  0  0  0  0  0
  -29.3123  -16.3742   21.1585 C   0  0  0  0  0  0
  -31.3732  -16.1748   22.3264 C   0  0  0  0  0  0
  -30.9681  -18.3944   20.9619 C   0  0  0  0  0  0
  -30.0493  -22.8211   20.7312 C   0  0  2  0  0  0
  -28.2504  -25.2258   20.4657 C   0  0  2  0  0  0
  -34.1713  -18.9283   17.0983 C   0  0  0  0  0  0
  -32.2983  -23.7097   17.9594 C   0  0  0  0  0  0
  -30.4037  -15.4445   21.4801 N   0  0  0  0  0  0
  -30.6234  -21.4669   20.9291 N   0  0  0  0  0  0
  -32.4105  -22.9884   19.1858 O   0  0  0  0  0  0
  -31.4326  -12.3506   19.1409 H   0  0  0  0  0  0
  -30.2298  -11.3144   19.8366 H   0  0  0  0  0  0
  -29.7225  -11.8855   17.3984 H   0  0  0  0  0  0
  -29.6602  -13.5704   17.8466 H   0  0  0  0  0  0
  -27.7670  -11.3521   18.7378 H   0  0  0  0  0  0
  -27.3768  -12.7644   17.7802 H   0  0  0  0  0  0
  -27.6670  -14.2521   19.5678 H   0  0  0  0  0  0
  -28.6802  -12.0426   21.4242 H   0  0  0  0  0  0
  -28.4690  -13.7132   21.8515 H   0  0  0  0  0  0
  -25.2705   -9.5577   22.4865 H   0  0  0  0  0  0
  -23.9942   -7.4578   22.7487 H   0  0  0  0  0  0
  -21.0877   -8.8773   19.8915 H   0  0  0  0  0  0
  -22.3756  -10.9686   19.6241 H   0  0  0  0  0  0
  -21.2210   -7.6207   23.9778 H   0  0  0  0  0  0
  -21.1369   -6.0549   25.9065 H   0  0  0  0  0  0
  -22.0650   -2.7652   23.2912 H   0  0  0  0  0  0
  -22.4109  -11.9814   22.4788 H   0  0  0  0  0  0
  -21.1088  -13.1117   22.2630 H   0  0  0  0  0  0
  -24.6545  -15.8379   20.5121 H   0  0  0  0  0  0
  -26.2841  -15.6199   20.0979 H   0  0  0  0  0  0
  -26.7158  -32.5449   23.1199 H   0  0  0  0  0  0
  -24.9991  -33.9764   25.0408 H   0  0  0  0  0  0
  -22.6933  -31.3072   21.4217 H   0  0  0  0  0  0
  -23.3780  -35.9610   23.3260 H   0  0  0  0  0  0
  -24.3597  -36.9021   22.2100 H   0  0  0  0  0  0
  -23.7253  -37.6432   23.6793 H   0  0  0  0  0  0
  -26.0344  -31.6022   20.5884 H   0  0  0  0  0  0
  -26.8144  -30.8780   21.9724 H   0  0  0  0  0  0
  -28.1013  -29.0845   21.1252 H   0  0  0  0  0  0
  -26.0014  -25.9284   19.0579 H   0  0  0  0  0  0
  -23.9489  -27.2870   19.0521 H   0  0  0  0  0  0
  -23.6872  -30.5905   19.4074 H   0  0  0  0  0  0
  -22.7208  -29.2332   19.8845 H   0  0  0  0  0  0
  -25.1337  -36.1881   25.0806 H   0  0  0  0  0  0
  -20.9881  -28.3256   24.1515 H   0  0  0  0  0  0
  -20.5724  -26.2266   23.3638 H   0  0  0  0  0  0
  -21.6585  -26.7531   22.1218 H   0  0  0  0  0  0
  -19.6877  -25.6324   21.1301 H   0  0  0  0  0  0
  -19.6679  -27.3216   20.6776 H   0  0  0  0  0  0
  -17.4163  -26.6821   21.3996 H   0  0  0  0  0  0
  -18.0183  -26.0090   22.8985 H   0  0  0  0  0  0
  -19.7853  -30.7282   24.2365 H   0  0  0  0  0  0
  -17.4947  -31.6328   24.5134 H   0  0  0  0  0  0
  -15.5326  -30.3040   23.7666 H   0  0  0  0  0  0
  -15.8632  -28.0821   22.7256 H   0  0  0  0  0  0
  -24.6175  -30.6532   25.7754 H   0  0  0  0  0  0
  -24.8636  -32.2403   26.4992 H   0  0  0  0  0  0
  -25.8187  -30.8647   27.0224 H   0  0  0  0  0  0
  -26.2962  -29.6779   24.1288 H   0  0  0  0  0  0
  -27.4384  -29.7449   25.4532 H   0  0  0  0  0  0
  -27.8663  -30.4598   23.9152 H   0  0  0  0  0  0
  -27.2753  -33.3732   26.1947 H   0  0  0  0  0  0
  -28.3874  -32.6706   25.0294 H   0  0  0  0  0  0
  -28.0685  -31.8535   26.5491 H   0  0  0  0  0  0
  -28.2485  -38.0184   24.7646 H   0  0  0  0  0  0
  -28.1164  -36.2702   24.6154 H   0  0  0  0  0  0
  -27.2248  -37.1276   25.8834 H   0  0  0  0  0  0
  -20.9295  -29.8684   21.6920 H   0  0  0  0  0  0
  -26.0107  -38.2801   24.1560 H   0  0  0  0  0  0
  -32.5469  -17.7458   18.8821 H   0  0  0  0  0  0
  -33.8351  -21.5769   17.5481 H   0  0  0  0  0  0
  -28.5534  -22.9320   22.3201 H   0  0  0  0  0  0
  -30.1640  -23.4194   22.8191 H   0  0  0  0  0  0
  -29.3401  -22.3655   18.7230 H   0  0  0  0  0  0
  -28.0737  -22.3975   19.9305 H   0  0  0  0  0  0
  -30.0478  -25.5166   21.6296 H   0  0  0  0  0  0
  -28.6089  -25.3784   22.5956 H   0  0  0  0  0  0
  -27.9765  -24.4352   18.4575 H   0  0  0  0  0  0
  -29.6315  -24.8059   18.8439 H   0  0  0  0  0  0
  -28.9747  -18.2486   20.1002 H   0  0  0  0  0  0
  -30.1426  -17.1987   19.3387 H   0  0  0  0  0  0
  -32.6740  -16.9910   20.8521 H   0  0  0  0  0  0
  -32.6464  -17.9495   22.2883 H   0  0  0  0  0  0
  -28.5165  -15.8630   20.6260 H   0  0  0  0  0  0
  -28.8605  -16.7242   22.0901 H   0  0  0  0  0  0
  -30.8870  -16.5022   23.2462 H   0  0  0  0  0  0
  -32.1673  -15.5005   22.6523 H   0  0  0  0  0  0
  -30.5392  -18.9549   21.7919 H   0  0  0  0  0  0
  -30.8344  -23.5211   20.4953 H   0  0  0  0  0  0
  -27.2274  -24.9296   20.7145 H   0  0  0  0  0  0
  -34.7186  -18.1162   17.5794 H   0  0  0  0  0  0
  -34.8957  -19.6355   16.6892 H   0  0  0  0  0  0
  -33.5984  -18.5134   16.2695 H   0  0  0  0  0  0
  -31.9076  -24.7112   18.1507 H   0  0  0  0  0  0
  -31.6043  -23.2288   17.2724 H   0  0  0  0  0  0
  -33.2628  -23.8355   17.4682 H   0  0  0  0  0  0
  -30.1182  -20.8582   21.5617 H   0  0  0  0  0  0
  1 25  1  0  0  0
  1 30  2  0  0  0
  1 90  1  0  0  0
  2  3  1  0  0  0
  2 25  1  0  0  0
  2 93  1  0  0  0
  2 94  1  0  0  0
  3  4  1  0  0  0
  3 95  1  0  0  0
  3 96  1  0  0  0
  4  5  1  0  0  0
  4 97  1  0  0  0
  4 98  1  0  0  0
  5  6  1  0  0  0
  5 26  1  0  0  0
  5 99  1  0  0  0
  6 25  1  0  0  0
  6100  1  0  0  0
  6101  1  0  0  0
  7  8  2  0  0  0
  7 26  1  0  0  0
  7 29  1  0  0  0
  8  9  1  0  0  0
  8 22  1  0  0  0
  9 10  1  0  0  0
  9 27  2  0  0  0
 10 11  2  0  0  0
 10 15  1  0  0  0
 11 12  1  0  0  0
 11102  1  0  0  0
 12 13  2  0  0  0
 12103  1  0  0  0
 13 14  1  0  0  0
 13 31  1  0  0  0
 14 15  2  0  0  0
 14104  1  0  0  0
 15105  1  0  0  0
 16 17  2  0  0  0
 16 21  1  0  0  0
 16 31  1  0  0  0
 17 18  1  0  0  0
 17106  1  0  0  0
 18 19  2  0  0  0
 18107  1  0  0  0
 19 20  1  0  0  0
 19 24  1  0  0  0
 20 21  2  0  0  0
 20108  1  0  0  0
 21 23  1  0  0  0
 22 28  1  0  0  0
 22 32  2  0  0  0
 26 27  1  0  0  0
 28109  1  0  0  0
 28110  1  0  0  0
 29111  1  0  0  0
 29112  1  0  0  0
 33 34  1  0  0  0
 33 66  1  0  0  0
 33 70  2  0  0  0
 34 36  1  0  0  0
 34 59  1  0  0  0
 34113  1  0  0  0
 35 44  2  0  0  0
 35 45  1  0  0  0
 35 68  1  0  0  0
 36 56  1  0  0  0
 36114  1  0  0  0
 37 39  1  0  0  0
 37 47  1  0  0  0
 37 66  1  0  0  0
 37115  1  0  0  0
 38 43  2  0  0  0
 38 46  1  0  0  0
 38 47  1  0  0  0
 39 64  1  0  0  0
 39 67  2  0  0  0
 40 52  1  0  0  0
 40 53  2  0  0  0
 40 58  1  0  0  0
 41116  1  0  0  0
 41117  1  0  0  0
 41118  1  0  0  0
 41 48  1  0  0  0
 42 43  1  0  0  0
 42 66  1  0  0  0
 42119  1  0  0  0
 42120  1  0  0  0
 43 44  1  0  0  0
 44121  1  0  0  0
 45 46  2  0  0  0
 45122  1  0  0  0
 46123  1  0  0  0
 47124  1  0  0  0
 47125  1  0  0  0
 48 56  1  0  0  0
 48 65  1  0  0  0
 48126  1  0  0  0
 49 50  1  0  0  0
 49 53  1  0  0  0
 49 64  1  0  0  0
 49127  1  0  0  0
 50 51  1  0  0  0
 50128  1  0  0  0
 50129  1  0  0  0
 51 52  1  0  0  0
 51130  1  0  0  0
 51131  1  0  0  0
 52132  1  0  0  0
 52133  1  0  0  0
 53 54  1  0  0  0
 54 55  2  0  0  0
 54134  1  0  0  0
 55 57  1  0  0  0
 55135  1  0  0  0
 56 69  2  0  0  0
 57 58  2  0  0  0
 57136  1  0  0  0
 58137  1  0  0  0
 59 60  1  0  0  0
 59 61  1  0  0  0
 59 62  1  0  0  0
 60138  1  0  0  0
 60139  1  0  0  0
 60140  1  0  0  0
 61141  1  0  0  0
 61142  1  0  0  0
 61143  1  0  0  0
 62144  1  0  0  0
 62145  1  0  0  0
 62146  1  0  0  0
 63 65  1  0  0  0
 63147  1  0  0  0
 63148  1  0  0  0
 63149  1  0  0  0
 64150  1  0  0  0
 65151  1  0  0  0
 68 87  1  0  0  0
 71 73  2  0  0  0
 71 74  1  0  0  0
 71152  1  0  0  0
 72 74  2  0  0  0
 72 76  1  0  0  0
 72153  1  0  0  0
 73 75  1  0  0  0
 73 85  1  0  0  0
 74 88  1  0  0  0
 75 76  2  0  0  0
 75 91  1  0  0  0
 76 92  1  0  0  0
 77 79  1  0  0  0
 77 86  1  0  0  0
 77154  1  0  0  0
 77155  1  0  0  0
 78 80  1  0  0  0
 78 86  1  0  0  0
 78156  1  0  0  0
 78157  1  0  0  0
 79 87  1  0  0  0
 79158  1  0  0  0
 79159  1  0  0  0
 80 87  1  0  0  0
 80160  1  0  0  0
 80161  1  0  0  0
 81 83  1  0  0  0
 81 85  1  0  0  0
 81162  1  0  0  0
 81163  1  0  0  0
 82 84  1  0  0  0
 82 85  1  0  0  0
 82164  1  0  0  0
 82165  1  0  0  0
 83 90  1  0  0  0
 83166  1  0  0  0
 83167  1  0  0  0
 84 90  1  0  0  0
 84168  1  0  0  0
 84169  1  0  0  0
 85170  1  0  0  0
 86 91  1  0  0  0
 86171  1  0  0  0
 87172  1  0  0  0
 88173  1  0  0  0
 88174  1  0  0  0
 88175  1  0  0  0
 89 92  1  0  0  0
 89176  1  0  0  0
 89177  1  0  0  0
 89178  1  0  0  0
 91179  1  0  0  0
M  ISO  4   1 100  68 101  87 101  90 100
M  END
> <chiral flag>
0

> <version>
0

> <s_m_source_file>
/data/baiqing/PycharmProjects/Reinvent-master-3.2/result/LINK_invent/BTK/process_docking_weight1_custom_sum_contain_oxygen_bond_distance_aromatic_linkinvent_7_9_3/rearranged_h_0150.sdf

> <i_m_source_file_index>
71

> <r_mmod_Potential_Energy-OPLS-2005>
216.956207275391

> <r_mmod_Stretch_Energy-OPLS-2005>
62.9277572631836

> <r_mmod_Bend_Energy-OPLS-2005>
147.975616455078

> <r_mmod_Torsional_Energy-OPLS-2005>
353.129425048828

> <r_mmod_Improper_Torsional_Energy-OPLS-2005>
6.33219146728516

> <r_mmod_Van_der_Waal_Energy-OPLS-2005>
167.984252929688

> <r_mmod_Electrostatic_Energy-OPLS-2005>
-333.0830078125

> <r_mmod_Solvation_Energy-OPLS-2005>
-207.481231689453

> <b_mmod_Minimization_Converged-OPLS-2005>
0

> <r_mmod_RMS_Derivative-OPLS-2005>
7.45331954956055

$$$$
71
                    3D
 Structure written by MMmdl.
172181  0  0  1  0            999 V2000
  -30.6735  -14.6857   20.4631 C   0  0  0  0  0  0
  -30.4146  -12.4209   19.4664 C   0  0  0  0  0  0
  -29.4983  -12.4973   18.2282 C   0  0  0  0  0  0
  -28.0249  -12.3312   18.6440 C   0  0  0  0  0  0
  -27.6362  -13.2272   19.8508 C   0  0  2  0  0  0
  -28.6859  -13.1779   20.9832 C   0  0  0  0  0  0
  -25.2502  -13.8185   20.5729 C   0  0  0  0  0  0
  -24.1784  -13.0439   20.9224 C   0  0  0  0  0  0
  -24.6368  -11.6911   20.8762 C   0  0  0  0  0  0
  -23.9049  -10.4292   21.0414 C   0  0  0  0  0  0
  -24.3608   -9.4204   21.9185 C   0  0  0  0  0  0
  -23.6290   -8.2237   22.0751 C   0  0  0  0  0  0
  -22.4272   -8.0276   21.3542 C   0  0  0  0  0  0
  -21.9901   -9.0248   20.4643 C   0  0  0  0  0  0
  -22.7225  -10.2132   20.3055 C   0  0  0  0  0  0
  -21.6846   -6.0733   22.5278 C   0  0  0  0  0  0
  -21.4010   -6.5635   23.8212 C   0  0  0  0  0  0
  -21.3659   -5.6787   24.9172 C   0  0  0  0  0  0
  -21.6047   -4.3053   24.7219 C   0  0  0  0  0  0
  -21.8821   -3.8141   23.4340 C   0  0  0  0  0  0
  -21.9193   -4.6960   22.3397 C   0  0  0  0  0  0
  -22.7810  -13.5236   21.1866 C   0  0  0  0  0  0
  -22.1662   -4.2149   21.0974 F   0  0  0  0  0  0
  -21.5627   -3.4534   25.7729 F   0  0  0  0  0  0
  -29.9894  -13.4957   20.3908 N   0  0  0  0  0  0
  -26.2915  -12.9375   20.3325 N   0  0  0  0  0  0
  -25.9301  -11.6527   20.5785 N   0  0  0  0  0  0
  -22.0441  -12.8241   22.0422 N   0  0  0  0  0  0
  -25.4217  -15.1906   20.4144 N   0  0  0  0  0  0
  -31.8669  -14.7218   20.1508 O   0  0  0  0  0  0
  -21.6635   -6.8874   21.4240 O   0  0  0  0  0  0
  -22.3514  -14.5541   20.6696 O   0  0  0  0  0  0
  -24.6280  -31.8576   23.2001 C   0  0  0  0  0  0
  -25.9117  -32.4765   23.8339 C   0  0  1  0  0  0
  -27.2245  -27.3018   20.1099 C   0  0  0  0  0  0
  -25.5929  -33.8567   24.2266 N   0  0  0  0  0  0
  -23.4221  -30.4805   21.5431 C   0  0  2  0  0  0
  -24.8667  -28.9308   20.1076 C   0  0  0  0  0  0
  -22.7485  -29.4611   22.4927 C   0  0  0  0  0  0
  -18.0287  -28.1383   22.8489 C   0  0  0  0  0  0
  -24.1487  -36.7290   23.2641 C   0  0  0  0  0  0
  -25.9638  -30.7811   21.3737 C   0  0  0  0  0  0
  -26.0346  -29.4070   20.7150 C   0  0  0  0  0  0
  -27.2118  -28.6005   20.7113 C   0  0  0  0  0  0
  -26.0292  -26.8747   19.4910 C   0  0  0  0  0  0
  -24.8658  -27.6701   19.4894 C   0  0  0  0  0  0
  -23.6369  -29.8151   20.1576 C   0  0  0  0  0  0
  -25.4113  -36.3078   24.0331 C   0  0  1  0  0  0
  -20.5890  -28.3691   23.1284 C   0  0  2  0  0  0
  -20.6775  -26.9413   22.5414 C   0  0  0  0  0  0
  -19.5751  -26.6381   21.5217 C   0  0  0  0  0  0
  -18.1929  -26.7928   22.1624 C   0  0  0  0  0  0
  -19.1540  -28.8855   23.2882 C   0  0  0  0  0  0
  -18.9462  -30.1454   23.8901 C   0  0  0  0  0  0
  -17.6461  -30.6586   24.0565 C   0  0  0  0  0  0
  -25.9055  -34.9446   23.5101 C   0  0  0  0  0  0
  -16.5352  -29.9085   23.6327 C   0  0  0  0  0  0
  -16.7273  -28.6500   23.0354 C   0  0  0  0  0  0
  -26.4493  -31.6590   25.0724 C   0  0  0  0  0  0
  -25.3726  -31.3730   26.1454 C   0  0  0  0  0  0
  -27.0340  -30.3014   24.6189 C   0  0  0  0  0  0
  -27.6047  -32.4333   25.7496 C   0  0  0  0  0  0
  -27.5578  -37.1803   24.8462 C   0  0  0  0  0  0
  -21.4198  -29.3041   22.3674 N   0  0  0  0  0  0
  -26.4287  -37.3777   23.9410 N   0  0  0  0  0  0
  -24.6902  -31.0572   22.0956 N   0  0  0  0  0  0
  -23.4199  -28.8163   23.3025 O   0  0  0  0  0  0
  -28.3495  -26.4629   20.1938 O   0  0  0  0  0  0
  -26.5626  -34.8917   22.4669 O   0  0  0  0  0  0
  -23.5440  -32.1380   23.7323 O   0  0  0  0  0  0
  -26.6227  -20.3387   19.8215 C   0  0  0  0  0  0
  -26.6418  -22.9137   18.8305 C   0  0  0  0  0  0
  -25.5444  -20.7697   19.0377 C   0  0  0  0  0  0
  -25.5716  -22.0645   18.5073 C   0  0  0  0  0  0
  -27.7709  -21.1258   20.0927 C   0  0  0  0  0  0
  -27.7448  -22.5360   19.6461 C   0  0  0  0  0  0
  -29.4539  -16.6315   19.5406 C   0  0  0  0  0  0
  -30.7183  -16.8945   21.5347 C   0  0  0  0  0  0
  -28.6487  -17.9526   19.8643 C   0  0  0  0  0  0
  -29.9847  -18.2599   21.8282 C   0  0  0  0  0  0
  -24.3688  -19.8379   18.7928 C   0  0  0  0  0  0
  -24.4422  -22.5758   17.6273 C   0  0  0  0  0  0
  -30.1846  -23.2960   19.5649 C   0  0  0  0  0  0
  -28.8046  -20.3499   21.0075 C   0  0  0  0  0  0
  -28.5092  -25.2300   19.3858 C   0  0  0  0  0  0
  -28.7588  -23.7182   19.9848 C   0  0  1  0  0  0
  -30.0029  -15.8812   20.7062 N   0  0  0  0  0  0
  -29.4241  -18.9760   20.6362 N   0  3  0  0  0  0
  -31.4591  -12.5116   19.1638 H   0  0  0  0  0  0
  -30.3296  -11.4470   19.9511 H   0  0  0  0  0  0
  -29.7728  -11.7279   17.5054 H   0  0  0  0  0  0
  -29.6355  -13.4552   17.7234 H   0  0  0  0  0  0
  -27.8743  -11.2820   18.9005 H   0  0  0  0  0  0
  -27.3674  -12.5322   17.7974 H   0  0  0  0  0  0
  -27.6159  -14.2436   19.4678 H   0  0  0  0  0  0
  -28.7104  -12.1932   21.4513 H   0  0  0  0  0  0
  -28.4339  -13.8902   21.7711 H   0  0  0  0  0  0
  -25.2756   -9.5680   22.4759 H   0  0  0  0  0  0
  -24.0000   -7.4628   22.7474 H   0  0  0  0  0  0
  -21.0826   -8.8768   19.8955 H   0  0  0  0  0  0
  -22.3684  -10.9672   19.6163 H   0  0  0  0  0  0
  -21.1999   -7.6145   23.9718 H   0  0  0  0  0  0
  -21.1482   -6.0511   25.9078 H   0  0  0  0  0  0
  -22.0600   -2.7605   23.2831 H   0  0  0  0  0  0
  -22.4038  -11.9897   22.4817 H   0  0  0  0  0  0
  -21.1061  -13.1273   22.2613 H   0  0  0  0  0  0
  -24.6531  -15.8434   20.5201 H   0  0  0  0  0  0
  -26.2737  -15.6244   20.0880 H   0  0  0  0  0  0
  -26.7187  -32.5421   23.1084 H   0  0  0  0  0  0
  -25.0079  -33.9704   25.0414 H   0  0  0  0  0  0
  -22.7170  -31.3021   21.4001 H   0  0  0  0  0  0
  -23.3751  -35.9620   23.3296 H   0  0  0  0  0  0
  -24.3580  -36.8918   22.2056 H   0  0  0  0  0  0
  -23.7228  -37.6485   23.6669 H   0  0  0  0  0  0
  -26.0991  -31.5431   20.6051 H   0  0  0  0  0  0
  -26.8427  -30.8283   22.0050 H   0  0  0  0  0  0
  -28.1072  -28.9600   21.1988 H   0  0  0  0  0  0
  -25.9536  -25.9019   19.0351 H   0  0  0  0  0  0
  -23.9666  -27.2939   19.0207 H   0  0  0  0  0  0
  -23.7607  -30.5926   19.4029 H   0  0  0  0  0  0
  -22.7551  -29.2493   19.8529 H   0  0  0  0  0  0
  -25.1292  -36.1930   25.0824 H   0  0  0  0  0  0
  -20.9977  -28.3259   24.1407 H   0  0  0  0  0  0
  -20.5675  -26.2302   23.3615 H   0  0  0  0  0  0
  -21.6643  -26.7441   22.1205 H   0  0  0  0  0  0
  -19.6910  -25.6289   21.1252 H   0  0  0  0  0  0
  -19.6688  -27.3189   20.6745 H   0  0  0  0  0  0
  -17.4203  -26.6683   21.4020 H   0  0  0  0  0  0
  -18.0320  -26.0065   22.9014 H   0  0  0  0  0  0
  -19.7938  -30.7270   24.2269 H   0  0  0  0  0  0
  -17.5015  -31.6266   24.5166 H   0  0  0  0  0  0
  -15.5351  -30.2993   23.7644 H   0  0  0  0  0  0
  -15.8673  -28.0820   22.7072 H   0  0  0  0  0  0
  -24.5905  -30.7071   25.7789 H   0  0  0  0  0  0
  -24.8913  -32.2898   26.4875 H   0  0  0  0  0  0
  -25.8055  -30.8917   27.0233 H   0  0  0  0  0  0
  -26.2916  -29.6767   24.1209 H   0  0  0  0  0  0
  -27.4030  -29.7272   25.4695 H   0  0  0  0  0  0
  -27.8791  -30.4303   23.9422 H   0  0  0  0  0  0
  -27.2647  -33.3634   26.2068 H   0  0  0  0  0  0
  -28.3858  -32.6895   25.0327 H   0  0  0  0  0  0
  -28.0717  -31.8467   26.5417 H   0  0  0  0  0  0
  -28.2591  -38.0105   24.7520 H   0  0  0  0  0  0
  -28.1078  -36.2637   24.6273 H   0  0  0  0  0  0
  -27.2305  -37.1432   25.8868 H   0  0  0  0  0  0
  -20.9376  -29.8766   21.6887 H   0  0  0  0  0  0
  -26.0168  -38.2853   24.1410 H   0  0  0  0  0  0
  -26.5317  -19.3580   20.2556 H   0  0  0  0  0  0
  -26.5459  -23.9009   18.4280 H   0  0  0  0  0  0
  -30.2829  -16.8824   18.8753 H   0  0  0  0  0  0
  -28.8172  -15.9742   18.9509 H   0  0  0  0  0  0
  -30.9784  -16.4344   22.4900 H   0  0  0  0  0  0
  -31.6721  -17.1276   21.0568 H   0  0  0  0  0  0
  -27.7660  -17.6660   20.4361 H   0  0  0  0  0  0
  -28.3040  -18.3929   18.9279 H   0  0  0  0  0  0
  -30.6751  -18.9267   22.3475 H   0  0  0  0  0  0
  -29.1713  -18.0699   22.5303 H   0  0  0  0  0  0
  -24.4582  -18.9154   19.3673 H   0  0  0  0  0  0
  -24.3047  -19.5698   17.7381 H   0  0  0  0  0  0
  -23.4332  -20.3148   19.0862 H   0  0  0  0  0  0
  -24.6443  -23.5780   17.2482 H   0  0  0  0  0  0
  -23.5069  -22.6153   18.1861 H   0  0  0  0  0  0
  -24.3006  -21.9218   16.7664 H   0  0  0  0  0  0
  -30.5119  -22.3595   20.0011 H   0  0  0  0  0  0
  -30.9218  -24.0417   19.8648 H   0  0  0  0  0  0
  -30.2508  -23.1836   18.4820 H   0  0  0  0  0  0
  -28.2517  -20.1858   21.9333 H   0  0  0  0  0  0
  -29.6053  -21.0158   21.3178 H   0  0  0  0  0  0
  -27.9430  -25.2742   18.4625 H   0  0  0  0  0  0
  -29.4700  -25.4957   18.9462 H   0  0  0  0  0  0
  -28.7547  -23.8088   21.0716 H   0  0  0  0  0  0
  -30.2067  -19.2130   20.0450 H   0  0  0  0  0  0
  1 25  1  0  0  0
  1 30  2  0  0  0
  1 87  1  0  0  0
  2  3  1  0  0  0
  2 25  1  0  0  0
  2 89  1  0  0  0
  2 90  1  0  0  0
  3  4  1  0  0  0
  3 91  1  0  0  0
  3 92  1  0  0  0
  4  5  1  0  0  0
  4 93  1  0  0  0
  4 94  1  0  0  0
  5  6  1  0  0  0
  5 26  1  0  0  0
  5 95  1  0  0  0
  6 25  1  0  0  0
  6 96  1  0  0  0
  6 97  1  0  0  0
  7  8  2  0  0  0
  7 26  1  0  0  0
  7 29  1  0  0  0
  8  9  1  0  0  0
  8 22  1  0  0  0
  9 10  1  0  0  0
  9 27  2  0  0  0
 10 11  2  0  0  0
 10 15  1  0  0  0
 11 12  1  0  0  0
 11 98  1  0  0  0
 12 13  2  0  0  0
 12 99  1  0  0  0
 13 14  1  0  0  0
 13 31  1  0  0  0
 14 15  2  0  0  0
 14100  1  0  0  0
 15101  1  0  0  0
 16 17  2  0  0  0
 16 21  1  0  0  0
 16 31  1  0  0  0
 17 18  1  0  0  0
 17102  1  0  0  0
 18 19  2  0  0  0
 18103  1  0  0  0
 19 20  1  0  0  0
 19 24  1  0  0  0
 20 21  2  0  0  0
 20104  1  0  0  0
 21 23  1  0  0  0
 22 28  1  0  0  0
 22 32  2  0  0  0
 26 27  1  0  0  0
 28105  1  0  0  0
 28106  1  0  0  0
 29107  1  0  0  0
 29108  1  0  0  0
 33 34  1  0  0  0
 33 66  1  0  0  0
 33 70  2  0  0  0
 34 36  1  0  0  0
 34 59  1  0  0  0
 34109  1  0  0  0
 35 44  2  0  0  0
 35 45  1  0  0  0
 35 68  1  0  0  0
 36 56  1  0  0  0
 36110  1  0  0  0
 37 39  1  0  0  0
 37 47  1  0  0  0
 37 66  1  0  0  0
 37111  1  0  0  0
 38 43  2  0  0  0
 38 46  1  0  0  0
 38 47  1  0  0  0
 39 64  1  0  0  0
 39 67  2  0  0  0
 40 52  1  0  0  0
 40 53  2  0  0  0
 40 58  1  0  0  0
 41112  1  0  0  0
 41113  1  0  0  0
 41114  1  0  0  0
 41 48  1  0  0  0
 42 43  1  0  0  0
 42 66  1  0  0  0
 42115  1  0  0  0
 42116  1  0  0  0
 43 44  1  0  0  0
 44117  1  0  0  0
 45 46  2  0  0  0
 45118  1  0  0  0
 46119  1  0  0  0
 47120  1  0  0  0
 47121  1  0  0  0
 48 56  1  0  0  0
 48 65  1  0  0  0
 48122  1  0  0  0
 49 50  1  0  0  0
 49 53  1  0  0  0
 49 64  1  0  0  0
 49123  1  0  0  0
 50 51  1  0  0  0
 50124  1  0  0  0
 50125  1  0  0  0
 51 52  1  0  0  0
 51126  1  0  0  0
 51127  1  0  0  0
 52128  1  0  0  0
 52129  1  0  0  0
 53 54  1  0  0  0
 54 55  2  0  0  0
 54130  1  0  0  0
 55 57  1  0  0  0
 55131  1  0  0  0
 56 69  2  0  0  0
 57 58  2  0  0  0
 57132  1  0  0  0
 58133  1  0  0  0
 59 60  1  0  0  0
 59 61  1  0  0  0
 59 62  1  0  0  0
 60134  1  0  0  0
 60135  1  0  0  0
 60136  1  0  0  0
 61137  1  0  0  0
 61138  1  0  0  0
 61139  1  0  0  0
 62140  1  0  0  0
 62141  1  0  0  0
 62142  1  0  0  0
 63 65  1  0  0  0
 63143  1  0  0  0
 63144  1  0  0  0
 63145  1  0  0  0
 64146  1  0  0  0
 65147  1  0  0  0
 68 85  1  0  0  0
 71 73  2  0  0  0
 71 75  1  0  0  0
 71148  1  0  0  0
 72 74  2  0  0  0
 72 76  1  0  0  0
 72149  1  0  0  0
 73 74  1  0  0  0
 73 81  1  0  0  0
 74 82  1  0  0  0
 75 76  2  0  0  0
 75 84  1  0  0  0
 76 86  1  0  0  0
 77 79  1  0  0  0
 77 87  1  0  0  0
 77150  1  0  0  0
 77151  1  0  0  0
 78 80  1  0  0  0
 78 87  1  0  0  0
 78152  1  0  0  0
 78153  1  0  0  0
 79 88  1  0  0  0
 79154  1  0  0  0
 79155  1  0  0  0
 80 88  1  0  0  0
 80156  1  0  0  0
 80157  1  0  0  0
 81158  1  0  0  0
 81159  1  0  0  0
 81160  1  0  0  0
 82161  1  0  0  0
 82162  1  0  0  0
 82163  1  0  0  0
 83164  1  0  0  0
 83165  1  0  0  0
 83166  1  0  0  0
 83 86  1  0  0  0
 84167  1  0  0  0
 84168  1  0  0  0
 84 88  1  0  0  0
 85 86  1  0  0  0
 85169  1  0  0  0
 85170  1  0  0  0
 86171  1  0  0  0
 88172  1  0  0  0
M  CHG  1  88   1
M  ISO  4   1 100  68 101  85 101  87 100
M  END
> <chiral flag>
0

> <version>
0

> <s_m_source_file>
/data/baiqing/PycharmProjects/Reinvent-master-3.2/result/LINK_invent/BTK/process_docking_weight1_custom_sum_contain_oxygen_bond_distance_aromatic_linkinvent_7_9_3/rearranged_h_0150.sdf

> <i_m_source_file_index>
72

> <r_mmod_Potential_Energy-OPLS-2005>
308.04052734375

> <r_mmod_Stretch_Energy-OPLS-2005>
122.025512695312

> <r_mmod_Bend_Energy-OPLS-2005>
246.238006591797

> <r_mmod_Torsional_Energy-OPLS-2005>
383.300994873047

> <r_mmod_Improper_Torsional_Energy-OPLS-2005>
9.79494094848633

> <r_mmod_Van_der_Waal_Energy-OPLS-2005>
161.234756469727

> <r_mmod_Electrostatic_Energy-OPLS-2005>
-243.778137207031

> <r_mmod_Solvation_Energy-OPLS-2005>
-435.499084472656

> <b_mmod_Minimization_Converged-OPLS-2005>
0

> <r_mmod_RMS_Derivative-OPLS-2005>
0.8359055519104

$$$$
72
                    3D
 Structure written by MMmdl.
170179  0  0  1  0            999 V2000
  -30.7027  -14.4400   20.5698 C   0  0  0  0  0  0
  -30.4166  -12.2902   19.4108 C   0  0  0  0  0  0
  -29.4886  -12.5123   18.1977 C   0  0  0  0  0  0
  -28.0080  -12.3758   18.6071 C   0  0  0  0  0  0
  -27.6563  -13.2038   19.8718 C   0  0  2  0  0  0
  -28.6980  -12.9756   20.9905 C   0  0  0  0  0  0
  -25.2551  -13.8191   20.5642 C   0  0  0  0  0  0
  -24.1786  -13.0481   20.9138 C   0  0  0  0  0  0
  -24.6319  -11.6941   20.8663 C   0  0  0  0  0  0
  -23.8985  -10.4334   21.0355 C   0  0  0  0  0  0
  -24.3574   -9.4269   21.9127 C   0  0  0  0  0  0
  -23.6303   -8.2267   22.0715 C   0  0  0  0  0  0
  -22.4281   -8.0268   21.3531 C   0  0  0  0  0  0
  -21.9875   -9.0212   20.4620 C   0  0  0  0  0  0
  -22.7150  -10.2122   20.3015 C   0  0  0  0  0  0
  -21.6874   -6.0704   22.5278 C   0  0  0  0  0  0
  -21.4008   -6.5614   23.8205 C   0  0  0  0  0  0
  -21.3645   -5.6765   24.9159 C   0  0  0  0  0  0
  -21.6050   -4.3025   24.7208 C   0  0  0  0  0  0
  -21.8835   -3.8120   23.4335 C   0  0  0  0  0  0
  -21.9215   -4.6937   22.3398 C   0  0  0  0  0  0
  -22.7821  -13.5260   21.1851 C   0  0  0  0  0  0
  -22.1688   -4.2101   21.0970 F   0  0  0  0  0  0
  -21.5646   -3.4529   25.7740 F   0  0  0  0  0  0
  -30.0292  -13.2662   20.4381 N   0  0  0  0  0  0
  -26.2962  -12.9345   20.3317 N   0  0  0  0  0  0
  -25.9237  -11.6513   20.5670 N   0  0  0  0  0  0
  -22.0499  -12.8210   22.0404 N   0  0  0  0  0  0
  -25.4332  -15.1906   20.4076 N   0  0  0  0  0  0
  -31.8512  -14.6022   20.1472 O   0  0  0  0  0  0
  -21.6672   -6.8847   21.4240 O   0  0  0  0  0  0
  -22.3484  -14.5550   20.6709 O   0  0  0  0  0  0
  -24.6145  -31.8682   23.2132 C   0  0  0  0  0  0
  -25.9058  -32.4812   23.8384 C   0  0  1  0  0  0
  -27.2189  -27.4407   20.0530 C   0  0  0  0  0  0
  -25.5920  -33.8618   24.2283 N   0  0  0  0  0  0
  -23.3978  -30.4948   21.5557 C   0  0  2  0  0  0
  -24.8344  -28.9656   20.1150 C   0  0  0  0  0  0
  -22.7399  -29.4657   22.5018 C   0  0  0  0  0  0
  -18.0271  -28.1389   22.8484 C   0  0  0  0  0  0
  -24.1488  -36.7311   23.2627 C   0  0  0  0  0  0
  -25.9310  -30.8273   21.3691 C   0  0  0  0  0  0
  -25.9996  -29.4684   20.7048 C   0  0  0  0  0  0
  -27.1949  -28.7126   20.6716 C   0  0  0  0  0  0
  -26.0185  -26.9446   19.4836 C   0  0  0  0  0  0
  -24.8381  -27.7007   19.5090 C   0  0  0  0  0  0
  -23.6002  -29.8341   20.1688 C   0  0  0  0  0  0
  -25.4106  -36.3093   24.0318 C   0  0  1  0  0  0
  -20.5855  -28.3663   23.1325 C   0  0  2  0  0  0
  -20.6762  -26.9407   22.5418 C   0  0  0  0  0  0
  -19.5744  -26.6376   21.5221 C   0  0  0  0  0  0
  -18.1918  -26.7936   22.1614 C   0  0  0  0  0  0
  -19.1508  -28.8838   23.2898 C   0  0  0  0  0  0
  -18.9441  -30.1453   23.8898 C   0  0  0  0  0  0
  -17.6447  -30.6595   24.0555 C   0  0  0  0  0  0
  -25.9057  -34.9479   23.5087 C   0  0  0  0  0  0
  -16.5333  -29.9100   23.6328 C   0  0  0  0  0  0
  -16.7251  -28.6514   23.0349 C   0  0  0  0  0  0
  -26.4505  -31.6617   25.0735 C   0  0  0  0  0  0
  -25.3783  -31.3800   26.1508 C   0  0  0  0  0  0
  -27.0281  -30.3011   24.6172 C   0  0  0  0  0  0
  -27.6056  -32.4383   25.7494 C   0  0  0  0  0  0
  -27.5598  -37.1769   24.8433 C   0  0  0  0  0  0
  -21.4134  -29.3036   22.3753 N   0  0  0  0  0  0
  -26.4256  -37.3806   23.9457 N   0  0  0  0  0  0
  -24.6659  -31.0783   22.1031 N   0  0  0  0  0  0
  -23.4178  -28.8180   23.3020 O   0  0  0  0  0  0
  -28.4059  -26.7357   20.0117 O   0  0  0  0  0  0
  -26.5616  -34.8936   22.4652 O   0  0  0  0  0  0
  -23.5346  -32.1459   23.7527 O   0  0  0  0  0  0
  -31.1067  -17.2498   22.2055 C   0  0  0  0  0  0
  -30.7301  -17.5366   19.6979 C   0  0  0  0  0  0
  -30.8747  -21.5502   21.4383 C   0  0  0  0  0  0
  -29.9939  -16.1716   22.1875 C   0  0  0  0  0  0
  -29.6077  -16.4838   19.8340 C   0  0  0  0  0  0
  -31.0193  -22.9054   20.7119 C   0  0  0  0  0  0
  -29.1705  -22.3287   19.2088 C   0  0  0  0  0  0
  -28.9229  -20.9944   19.9504 C   0  0  2  0  0  0
  -31.0319  -18.2592   21.0319 C   0  0  0  0  0  0
  -30.2602  -20.4747   20.5217 C   0  0  2  0  0  0
  -28.2163  -19.9737   19.0431 C   0  0  0  0  0  0
  -29.7532  -24.7295   19.5855 C   0  0  0  0  0  0
  -28.3538  -25.3758   19.5629 C   0  0  0  0  0  0
  -29.9290  -15.5057   20.8801 N   0  0  0  0  0  0
  -29.7201  -23.3470   20.1417 N   0  3  2  0  0  0
  -30.0492  -19.2679   21.2725 O   0  0  0  0  0  0
  -31.4612  -12.3900   19.1110 H   0  0  0  0  0  0
  -30.3107  -11.2759   19.8011 H   0  0  0  0  0  0
  -29.7275  -11.8035   17.4047 H   0  0  0  0  0  0
  -29.6550  -13.5063   17.7785 H   0  0  0  0  0  0
  -27.8027  -11.3209   18.7858 H   0  0  0  0  0  0
  -27.3614  -12.6730   17.7800 H   0  0  0  0  0  0
  -27.6999  -14.2516   19.5782 H   0  0  0  0  0  0
  -28.6629  -11.9410   21.3395 H   0  0  0  0  0  0
  -28.4700  -13.5882   21.8633 H   0  0  0  0  0  0
  -25.2741   -9.5806   22.4653 H   0  0  0  0  0  0
  -24.0065   -7.4677   22.7427 H   0  0  0  0  0  0
  -21.0797   -8.8661   19.8951 H   0  0  0  0  0  0
  -22.3548  -10.9613   19.6101 H   0  0  0  0  0  0
  -21.1981   -7.6131   23.9679 H   0  0  0  0  0  0
  -21.1460   -6.0498   25.9048 H   0  0  0  0  0  0
  -22.0633   -2.7590   23.2835 H   0  0  0  0  0  0
  -22.4178  -11.9871   22.4751 H   0  0  0  0  0  0
  -21.1112  -13.1195   22.2657 H   0  0  0  0  0  0
  -24.6810  -15.8593   20.5317 H   0  0  0  0  0  0
  -26.3071  -15.6237   20.1395 H   0  0  0  0  0  0
  -26.7113  -32.5487   23.1130 H   0  0  0  0  0  0
  -25.0142  -33.9782   25.0464 H   0  0  0  0  0  0
  -22.6856  -31.3115   21.4229 H   0  0  0  0  0  0
  -23.3790  -35.9602   23.3185 H   0  0  0  0  0  0
  -24.3601  -36.9034   22.2063 H   0  0  0  0  0  0
  -23.7160  -37.6440   23.6725 H   0  0  0  0  0  0
  -26.0596  -31.5989   20.6076 H   0  0  0  0  0  0
  -26.8136  -30.8582   21.9970 H   0  0  0  0  0  0
  -28.0972  -29.1047   21.1216 H   0  0  0  0  0  0
  -25.9529  -25.9813   19.0017 H   0  0  0  0  0  0
  -23.9404  -27.3078   19.0514 H   0  0  0  0  0  0
  -23.7083  -30.6115   19.4131 H   0  0  0  0  0  0
  -22.7223  -29.2586   19.8673 H   0  0  0  0  0  0
  -25.1262  -36.1925   25.0798 H   0  0  0  0  0  0
  -20.9936  -28.3230   24.1446 H   0  0  0  0  0  0
  -20.5699  -26.2275   23.3606 H   0  0  0  0  0  0
  -21.6624  -26.7487   22.1171 H   0  0  0  0  0  0
  -19.6917  -25.6285   21.1245 H   0  0  0  0  0  0
  -19.6704  -27.3190   20.6759 H   0  0  0  0  0  0
  -17.4209  -26.6686   21.4005 H   0  0  0  0  0  0
  -18.0323  -26.0081   22.9005 H   0  0  0  0  0  0
  -19.7931  -30.7266   24.2252 H   0  0  0  0  0  0
  -17.5013  -31.6272   24.5177 H   0  0  0  0  0  0
  -15.5330  -30.2992   23.7687 H   0  0  0  0  0  0
  -15.8652  -28.0837   22.7071 H   0  0  0  0  0  0
  -24.5824  -30.7298   25.7874 H   0  0  0  0  0  0
  -24.9162  -32.3006   26.5067 H   0  0  0  0  0  0
  -25.8116  -30.8850   27.0204 H   0  0  0  0  0  0
  -26.2791  -29.6790   24.1248 H   0  0  0  0  0  0
  -27.3988  -29.7256   25.4671 H   0  0  0  0  0  0
  -27.8692  -30.4238   23.9338 H   0  0  0  0  0  0
  -27.2622  -33.3692   26.2028 H   0  0  0  0  0  0
  -28.3882  -32.6938   25.0331 H   0  0  0  0  0  0
  -28.0711  -31.8551   26.5454 H   0  0  0  0  0  0
  -28.2495  -38.0186   24.7663 H   0  0  0  0  0  0
  -28.1195  -36.2726   24.6008 H   0  0  0  0  0  0
  -27.2369  -37.1113   25.8834 H   0  0  0  0  0  0
  -20.9337  -29.8743   21.6944 H   0  0  0  0  0  0
  -26.0132  -38.2840   24.1601 H   0  0  0  0  0  0
  -32.0673  -16.7380   22.1492 H   0  0  0  0  0  0
  -31.1092  -17.7792   23.1583 H   0  0  0  0  0  0
  -30.4689  -18.2465   18.9164 H   0  0  0  0  0  0
  -31.6443  -17.0610   19.3440 H   0  0  0  0  0  0
  -30.2511  -21.6782   22.3233 H   0  0  0  0  0  0
  -31.8522  -21.2280   21.7970 H   0  0  0  0  0  0
  -29.0255  -16.6298   22.4030 H   0  0  0  0  0  0
  -30.1658  -15.4354   22.9769 H   0  0  0  0  0  0
  -29.4483  -15.9861   18.8750 H   0  0  0  0  0  0
  -28.6581  -16.9613   20.0782 H   0  0  0  0  0  0
  -31.7690  -22.8340   19.9228 H   0  0  0  0  0  0
  -31.3859  -23.6507   21.4178 H   0  0  0  0  0  0
  -28.2390  -22.6757   18.7634 H   0  0  0  0  0  0
  -29.8678  -22.1783   18.3812 H   0  0  0  0  0  0
  -28.2500  -21.1952   20.7856 H   0  0  0  0  0  0
  -32.0069  -18.7486   20.9715 H   0  0  0  0  0  0
  -30.9464  -20.3060   19.6898 H   0  0  0  0  0  0
  -28.8160  -19.7193   18.1678 H   0  0  0  0  0  0
  -27.2599  -20.3572   18.6894 H   0  0  0  0  0  0
  -27.9987  -19.0567   19.5902 H   0  0  0  0  0  0
  -30.4043  -25.3523   20.1989 H   0  0  0  0  0  0
  -30.1898  -24.7331   18.5855 H   0  0  0  0  0  0
  -27.6750  -24.8206   20.2149 H   0  0  0  0  0  0
  -27.9573  -25.3054   18.5479 H   0  0  0  0  0  0
  -29.0845  -23.3957   20.9258 H   0  0  0  0  0  0
  1 25  1  0  0  0
  1 30  2  0  0  0
  1 84  1  0  0  0
  2  3  1  0  0  0
  2 25  1  0  0  0
  2 87  1  0  0  0
  2 88  1  0  0  0
  3  4  1  0  0  0
  3 89  1  0  0  0
  3 90  1  0  0  0
  4  5  1  0  0  0
  4 91  1  0  0  0
  4 92  1  0  0  0
  5  6  1  0  0  0
  5 26  1  0  0  0
  5 93  1  0  0  0
  6 25  1  0  0  0
  6 94  1  0  0  0
  6 95  1  0  0  0
  7  8  2  0  0  0
  7 26  1  0  0  0
  7 29  1  0  0  0
  8  9  1  0  0  0
  8 22  1  0  0  0
  9 10  1  0  0  0
  9 27  2  0  0  0
 10 11  2  0  0  0
 10 15  1  0  0  0
 11 12  1  0  0  0
 11 96  1  0  0  0
 12 13  2  0  0  0
 12 97  1  0  0  0
 13 14  1  0  0  0
 13 31  1  0  0  0
 14 15  2  0  0  0
 14 98  1  0  0  0
 15 99  1  0  0  0
 16 17  2  0  0  0
 16 21  1  0  0  0
 16 31  1  0  0  0
 17 18  1  0  0  0
 17100  1  0  0  0
 18 19  2  0  0  0
 18101  1  0  0  0
 19 20  1  0  0  0
 19 24  1  0  0  0
 20 21  2  0  0  0
 20102  1  0  0  0
 21 23  1  0  0  0
 22 28  1  0  0  0
 22 32  2  0  0  0
 26 27  1  0  0  0
 28103  1  0  0  0
 28104  1  0  0  0
 29105  1  0  0  0
 29106  1  0  0  0
 33 34  1  0  0  0
 33 66  1  0  0  0
 33 70  2  0  0  0
 34 36  1  0  0  0
 34 59  1  0  0  0
 34107  1  0  0  0
 35 44  2  0  0  0
 35 45  1  0  0  0
 35 68  1  0  0  0
 36 56  1  0  0  0
 36108  1  0  0  0
 37 39  1  0  0  0
 37 47  1  0  0  0
 37 66  1  0  0  0
 37109  1  0  0  0
 38 43  2  0  0  0
 38 46  1  0  0  0
 38 47  1  0  0  0
 39 64  1  0  0  0
 39 67  2  0  0  0
 40 52  1  0  0  0
 40 53  2  0  0  0
 40 58  1  0  0  0
 41110  1  0  0  0
 41111  1  0  0  0
 41112  1  0  0  0
 41 48  1  0  0  0
 42 43  1  0  0  0
 42 66  1  0  0  0
 42113  1  0  0  0
 42114  1  0  0  0
 43 44  1  0  0  0
 44115  1  0  0  0
 45 46  2  0  0  0
 45116  1  0  0  0
 46117  1  0  0  0
 47118  1  0  0  0
 47119  1  0  0  0
 48 56  1  0  0  0
 48 65  1  0  0  0
 48120  1  0  0  0
 49 50  1  0  0  0
 49 53  1  0  0  0
 49 64  1  0  0  0
 49121  1  0  0  0
 50 51  1  0  0  0
 50122  1  0  0  0
 50123  1  0  0  0
 51 52  1  0  0  0
 51124  1  0  0  0
 51125  1  0  0  0
 52126  1  0  0  0
 52127  1  0  0  0
 53 54  1  0  0  0
 54 55  2  0  0  0
 54128  1  0  0  0
 55 57  1  0  0  0
 55129  1  0  0  0
 56 69  2  0  0  0
 57 58  2  0  0  0
 57130  1  0  0  0
 58131  1  0  0  0
 59 60  1  0  0  0
 59 61  1  0  0  0
 59 62  1  0  0  0
 60132  1  0  0  0
 60133  1  0  0  0
 60134  1  0  0  0
 61135  1  0  0  0
 61136  1  0  0  0
 61137  1  0  0  0
 62138  1  0  0  0
 62139  1  0  0  0
 62140  1  0  0  0
 63 65  1  0  0  0
 63141  1  0  0  0
 63142  1  0  0  0
 63143  1  0  0  0
 64144  1  0  0  0
 65145  1  0  0  0
 68 83  1  0  0  0
 71 74  1  0  0  0
 71 79  1  0  0  0
 71146  1  0  0  0
 71147  1  0  0  0
 72 75  1  0  0  0
 72 79  1  0  0  0
 72148  1  0  0  0
 72149  1  0  0  0
 73 76  1  0  0  0
 73 80  1  0  0  0
 73150  1  0  0  0
 73151  1  0  0  0
 74 84  1  0  0  0
 74152  1  0  0  0
 74153  1  0  0  0
 75 84  1  0  0  0
 75154  1  0  0  0
 75155  1  0  0  0
 76 85  1  0  0  0
 76156  1  0  0  0
 76157  1  0  0  0
 77 78  1  0  0  0
 77 85  1  0  0  0
 77158  1  0  0  0
 77159  1  0  0  0
 78 80  1  0  0  0
 78 81  1  0  0  0
 78160  1  0  0  0
 79 86  1  0  0  0
 79161  1  0  0  0
 80 86  1  0  0  0
 80162  1  0  0  0
 81163  1  0  0  0
 81164  1  0  0  0
 81165  1  0  0  0
 82 83  1  0  0  0
 82166  1  0  0  0
 82167  1  0  0  0
 82 85  1  0  0  0
 83168  1  0  0  0
 83169  1  0  0  0
 85170  1  0  0  0
M  CHG  1  85   1
M  ISO  4   1 100  68 101  83 101  84 100
M  END
> <chiral flag>
0

> <version>
0

> <s_m_source_file>
/data/baiqing/PycharmProjects/Reinvent-master-3.2/result/LINK_invent/BTK/process_docking_weight1_custom_sum_contain_oxygen_bond_distance_aromatic_linkinvent_7_9_3/rearranged_h_0150.sdf

> <i_m_source_file_index>
73

> <r_mmod_Potential_Energy-OPLS-2005>
95.3666152954102

> <r_mmod_Stretch_Energy-OPLS-2005>
37.3975257873535

> <r_mmod_Bend_Energy-OPLS-2005>
99.8651733398438

> <r_mmod_Torsional_Energy-OPLS-2005>
368.578948974609

> <r_mmod_Improper_Torsional_Energy-OPLS-2005>
10.9476728439331

> <r_mmod_Van_der_Waal_Energy-OPLS-2005>
146.280364990234

> <r_mmod_Electrostatic_Energy-OPLS-2005>
-170.709136962891

> <r_mmod_Solvation_Energy-OPLS-2005>
-410.354217529297

> <b_mmod_Minimization_Converged-OPLS-2005>
0

> <r_mmod_RMS_Derivative-OPLS-2005>
4.20433616638184

$$$$
73
                    3D
 Structure written by MMmdl.
163172  0  0  1  0            999 V2000
  -30.6963  -14.5011   20.5534 C   0  0  0  0  0  0
  -30.4210  -12.3209   19.4212 C   0  0  0  0  0  0
  -29.4943  -12.5145   18.2019 C   0  0  0  0  0  0
  -28.0136  -12.3764   18.6101 C   0  0  0  0  0  0
  -27.6602  -13.2102   19.8717 C   0  0  2  0  0  0
  -28.7050  -12.9916   20.9885 C   0  0  0  0  0  0
  -25.2599  -13.8166   20.5657 C   0  0  0  0  0  0
  -24.1853  -13.0442   20.9163 C   0  0  0  0  0  0
  -24.6400  -11.6905   20.8716 C   0  0  0  0  0  0
  -23.9055  -10.4289   21.0393 C   0  0  0  0  0  0
  -24.3616   -9.4213   21.9179 C   0  0  0  0  0  0
  -23.6294   -8.2250   22.0761 C   0  0  0  0  0  0
  -22.4273   -8.0275   21.3550 C   0  0  0  0  0  0
  -21.9894   -9.0246   20.4659 C   0  0  0  0  0  0
  -22.7223  -10.2127   20.3057 C   0  0  0  0  0  0
  -21.6859   -6.0728   22.5274 C   0  0  0  0  0  0
  -21.4015   -6.5629   23.8202 C   0  0  0  0  0  0
  -21.3669   -5.6788   24.9166 C   0  0  0  0  0  0
  -21.6049   -4.3047   24.7229 C   0  0  0  0  0  0
  -21.8823   -3.8141   23.4350 C   0  0  0  0  0  0
  -21.9198   -4.6954   22.3403 C   0  0  0  0  0  0
  -22.7879  -13.5243   21.1819 C   0  0  0  0  0  0
  -22.1666   -4.2127   21.0984 F   0  0  0  0  0  0
  -21.5631   -3.4542   25.7749 F   0  0  0  0  0  0
  -30.0278  -13.3160   20.4345 N   0  0  0  0  0  0
  -26.3029  -12.9340   20.3357 N   0  0  0  0  0  0
  -25.9329  -11.6490   20.5757 N   0  0  0  0  0  0
  -22.0524  -12.8240   22.0392 N   0  0  0  0  0  0
  -25.4323  -15.1887   20.4009 N   0  0  0  0  0  0
  -31.8337  -14.6514   20.0940 O   0  0  0  0  0  0
  -21.6648   -6.8872   21.4236 O   0  0  0  0  0  0
  -22.3556  -14.5531   20.6651 O   0  0  0  0  0  0
  -24.6164  -31.8656   23.2090 C   0  0  0  0  0  0
  -25.9056  -32.4802   23.8379 C   0  0  1  0  0  0
  -27.2448  -27.4129   20.1178 C   0  0  0  0  0  0
  -25.5934  -33.8603   24.2327 N   0  0  0  0  0  0
  -23.4066  -30.4881   21.5467 C   0  0  2  0  0  0
  -24.8594  -28.9463   20.1179 C   0  0  0  0  0  0
  -22.7415  -29.4661   22.4966 C   0  0  0  0  0  0
  -18.0286  -28.1361   22.8501 C   0  0  0  0  0  0
  -24.1493  -36.7286   23.2633 C   0  0  0  0  0  0
  -25.9376  -30.8254   21.3651 C   0  0  0  0  0  0
  -26.0192  -29.4578   20.7134 C   0  0  0  0  0  0
  -27.2170  -28.7025   20.7048 C   0  0  0  0  0  0
  -26.0685  -26.9217   19.5092 C   0  0  0  0  0  0
  -24.8794  -27.6765   19.5127 C   0  0  0  0  0  0
  -23.6211  -29.8153   20.1643 C   0  0  0  0  0  0
  -25.4105  -36.3088   24.0342 C   0  0  1  0  0  0
  -20.5878  -28.3656   23.1311 C   0  0  2  0  0  0
  -20.6776  -26.9383   22.5421 C   0  0  0  0  0  0
  -19.5754  -26.6373   21.5213 C   0  0  0  0  0  0
  -18.1935  -26.7917   22.1621 C   0  0  0  0  0  0
  -19.1540  -28.8830   23.2914 C   0  0  0  0  0  0
  -18.9457  -30.1441   23.8909 C   0  0  0  0  0  0
  -17.6459  -30.6572   24.0561 C   0  0  0  0  0  0
  -25.9030  -34.9461   23.5118 C   0  0  0  0  0  0
  -16.5357  -29.9064   23.6328 C   0  0  0  0  0  0
  -16.7281  -28.6491   23.0346 C   0  0  0  0  0  0
  -26.4487  -31.6581   25.0710 C   0  0  0  0  0  0
  -25.3757  -31.3686   26.1472 C   0  0  0  0  0  0
  -27.0319  -30.3030   24.6072 C   0  0  0  0  0  0
  -27.6076  -32.4293   25.7472 C   0  0  0  0  0  0
  -27.5572  -37.1792   24.8465 C   0  0  0  0  0  0
  -21.4145  -29.3034   22.3705 N   0  0  0  0  0  0
  -26.4281  -37.3778   23.9418 N   0  0  0  0  0  0
  -24.6713  -31.0743   22.0991 N   0  0  0  0  0  0
  -23.4178  -28.8184   23.3000 O   0  0  0  0  0  0
  -28.4126  -26.6692   20.1131 O   0  0  0  0  0  0
  -26.5564  -34.8914   22.4655 O   0  0  0  0  0  0
  -23.5364  -32.1433   23.7482 O   0  0  0  0  0  0
  -27.5808  -22.5874   19.3181 C   0  0  0  0  0  0
  -27.8731  -20.1894   19.6722 C   0  0  0  0  0  0
  -29.6068  -21.7502   20.3749 C   0  0  0  0  0  0
  -27.0924  -21.2729   19.2209 C   0  0  0  0  0  0
  -28.8328  -22.8550   19.9063 C   0  0  0  0  0  0
  -29.1452  -20.4070   20.2520 C   0  0  0  0  0  0
  -29.8265  -17.4796   22.3576 C   0  0  0  0  0  0
  -29.6387  -15.9587   22.2574 C   0  0  0  0  0  0
  -30.0164  -16.8475   20.0847 C   0  0  0  0  0  0
  -29.4474  -17.9765   20.9704 C   0  0  2  0  0  0
  -25.7246  -21.0363   18.6158 C   0  0  0  0  0  0
  -28.3411  -25.3243   20.6501 C   0  0  0  0  0  0
  -29.3141  -24.3254   19.9375 C   0  0  1  0  0  0
  -29.9426  -15.5912   20.8680 N   0  0  0  0  0  0
  -29.9618  -19.3304   20.6792 N   0  0  0  0  0  0
  -30.5964  -24.4581   20.5275 O   0  0  0  0  0  0
  -31.4653  -12.4156   19.1203 H   0  0  0  0  0  0
  -30.3206  -11.3116   19.8223 H   0  0  0  0  0  0
  -29.7329  -11.7883   17.4248 H   0  0  0  0  0  0
  -29.6665  -13.5003   17.7637 H   0  0  0  0  0  0
  -27.8180  -11.3195   18.7939 H   0  0  0  0  0  0
  -27.3677  -12.6615   17.7784 H   0  0  0  0  0  0
  -27.7001  -14.2594   19.5792 H   0  0  0  0  0  0
  -28.6934  -11.9509   21.3144 H   0  0  0  0  0  0
  -28.4655  -13.5735   21.8757 H   0  0  0  0  0  0
  -25.2770   -9.5679   22.4747 H   0  0  0  0  0  0
  -24.0008   -7.4632   22.7474 H   0  0  0  0  0  0
  -21.0825   -8.8760   19.8962 H   0  0  0  0  0  0
  -22.3683  -10.9662   19.6161 H   0  0  0  0  0  0
  -21.2000   -7.6135   23.9695 H   0  0  0  0  0  0
  -21.1493   -6.0525   25.9067 H   0  0  0  0  0  0
  -22.0596   -2.7600   23.2863 H   0  0  0  0  0  0
  -22.4138  -11.9913   22.4799 H   0  0  0  0  0  0
  -21.1135  -13.1264   22.2566 H   0  0  0  0  0  0
  -24.6631  -15.8442   20.4848 H   0  0  0  0  0  0
  -26.2881  -15.6194   20.0737 H   0  0  0  0  0  0
  -26.7124  -32.5495   23.1132 H   0  0  0  0  0  0
  -25.0210  -33.9773   25.0556 H   0  0  0  0  0  0
  -22.6958  -31.3048   21.3996 H   0  0  0  0  0  0
  -23.3754  -35.9623   23.3314 H   0  0  0  0  0  0
  -24.3578  -36.8865   22.2039 H   0  0  0  0  0  0
  -23.7258  -37.6496   23.6643 H   0  0  0  0  0  0
  -26.0487  -31.5893   20.5952 H   0  0  0  0  0  0
  -26.8271  -30.8826   21.9823 H   0  0  0  0  0  0
  -28.1135  -29.0959   21.1649 H   0  0  0  0  0  0
  -26.0638  -25.9554   19.0250 H   0  0  0  0  0  0
  -23.9879  -27.2731   19.0526 H   0  0  0  0  0  0
  -23.7340  -30.5883   19.4017 H   0  0  0  0  0  0
  -22.7468  -29.2343   19.8669 H   0  0  0  0  0  0
  -25.1280  -36.1931   25.0836 H   0  0  0  0  0  0
  -21.0007  -28.3225   24.1416 H   0  0  0  0  0  0
  -20.5651  -26.2261   23.3605 H   0  0  0  0  0  0
  -21.6639  -26.7397   22.1207 H   0  0  0  0  0  0
  -19.6901  -25.6286   21.1234 H   0  0  0  0  0  0
  -19.6697  -27.3194   20.6748 H   0  0  0  0  0  0
  -17.4206  -26.6709   21.4020 H   0  0  0  0  0  0
  -18.0305  -26.0037   22.8984 H   0  0  0  0  0  0
  -19.7935  -30.7263   24.2271 H   0  0  0  0  0  0
  -17.5012  -31.6254   24.5148 H   0  0  0  0  0  0
  -15.5359  -30.2959   23.7646 H   0  0  0  0  0  0
  -15.8687  -28.0811   22.7028 H   0  0  0  0  0  0
  -24.6009  -30.6920   25.7830 H   0  0  0  0  0  0
  -24.8856  -32.2824   26.4846 H   0  0  0  0  0  0
  -25.8143  -30.8951   27.0266 H   0  0  0  0  0  0
  -26.2852  -29.6776   24.1161 H   0  0  0  0  0  0
  -27.4141  -29.7272   25.4510 H   0  0  0  0  0  0
  -27.8671  -30.4333   23.9185 H   0  0  0  0  0  0
  -27.2737  -33.3624   26.2012 H   0  0  0  0  0  0
  -28.3915  -32.6777   25.0305 H   0  0  0  0  0  0
  -28.0707  -31.8409   26.5401 H   0  0  0  0  0  0
  -28.2596  -38.0087   24.7500 H   0  0  0  0  0  0
  -28.1072  -36.2611   24.6312 H   0  0  0  0  0  0
  -27.2290  -37.1438   25.8870 H   0  0  0  0  0  0
  -20.9295  -29.8767   21.6940 H   0  0  0  0  0  0
  -26.0169  -38.2855   24.1422 H   0  0  0  0  0  0
  -26.9842  -23.4004   18.9301 H   0  0  0  0  0  0
  -27.4783  -19.1927   19.5411 H   0  0  0  0  0  0
  -30.5755  -21.9321   20.8204 H   0  0  0  0  0  0
  -30.8752  -17.6973   22.5732 H   0  0  0  0  0  0
  -29.2245  -17.9278   23.1490 H   0  0  0  0  0  0
  -28.5983  -15.7099   22.4707 H   0  0  0  0  0  0
  -30.2620  -15.4311   22.9820 H   0  0  0  0  0  0
  -31.0538  -17.0612   19.8177 H   0  0  0  0  0  0
  -29.4608  -16.7484   19.1526 H   0  0  0  0  0  0
  -28.3593  -17.9399   20.9172 H   0  0  0  0  0  0
  -25.0142  -21.7752   18.9892 H   0  0  0  0  0  0
  -25.3380  -20.0504   18.8749 H   0  0  0  0  0  0
  -25.7702  -21.1210   17.5292 H   0  0  0  0  0  0
  -28.5500  -25.3541   21.7204 H   0  0  0  0  0  0
  -27.3237  -24.9407   20.5891 H   0  0  0  0  0  0
  -29.3961  -24.6300   18.8912 H   0  0  0  0  0  0
  -30.8843  -19.5566   21.0401 H   0  0  0  0  0  0
  -31.2085  -23.9765   19.9790 H   0  0  0  0  0  0
  1 25  1  0  0  0
  1 30  2  0  0  0
  1 84  1  0  0  0
  2  3  1  0  0  0
  2 25  1  0  0  0
  2 87  1  0  0  0
  2 88  1  0  0  0
  3  4  1  0  0  0
  3 89  1  0  0  0
  3 90  1  0  0  0
  4  5  1  0  0  0
  4 91  1  0  0  0
  4 92  1  0  0  0
  5  6  1  0  0  0
  5 26  1  0  0  0
  5 93  1  0  0  0
  6 25  1  0  0  0
  6 94  1  0  0  0
  6 95  1  0  0  0
  7  8  2  0  0  0
  7 26  1  0  0  0
  7 29  1  0  0  0
  8  9  1  0  0  0
  8 22  1  0  0  0
  9 10  1  0  0  0
  9 27  2  0  0  0
 10 11  2  0  0  0
 10 15  1  0  0  0
 11 12  1  0  0  0
 11 96  1  0  0  0
 12 13  2  0  0  0
 12 97  1  0  0  0
 13 14  1  0  0  0
 13 31  1  0  0  0
 14 15  2  0  0  0
 14 98  1  0  0  0
 15 99  1  0  0  0
 16 17  2  0  0  0
 16 21  1  0  0  0
 16 31  1  0  0  0
 17 18  1  0  0  0
 17100  1  0  0  0
 18 19  2  0  0  0
 18101  1  0  0  0
 19 20  1  0  0  0
 19 24  1  0  0  0
 20 21  2  0  0  0
 20102  1  0  0  0
 21 23  1  0  0  0
 22 28  1  0  0  0
 22 32  2  0  0  0
 26 27  1  0  0  0
 28103  1  0  0  0
 28104  1  0  0  0
 29105  1  0  0  0
 29106  1  0  0  0
 33 34  1  0  0  0
 33 66  1  0  0  0
 33 70  2  0  0  0
 34 36  1  0  0  0
 34 59  1  0  0  0
 34107  1  0  0  0
 35 44  2  0  0  0
 35 45  1  0  0  0
 35 68  1  0  0  0
 36 56  1  0  0  0
 36108  1  0  0  0
 37 39  1  0  0  0
 37 47  1  0  0  0
 37 66  1  0  0  0
 37109  1  0  0  0
 38 43  2  0  0  0
 38 46  1  0  0  0
 38 47  1  0  0  0
 39 64  1  0  0  0
 39 67  2  0  0  0
 40 52  1  0  0  0
 40 53  2  0  0  0
 40 58  1  0  0  0
 41110  1  0  0  0
 41111  1  0  0  0
 41112  1  0  0  0
 41 48  1  0  0  0
 42 43  1  0  0  0
 42 66  1  0  0  0
 42113  1  0  0  0
 42114  1  0  0  0
 43 44  1  0  0  0
 44115  1  0  0  0
 45 46  2  0  0  0
 45116  1  0  0  0
 46117  1  0  0  0
 47118  1  0  0  0
 47119  1  0  0  0
 48 56  1  0  0  0
 48 65  1  0  0  0
 48120  1  0  0  0
 49 50  1  0  0  0
 49 53  1  0  0  0
 49 64  1  0  0  0
 49121  1  0  0  0
 50 51  1  0  0  0
 50122  1  0  0  0
 50123  1  0  0  0
 51 52  1  0  0  0
 51124  1  0  0  0
 51125  1  0  0  0
 52126  1  0  0  0
 52127  1  0  0  0
 53 54  1  0  0  0
 54 55  2  0  0  0
 54128  1  0  0  0
 55 57  1  0  0  0
 55129  1  0  0  0
 56 69  2  0  0  0
 57 58  2  0  0  0
 57130  1  0  0  0
 58131  1  0  0  0
 59 60  1  0  0  0
 59 61  1  0  0  0
 59 62  1  0  0  0
 60132  1  0  0  0
 60133  1  0  0  0
 60134  1  0  0  0
 61135  1  0  0  0
 61136  1  0  0  0
 61137  1  0  0  0
 62138  1  0  0  0
 62139  1  0  0  0
 62140  1  0  0  0
 63 65  1  0  0  0
 63141  1  0  0  0
 63142  1  0  0  0
 63143  1  0  0  0
 64144  1  0  0  0
 65145  1  0  0  0
 68 82  1  0  0  0
 71 74  2  0  0  0
 71 75  1  0  0  0
 71146  1  0  0  0
 72 74  1  0  0  0
 72 76  2  0  0  0
 72147  1  0  0  0
 73 75  2  0  0  0
 73 76  1  0  0  0
 73148  1  0  0  0
 74 81  1  0  0  0
 75 83  1  0  0  0
 76 85  1  0  0  0
 77 78  1  0  0  0
 77 80  1  0  0  0
 77149  1  0  0  0
 77150  1  0  0  0
 78 84  1  0  0  0
 78151  1  0  0  0
 78152  1  0  0  0
 79 80  1  0  0  0
 79 84  1  0  0  0
 79153  1  0  0  0
 79154  1  0  0  0
 80 85  1  0  0  0
 80155  1  0  0  0
 81156  1  0  0  0
 81157  1  0  0  0
 81158  1  0  0  0
 82 83  1  0  0  0
 82159  1  0  0  0
 82160  1  0  0  0
 83 86  1  0  0  0
 83161  1  0  0  0
 85162  1  0  0  0
 86163  1  0  0  0
M  ISO  4   1 100  68 101  82 101  84 100
M  END
> <chiral flag>
0

> <version>
0

> <s_m_source_file>
/data/baiqing/PycharmProjects/Reinvent-master-3.2/result/LINK_invent/BTK/process_docking_weight1_custom_sum_contain_oxygen_bond_distance_aromatic_linkinvent_7_9_3/rearranged_h_0150.sdf

> <i_m_source_file_index>
74

> <r_mmod_Potential_Energy-OPLS-2005>
122.263557434082

> <r_mmod_Stretch_Energy-OPLS-2005>
47.5187454223633

> <r_mmod_Bend_Energy-OPLS-2005>
134.245544433594

> <r_mmod_Torsional_Energy-OPLS-2005>
337.081939697266

> <r_mmod_Improper_Torsional_Energy-OPLS-2005>
12.9656591415405

> <r_mmod_Van_der_Waal_Energy-OPLS-2005>
148.234725952148

> <r_mmod_Electrostatic_Energy-OPLS-2005>
-351.957916259766

> <r_mmod_Solvation_Energy-OPLS-2005>
-221.423843383789

> <b_mmod_Minimization_Converged-OPLS-2005>
0

> <r_mmod_RMS_Derivative-OPLS-2005>
2.773761510849

$$$$
74
                    3D
 Structure written by MMmdl.
157165  0  0  1  0            999 V2000
  -30.6650  -14.6336   20.4923 C   0  0  0  0  0  0
  -30.4243  -12.3885   19.4572 C   0  0  0  0  0  0
  -29.4987  -12.4920   18.2265 C   0  0  0  0  0  0
  -28.0236  -12.3346   18.6419 C   0  0  0  0  0  0
  -27.6473  -13.2227   19.8576 C   0  0  2  0  0  0
  -28.6938  -13.1144   20.9884 C   0  0  0  0  0  0
  -25.2531  -13.8197   20.5697 C   0  0  0  0  0  0
  -24.1811  -13.0445   20.9199 C   0  0  0  0  0  0
  -24.6390  -11.6915   20.8749 C   0  0  0  0  0  0
  -23.9066  -10.4294   21.0407 C   0  0  0  0  0  0
  -24.3620   -9.4209   21.9186 C   0  0  0  0  0  0
  -23.6294   -8.2238   22.0759 C   0  0  0  0  0  0
  -22.4277   -8.0279   21.3544 C   0  0  0  0  0  0
  -21.9916   -9.0252   20.4647 C   0  0  0  0  0  0
  -22.7240  -10.2127   20.3058 C   0  0  0  0  0  0
  -21.6844   -6.0739   22.5276 C   0  0  0  0  0  0
  -21.4010   -6.5643   23.8208 C   0  0  0  0  0  0
  -21.3658   -5.6794   24.9171 C   0  0  0  0  0  0
  -21.6042   -4.3056   24.7220 C   0  0  0  0  0  0
  -21.8818   -3.8149   23.4340 C   0  0  0  0  0  0
  -21.9190   -4.6968   22.3399 C   0  0  0  0  0  0
  -22.7833  -13.5228   21.1848 C   0  0  0  0  0  0
  -22.1660   -4.2156   21.0973 F   0  0  0  0  0  0
  -21.5629   -3.4540   25.7734 F   0  0  0  0  0  0
  -30.0054  -13.4353   20.4106 N   0  0  0  0  0  0
  -26.2963  -12.9383   20.3327 N   0  0  0  0  0  0
  -25.9323  -11.6536   20.5788 N   0  0  0  0  0  0
  -22.0498  -12.8213   22.0414 N   0  0  0  0  0  0
  -25.4241  -15.1916   20.4102 N   0  0  0  0  0  0
  -31.8435  -14.7364   20.1469 O   0  0  0  0  0  0
  -21.6633   -6.8878   21.4238 O   0  0  0  0  0  0
  -22.3511  -14.5524   20.6686 O   0  0  0  0  0  0
  -24.6258  -31.8591   23.2016 C   0  0  0  0  0  0
  -25.9093  -32.4781   23.8351 C   0  0  1  0  0  0
  -27.2226  -27.3258   20.1218 C   0  0  0  0  0  0
  -25.5913  -33.8582   24.2279 N   0  0  0  0  0  0
  -23.4216  -30.4814   21.5440 C   0  0  2  0  0  0
  -24.8720  -28.9414   20.1054 C   0  0  0  0  0  0
  -22.7483  -29.4606   22.4924 C   0  0  0  0  0  0
  -18.0284  -28.1383   22.8478 C   0  0  0  0  0  0
  -24.1480  -36.7294   23.2645 C   0  0  0  0  0  0
  -25.9626  -30.7911   21.3754 C   0  0  0  0  0  0
  -26.0392  -29.4199   20.7167 C   0  0  0  0  0  0
  -27.2220  -28.6221   20.7181 C   0  0  0  0  0  0
  -26.0439  -26.9039   19.4720 C   0  0  0  0  0  0
  -24.8758  -27.6891   19.4721 C   0  0  0  0  0  0
  -23.6368  -29.8182   20.1582 C   0  0  0  0  0  0
  -25.4110  -36.3088   24.0330 C   0  0  1  0  0  0
  -20.5885  -28.3688   23.1274 C   0  0  2  0  0  0
  -20.6780  -26.9411   22.5405 C   0  0  0  0  0  0
  -19.5755  -26.6374   21.5210 C   0  0  0  0  0  0
  -18.1922  -26.7928   22.1611 C   0  0  0  0  0  0
  -19.1536  -28.8853   23.2863 C   0  0  0  0  0  0
  -18.9470  -30.1455   23.8879 C   0  0  0  0  0  0
  -17.6472  -30.6589   24.0560 C   0  0  0  0  0  0
  -25.9048  -34.9459   23.5106 C   0  0  0  0  0  0
  -16.5360  -29.9088   23.6338 C   0  0  0  0  0  0
  -16.7276  -28.6504   23.0355 C   0  0  0  0  0  0
  -26.4489  -31.6611   25.0728 C   0  0  0  0  0  0
  -25.3721  -31.3734   26.1452 C   0  0  0  0  0  0
  -27.0366  -30.3050   24.6176 C   0  0  0  0  0  0
  -27.6035  -32.4370   25.7498 C   0  0  0  0  0  0
  -27.5577  -37.1793   24.8467 C   0  0  0  0  0  0
  -21.4193  -29.3036   22.3673 N   0  0  0  0  0  0
  -26.4292  -37.3780   23.9413 N   0  0  0  0  0  0
  -24.6883  -31.0607   22.0970 N   0  0  0  0  0  0
  -23.4201  -28.8139   23.3002 O   0  0  0  0  0  0
  -28.2918  -26.4250   20.1793 O   0  0  0  0  0  0
  -26.5616  -34.8917   22.4668 O   0  0  0  0  0  0
  -23.5415  -32.1388   23.7335 O   0  0  0  0  0  0
  -27.8094  -22.7304   20.1829 C   0  0  0  0  0  0
  -30.3644  -22.0664   21.0015 C   0  0  0  0  0  0
  -28.6239  -23.7969   20.6563 C   0  0  0  0  0  0
  -28.2351  -21.3620   20.1337 C   0  0  0  0  0  0
  -29.9397  -23.4292   21.0429 C   0  0  0  0  0  0
  -29.5393  -20.9844   20.5852 C   0  0  0  0  0  0
  -27.2467  -20.3481   19.5831 C   0  0  0  0  0  0
  -30.9060  -24.4795   21.5618 C   0  0  0  0  0  0
  -27.9894  -25.2085   20.9648 C   0  0  0  0  0  0
  -30.4504  -17.1757   20.8363 C   0  0  0  0  0  0
  -29.4677  -18.3930   20.5236 C   0  0  0  0  0  0
  -29.9348  -15.7572   20.7761 N   0  0  0  0  0  0
  -30.1288  -19.6972   20.6574 O   0  0  0  0  0  0
  -31.4660  -12.4967   19.1509 H   0  0  0  0  0  0
  -30.3497  -11.4021   19.9194 H   0  0  0  0  0  0
  -29.7621  -11.7318   17.4896 H   0  0  0  0  0  0
  -29.6398  -13.4568   17.7368 H   0  0  0  0  0  0
  -27.8611  -11.2852   18.8898 H   0  0  0  0  0  0
  -27.3674  -12.5520   17.7980 H   0  0  0  0  0  0
  -27.6564  -14.2504   19.4960 H   0  0  0  0  0  0
  -28.7039  -12.1088   21.4107 H   0  0  0  0  0  0
  -28.4475  -13.7883   21.8101 H   0  0  0  0  0  0
  -25.2762   -9.5677   22.4766 H   0  0  0  0  0  0
  -23.9997   -7.4633   22.7486 H   0  0  0  0  0  0
  -21.0843   -8.8763   19.8959 H   0  0  0  0  0  0
  -22.3695  -10.9667   19.6169 H   0  0  0  0  0  0
  -21.2001   -7.6151   23.9711 H   0  0  0  0  0  0
  -21.1484   -6.0527   25.9070 H   0  0  0  0  0  0
  -22.0601   -2.7617   23.2834 H   0  0  0  0  0  0
  -22.4126  -11.9862   22.4767 H   0  0  0  0  0  0
  -21.1136  -13.1254   22.2674 H   0  0  0  0  0  0
  -24.6555  -15.8464   20.5072 H   0  0  0  0  0  0
  -26.2718  -15.6285   20.0717 H   0  0  0  0  0  0
  -26.7168  -32.5450   23.1110 H   0  0  0  0  0  0
  -25.0098  -33.9752   25.0450 H   0  0  0  0  0  0
  -22.7134  -31.2998   21.3996 H   0  0  0  0  0  0
  -23.3748  -35.9620   23.3309 H   0  0  0  0  0  0
  -24.3571  -36.8914   22.2061 H   0  0  0  0  0  0
  -23.7232  -37.6491   23.6675 H   0  0  0  0  0  0
  -26.0934  -31.5537   20.6065 H   0  0  0  0  0  0
  -26.8433  -30.8394   22.0045 H   0  0  0  0  0  0
  -28.1146  -28.9752   21.2148 H   0  0  0  0  0  0
  -26.0178  -25.9383   18.9854 H   0  0  0  0  0  0
  -23.9847  -27.3193   18.9851 H   0  0  0  0  0  0
  -23.7508  -30.5953   19.4013 H   0  0  0  0  0  0
  -22.7588  -29.2434   19.8588 H   0  0  0  0  0  0
  -25.1286  -36.1945   25.0824 H   0  0  0  0  0  0
  -20.9968  -28.3274   24.1401 H   0  0  0  0  0  0
  -20.5701  -26.2296   23.3605 H   0  0  0  0  0  0
  -21.6643  -26.7454   22.1183 H   0  0  0  0  0  0
  -19.6923  -25.6280   21.1252 H   0  0  0  0  0  0
  -19.6708  -27.3170   20.6729 H   0  0  0  0  0  0
  -17.4199  -26.6681   21.3999 H   0  0  0  0  0  0
  -18.0310  -26.0069   22.9008 H   0  0  0  0  0  0
  -19.7948  -30.7267   24.2243 H   0  0  0  0  0  0
  -17.5036  -31.6271   24.5155 H   0  0  0  0  0  0
  -15.5367  -30.2993   23.7690 H   0  0  0  0  0  0
  -15.8662  -28.0840   22.7086 H   0  0  0  0  0  0
  -24.5904  -30.7078   25.7778 H   0  0  0  0  0  0
  -24.8898  -32.2892   26.4880 H   0  0  0  0  0  0
  -25.8039  -30.8917   27.0234 H   0  0  0  0  0  0
  -26.2956  -29.6772   24.1216 H   0  0  0  0  0  0
  -27.4123  -29.7328   25.4670 H   0  0  0  0  0  0
  -27.8779  -30.4379   23.9368 H   0  0  0  0  0  0
  -27.2644  -33.3691   26.2034 H   0  0  0  0  0  0
  -28.3855  -32.6911   25.0330 H   0  0  0  0  0  0
  -28.0692  -31.8531   26.5449 H   0  0  0  0  0  0
  -28.2582  -38.0101   24.7531 H   0  0  0  0  0  0
  -28.1086  -36.2634   24.6279 H   0  0  0  0  0  0
  -27.2289  -37.1419   25.8865 H   0  0  0  0  0  0
  -20.9378  -29.8791   21.6908 H   0  0  0  0  0  0
  -26.0173  -38.2849   24.1427 H   0  0  0  0  0  0
  -26.7968  -22.9668   19.8880 H   0  0  0  0  0  0
  -31.3667  -21.8340   21.3346 H   0  0  0  0  0  0
  -26.3257  -20.8297   19.2520 H   0  0  0  0  0  0
  -26.9647  -19.6141   20.3365 H   0  0  0  0  0  0
  -27.6648  -19.8362   18.7164 H   0  0  0  0  0  0
  -31.9347  -24.1183   21.5281 H   0  0  0  0  0  0
  -30.6736  -24.7380   22.5953 H   0  0  0  0  0  0
  -30.8601  -25.3871   20.9591 H   0  0  0  0  0  0
  -28.2620  -25.4481   21.9937 H   0  0  0  0  0  0
  -26.9127  -25.0413   21.0242 H   0  0  0  0  0  0
  -30.8515  -17.3181   21.8409 H   0  0  0  0  0  0
  -31.3088  -17.2651   20.1685 H   0  0  0  0  0  0
  -28.6153  -18.3475   21.2001 H   0  0  0  0  0  0
  -29.0943  -18.2801   19.5066 H   0  0  0  0  0  0
  -28.9604  -15.6161   20.9957 H   0  0  0  0  0  0
  1 25  1  0  0  0
  1 30  2  0  0  0
  1 82  1  0  0  0
  2  3  1  0  0  0
  2 25  1  0  0  0
  2 84  1  0  0  0
  2 85  1  0  0  0
  3  4  1  0  0  0
  3 86  1  0  0  0
  3 87  1  0  0  0
  4  5  1  0  0  0
  4 88  1  0  0  0
  4 89  1  0  0  0
  5  6  1  0  0  0
  5 26  1  0  0  0
  5 90  1  0  0  0
  6 25  1  0  0  0
  6 91  1  0  0  0
  6 92  1  0  0  0
  7  8  2  0  0  0
  7 26  1  0  0  0
  7 29  1  0  0  0
  8  9  1  0  0  0
  8 22  1  0  0  0
  9 10  1  0  0  0
  9 27  2  0  0  0
 10 11  2  0  0  0
 10 15  1  0  0  0
 11 12  1  0  0  0
 11 93  1  0  0  0
 12 13  2  0  0  0
 12 94  1  0  0  0
 13 14  1  0  0  0
 13 31  1  0  0  0
 14 15  2  0  0  0
 14 95  1  0  0  0
 15 96  1  0  0  0
 16 17  2  0  0  0
 16 21  1  0  0  0
 16 31  1  0  0  0
 17 18  1  0  0  0
 17 97  1  0  0  0
 18 19  2  0  0  0
 18 98  1  0  0  0
 19 20  1  0  0  0
 19 24  1  0  0  0
 20 21  2  0  0  0
 20 99  1  0  0  0
 21 23  1  0  0  0
 22 28  1  0  0  0
 22 32  2  0  0  0
 26 27  1  0  0  0
 28100  1  0  0  0
 28101  1  0  0  0
 29102  1  0  0  0
 29103  1  0  0  0
 33 34  1  0  0  0
 33 66  1  0  0  0
 33 70  2  0  0  0
 34 36  1  0  0  0
 34 59  1  0  0  0
 34104  1  0  0  0
 35 44  2  0  0  0
 35 45  1  0  0  0
 35 68  1  0  0  0
 36 56  1  0  0  0
 36105  1  0  0  0
 37 39  1  0  0  0
 37 47  1  0  0  0
 37 66  1  0  0  0
 37106  1  0  0  0
 38 43  2  0  0  0
 38 46  1  0  0  0
 38 47  1  0  0  0
 39 64  1  0  0  0
 39 67  2  0  0  0
 40 52  1  0  0  0
 40 53  2  0  0  0
 40 58  1  0  0  0
 41107  1  0  0  0
 41108  1  0  0  0
 41109  1  0  0  0
 41 48  1  0  0  0
 42 43  1  0  0  0
 42 66  1  0  0  0
 42110  1  0  0  0
 42111  1  0  0  0
 43 44  1  0  0  0
 44112  1  0  0  0
 45 46  2  0  0  0
 45113  1  0  0  0
 46114  1  0  0  0
 47115  1  0  0  0
 47116  1  0  0  0
 48 56  1  0  0  0
 48 65  1  0  0  0
 48117  1  0  0  0
 49 50  1  0  0  0
 49 53  1  0  0  0
 49 64  1  0  0  0
 49118  1  0  0  0
 50 51  1  0  0  0
 50119  1  0  0  0
 50120  1  0  0  0
 51 52  1  0  0  0
 51121  1  0  0  0
 51122  1  0  0  0
 52123  1  0  0  0
 52124  1  0  0  0
 53 54  1  0  0  0
 54 55  2  0  0  0
 54125  1  0  0  0
 55 57  1  0  0  0
 55126  1  0  0  0
 56 69  2  0  0  0
 57 58  2  0  0  0
 57127  1  0  0  0
 58128  1  0  0  0
 59 60  1  0  0  0
 59 61  1  0  0  0
 59 62  1  0  0  0
 60129  1  0  0  0
 60130  1  0  0  0
 60131  1  0  0  0
 61132  1  0  0  0
 61133  1  0  0  0
 61134  1  0  0  0
 62135  1  0  0  0
 62136  1  0  0  0
 62137  1  0  0  0
 63 65  1  0  0  0
 63138  1  0  0  0
 63139  1  0  0  0
 63140  1  0  0  0
 64141  1  0  0  0
 65142  1  0  0  0
 68 79  1  0  0  0
 71 73  2  0  0  0
 71 74  1  0  0  0
 71143  1  0  0  0
 72 75  2  0  0  0
 72 76  1  0  0  0
 72144  1  0  0  0
 73 75  1  0  0  0
 73 79  1  0  0  0
 74 76  2  0  0  0
 74 77  1  0  0  0
 75 78  1  0  0  0
 76 83  1  0  0  0
 77145  1  0  0  0
 77146  1  0  0  0
 77147  1  0  0  0
 78148  1  0  0  0
 78149  1  0  0  0
 78150  1  0  0  0
 79151  1  0  0  0
 79152  1  0  0  0
 80 81  1  0  0  0
 80 82  1  0  0  0
 80153  1  0  0  0
 80154  1  0  0  0
 81 83  1  0  0  0
 81155  1  0  0  0
 81156  1  0  0  0
 82157  1  0  0  0
M  ISO  4   1 100  68 101  79 101  82 100
M  END
> <chiral flag>
0

> <version>
0

> <s_m_source_file>
/data/baiqing/PycharmProjects/Reinvent-master-3.2/result/LINK_invent/BTK/process_docking_weight1_custom_sum_contain_oxygen_bond_distance_aromatic_linkinvent_7_9_3/rearranged_h_0150.sdf

> <i_m_source_file_index>
75

> <r_mmod_Potential_Energy-OPLS-2005>
60.3220748901367

> <r_mmod_Stretch_Energy-OPLS-2005>
79.7068023681641

> <r_mmod_Bend_Energy-OPLS-2005>
161.085494995117

> <r_mmod_Torsional_Energy-OPLS-2005>
237.482330322266

> <r_mmod_Improper_Torsional_Energy-OPLS-2005>
5.66784906387329

> <r_mmod_Van_der_Waal_Energy-OPLS-2005>
144.873611450195

> <r_mmod_Electrostatic_Energy-OPLS-2005>
-408.586303710938

> <r_mmod_Solvation_Energy-OPLS-2005>
-212.973968505859

> <b_mmod_Minimization_Converged-OPLS-2005>
0

> <r_mmod_RMS_Derivative-OPLS-2005>
1.65153026580811

$$$$
75
                    3D
 Structure written by MMmdl.
167177  0  0  1  0            999 V2000
  -30.7260  -14.6686   20.4693 C   0  0  0  0  0  0
  -30.4026  -12.4190   19.4619 C   0  0  0  0  0  0
  -29.4879  -12.4821   18.2250 C   0  0  0  0  0  0
  -28.0210  -12.3022   18.6513 C   0  0  0  0  0  0
  -27.6310  -13.2167   19.8412 C   0  0  2  0  0  0
  -28.6844  -13.1898   20.9749 C   0  0  0  0  0  0
  -25.2478  -13.8156   20.5690 C   0  0  0  0  0  0
  -24.1770  -13.0419   20.9216 C   0  0  0  0  0  0
  -24.6354  -11.6892   20.8769 C   0  0  0  0  0  0
  -23.9035  -10.4279   21.0430 C   0  0  0  0  0  0
  -24.3597   -9.4195   21.9204 C   0  0  0  0  0  0
  -23.6274   -8.2227   22.0765 C   0  0  0  0  0  0
  -22.4257   -8.0269   21.3545 C   0  0  0  0  0  0
  -21.9884   -9.0250   20.4655 C   0  0  0  0  0  0
  -22.7208  -10.2133   20.3075 C   0  0  0  0  0  0
  -21.6852   -6.0726   22.5279 C   0  0  0  0  0  0
  -21.4014   -6.5635   23.8213 C   0  0  0  0  0  0
  -21.3650   -5.6787   24.9173 C   0  0  0  0  0  0
  -21.6046   -4.3053   24.7221 C   0  0  0  0  0  0
  -21.8819   -3.8140   23.4345 C   0  0  0  0  0  0
  -21.9192   -4.6955   22.3400 C   0  0  0  0  0  0
  -22.7797  -13.5221   21.1857 C   0  0  0  0  0  0
  -22.1664   -4.2146   21.0977 F   0  0  0  0  0  0
  -21.5622   -3.4535   25.7733 F   0  0  0  0  0  0
  -29.9840  -13.5117   20.3736 N   0  0  0  0  0  0
  -26.2883  -12.9335   20.3284 N   0  0  0  0  0  0
  -25.9279  -11.6494   20.5791 N   0  0  0  0  0  0
  -22.0442  -12.8229   22.0421 N   0  0  0  0  0  0
  -25.4129  -15.1872   20.4056 N   0  0  0  0  0  0
  -31.9257  -14.6044   20.1840 O   0  0  0  0  0  0
  -21.6626   -6.8861   21.4238 O   0  0  0  0  0  0
  -22.3491  -14.5526   20.6689 O   0  0  0  0  0  0
  -24.6252  -31.8598   23.2018 C   0  0  0  0  0  0
  -25.9099  -32.4774   23.8353 C   0  0  1  0  0  0
  -27.2243  -27.3221   20.1323 C   0  0  0  0  0  0
  -25.5911  -33.8579   24.2277 N   0  0  0  0  0  0
  -23.4195  -30.4810   21.5434 C   0  0  2  0  0  0
  -24.8675  -28.9265   20.1201 C   0  0  0  0  0  0
  -22.7467  -29.4625   22.4943 C   0  0  0  0  0  0
  -18.0286  -28.1395   22.8487 C   0  0  0  0  0  0
  -24.1484  -36.7295   23.2644 C   0  0  0  0  0  0
  -25.9589  -30.7899   21.3740 C   0  0  0  0  0  0
  -26.0344  -29.4143   20.7235 C   0  0  0  0  0  0
  -27.2194  -28.6225   20.7194 C   0  0  0  0  0  0
  -26.0398  -26.8743   19.5169 C   0  0  0  0  0  0
  -24.8702  -27.6597   19.5106 C   0  0  0  0  0  0
  -23.6370  -29.8094   20.1613 C   0  0  0  0  0  0
  -25.4108  -36.3084   24.0332 C   0  0  1  0  0  0
  -20.5884  -28.3699   23.1284 C   0  0  2  0  0  0
  -20.6769  -26.9423   22.5415 C   0  0  0  0  0  0
  -19.5745  -26.6390   21.5218 C   0  0  0  0  0  0
  -18.1925  -26.7935   22.1629 C   0  0  0  0  0  0
  -19.1536  -28.8860   23.2883 C   0  0  0  0  0  0
  -18.9466  -30.1462   23.8902 C   0  0  0  0  0  0
  -17.6466  -30.6594   24.0574 C   0  0  0  0  0  0
  -25.9043  -34.9451   23.5105 C   0  0  0  0  0  0
  -16.5357  -29.9098   23.6337 C   0  0  0  0  0  0
  -16.7273  -28.6517   23.0350 C   0  0  0  0  0  0
  -26.4496  -31.6590   25.0728 C   0  0  0  0  0  0
  -25.3740  -31.3737   26.1475 C   0  0  0  0  0  0
  -27.0354  -30.3012   24.6195 C   0  0  0  0  0  0
  -27.6061  -32.4338   25.7481 C   0  0  0  0  0  0
  -27.5576  -37.1799   24.8467 C   0  0  0  0  0  0
  -21.4184  -29.3051   22.3677 N   0  0  0  0  0  0
  -26.4285  -37.3779   23.9413 N   0  0  0  0  0  0
  -24.6860  -31.0606   22.0963 N   0  0  0  0  0  0
  -23.4189  -28.8174   23.3029 O   0  0  0  0  0  0
  -28.3448  -26.4912   20.0908 O   0  0  0  0  0  0
  -26.5624  -34.8924   22.4680 O   0  0  0  0  0  0
  -23.5414  -32.1402   23.7343 O   0  0  0  0  0  0
  -30.6089  -22.2788   18.3415 C   0  0  0  0  0  0
  -29.7674  -23.2017   18.9795 C   0  0  0  0  0  0
  -28.8458  -21.3683   20.3025 C   0  0  0  0  0  0
  -30.5799  -20.8997   18.6466 C   0  0  0  0  0  0
  -29.7088  -20.4013   19.6656 C   0  0  0  0  0  0
  -28.8580  -22.7760   19.9589 C   0  0  0  0  0  0
  -31.7617  -20.2330   16.3745 C   0  0  0  0  0  0
  -30.9894  -19.0262   16.8352 C   0  0  0  0  0  0
  -30.7297  -18.4870   21.1798 C   0  0  0  0  0  0
  -28.5558  -17.9858   20.2562 C   0  0  0  0  0  0
  -31.1771  -16.9928   21.1293 C   0  0  0  0  0  0
  -28.8652  -16.4272   20.2638 C   0  0  0  0  0  0
  -31.5152  -20.0151   17.8569 C   0  0  0  0  0  0
  -29.8021  -18.8552   20.0199 C   0  0  0  0  0  0
  -27.8754  -23.8441   20.5464 C   0  0  0  0  0  0
  -28.3742  -25.3056   20.9665 C   0  0  0  0  0  0
  -30.1845  -15.9230   20.7670 N   0  0  0  0  0  0
  -31.4452  -12.4897   19.1470 H   0  0  0  0  0  0
  -30.3160  -11.4525   19.9609 H   0  0  0  0  0  0
  -29.7651  -11.7086   17.5070 H   0  0  0  0  0  0
  -29.6142  -13.4374   17.7134 H   0  0  0  0  0  0
  -27.8883  -11.2562   18.9307 H   0  0  0  0  0  0
  -27.3556  -12.4777   17.8052 H   0  0  0  0  0  0
  -27.6011  -14.2159   19.4194 H   0  0  0  0  0  0
  -28.7194  -12.2069   21.4469 H   0  0  0  0  0  0
  -28.4339  -13.8976   21.7657 H   0  0  0  0  0  0
  -25.2755   -9.5667   22.4769 H   0  0  0  0  0  0
  -23.9994   -7.4609   22.7481 H   0  0  0  0  0  0
  -21.0815   -8.8764   19.8953 H   0  0  0  0  0  0
  -22.3678  -10.9673   19.6177 H   0  0  0  0  0  0
  -21.2017   -7.6148   23.9710 H   0  0  0  0  0  0
  -21.1467   -6.0521   25.9074 H   0  0  0  0  0  0
  -22.0606   -2.7603   23.2846 H   0  0  0  0  0  0
  -22.4071  -11.9914   22.4839 H   0  0  0  0  0  0
  -21.1062  -13.1277   22.2631 H   0  0  0  0  0  0
  -24.6407  -15.8353   20.5119 H   0  0  0  0  0  0
  -26.2566  -15.6296   20.0651 H   0  0  0  0  0  0
  -26.7165  -32.5451   23.1105 H   0  0  0  0  0  0
  -25.0058  -33.9728   25.0421 H   0  0  0  0  0  0
  -22.7136  -31.3010   21.3959 H   0  0  0  0  0  0
  -23.3744  -35.9629   23.3312 H   0  0  0  0  0  0
  -24.3579  -36.8916   22.2058 H   0  0  0  0  0  0
  -23.7241  -37.6498   23.6668 H   0  0  0  0  0  0
  -26.0904  -31.5488   20.6018 H   0  0  0  0  0  0
  -26.8385  -30.8413   22.0040 H   0  0  0  0  0  0
  -28.1203  -28.9960   21.1864 H   0  0  0  0  0  0
  -26.0208  -25.9048   19.0405 H   0  0  0  0  0  0
  -23.9755  -27.2777   19.0396 H   0  0  0  0  0  0
  -23.7644  -30.5837   19.4042 H   0  0  0  0  0  0
  -22.7558  -29.2422   19.8553 H   0  0  0  0  0  0
  -25.1284  -36.1938   25.0821 H   0  0  0  0  0  0
  -20.9972  -28.3281   24.1406 H   0  0  0  0  0  0
  -20.5666  -26.2316   23.3620 H   0  0  0  0  0  0
  -21.6638  -26.7450   22.1213 H   0  0  0  0  0  0
  -19.6906  -25.6299   21.1250 H   0  0  0  0  0  0
  -19.6674  -27.3202   20.6747 H   0  0  0  0  0  0
  -17.4191  -26.6690   21.4037 H   0  0  0  0  0  0
  -18.0324  -26.0081   22.9024 H   0  0  0  0  0  0
  -19.7943  -30.7279   24.2268 H   0  0  0  0  0  0
  -17.5025  -31.6271   24.5185 H   0  0  0  0  0  0
  -15.5359  -30.3004   23.7654 H   0  0  0  0  0  0
  -15.8674  -28.0841   22.7056 H   0  0  0  0  0  0
  -24.5889  -30.7107   25.7822 H   0  0  0  0  0  0
  -24.8964  -32.2908   26.4929 H   0  0  0  0  0  0
  -25.8076  -30.8899   27.0236 H   0  0  0  0  0  0
  -26.2932  -29.6740   24.1241 H   0  0  0  0  0  0
  -27.4075  -29.7298   25.4710 H   0  0  0  0  0  0
  -27.8789  -30.4303   23.9412 H   0  0  0  0  0  0
  -27.2670  -33.3644   26.2049 H   0  0  0  0  0  0
  -28.3860  -32.6894   25.0294 H   0  0  0  0  0  0
  -28.0742  -31.8478   26.5402 H   0  0  0  0  0  0
  -28.2598  -38.0092   24.7509 H   0  0  0  0  0  0
  -28.1067  -36.2625   24.6288 H   0  0  0  0  0  0
  -27.2305  -37.1450   25.8874 H   0  0  0  0  0  0
  -20.9363  -29.8783   21.6898 H   0  0  0  0  0  0
  -26.0170  -38.2855   24.1415 H   0  0  0  0  0  0
  -31.2888  -22.6457   17.5851 H   0  0  0  0  0  0
  -29.8117  -24.2436   18.6930 H   0  0  0  0  0  0
  -28.1592  -21.0196   21.0617 H   0  0  0  0  0  0
  -31.1930  -20.9993   15.8514 H   0  0  0  0  0  0
  -32.7602  -20.0450   15.9838 H   0  0  0  0  0  0
  -31.4900  -18.0626   16.7608 H   0  0  0  0  0  0
  -29.9159  -19.0112   16.6545 H   0  0  0  0  0  0
  -31.6244  -19.1109   21.1365 H   0  0  0  0  0  0
  -30.2550  -18.7191   22.1342 H   0  0  0  0  0  0
  -28.0833  -18.2760   21.1958 H   0  0  0  0  0  0
  -27.8167  -18.1884   19.4798 H   0  0  0  0  0  0
  -31.6463  -16.7268   22.0778 H   0  0  0  0  0  0
  -31.9839  -16.9808   20.3931 H   0  0  0  0  0  0
  -28.7784  -16.0824   19.2329 H   0  0  0  0  0  0
  -28.0756  -15.9415   20.8324 H   0  0  0  0  0  0
  -32.3630  -19.7046   18.4657 H   0  0  0  0  0  0
  -30.2349  -18.3774   19.1488 H   0  0  0  0  0  0
  -27.4636  -23.3843   21.4461 H   0  0  0  0  0  0
  -27.0271  -23.9365   19.8691 H   0  0  0  0  0  0
  -29.3931  -25.2162   21.3453 H   0  0  0  0  0  0
  -27.7937  -25.5815   21.8484 H   0  0  0  0  0  0
  1 25  1  0  0  0
  1 30  2  0  0  0
  1 87  1  0  0  0
  2  3  1  0  0  0
  2 25  1  0  0  0
  2 88  1  0  0  0
  2 89  1  0  0  0
  3  4  1  0  0  0
  3 90  1  0  0  0
  3 91  1  0  0  0
  4  5  1  0  0  0
  4 92  1  0  0  0
  4 93  1  0  0  0
  5  6  1  0  0  0
  5 26  1  0  0  0
  5 94  1  0  0  0
  6 25  1  0  0  0
  6 95  1  0  0  0
  6 96  1  0  0  0
  7  8  2  0  0  0
  7 26  1  0  0  0
  7 29  1  0  0  0
  8  9  1  0  0  0
  8 22  1  0  0  0
  9 10  1  0  0  0
  9 27  2  0  0  0
 10 11  2  0  0  0
 10 15  1  0  0  0
 11 12  1  0  0  0
 11 97  1  0  0  0
 12 13  2  0  0  0
 12 98  1  0  0  0
 13 14  1  0  0  0
 13 31  1  0  0  0
 14 15  2  0  0  0
 14 99  1  0  0  0
 15100  1  0  0  0
 16 17  2  0  0  0
 16 21  1  0  0  0
 16 31  1  0  0  0
 17 18  1  0  0  0
 17101  1  0  0  0
 18 19  2  0  0  0
 18102  1  0  0  0
 19 20  1  0  0  0
 19 24  1  0  0  0
 20 21  2  0  0  0
 20103  1  0  0  0
 21 23  1  0  0  0
 22 28  1  0  0  0
 22 32  2  0  0  0
 26 27  1  0  0  0
 28104  1  0  0  0
 28105  1  0  0  0
 29106  1  0  0  0
 29107  1  0  0  0
 33 34  1  0  0  0
 33 66  1  0  0  0
 33 70  2  0  0  0
 34 36  1  0  0  0
 34 59  1  0  0  0
 34108  1  0  0  0
 35 44  2  0  0  0
 35 45  1  0  0  0
 35 68  1  0  0  0
 36 56  1  0  0  0
 36109  1  0  0  0
 37 39  1  0  0  0
 37 47  1  0  0  0
 37 66  1  0  0  0
 37110  1  0  0  0
 38 43  2  0  0  0
 38 46  1  0  0  0
 38 47  1  0  0  0
 39 64  1  0  0  0
 39 67  2  0  0  0
 40 52  1  0  0  0
 40 53  2  0  0  0
 40 58  1  0  0  0
 41111  1  0  0  0
 41112  1  0  0  0
 41113  1  0  0  0
 41 48  1  0  0  0
 42 43  1  0  0  0
 42 66  1  0  0  0
 42114  1  0  0  0
 42115  1  0  0  0
 43 44  1  0  0  0
 44116  1  0  0  0
 45 46  2  0  0  0
 45117  1  0  0  0
 46118  1  0  0  0
 47119  1  0  0  0
 47120  1  0  0  0
 48 56  1  0  0  0
 48 65  1  0  0  0
 48121  1  0  0  0
 49 50  1  0  0  0
 49 53  1  0  0  0
 49 64  1  0  0  0
 49122  1  0  0  0
 50 51  1  0  0  0
 50123  1  0  0  0
 50124  1  0  0  0
 51 52  1  0  0  0
 51125  1  0  0  0
 51126  1  0  0  0
 52127  1  0  0  0
 52128  1  0  0  0
 53 54  1  0  0  0
 54 55  2  0  0  0
 54129  1  0  0  0
 55 57  1  0  0  0
 55130  1  0  0  0
 56 69  2  0  0  0
 57 58  2  0  0  0
 57131  1  0  0  0
 58132  1  0  0  0
 59 60  1  0  0  0
 59 61  1  0  0  0
 59 62  1  0  0  0
 60133  1  0  0  0
 60134  1  0  0  0
 60135  1  0  0  0
 61136  1  0  0  0
 61137  1  0  0  0
 61138  1  0  0  0
 62139  1  0  0  0
 62140  1  0  0  0
 62141  1  0  0  0
 63 65  1  0  0  0
 63142  1  0  0  0
 63143  1  0  0  0
 63144  1  0  0  0
 64145  1  0  0  0
 65146  1  0  0  0
 68 86  1  0  0  0
 71 72  2  0  0  0
 71 74  1  0  0  0
 71147  1  0  0  0
 72 76  1  0  0  0
 72148  1  0  0  0
 73 75  1  0  0  0
 73 76  2  0  0  0
 73149  1  0  0  0
 74 75  2  0  0  0
 74 83  1  0  0  0
 75 84  1  0  0  0
 76 85  1  0  0  0
 77 78  1  0  0  0
 77 83  1  0  0  0
 77150  1  0  0  0
 77151  1  0  0  0
 78 83  1  0  0  0
 78152  1  0  0  0
 78153  1  0  0  0
 79 81  1  0  0  0
 79 84  1  0  0  0
 79154  1  0  0  0
 79155  1  0  0  0
 80 82  1  0  0  0
 80 84  1  0  0  0
 80156  1  0  0  0
 80157  1  0  0  0
 81 87  1  0  0  0
 81158  1  0  0  0
 81159  1  0  0  0
 82 87  1  0  0  0
 82160  1  0  0  0
 82161  1  0  0  0
 83162  1  0  0  0
 84163  1  0  0  0
 85 86  1  0  0  0
 85164  1  0  0  0
 85165  1  0  0  0
 86166  1  0  0  0
 86167  1  0  0  0
M  ISO  4   1 100  68 101  86 101  87 100
M  END
> <chiral flag>
0

> <version>
0

> <s_m_source_file>
/data/baiqing/PycharmProjects/Reinvent-master-3.2/result/LINK_invent/BTK/process_docking_weight1_custom_sum_contain_oxygen_bond_distance_aromatic_linkinvent_7_9_3/rearranged_h_0150.sdf

> <i_m_source_file_index>
76

> <r_mmod_Potential_Energy-OPLS-2005>
389.915557861328

> <r_mmod_Stretch_Energy-OPLS-2005>
93.0468978881836

> <r_mmod_Bend_Energy-OPLS-2005>
197.613983154297

> <r_mmod_Torsional_Energy-OPLS-2005>
366.571746826172

> <r_mmod_Improper_Torsional_Energy-OPLS-2005>
3.84067845344543

> <r_mmod_Van_der_Waal_Energy-OPLS-2005>
150.457656860352

> <r_mmod_Electrostatic_Energy-OPLS-2005>
-289.279541015625

> <r_mmod_Solvation_Energy-OPLS-2005>
-193.519470214844

> <b_mmod_Minimization_Converged-OPLS-2005>
0

> <r_mmod_RMS_Derivative-OPLS-2005>
1.80797576904297

$$$$
76
                    3D
 Structure written by MMmdl.
183193  0  0  1  0            999 V2000
  -30.7110  -14.4169   20.5541 C   0  0  0  0  0  0
  -30.4246  -12.2658   19.4051 C   0  0  0  0  0  0
  -29.4901  -12.4875   18.1972 C   0  0  0  0  0  0
  -28.0084  -12.3673   18.6141 C   0  0  0  0  0  0
  -27.6673  -13.1927   19.8852 C   0  0  2  0  0  0
  -28.7161  -12.9198   20.9900 C   0  0  0  0  0  0
  -25.2620  -13.8126   20.5704 C   0  0  0  0  0  0
  -24.1850  -13.0418   20.9175 C   0  0  0  0  0  0
  -24.6393  -11.6882   20.8760 C   0  0  0  0  0  0
  -23.9067  -10.4274   21.0416 C   0  0  0  0  0  0
  -24.3618   -9.4188   21.9189 C   0  0  0  0  0  0
  -23.6283   -8.2231   22.0754 C   0  0  0  0  0  0
  -22.4266   -8.0284   21.3540 C   0  0  0  0  0  0
  -21.9910   -9.0262   20.4641 C   0  0  0  0  0  0
  -22.7248  -10.2131   20.3061 C   0  0  0  0  0  0
  -21.6846   -6.0745   22.5286 C   0  0  0  0  0  0
  -21.4011   -6.5638   23.8223 C   0  0  0  0  0  0
  -21.3659   -5.6791   24.9182 C   0  0  0  0  0  0
  -21.6046   -4.3055   24.7230 C   0  0  0  0  0  0
  -21.8817   -3.8150   23.4349 C   0  0  0  0  0  0
  -21.9183   -4.6970   22.3406 C   0  0  0  0  0  0
  -22.7868  -13.5230   21.1835 C   0  0  0  0  0  0
  -22.1642   -4.2161   21.0980 F   0  0  0  0  0  0
  -21.5638   -3.4534   25.7741 F   0  0  0  0  0  0
  -30.0411  -13.2396   20.4356 N   0  0  0  0  0  0
  -26.3060  -12.9273   20.3443 N   0  0  0  0  0  0
  -25.9324  -11.6448   20.5825 N   0  0  0  0  0  0
  -22.0500  -12.8234   22.0386 N   0  0  0  0  0  0
  -25.4347  -15.1846   20.4140 N   0  0  0  0  0  0
  -31.8672  -14.5660   20.1452 O   0  0  0  0  0  0
  -21.6621   -6.8893   21.4249 O   0  0  0  0  0  0
  -22.3567  -14.5552   20.6703 O   0  0  0  0  0  0
  -24.6076  -31.8722   23.2131 C   0  0  0  0  0  0
  -25.9000  -32.4848   23.8415 C   0  0  1  0  0  0
  -27.2623  -27.5037   20.0852 C   0  0  0  0  0  0
  -25.5884  -33.8639   24.2356 N   0  0  0  0  0  0
  -23.3943  -30.4927   21.5505 C   0  0  2  0  0  0
  -24.8472  -28.9622   20.1184 C   0  0  0  0  0  0
  -22.7379  -29.4671   22.5010 C   0  0  0  0  0  0
  -18.0270  -28.1374   22.8504 C   0  0  0  0  0  0
  -24.1487  -36.7324   23.2632 C   0  0  0  0  0  0
  -25.9127  -30.8593   21.3552 C   0  0  0  0  0  0
  -25.9965  -29.4942   20.7123 C   0  0  0  0  0  0
  -27.2013  -28.7683   20.7081 C   0  0  0  0  0  0
  -26.0903  -26.9583   19.5188 C   0  0  0  0  0  0
  -24.8841  -27.6868   19.5238 C   0  0  0  0  0  0
  -23.6029  -29.8192   20.1657 C   0  0  0  0  0  0
  -25.4101  -36.3130   24.0348 C   0  0  1  0  0  0
  -20.5855  -28.3648   23.1341 C   0  0  2  0  0  0
  -20.6761  -26.9393   22.5425 C   0  0  0  0  0  0
  -19.5737  -26.6390   21.5218 C   0  0  0  0  0  0
  -18.1914  -26.7926   22.1630 C   0  0  0  0  0  0
  -19.1517  -28.8834   23.2921 C   0  0  0  0  0  0
  -18.9443  -30.1446   23.8926 C   0  0  0  0  0  0
  -17.6446  -30.6586   24.0576 C   0  0  0  0  0  0
  -25.9028  -34.9492   23.5151 C   0  0  0  0  0  0
  -16.5340  -29.9092   23.6330 C   0  0  0  0  0  0
  -16.7258  -28.6507   23.0349 C   0  0  0  0  0  0
  -26.4458  -31.6596   25.0704 C   0  0  0  0  0  0
  -25.3757  -31.3667   26.1474 C   0  0  0  0  0  0
  -27.0260  -30.3056   24.6001 C   0  0  0  0  0  0
  -27.6055  -32.4285   25.7462 C   0  0  0  0  0  0
  -27.5596  -37.1803   24.8453 C   0  0  0  0  0  0
  -21.4116  -29.3023   22.3753 N   0  0  0  0  0  0
  -26.4286  -37.3815   23.9430 N   0  0  0  0  0  0
  -24.6561  -31.0873   22.1002 N   0  0  0  0  0  0
  -23.4177  -28.8229   23.3041 O   0  0  0  0  0  0
  -28.4218  -26.7690   20.0335 O   0  0  0  0  0  0
  -26.5582  -34.8937   22.4706 O   0  0  0  0  0  0
  -23.5287  -32.1427   23.7579 O   0  0  0  0  0  0
  -29.3881  -20.3397   17.3451 C   0  0  0  0  0  0
  -29.4253  -21.4432   19.4991 C   0  0  0  0  0  0
  -29.5411  -21.5106   18.0981 C   0  0  0  0  0  0
  -29.1330  -19.0087   19.4050 C   0  0  0  0  0  0
  -29.1531  -19.1046   17.9782 C   0  0  0  0  0  0
  -29.2181  -20.2140   20.1669 C   0  0  0  0  0  0
  -29.0354  -17.4810   21.5980 C   0  0  0  0  0  0
  -28.4678  -23.6951   17.5087 C   0  0  0  0  0  0
  -31.0205  -23.5675   17.9544 C   0  0  0  0  0  0
  -29.2270  -15.9854   21.8307 C   0  0  0  0  0  0
  -30.0545  -16.6027   19.6854 C   0  0  0  0  0  0
  -28.6874  -25.1629   17.1298 C   0  0  0  0  0  0
  -31.0810  -25.0589   17.5894 C   0  0  0  0  0  0
  -29.7584  -22.8482   17.4051 C   0  0  1  0  0  0
  -28.9746  -17.6202   20.0703 C   0  0  2  0  0  0
  -28.8900  -17.9226   17.0543 C   0  0  0  0  0  0
  -28.8657  -20.9576   23.7764 C   0  0  0  0  0  0
  -29.8169  -27.1591   18.1263 C   0  0  0  0  0  0
  -29.1045  -21.3522   22.3164 C   0  0  0  0  0  0
  -29.6094  -27.4579   19.6174 C   0  0  0  0  0  0
  -29.9080  -15.4989   20.6317 N   0  0  0  0  0  0
  -29.7949  -25.6912   17.9526 N   0  3  1  0  0  0
  -29.0663  -20.1638   21.5368 O   0  0  0  0  0  0
  -31.4670  -12.3609   19.0980 H   0  0  0  0  0  0
  -30.3237  -11.2494   19.7906 H   0  0  0  0  0  0
  -29.7145  -11.7635   17.4119 H   0  0  0  0  0  0
  -29.6723  -13.4735   17.7680 H   0  0  0  0  0  0
  -27.8044  -11.3116   18.7965 H   0  0  0  0  0  0
  -27.3590  -12.6601   17.7882 H   0  0  0  0  0  0
  -27.7200  -14.2455   19.6082 H   0  0  0  0  0  0
  -28.6883  -11.8674   21.2746 H   0  0  0  0  0  0
  -28.5044  -13.4495   21.9146 H   0  0  0  0  0  0
  -25.2767   -9.5644   22.4757 H   0  0  0  0  0  0
  -23.9989   -7.4619   22.7466 H   0  0  0  0  0  0
  -21.0850   -8.8792   19.8934 H   0  0  0  0  0  0
  -22.3729  -10.9679   19.6168 H   0  0  0  0  0  0
  -21.1997   -7.6145   23.9732 H   0  0  0  0  0  0
  -21.1485   -6.0514   25.9089 H   0  0  0  0  0  0
  -22.0597   -2.7615   23.2847 H   0  0  0  0  0  0
  -22.4113  -11.9895   22.4781 H   0  0  0  0  0  0
  -21.1124  -13.1274   22.2593 H   0  0  0  0  0  0
  -24.6748  -15.8439   20.5419 H   0  0  0  0  0  0
  -26.3034  -15.6229   20.1384 H   0  0  0  0  0  0
  -26.7081  -32.5608   23.1203 H   0  0  0  0  0  0
  -25.0052  -33.9802   25.0519 H   0  0  0  0  0  0
  -22.6799  -31.3068   21.4101 H   0  0  0  0  0  0
  -23.3761  -35.9641   23.3262 H   0  0  0  0  0  0
  -24.3598  -36.8966   22.2054 H   0  0  0  0  0  0
  -23.7214  -37.6514   23.6653 H   0  0  0  0  0  0
  -26.0053  -31.6237   20.5814 H   0  0  0  0  0  0
  -26.8060  -30.9258   21.9635 H   0  0  0  0  0  0
  -28.0715  -29.1889   21.1917 H   0  0  0  0  0  0
  -26.1174  -25.9794   19.0629 H   0  0  0  0  0  0
  -23.9974  -27.2642   19.0712 H   0  0  0  0  0  0
  -23.7053  -30.5914   19.4019 H   0  0  0  0  0  0
  -22.7313  -29.2306   19.8741 H   0  0  0  0  0  0
  -25.1271  -36.1993   25.0838 H   0  0  0  0  0  0
  -20.9945  -28.3207   24.1460 H   0  0  0  0  0  0
  -20.5676  -26.2253   23.3600 H   0  0  0  0  0  0
  -21.6627  -26.7445   22.1205 H   0  0  0  0  0  0
  -19.6896  -25.6306   21.1231 H   0  0  0  0  0  0
  -19.6688  -27.3220   20.6759 H   0  0  0  0  0  0
  -17.4192  -26.6703   21.4021 H   0  0  0  0  0  0
  -18.0301  -26.0062   22.9016 H   0  0  0  0  0  0
  -19.7917  -30.7266   24.2304 H   0  0  0  0  0  0
  -17.4993  -31.6265   24.5173 H   0  0  0  0  0  0
  -15.5341  -30.3004   23.7621 H   0  0  0  0  0  0
  -15.8660  -28.0836   22.7036 H   0  0  0  0  0  0
  -24.5904  -30.7046   25.7807 H   0  0  0  0  0  0
  -24.8980  -32.2808   26.5004 H   0  0  0  0  0  0
  -25.8138  -30.8766   27.0179 H   0  0  0  0  0  0
  -26.2755  -29.6837   24.1103 H   0  0  0  0  0  0
  -27.4109  -29.7266   25.4407 H   0  0  0  0  0  0
  -27.8566  -30.4398   23.9065 H   0  0  0  0  0  0
  -27.2693  -33.3568   26.2098 H   0  0  0  0  0  0
  -28.3848  -32.6869   25.0277 H   0  0  0  0  0  0
  -28.0741  -31.8361   26.5333 H   0  0  0  0  0  0
  -28.2569  -38.0149   24.7585 H   0  0  0  0  0  0
  -28.1141  -36.2687   24.6167 H   0  0  0  0  0  0
  -27.2325  -37.1320   25.8856 H   0  0  0  0  0  0
  -20.9273  -29.8732   21.6970 H   0  0  0  0  0  0
  -26.0182  -38.2886   24.1479 H   0  0  0  0  0  0
  -29.4275  -20.3917   16.2654 H   0  0  0  0  0  0
  -29.4852  -22.3649   20.0554 H   0  0  0  0  0  0
  -29.9185  -17.9866   21.9941 H   0  0  0  0  0  0
  -28.1542  -17.8742   22.1061 H   0  0  0  0  0  0
  -27.6878  -23.2599   16.8824 H   0  0  0  0  0  0
  -28.0771  -23.6649   18.5266 H   0  0  0  0  0  0
  -31.0640  -23.5061   19.0408 H   0  0  0  0  0  0
  -31.9185  -23.0587   17.6002 H   0  0  0  0  0  0
  -28.2429  -15.5322   21.9243 H   0  0  0  0  0  0
  -29.7922  -15.7794   22.7409 H   0  0  0  0  0  0
  -31.0484  -17.0446   19.7852 H   0  0  0  0  0  0
  -29.9617  -16.2201   18.6719 H   0  0  0  0  0  0
  -27.7691  -25.7199   17.3153 H   0  0  0  0  0  0
  -28.9137  -25.2700   16.0678 H   0  0  0  0  0  0
  -31.2829  -25.1974   16.5260 H   0  0  0  0  0  0
  -31.9038  -25.5277   18.1316 H   0  0  0  0  0  0
  -29.9377  -22.6655   16.3443 H   0  0  0  0  0  0
  -28.0038  -17.2345   19.7554 H   0  0  0  0  0  0
  -28.4772  -18.2634   16.1036 H   0  0  0  0  0  0
  -28.1634  -17.2245   17.4686 H   0  0  0  0  0  0
  -29.8133  -17.3913   16.8248 H   0  0  0  0  0  0
  -28.9049  -21.8311   24.4274 H   0  0  0  0  0  0
  -29.6210  -20.2508   24.1209 H   0  0  0  0  0  0
  -27.8885  -20.4909   23.9034 H   0  0  0  0  0  0
  -30.7600  -27.5852   17.7816 H   0  0  0  0  0  0
  -29.0299  -27.6363   17.5405 H   0  0  0  0  0  0
  -30.0753  -21.8416   22.2223 H   0  0  0  0  0  0
  -28.3298  -22.0520   21.9976 H   0  0  0  0  0  0
  -29.5994  -28.5342   19.7836 H   0  0  0  0  0  0
  -30.4487  -27.0709   20.1974 H   0  0  0  0  0  0
  -29.5838  -25.3718   18.8882 H   0  0  0  0  0  0
  1 25  1  0  0  0
  1 30  2  0  0  0
  1 91  1  0  0  0
  2  3  1  0  0  0
  2 25  1  0  0  0
  2 94  1  0  0  0
  2 95  1  0  0  0
  3  4  1  0  0  0
  3 96  1  0  0  0
  3 97  1  0  0  0
  4  5  1  0  0  0
  4 98  1  0  0  0
  4 99  1  0  0  0
  5  6  1  0  0  0
  5 26  1  0  0  0
  5100  1  0  0  0
  6 25  1  0  0  0
  6101  1  0  0  0
  6102  1  0  0  0
  7  8  2  0  0  0
  7 26  1  0  0  0
  7 29  1  0  0  0
  8  9  1  0  0  0
  8 22  1  0  0  0
  9 10  1  0  0  0
  9 27  2  0  0  0
 10 11  2  0  0  0
 10 15  1  0  0  0
 11 12  1  0  0  0
 11103  1  0  0  0
 12 13  2  0  0  0
 12104  1  0  0  0
 13 14  1  0  0  0
 13 31  1  0  0  0
 14 15  2  0  0  0
 14105  1  0  0  0
 15106  1  0  0  0
 16 17  2  0  0  0
 16 21  1  0  0  0
 16 31  1  0  0  0
 17 18  1  0  0  0
 17107  1  0  0  0
 18 19  2  0  0  0
 18108  1  0  0  0
 19 20  1  0  0  0
 19 24  1  0  0  0
 20 21  2  0  0  0
 20109  1  0  0  0
 21 23  1  0  0  0
 22 28  1  0  0  0
 22 32  2  0  0  0
 26 27  1  0  0  0
 28110  1  0  0  0
 28111  1  0  0  0
 29112  1  0  0  0
 29113  1  0  0  0
 33 34  1  0  0  0
 33 66  1  0  0  0
 33 70  2  0  0  0
 34 36  1  0  0  0
 34 59  1  0  0  0
 34114  1  0  0  0
 35 44  2  0  0  0
 35 45  1  0  0  0
 35 68  1  0  0  0
 36 56  1  0  0  0
 36115  1  0  0  0
 37 39  1  0  0  0
 37 47  1  0  0  0
 37 66  1  0  0  0
 37116  1  0  0  0
 38 43  2  0  0  0
 38 46  1  0  0  0
 38 47  1  0  0  0
 39 64  1  0  0  0
 39 67  2  0  0  0
 40 52  1  0  0  0
 40 53  2  0  0  0
 40 58  1  0  0  0
 41117  1  0  0  0
 41118  1  0  0  0
 41119  1  0  0  0
 41 48  1  0  0  0
 42 43  1  0  0  0
 42 66  1  0  0  0
 42120  1  0  0  0
 42121  1  0  0  0
 43 44  1  0  0  0
 44122  1  0  0  0
 45 46  2  0  0  0
 45123  1  0  0  0
 46124  1  0  0  0
 47125  1  0  0  0
 47126  1  0  0  0
 48 56  1  0  0  0
 48 65  1  0  0  0
 48127  1  0  0  0
 49 50  1  0  0  0
 49 53  1  0  0  0
 49 64  1  0  0  0
 49128  1  0  0  0
 50 51  1  0  0  0
 50129  1  0  0  0
 50130  1  0  0  0
 51 52  1  0  0  0
 51131  1  0  0  0
 51132  1  0  0  0
 52133  1  0  0  0
 52134  1  0  0  0
 53 54  1  0  0  0
 54 55  2  0  0  0
 54135  1  0  0  0
 55 57  1  0  0  0
 55136  1  0  0  0
 56 69  2  0  0  0
 57 58  2  0  0  0
 57137  1  0  0  0
 58138  1  0  0  0
 59 60  1  0  0  0
 59 61  1  0  0  0
 59 62  1  0  0  0
 60139  1  0  0  0
 60140  1  0  0  0
 60141  1  0  0  0
 61142  1  0  0  0
 61143  1  0  0  0
 61144  1  0  0  0
 62145  1  0  0  0
 62146  1  0  0  0
 62147  1  0  0  0
 63 65  1  0  0  0
 63148  1  0  0  0
 63149  1  0  0  0
 63150  1  0  0  0
 64151  1  0  0  0
 65152  1  0  0  0
 68 90  1  0  0  0
 71 73  2  0  0  0
 71 75  1  0  0  0
 71153  1  0  0  0
 72 73  1  0  0  0
 72 76  2  0  0  0
 72154  1  0  0  0
 73 84  1  0  0  0
 74 75  2  0  0  0
 74 76  1  0  0  0
 74 85  1  0  0  0
 75 86  1  0  0  0
 76 93  1  0  0  0
 77 80  1  0  0  0
 77 85  1  0  0  0
 77155  1  0  0  0
 77156  1  0  0  0
 78 82  1  0  0  0
 78 84  1  0  0  0
 78157  1  0  0  0
 78158  1  0  0  0
 79 83  1  0  0  0
 79 84  1  0  0  0
 79159  1  0  0  0
 79160  1  0  0  0
 80 91  1  0  0  0
 80161  1  0  0  0
 80162  1  0  0  0
 81 85  1  0  0  0
 81 91  1  0  0  0
 81163  1  0  0  0
 81164  1  0  0  0
 82 92  1  0  0  0
 82165  1  0  0  0
 82166  1  0  0  0
 83 92  1  0  0  0
 83167  1  0  0  0
 83168  1  0  0  0
 84169  1  0  0  0
 85170  1  0  0  0
 86171  1  0  0  0
 86172  1  0  0  0
 86173  1  0  0  0
 87 89  1  0  0  0
 87174  1  0  0  0
 87175  1  0  0  0
 87176  1  0  0  0
 88 90  1  0  0  0
 88177  1  0  0  0
 88178  1  0  0  0
 88 92  1  0  0  0
 89 93  1  0  0  0
 89179  1  0  0  0
 89180  1  0  0  0
 90181  1  0  0  0
 90182  1  0  0  0
 92183  1  0  0  0
M  CHG  1  92   1
M  ISO  4   1 100  68 101  90 101  91 100
M  END
> <chiral flag>
0

> <version>
0

> <s_m_source_file>
/data/baiqing/PycharmProjects/Reinvent-master-3.2/result/LINK_invent/BTK/process_docking_weight1_custom_sum_contain_oxygen_bond_distance_aromatic_linkinvent_7_9_3/rearranged_h_0150.sdf

> <i_m_source_file_index>
77

> <r_mmod_Potential_Energy-OPLS-2005>
145.12028503418

> <r_mmod_Stretch_Energy-OPLS-2005>
38.468578338623

> <r_mmod_Bend_Energy-OPLS-2005>
153.934921264648

> <r_mmod_Torsional_Energy-OPLS-2005>
385.829467773438

> <r_mmod_Improper_Torsional_Energy-OPLS-2005>
18.4408283233643

> <r_mmod_Van_der_Waal_Energy-OPLS-2005>
172.493118286133

> <r_mmod_Electrostatic_Energy-OPLS-2005>
-225.880859375

> <r_mmod_Solvation_Energy-OPLS-2005>
-408.603576660156

> <b_mmod_Minimization_Converged-OPLS-2005>
0

> <r_mmod_RMS_Derivative-OPLS-2005>
1.70761442184448

$$$$
77
                    3D
 Structure written by MMmdl.
173182  0  0  1  0            999 V2000
  -30.6800  -14.4705   20.5927 C   0  0  0  0  0  0
  -30.4328  -12.3120   19.4170 C   0  0  0  0  0  0
  -29.4982  -12.5151   18.2053 C   0  0  0  0  0  0
  -28.0176  -12.3725   18.6154 C   0  0  0  0  0  0
  -27.6649  -13.2003   19.8804 C   0  0  2  0  0  0
  -28.7052  -12.9570   20.9974 C   0  0  0  0  0  0
  -25.2594  -13.8144   20.5670 C   0  0  0  0  0  0
  -24.1834  -13.0438   20.9175 C   0  0  0  0  0  0
  -24.6376  -11.6903   20.8732 C   0  0  0  0  0  0
  -23.9039  -10.4298   21.0410 C   0  0  0  0  0  0
  -24.3607   -9.4216   21.9185 C   0  0  0  0  0  0
  -23.6301   -8.2242   22.0746 C   0  0  0  0  0  0
  -22.4279   -8.0275   21.3539 C   0  0  0  0  0  0
  -21.9905   -9.0241   20.4640 C   0  0  0  0  0  0
  -22.7218  -10.2134   20.3055 C   0  0  0  0  0  0
  -21.6849   -6.0739   22.5285 C   0  0  0  0  0  0
  -21.4007   -6.5640   23.8221 C   0  0  0  0  0  0
  -21.3660   -5.6793   24.9184 C   0  0  0  0  0  0
  -21.6047   -4.3054   24.7224 C   0  0  0  0  0  0
  -21.8821   -3.8146   23.4344 C   0  0  0  0  0  0
  -21.9190   -4.6965   22.3403 C   0  0  0  0  0  0
  -22.7862  -13.5246   21.1854 C   0  0  0  0  0  0
  -22.1661   -4.2154   21.0980 F   0  0  0  0  0  0
  -21.5637   -3.4535   25.7736 F   0  0  0  0  0  0
  -30.0385  -13.2784   20.4545 N   0  0  0  0  0  0
  -26.3029  -12.9299   20.3375 N   0  0  0  0  0  0
  -25.9301  -11.6465   20.5757 N   0  0  0  0  0  0
  -22.0497  -12.8244   22.0410 N   0  0  0  0  0  0
  -25.4334  -15.1861   20.4075 N   0  0  0  0  0  0
  -31.7843  -14.7075   20.0955 O   0  0  0  0  0  0
  -21.6637   -6.8877   21.4245 O   0  0  0  0  0  0
  -22.3550  -14.5563   20.6713 O   0  0  0  0  0  0
  -24.6139  -31.8680   23.2104 C   0  0  0  0  0  0
  -25.9036  -32.4824   23.8400 C   0  0  1  0  0  0
  -27.2375  -27.4373   20.1004 C   0  0  0  0  0  0
  -25.5899  -33.8621   24.2331 N   0  0  0  0  0  0
  -23.4030  -30.4905   21.5497 C   0  0  2  0  0  0
  -24.8534  -28.9520   20.1206 C   0  0  0  0  0  0
  -22.7406  -29.4658   22.4985 C   0  0  0  0  0  0
  -18.0271  -28.1375   22.8491 C   0  0  0  0  0  0
  -24.1486  -36.7318   23.2638 C   0  0  0  0  0  0
  -25.9314  -30.8312   21.3669 C   0  0  0  0  0  0
  -26.0111  -29.4615   20.7245 C   0  0  0  0  0  0
  -27.2079  -28.7070   20.7227 C   0  0  0  0  0  0
  -26.0699  -26.9427   19.4883 C   0  0  0  0  0  0
  -24.8756  -27.6883   19.5040 C   0  0  0  0  0  0
  -23.6148  -29.8196   20.1659 C   0  0  0  0  0  0
  -25.4105  -36.3113   24.0341 C   0  0  1  0  0  0
  -20.5863  -28.3662   23.1317 C   0  0  2  0  0  0
  -20.6761  -26.9398   22.5418 C   0  0  0  0  0  0
  -19.5744  -26.6383   21.5211 C   0  0  0  0  0  0
  -18.1921  -26.7921   22.1619 C   0  0  0  0  0  0
  -19.1520  -28.8833   23.2903 C   0  0  0  0  0  0
  -18.9451  -30.1440   23.8910 C   0  0  0  0  0  0
  -17.6455  -30.6582   24.0564 C   0  0  0  0  0  0
  -25.9032  -34.9479   23.5132 C   0  0  0  0  0  0
  -16.5345  -29.9084   23.6326 C   0  0  0  0  0  0
  -16.7261  -28.6502   23.0346 C   0  0  0  0  0  0
  -26.4474  -31.6596   25.0719 C   0  0  0  0  0  0
  -25.3753  -31.3706   26.1480 C   0  0  0  0  0  0
  -27.0294  -30.3035   24.6087 C   0  0  0  0  0  0
  -27.6058  -32.4306   25.7477 C   0  0  0  0  0  0
  -27.5583  -37.1809   24.8464 C   0  0  0  0  0  0
  -21.4134  -29.3030   22.3723 N   0  0  0  0  0  0
  -26.4292  -37.3795   23.9413 N   0  0  0  0  0  0
  -24.6674  -31.0779   22.1011 N   0  0  0  0  0  0
  -23.4176  -28.8207   23.3036 O   0  0  0  0  0  0
  -28.3776  -26.6717   20.0280 O   0  0  0  0  0  0
  -26.5590  -34.8931   22.4690 O   0  0  0  0  0  0
  -23.5331  -32.1432   23.7496 O   0  0  0  0  0  0
  -28.5174  -21.4715   22.3106 C   0  0  0  0  0  0
  -30.4807  -21.9480   20.9568 C   0  0  0  0  0  0
  -29.1218  -20.2614   22.7032 C   0  0  0  0  0  0
  -30.3903  -19.8782   22.2635 C   0  0  0  0  0  0
  -31.0717  -20.7125   21.3350 C   0  0  0  0  0  0
  -29.2198  -22.3575   21.4661 C   0  0  0  0  0  0
  -28.5504  -19.2994   23.7003 C   0  0  0  0  0  0
  -29.7094  -18.3341   24.0051 C   0  0  0  0  0  0
  -30.9095  -18.6512   23.0472 C   0  0  1  0  0  0
  -32.4359  -20.3662   20.7668 C   0  0  0  0  0  0
  -32.0497  -20.3529   24.6844 C   0  0  0  0  0  0
  -32.7238  -17.9200   24.8044 C   0  0  0  0  0  0
  -31.2125  -17.3629   22.2067 C   0  0  0  0  0  0
  -30.1560  -16.8898   21.1825 C   0  0  0  0  0  0
  -28.7832  -26.0537   21.2516 C   0  0  0  0  0  0
  -29.5130  -24.7059   21.0042 C   0  0  0  0  0  0
  -32.1858  -19.0376   23.8830 C   0  0  0  0  0  0
  -29.9493  -15.4300   21.1901 N   0  0  0  0  0  0
  -28.6393  -23.5838   21.1904 O   0  0  0  0  0  0
  -31.4745  -12.4337   19.1151 H   0  0  0  0  0  0
  -30.3502  -11.2943   19.8011 H   0  0  0  0  0  0
  -29.7385  -11.7973   17.4198 H   0  0  0  0  0  0
  -29.6641  -13.5037   17.7755 H   0  0  0  0  0  0
  -27.8267  -11.3150   18.7998 H   0  0  0  0  0  0
  -27.3685  -12.6569   17.7861 H   0  0  0  0  0  0
  -27.7146  -14.2523   19.5979 H   0  0  0  0  0  0
  -28.6842  -11.9126   21.3124 H   0  0  0  0  0  0
  -28.4591  -13.5285   21.8934 H   0  0  0  0  0  0
  -25.2763   -9.5699   22.4742 H   0  0  0  0  0  0
  -24.0023   -7.4630   22.7457 H   0  0  0  0  0  0
  -21.0837   -8.8753   19.8942 H   0  0  0  0  0  0
  -22.3680  -10.9666   19.6153 H   0  0  0  0  0  0
  -21.1993   -7.6147   23.9729 H   0  0  0  0  0  0
  -21.1482   -6.0518   25.9093 H   0  0  0  0  0  0
  -22.0596   -2.7604   23.2841 H   0  0  0  0  0  0
  -22.4112  -11.9907   22.4800 H   0  0  0  0  0  0
  -21.1104  -13.1258   22.2603 H   0  0  0  0  0  0
  -24.6696  -15.8450   20.5166 H   0  0  0  0  0  0
  -26.2900  -15.6219   20.0903 H   0  0  0  0  0  0
  -26.7106  -32.5546   23.1169 H   0  0  0  0  0  0
  -25.0069  -33.9787   25.0490 H   0  0  0  0  0  0
  -22.6919  -31.3071   21.4083 H   0  0  0  0  0  0
  -23.3746  -35.9653   23.3301 H   0  0  0  0  0  0
  -24.3581  -36.8928   22.2053 H   0  0  0  0  0  0
  -23.7242  -37.6527   23.6646 H   0  0  0  0  0  0
  -26.0408  -31.5911   20.5920 H   0  0  0  0  0  0
  -26.8209  -30.8912   21.9823 H   0  0  0  0  0  0
  -28.1039  -29.0986   21.1839 H   0  0  0  0  0  0
  -26.0870  -25.9769   19.0021 H   0  0  0  0  0  0
  -23.9867  -27.2903   19.0337 H   0  0  0  0  0  0
  -23.7245  -30.5925   19.4043 H   0  0  0  0  0  0
  -22.7395  -29.2385   19.8695 H   0  0  0  0  0  0
  -25.1279  -36.1981   25.0833 H   0  0  0  0  0  0
  -20.9956  -28.3226   24.1439 H   0  0  0  0  0  0
  -20.5662  -26.2270   23.3604 H   0  0  0  0  0  0
  -21.6634  -26.7439   22.1215 H   0  0  0  0  0  0
  -19.6908  -25.6297   21.1231 H   0  0  0  0  0  0
  -19.6689  -27.3201   20.6748 H   0  0  0  0  0  0
  -17.4195  -26.6674   21.4015 H   0  0  0  0  0  0
  -18.0319  -26.0055   22.9008 H   0  0  0  0  0  0
  -19.7932  -30.7247   24.2286 H   0  0  0  0  0  0
  -17.5014  -31.6264   24.5162 H   0  0  0  0  0  0
  -15.5346  -30.2992   23.7641 H   0  0  0  0  0  0
  -15.8660  -28.0826   22.7049 H   0  0  0  0  0  0
  -24.5916  -30.7059   25.7828 H   0  0  0  0  0  0
  -24.8962  -32.2865   26.4947 H   0  0  0  0  0  0
  -25.8121  -30.8866   27.0225 H   0  0  0  0  0  0
  -26.2824  -29.6797   24.1163 H   0  0  0  0  0  0
  -27.4086  -29.7269   25.4535 H   0  0  0  0  0  0
  -27.8655  -30.4346   23.9214 H   0  0  0  0  0  0
  -27.2689  -33.3602   26.2076 H   0  0  0  0  0  0
  -28.3862  -32.6865   25.0298 H   0  0  0  0  0  0
  -28.0733  -31.8412   26.5376 H   0  0  0  0  0  0
  -28.2606  -38.0101   24.7506 H   0  0  0  0  0  0
  -28.1070  -36.2632   24.6288 H   0  0  0  0  0  0
  -27.2303  -37.1464   25.8869 H   0  0  0  0  0  0
  -20.9292  -29.8756   21.6950 H   0  0  0  0  0  0
  -26.0184  -38.2875   24.1410 H   0  0  0  0  0  0
  -27.5517  -21.7504   22.7088 H   0  0  0  0  0  0
  -31.0195  -22.5962   20.2800 H   0  0  0  0  0  0
  -27.6998  -18.7745   23.2634 H   0  0  0  0  0  0
  -28.2127  -19.8198   24.5975 H   0  0  0  0  0  0
  -29.3695  -17.3008   23.9247 H   0  0  0  0  0  0
  -29.9852  -18.4600   25.0505 H   0  0  0  0  0  0
  -32.6035  -20.8848   19.8225 H   0  0  0  0  0  0
  -32.5283  -19.3027   20.5610 H   0  0  0  0  0  0
  -33.2277  -20.6689   21.4511 H   0  0  0  0  0  0
  -31.8133  -21.2045   24.0461 H   0  0  0  0  0  0
  -32.9818  -20.5993   25.1926 H   0  0  0  0  0  0
  -31.2736  -20.2896   25.4466 H   0  0  0  0  0  0
  -33.0842  -17.0622   24.2374 H   0  0  0  0  0  0
  -31.9774  -17.5619   25.5120 H   0  0  0  0  0  0
  -33.5738  -18.2750   25.3870 H   0  0  0  0  0  0
  -31.3826  -16.5441   22.9052 H   0  0  0  0  0  0
  -32.1626  -17.4689   21.6862 H   0  0  0  0  0  0
  -30.4298  -17.2279   20.1813 H   0  0  0  0  0  0
  -29.1905  -17.3483   21.3973 H   0  0  0  0  0  0
  -29.4675  -26.7451   21.7451 H   0  0  0  0  0  0
  -27.9453  -25.9070   21.9361 H   0  0  0  0  0  0
  -30.3325  -24.6328   21.7218 H   0  0  0  0  0  0
  -29.9612  -24.6864   20.0101 H   0  0  0  0  0  0
  -32.9876  -19.2191   23.1689 H   0  0  0  0  0  0
  -29.0652  -15.1144   21.5623 H   0  0  0  0  0  0
  1 25  1  0  0  0
  1 30  2  0  0  0
  1 88  1  0  0  0
  2  3  1  0  0  0
  2 25  1  0  0  0
  2 90  1  0  0  0
  2 91  1  0  0  0
  3  4  1  0  0  0
  3 92  1  0  0  0
  3 93  1  0  0  0
  4  5  1  0  0  0
  4 94  1  0  0  0
  4 95  1  0  0  0
  5  6  1  0  0  0
  5 26  1  0  0  0
  5 96  1  0  0  0
  6 25  1  0  0  0
  6 97  1  0  0  0
  6 98  1  0  0  0
  7  8  2  0  0  0
  7 26  1  0  0  0
  7 29  1  0  0  0
  8  9  1  0  0  0
  8 22  1  0  0  0
  9 10  1  0  0  0
  9 27  2  0  0  0
 10 11  2  0  0  0
 10 15  1  0  0  0
 11 12  1  0  0  0
 11 99  1  0  0  0
 12 13  2  0  0  0
 12100  1  0  0  0
 13 14  1  0  0  0
 13 31  1  0  0  0
 14 15  2  0  0  0
 14101  1  0  0  0
 15102  1  0  0  0
 16 17  2  0  0  0
 16 21  1  0  0  0
 16 31  1  0  0  0
 17 18  1  0  0  0
 17103  1  0  0  0
 18 19  2  0  0  0
 18104  1  0  0  0
 19 20  1  0  0  0
 19 24  1  0  0  0
 20 21  2  0  0  0
 20105  1  0  0  0
 21 23  1  0  0  0
 22 28  1  0  0  0
 22 32  2  0  0  0
 26 27  1  0  0  0
 28106  1  0  0  0
 28107  1  0  0  0
 29108  1  0  0  0
 29109  1  0  0  0
 33 34  1  0  0  0
 33 66  1  0  0  0
 33 70  2  0  0  0
 34 36  1  0  0  0
 34 59  1  0  0  0
 34110  1  0  0  0
 35 44  2  0  0  0
 35 45  1  0  0  0
 35 68  1  0  0  0
 36 56  1  0  0  0
 36111  1  0  0  0
 37 39  1  0  0  0
 37 47  1  0  0  0
 37 66  1  0  0  0
 37112  1  0  0  0
 38 43  2  0  0  0
 38 46  1  0  0  0
 38 47  1  0  0  0
 39 64  1  0  0  0
 39 67  2  0  0  0
 40 52  1  0  0  0
 40 53  2  0  0  0
 40 58  1  0  0  0
 41113  1  0  0  0
 41114  1  0  0  0
 41115  1  0  0  0
 41 48  1  0  0  0
 42 43  1  0  0  0
 42 66  1  0  0  0
 42116  1  0  0  0
 42117  1  0  0  0
 43 44  1  0  0  0
 44118  1  0  0  0
 45 46  2  0  0  0
 45119  1  0  0  0
 46120  1  0  0  0
 47121  1  0  0  0
 47122  1  0  0  0
 48 56  1  0  0  0
 48 65  1  0  0  0
 48123  1  0  0  0
 49 50  1  0  0  0
 49 53  1  0  0  0
 49 64  1  0  0  0
 49124  1  0  0  0
 50 51  1  0  0  0
 50125  1  0  0  0
 50126  1  0  0  0
 51 52  1  0  0  0
 51127  1  0  0  0
 51128  1  0  0  0
 52129  1  0  0  0
 52130  1  0  0  0
 53 54  1  0  0  0
 54 55  2  0  0  0
 54131  1  0  0  0
 55 57  1  0  0  0
 55132  1  0  0  0
 56 69  2  0  0  0
 57 58  2  0  0  0
 57133  1  0  0  0
 58134  1  0  0  0
 59 60  1  0  0  0
 59 61  1  0  0  0
 59 62  1  0  0  0
 60135  1  0  0  0
 60136  1  0  0  0
 60137  1  0  0  0
 61138  1  0  0  0
 61139  1  0  0  0
 61140  1  0  0  0
 62141  1  0  0  0
 62142  1  0  0  0
 62143  1  0  0  0
 63 65  1  0  0  0
 63144  1  0  0  0
 63145  1  0  0  0
 63146  1  0  0  0
 64147  1  0  0  0
 65148  1  0  0  0
 68 85  1  0  0  0
 71 73  2  0  0  0
 71 76  1  0  0  0
 71149  1  0  0  0
 72 75  1  0  0  0
 72 76  2  0  0  0
 72150  1  0  0  0
 73 74  1  0  0  0
 73 77  1  0  0  0
 74 75  2  0  0  0
 74 79  1  0  0  0
 75 80  1  0  0  0
 76 89  1  0  0  0
 77 78  1  0  0  0
 77151  1  0  0  0
 77152  1  0  0  0
 78 79  1  0  0  0
 78153  1  0  0  0
 78154  1  0  0  0
 79 83  1  0  0  0
 79 87  1  0  0  0
 80155  1  0  0  0
 80156  1  0  0  0
 80157  1  0  0  0
 81158  1  0  0  0
 81159  1  0  0  0
 81160  1  0  0  0
 81 87  1  0  0  0
 82 87  1  0  0  0
 82161  1  0  0  0
 82162  1  0  0  0
 82163  1  0  0  0
 83 84  1  0  0  0
 83164  1  0  0  0
 83165  1  0  0  0
 84 88  1  0  0  0
 84166  1  0  0  0
 84167  1  0  0  0
 85 86  1  0  0  0
 85168  1  0  0  0
 85169  1  0  0  0
 86 89  1  0  0  0
 86170  1  0  0  0
 86171  1  0  0  0
 87172  1  0  0  0
 88173  1  0  0  0
M  ISO  4   1 100  68 101  85 101  88 100
M  END
> <chiral flag>
0

> <version>
0

> <s_m_source_file>
/data/baiqing/PycharmProjects/Reinvent-master-3.2/result/LINK_invent/BTK/process_docking_weight1_custom_sum_contain_oxygen_bond_distance_aromatic_linkinvent_7_9_3/rearranged_h_0150.sdf

> <i_m_source_file_index>
78

> <r_mmod_Potential_Energy-OPLS-2005>
45.6744918823242

> <r_mmod_Stretch_Energy-OPLS-2005>
45.1419982910156

> <r_mmod_Bend_Energy-OPLS-2005>
147.766998291016

> <r_mmod_Torsional_Energy-OPLS-2005>
282.553985595703

> <r_mmod_Improper_Torsional_Energy-OPLS-2005>
4.72057151794434

> <r_mmod_Van_der_Waal_Energy-OPLS-2005>
149.540023803711

> <r_mmod_Electrostatic_Energy-OPLS-2005>
-389.881561279297

> <r_mmod_Solvation_Energy-OPLS-2005>
-205.358016967773

> <b_mmod_Minimization_Converged-OPLS-2005>
0

> <r_mmod_RMS_Derivative-OPLS-2005>
1.06599640846252

$$$$
78
                    3D
 Structure written by MMmdl.
175185  0  0  1  0            999 V2000
  -30.8068  -14.3420   20.5797 C   0  0  0  0  0  0
  -30.4138  -12.2609   19.3742 C   0  0  0  0  0  0
  -29.4699  -12.4942   18.1791 C   0  0  0  0  0  0
  -27.9974  -12.3592   18.6120 C   0  0  0  0  0  0
  -27.6603  -13.1958   19.8761 C   0  0  2  0  0  0
  -28.7171  -12.9436   20.9750 C   0  0  0  0  0  0
  -25.2509  -13.8055   20.5649 C   0  0  0  0  0  0
  -24.1798  -13.0365   20.9221 C   0  0  0  0  0  0
  -24.6377  -11.6844   20.8797 C   0  0  0  0  0  0
  -23.9052  -10.4249   21.0450 C   0  0  0  0  0  0
  -24.3597   -9.4149   21.9213 C   0  0  0  0  0  0
  -23.6259   -8.2194   22.0769 C   0  0  0  0  0  0
  -22.4239   -8.0259   21.3548 C   0  0  0  0  0  0
  -21.9892   -9.0241   20.4657 C   0  0  0  0  0  0
  -22.7234  -10.2113   20.3084 C   0  0  0  0  0  0
  -21.6827   -6.0719   22.5279 C   0  0  0  0  0  0
  -21.3994   -6.5626   23.8211 C   0  0  0  0  0  0
  -21.3656   -5.6791   24.9175 C   0  0  0  0  0  0
  -21.6051   -4.3052   24.7246 C   0  0  0  0  0  0
  -21.8805   -3.8136   23.4362 C   0  0  0  0  0  0
  -21.9178   -4.6947   22.3411 C   0  0  0  0  0  0
  -22.7820  -13.5186   21.1876 C   0  0  0  0  0  0
  -22.1652   -4.2125   21.0992 F   0  0  0  0  0  0
  -21.5640   -3.4543   25.7762 F   0  0  0  0  0  0
  -30.0429  -13.2366   20.4053 N   0  0  0  0  0  0
  -26.3013  -12.9273   20.3435 N   0  0  0  0  0  0
  -25.9313  -11.6432   20.5865 N   0  0  0  0  0  0
  -22.0451  -12.8216   22.0447 N   0  0  0  0  0  0
  -25.4057  -15.1754   20.3871 N   0  0  0  0  0  0
  -32.0147  -14.3500   20.3280 O   0  0  0  0  0  0
  -21.6600   -6.8854   21.4240 O   0  0  0  0  0  0
  -22.3526  -14.5504   20.6732 O   0  0  0  0  0  0
  -24.6096  -31.8820   23.2275 C   0  0  0  0  0  0
  -25.9040  -32.4900   23.8506 C   0  0  1  0  0  0
  -27.2213  -27.5368   20.0311 C   0  0  0  0  0  0
  -25.5945  -33.8701   24.2418 N   0  0  0  0  0  0
  -23.3864  -30.5211   21.5710 C   0  0  2  0  0  0
  -24.8183  -29.0200   20.1250 C   0  0  0  0  0  0
  -22.7363  -29.4779   22.5064 C   0  0  0  0  0  0
  -18.0275  -28.1370   22.8525 C   0  0  0  0  0  0
  -24.1496  -36.7343   23.2640 C   0  0  0  0  0  0
  -25.9143  -30.8791   21.3650 C   0  0  0  0  0  0
  -25.9874  -29.5267   20.7033 C   0  0  0  0  0  0
  -27.1924  -28.7950   20.6562 C   0  0  0  0  0  0
  -25.9959  -27.0204   19.5094 C   0  0  0  0  0  0
  -24.8111  -27.7558   19.5370 C   0  0  0  0  0  0
  -23.5827  -29.8785   20.1785 C   0  0  0  0  0  0
  -25.4108  -36.3145   24.0334 C   0  0  1  0  0  0
  -20.5860  -28.3678   23.1340 C   0  0  2  0  0  0
  -20.6783  -26.9422   22.5419 C   0  0  0  0  0  0
  -19.5751  -26.6374   21.5245 C   0  0  0  0  0  0
  -18.1930  -26.7927   22.1636 C   0  0  0  0  0  0
  -19.1519  -28.8836   23.2947 C   0  0  0  0  0  0
  -18.9443  -30.1444   23.8935 C   0  0  0  0  0  0
  -17.6445  -30.6597   24.0569 C   0  0  0  0  0  0
  -25.9029  -34.9517   23.5150 C   0  0  0  0  0  0
  -16.5343  -29.9100   23.6319 C   0  0  0  0  0  0
  -16.7264  -28.6506   23.0352 C   0  0  0  0  0  0
  -26.4493  -31.6637   25.0782 C   0  0  0  0  0  0
  -25.3811  -31.3733   26.1568 C   0  0  0  0  0  0
  -27.0278  -30.3079   24.6102 C   0  0  0  0  0  0
  -27.6108  -32.4335   25.7515 C   0  0  0  0  0  0
  -27.5576  -37.1838   24.8469 C   0  0  0  0  0  0
  -21.4109  -29.3073   22.3771 N   0  0  0  0  0  0
  -26.4310  -37.3814   23.9386 N   0  0  0  0  0  0
  -24.6569  -31.1011   22.1141 N   0  0  0  0  0  0
  -23.4201  -28.8272   23.3016 O   0  0  0  0  0  0
  -28.4383  -26.8772   19.9448 O   0  0  0  0  0  0
  -26.5554  -34.8941   22.4682 O   0  0  0  0  0  0
  -23.5307  -32.1554   23.7698 O   0  0  0  0  0  0
  -26.9938  -18.8560   18.8025 C   0  0  0  0  0  0
  -26.6768  -21.1937   18.2503 C   0  0  0  0  0  0
  -28.1920  -19.1817   19.4767 C   0  0  0  0  0  0
  -26.2269  -19.8653   18.1932 C   0  0  0  0  0  0
  -28.6500  -20.5136   19.5429 C   0  0  0  0  0  0
  -27.8708  -21.5086   18.9336 C   0  0  0  0  0  0
  -28.3493  -17.0925   20.9630 C   0  0  0  0  0  0
  -29.7630  -17.3910   18.8999 C   0  0  0  0  0  0
  -29.5448  -24.8682   18.8125 C   0  0  0  0  0  0
  -27.7917  -24.7029   20.6135 C   0  0  0  0  0  0
  -29.4171  -16.1452   21.5321 C   0  0  0  0  0  0
  -30.7915  -16.4650   19.5051 C   0  0  0  0  0  0
  -29.0047  -23.5520   18.1975 C   0  0  0  0  0  0
  -27.1855  -23.4756   19.9885 C   0  0  0  0  0  0
  -29.0524  -18.0888   20.0444 C   0  0  0  0  0  0
  -28.3410  -25.5568   19.4582 C   0  0  0  0  0  0
  -24.9115  -19.5434   17.5174 C   0  0  0  0  0  0
  -29.9469  -20.8675   20.2856 C   0  0  0  0  0  0
  -28.2069  -22.8244   19.1874 N   0  0  0  0  0  0
  -30.1507  -15.5056   20.4281 N   0  0  0  0  0  0
  -31.4495  -12.3577   19.0406 H   0  0  0  0  0  0
  -30.3209  -11.2449   19.7602 H   0  0  0  0  0  0
  -29.6936  -11.7866   17.3795 H   0  0  0  0  0  0
  -29.6358  -13.4904   17.7637 H   0  0  0  0  0  0
  -27.8110  -11.3031   18.8113 H   0  0  0  0  0  0
  -27.3337  -12.6339   17.7918 H   0  0  0  0  0  0
  -27.7115  -14.2471   19.5936 H   0  0  0  0  0  0
  -28.6870  -11.8961   21.2795 H   0  0  0  0  0  0
  -28.4993  -13.4903   21.8864 H   0  0  0  0  0  0
  -25.2737   -9.5601   22.4793 H   0  0  0  0  0  0
  -23.9944   -7.4572   22.7483 H   0  0  0  0  0  0
  -21.0821   -8.8783   19.8960 H   0  0  0  0  0  0
  -22.3702  -10.9674   19.6206 H   0  0  0  0  0  0
  -21.1967   -7.6131   23.9709 H   0  0  0  0  0  0
  -21.1506   -6.0525   25.9080 H   0  0  0  0  0  0
  -22.0587   -2.7600   23.2883 H   0  0  0  0  0  0
  -22.4049  -11.9874   22.4855 H   0  0  0  0  0  0
  -21.1094  -13.1293   22.2677 H   0  0  0  0  0  0
  -24.6235  -15.8142   20.4675 H   0  0  0  0  0  0
  -26.2447  -15.6104   20.0322 H   0  0  0  0  0  0
  -26.7113  -32.5653   23.1278 H   0  0  0  0  0  0
  -25.0180  -33.9903   25.0617 H   0  0  0  0  0  0
  -22.6731  -31.3396   21.4513 H   0  0  0  0  0  0
  -23.3752  -35.9687   23.3340 H   0  0  0  0  0  0
  -24.3589  -36.8944   22.2056 H   0  0  0  0  0  0
  -23.7282  -37.6567   23.6640 H   0  0  0  0  0  0
  -26.0215  -31.6544   20.6033 H   0  0  0  0  0  0
  -26.8044  -30.9236   21.9793 H   0  0  0  0  0  0
  -28.1009  -29.1971   21.0810 H   0  0  0  0  0  0
  -25.8735  -26.0479   19.0631 H   0  0  0  0  0  0
  -23.9027  -27.3450   19.1191 H   0  0  0  0  0  0
  -23.6875  -30.6673   19.4337 H   0  0  0  0  0  0
  -22.7038  -29.3089   19.8770 H   0  0  0  0  0  0
  -25.1292  -36.2036   25.0827 H   0  0  0  0  0  0
  -20.9971  -28.3245   24.1456 H   0  0  0  0  0  0
  -20.5760  -26.2289   23.3610 H   0  0  0  0  0  0
  -21.6647  -26.7516   22.1172 H   0  0  0  0  0  0
  -19.6926  -25.6297   21.1263 H   0  0  0  0  0  0
  -19.6673  -27.3203   20.6798 H   0  0  0  0  0  0
  -17.4208  -26.6735   21.4018 H   0  0  0  0  0  0
  -18.0280  -26.0051   22.8995 H   0  0  0  0  0  0
  -19.7911  -30.7254   24.2329 H   0  0  0  0  0  0
  -17.5000  -31.6279   24.5166 H   0  0  0  0  0  0
  -15.5345  -30.3009   23.7611 H   0  0  0  0  0  0
  -15.8664  -28.0826   22.7043 H   0  0  0  0  0  0
  -24.5929  -30.7133   25.7924 H   0  0  0  0  0  0
  -24.9051  -32.2893   26.5086 H   0  0  0  0  0  0
  -25.8193  -30.8851   27.0283 H   0  0  0  0  0  0
  -26.2761  -29.6863   24.1216 H   0  0  0  0  0  0
  -27.4140  -29.7306   25.4514 H   0  0  0  0  0  0
  -27.8573  -30.4389   23.9153 H   0  0  0  0  0  0
  -27.2760  -33.3653   26.2087 H   0  0  0  0  0  0
  -28.3893  -32.6884   25.0314 H   0  0  0  0  0  0
  -28.0796  -31.8473   26.5433 H   0  0  0  0  0  0
  -28.2648  -38.0080   24.7406 H   0  0  0  0  0  0
  -28.1022  -36.2605   24.6409 H   0  0  0  0  0  0
  -27.2290  -37.1637   25.8882 H   0  0  0  0  0  0
  -20.9257  -29.8821   21.7021 H   0  0  0  0  0  0
  -26.0218  -38.2914   24.1328 H   0  0  0  0  0  0
  -26.6677  -17.8268   18.7482 H   0  0  0  0  0  0
  -26.0737  -21.9749   17.8135 H   0  0  0  0  0  0
  -27.8349  -17.6111   21.7731 H   0  0  0  0  0  0
  -27.6025  -16.5332   20.4099 H   0  0  0  0  0  0
  -29.0584  -16.8430   18.2732 H   0  0  0  0  0  0
  -30.2656  -18.1192   18.2609 H   0  0  0  0  0  0
  -29.9806  -25.4894   18.0279 H   0  0  0  0  0  0
  -30.3275  -24.6734   19.5445 H   0  0  0  0  0  0
  -28.5898  -24.4424   21.3111 H   0  0  0  0  0  0
  -27.0285  -25.2048   21.2098 H   0  0  0  0  0  0
  -28.9492  -15.4447   22.2149 H   0  0  0  0  0  0
  -30.1217  -16.7032   22.1521 H   0  0  0  0  0  0
  -31.5573  -17.0367   20.0346 H   0  0  0  0  0  0
  -31.2953  -15.9688   18.6727 H   0  0  0  0  0  0
  -29.8276  -22.9348   17.8367 H   0  0  0  0  0  0
  -28.3810  -23.7646   17.3264 H   0  0  0  0  0  0
  -26.3290  -23.7426   19.3678 H   0  0  0  0  0  0
  -26.8219  -22.8089   20.7729 H   0  0  0  0  0  0
  -29.8230  -18.5085   20.6837 H   0  0  0  0  0  0
  -27.6995  -25.5760   18.5835 H   0  0  0  0  0  0
  -24.8406  -18.4888   17.2527 H   0  0  0  0  0  0
  -24.7924  -20.1321   16.6072 H   0  0  0  0  0  0
  -24.0838  -19.7838   18.1856 H   0  0  0  0  0  0
  -30.7870  -20.3367   19.8370 H   0  0  0  0  0  0
  -29.8671  -20.5754   21.3328 H   0  0  0  0  0  0
  -30.2182  -21.9212   20.2826 H   0  0  0  0  0  0
  1 25  1  0  0  0
  1 30  2  0  0  0
  1 90  1  0  0  0
  2  3  1  0  0  0
  2 25  1  0  0  0
  2 91  1  0  0  0
  2 92  1  0  0  0
  3  4  1  0  0  0
  3 93  1  0  0  0
  3 94  1  0  0  0
  4  5  1  0  0  0
  4 95  1  0  0  0
  4 96  1  0  0  0
  5  6  1  0  0  0
  5 26  1  0  0  0
  5 97  1  0  0  0
  6 25  1  0  0  0
  6 98  1  0  0  0
  6 99  1  0  0  0
  7  8  2  0  0  0
  7 26  1  0  0  0
  7 29  1  0  0  0
  8  9  1  0  0  0
  8 22  1  0  0  0
  9 10  1  0  0  0
  9 27  2  0  0  0
 10 11  2  0  0  0
 10 15  1  0  0  0
 11 12  1  0  0  0
 11100  1  0  0  0
 12 13  2  0  0  0
 12101  1  0  0  0
 13 14  1  0  0  0
 13 31  1  0  0  0
 14 15  2  0  0  0
 14102  1  0  0  0
 15103  1  0  0  0
 16 17  2  0  0  0
 16 21  1  0  0  0
 16 31  1  0  0  0
 17 18  1  0  0  0
 17104  1  0  0  0
 18 19  2  0  0  0
 18105  1  0  0  0
 19 20  1  0  0  0
 19 24  1  0  0  0
 20 21  2  0  0  0
 20106  1  0  0  0
 21 23  1  0  0  0
 22 28  1  0  0  0
 22 32  2  0  0  0
 26 27  1  0  0  0
 28107  1  0  0  0
 28108  1  0  0  0
 29109  1  0  0  0
 29110  1  0  0  0
 33 34  1  0  0  0
 33 66  1  0  0  0
 33 70  2  0  0  0
 34 36  1  0  0  0
 34 59  1  0  0  0
 34111  1  0  0  0
 35 44  2  0  0  0
 35 45  1  0  0  0
 35 68  1  0  0  0
 36 56  1  0  0  0
 36112  1  0  0  0
 37 39  1  0  0  0
 37 47  1  0  0  0
 37 66  1  0  0  0
 37113  1  0  0  0
 38 43  2  0  0  0
 38 46  1  0  0  0
 38 47  1  0  0  0
 39 64  1  0  0  0
 39 67  2  0  0  0
 40 52  1  0  0  0
 40 53  2  0  0  0
 40 58  1  0  0  0
 41114  1  0  0  0
 41115  1  0  0  0
 41116  1  0  0  0
 41 48  1  0  0  0
 42 43  1  0  0  0
 42 66  1  0  0  0
 42117  1  0  0  0
 42118  1  0  0  0
 43 44  1  0  0  0
 44119  1  0  0  0
 45 46  2  0  0  0
 45120  1  0  0  0
 46121  1  0  0  0
 47122  1  0  0  0
 47123  1  0  0  0
 48 56  1  0  0  0
 48 65  1  0  0  0
 48124  1  0  0  0
 49 50  1  0  0  0
 49 53  1  0  0  0
 49 64  1  0  0  0
 49125  1  0  0  0
 50 51  1  0  0  0
 50126  1  0  0  0
 50127  1  0  0  0
 51 52  1  0  0  0
 51128  1  0  0  0
 51129  1  0  0  0
 52130  1  0  0  0
 52131  1  0  0  0
 53 54  1  0  0  0
 54 55  2  0  0  0
 54132  1  0  0  0
 55 57  1  0  0  0
 55133  1  0  0  0
 56 69  2  0  0  0
 57 58  2  0  0  0
 57134  1  0  0  0
 58135  1  0  0  0
 59 60  1  0  0  0
 59 61  1  0  0  0
 59 62  1  0  0  0
 60136  1  0  0  0
 60137  1  0  0  0
 60138  1  0  0  0
 61139  1  0  0  0
 61140  1  0  0  0
 61141  1  0  0  0
 62142  1  0  0  0
 62143  1  0  0  0
 62144  1  0  0  0
 63 65  1  0  0  0
 63145  1  0  0  0
 63146  1  0  0  0
 63147  1  0  0  0
 64148  1  0  0  0
 65149  1  0  0  0
 68 86  1  0  0  0
 71 73  2  0  0  0
 71 74  1  0  0  0
 71150  1  0  0  0
 72 74  2  0  0  0
 72 76  1  0  0  0
 72151  1  0  0  0
 73 75  1  0  0  0
 73 85  1  0  0  0
 74 87  1  0  0  0
 75 76  2  0  0  0
 75 88  1  0  0  0
 76 89  1  0  0  0
 77 81  1  0  0  0
 77 85  1  0  0  0
 77152  1  0  0  0
 77153  1  0  0  0
 78 82  1  0  0  0
 78 85  1  0  0  0
 78154  1  0  0  0
 78155  1  0  0  0
 79 83  1  0  0  0
 79 86  1  0  0  0
 79156  1  0  0  0
 79157  1  0  0  0
 80 84  1  0  0  0
 80 86  1  0  0  0
 80158  1  0  0  0
 80159  1  0  0  0
 81 90  1  0  0  0
 81160  1  0  0  0
 81161  1  0  0  0
 82 90  1  0  0  0
 82162  1  0  0  0
 82163  1  0  0  0
 83 89  1  0  0  0
 83164  1  0  0  0
 83165  1  0  0  0
 84 89  1  0  0  0
 84166  1  0  0  0
 84167  1  0  0  0
 85168  1  0  0  0
 86169  1  0  0  0
 87170  1  0  0  0
 87171  1  0  0  0
 87172  1  0  0  0
 88173  1  0  0  0
 88174  1  0  0  0
 88175  1  0  0  0
M  ISO  4   1 100  68 101  86 101  90 100
M  END
> <chiral flag>
0

> <version>
0

> <s_m_source_file>
/data/baiqing/PycharmProjects/Reinvent-master-3.2/result/LINK_invent/BTK/process_docking_weight1_custom_sum_contain_oxygen_bond_distance_aromatic_linkinvent_7_9_3/rearranged_h_0150.sdf

> <i_m_source_file_index>
79

> <r_mmod_Potential_Energy-OPLS-2005>
312.016723632812

> <r_mmod_Stretch_Energy-OPLS-2005>
35.3574562072754

> <r_mmod_Bend_Energy-OPLS-2005>
144.843292236328

> <r_mmod_Torsional_Energy-OPLS-2005>
358.805023193359

> <r_mmod_Improper_Torsional_Energy-OPLS-2005>
27.0181560516357

> <r_mmod_Van_der_Waal_Energy-OPLS-2005>
225.694641113281

> <r_mmod_Electrostatic_Energy-OPLS-2005>
-329.987548828125

> <r_mmod_Solvation_Energy-OPLS-2005>
-187.721435546875

> <b_mmod_Minimization_Converged-OPLS-2005>
0

> <r_mmod_RMS_Derivative-OPLS-2005>
3.54810619354248

$$$$
79
                    3D
 Structure written by MMmdl.
171181  0  0  1  0            999 V2000
  -30.6928  -14.4943   20.5207 C   0  0  0  0  0  0
  -30.4217  -12.3071   19.4253 C   0  0  0  0  0  0
  -29.4958  -12.4993   18.2057 C   0  0  0  0  0  0
  -28.0157  -12.3623   18.6177 C   0  0  0  0  0  0
  -27.6580  -13.2077   19.8703 C   0  0  2  0  0  0
  -28.7047  -13.0013   20.9875 C   0  0  0  0  0  0
  -25.2575  -13.8169   20.5679 C   0  0  0  0  0  0
  -24.1837  -13.0440   20.9182 C   0  0  0  0  0  0
  -24.6401  -11.6913   20.8749 C   0  0  0  0  0  0
  -23.9070  -10.4299   21.0407 C   0  0  0  0  0  0
  -24.3628   -9.4215   21.9183 C   0  0  0  0  0  0
  -23.6308   -8.2248   22.0760 C   0  0  0  0  0  0
  -22.4287   -8.0289   21.3544 C   0  0  0  0  0  0
  -21.9922   -9.0263   20.4645 C   0  0  0  0  0  0
  -22.7251  -10.2144   20.3054 C   0  0  0  0  0  0
  -21.6852   -6.0752   22.5285 C   0  0  0  0  0  0
  -21.4013   -6.5647   23.8222 C   0  0  0  0  0  0
  -21.3658   -5.6795   24.9177 C   0  0  0  0  0  0
  -21.6041   -4.3057   24.7221 C   0  0  0  0  0  0
  -21.8821   -3.8162   23.4343 C   0  0  0  0  0  0
  -21.9192   -4.6983   22.3404 C   0  0  0  0  0  0
  -22.7853  -13.5221   21.1846 C   0  0  0  0  0  0
  -22.1649   -4.2173   21.0977 F   0  0  0  0  0  0
  -21.5639   -3.4537   25.7730 F   0  0  0  0  0  0
  -30.0255  -13.3113   20.4241 N   0  0  0  0  0  0
  -26.3007  -12.9336   20.3362 N   0  0  0  0  0  0
  -25.9325  -11.6495   20.5782 N   0  0  0  0  0  0
  -22.0501  -12.8208   22.0403 N   0  0  0  0  0  0
  -25.4273  -15.1898   20.4098 N   0  0  0  0  0  0
  -31.8722  -14.6088   20.1690 O   0  0  0  0  0  0
  -21.6640   -6.8897   21.4245 O   0  0  0  0  0  0
  -22.3522  -14.5519   20.6695 O   0  0  0  0  0  0
  -24.6147  -31.8694   23.2113 C   0  0  0  0  0  0
  -25.9038  -32.4824   23.8405 C   0  0  1  0  0  0
  -27.2254  -27.4415   20.1042 C   0  0  0  0  0  0
  -25.5898  -33.8624   24.2342 N   0  0  0  0  0  0
  -23.3999  -30.4931   21.5531 C   0  0  2  0  0  0
  -24.8438  -28.9603   20.1148 C   0  0  0  0  0  0
  -22.7398  -29.4665   22.5016 C   0  0  0  0  0  0
  -18.0272  -28.1379   22.8504 C   0  0  0  0  0  0
  -24.1485  -36.7315   23.2639 C   0  0  0  0  0  0
  -25.9267  -30.8395   21.3598 C   0  0  0  0  0  0
  -26.0043  -29.4745   20.7074 C   0  0  0  0  0  0
  -27.2001  -28.7232   20.6949 C   0  0  0  0  0  0
  -26.0523  -26.9412   19.4980 C   0  0  0  0  0  0
  -24.8628  -27.6933   19.5055 C   0  0  0  0  0  0
  -23.6057  -29.8261   20.1668 C   0  0  0  0  0  0
  -25.4108  -36.3116   24.0343 C   0  0  1  0  0  0
  -20.5859  -28.3666   23.1333 C   0  0  2  0  0  0
  -20.6769  -26.9407   22.5424 C   0  0  0  0  0  0
  -19.5747  -26.6398   21.5219 C   0  0  0  0  0  0
  -18.1919  -26.7938   22.1617 C   0  0  0  0  0  0
  -19.1518  -28.8838   23.2914 C   0  0  0  0  0  0
  -18.9449  -30.1449   23.8924 C   0  0  0  0  0  0
  -17.6449  -30.6592   24.0568 C   0  0  0  0  0  0
  -25.9036  -34.9477   23.5141 C   0  0  0  0  0  0
  -16.5344  -29.9094   23.6325 C   0  0  0  0  0  0
  -16.7262  -28.6506   23.0358 C   0  0  0  0  0  0
  -26.4483  -31.6586   25.0711 C   0  0  0  0  0  0
  -25.3756  -31.3636   26.1450 C   0  0  0  0  0  0
  -27.0319  -30.3042   24.6048 C   0  0  0  0  0  0
  -27.6084  -32.4284   25.7461 C   0  0  0  0  0  0
  -27.5587  -37.1801   24.8463 C   0  0  0  0  0  0
  -21.4128  -29.3027   22.3735 N   0  0  0  0  0  0
  -26.4294  -37.3800   23.9421 N   0  0  0  0  0  0
  -24.6654  -31.0812   22.0996 N   0  0  0  0  0  0
  -23.4172  -28.8226   23.3066 O   0  0  0  0  0  0
  -28.3866  -26.7034   20.1195 O   0  0  0  0  0  0
  -26.5594  -34.8922   22.4701 O   0  0  0  0  0  0
  -23.5344  -32.1441   23.7521 O   0  0  0  0  0  0
  -29.3328  -20.8287   20.5139 C   0  0  0  0  0  0
  -30.4382  -22.8137   21.3522 C   0  0  0  0  0  0
  -30.2548  -19.9905   21.1937 C   0  0  0  0  0  0
  -31.2383  -20.5919   22.0376 C   0  0  0  0  0  0
  -31.3414  -22.0104   22.0728 C   0  0  0  0  0  0
  -29.4149  -22.2370   20.5747 C   0  0  0  0  0  0
  -31.7277  -18.7729   23.9154 C   0  0  0  0  0  0
  -32.4543  -20.0194   24.3269 C   0  0  0  0  0  0
  -29.1795  -17.7118   21.8075 C   0  0  0  0  0  0
  -29.9785  -18.0086   19.5240 C   0  0  0  0  0  0
  -29.5148  -16.2044   21.8499 C   0  0  0  0  0  0
  -29.8999  -16.4669   19.3338 C   0  0  0  0  0  0
  -30.2205  -18.4585   20.9736 C   0  0  0  0  0  0
  -32.1975  -19.7526   22.8547 C   0  0  0  0  0  0
  -32.4347  -22.7234   22.8573 C   0  0  0  0  0  0
  -28.2672  -25.3516   20.5950 C   0  0  0  0  0  0
  -28.7727  -24.3471   19.5379 C   0  0  0  0  0  0
  -29.9051  -15.6067   20.5508 N   0  0  0  0  0  0
  -28.4918  -22.9755   19.8575 O   0  0  0  0  0  0
  -31.4676  -12.3998   19.1264 H   0  0  0  0  0  0
  -30.3134  -11.3025   19.8377 H   0  0  0  0  0  0
  -29.7375  -11.7706   17.4304 H   0  0  0  0  0  0
  -29.6638  -13.4831   17.7636 H   0  0  0  0  0  0
  -27.8284  -11.3078   18.8209 H   0  0  0  0  0  0
  -27.3650  -12.6313   17.7843 H   0  0  0  0  0  0
  -27.6890  -14.2527   19.5658 H   0  0  0  0  0  0
  -28.6870  -11.9681   21.3352 H   0  0  0  0  0  0
  -28.4777  -13.6027   21.8643 H   0  0  0  0  0  0
  -25.2790   -9.5680   22.4742 H   0  0  0  0  0  0
  -24.0030   -7.4637   22.7478 H   0  0  0  0  0  0
  -21.0863   -8.8786   19.8942 H   0  0  0  0  0  0
  -22.3730  -10.9684   19.6159 H   0  0  0  0  0  0
  -21.1993   -7.6153   23.9725 H   0  0  0  0  0  0
  -21.1474   -6.0523   25.9077 H   0  0  0  0  0  0
  -22.0599   -2.7624   23.2834 H   0  0  0  0  0  0
  -22.4131  -11.9870   22.4782 H   0  0  0  0  0  0
  -21.1118  -13.1230   22.2617 H   0  0  0  0  0  0
  -24.6630  -15.8468   20.5286 H   0  0  0  0  0  0
  -26.2921  -15.6338   20.1260 H   0  0  0  0  0  0
  -26.7111  -32.5541   23.1178 H   0  0  0  0  0  0
  -25.0076  -33.9805   25.0502 H   0  0  0  0  0  0
  -22.6872  -31.3083   21.4161 H   0  0  0  0  0  0
  -23.3755  -35.9637   23.3294 H   0  0  0  0  0  0
  -24.3583  -36.8938   22.2053 H   0  0  0  0  0  0
  -23.7215  -37.6509   23.6658 H   0  0  0  0  0  0
  -26.0327  -31.6042   20.5892 H   0  0  0  0  0  0
  -26.8179  -30.8970   21.9723 H   0  0  0  0  0  0
  -28.0968  -29.1132   21.1572 H   0  0  0  0  0  0
  -26.0536  -25.9712   19.0213 H   0  0  0  0  0  0
  -23.9714  -27.2922   19.0431 H   0  0  0  0  0  0
  -23.7091  -30.6018   19.4074 H   0  0  0  0  0  0
  -22.7292  -29.2459   19.8739 H   0  0  0  0  0  0
  -25.1279  -36.1993   25.0836 H   0  0  0  0  0  0
  -20.9947  -28.3242   24.1453 H   0  0  0  0  0  0
  -20.5714  -26.2268   23.3607 H   0  0  0  0  0  0
  -21.6643  -26.7479   22.1200 H   0  0  0  0  0  0
  -19.6920  -25.6312   21.1240 H   0  0  0  0  0  0
  -19.6709  -27.3224   20.6762 H   0  0  0  0  0  0
  -17.4207  -26.6718   21.3991 H   0  0  0  0  0  0
  -18.0293  -26.0067   22.8992 H   0  0  0  0  0  0
  -19.7918  -30.7260   24.2311 H   0  0  0  0  0  0
  -17.4997  -31.6279   24.5159 H   0  0  0  0  0  0
  -15.5339  -30.3003   23.7637 H   0  0  0  0  0  0
  -15.8658  -28.0828   22.7071 H   0  0  0  0  0  0
  -24.5986  -30.6925   25.7762 H   0  0  0  0  0  0
  -24.8877  -32.2757   26.4897 H   0  0  0  0  0  0
  -25.8132  -30.8815   27.0201 H   0  0  0  0  0  0
  -26.2837  -29.6772   24.1177 H   0  0  0  0  0  0
  -27.4195  -29.7297   25.4474 H   0  0  0  0  0  0
  -27.8625  -30.4391   23.9114 H   0  0  0  0  0  0
  -27.2747  -33.3585   26.2076 H   0  0  0  0  0  0
  -28.3868  -32.6834   25.0253 H   0  0  0  0  0  0
  -28.0776  -31.8366   26.5332 H   0  0  0  0  0  0
  -28.2592  -38.0110   24.7548 H   0  0  0  0  0  0
  -28.1097  -36.2648   24.6255 H   0  0  0  0  0  0
  -27.2308  -37.1406   25.8862 H   0  0  0  0  0  0
  -20.9290  -29.8699   21.6913 H   0  0  0  0  0  0
  -26.0189  -38.2880   24.1433 H   0  0  0  0  0  0
  -28.5564  -20.3937   19.9017 H   0  0  0  0  0  0
  -30.5500  -23.8854   21.4165 H   0  0  0  0  0  0
  -30.6787  -18.7442   24.1962 H   0  0  0  0  0  0
  -32.2687  -17.8361   24.0289 H   0  0  0  0  0  0
  -33.4709  -19.9048   24.6934 H   0  0  0  0  0  0
  -31.8518  -20.7643   24.8432 H   0  0  0  0  0  0
  -29.1322  -18.1000   22.8227 H   0  0  0  0  0  0
  -28.1838  -17.8690   21.3895 H   0  0  0  0  0  0
  -29.0396  -18.4217   19.1568 H   0  0  0  0  0  0
  -30.7481  -18.4231   18.8705 H   0  0  0  0  0  0
  -28.6540  -15.6833   22.2618 H   0  0  0  0  0  0
  -30.3312  -16.0565   22.5615 H   0  0  0  0  0  0
  -30.6975  -16.1828   18.6431 H   0  0  0  0  0  0
  -28.9864  -16.2299   18.7870 H   0  0  0  0  0  0
  -31.2050  -18.0740   21.2357 H   0  0  0  0  0  0
  -33.0522  -19.4608   22.2477 H   0  0  0  0  0  0
  -32.6181  -23.7222   22.4611 H   0  0  0  0  0  0
  -33.3822  -22.1840   22.8116 H   0  0  0  0  0  0
  -32.1445  -22.8403   23.9015 H   0  0  0  0  0  0
  -28.8525  -25.2741   21.5103 H   0  0  0  0  0  0
  -27.2478  -25.0928   20.8853 H   0  0  0  0  0  0
  -29.8288  -24.5078   19.3156 H   0  0  0  0  0  0
  -28.2472  -24.5512   18.6049 H   0  0  0  0  0  0
  1 25  1  0  0  0
  1 30  2  0  0  0
  1 88  1  0  0  0
  2  3  1  0  0  0
  2 25  1  0  0  0
  2 90  1  0  0  0
  2 91  1  0  0  0
  3  4  1  0  0  0
  3 92  1  0  0  0
  3 93  1  0  0  0
  4  5  1  0  0  0
  4 94  1  0  0  0
  4 95  1  0  0  0
  5  6  1  0  0  0
  5 26  1  0  0  0
  5 96  1  0  0  0
  6 25  1  0  0  0
  6 97  1  0  0  0
  6 98  1  0  0  0
  7  8  2  0  0  0
  7 26  1  0  0  0
  7 29  1  0  0  0
  8  9  1  0  0  0
  8 22  1  0  0  0
  9 10  1  0  0  0
  9 27  2  0  0  0
 10 11  2  0  0  0
 10 15  1  0  0  0
 11 12  1  0  0  0
 11 99  1  0  0  0
 12 13  2  0  0  0
 12100  1  0  0  0
 13 14  1  0  0  0
 13 31  1  0  0  0
 14 15  2  0  0  0
 14101  1  0  0  0
 15102  1  0  0  0
 16 17  2  0  0  0
 16 21  1  0  0  0
 16 31  1  0  0  0
 17 18  1  0  0  0
 17103  1  0  0  0
 18 19  2  0  0  0
 18104  1  0  0  0
 19 20  1  0  0  0
 19 24  1  0  0  0
 20 21  2  0  0  0
 20105  1  0  0  0
 21 23  1  0  0  0
 22 28  1  0  0  0
 22 32  2  0  0  0
 26 27  1  0  0  0
 28106  1  0  0  0
 28107  1  0  0  0
 29108  1  0  0  0
 29109  1  0  0  0
 33 34  1  0  0  0
 33 66  1  0  0  0
 33 70  2  0  0  0
 34 36  1  0  0  0
 34 59  1  0  0  0
 34110  1  0  0  0
 35 44  2  0  0  0
 35 45  1  0  0  0
 35 68  1  0  0  0
 36 56  1  0  0  0
 36111  1  0  0  0
 37 39  1  0  0  0
 37 47  1  0  0  0
 37 66  1  0  0  0
 37112  1  0  0  0
 38 43  2  0  0  0
 38 46  1  0  0  0
 38 47  1  0  0  0
 39 64  1  0  0  0
 39 67  2  0  0  0
 40 52  1  0  0  0
 40 53  2  0  0  0
 40 58  1  0  0  0
 41113  1  0  0  0
 41114  1  0  0  0
 41115  1  0  0  0
 41 48  1  0  0  0
 42 43  1  0  0  0
 42 66  1  0  0  0
 42116  1  0  0  0
 42117  1  0  0  0
 43 44  1  0  0  0
 44118  1  0  0  0
 45 46  2  0  0  0
 45119  1  0  0  0
 46120  1  0  0  0
 47121  1  0  0  0
 47122  1  0  0  0
 48 56  1  0  0  0
 48 65  1  0  0  0
 48123  1  0  0  0
 49 50  1  0  0  0
 49 53  1  0  0  0
 49 64  1  0  0  0
 49124  1  0  0  0
 50 51  1  0  0  0
 50125  1  0  0  0
 50126  1  0  0  0
 51 52  1  0  0  0
 51127  1  0  0  0
 51128  1  0  0  0
 52129  1  0  0  0
 52130  1  0  0  0
 53 54  1  0  0  0
 54 55  2  0  0  0
 54131  1  0  0  0
 55 57  1  0  0  0
 55132  1  0  0  0
 56 69  2  0  0  0
 57 58  2  0  0  0
 57133  1  0  0  0
 58134  1  0  0  0
 59 60  1  0  0  0
 59 61  1  0  0  0
 59 62  1  0  0  0
 60135  1  0  0  0
 60136  1  0  0  0
 60137  1  0  0  0
 61138  1  0  0  0
 61139  1  0  0  0
 61140  1  0  0  0
 62141  1  0  0  0
 62142  1  0  0  0
 62143  1  0  0  0
 63 65  1  0  0  0
 63144  1  0  0  0
 63145  1  0  0  0
 63146  1  0  0  0
 64147  1  0  0  0
 65148  1  0  0  0
 68 86  1  0  0  0
 71 73  2  0  0  0
 71 76  1  0  0  0
 71149  1  0  0  0
 72 75  1  0  0  0
 72 76  2  0  0  0
 72150  1  0  0  0
 73 74  1  0  0  0
 73 83  1  0  0  0
 74 75  2  0  0  0
 74 84  1  0  0  0
 75 85  1  0  0  0
 76 89  1  0  0  0
 77 78  1  0  0  0
 77 84  1  0  0  0
 77151  1  0  0  0
 77152  1  0  0  0
 78 84  1  0  0  0
 78153  1  0  0  0
 78154  1  0  0  0
 79 81  1  0  0  0
 79 83  1  0  0  0
 79155  1  0  0  0
 79156  1  0  0  0
 80 82  1  0  0  0
 80 83  1  0  0  0
 80157  1  0  0  0
 80158  1  0  0  0
 81 88  1  0  0  0
 81159  1  0  0  0
 81160  1  0  0  0
 82 88  1  0  0  0
 82161  1  0  0  0
 82162  1  0  0  0
 83163  1  0  0  0
 84164  1  0  0  0
 85165  1  0  0  0
 85166  1  0  0  0
 85167  1  0  0  0
 86 87  1  0  0  0
 86168  1  0  0  0
 86169  1  0  0  0
 87 89  1  0  0  0
 87170  1  0  0  0
 87171  1  0  0  0
M  ISO  4   1 100  68 101  86 101  88 100
M  END
> <chiral flag>
0

> <version>
0

> <s_m_source_file>
/data/baiqing/PycharmProjects/Reinvent-master-3.2/result/LINK_invent/BTK/process_docking_weight1_custom_sum_contain_oxygen_bond_distance_aromatic_linkinvent_7_9_3/rearranged_h_0150.sdf

> <i_m_source_file_index>
80

> <r_mmod_Potential_Energy-OPLS-2005>
258.205535888672

> <r_mmod_Stretch_Energy-OPLS-2005>
45.5064430236816

> <r_mmod_Bend_Energy-OPLS-2005>
120.354476928711

> <r_mmod_Torsional_Energy-OPLS-2005>
385.653747558594

> <r_mmod_Improper_Torsional_Energy-OPLS-2005>
15.6283941268921

> <r_mmod_Van_der_Waal_Energy-OPLS-2005>
165.732940673828

> <r_mmod_Electrostatic_Energy-OPLS-2005>
-299.359039306641

> <r_mmod_Solvation_Energy-OPLS-2005>
-192.347229003906

> <b_mmod_Minimization_Converged-OPLS-2005>
0

> <r_mmod_RMS_Derivative-OPLS-2005>
2.02262330055237

$$$$
80
                    3D
 Structure written by MMmdl.
164173  0  0  1  0            999 V2000
  -30.7201  -14.5240   20.5944 C   0  0  0  0  0  0
  -30.3993  -12.3560   19.4488 C   0  0  0  0  0  0
  -29.4788  -12.5204   18.2246 C   0  0  0  0  0  0
  -28.0017  -12.3829   18.6315 C   0  0  0  0  0  0
  -27.6446  -13.2182   19.8914 C   0  0  2  0  0  0
  -28.6905  -12.9857   21.0079 C   0  0  0  0  0  0
  -25.2455  -13.8196   20.5769 C   0  0  0  0  0  0
  -24.1743  -13.0437   20.9231 C   0  0  0  0  0  0
  -24.6333  -11.6903   20.8752 C   0  0  0  0  0  0
  -23.9031  -10.4257   21.0388 C   0  0  0  0  0  0
  -24.3606   -9.4159   21.9158 C   0  0  0  0  0  0
  -23.6272   -8.2203   22.0720 C   0  0  0  0  0  0
  -22.4251   -8.0240   21.3507 C   0  0  0  0  0  0
  -21.9874   -9.0203   20.4601 C   0  0  0  0  0  0
  -22.7215  -10.2081   20.3025 C   0  0  0  0  0  0
  -21.6826   -6.0726   22.5276 C   0  0  0  0  0  0
  -21.4005   -6.5627   23.8218 C   0  0  0  0  0  0
  -21.3667   -5.6774   24.9179 C   0  0  0  0  0  0
  -21.6055   -4.3033   24.7221 C   0  0  0  0  0  0
  -21.8819   -3.8135   23.4335 C   0  0  0  0  0  0
  -21.9188   -4.6956   22.3402 C   0  0  0  0  0  0
  -22.7763  -13.5153   21.1848 C   0  0  0  0  0  0
  -22.1659   -4.2160   21.0974 F   0  0  0  0  0  0
  -21.5635   -3.4511   25.7727 F   0  0  0  0  0  0
  -29.9986  -13.3637   20.4611 N   0  0  0  0  0  0
  -26.2890  -12.9402   20.3451 N   0  0  0  0  0  0
  -25.9271  -11.6523   20.5812 N   0  0  0  0  0  0
  -22.0477  -12.8152   22.0432 N   0  0  0  0  0  0
  -25.4068  -15.1956   20.4290 N   0  0  0  0  0  0
  -31.8481  -14.5581   20.0863 O   0  0  0  0  0  0
  -21.6618   -6.8854   21.4217 O   0  0  0  0  0  0
  -22.3428  -14.5453   20.6661 O   0  0  0  0  0  0
  -24.6139  -31.8736   23.2143 C   0  0  0  0  0  0
  -25.9034  -32.4866   23.8454 C   0  0  1  0  0  0
  -27.1824  -27.4135   20.0920 C   0  0  0  0  0  0
  -25.5881  -33.8655   24.2386 N   0  0  0  0  0  0
  -23.3993  -30.5107   21.5523 C   0  0  2  0  0  0
  -24.8353  -28.9865   20.1139 C   0  0  0  0  0  0
  -22.7435  -29.4722   22.4920 C   0  0  0  0  0  0
  -18.0238  -28.1479   22.8641 C   0  0  0  0  0  0
  -24.1479  -36.7326   23.2642 C   0  0  0  0  0  0
  -25.9329  -30.8439   21.3651 C   0  0  0  0  0  0
  -26.0020  -29.4786   20.7073 C   0  0  0  0  0  0
  -27.1839  -28.6984   20.6944 C   0  0  0  0  0  0
  -25.9883  -26.9528   19.4871 C   0  0  0  0  0  0
  -24.8214  -27.7270   19.5040 C   0  0  0  0  0  0
  -23.6053  -29.8541   20.1658 C   0  0  0  0  0  0
  -25.4103  -36.3146   24.0350 C   0  0  1  0  0  0
  -20.5865  -28.3837   23.1360 C   0  0  2  0  0  0
  -20.6768  -26.9612   22.5425 C   0  0  0  0  0  0
  -19.5633  -26.6585   21.5343 C   0  0  0  0  0  0
  -18.1902  -26.7933   22.2013 C   0  0  0  0  0  0
  -19.1520  -28.8986   23.2931 C   0  0  0  0  0  0
  -18.9466  -30.1630   23.8801 C   0  0  0  0  0  0
  -17.6512  -30.6798   24.0519 C   0  0  0  0  0  0
  -25.9025  -34.9499   23.5153 C   0  0  0  0  0  0
  -16.5374  -29.9254   23.6403 C   0  0  0  0  0  0
  -16.7228  -28.6616   23.0517 C   0  0  0  0  0  0
  -26.4464  -31.6606   25.0740 C   0  0  0  0  0  0
  -25.3764  -31.3622   26.1506 C   0  0  0  0  0  0
  -27.0278  -30.3052   24.6077 C   0  0  0  0  0  0
  -27.6060  -32.4317   25.7461 C   0  0  0  0  0  0
  -27.5587  -37.1808   24.8468 C   0  0  0  0  0  0
  -21.4127  -29.3308   22.3884 N   0  0  0  0  0  0
  -26.4316  -37.3808   23.9393 N   0  0  0  0  0  0
  -24.6684  -31.0875   22.1035 N   0  0  0  0  0  0
  -23.4279  -28.8007   23.2717 O   0  0  0  0  0  0
  -28.3285  -26.6414   20.1338 O   0  0  0  0  0  0
  -26.5593  -34.8937   22.4714 O   0  0  0  0  0  0
  -23.5333  -32.1444   23.7549 O   0  0  0  0  0  0
  -26.2779  -21.0065   20.0504 C   0  0  0  0  0  0
  -26.3610  -22.4002   20.2307 C   0  0  0  0  0  0
  -27.2523  -20.1593   20.6069 C   0  0  0  0  0  0
  -28.4027  -22.0975   21.5201 C   0  0  0  0  0  0
  -27.4265  -22.9663   20.9589 C   0  0  0  0  0  0
  -28.3265  -20.6892   21.3603 C   0  0  0  0  0  0
  -30.9437  -18.1531   21.8501 C   0  0  0  0  0  0
  -28.6395  -17.4882   22.0605 C   0  0  0  0  0  0
  -31.3208  -16.7036   21.4604 C   0  0  0  0  0  0
  -28.8561  -16.1223   21.3673 C   0  0  0  0  0  0
  -29.5338  -18.5690   21.4530 C   0  0  0  0  0  0
  -28.2127  -25.2128   19.9474 C   0  0  0  0  0  0
  -27.4772  -24.4949   21.1212 C   0  0  2  0  0  0
  -30.2648  -15.6545   21.2590 N   0  0  0  0  0  0
  -27.9924  -24.8861   22.4536 N   0  3  0  0  0  0
  -29.2968  -19.8986   21.9538 O   0  0  0  0  0  0
  -31.4419  -12.4358   19.1329 H   0  0  0  0  0  0
  -30.3185  -11.3499   19.8608 H   0  0  0  0  0  0
  -29.7272  -11.7782   17.4639 H   0  0  0  0  0  0
  -29.6434  -13.5012   17.7733 H   0  0  0  0  0  0
  -27.8193  -11.3268   18.8286 H   0  0  0  0  0  0
  -27.3458  -12.6591   17.8034 H   0  0  0  0  0  0
  -27.6756  -14.2631   19.5912 H   0  0  0  0  0  0
  -28.6981  -11.9294   21.2713 H   0  0  0  0  0  0
  -28.4558  -13.4612   21.9565 H   0  0  0  0  0  0
  -25.2759   -9.5645   22.4728 H   0  0  0  0  0  0
  -23.9985   -7.4593   22.7430 H   0  0  0  0  0  0
  -21.0821   -8.8693   19.8912 H   0  0  0  0  0  0
  -22.3646  -10.9611   19.6130 H   0  0  0  0  0  0
  -21.1982   -7.6137   23.9727 H   0  0  0  0  0  0
  -21.1496   -6.0499   25.9085 H   0  0  0  0  0  0
  -22.0599   -2.7605   23.2818 H   0  0  0  0  0  0
  -22.4143  -11.9857   22.4878 H   0  0  0  0  0  0
  -21.1065  -13.1087   22.2601 H   0  0  0  0  0  0
  -24.6331  -15.8314   20.5829 H   0  0  0  0  0  0
  -26.2597  -15.6586   20.1560 H   0  0  0  0  0  0
  -26.7086  -32.5602   23.1225 H   0  0  0  0  0  0
  -24.9966  -33.9831   25.0495 H   0  0  0  0  0  0
  -22.6853  -31.3257   21.4118 H   0  0  0  0  0  0
  -23.3761  -35.9644   23.3343 H   0  0  0  0  0  0
  -24.3551  -36.8891   22.2044 H   0  0  0  0  0  0
  -23.7214  -37.6529   23.6633 H   0  0  0  0  0  0
  -26.0376  -31.6142   20.5992 H   0  0  0  0  0  0
  -26.8251  -30.9026   21.9768 H   0  0  0  0  0  0
  -28.0828  -29.0769   21.1619 H   0  0  0  0  0  0
  -25.8956  -25.9947   18.9953 H   0  0  0  0  0  0
  -23.9118  -27.3551   19.0563 H   0  0  0  0  0  0
  -23.7128  -30.6227   19.3966 H   0  0  0  0  0  0
  -22.7341  -29.2646   19.8741 H   0  0  0  0  0  0
  -25.1278  -36.2029   25.0848 H   0  0  0  0  0  0
  -20.9868  -28.3409   24.1528 H   0  0  0  0  0  0
  -20.5763  -26.2524   23.3659 H   0  0  0  0  0  0
  -21.6626  -26.7685   22.1161 H   0  0  0  0  0  0
  -19.6789  -25.6562   21.1216 H   0  0  0  0  0  0
  -19.6391  -27.3519   20.6958 H   0  0  0  0  0  0
  -17.3941  -26.6217   21.4717 H   0  0  0  0  0  0
  -18.0647  -26.0296   22.9745 H   0  0  0  0  0  0
  -19.7975  -30.7519   24.1968 H   0  0  0  0  0  0
  -17.5163  -31.6533   24.5038 H   0  0  0  0  0  0
  -15.5426  -30.3240   23.7809 H   0  0  0  0  0  0
  -15.8590  -28.0863   22.7457 H   0  0  0  0  0  0
  -24.5983  -30.6929   25.7818 H   0  0  0  0  0  0
  -24.8929  -32.2738   26.5022 H   0  0  0  0  0  0
  -25.8203  -30.8738   27.0202 H   0  0  0  0  0  0
  -26.2781  -29.6787   24.1233 H   0  0  0  0  0  0
  -27.4133  -29.7300   25.4502 H   0  0  0  0  0  0
  -27.8591  -30.4361   23.9147 H   0  0  0  0  0  0
  -27.2706  -33.3623   26.2053 H   0  0  0  0  0  0
  -28.3862  -32.6845   25.0265 H   0  0  0  0  0  0
  -28.0762  -31.8446   26.5361 H   0  0  0  0  0  0
  -28.2634  -38.0075   24.7516 H   0  0  0  0  0  0
  -28.1060  -36.2613   24.6332 H   0  0  0  0  0  0
  -27.2293  -37.1498   25.8865 H   0  0  0  0  0  0
  -20.9177  -29.9679   21.7801 H   0  0  0  0  0  0
  -26.0232  -38.2905   24.1368 H   0  0  0  0  0  0
  -25.4623  -20.5906   19.4760 H   0  0  0  0  0  0
  -25.5947  -23.0304   19.7949 H   0  0  0  0  0  0
  -27.1655  -19.0983   20.4383 H   0  0  0  0  0  0
  -29.2330  -22.5066   22.0767 H   0  0  0  0  0  0
  -31.6541  -18.8318   21.3763 H   0  0  0  0  0  0
  -31.0943  -18.2897   22.9207 H   0  0  0  0  0  0
  -28.8431  -17.3955   23.1305 H   0  0  0  0  0  0
  -27.5900  -17.7687   22.0068 H   0  0  0  0  0  0
  -32.0489  -16.3190   22.1747 H   0  0  0  0  0  0
  -31.8689  -16.8412   20.5275 H   0  0  0  0  0  0
  -28.4380  -16.1780   20.3636 H   0  0  0  0  0  0
  -28.2389  -15.4403   21.9362 H   0  0  0  0  0  0
  -29.4560  -18.5707   20.3650 H   0  0  0  0  0  0
  -27.7255  -24.9778   18.9970 H   0  0  0  0  0  0
  -29.2196  -24.8126   19.8423 H   0  0  0  0  0  0
  -26.4389  -24.8281   21.1190 H   0  0  0  0  0  0
  -28.9380  -24.5765   22.5909 H   0  0  0  0  0  0
  -27.4140  -24.4804   23.1726 H   0  0  0  0  0  0
  -27.9749  -25.8861   22.5647 H   0  0  0  0  0  0
  1 25  1  0  0  0
  1 30  2  0  0  0
  1 84  1  0  0  0
  2  3  1  0  0  0
  2 25  1  0  0  0
  2 87  1  0  0  0
  2 88  1  0  0  0
  3  4  1  0  0  0
  3 89  1  0  0  0
  3 90  1  0  0  0
  4  5  1  0  0  0
  4 91  1  0  0  0
  4 92  1  0  0  0
  5  6  1  0  0  0
  5 26  1  0  0  0
  5 93  1  0  0  0
  6 25  1  0  0  0
  6 94  1  0  0  0
  6 95  1  0  0  0
  7  8  2  0  0  0
  7 26  1  0  0  0
  7 29  1  0  0  0
  8  9  1  0  0  0
  8 22  1  0  0  0
  9 10  1  0  0  0
  9 27  2  0  0  0
 10 11  2  0  0  0
 10 15  1  0  0  0
 11 12  1  0  0  0
 11 96  1  0  0  0
 12 13  2  0  0  0
 12 97  1  0  0  0
 13 14  1  0  0  0
 13 31  1  0  0  0
 14 15  2  0  0  0
 14 98  1  0  0  0
 15 99  1  0  0  0
 16 17  2  0  0  0
 16 21  1  0  0  0
 16 31  1  0  0  0
 17 18  1  0  0  0
 17100  1  0  0  0
 18 19  2  0  0  0
 18101  1  0  0  0
 19 20  1  0  0  0
 19 24  1  0  0  0
 20 21  2  0  0  0
 20102  1  0  0  0
 21 23  1  0  0  0
 22 28  1  0  0  0
 22 32  2  0  0  0
 26 27  1  0  0  0
 28103  1  0  0  0
 28104  1  0  0  0
 29105  1  0  0  0
 29106  1  0  0  0
 33 34  1  0  0  0
 33 66  1  0  0  0
 33 70  2  0  0  0
 34 36  1  0  0  0
 34 59  1  0  0  0
 34107  1  0  0  0
 35 44  2  0  0  0
 35 45  1  0  0  0
 35 68  1  0  0  0
 36 56  1  0  0  0
 36108  1  0  0  0
 37 39  1  0  0  0
 37 47  1  0  0  0
 37 66  1  0  0  0
 37109  1  0  0  0
 38 43  2  0  0  0
 38 46  1  0  0  0
 38 47  1  0  0  0
 39 64  1  0  0  0
 39 67  2  0  0  0
 40 52  1  0  0  0
 40 53  2  0  0  0
 40 58  1  0  0  0
 41110  1  0  0  0
 41111  1  0  0  0
 41112  1  0  0  0
 41 48  1  0  0  0
 42 43  1  0  0  0
 42 66  1  0  0  0
 42113  1  0  0  0
 42114  1  0  0  0
 43 44  1  0  0  0
 44115  1  0  0  0
 45 46  2  0  0  0
 45116  1  0  0  0
 46117  1  0  0  0
 47118  1  0  0  0
 47119  1  0  0  0
 48 56  1  0  0  0
 48 65  1  0  0  0
 48120  1  0  0  0
 49 50  1  0  0  0
 49 53  1  0  0  0
 49 64  1  0  0  0
 49121  1  0  0  0
 50 51  1  0  0  0
 50122  1  0  0  0
 50123  1  0  0  0
 51 52  1  0  0  0
 51124  1  0  0  0
 51125  1  0  0  0
 52126  1  0  0  0
 52127  1  0  0  0
 53 54  1  0  0  0
 54 55  2  0  0  0
 54128  1  0  0  0
 55 57  1  0  0  0
 55129  1  0  0  0
 56 69  2  0  0  0
 57 58  2  0  0  0
 57130  1  0  0  0
 58131  1  0  0  0
 59 60  1  0  0  0
 59 61  1  0  0  0
 59 62  1  0  0  0
 60132  1  0  0  0
 60133  1  0  0  0
 60134  1  0  0  0
 61135  1  0  0  0
 61136  1  0  0  0
 61137  1  0  0  0
 62138  1  0  0  0
 62139  1  0  0  0
 62140  1  0  0  0
 63 65  1  0  0  0
 63141  1  0  0  0
 63142  1  0  0  0
 63143  1  0  0  0
 64144  1  0  0  0
 65145  1  0  0  0
 68 82  1  0  0  0
 71 72  2  0  0  0
 71 73  1  0  0  0
 71146  1  0  0  0
 72 75  1  0  0  0
 72147  1  0  0  0
 73 76  2  0  0  0
 73148  1  0  0  0
 74 75  2  0  0  0
 74 76  1  0  0  0
 74149  1  0  0  0
 75 83  1  0  0  0
 76 86  1  0  0  0
 77 79  1  0  0  0
 77 81  1  0  0  0
 77150  1  0  0  0
 77151  1  0  0  0
 78 80  1  0  0  0
 78 81  1  0  0  0
 78152  1  0  0  0
 78153  1  0  0  0
 79 84  1  0  0  0
 79154  1  0  0  0
 79155  1  0  0  0
 80 84  1  0  0  0
 80156  1  0  0  0
 80157  1  0  0  0
 81 86  1  0  0  0
 81158  1  0  0  0
 82 83  1  0  0  0
 82159  1  0  0  0
 82160  1  0  0  0
 83 85  1  0  0  0
 83161  1  0  0  0
 85162  1  0  0  0
 85163  1  0  0  0
 85164  1  0  0  0
M  CHG  1  85   1
M  ISO  4   1 100  68 101  82 101  84 100
M  END
> <chiral flag>
0

> <version>
0

> <s_m_source_file>
/data/baiqing/PycharmProjects/Reinvent-master-3.2/result/LINK_invent/BTK/process_docking_weight1_custom_sum_contain_oxygen_bond_distance_aromatic_linkinvent_7_9_3/rearranged_h_0150.sdf

> <i_m_source_file_index>
81

> <r_mmod_Potential_Energy-OPLS-2005>
-12.71448802948

> <r_mmod_Stretch_Energy-OPLS-2005>
53.8805122375488

> <r_mmod_Bend_Energy-OPLS-2005>
164.013885498047

> <r_mmod_Torsional_Energy-OPLS-2005>
295.744110107422

> <r_mmod_Improper_Torsional_Energy-OPLS-2005>
2.74774312973022

> <r_mmod_Van_der_Waal_Energy-OPLS-2005>
185.614410400391

> <r_mmod_Electrostatic_Energy-OPLS-2005>
-285.596954345703

> <r_mmod_Solvation_Energy-OPLS-2005>
-452.131866455078

> <b_mmod_Minimization_Converged-OPLS-2005>
0

> <r_mmod_RMS_Derivative-OPLS-2005>
7.7904372215271

$$$$
81
                    3D
 Structure written by MMmdl.
172181  0  0  1  0            999 V2000
  -30.6806  -14.4807   20.5289 C   0  0  0  0  0  0
  -30.4245  -12.2967   19.4254 C   0  0  0  0  0  0
  -29.4956  -12.4930   18.2082 C   0  0  0  0  0  0
  -28.0149  -12.3563   18.6194 C   0  0  0  0  0  0
  -27.6589  -13.1966   19.8753 C   0  0  2  0  0  0
  -28.7044  -12.9848   20.9951 C   0  0  0  0  0  0
  -25.2595  -13.8134   20.5690 C   0  0  0  0  0  0
  -24.1832  -13.0426   20.9176 C   0  0  0  0  0  0
  -24.6371  -11.6890   20.8739 C   0  0  0  0  0  0
  -23.9034  -10.4286   21.0413 C   0  0  0  0  0  0
  -24.3596   -9.4204   21.9188 C   0  0  0  0  0  0
  -23.6280   -8.2236   22.0751 C   0  0  0  0  0  0
  -22.4262   -8.0272   21.3545 C   0  0  0  0  0  0
  -21.9894   -9.0242   20.4646 C   0  0  0  0  0  0
  -22.7211  -10.2128   20.3057 C   0  0  0  0  0  0
  -21.6849   -6.0729   22.5281 C   0  0  0  0  0  0
  -21.4008   -6.5634   23.8213 C   0  0  0  0  0  0
  -21.3661   -5.6790   24.9178 C   0  0  0  0  0  0
  -21.6047   -4.3052   24.7230 C   0  0  0  0  0  0
  -21.8819   -3.8143   23.4350 C   0  0  0  0  0  0
  -21.9190   -4.6958   22.3405 C   0  0  0  0  0  0
  -22.7861  -13.5237   21.1846 C   0  0  0  0  0  0
  -22.1656   -4.2145   21.0983 F   0  0  0  0  0  0
  -21.5637   -3.4534   25.7742 F   0  0  0  0  0  0
  -30.0309  -13.2885   20.4360 N   0  0  0  0  0  0
  -26.3013  -12.9275   20.3389 N   0  0  0  0  0  0
  -25.9296  -11.6449   20.5785 N   0  0  0  0  0  0
  -22.0498  -12.8235   22.0407 N   0  0  0  0  0  0
  -25.4345  -15.1849   20.4107 N   0  0  0  0  0  0
  -31.8465  -14.6336   20.1483 O   0  0  0  0  0  0
  -21.6631   -6.8867   21.4239 O   0  0  0  0  0  0
  -22.3550  -14.5550   20.6701 O   0  0  0  0  0  0
  -24.6115  -31.8693   23.2120 C   0  0  0  0  0  0
  -25.9021  -32.4830   23.8412 C   0  0  1  0  0  0
  -27.2404  -27.4543   20.1044 C   0  0  0  0  0  0
  -25.5892  -33.8626   24.2348 N   0  0  0  0  0  0
  -23.4001  -30.4912   21.5506 C   0  0  2  0  0  0
  -24.8506  -28.9549   20.1205 C   0  0  0  0  0  0
  -22.7395  -29.4661   22.4996 C   0  0  0  0  0  0
  -18.0268  -28.1373   22.8494 C   0  0  0  0  0  0
  -24.1489  -36.7319   23.2640 C   0  0  0  0  0  0
  -25.9258  -30.8388   21.3650 C   0  0  0  0  0  0
  -26.0054  -29.4708   20.7230 C   0  0  0  0  0  0
  -27.2039  -28.7244   20.7215 C   0  0  0  0  0  0
  -26.0774  -26.9497   19.4912 C   0  0  0  0  0  0
  -24.8788  -27.6900   19.5051 C   0  0  0  0  0  0
  -23.6106  -29.8196   20.1664 C   0  0  0  0  0  0
  -25.4108  -36.3117   24.0344 C   0  0  1  0  0  0
  -20.5857  -28.3659   23.1324 C   0  0  2  0  0  0
  -20.6761  -26.9396   22.5420 C   0  0  0  0  0  0
  -19.5743  -26.6384   21.5212 C   0  0  0  0  0  0
  -18.1921  -26.7921   22.1620 C   0  0  0  0  0  0
  -19.1517  -28.8831   23.2910 C   0  0  0  0  0  0
  -18.9446  -30.1437   23.8921 C   0  0  0  0  0  0
  -17.6450  -30.6583   24.0564 C   0  0  0  0  0  0
  -25.9029  -34.9478   23.5143 C   0  0  0  0  0  0
  -16.5341  -29.9087   23.6322 C   0  0  0  0  0  0
  -16.7256  -28.6500   23.0349 C   0  0  0  0  0  0
  -26.4464  -31.6593   25.0722 C   0  0  0  0  0  0
  -25.3745  -31.3684   26.1479 C   0  0  0  0  0  0
  -27.0297  -30.3045   24.6071 C   0  0  0  0  0  0
  -27.6048  -32.4305   25.7480 C   0  0  0  0  0  0
  -27.5584  -37.1814   24.8464 C   0  0  0  0  0  0
  -21.4125  -29.3028   22.3733 N   0  0  0  0  0  0
  -26.4298  -37.3797   23.9406 N   0  0  0  0  0  0
  -24.6636  -31.0810   22.1014 N   0  0  0  0  0  0
  -23.4170  -28.8210   23.3041 O   0  0  0  0  0  0
  -28.3932  -26.7117   20.0324 O   0  0  0  0  0  0
  -26.5583  -34.8920   22.4699 O   0  0  0  0  0  0
  -23.5311  -32.1433   23.7526 O   0  0  0  0  0  0
  -30.3812  -20.5271   21.2981 C   0  0  0  0  0  0
  -30.3732  -21.9293   21.2405 C   0  0  0  0  0  0
  -28.2406  -20.4455   20.0867 C   0  0  0  0  0  0
  -28.2648  -21.8781   20.0024 C   0  0  0  0  0  0
  -29.3390  -19.7760   20.7165 C   0  0  0  0  0  0
  -29.3279  -22.6086   20.5936 C   0  0  0  0  0  0
  -30.1440  -17.8216   19.5629 C   0  0  0  0  0  0
  -29.7041  -17.6505   21.9549 C   0  0  0  0  0  0
  -29.6890  -16.3735   19.3445 C   0  0  0  0  0  0
  -29.3395  -16.1495   21.8050 C   0  0  0  0  0  0
  -27.1915  -22.6829   19.2746 C   0  0  0  0  0  0
  -27.0977  -19.3951   18.0115 C   0  0  0  0  0  0
  -25.6721  -20.0242   20.0513 C   0  0  0  0  0  0
  -28.9080  -26.2249   21.2735 C   0  0  0  0  0  0
  -28.6259  -24.7158   21.4258 C   0  0  0  0  0  0
  -27.0621  -19.6003   19.5385 C   0  0  0  0  0  0
  -29.4422  -18.3701   20.7119 N   0  0  0  0  0  0
  -29.8510  -15.5487   20.5569 N   0  0  0  0  0  0
  -29.4130  -23.9781   20.4911 O   0  0  0  0  0  0
  -31.4691  -12.3963   19.1249 H   0  0  0  0  0  0
  -30.3242  -11.2878   19.8288 H   0  0  0  0  0  0
  -29.7350  -11.7666   17.4305 H   0  0  0  0  0  0
  -29.6650  -13.4764   17.7673 H   0  0  0  0  0  0
  -27.8230  -11.3006   18.8149 H   0  0  0  0  0  0
  -27.3661  -12.6323   17.7870 H   0  0  0  0  0  0
  -27.6913  -14.2405   19.5703 H   0  0  0  0  0  0
  -28.6826  -11.9525   21.3480 H   0  0  0  0  0  0
  -28.4770  -13.5980   21.8666 H   0  0  0  0  0  0
  -25.2741   -9.5680   22.4763 H   0  0  0  0  0  0
  -23.9993   -7.4623   22.7462 H   0  0  0  0  0  0
  -21.0828   -8.8747   19.8949 H   0  0  0  0  0  0
  -22.3663  -10.9662   19.6165 H   0  0  0  0  0  0
  -21.1993   -7.6140   23.9711 H   0  0  0  0  0  0
  -21.1490   -6.0524   25.9080 H   0  0  0  0  0  0
  -22.0599   -2.7603   23.2853 H   0  0  0  0  0  0
  -22.4095  -11.9881   22.4783 H   0  0  0  0  0  0
  -21.1121  -13.1272   22.2618 H   0  0  0  0  0  0
  -24.6745  -15.8457   20.5287 H   0  0  0  0  0  0
  -26.3017  -15.6228   20.1274 H   0  0  0  0  0  0
  -26.7094  -32.5558   23.1184 H   0  0  0  0  0  0
  -25.0063  -33.9795   25.0507 H   0  0  0  0  0  0
  -22.6881  -31.3069   21.4101 H   0  0  0  0  0  0
  -23.3744  -35.9660   23.3311 H   0  0  0  0  0  0
  -24.3589  -36.8918   22.2053 H   0  0  0  0  0  0
  -23.7243  -37.6532   23.6638 H   0  0  0  0  0  0
  -26.0325  -31.6003   20.5916 H   0  0  0  0  0  0
  -26.8155  -30.8993   21.9794 H   0  0  0  0  0  0
  -28.0985  -29.1253   21.1771 H   0  0  0  0  0  0
  -26.1021  -25.9841   19.0059 H   0  0  0  0  0  0
  -23.9926  -27.2868   19.0342 H   0  0  0  0  0  0
  -23.7182  -30.5923   19.4043 H   0  0  0  0  0  0
  -22.7363  -29.2367   19.8715 H   0  0  0  0  0  0
  -25.1284  -36.1994   25.0838 H   0  0  0  0  0  0
  -20.9950  -28.3219   24.1444 H   0  0  0  0  0  0
  -20.5669  -26.2260   23.3603 H   0  0  0  0  0  0
  -21.6633  -26.7448   22.1210 H   0  0  0  0  0  0
  -19.6907  -25.6299   21.1233 H   0  0  0  0  0  0
  -19.6690  -27.3204   20.6754 H   0  0  0  0  0  0
  -17.4195  -26.6672   21.4018 H   0  0  0  0  0  0
  -18.0319  -26.0058   22.9011 H   0  0  0  0  0  0
  -19.7922  -30.7244   24.2304 H   0  0  0  0  0  0
  -17.5006  -31.6267   24.5159 H   0  0  0  0  0  0
  -15.5343  -30.3000   23.7632 H   0  0  0  0  0  0
  -15.8653  -28.0826   22.7057 H   0  0  0  0  0  0
  -24.5910  -30.7043   25.7812 H   0  0  0  0  0  0
  -24.8948  -32.2836   26.4959 H   0  0  0  0  0  0
  -25.8110  -30.8826   27.0214 H   0  0  0  0  0  0
  -26.2833  -29.6807   24.1138 H   0  0  0  0  0  0
  -27.4101  -29.7276   25.4509 H   0  0  0  0  0  0
  -27.8652  -30.4383   23.9195 H   0  0  0  0  0  0
  -27.2673  -33.3586   26.2106 H   0  0  0  0  0  0
  -28.3833  -32.6893   25.0291 H   0  0  0  0  0  0
  -28.0743  -31.8398   26.5356 H   0  0  0  0  0  0
  -28.2605  -38.0108   24.7510 H   0  0  0  0  0  0
  -28.1079  -36.2640   24.6294 H   0  0  0  0  0  0
  -27.2302  -37.1472   25.8867 H   0  0  0  0  0  0
  -20.9279  -29.8740   21.6952 H   0  0  0  0  0  0
  -26.0192  -38.2879   24.1401 H   0  0  0  0  0  0
  -31.2175  -20.0318   21.7696 H   0  0  0  0  0  0
  -31.1916  -22.4865   21.6735 H   0  0  0  0  0  0
  -29.9589  -18.4173   18.6686 H   0  0  0  0  0  0
  -31.2205  -17.8570   19.7403 H   0  0  0  0  0  0
  -30.7605  -17.7464   22.2107 H   0  0  0  0  0  0
  -29.1402  -18.0952   22.7769 H   0  0  0  0  0  0
  -30.2253  -15.9493   18.4927 H   0  0  0  0  0  0
  -28.6356  -16.3646   19.0622 H   0  0  0  0  0  0
  -28.2537  -16.0446   21.7995 H   0  0  0  0  0  0
  -29.6932  -15.5982   22.6786 H   0  0  0  0  0  0
  -26.7754  -22.1681   18.4160 H   0  0  0  0  0  0
  -27.5919  -23.6185   18.8844 H   0  0  0  0  0  0
  -26.3786  -22.9334   19.9556 H   0  0  0  0  0  0
  -28.0267  -18.9216   17.6993 H   0  0  0  0  0  0
  -27.0038  -20.3172   17.4444 H   0  0  0  0  0  0
  -26.2868  -18.7390   17.6940 H   0  0  0  0  0  0
  -25.6793  -20.1537   21.1338 H   0  0  0  0  0  0
  -24.9343  -19.2539   19.8251 H   0  0  0  0  0  0
  -25.2983  -20.9410   19.6034 H   0  0  0  0  0  0
  -29.9823  -26.4079   21.3068 H   0  0  0  0  0  0
  -28.4806  -26.7587   22.1241 H   0  0  0  0  0  0
  -27.5616  -24.5172   21.3018 H   0  0  0  0  0  0
  -28.8922  -24.4021   22.4365 H   0  0  0  0  0  0
  -27.1528  -18.5964   19.9497 H   0  0  0  0  0  0
  1 25  1  0  0  0
  1 30  2  0  0  0
  1 88  1  0  0  0
  2  3  1  0  0  0
  2 25  1  0  0  0
  2 90  1  0  0  0
  2 91  1  0  0  0
  3  4  1  0  0  0
  3 92  1  0  0  0
  3 93  1  0  0  0
  4  5  1  0  0  0
  4 94  1  0  0  0
  4 95  1  0  0  0
  5  6  1  0  0  0
  5 26  1  0  0  0
  5 96  1  0  0  0
  6 25  1  0  0  0
  6 97  1  0  0  0
  6 98  1  0  0  0
  7  8  2  0  0  0
  7 26  1  0  0  0
  7 29  1  0  0  0
  8  9  1  0  0  0
  8 22  1  0  0  0
  9 10  1  0  0  0
  9 27  2  0  0  0
 10 11  2  0  0  0
 10 15  1  0  0  0
 11 12  1  0  0  0
 11 99  1  0  0  0
 12 13  2  0  0  0
 12100  1  0  0  0
 13 14  1  0  0  0
 13 31  1  0  0  0
 14 15  2  0  0  0
 14101  1  0  0  0
 15102  1  0  0  0
 16 17  2  0  0  0
 16 21  1  0  0  0
 16 31  1  0  0  0
 17 18  1  0  0  0
 17103  1  0  0  0
 18 19  2  0  0  0
 18104  1  0  0  0
 19 20  1  0  0  0
 19 24  1  0  0  0
 20 21  2  0  0  0
 20105  1  0  0  0
 21 23  1  0  0  0
 22 28  1  0  0  0
 22 32  2  0  0  0
 26 27  1  0  0  0
 28106  1  0  0  0
 28107  1  0  0  0
 29108  1  0  0  0
 29109  1  0  0  0
 33 34  1  0  0  0
 33 66  1  0  0  0
 33 70  2  0  0  0
 34 36  1  0  0  0
 34 59  1  0  0  0
 34110  1  0  0  0
 35 44  2  0  0  0
 35 45  1  0  0  0
 35 68  1  0  0  0
 36 56  1  0  0  0
 36111  1  0  0  0
 37 39  1  0  0  0
 37 47  1  0  0  0
 37 66  1  0  0  0
 37112  1  0  0  0
 38 43  2  0  0  0
 38 46  1  0  0  0
 38 47  1  0  0  0
 39 64  1  0  0  0
 39 67  2  0  0  0
 40 52  1  0  0  0
 40 53  2  0  0  0
 40 58  1  0  0  0
 41113  1  0  0  0
 41114  1  0  0  0
 41115  1  0  0  0
 41 48  1  0  0  0
 42 43  1  0  0  0
 42 66  1  0  0  0
 42116  1  0  0  0
 42117  1  0  0  0
 43 44  1  0  0  0
 44118  1  0  0  0
 45 46  2  0  0  0
 45119  1  0  0  0
 46120  1  0  0  0
 47121  1  0  0  0
 47122  1  0  0  0
 48 56  1  0  0  0
 48 65  1  0  0  0
 48123  1  0  0  0
 49 50  1  0  0  0
 49 53  1  0  0  0
 49 64  1  0  0  0
 49124  1  0  0  0
 50 51  1  0  0  0
 50125  1  0  0  0
 50126  1  0  0  0
 51 52  1  0  0  0
 51127  1  0  0  0
 51128  1  0  0  0
 52129  1  0  0  0
 52130  1  0  0  0
 53 54  1  0  0  0
 54 55  2  0  0  0
 54131  1  0  0  0
 55 57  1  0  0  0
 55132  1  0  0  0
 56 69  2  0  0  0
 57 58  2  0  0  0
 57133  1  0  0  0
 58134  1  0  0  0
 59 60  1  0  0  0
 59 61  1  0  0  0
 59 62  1  0  0  0
 60135  1  0  0  0
 60136  1  0  0  0
 60137  1  0  0  0
 61138  1  0  0  0
 61139  1  0  0  0
 61140  1  0  0  0
 62141  1  0  0  0
 62142  1  0  0  0
 62143  1  0  0  0
 63 65  1  0  0  0
 63144  1  0  0  0
 63145  1  0  0  0
 63146  1  0  0  0
 64147  1  0  0  0
 65148  1  0  0  0
 68 84  1  0  0  0
 71 72  2  0  0  0
 71 75  1  0  0  0
 71149  1  0  0  0
 72 76  1  0  0  0
 72150  1  0  0  0
 73 74  1  0  0  0
 73 75  2  0  0  0
 73 86  1  0  0  0
 74 76  2  0  0  0
 74 81  1  0  0  0
 75 87  1  0  0  0
 76 89  1  0  0  0
 77 79  1  0  0  0
 77 87  1  0  0  0
 77151  1  0  0  0
 77152  1  0  0  0
 78 80  1  0  0  0
 78 87  1  0  0  0
 78153  1  0  0  0
 78154  1  0  0  0
 79 88  1  0  0  0
 79155  1  0  0  0
 79156  1  0  0  0
 80 88  1  0  0  0
 80157  1  0  0  0
 80158  1  0  0  0
 81159  1  0  0  0
 81160  1  0  0  0
 81161  1  0  0  0
 82162  1  0  0  0
 82163  1  0  0  0
 82164  1  0  0  0
 82 86  1  0  0  0
 83 86  1  0  0  0
 83165  1  0  0  0
 83166  1  0  0  0
 83167  1  0  0  0
 84 85  1  0  0  0
 84168  1  0  0  0
 84169  1  0  0  0
 85 89  1  0  0  0
 85170  1  0  0  0
 85171  1  0  0  0
 86172  1  0  0  0
M  ISO  4   1 100  68 101  84 101  88 100
M  END
> <chiral flag>
0

> <version>
0

> <s_m_source_file>
/data/baiqing/PycharmProjects/Reinvent-master-3.2/result/LINK_invent/BTK/process_docking_weight1_custom_sum_contain_oxygen_bond_distance_aromatic_linkinvent_7_9_3/rearranged_h_0150.sdf

> <i_m_source_file_index>
82

> <r_mmod_Potential_Energy-OPLS-2005>
191.82194519043

> <r_mmod_Stretch_Energy-OPLS-2005>
42.5814399719238

> <r_mmod_Bend_Energy-OPLS-2005>
106.598182678223

> <r_mmod_Torsional_Energy-OPLS-2005>
424.236450195312

> <r_mmod_Improper_Torsional_Energy-OPLS-2005>
20.4286994934082

> <r_mmod_Van_der_Waal_Energy-OPLS-2005>
153.814483642578

> <r_mmod_Electrostatic_Energy-OPLS-2005>
-369.448333740234

> <r_mmod_Solvation_Energy-OPLS-2005>
-199.485992431641

> <b_mmod_Minimization_Converged-OPLS-2005>
0

> <r_mmod_RMS_Derivative-OPLS-2005>
0.663388788700104

$$$$
82
                    3D
 Structure written by MMmdl.
181192  0  0  1  0            999 V2000
  -30.7930  -14.3242   20.8334 C   0  0  0  0  0  0
  -30.4412  -12.3411   19.3754 C   0  0  0  0  0  0
  -29.4813  -12.5637   18.1922 C   0  0  0  0  0  0
  -28.0151  -12.3764   18.6197 C   0  0  0  0  0  0
  -27.6717  -13.1979   19.8846 C   0  0  2  0  0  0
  -28.7070  -12.9314   20.9969 C   0  0  0  0  0  0
  -25.2619  -13.8144   20.5688 C   0  0  0  0  0  0
  -24.1857  -13.0423   20.9171 C   0  0  0  0  0  0
  -24.6395  -11.6877   20.8723 C   0  0  0  0  0  0
  -23.9052  -10.4271   21.0405 C   0  0  0  0  0  0
  -24.3605   -9.4197   21.9178 C   0  0  0  0  0  0
  -23.6288   -8.2239   22.0754 C   0  0  0  0  0  0
  -22.4265   -8.0273   21.3552 C   0  0  0  0  0  0
  -21.9899   -9.0246   20.4656 C   0  0  0  0  0  0
  -22.7228  -10.2119   20.3064 C   0  0  0  0  0  0
  -21.6848   -6.0728   22.5279 C   0  0  0  0  0  0
  -21.4007   -6.5635   23.8206 C   0  0  0  0  0  0
  -21.3661   -5.6795   24.9178 C   0  0  0  0  0  0
  -21.6050   -4.3060   24.7231 C   0  0  0  0  0  0
  -21.8819   -3.8143   23.4352 C   0  0  0  0  0  0
  -21.9187   -4.6957   22.3405 C   0  0  0  0  0  0
  -22.7872  -13.5223   21.1830 C   0  0  0  0  0  0
  -22.1657   -4.2138   21.0989 F   0  0  0  0  0  0
  -21.5630   -3.4544   25.7745 F   0  0  0  0  0  0
  -30.0623  -13.2322   20.4847 N   0  0  0  0  0  0
  -26.3067  -12.9293   20.3405 N   0  0  0  0  0  0
  -25.9329  -11.6457   20.5786 N   0  0  0  0  0  0
  -22.0535  -12.8217   22.0409 N   0  0  0  0  0  0
  -25.4319  -15.1866   20.4110 N   0  0  0  0  0  0
  -31.7336  -14.7669   20.1603 O   0  0  0  0  0  0
  -21.6631   -6.8861   21.4242 O   0  0  0  0  0  0
  -22.3563  -14.5537   20.6688 O   0  0  0  0  0  0
  -24.6116  -31.8695   23.2065 C   0  0  0  0  0  0
  -25.9010  -32.4835   23.8374 C   0  0  1  0  0  0
  -27.2451  -27.4377   20.1177 C   0  0  0  0  0  0
  -25.5903  -33.8623   24.2322 N   0  0  0  0  0  0
  -23.4023  -30.4956   21.5425 C   0  0  2  0  0  0
  -24.8533  -28.9522   20.1159 C   0  0  0  0  0  0
  -22.7407  -29.4694   22.4932 C   0  0  0  0  0  0
  -18.0276  -28.1383   22.8495 C   0  0  0  0  0  0
  -24.1475  -36.7295   23.2647 C   0  0  0  0  0  0
  -25.9303  -30.8389   21.3555 C   0  0  0  0  0  0
  -26.0100  -29.4697   20.7115 C   0  0  0  0  0  0
  -27.2115  -28.7231   20.7033 C   0  0  0  0  0  0
  -26.0753  -26.9382   19.5008 C   0  0  0  0  0  0
  -24.8795  -27.6843   19.5065 C   0  0  0  0  0  0
  -23.6145  -29.8239   20.1563 C   0  0  0  0  0  0
  -25.4104  -36.3117   24.0343 C   0  0  1  0  0  0
  -20.5889  -28.3685   23.1316 C   0  0  2  0  0  0
  -20.6781  -26.9438   22.5386 C   0  0  0  0  0  0
  -19.5745  -26.6422   21.5193 C   0  0  0  0  0  0
  -18.1934  -26.7928   22.1620 C   0  0  0  0  0  0
  -19.1538  -28.8851   23.2915 C   0  0  0  0  0  0
  -18.9484  -30.1469   23.8911 C   0  0  0  0  0  0
  -17.6476  -30.6599   24.0592 C   0  0  0  0  0  0
  -25.9038  -34.9483   23.5113 C   0  0  0  0  0  0
  -16.5367  -29.9140   23.6336 C   0  0  0  0  0  0
  -16.7276  -28.6532   23.0349 C   0  0  0  0  0  0
  -26.4452  -31.6617   25.0702 C   0  0  0  0  0  0
  -25.3773  -31.3731   26.1499 C   0  0  0  0  0  0
  -27.0285  -30.3073   24.6019 C   0  0  0  0  0  0
  -27.6026  -32.4334   25.7450 C   0  0  0  0  0  0
  -27.5570  -37.1821   24.8470 C   0  0  0  0  0  0
  -21.4117  -29.3072   22.3707 N   0  0  0  0  0  0
  -26.4261  -37.3837   23.9433 N   0  0  0  0  0  0
  -24.6661  -31.0837   22.0941 N   0  0  0  0  0  0
  -23.4191  -28.8253   23.2997 O   0  0  0  0  0  0
  -28.4130  -26.7009   20.1316 O   0  0  0  0  0  0
  -26.5605  -34.8946   22.4682 O   0  0  0  0  0  0
  -23.5309  -32.1418   23.7499 O   0  0  0  0  0  0
  -30.4484  -16.1824   24.0795 C   0  0  0  0  0  0
  -30.9122  -15.8980   22.8209 C   0  0  0  0  0  0
  -31.9081  -17.7636   23.4872 C   0  0  0  0  0  0
  -31.6291  -17.4153   26.9173 C   0  0  0  0  0  0
  -30.1173  -17.4321   26.8700 C   0  0  0  0  0  0
  -30.6148  -21.4055   23.4498 C   0  0  0  0  0  0
  -29.2348  -24.9666   21.7038 C   0  0  0  0  0  0
  -29.0409  -24.3158   19.6532 C   0  0  0  0  0  0
  -31.1874  -20.5791   22.3136 C   0  0  1  0  0  0
  -30.9209  -18.0729   25.7548 C   0  0  0  0  0  0
  -31.0186  -22.0909   22.1623 C   0  0  1  0  0  0
  -29.9756  -23.9413   20.8254 C   0  0  2  0  0  0
  -28.2914  -25.3262   20.5422 C   0  0  2  0  0  0
  -34.6887  -18.1151   25.0803 C   0  0  0  0  0  0
  -34.8587  -17.5818   22.6160 C   0  0  0  0  0  0
  -32.5914  -19.9749   22.3700 C   0  0  0  0  0  0
  -32.8354  -18.9645   23.5187 C   0  0  2  0  0  0
  -34.3408  -18.5908   23.6596 C   0  0  0  0  0  0
  -31.0828  -17.3383   24.4726 N   0  0  0  0  0  0
  -31.7910  -16.8834   22.4713 N   0  3  0  0  0  0
  -30.5037  -14.7540   22.0758 N   0  0  0  0  0  0
  -29.8973  -22.5187   21.2774 N   0  3  0  0  0  0
  -31.4711  -12.5106   19.0544 H   0  0  0  0  0  0
  -30.4032  -11.3041   19.7128 H   0  0  0  0  0  0
  -29.7233  -11.8835   17.3743 H   0  0  0  0  0  0
  -29.6191  -13.5758   17.8058 H   0  0  0  0  0  0
  -27.8487  -11.3155   18.8102 H   0  0  0  0  0  0
  -27.3468  -12.6539   17.8041 H   0  0  0  0  0  0
  -27.7336  -14.2530   19.6154 H   0  0  0  0  0  0
  -28.6721  -11.8876   21.3167 H   0  0  0  0  0  0
  -28.4228  -13.5092   21.8771 H   0  0  0  0  0  0
  -25.2757   -9.5667   22.4750 H   0  0  0  0  0  0
  -23.9990   -7.4630   22.7472 H   0  0  0  0  0  0
  -21.0824   -8.8770   19.8973 H   0  0  0  0  0  0
  -22.3682  -10.9661   19.6169 H   0  0  0  0  0  0
  -21.1996   -7.6135   23.9706 H   0  0  0  0  0  0
  -21.1488   -6.0525   25.9076 H   0  0  0  0  0  0
  -22.0594   -2.7603   23.2861 H   0  0  0  0  0  0
  -22.4137  -11.9849   22.4750 H   0  0  0  0  0  0
  -21.1187  -13.1274   22.2669 H   0  0  0  0  0  0
  -24.6640  -15.8397   20.5240 H   0  0  0  0  0  0
  -26.2874  -15.6341   20.1042 H   0  0  0  0  0  0
  -26.7080  -32.5534   23.1170 H   0  0  0  0  0  0
  -25.0084  -33.9750   25.0487 H   0  0  0  0  0  0
  -22.6903  -31.3141   21.4029 H   0  0  0  0  0  0
  -23.3720  -35.9635   23.3295 H   0  0  0  0  0  0
  -24.3594  -36.8910   22.2067 H   0  0  0  0  0  0
  -23.7225  -37.6496   23.6655 H   0  0  0  0  0  0
  -26.0387  -31.5963   20.5782 H   0  0  0  0  0  0
  -26.8191  -30.8999   21.9698 H   0  0  0  0  0  0
  -28.1011  -29.1286   21.1650 H   0  0  0  0  0  0
  -26.0876  -25.9755   19.0103 H   0  0  0  0  0  0
  -23.9925  -27.2812   19.0369 H   0  0  0  0  0  0
  -23.7372  -30.5978   19.3969 H   0  0  0  0  0  0
  -22.7402  -29.2507   19.8458 H   0  0  0  0  0  0
  -25.1304  -36.1935   25.0837 H   0  0  0  0  0  0
  -21.0004  -28.3199   24.1440 H   0  0  0  0  0  0
  -20.5642  -26.2324   23.3564 H   0  0  0  0  0  0
  -21.6675  -26.7449   22.1236 H   0  0  0  0  0  0
  -19.6869  -25.6345   21.1219 H   0  0  0  0  0  0
  -19.6656  -27.3237   20.6722 H   0  0  0  0  0  0
  -17.4207  -26.6716   21.3990 H   0  0  0  0  0  0
  -18.0325  -26.0048   22.9000 H   0  0  0  0  0  0
  -19.7956  -30.7330   24.2225 H   0  0  0  0  0  0
  -17.5039  -31.6271   24.5259 H   0  0  0  0  0  0
  -15.5383  -30.3077   23.7625 H   0  0  0  0  0  0
  -15.8661  -28.0904   22.7025 H   0  0  0  0  0  0
  -24.5907  -30.7107   25.7891 H   0  0  0  0  0  0
  -24.9020  -32.2913   26.4961 H   0  0  0  0  0  0
  -25.8201  -30.8902   27.0229 H   0  0  0  0  0  0
  -26.2788  -29.6820   24.1162 H   0  0  0  0  0  0
  -27.4202  -29.7311   25.4419 H   0  0  0  0  0  0
  -27.8584  -30.4454   23.9080 H   0  0  0  0  0  0
  -27.2633  -33.3618   26.2049 H   0  0  0  0  0  0
  -28.3829  -32.6913   25.0288 H   0  0  0  0  0  0
  -28.0710  -31.8450   26.5343 H   0  0  0  0  0  0
  -28.2639  -38.0090   24.7570 H   0  0  0  0  0  0
  -28.1027  -36.2639   24.6235 H   0  0  0  0  0  0
  -27.2304  -37.1404   25.8880 H   0  0  0  0  0  0
  -20.9226  -29.8850   21.7025 H   0  0  0  0  0  0
  -26.0093  -38.2877   24.1467 H   0  0  0  0  0  0
  -29.7397  -15.6604   24.7035 H   0  0  0  0  0  0
  -32.1102  -16.4500   26.7591 H   0  0  0  0  0  0
  -32.1234  -18.0689   27.6331 H   0  0  0  0  0  0
  -29.6201  -18.1047   27.5700 H   0  0  0  0  0  0
  -29.6043  -16.4894   26.7101 H   0  0  0  0  0  0
  -31.2461  -21.5831   24.3215 H   0  0  0  0  0  0
  -29.5580  -21.2647   23.6760 H   0  0  0  0  0  0
  -29.8695  -25.7980   22.0063 H   0  0  0  0  0  0
  -28.7093  -24.5424   22.5607 H   0  0  0  0  0  0
  -28.4040  -23.5002   19.3107 H   0  0  0  0  0  0
  -29.5650  -24.7775   18.8151 H   0  0  0  0  0  0
  -30.4613  -19.9219   21.8353 H   0  0  0  0  0  0
  -30.8770  -19.1543   25.6446 H   0  0  0  0  0  0
  -31.8968  -22.7347   22.1537 H   0  0  0  0  0  0
  -31.0042  -24.2438   20.6131 H   0  0  0  0  0  0
  -27.2748  -24.9919   20.7616 H   0  0  0  0  0  0
  -35.7532  -17.8940   25.1751 H   0  0  0  0  0  0
  -34.1415  -17.2113   25.3494 H   0  0  0  0  0  0
  -34.4557  -18.8791   25.8235 H   0  0  0  0  0  0
  -35.9449  -17.5047   22.6681 H   0  0  0  0  0  0
  -34.6112  -17.8944   21.6016 H   0  0  0  0  0  0
  -34.4621  -16.5796   22.7802 H   0  0  0  0  0  0
  -33.3102  -20.7912   22.4624 H   0  0  0  0  0  0
  -32.8031  -19.5090   21.4081 H   0  0  0  0  0  0
  -32.5930  -19.5187   24.4219 H   0  0  0  0  0  0
  -34.9120  -19.5092   23.5129 H   0  0  0  0  0  0
  -32.3060  -16.9330   21.5997 H   0  0  0  0  0  0
  -29.8257  -14.1650   22.5353 H   0  0  0  0  0  0
  -29.0096  -22.3241   21.7112 H   0  0  0  0  0  0
  -29.9444  -21.9423   20.4523 H   0  0  0  0  0  0
  1 25  1  0  0  0
  1 30  2  0  0  0
  1 91  1  0  0  0
  2  3  1  0  0  0
  2 25  1  0  0  0
  2 93  1  0  0  0
  2 94  1  0  0  0
  3  4  1  0  0  0
  3 95  1  0  0  0
  3 96  1  0  0  0
  4  5  1  0  0  0
  4 97  1  0  0  0
  4 98  1  0  0  0
  5  6  1  0  0  0
  5 26  1  0  0  0
  5 99  1  0  0  0
  6 25  1  0  0  0
  6100  1  0  0  0
  6101  1  0  0  0
  7  8  2  0  0  0
  7 26  1  0  0  0
  7 29  1  0  0  0
  8  9  1  0  0  0
  8 22  1  0  0  0
  9 10  1  0  0  0
  9 27  2  0  0  0
 10 11  2  0  0  0
 10 15  1  0  0  0
 11 12  1  0  0  0
 11102  1  0  0  0
 12 13  2  0  0  0
 12103  1  0  0  0
 13 14  1  0  0  0
 13 31  1  0  0  0
 14 15  2  0  0  0
 14104  1  0  0  0
 15105  1  0  0  0
 16 17  2  0  0  0
 16 21  1  0  0  0
 16 31  1  0  0  0
 17 18  1  0  0  0
 17106  1  0  0  0
 18 19  2  0  0  0
 18107  1  0  0  0
 19 20  1  0  0  0
 19 24  1  0  0  0
 20 21  2  0  0  0
 20108  1  0  0  0
 21 23  1  0  0  0
 22 28  1  0  0  0
 22 32  2  0  0  0
 26 27  1  0  0  0
 28109  1  0  0  0
 28110  1  0  0  0
 29111  1  0  0  0
 29112  1  0  0  0
 33 34  1  0  0  0
 33 66  1  0  0  0
 33 70  2  0  0  0
 34 36  1  0  0  0
 34 59  1  0  0  0
 34113  1  0  0  0
 35 44  2  0  0  0
 35 45  1  0  0  0
 35 68  1  0  0  0
 36 56  1  0  0  0
 36114  1  0  0  0
 37 39  1  0  0  0
 37 47  1  0  0  0
 37 66  1  0  0  0
 37115  1  0  0  0
 38 43  2  0  0  0
 38 46  1  0  0  0
 38 47  1  0  0  0
 39 64  1  0  0  0
 39 67  2  0  0  0
 40 52  1  0  0  0
 40 53  2  0  0  0
 40 58  1  0  0  0
 41116  1  0  0  0
 41117  1  0  0  0
 41118  1  0  0  0
 41 48  1  0  0  0
 42 43  1  0  0  0
 42 66  1  0  0  0
 42119  1  0  0  0
 42120  1  0  0  0
 43 44  1  0  0  0
 44121  1  0  0  0
 45 46  2  0  0  0
 45122  1  0  0  0
 46123  1  0  0  0
 47124  1  0  0  0
 47125  1  0  0  0
 48 56  1  0  0  0
 48 65  1  0  0  0
 48126  1  0  0  0
 49 50  1  0  0  0
 49 53  1  0  0  0
 49 64  1  0  0  0
 49127  1  0  0  0
 50 51  1  0  0  0
 50128  1  0  0  0
 50129  1  0  0  0
 51 52  1  0  0  0
 51130  1  0  0  0
 51131  1  0  0  0
 52132  1  0  0  0
 52133  1  0  0  0
 53 54  1  0  0  0
 54 55  2  0  0  0
 54134  1  0  0  0
 55 57  1  0  0  0
 55135  1  0  0  0
 56 69  2  0  0  0
 57 58  2  0  0  0
 57136  1  0  0  0
 58137  1  0  0  0
 59 60  1  0  0  0
 59 61  1  0  0  0
 59 62  1  0  0  0
 60138  1  0  0  0
 60139  1  0  0  0
 60140  1  0  0  0
 61141  1  0  0  0
 61142  1  0  0  0
 61143  1  0  0  0
 62144  1  0  0  0
 62145  1  0  0  0
 62146  1  0  0  0
 63 65  1  0  0  0
 63147  1  0  0  0
 63148  1  0  0  0
 63149  1  0  0  0
 64150  1  0  0  0
 65151  1  0  0  0
 68 83  1  0  0  0
 71 72  2  0  0  0
 71 89  1  0  0  0
 71152  1  0  0  0
 72 90  1  0  0  0
 72 91  1  0  0  0
 73 87  1  0  0  0
 73 89  1  0  0  0
 73 90  2  0  0  0
 74 75  1  0  0  0
 74 80  1  0  0  0
 74153  1  0  0  0
 74154  1  0  0  0
 75 80  1  0  0  0
 75155  1  0  0  0
 75156  1  0  0  0
 76 79  1  0  0  0
 76 81  1  0  0  0
 76157  1  0  0  0
 76158  1  0  0  0
 77 82  1  0  0  0
 77 83  1  0  0  0
 77159  1  0  0  0
 77160  1  0  0  0
 78 82  1  0  0  0
 78 83  1  0  0  0
 78161  1  0  0  0
 78162  1  0  0  0
 79 81  1  0  0  0
 79 86  1  0  0  0
 79163  1  0  0  0
 80 89  1  0  0  0
 80164  1  0  0  0
 81 92  1  0  0  0
 81165  1  0  0  0
 82 92  1  0  0  0
 82166  1  0  0  0
 83167  1  0  0  0
 84168  1  0  0  0
 84169  1  0  0  0
 84170  1  0  0  0
 84 88  1  0  0  0
 85 88  1  0  0  0
 85171  1  0  0  0
 85172  1  0  0  0
 85173  1  0  0  0
 86174  1  0  0  0
 86175  1  0  0  0
 86 87  1  0  0  0
 87 88  1  0  0  0
 87176  1  0  0  0
 88177  1  0  0  0
 90178  1  0  0  0
 91179  1  0  0  0
 92180  1  0  0  0
 92181  1  0  0  0
M  CHG  2  90   1  92   1
M  ISO  4   1 100  68 101  83 101  91 100
M  END
> <chiral flag>
0

> <version>
0

> <s_m_source_file>
/data/baiqing/PycharmProjects/Reinvent-master-3.2/result/LINK_invent/BTK/process_docking_weight1_custom_sum_contain_oxygen_bond_distance_aromatic_linkinvent_7_9_3/rearranged_h_0150.sdf

> <i_m_source_file_index>
83

> <r_mmod_Potential_Energy-OPLS-2005>
-97.8473052978516

> <r_mmod_Stretch_Energy-OPLS-2005>
41.3224105834961

> <r_mmod_Bend_Energy-OPLS-2005>
144.26335144043

> <r_mmod_Torsional_Energy-OPLS-2005>
394.993865966797

> <r_mmod_Improper_Torsional_Energy-OPLS-2005>
3.58102965354919

> <r_mmod_Van_der_Waal_Energy-OPLS-2005>
118.592155456543

> <r_mmod_Electrostatic_Energy-OPLS-2005>
69.2315063476562

> <r_mmod_Solvation_Energy-OPLS-2005>
-884.599426269531

> <b_mmod_Minimization_Converged-OPLS-2005>
0

> <r_mmod_RMS_Derivative-OPLS-2005>
5.00700759887695

$$$$
83
                    3D
 Structure written by MMmdl.
173182  0  0  1  0            999 V2000
  -30.7309  -14.5075   20.5913 C   0  0  0  0  0  0
  -30.4179  -12.3327   19.4419 C   0  0  0  0  0  0
  -29.4893  -12.5003   18.2185 C   0  0  0  0  0  0
  -28.0198  -12.3406   18.6422 C   0  0  0  0  0  0
  -27.6570  -13.2133   19.8727 C   0  0  2  0  0  0
  -28.6994  -13.0401   21.0021 C   0  0  0  0  0  0
  -25.2576  -13.8190   20.5697 C   0  0  0  0  0  0
  -24.1827  -13.0451   20.9208 C   0  0  0  0  0  0
  -24.6373  -11.6927   20.8746 C   0  0  0  0  0  0
  -23.9044  -10.4305   21.0398 C   0  0  0  0  0  0
  -24.3609   -9.4227   21.9179 C   0  0  0  0  0  0
  -23.6317   -8.2244   22.0730 C   0  0  0  0  0  0
  -22.4295   -8.0263   21.3515 C   0  0  0  0  0  0
  -21.9915   -9.0233   20.4613 C   0  0  0  0  0  0
  -22.7221  -10.2132   20.3046 C   0  0  0  0  0  0
  -21.6866   -6.0719   22.5254 C   0  0  0  0  0  0
  -21.4015   -6.5624   23.8184 C   0  0  0  0  0  0
  -21.3650   -5.6782   24.9148 C   0  0  0  0  0  0
  -21.6081   -4.3053   24.7212 C   0  0  0  0  0  0
  -21.8821   -3.8133   23.4333 C   0  0  0  0  0  0
  -21.9203   -4.6948   22.3390 C   0  0  0  0  0  0
  -22.7848  -13.5193   21.1900 C   0  0  0  0  0  0
  -22.1672   -4.2125   21.0974 F   0  0  0  0  0  0
  -21.5647   -3.4548   25.7730 F   0  0  0  0  0  0
  -30.0293  -13.3414   20.4470 N   0  0  0  0  0  0
  -26.3000  -12.9367   20.3398 N   0  0  0  0  0  0
  -25.9309  -11.6520   20.5837 N   0  0  0  0  0  0
  -22.0528  -12.8124   22.0457 N   0  0  0  0  0  0
  -25.4360  -15.1865   20.3912 N   0  0  0  0  0  0
  -31.8169  -14.6834   20.0359 O   0  0  0  0  0  0
  -21.6662   -6.8851   21.4208 O   0  0  0  0  0  0
  -22.3503  -14.5502   20.6792 O   0  0  0  0  0  0
  -24.6415  -31.8682   23.2160 C   0  0  0  0  0  0
  -25.9215  -32.4889   23.8483 C   0  0  1  0  0  0
  -27.2352  -27.3628   20.1182 C   0  0  0  0  0  0
  -25.5999  -33.8678   24.2388 N   0  0  0  0  0  0
  -23.4528  -30.4917   21.5672 C   0  0  2  0  0  0
  -24.8782  -28.9564   20.1225 C   0  0  0  0  0  0
  -22.7834  -29.4739   22.5173 C   0  0  0  0  0  0
  -17.9942  -28.1223   22.8775 C   0  0  0  0  0  0
  -24.1495  -36.7361   23.2628 C   0  0  0  0  0  0
  -25.9768  -30.8211   21.3718 C   0  0  0  0  0  0
  -26.0489  -29.4482   20.7136 C   0  0  0  0  0  0
  -27.2332  -28.6611   20.7031 C   0  0  0  0  0  0
  -26.0423  -26.9159   19.5024 C   0  0  0  0  0  0
  -24.8722  -27.6944   19.5132 C   0  0  0  0  0  0
  -23.6501  -29.8322   20.1777 C   0  0  0  0  0  0
  -25.4121  -36.3161   24.0320 C   0  0  1  0  0  0
  -20.4813  -28.4596   22.7904 C   0  0  2  0  0  0
  -20.6877  -26.9620   22.5305 C   0  0  0  0  0  0
  -19.5480  -26.4659   21.6163 C   0  0  0  0  0  0
  -18.1559  -26.7496   22.2199 C   0  0  0  0  0  0
  -19.1157  -28.8979   23.2572 C   0  0  0  0  0  0
  -18.9392  -30.1484   23.8831 C   0  0  0  0  0  0
  -17.6423  -30.6502   24.0916 C   0  0  0  0  0  0
  -25.9048  -34.9522   23.5140 C   0  0  0  0  0  0
  -16.5246  -29.8968   23.6890 C   0  0  0  0  0  0
  -16.6999  -28.6333   23.0974 C   0  0  0  0  0  0
  -26.4539  -31.6647   25.0817 C   0  0  0  0  0  0
  -25.3777  -31.3759   26.1537 C   0  0  0  0  0  0
  -27.0356  -30.3088   24.6202 C   0  0  0  0  0  0
  -27.6109  -32.4323   25.7619 C   0  0  0  0  0  0
  -27.5597  -37.1843   24.8450 C   0  0  0  0  0  0
  -21.4589  -29.4530   22.4139 N   0  0  0  0  0  0
  -26.4317  -37.3841   23.9383 N   0  0  0  0  0  0
  -24.7123  -31.0718   22.1117 N   0  0  0  0  0  0
  -23.4317  -28.7392   23.2649 O   0  0  0  0  0  0
  -28.3631  -26.5473   20.1517 O   0  0  0  0  0  0
  -26.5556  -34.8971   22.4668 O   0  0  0  0  0  0
  -23.5548  -32.1408   23.7472 O   0  0  0  0  0  0
  -28.5400  -20.5144   18.3618 C   0  0  0  0  0  0
  -28.6121  -19.2852   19.0424 C   0  0  0  0  0  0
  -28.7122  -21.7348   19.0424 C   0  0  0  0  0  0
  -29.1006  -20.4822   21.0967 C   0  0  0  0  0  0
  -28.8889  -19.2307   20.4238 C   0  0  0  0  0  0
  -28.9965  -21.7430   20.4290 C   0  0  0  0  0  0
  -30.0514  -16.8943   20.5692 C   0  0  0  0  0  0
  -28.9505  -16.4290   23.1854 C   0  0  0  0  0  0
  -28.8877  -17.8157   21.0934 C   0  0  1  0  0  0
  -30.1846  -15.6720   22.6672 C   0  0  2  0  0  0
  -31.5309  -16.2523   23.1577 C   0  0  0  0  0  0
  -27.8188  -19.2559   24.4182 C   0  0  0  0  0  0
  -26.3024  -17.5563   23.3152 C   0  0  0  0  0  0
  -29.3894  -24.2094   20.5054 C   0  0  0  0  0  0
  -28.1246  -25.1156   20.3476 C   0  0  0  0  0  0
  -27.5226  -18.4823   23.1176 C   0  0  0  0  0  0
  -30.1053  -15.5523   21.2071 N   0  0  0  0  0  0
  -28.7517  -17.7909   22.5884 N   0  3  1  0  0  0
  -29.1602  -22.9251   21.1548 O   0  0  0  0  0  0
  -31.4614  -12.4291   19.1346 H   0  0  0  0  0  0
  -30.3229  -11.3288   19.8602 H   0  0  0  0  0  0
  -29.7368  -11.7732   17.4445 H   0  0  0  0  0  0
  -29.6291  -13.4825   17.7701 H   0  0  0  0  0  0
  -27.8605  -11.2902   18.8884 H   0  0  0  0  0  0
  -27.3524  -12.5598   17.8097 H   0  0  0  0  0  0
  -27.6903  -14.2519   19.5480 H   0  0  0  0  0  0
  -28.6852  -12.0231   21.3932 H   0  0  0  0  0  0
  -28.4355  -13.6781   21.8471 H   0  0  0  0  0  0
  -25.2763   -9.5720   22.4728 H   0  0  0  0  0  0
  -24.0041   -7.4639   22.7437 H   0  0  0  0  0  0
  -21.0863   -8.8740   19.8915 H   0  0  0  0  0  0
  -22.3690  -10.9646   19.6139 H   0  0  0  0  0  0
  -21.1990   -7.6133   23.9682 H   0  0  0  0  0  0
  -21.1483   -6.0515   25.9049 H   0  0  0  0  0  0
  -22.0616   -2.7590   23.2852 H   0  0  0  0  0  0
  -22.4196  -11.9759   22.4758 H   0  0  0  0  0  0
  -21.1118  -13.1041   22.2701 H   0  0  0  0  0  0
  -24.6508  -15.8257   20.4175 H   0  0  0  0  0  0
  -26.2502  -15.5719   19.9311 H   0  0  0  0  0  0
  -26.7331  -32.5580   23.1291 H   0  0  0  0  0  0
  -25.0212  -33.9843   25.0572 H   0  0  0  0  0  0
  -22.7544  -31.3177   21.4203 H   0  0  0  0  0  0
  -23.3780  -35.9678   23.3294 H   0  0  0  0  0  0
  -24.3587  -36.8972   22.2050 H   0  0  0  0  0  0
  -23.7257  -37.6577   23.6624 H   0  0  0  0  0  0
  -26.0772  -31.5842   20.5995 H   0  0  0  0  0  0
  -26.8726  -30.8862   21.9805 H   0  0  0  0  0  0
  -28.1392  -29.0294   21.1667 H   0  0  0  0  0  0
  -25.9770  -25.9583   19.0064 H   0  0  0  0  0  0
  -23.9704  -27.3155   19.0529 H   0  0  0  0  0  0
  -23.7654  -30.6021   19.4146 H   0  0  0  0  0  0
  -22.7709  -29.2560   19.8850 H   0  0  0  0  0  0
  -25.1311  -36.2072   25.0818 H   0  0  0  0  0  0
  -20.1632  -28.6826   21.7715 H   0  0  0  0  0  0
  -20.6699  -26.4202   23.4776 H   0  0  0  0  0  0
  -21.6563  -26.7664   22.0711 H   0  0  0  0  0  0
  -19.6197  -26.9418   20.6371 H   0  0  0  0  0  0
  -19.6535  -25.4006   21.4258 H   0  0  0  0  0  0
  -17.3857  -26.6107   21.4610 H   0  0  0  0  0  0
  -17.9503  -26.0085   22.9919 H   0  0  0  0  0  0
  -19.7963  -30.7487   24.1571 H   0  0  0  0  0  0
  -17.5047  -31.6192   24.5482 H   0  0  0  0  0  0
  -15.5285  -30.2889   23.8447 H   0  0  0  0  0  0
  -15.8300  -28.0606   22.8023 H   0  0  0  0  0  0
  -24.5902  -30.7185   25.7824 H   0  0  0  0  0  0
  -24.9044  -32.2941   26.5036 H   0  0  0  0  0  0
  -25.8108  -30.8857   27.0277 H   0  0  0  0  0  0
  -26.2921  -29.6883   24.1198 H   0  0  0  0  0  0
  -27.4037  -29.7303   25.4684 H   0  0  0  0  0  0
  -27.8794  -30.4387   23.9429 H   0  0  0  0  0  0
  -27.2735  -33.3564   26.2327 H   0  0  0  0  0  0
  -28.3921  -32.6974   25.0475 H   0  0  0  0  0  0
  -28.0791  -31.8371   26.5468 H   0  0  0  0  0  0
  -28.2613  -38.0142   24.7506 H   0  0  0  0  0  0
  -28.1098  -36.2677   24.6277 H   0  0  0  0  0  0
  -27.2278  -37.1501   25.8841 H   0  0  0  0  0  0
  -21.0740  -30.1942   21.8456 H   0  0  0  0  0  0
  -26.0227  -38.2923   24.1425 H   0  0  0  0  0  0
  -28.3262  -20.5194   17.3040 H   0  0  0  0  0  0
  -28.4445  -18.3740   18.4827 H   0  0  0  0  0  0
  -28.6098  -22.6501   18.4803 H   0  0  0  0  0  0
  -29.3275  -20.5002   22.1502 H   0  0  0  0  0  0
  -29.9474  -16.7636   19.4907 H   0  0  0  0  0  0
  -31.0073  -17.3999   20.6981 H   0  0  0  0  0  0
  -28.9899  -16.4893   24.2709 H   0  0  0  0  0  0
  -28.0939  -15.7978   22.9490 H   0  0  0  0  0  0
  -27.9719  -17.3342   20.7427 H   0  0  0  0  0  0
  -30.1311  -14.6655   23.0882 H   0  0  0  0  0  0
  -31.7028  -17.2782   22.8292 H   0  0  0  0  0  0
  -32.3694  -15.6515   22.8021 H   0  0  0  0  0  0
  -31.5922  -16.2557   24.2462 H   0  0  0  0  0  0
  -28.0909  -18.5967   25.2420 H   0  0  0  0  0  0
  -26.9365  -19.8166   24.7370 H   0  0  0  0  0  0
  -28.6257  -19.9767   24.3005 H   0  0  0  0  0  0
  -25.3952  -18.1434   23.4701 H   0  0  0  0  0  0
  -26.4117  -16.8996   24.1771 H   0  0  0  0  0  0
  -26.1289  -16.9298   22.4417 H   0  0  0  0  0  0
  -30.0951  -24.7393   21.1438 H   0  0  0  0  0  0
  -29.9159  -24.1016   19.5554 H   0  0  0  0  0  0
  -27.5200  -25.0099   21.2510 H   0  0  0  0  0  0
  -27.5494  -24.6902   19.5276 H   0  0  0  0  0  0
  -27.1927  -19.2293   22.3968 H   0  0  0  0  0  0
  -29.5322  -18.3411   22.9067 H   0  0  0  0  0  0
  1 25  1  0  0  0
  1 30  2  0  0  0
  1 87  1  0  0  0
  2  3  1  0  0  0
  2 25  1  0  0  0
  2 90  1  0  0  0
  2 91  1  0  0  0
  3  4  1  0  0  0
  3 92  1  0  0  0
  3 93  1  0  0  0
  4  5  1  0  0  0
  4 94  1  0  0  0
  4 95  1  0  0  0
  5  6  1  0  0  0
  5 26  1  0  0  0
  5 96  1  0  0  0
  6 25  1  0  0  0
  6 97  1  0  0  0
  6 98  1  0  0  0
  7  8  2  0  0  0
  7 26  1  0  0  0
  7 29  1  0  0  0
  8  9  1  0  0  0
  8 22  1  0  0  0
  9 10  1  0  0  0
  9 27  2  0  0  0
 10 11  2  0  0  0
 10 15  1  0  0  0
 11 12  1  0  0  0
 11 99  1  0  0  0
 12 13  2  0  0  0
 12100  1  0  0  0
 13 14  1  0  0  0
 13 31  1  0  0  0
 14 15  2  0  0  0
 14101  1  0  0  0
 15102  1  0  0  0
 16 17  2  0  0  0
 16 21  1  0  0  0
 16 31  1  0  0  0
 17 18  1  0  0  0
 17103  1  0  0  0
 18 19  2  0  0  0
 18104  1  0  0  0
 19 20  1  0  0  0
 19 24  1  0  0  0
 20 21  2  0  0  0
 20105  1  0  0  0
 21 23  1  0  0  0
 22 28  1  0  0  0
 22 32  2  0  0  0
 26 27  1  0  0  0
 28106  1  0  0  0
 28107  1  0  0  0
 29108  1  0  0  0
 29109  1  0  0  0
 33 34  1  0  0  0
 33 66  1  0  0  0
 33 70  2  0  0  0
 34 36  1  0  0  0
 34 59  1  0  0  0
 34110  1  0  0  0
 35 44  2  0  0  0
 35 45  1  0  0  0
 35 68  1  0  0  0
 36 56  1  0  0  0
 36111  1  0  0  0
 37 39  1  0  0  0
 37 47  1  0  0  0
 37 66  1  0  0  0
 37112  1  0  0  0
 38 43  2  0  0  0
 38 46  1  0  0  0
 38 47  1  0  0  0
 39 64  1  0  0  0
 39 67  2  0  0  0
 40 52  1  0  0  0
 40 53  2  0  0  0
 40 58  1  0  0  0
 41113  1  0  0  0
 41114  1  0  0  0
 41115  1  0  0  0
 41 48  1  0  0  0
 42 43  1  0  0  0
 42 66  1  0  0  0
 42116  1  0  0  0
 42117  1  0  0  0
 43 44  1  0  0  0
 44118  1  0  0  0
 45 46  2  0  0  0
 45119  1  0  0  0
 46120  1  0  0  0
 47121  1  0  0  0
 47122  1  0  0  0
 48 56  1  0  0  0
 48 65  1  0  0  0
 48123  1  0  0  0
 49 50  1  0  0  0
 49 53  1  0  0  0
 49 64  1  0  0  0
 49124  1  0  0  0
 50 51  1  0  0  0
 50125  1  0  0  0
 50126  1  0  0  0
 51 52  1  0  0  0
 51127  1  0  0  0
 51128  1  0  0  0
 52129  1  0  0  0
 52130  1  0  0  0
 53 54  1  0  0  0
 54 55  2  0  0  0
 54131  1  0  0  0
 55 57  1  0  0  0
 55132  1  0  0  0
 56 69  2  0  0  0
 57 58  2  0  0  0
 57133  1  0  0  0
 58134  1  0  0  0
 59 60  1  0  0  0
 59 61  1  0  0  0
 59 62  1  0  0  0
 60135  1  0  0  0
 60136  1  0  0  0
 60137  1  0  0  0
 61138  1  0  0  0
 61139  1  0  0  0
 61140  1  0  0  0
 62141  1  0  0  0
 62142  1  0  0  0
 62143  1  0  0  0
 63 65  1  0  0  0
 63144  1  0  0  0
 63145  1  0  0  0
 63146  1  0  0  0
 64147  1  0  0  0
 65148  1  0  0  0
 68 85  1  0  0  0
 71 72  2  0  0  0
 71 73  1  0  0  0
 71149  1  0  0  0
 72 75  1  0  0  0
 72150  1  0  0  0
 73 76  2  0  0  0
 73151  1  0  0  0
 74 75  2  0  0  0
 74 76  1  0  0  0
 74152  1  0  0  0
 75 79  1  0  0  0
 76 89  1  0  0  0
 77 79  1  0  0  0
 77 87  1  0  0  0
 77153  1  0  0  0
 77154  1  0  0  0
 78 80  1  0  0  0
 78155  1  0  0  0
 78156  1  0  0  0
 78 88  1  0  0  0
 79 88  1  0  0  0
 79157  1  0  0  0
 80 81  1  0  0  0
 80 87  1  0  0  0
 80158  1  0  0  0
 81159  1  0  0  0
 81160  1  0  0  0
 81161  1  0  0  0
 82162  1  0  0  0
 82163  1  0  0  0
 82164  1  0  0  0
 82 86  1  0  0  0
 83 86  1  0  0  0
 83165  1  0  0  0
 83166  1  0  0  0
 83167  1  0  0  0
 84 85  1  0  0  0
 84 89  1  0  0  0
 84168  1  0  0  0
 84169  1  0  0  0
 85170  1  0  0  0
 85171  1  0  0  0
 86 88  1  0  0  0
 86172  1  0  0  0
 88173  1  0  0  0
M  CHG  1  88   1
M  ISO  4   1 100  68 101  85 101  87 100
M  END
> <chiral flag>
0

> <version>
0

> <s_m_source_file>
/data/baiqing/PycharmProjects/Reinvent-master-3.2/result/LINK_invent/BTK/process_docking_weight1_custom_sum_contain_oxygen_bond_distance_aromatic_linkinvent_7_9_3/rearranged_h_0150.sdf

> <i_m_source_file_index>
84

> <r_mmod_Potential_Energy-OPLS-2005>
300.573181152344

> <r_mmod_Stretch_Energy-OPLS-2005>
62.7609710693359

> <r_mmod_Bend_Energy-OPLS-2005>
241.247863769531

> <r_mmod_Torsional_Energy-OPLS-2005>
410.808441162109

> <r_mmod_Improper_Torsional_Energy-OPLS-2005>
9.28016185760498

> <r_mmod_Van_der_Waal_Energy-OPLS-2005>
161.914215087891

> <r_mmod_Electrostatic_Energy-OPLS-2005>
-210.972763061523

> <r_mmod_Solvation_Energy-OPLS-2005>
-419.002227783203

> <b_mmod_Minimization_Converged-OPLS-2005>
0

> <r_mmod_RMS_Derivative-OPLS-2005>
6.05371761322021

$$$$
84
                    3D
 Structure written by MMmdl.
169178  0  0  1  0            999 V2000
  -30.7649  -14.3456   20.6748 C   0  0  0  0  0  0
  -30.4144  -12.2670   19.3968 C   0  0  0  0  0  0
  -29.4846  -12.5185   18.1943 C   0  0  0  0  0  0
  -28.0077  -12.3795   18.6088 C   0  0  0  0  0  0
  -27.6682  -13.1980   19.8820 C   0  0  2  0  0  0
  -28.7033  -12.9237   20.9960 C   0  0  0  0  0  0
  -25.2617  -13.8149   20.5670 C   0  0  0  0  0  0
  -24.1851  -13.0440   20.9160 C   0  0  0  0  0  0
  -24.6387  -11.6901   20.8719 C   0  0  0  0  0  0
  -23.9049  -10.4292   21.0396 C   0  0  0  0  0  0
  -24.3607   -9.4211   21.9175 C   0  0  0  0  0  0
  -23.6288   -8.2243   22.0750 C   0  0  0  0  0  0
  -22.4270   -8.0278   21.3542 C   0  0  0  0  0  0
  -21.9900   -9.0247   20.4643 C   0  0  0  0  0  0
  -22.7222  -10.2129   20.3048 C   0  0  0  0  0  0
  -21.6851   -6.0732   22.5280 C   0  0  0  0  0  0
  -21.4012   -6.5638   23.8212 C   0  0  0  0  0  0
  -21.3661   -5.6792   24.9175 C   0  0  0  0  0  0
  -21.6045   -4.3055   24.7225 C   0  0  0  0  0  0
  -21.8820   -3.8146   23.4347 C   0  0  0  0  0  0
  -21.9192   -4.6961   22.3404 C   0  0  0  0  0  0
  -22.7877  -13.5246   21.1835 C   0  0  0  0  0  0
  -22.1662   -4.2148   21.0981 F   0  0  0  0  0  0
  -21.5631   -3.4540   25.7737 F   0  0  0  0  0  0
  -30.0515  -13.2089   20.4655 N   0  0  0  0  0  0
  -26.3050  -12.9304   20.3379 N   0  0  0  0  0  0
  -25.9311  -11.6470   20.5754 N   0  0  0  0  0  0
  -22.0518  -12.8233   22.0389 N   0  0  0  0  0  0
  -25.4368  -15.1865   20.4092 N   0  0  0  0  0  0
  -31.7987  -14.6046   20.0466 O   0  0  0  0  0  0
  -21.6638   -6.8873   21.4240 O   0  0  0  0  0  0
  -22.3564  -14.5557   20.6694 O   0  0  0  0  0  0
  -24.6092  -31.8715   23.2130 C   0  0  0  0  0  0
  -25.9006  -32.4840   23.8410 C   0  0  1  0  0  0
  -27.2365  -27.4801   20.0840 C   0  0  0  0  0  0
  -25.5880  -33.8638   24.2347 N   0  0  0  0  0  0
  -23.3946  -30.4950   21.5530 C   0  0  2  0  0  0
  -24.8390  -28.9645   20.1164 C   0  0  0  0  0  0
  -22.7379  -29.4673   22.5010 C   0  0  0  0  0  0
  -18.0264  -28.1372   22.8495 C   0  0  0  0  0  0
  -24.1487  -36.7322   23.2640 C   0  0  0  0  0  0
  -25.9178  -30.8504   21.3584 C   0  0  0  0  0  0
  -25.9950  -29.4876   20.7074 C   0  0  0  0  0  0
  -27.1955  -28.7522   20.6871 C   0  0  0  0  0  0
  -26.0636  -26.9586   19.4889 C   0  0  0  0  0  0
  -24.8657  -27.6971   19.5076 C   0  0  0  0  0  0
  -23.5990  -29.8259   20.1672 C   0  0  0  0  0  0
  -25.4106  -36.3126   24.0344 C   0  0  1  0  0  0
  -20.5852  -28.3645   23.1336 C   0  0  2  0  0  0
  -20.6754  -26.9388   22.5417 C   0  0  0  0  0  0
  -19.5737  -26.6386   21.5209 C   0  0  0  0  0  0
  -18.1913  -26.7923   22.1619 C   0  0  0  0  0  0
  -19.1514  -28.8824   23.2917 C   0  0  0  0  0  0
  -18.9446  -30.1432   23.8924 C   0  0  0  0  0  0
  -17.6451  -30.6580   24.0566 C   0  0  0  0  0  0
  -25.9025  -34.9487   23.5143 C   0  0  0  0  0  0
  -16.5339  -29.9088   23.6321 C   0  0  0  0  0  0
  -16.7255  -28.6504   23.0342 C   0  0  0  0  0  0
  -26.4452  -31.6607   25.0717 C   0  0  0  0  0  0
  -25.3740  -31.3706   26.1482 C   0  0  0  0  0  0
  -27.0273  -30.3061   24.6050 C   0  0  0  0  0  0
  -27.6040  -32.4316   25.7472 C   0  0  0  0  0  0
  -27.5585  -37.1815   24.8465 C   0  0  0  0  0  0
  -21.4111  -29.3028   22.3752 N   0  0  0  0  0  0
  -26.4298  -37.3804   23.9408 N   0  0  0  0  0  0
  -24.6587  -31.0854   22.1008 N   0  0  0  0  0  0
  -23.4179  -28.8209   23.3025 O   0  0  0  0  0  0
  -28.4355  -26.8131   20.0806 O   0  0  0  0  0  0
  -26.5585  -34.8930   22.4702 O   0  0  0  0  0  0
  -23.5300  -32.1442   23.7558 O   0  0  0  0  0  0
  -29.4252  -18.6873   22.1217 C   0  0  0  0  0  0
  -29.3397  -17.2872   22.1139 C   0  0  0  0  0  0
  -30.6511  -19.3000   21.7947 C   0  0  0  0  0  0
  -30.4708  -16.5307   21.7620 C   0  0  0  0  0  0
  -31.7595  -18.4698   21.5393 C   0  0  0  0  0  0
  -30.1504  -21.6093   22.7881 C   0  0  0  0  0  0
  -30.2648  -23.1229   22.5387 C   0  0  0  0  0  0
  -30.2030  -22.7764   20.1062 C   0  0  0  0  0  0
  -30.7438  -20.8123   21.6106 C   0  0  2  0  0  0
  -30.0837  -21.2518   20.2811 C   0  0  2  0  0  0
  -30.6579  -20.5137   19.0564 C   0  0  0  0  0  0
  -34.0602  -18.1674   20.8866 C   0  0  0  0  0  0
  -29.5673  -24.9701   21.0500 C   0  0  0  0  0  0
  -28.4005  -25.3955   20.1466 C   0  0  0  0  0  0
  -31.6648  -17.1244   21.5408 N   0  0  0  0  0  0
  -30.2638  -15.1421   21.6303 N   0  0  0  0  0  0
  -29.6095  -23.5017   21.2595 N   0  3  2  0  0  0
  -32.9788  -19.0318   21.2224 O   0  0  0  0  0  0
  -31.4590  -12.3566   19.0926 H   0  0  0  0  0  0
  -30.3027  -11.2427   19.7560 H   0  0  0  0  0  0
  -29.7133  -11.8182   17.3898 H   0  0  0  0  0  0
  -29.6617  -13.5170   17.7917 H   0  0  0  0  0  0
  -27.8107  -11.3214   18.7854 H   0  0  0  0  0  0
  -27.3559  -12.6754   17.7858 H   0  0  0  0  0  0
  -27.7324  -14.2534   19.6162 H   0  0  0  0  0  0
  -28.6572  -11.8765   21.2987 H   0  0  0  0  0  0
  -28.4488  -13.4856   21.8947 H   0  0  0  0  0  0
  -25.2755   -9.5691   22.4744 H   0  0  0  0  0  0
  -24.0004   -7.4637   22.7467 H   0  0  0  0  0  0
  -21.0833   -8.8760   19.8949 H   0  0  0  0  0  0
  -22.3680  -10.9663   19.6155 H   0  0  0  0  0  0
  -21.2000   -7.6145   23.9715 H   0  0  0  0  0  0
  -21.1484   -6.0522   25.9077 H   0  0  0  0  0  0
  -22.0598   -2.7609   23.2847 H   0  0  0  0  0  0
  -22.4133  -11.9886   22.4765 H   0  0  0  0  0  0
  -21.1137  -13.1255   22.2602 H   0  0  0  0  0  0
  -24.6732  -15.8451   20.5163 H   0  0  0  0  0  0
  -26.2947  -15.6228   20.0953 H   0  0  0  0  0  0
  -26.7076  -32.5567   23.1180 H   0  0  0  0  0  0
  -25.0043  -33.9808   25.0501 H   0  0  0  0  0  0
  -22.6813  -31.3103   21.4159 H   0  0  0  0  0  0
  -23.3744  -35.9661   23.3315 H   0  0  0  0  0  0
  -24.3587  -36.8917   22.2052 H   0  0  0  0  0  0
  -23.7240  -37.6534   23.6637 H   0  0  0  0  0  0
  -26.0220  -31.6172   20.5898 H   0  0  0  0  0  0
  -26.8091  -30.9051   21.9718 H   0  0  0  0  0  0
  -28.0923  -29.1569   21.1354 H   0  0  0  0  0  0
  -26.0649  -25.9975   18.9945 H   0  0  0  0  0  0
  -23.9765  -27.2907   19.0455 H   0  0  0  0  0  0
  -23.7015  -30.5996   19.4055 H   0  0  0  0  0  0
  -22.7245  -29.2418   19.8752 H   0  0  0  0  0  0
  -25.1282  -36.2002   25.0839 H   0  0  0  0  0  0
  -20.9940  -28.3199   24.1457 H   0  0  0  0  0  0
  -20.5651  -26.2251   23.3593 H   0  0  0  0  0  0
  -21.6627  -26.7437   22.1211 H   0  0  0  0  0  0
  -19.6901  -25.6308   21.1212 H   0  0  0  0  0  0
  -19.6684  -27.3213   20.6756 H   0  0  0  0  0  0
  -17.4185  -26.6673   21.4016 H   0  0  0  0  0  0
  -18.0312  -26.0057   22.9006 H   0  0  0  0  0  0
  -19.7927  -30.7232   24.2307 H   0  0  0  0  0  0
  -17.5013  -31.6263   24.5158 H   0  0  0  0  0  0
  -15.5343  -30.3000   23.7637 H   0  0  0  0  0  0
  -15.8651  -28.0833   22.7047 H   0  0  0  0  0  0
  -24.5901  -30.7061   25.7825 H   0  0  0  0  0  0
  -24.8942  -32.2863   26.4950 H   0  0  0  0  0  0
  -25.8107  -30.8863   27.0226 H   0  0  0  0  0  0
  -26.2799  -29.6838   24.1111 H   0  0  0  0  0  0
  -27.4077  -29.7274   25.4478 H   0  0  0  0  0  0
  -27.8618  -30.4401   23.9162 H   0  0  0  0  0  0
  -27.2660  -33.3594   26.2099 H   0  0  0  0  0  0
  -28.3819  -32.6912   25.0279 H   0  0  0  0  0  0
  -28.0741  -31.8412   26.5346 H   0  0  0  0  0  0
  -28.2608  -38.0108   24.7505 H   0  0  0  0  0  0
  -28.1076  -36.2637   24.6299 H   0  0  0  0  0  0
  -27.2303  -37.1470   25.8869 H   0  0  0  0  0  0
  -20.9246  -29.8768   21.7004 H   0  0  0  0  0  0
  -26.0196  -38.2890   24.1401 H   0  0  0  0  0  0
  -28.5398  -19.2723   22.3220 H   0  0  0  0  0  0
  -28.3875  -16.8150   22.3146 H   0  0  0  0  0  0
  -29.1018  -21.3577   22.9459 H   0  0  0  0  0  0
  -30.6701  -21.3524   23.7121 H   0  0  0  0  0  0
  -31.3130  -23.4249   22.5192 H   0  0  0  0  0  0
  -29.8015  -23.6560   23.3700 H   0  0  0  0  0  0
  -29.7045  -23.0668   19.1813 H   0  0  0  0  0  0
  -31.2506  -23.0620   19.9942 H   0  0  0  0  0  0
  -31.7989  -21.0857   21.5600 H   0  0  0  0  0  0
  -29.0209  -21.0075   20.3265 H   0  0  0  0  0  0
  -31.7374  -20.6487   18.9795 H   0  0  0  0  0  0
  -30.2117  -20.8803   18.1312 H   0  0  0  0  0  0
  -30.4597  -19.4426   19.0984 H   0  0  0  0  0  0
  -34.9371  -18.7650   20.6389 H   0  0  0  0  0  0
  -33.8252  -17.5521   20.0167 H   0  0  0  0  0  0
  -34.3270  -17.5185   21.7219 H   0  0  0  0  0  0
  -29.4361  -25.4711   22.0100 H   0  0  0  0  0  0
  -30.5172  -25.3253   20.6478 H   0  0  0  0  0  0
  -27.4688  -25.0245   20.5778 H   0  0  0  0  0  0
  -28.4903  -24.9903   19.1386 H   0  0  0  0  0  0
  -29.4423  -14.7762   22.0823 H   0  0  0  0  0  0
  -28.6492  -23.1990   21.3425 H   0  0  0  0  0  0
  1 25  1  0  0  0
  1 30  2  0  0  0
  1 86  1  0  0  0
  2  3  1  0  0  0
  2 25  1  0  0  0
  2 89  1  0  0  0
  2 90  1  0  0  0
  3  4  1  0  0  0
  3 91  1  0  0  0
  3 92  1  0  0  0
  4  5  1  0  0  0
  4 93  1  0  0  0
  4 94  1  0  0  0
  5  6  1  0  0  0
  5 26  1  0  0  0
  5 95  1  0  0  0
  6 25  1  0  0  0
  6 96  1  0  0  0
  6 97  1  0  0  0
  7  8  2  0  0  0
  7 26  1  0  0  0
  7 29  1  0  0  0
  8  9  1  0  0  0
  8 22  1  0  0  0
  9 10  1  0  0  0
  9 27  2  0  0  0
 10 11  2  0  0  0
 10 15  1  0  0  0
 11 12  1  0  0  0
 11 98  1  0  0  0
 12 13  2  0  0  0
 12 99  1  0  0  0
 13 14  1  0  0  0
 13 31  1  0  0  0
 14 15  2  0  0  0
 14100  1  0  0  0
 15101  1  0  0  0
 16 17  2  0  0  0
 16 21  1  0  0  0
 16 31  1  0  0  0
 17 18  1  0  0  0
 17102  1  0  0  0
 18 19  2  0  0  0
 18103  1  0  0  0
 19 20  1  0  0  0
 19 24  1  0  0  0
 20 21  2  0  0  0
 20104  1  0  0  0
 21 23  1  0  0  0
 22 28  1  0  0  0
 22 32  2  0  0  0
 26 27  1  0  0  0
 28105  1  0  0  0
 28106  1  0  0  0
 29107  1  0  0  0
 29108  1  0  0  0
 33 34  1  0  0  0
 33 66  1  0  0  0
 33 70  2  0  0  0
 34 36  1  0  0  0
 34 59  1  0  0  0
 34109  1  0  0  0
 35 44  2  0  0  0
 35 45  1  0  0  0
 35 68  1  0  0  0
 36 56  1  0  0  0
 36110  1  0  0  0
 37 39  1  0  0  0
 37 47  1  0  0  0
 37 66  1  0  0  0
 37111  1  0  0  0
 38 43  2  0  0  0
 38 46  1  0  0  0
 38 47  1  0  0  0
 39 64  1  0  0  0
 39 67  2  0  0  0
 40 52  1  0  0  0
 40 53  2  0  0  0
 40 58  1  0  0  0
 41112  1  0  0  0
 41113  1  0  0  0
 41114  1  0  0  0
 41 48  1  0  0  0
 42 43  1  0  0  0
 42 66  1  0  0  0
 42115  1  0  0  0
 42116  1  0  0  0
 43 44  1  0  0  0
 44117  1  0  0  0
 45 46  2  0  0  0
 45118  1  0  0  0
 46119  1  0  0  0
 47120  1  0  0  0
 47121  1  0  0  0
 48 56  1  0  0  0
 48 65  1  0  0  0
 48122  1  0  0  0
 49 50  1  0  0  0
 49 53  1  0  0  0
 49 64  1  0  0  0
 49123  1  0  0  0
 50 51  1  0  0  0
 50124  1  0  0  0
 50125  1  0  0  0
 51 52  1  0  0  0
 51126  1  0  0  0
 51127  1  0  0  0
 52128  1  0  0  0
 52129  1  0  0  0
 53 54  1  0  0  0
 54 55  2  0  0  0
 54130  1  0  0  0
 55 57  1  0  0  0
 55131  1  0  0  0
 56 69  2  0  0  0
 57 58  2  0  0  0
 57132  1  0  0  0
 58133  1  0  0  0
 59 60  1  0  0  0
 59 61  1  0  0  0
 59 62  1  0  0  0
 60134  1  0  0  0
 60135  1  0  0  0
 60136  1  0  0  0
 61137  1  0  0  0
 61138  1  0  0  0
 61139  1  0  0  0
 62140  1  0  0  0
 62141  1  0  0  0
 62142  1  0  0  0
 63 65  1  0  0  0
 63143  1  0  0  0
 63144  1  0  0  0
 63145  1  0  0  0
 64146  1  0  0  0
 65147  1  0  0  0
 68 84  1  0  0  0
 71 72  2  0  0  0
 71 73  1  0  0  0
 71148  1  0  0  0
 72 74  1  0  0  0
 72149  1  0  0  0
 73 75  2  0  0  0
 73 79  1  0  0  0
 74 85  2  0  0  0
 74 86  1  0  0  0
 75 85  1  0  0  0
 75 88  1  0  0  0
 76 77  1  0  0  0
 76 79  1  0  0  0
 76150  1  0  0  0
 76151  1  0  0  0
 77 87  1  0  0  0
 77152  1  0  0  0
 77153  1  0  0  0
 78 80  1  0  0  0
 78 87  1  0  0  0
 78154  1  0  0  0
 78155  1  0  0  0
 79 80  1  0  0  0
 79156  1  0  0  0
 80 81  1  0  0  0
 80157  1  0  0  0
 81158  1  0  0  0
 81159  1  0  0  0
 81160  1  0  0  0
 82 88  1  0  0  0
 82161  1  0  0  0
 82162  1  0  0  0
 82163  1  0  0  0
 83 84  1  0  0  0
 83164  1  0  0  0
 83165  1  0  0  0
 83 87  1  0  0  0
 84166  1  0  0  0
 84167  1  0  0  0
 86168  1  0  0  0
 87169  1  0  0  0
M  CHG  1  87   1
M  ISO  4   1 100  68 101  84 101  86 100
M  END
> <chiral flag>
0

> <version>
0

> <s_m_source_file>
/data/baiqing/PycharmProjects/Reinvent-master-3.2/result/LINK_invent/BTK/process_docking_weight1_custom_sum_contain_oxygen_bond_distance_aromatic_linkinvent_7_9_3/rearranged_h_0150.sdf

> <i_m_source_file_index>
85

> <r_mmod_Potential_Energy-OPLS-2005>
-282.764282226562

> <r_mmod_Stretch_Energy-OPLS-2005>
32.5207748413086

> <r_mmod_Bend_Energy-OPLS-2005>
103.559875488281

> <r_mmod_Torsional_Energy-OPLS-2005>
234.036529541016

> <r_mmod_Improper_Torsional_Energy-OPLS-2005>
3.41703748703003

> <r_mmod_Van_der_Waal_Energy-OPLS-2005>
177.437484741211

> <r_mmod_Electrostatic_Energy-OPLS-2005>
-395.953674316406

> <r_mmod_Solvation_Energy-OPLS-2005>
-445.543731689453

> <b_mmod_Minimization_Converged-OPLS-2005>
0

> <r_mmod_RMS_Derivative-OPLS-2005>
0.620364129543304

$$$$
85
                    3D
 Structure written by MMmdl.
163171  0  0  1  0            999 V2000
  -30.6886  -14.6124   20.5155 C   0  0  0  0  0  0
  -30.4225  -12.3813   19.4612 C   0  0  0  0  0  0
  -29.5019  -12.4984   18.2282 C   0  0  0  0  0  0
  -28.0279  -12.3401   18.6438 C   0  0  0  0  0  0
  -27.6509  -13.2263   19.8616 C   0  0  2  0  0  0
  -28.6955  -13.1147   20.9956 C   0  0  0  0  0  0
  -25.2543  -13.8199   20.5713 C   0  0  0  0  0  0
  -24.1820  -13.0447   20.9207 C   0  0  0  0  0  0
  -24.6406  -11.6925   20.8754 C   0  0  0  0  0  0
  -23.9079  -10.4299   21.0414 C   0  0  0  0  0  0
  -24.3629   -9.4215   21.9190 C   0  0  0  0  0  0
  -23.6306   -8.2249   22.0754 C   0  0  0  0  0  0
  -22.4283   -8.0286   21.3556 C   0  0  0  0  0  0
  -21.9926   -9.0259   20.4647 C   0  0  0  0  0  0
  -22.7253  -10.2139   20.3056 C   0  0  0  0  0  0
  -21.6849   -6.0743   22.5287 C   0  0  0  0  0  0
  -21.4010   -6.5649   23.8219 C   0  0  0  0  0  0
  -21.3660   -5.6798   24.9179 C   0  0  0  0  0  0
  -21.6041   -4.3063   24.7227 C   0  0  0  0  0  0
  -21.8818   -3.8159   23.4345 C   0  0  0  0  0  0
  -21.9193   -4.6974   22.3405 C   0  0  0  0  0  0
  -22.7841  -13.5229   21.1869 C   0  0  0  0  0  0
  -22.1660   -4.2166   21.0980 F   0  0  0  0  0  0
  -21.5629   -3.4540   25.7734 F   0  0  0  0  0  0
  -30.0121  -13.4255   20.4231 N   0  0  0  0  0  0
  -26.2984  -12.9406   20.3340 N   0  0  0  0  0  0
  -25.9340  -11.6547   20.5782 N   0  0  0  0  0  0
  -22.0485  -12.8206   22.0414 N   0  0  0  0  0  0
  -25.4249  -15.1925   20.4138 N   0  0  0  0  0  0
  -31.8539  -14.7126   20.1287 O   0  0  0  0  0  0
  -21.6643   -6.8890   21.4251 O   0  0  0  0  0  0
  -22.3532  -14.5549   20.6737 O   0  0  0  0  0  0
  -24.6287  -31.8619   23.2085 C   0  0  0  0  0  0
  -25.9141  -32.4789   23.8385 C   0  0  1  0  0  0
  -27.2028  -27.3068   20.0973 C   0  0  0  0  0  0
  -25.5964  -33.8588   24.2299 N   0  0  0  0  0  0
  -23.4207  -30.4963   21.5516 C   0  0  2  0  0  0
  -24.8614  -28.9700   20.1069 C   0  0  0  0  0  0
  -22.7488  -29.4654   22.4917 C   0  0  0  0  0  0
  -18.0296  -28.1382   22.8491 C   0  0  0  0  0  0
  -24.1496  -36.7290   23.2638 C   0  0  0  0  0  0
  -25.9701  -30.7878   21.3871 C   0  0  0  0  0  0
  -26.0383  -29.4195   20.7214 C   0  0  0  0  0  0
  -27.2114  -28.5998   20.7143 C   0  0  0  0  0  0
  -25.9985  -26.9459   19.4324 C   0  0  0  0  0  0
  -24.8463  -27.7377   19.4533 C   0  0  0  0  0  0
  -23.6336  -29.8508   20.1618 C   0  0  0  0  0  0
  -25.4116  -36.3078   24.0327 C   0  0  1  0  0  0
  -20.5904  -28.3698   23.1265 C   0  0  2  0  0  0
  -20.6787  -26.9417   22.5395 C   0  0  0  0  0  0
  -19.5761  -26.6381   21.5208 C   0  0  0  0  0  0
  -18.1942  -26.7926   22.1618 C   0  0  0  0  0  0
  -19.1550  -28.8857   23.2882 C   0  0  0  0  0  0
  -18.9469  -30.1462   23.8897 C   0  0  0  0  0  0
  -17.6467  -30.6585   24.0574 C   0  0  0  0  0  0
  -25.9057  -34.9454   23.5100 C   0  0  0  0  0  0
  -16.5362  -29.9082   23.6337 C   0  0  0  0  0  0
  -16.7280  -28.6500   23.0352 C   0  0  0  0  0  0
  -26.4510  -31.6589   25.0748 C   0  0  0  0  0  0
  -25.3733  -31.3735   26.1468 C   0  0  0  0  0  0
  -27.0359  -30.3006   24.6224 C   0  0  0  0  0  0
  -27.6061  -32.4333   25.7524 C   0  0  0  0  0  0
  -27.5581  -37.1807   24.8466 C   0  0  0  0  0  0
  -21.4202  -29.3058   22.3663 N   0  0  0  0  0  0
  -26.4290  -37.3775   23.9411 N   0  0  0  0  0  0
  -24.6923  -31.0639   22.1046 N   0  0  0  0  0  0
  -23.4214  -28.8151   23.2956 O   0  0  0  0  0  0
  -28.2743  -26.3824   20.1672 O   0  0  0  0  0  0
  -26.5609  -34.8919   22.4658 O   0  0  0  0  0  0
  -23.5441  -32.1405   23.7408 O   0  0  0  0  0  0
  -28.2095  -22.5468   19.2795 C   0  0  0  0  0  0
  -30.1373  -22.0198   21.1764 C   0  0  0  0  0  0
  -28.6652  -23.6522   20.0435 C   0  0  0  0  0  0
  -28.6941  -21.2129   19.4145 C   0  0  0  0  0  0
  -29.6582  -23.3620   21.0123 C   0  0  0  0  0  0
  -29.6640  -20.9074   20.4162 C   0  0  0  0  0  0
  -30.2032  -24.4734   21.8883 C   0  0  0  0  0  0
  -28.1690  -20.6395   16.9688 C   0  0  0  0  0  0
  -26.7720  -19.6736   18.8473 C   0  0  0  0  0  0
  -27.8836  -24.9948   19.8078 C   0  0  0  0  0  0
  -30.5586  -17.1372   20.7940 C   0  0  0  0  0  0
  -29.5831  -18.3891   20.8635 C   0  0  0  0  0  0
  -28.1707  -20.1615   18.4332 C   0  0  0  0  0  0
  -29.9966  -15.7399   20.8597 N   0  0  0  0  0  0
  -30.2862  -19.6526   20.5969 O   0  0  0  0  0  0
  -31.4678  -12.4739   19.1611 H   0  0  0  0  0  0
  -30.3318  -11.3942   19.9167 H   0  0  0  0  0  0
  -29.7637  -11.7404   17.4886 H   0  0  0  0  0  0
  -29.6480  -13.4655   17.7439 H   0  0  0  0  0  0
  -27.8711  -11.2895   18.8910 H   0  0  0  0  0  0
  -27.3692  -12.5541   17.8013 H   0  0  0  0  0  0
  -27.6622  -14.2565   19.5050 H   0  0  0  0  0  0
  -28.6993  -12.1102   21.4210 H   0  0  0  0  0  0
  -28.4500  -13.7909   21.8158 H   0  0  0  0  0  0
  -25.2769   -9.5682   22.4774 H   0  0  0  0  0  0
  -24.0006   -7.4634   22.7471 H   0  0  0  0  0  0
  -21.0861   -8.8786   19.8949 H   0  0  0  0  0  0
  -22.3728  -10.9681   19.6167 H   0  0  0  0  0  0
  -21.2001   -7.6157   23.9732 H   0  0  0  0  0  0
  -21.1481   -6.0525   25.9081 H   0  0  0  0  0  0
  -22.0597   -2.7623   23.2841 H   0  0  0  0  0  0
  -22.4096  -11.9838   22.4751 H   0  0  0  0  0  0
  -21.1114  -13.1237   22.2645 H   0  0  0  0  0  0
  -24.6569  -15.8455   20.5238 H   0  0  0  0  0  0
  -26.2752  -15.6328   20.0866 H   0  0  0  0  0  0
  -26.7211  -32.5437   23.1125 H   0  0  0  0  0  0
  -25.0157  -33.9740   25.0477 H   0  0  0  0  0  0
  -22.7165  -31.3206   21.4180 H   0  0  0  0  0  0
  -23.3754  -35.9625   23.3292 H   0  0  0  0  0  0
  -24.3588  -36.8901   22.2053 H   0  0  0  0  0  0
  -23.7244  -37.6491   23.6656 H   0  0  0  0  0  0
  -26.1142  -31.5542   20.6246 H   0  0  0  0  0  0
  -26.8475  -30.8233   22.0208 H   0  0  0  0  0  0
  -28.1065  -28.9354   21.2188 H   0  0  0  0  0  0
  -25.8742  -26.0245   18.8872 H   0  0  0  0  0  0
  -23.9503  -27.3946   18.9525 H   0  0  0  0  0  0
  -23.7556  -30.6360   19.4146 H   0  0  0  0  0  0
  -22.7518  -29.2863   19.8520 H   0  0  0  0  0  0
  -25.1292  -36.1932   25.0814 H   0  0  0  0  0  0
  -21.0023  -28.3270   24.1372 H   0  0  0  0  0  0
  -20.5705  -26.2303   23.3594 H   0  0  0  0  0  0
  -21.6653  -26.7447   22.1179 H   0  0  0  0  0  0
  -19.6930  -25.6294   21.1231 H   0  0  0  0  0  0
  -19.6699  -27.3206   20.6752 H   0  0  0  0  0  0
  -17.4213  -26.6702   21.4015 H   0  0  0  0  0  0
  -18.0331  -26.0050   22.8998 H   0  0  0  0  0  0
  -19.7946  -30.7289   24.2249 H   0  0  0  0  0  0
  -17.5018  -31.6268   24.5180 H   0  0  0  0  0  0
  -15.5366  -30.2992   23.7659 H   0  0  0  0  0  0
  -15.8674  -28.0829   22.7058 H   0  0  0  0  0  0
  -24.5939  -30.7046   25.7801 H   0  0  0  0  0  0
  -24.8895  -32.2901   26.4855 H   0  0  0  0  0  0
  -25.8045  -30.8951   27.0270 H   0  0  0  0  0  0
  -26.2946  -29.6759   24.1222 H   0  0  0  0  0  0
  -27.4021  -29.7253   25.4737 H   0  0  0  0  0  0
  -27.8832  -30.4280   23.9480 H   0  0  0  0  0  0
  -27.2665  -33.3650   26.2061 H   0  0  0  0  0  0
  -28.3896  -32.6859   25.0369 H   0  0  0  0  0  0
  -28.0703  -31.8482   26.5470 H   0  0  0  0  0  0
  -28.2592  -38.0117   24.7508 H   0  0  0  0  0  0
  -28.1078  -36.2634   24.6284 H   0  0  0  0  0  0
  -27.2294  -37.1445   25.8871 H   0  0  0  0  0  0
  -20.9371  -29.8808   21.6910 H   0  0  0  0  0  0
  -26.0160  -38.2843   24.1409 H   0  0  0  0  0  0
  -27.4323  -22.7363   18.5538 H   0  0  0  0  0  0
  -30.9040  -21.8338   21.9163 H   0  0  0  0  0  0
  -30.9488  -24.1020   22.5913 H   0  0  0  0  0  0
  -29.3967  -24.9340   22.4594 H   0  0  0  0  0  0
  -30.6711  -25.2467   21.2773 H   0  0  0  0  0  0
  -29.1571  -20.9887   16.6667 H   0  0  0  0  0  0
  -27.4568  -21.4430   16.7843 H   0  0  0  0  0  0
  -27.8985  -19.8198   16.3019 H   0  0  0  0  0  0
  -26.7680  -19.2692   19.8595 H   0  0  0  0  0  0
  -26.4138  -18.8894   18.1804 H   0  0  0  0  0  0
  -26.0450  -20.4854   18.8217 H   0  0  0  0  0  0
  -26.9391  -24.7729   20.3077 H   0  0  0  0  0  0
  -27.7035  -25.0072   18.7315 H   0  0  0  0  0  0
  -31.2970  -17.2335   21.5914 H   0  0  0  0  0  0
  -31.1229  -17.2224   19.8641 H   0  0  0  0  0  0
  -29.1419  -18.4490   21.8594 H   0  0  0  0  0  0
  -28.7535  -18.2170   20.1872 H   0  0  0  0  0  0
  -28.8624  -19.3232   18.4310 H   0  0  0  0  0  0
  -29.0313  -15.6277   21.1332 H   0  0  0  0  0  0
  1 25  1  0  0  0
  1 30  2  0  0  0
  1 84  1  0  0  0
  2  3  1  0  0  0
  2 25  1  0  0  0
  2 86  1  0  0  0
  2 87  1  0  0  0
  3  4  1  0  0  0
  3 88  1  0  0  0
  3 89  1  0  0  0
  4  5  1  0  0  0
  4 90  1  0  0  0
  4 91  1  0  0  0
  5  6  1  0  0  0
  5 26  1  0  0  0
  5 92  1  0  0  0
  6 25  1  0  0  0
  6 93  1  0  0  0
  6 94  1  0  0  0
  7  8  2  0  0  0
  7 26  1  0  0  0
  7 29  1  0  0  0
  8  9  1  0  0  0
  8 22  1  0  0  0
  9 10  1  0  0  0
  9 27  2  0  0  0
 10 11  2  0  0  0
 10 15  1  0  0  0
 11 12  1  0  0  0
 11 95  1  0  0  0
 12 13  2  0  0  0
 12 96  1  0  0  0
 13 14  1  0  0  0
 13 31  1  0  0  0
 14 15  2  0  0  0
 14 97  1  0  0  0
 15 98  1  0  0  0
 16 17  2  0  0  0
 16 21  1  0  0  0
 16 31  1  0  0  0
 17 18  1  0  0  0
 17 99  1  0  0  0
 18 19  2  0  0  0
 18100  1  0  0  0
 19 20  1  0  0  0
 19 24  1  0  0  0
 20 21  2  0  0  0
 20101  1  0  0  0
 21 23  1  0  0  0
 22 28  1  0  0  0
 22 32  2  0  0  0
 26 27  1  0  0  0
 28102  1  0  0  0
 28103  1  0  0  0
 29104  1  0  0  0
 29105  1  0  0  0
 33 34  1  0  0  0
 33 66  1  0  0  0
 33 70  2  0  0  0
 34 36  1  0  0  0
 34 59  1  0  0  0
 34106  1  0  0  0
 35 44  2  0  0  0
 35 45  1  0  0  0
 35 68  1  0  0  0
 36 56  1  0  0  0
 36107  1  0  0  0
 37 39  1  0  0  0
 37 47  1  0  0  0
 37 66  1  0  0  0
 37108  1  0  0  0
 38 43  2  0  0  0
 38 46  1  0  0  0
 38 47  1  0  0  0
 39 64  1  0  0  0
 39 67  2  0  0  0
 40 52  1  0  0  0
 40 53  2  0  0  0
 40 58  1  0  0  0
 41109  1  0  0  0
 41110  1  0  0  0
 41111  1  0  0  0
 41 48  1  0  0  0
 42 43  1  0  0  0
 42 66  1  0  0  0
 42112  1  0  0  0
 42113  1  0  0  0
 43 44  1  0  0  0
 44114  1  0  0  0
 45 46  2  0  0  0
 45115  1  0  0  0
 46116  1  0  0  0
 47117  1  0  0  0
 47118  1  0  0  0
 48 56  1  0  0  0
 48 65  1  0  0  0
 48119  1  0  0  0
 49 50  1  0  0  0
 49 53  1  0  0  0
 49 64  1  0  0  0
 49120  1  0  0  0
 50 51  1  0  0  0
 50121  1  0  0  0
 50122  1  0  0  0
 51 52  1  0  0  0
 51123  1  0  0  0
 51124  1  0  0  0
 52125  1  0  0  0
 52126  1  0  0  0
 53 54  1  0  0  0
 54 55  2  0  0  0
 54127  1  0  0  0
 55 57  1  0  0  0
 55128  1  0  0  0
 56 69  2  0  0  0
 57 58  2  0  0  0
 57129  1  0  0  0
 58130  1  0  0  0
 59 60  1  0  0  0
 59 61  1  0  0  0
 59 62  1  0  0  0
 60131  1  0  0  0
 60132  1  0  0  0
 60133  1  0  0  0
 61134  1  0  0  0
 61135  1  0  0  0
 61136  1  0  0  0
 62137  1  0  0  0
 62138  1  0  0  0
 62139  1  0  0  0
 63 65  1  0  0  0
 63140  1  0  0  0
 63141  1  0  0  0
 63142  1  0  0  0
 64143  1  0  0  0
 65144  1  0  0  0
 68 80  1  0  0  0
 71 73  2  0  0  0
 71 74  1  0  0  0
 71145  1  0  0  0
 72 75  2  0  0  0
 72 76  1  0  0  0
 72146  1  0  0  0
 73 75  1  0  0  0
 73 80  1  0  0  0
 74 76  2  0  0  0
 74 83  1  0  0  0
 75 77  1  0  0  0
 76 85  1  0  0  0
 77147  1  0  0  0
 77148  1  0  0  0
 77149  1  0  0  0
 78150  1  0  0  0
 78151  1  0  0  0
 78152  1  0  0  0
 78 83  1  0  0  0
 79 83  1  0  0  0
 79153  1  0  0  0
 79154  1  0  0  0
 79155  1  0  0  0
 80156  1  0  0  0
 80157  1  0  0  0
 81 82  1  0  0  0
 81 84  1  0  0  0
 81158  1  0  0  0
 81159  1  0  0  0
 82 85  1  0  0  0
 82160  1  0  0  0
 82161  1  0  0  0
 83162  1  0  0  0
 84163  1  0  0  0
M  ISO  4   1 100  68 101  80 101  84 100
M  END
> <chiral flag>
0

> <version>
0

> <s_m_source_file>
/data/baiqing/PycharmProjects/Reinvent-master-3.2/result/LINK_invent/BTK/process_docking_weight1_custom_sum_contain_oxygen_bond_distance_aromatic_linkinvent_7_9_3/rearranged_h_0150.sdf

> <i_m_source_file_index>
86

> <r_mmod_Potential_Energy-OPLS-2005>
96.6684417724609

> <r_mmod_Stretch_Energy-OPLS-2005>
82.1073684692383

> <r_mmod_Bend_Energy-OPLS-2005>
180.814926147461

> <r_mmod_Torsional_Energy-OPLS-2005>
227.195663452148

> <r_mmod_Improper_Torsional_Energy-OPLS-2005>
5.40449380874634

> <r_mmod_Van_der_Waal_Energy-OPLS-2005>
162.622695922852

> <r_mmod_Electrostatic_Energy-OPLS-2005>
-409.592620849609

> <r_mmod_Solvation_Energy-OPLS-2005>
-207.599090576172

> <b_mmod_Minimization_Converged-OPLS-2005>
0

> <r_mmod_RMS_Derivative-OPLS-2005>
1.48730218410492

$$$$
86
                    3D
 Structure written by MMmdl.
160169  0  0  1  0            999 V2000
  -30.6095  -14.8320   20.4551 C   0  0  0  0  0  0
  -30.4255  -12.5080   19.5115 C   0  0  0  0  0  0
  -29.5118  -12.5169   18.2648 C   0  0  0  0  0  0
  -28.0424  -12.3238   18.6775 C   0  0  0  0  0  0
  -27.6354  -13.2470   19.8565 C   0  0  2  0  0  0
  -28.6755  -13.2403   21.0007 C   0  0  0  0  0  0
  -25.2441  -13.8224   20.5734 C   0  0  0  0  0  0
  -24.1757  -13.0433   20.9222 C   0  0  0  0  0  0
  -24.6379  -11.6913   20.8753 C   0  0  0  0  0  0
  -23.9075  -10.4281   21.0394 C   0  0  0  0  0  0
  -24.3618   -9.4195   21.9181 C   0  0  0  0  0  0
  -23.6291   -8.2233   22.0752 C   0  0  0  0  0  0
  -22.4277   -8.0275   21.3540 C   0  0  0  0  0  0
  -21.9916   -9.0243   20.4632 C   0  0  0  0  0  0
  -22.7246  -10.2120   20.3045 C   0  0  0  0  0  0
  -21.6857   -6.0734   22.5271 C   0  0  0  0  0  0
  -21.4018   -6.5643   23.8206 C   0  0  0  0  0  0
  -21.3662   -5.6792   24.9161 C   0  0  0  0  0  0
  -21.6042   -4.3052   24.7211 C   0  0  0  0  0  0
  -21.8813   -3.8147   23.4334 C   0  0  0  0  0  0
  -21.9191   -4.6963   22.3393 C   0  0  0  0  0  0
  -22.7772  -13.5192   21.1904 C   0  0  0  0  0  0
  -22.1656   -4.2149   21.0970 F   0  0  0  0  0  0
  -21.5633   -3.4541   25.7727 F   0  0  0  0  0  0
  -29.9762  -13.5994   20.4196 N   0  0  0  0  0  0
  -26.2900  -12.9464   20.3342 N   0  0  0  0  0  0
  -25.9327  -11.6592   20.5805 N   0  0  0  0  0  0
  -22.0463  -12.8143   22.0459 N   0  0  0  0  0  0
  -25.4083  -15.1950   20.4151 N   0  0  0  0  0  0
  -31.7855  -14.8889   20.0829 O   0  0  0  0  0  0
  -21.6648   -6.8871   21.4232 O   0  0  0  0  0  0
  -22.3417  -14.5496   20.6771 O   0  0  0  0  0  0
  -24.6403  -31.8504   23.1990 C   0  0  0  0  0  0
  -25.9198  -32.4756   23.8344 C   0  0  1  0  0  0
  -27.2023  -27.1911   20.1272 C   0  0  0  0  0  0
  -25.5985  -33.8555   24.2246 N   0  0  0  0  0  0
  -23.4395  -30.4785   21.5438 C   0  0  2  0  0  0
  -24.8848  -28.9279   20.1087 C   0  0  0  0  0  0
  -22.7563  -29.4578   22.4878 C   0  0  0  0  0  0
  -18.0289  -28.1420   22.8475 C   0  0  0  0  0  0
  -24.1461  -36.7263   23.2640 C   0  0  0  0  0  0
  -25.9954  -30.7400   21.3925 C   0  0  0  0  0  0
  -26.0629  -29.3597   20.7296 C   0  0  0  0  0  0
  -27.2231  -28.5048   20.7333 C   0  0  0  0  0  0
  -26.0015  -26.8686   19.4493 C   0  0  0  0  0  0
  -24.8628  -27.6912   19.4579 C   0  0  0  0  0  0
  -23.6622  -29.8241   20.1572 C   0  0  0  0  0  0
  -25.4094  -36.3065   24.0318 C   0  0  1  0  0  0
  -20.5902  -28.3730   23.1241 C   0  0  2  0  0  0
  -20.6784  -26.9437   22.5383 C   0  0  0  0  0  0
  -19.5735  -26.6372   21.5225 C   0  0  0  0  0  0
  -18.1908  -26.7950   22.1616 C   0  0  0  0  0  0
  -19.1552  -28.8887   23.2851 C   0  0  0  0  0  0
  -18.9492  -30.1489   23.8873 C   0  0  0  0  0  0
  -17.6498  -30.6620   24.0558 C   0  0  0  0  0  0
  -25.9052  -34.9441   23.5073 C   0  0  0  0  0  0
  -16.5378  -29.9112   23.6373 C   0  0  0  0  0  0
  -16.7276  -28.6528   23.0383 C   0  0  0  0  0  0
  -26.4527  -31.6649   25.0787 C   0  0  0  0  0  0
  -25.3699  -31.3838   26.1477 C   0  0  0  0  0  0
  -27.0453  -30.3088   24.6328 C   0  0  0  0  0  0
  -27.6013  -32.4452   25.7596 C   0  0  0  0  0  0
  -27.5551  -37.1795   24.8467 C   0  0  0  0  0  0
  -21.4253  -29.3093   22.3657 N   0  0  0  0  0  0
  -26.4260  -37.3776   23.9411 N   0  0  0  0  0  0
  -24.7114  -31.0407   22.1012 N   0  0  0  0  0  0
  -23.4228  -28.8054   23.2955 O   0  0  0  0  0  0
  -28.2324  -26.1943   20.2202 O   0  0  0  0  0  0
  -26.5586  -34.8923   22.4614 O   0  0  0  0  0  0
  -23.5532  -32.1340   23.7254 O   0  0  0  0  0  0
  -28.9654  -22.4176   19.1876 C   0  0  0  0  0  0
  -28.5582  -22.7343   21.4907 C   0  0  0  0  0  0
  -29.2436  -20.3974   20.7007 C   0  0  0  0  0  0
  -28.5790  -23.3472   20.2072 C   0  0  0  0  0  0
  -29.2857  -21.0195   19.4065 C   0  0  0  0  0  0
  -28.8621  -21.3380   21.7316 C   0  0  0  0  0  0
  -30.7417  -18.6374   21.9891 C   0  0  0  0  0  0
  -31.5212  -17.9624   20.8604 C   0  0  0  0  0  0
  -29.5333  -18.8120   21.0451 C   0  0  2  0  0  0
  -30.1833  -17.4897   20.2747 C   0  0  2  0  0  0
  -29.6191  -20.1783   18.1895 C   0  0  0  0  0  0
  -28.7050  -20.8635   23.1687 C   0  0  0  0  0  0
  -27.8533  -24.7568   19.8546 C   0  0  0  0  0  0
  -29.8846  -16.0135   20.6980 N   0  0  0  0  0  0
  -31.4675  -12.6196   19.2099 H   0  0  0  0  0  0
  -30.3717  -11.5447   20.0221 H   0  0  0  0  0  0
  -29.8094  -11.7310   17.5703 H   0  0  0  0  0  0
  -29.6210  -13.4621   17.7314 H   0  0  0  0  0  0
  -27.9194  -11.2800   18.9706 H   0  0  0  0  0  0
  -27.3782  -12.4780   17.8251 H   0  0  0  0  0  0
  -27.6123  -14.2579   19.4480 H   0  0  0  0  0  0
  -28.7186  -12.2639   21.4846 H   0  0  0  0  0  0
  -28.3901  -13.9520   21.7775 H   0  0  0  0  0  0
  -25.2754   -9.5682   22.4761 H   0  0  0  0  0  0
  -24.0010   -7.4620   22.7473 H   0  0  0  0  0  0
  -21.0863   -8.8741   19.8922 H   0  0  0  0  0  0
  -22.3701  -10.9655   19.6153 H   0  0  0  0  0  0
  -21.2012   -7.6155   23.9706 H   0  0  0  0  0  0
  -21.1500   -6.0525   25.9062 H   0  0  0  0  0  0
  -22.0594   -2.7611   23.2829 H   0  0  0  0  0  0
  -22.4142  -11.9789   22.4773 H   0  0  0  0  0  0
  -21.1077  -13.1109   22.2750 H   0  0  0  0  0  0
  -24.6310  -15.8400   20.5144 H   0  0  0  0  0  0
  -26.2505  -15.6421   20.0765 H   0  0  0  0  0  0
  -26.7259  -32.5375   23.1062 H   0  0  0  0  0  0
  -25.0321  -33.9699   25.0529 H   0  0  0  0  0  0
  -22.7409  -31.3055   21.3981 H   0  0  0  0  0  0
  -23.3751  -35.9575   23.3294 H   0  0  0  0  0  0
  -24.3544  -36.8906   22.2062 H   0  0  0  0  0  0
  -23.7185  -37.6442   23.6674 H   0  0  0  0  0  0
  -26.1461  -31.4945   20.6197 H   0  0  0  0  0  0
  -26.8688  -30.7859   22.0318 H   0  0  0  0  0  0
  -28.1142  -28.8224   21.2556 H   0  0  0  0  0  0
  -25.8743  -25.9387   18.9180 H   0  0  0  0  0  0
  -23.9647  -27.3548   18.9586 H   0  0  0  0  0  0
  -23.8022  -30.6050   19.4079 H   0  0  0  0  0  0
  -22.7758  -29.2709   19.8427 H   0  0  0  0  0  0
  -25.1275  -36.1900   25.0814 H   0  0  0  0  0  0
  -20.9998  -28.3284   24.1358 H   0  0  0  0  0  0
  -20.5739  -26.2327   23.3590 H   0  0  0  0  0  0
  -21.6640  -26.7470   22.1130 H   0  0  0  0  0  0
  -19.6895  -25.6273   21.1289 H   0  0  0  0  0  0
  -19.6689  -27.3144   20.6725 H   0  0  0  0  0  0
  -17.4194  -26.6751   21.3993 H   0  0  0  0  0  0
  -18.0265  -26.0089   22.9000 H   0  0  0  0  0  0
  -19.7975  -30.7306   24.2223 H   0  0  0  0  0  0
  -17.5056  -31.6318   24.5132 H   0  0  0  0  0  0
  -15.5378  -30.3017   23.7723 H   0  0  0  0  0  0
  -15.8660  -28.0846   22.7143 H   0  0  0  0  0  0
  -24.5842  -30.7237   25.7780 H   0  0  0  0  0  0
  -24.8947  -32.3062   26.4855 H   0  0  0  0  0  0
  -25.7959  -30.9026   27.0294 H   0  0  0  0  0  0
  -26.3139  -29.6795   24.1256 H   0  0  0  0  0  0
  -27.4081  -29.7380   25.4886 H   0  0  0  0  0  0
  -27.8981  -30.4426   23.9663 H   0  0  0  0  0  0
  -27.2570  -33.3778   26.2071 H   0  0  0  0  0  0
  -28.3891  -32.6992   25.0495 H   0  0  0  0  0  0
  -28.0592  -31.8674   26.5634 H   0  0  0  0  0  0
  -28.2551  -38.0111   24.7550 H   0  0  0  0  0  0
  -28.1077  -36.2648   24.6262 H   0  0  0  0  0  0
  -27.2270  -37.1392   25.8873 H   0  0  0  0  0  0
  -20.9440  -29.8952   21.6979 H   0  0  0  0  0  0
  -26.0133  -38.2834   24.1477 H   0  0  0  0  0  0
  -28.9413  -22.7799   18.1704 H   0  0  0  0  0  0
  -28.2159  -23.3425   22.3172 H   0  0  0  0  0  0
  -31.2096  -19.5606   22.3298 H   0  0  0  0  0  0
  -30.5467  -17.9617   22.8243 H   0  0  0  0  0  0
  -32.2145  -17.1958   21.2039 H   0  0  0  0  0  0
  -32.0298  -18.6809   20.2137 H   0  0  0  0  0  0
  -28.6243  -18.4657   21.5377 H   0  0  0  0  0  0
  -30.1533  -17.5958   19.1918 H   0  0  0  0  0  0
  -29.7255  -20.7890   17.2935 H   0  0  0  0  0  0
  -28.8289  -19.4505   18.0036 H   0  0  0  0  0  0
  -30.5602  -19.6512   18.3323 H   0  0  0  0  0  0
  -28.1772  -21.5986   23.7783 H   0  0  0  0  0  0
  -29.6780  -20.7032   23.6308 H   0  0  0  0  0  0
  -28.1329  -19.9381   23.2276 H   0  0  0  0  0  0
  -26.8600  -24.5830   20.2707 H   0  0  0  0  0  0
  -27.7242  -24.7500   18.7710 H   0  0  0  0  0  0
  -28.9470  -15.8585   21.0381 H   0  0  0  0  0  0
  1 25  1  0  0  0
  1 30  2  0  0  0
  1 84  1  0  0  0
  2  3  1  0  0  0
  2 25  1  0  0  0
  2 85  1  0  0  0
  2 86  1  0  0  0
  3  4  1  0  0  0
  3 87  1  0  0  0
  3 88  1  0  0  0
  4  5  1  0  0  0
  4 89  1  0  0  0
  4 90  1  0  0  0
  5  6  1  0  0  0
  5 26  1  0  0  0
  5 91  1  0  0  0
  6 25  1  0  0  0
  6 92  1  0  0  0
  6 93  1  0  0  0
  7  8  2  0  0  0
  7 26  1  0  0  0
  7 29  1  0  0  0
  8  9  1  0  0  0
  8 22  1  0  0  0
  9 10  1  0  0  0
  9 27  2  0  0  0
 10 11  2  0  0  0
 10 15  1  0  0  0
 11 12  1  0  0  0
 11 94  1  0  0  0
 12 13  2  0  0  0
 12 95  1  0  0  0
 13 14  1  0  0  0
 13 31  1  0  0  0
 14 15  2  0  0  0
 14 96  1  0  0  0
 15 97  1  0  0  0
 16 17  2  0  0  0
 16 21  1  0  0  0
 16 31  1  0  0  0
 17 18  1  0  0  0
 17 98  1  0  0  0
 18 19  2  0  0  0
 18 99  1  0  0  0
 19 20  1  0  0  0
 19 24  1  0  0  0
 20 21  2  0  0  0
 20100  1  0  0  0
 21 23  1  0  0  0
 22 28  1  0  0  0
 22 32  2  0  0  0
 26 27  1  0  0  0
 28101  1  0  0  0
 28102  1  0  0  0
 29103  1  0  0  0
 29104  1  0  0  0
 33 34  1  0  0  0
 33 66  1  0  0  0
 33 70  2  0  0  0
 34 36  1  0  0  0
 34 59  1  0  0  0
 34105  1  0  0  0
 35 44  2  0  0  0
 35 45  1  0  0  0
 35 68  1  0  0  0
 36 56  1  0  0  0
 36106  1  0  0  0
 37 39  1  0  0  0
 37 47  1  0  0  0
 37 66  1  0  0  0
 37107  1  0  0  0
 38 43  2  0  0  0
 38 46  1  0  0  0
 38 47  1  0  0  0
 39 64  1  0  0  0
 39 67  2  0  0  0
 40 52  1  0  0  0
 40 53  2  0  0  0
 40 58  1  0  0  0
 41108  1  0  0  0
 41109  1  0  0  0
 41110  1  0  0  0
 41 48  1  0  0  0
 42 43  1  0  0  0
 42 66  1  0  0  0
 42111  1  0  0  0
 42112  1  0  0  0
 43 44  1  0  0  0
 44113  1  0  0  0
 45 46  2  0  0  0
 45114  1  0  0  0
 46115  1  0  0  0
 47116  1  0  0  0
 47117  1  0  0  0
 48 56  1  0  0  0
 48 65  1  0  0  0
 48118  1  0  0  0
 49 50  1  0  0  0
 49 53  1  0  0  0
 49 64  1  0  0  0
 49119  1  0  0  0
 50 51  1  0  0  0
 50120  1  0  0  0
 50121  1  0  0  0
 51 52  1  0  0  0
 51122  1  0  0  0
 51123  1  0  0  0
 52124  1  0  0  0
 52125  1  0  0  0
 53 54  1  0  0  0
 54 55  2  0  0  0
 54126  1  0  0  0
 55 57  1  0  0  0
 55127  1  0  0  0
 56 69  2  0  0  0
 57 58  2  0  0  0
 57128  1  0  0  0
 58129  1  0  0  0
 59 60  1  0  0  0
 59 61  1  0  0  0
 59 62  1  0  0  0
 60130  1  0  0  0
 60131  1  0  0  0
 60132  1  0  0  0
 61133  1  0  0  0
 61134  1  0  0  0
 61135  1  0  0  0
 62136  1  0  0  0
 62137  1  0  0  0
 62138  1  0  0  0
 63 65  1  0  0  0
 63139  1  0  0  0
 63140  1  0  0  0
 63141  1  0  0  0
 64142  1  0  0  0
 65143  1  0  0  0
 68 83  1  0  0  0
 71 74  2  0  0  0
 71 75  1  0  0  0
 71144  1  0  0  0
 72 74  1  0  0  0
 72 76  2  0  0  0
 72145  1  0  0  0
 73 75  2  0  0  0
 73 76  1  0  0  0
 73 79  1  0  0  0
 74 83  1  0  0  0
 75 81  1  0  0  0
 76 82  1  0  0  0
 77 78  1  0  0  0
 77 79  1  0  0  0
 77146  1  0  0  0
 77147  1  0  0  0
 78 80  1  0  0  0
 78148  1  0  0  0
 78149  1  0  0  0
 79 80  1  0  0  0
 79150  1  0  0  0
 80 84  1  0  0  0
 80151  1  0  0  0
 81152  1  0  0  0
 81153  1  0  0  0
 81154  1  0  0  0
 82155  1  0  0  0
 82156  1  0  0  0
 82157  1  0  0  0
 83158  1  0  0  0
 83159  1  0  0  0
 84160  1  0  0  0
M  ISO  4   1 100  68 101  83 101  84 100
M  END
> <chiral flag>
0

> <version>
0

> <s_m_source_file>
/data/baiqing/PycharmProjects/Reinvent-master-3.2/result/LINK_invent/BTK/process_docking_weight1_custom_sum_contain_oxygen_bond_distance_aromatic_linkinvent_7_9_3/rearranged_h_0150.sdf

> <i_m_source_file_index>
87

> <r_mmod_Potential_Energy-OPLS-2005>
406.624969482422

> <r_mmod_Stretch_Energy-OPLS-2005>
186.401916503906

> <r_mmod_Bend_Energy-OPLS-2005>
244.482513427734

> <r_mmod_Torsional_Energy-OPLS-2005>
259.610656738281

> <r_mmod_Improper_Torsional_Energy-OPLS-2005>
8.77841854095459

> <r_mmod_Van_der_Waal_Energy-OPLS-2005>
148.291213989258

> <r_mmod_Electrostatic_Energy-OPLS-2005>
-370.717376708984

> <r_mmod_Solvation_Energy-OPLS-2005>
-208.597045898438

> <b_mmod_Minimization_Converged-OPLS-2005>
0

> <r_mmod_RMS_Derivative-OPLS-2005>
2.85664319992065

$$$$
87
                    3D
 Structure written by MMmdl.
166175  0  0  1  0            999 V2000
  -30.6419  -14.8660   20.4190 C   0  0  0  0  0  0
  -30.4215  -12.5397   19.4813 C   0  0  0  0  0  0
  -29.5021  -12.4991   18.2433 C   0  0  0  0  0  0
  -28.0412  -12.2799   18.6749 C   0  0  0  0  0  0
  -27.6205  -13.2179   19.8341 C   0  0  2  0  0  0
  -28.6745  -13.2933   20.9622 C   0  0  0  0  0  0
  -25.2481  -13.8136   20.5759 C   0  0  0  0  0  0
  -24.1758  -13.0403   20.9242 C   0  0  0  0  0  0
  -24.6340  -11.6877   20.8792 C   0  0  0  0  0  0
  -23.9025  -10.4268   21.0433 C   0  0  0  0  0  0
  -24.3589   -9.4185   21.9201 C   0  0  0  0  0  0
  -23.6271   -8.2220   22.0759 C   0  0  0  0  0  0
  -22.4258   -8.0262   21.3544 C   0  0  0  0  0  0
  -21.9889   -9.0234   20.4650 C   0  0  0  0  0  0
  -22.7209  -10.2116   20.3068 C   0  0  0  0  0  0
  -21.6844   -6.0723   22.5279 C   0  0  0  0  0  0
  -21.4008   -6.5633   23.8211 C   0  0  0  0  0  0
  -21.3657   -5.6789   24.9175 C   0  0  0  0  0  0
  -21.6041   -4.3052   24.7228 C   0  0  0  0  0  0
  -21.8822   -3.8141   23.4352 C   0  0  0  0  0  0
  -21.9191   -4.6953   22.3405 C   0  0  0  0  0  0
  -22.7792  -13.5211   21.1882 C   0  0  0  0  0  0
  -22.1661   -4.2138   21.0985 F   0  0  0  0  0  0
  -21.5628   -3.4539   25.7744 F   0  0  0  0  0  0
  -29.9562  -13.6591   20.3454 N   0  0  0  0  0  0
  -26.2852  -12.9285   20.3315 N   0  0  0  0  0  0
  -25.9262  -11.6453   20.5812 N   0  0  0  0  0  0
  -22.0426  -12.8210   22.0433 N   0  0  0  0  0  0
  -25.4222  -15.1864   20.4209 N   0  0  0  0  0  0
  -31.8592  -14.8328   20.2128 O   0  0  0  0  0  0
  -21.6627   -6.8860   21.4237 O   0  0  0  0  0  0
  -22.3496  -14.5520   20.6720 O   0  0  0  0  0  0
  -24.6373  -31.8514   23.1994 C   0  0  0  0  0  0
  -25.9180  -32.4732   23.8343 C   0  0  1  0  0  0
  -27.1997  -27.1784   20.1547 C   0  0  0  0  0  0
  -25.5953  -33.8539   24.2250 N   0  0  0  0  0  0
  -23.4385  -30.4748   21.5431 C   0  0  2  0  0  0
  -24.8886  -28.9165   20.1159 C   0  0  0  0  0  0
  -22.7539  -29.4574   22.4894 C   0  0  0  0  0  0
  -18.0299  -28.1392   22.8478 C   0  0  0  0  0  0
  -24.1489  -36.7271   23.2639 C   0  0  0  0  0  0
  -25.9929  -30.7295   21.4067 C   0  0  0  0  0  0
  -26.0587  -29.3426   20.7596 C   0  0  0  0  0  0
  -27.2142  -28.4800   20.7852 C   0  0  0  0  0  0
  -26.0555  -26.9125   19.3921 C   0  0  0  0  0  0
  -24.8950  -27.7058   19.4146 C   0  0  0  0  0  0
  -23.6651  -29.8135   20.1595 C   0  0  0  0  0  0
  -25.4118  -36.3054   24.0318 C   0  0  1  0  0  0
  -20.5906  -28.3709   23.1247 C   0  0  2  0  0  0
  -20.6785  -26.9420   22.5401 C   0  0  0  0  0  0
  -19.5758  -26.6380   21.5210 C   0  0  0  0  0  0
  -18.1938  -26.7931   22.1621 C   0  0  0  0  0  0
  -19.1554  -28.8869   23.2854 C   0  0  0  0  0  0
  -18.9473  -30.1465   23.8877 C   0  0  0  0  0  0
  -17.6470  -30.6589   24.0559 C   0  0  0  0  0  0
  -25.9060  -34.9425   23.5084 C   0  0  0  0  0  0
  -16.5360  -29.9082   23.6340 C   0  0  0  0  0  0
  -16.7283  -28.6503   23.0355 C   0  0  0  0  0  0
  -26.4521  -31.6578   25.0758 C   0  0  0  0  0  0
  -25.3716  -31.3753   26.1462 C   0  0  0  0  0  0
  -27.0388  -30.2970   24.6333 C   0  0  0  0  0  0
  -27.6061  -32.4340   25.7532 C   0  0  0  0  0  0
  -27.5576  -37.1793   24.8465 C   0  0  0  0  0  0
  -21.4239  -29.3047   22.3632 N   0  0  0  0  0  0
  -26.4290  -37.3758   23.9402 N   0  0  0  0  0  0
  -24.7080  -31.0397   22.1036 N   0  0  0  0  0  0
  -23.4208  -28.8112   23.3015 O   0  0  0  0  0  0
  -28.2413  -26.1963   20.1346 O   0  0  0  0  0  0
  -26.5637  -34.8905   22.4655 O   0  0  0  0  0  0
  -23.5503  -32.1392   23.7225 O   0  0  0  0  0  0
  -28.8075  -22.0946   20.3538 C   0  0  0  0  0  0
  -26.9864  -21.9597   18.3013 C   0  0  0  0  0  0
  -28.6926  -20.8017   19.6327 C   0  0  0  0  0  0
  -28.0166  -23.3246   20.0603 C   0  0  0  0  0  0
  -27.9084  -20.9168   18.4471 C   0  0  0  0  0  0
  -26.9377  -23.0541   19.1736 C   0  0  0  0  0  0
  -30.1215  -18.8290   21.1656 C   0  0  0  0  0  0
  -28.4370  -18.0613   19.7198 C   0  0  0  0  0  0
  -30.7682  -17.3338   21.1047 C   0  0  0  0  0  0
  -29.1806  -16.6908   19.4503 C   0  0  0  0  0  0
  -29.3762  -19.3215   19.8749 C   0  0  0  0  0  0
  -27.9762  -19.9582   17.2622 C   0  0  0  0  0  0
  -25.6091  -23.7741   19.1718 C   0  0  0  0  0  0
  -27.3760  -24.8682   22.1094 C   0  0  0  0  0  0
  -28.1754  -24.7916   20.7982 C   0  0  2  0  0  0
  -30.0051  -16.1317   20.5583 N   0  0  0  0  0  0
  -31.4585  -12.6576   19.1634 H   0  0  0  0  0  0
  -30.3834  -11.5945   20.0251 H   0  0  0  0  0  0
  -29.8145  -11.7037   17.5646 H   0  0  0  0  0  0
  -29.5883  -13.4327   17.6848 H   0  0  0  0  0  0
  -27.9454  -11.2408   18.9916 H   0  0  0  0  0  0
  -27.3701  -12.4005   17.8235 H   0  0  0  0  0  0
  -27.5444  -14.1894   19.3689 H   0  0  0  0  0  0
  -28.7547  -12.3421   21.4899 H   0  0  0  0  0  0
  -28.3864  -14.0408   21.7033 H   0  0  0  0  0  0
  -25.2728   -9.5665   22.4779 H   0  0  0  0  0  0
  -23.9980   -7.4610   22.7477 H   0  0  0  0  0  0
  -21.0821   -8.8751   19.8954 H   0  0  0  0  0  0
  -22.3668  -10.9658   19.6184 H   0  0  0  0  0  0
  -21.1999   -7.6141   23.9710 H   0  0  0  0  0  0
  -21.1475   -6.0522   25.9076 H   0  0  0  0  0  0
  -22.0605   -2.7602   23.2859 H   0  0  0  0  0  0
  -22.4033  -11.9868   22.4820 H   0  0  0  0  0  0
  -21.1048  -13.1249   22.2638 H   0  0  0  0  0  0
  -24.6635  -15.8465   20.5499 H   0  0  0  0  0  0
  -26.2901  -15.6282   20.1469 H   0  0  0  0  0  0
  -26.7241  -32.5362   23.1073 H   0  0  0  0  0  0
  -25.0111  -33.9673   25.0403 H   0  0  0  0  0  0
  -22.7382  -31.2994   21.3946 H   0  0  0  0  0  0
  -23.3751  -35.9602   23.3302 H   0  0  0  0  0  0
  -24.3580  -36.8903   22.2055 H   0  0  0  0  0  0
  -23.7245  -37.6468   23.6674 H   0  0  0  0  0  0
  -26.1487  -31.4803   20.6307 H   0  0  0  0  0  0
  -26.8649  -30.7796   22.0466 H   0  0  0  0  0  0
  -28.1013  -28.7936   21.3178 H   0  0  0  0  0  0
  -26.0867  -26.0886   18.7137 H   0  0  0  0  0  0
  -24.0317  -27.4045   18.8372 H   0  0  0  0  0  0
  -23.7996  -30.5920   19.4074 H   0  0  0  0  0  0
  -22.7825  -29.2533   19.8465 H   0  0  0  0  0  0
  -25.1297  -36.1903   25.0809 H   0  0  0  0  0  0
  -20.9990  -28.3294   24.1369 H   0  0  0  0  0  0
  -20.5684  -26.2316   23.3608 H   0  0  0  0  0  0
  -21.6652  -26.7438   22.1192 H   0  0  0  0  0  0
  -19.6918  -25.6285   21.1253 H   0  0  0  0  0  0
  -19.6699  -27.3177   20.6730 H   0  0  0  0  0  0
  -17.4206  -26.6674   21.4025 H   0  0  0  0  0  0
  -18.0339  -26.0078   22.9024 H   0  0  0  0  0  0
  -19.7950  -30.7285   24.2234 H   0  0  0  0  0  0
  -17.5027  -31.6269   24.5161 H   0  0  0  0  0  0
  -15.5359  -30.2975   23.7678 H   0  0  0  0  0  0
  -15.8685  -28.0817   22.7076 H   0  0  0  0  0  0
  -24.5907  -30.7078   25.7798 H   0  0  0  0  0  0
  -24.8880  -32.2924   26.4839 H   0  0  0  0  0  0
  -25.8013  -30.8979   27.0278 H   0  0  0  0  0  0
  -26.3015  -29.6688   24.1321 H   0  0  0  0  0  0
  -27.3978  -29.7270   25.4914 H   0  0  0  0  0  0
  -27.8934  -30.4195   23.9673 H   0  0  0  0  0  0
  -27.2664  -33.3663   26.2058 H   0  0  0  0  0  0
  -28.3899  -32.6866   25.0376 H   0  0  0  0  0  0
  -28.0697  -31.8500   26.5494 H   0  0  0  0  0  0
  -28.2589  -38.0094   24.7512 H   0  0  0  0  0  0
  -28.1076  -36.2625   24.6296 H   0  0  0  0  0  0
  -27.2292  -37.1446   25.8868 H   0  0  0  0  0  0
  -20.9439  -29.8782   21.6835 H   0  0  0  0  0  0
  -26.0164  -38.2827   24.1411 H   0  0  0  0  0  0
  -29.5207  -22.1476   21.1646 H   0  0  0  0  0  0
  -26.2502  -21.8888   17.5110 H   0  0  0  0  0  0
  -30.9141  -19.5388   21.4034 H   0  0  0  0  0  0
  -29.4340  -18.8798   22.0112 H   0  0  0  0  0  0
  -27.8011  -17.9641   20.6014 H   0  0  0  0  0  0
  -27.7174  -18.1744   18.9208 H   0  0  0  0  0  0
  -31.1089  -17.0702   22.1071 H   0  0  0  0  0  0
  -31.6812  -17.4175   20.5124 H   0  0  0  0  0  0
  -29.8265  -16.8093   18.5781 H   0  0  0  0  0  0
  -28.4376  -15.9717   19.1400 H   0  0  0  0  0  0
  -30.1280  -19.2700   19.0867 H   0  0  0  0  0  0
  -28.0362  -20.5323   16.3367 H   0  0  0  0  0  0
  -27.0742  -19.3492   17.1958 H   0  0  0  0  0  0
  -28.8499  -19.3091   17.2665 H   0  0  0  0  0  0
  -25.4076  -24.2298   18.2029 H   0  0  0  0  0  0
  -25.4998  -24.4801   19.9865 H   0  0  0  0  0  0
  -24.8168  -23.0402   19.3256 H   0  0  0  0  0  0
  -27.5634  -23.9913   22.7296 H   0  0  0  0  0  0
  -26.3027  -24.9312   21.9453 H   0  0  0  0  0  0
  -27.6676  -25.7444   22.6887 H   0  0  0  0  0  0
  -29.2083  -24.7122   21.1386 H   0  0  0  0  0  0
  1 25  1  0  0  0
  1 30  2  0  0  0
  1 86  1  0  0  0
  2  3  1  0  0  0
  2 25  1  0  0  0
  2 87  1  0  0  0
  2 88  1  0  0  0
  3  4  1  0  0  0
  3 89  1  0  0  0
  3 90  1  0  0  0
  4  5  1  0  0  0
  4 91  1  0  0  0
  4 92  1  0  0  0
  5  6  1  0  0  0
  5 26  1  0  0  0
  5 93  1  0  0  0
  6 25  1  0  0  0
  6 94  1  0  0  0
  6 95  1  0  0  0
  7  8  2  0  0  0
  7 26  1  0  0  0
  7 29  1  0  0  0
  8  9  1  0  0  0
  8 22  1  0  0  0
  9 10  1  0  0  0
  9 27  2  0  0  0
 10 11  2  0  0  0
 10 15  1  0  0  0
 11 12  1  0  0  0
 11 96  1  0  0  0
 12 13  2  0  0  0
 12 97  1  0  0  0
 13 14  1  0  0  0
 13 31  1  0  0  0
 14 15  2  0  0  0
 14 98  1  0  0  0
 15 99  1  0  0  0
 16 17  2  0  0  0
 16 21  1  0  0  0
 16 31  1  0  0  0
 17 18  1  0  0  0
 17100  1  0  0  0
 18 19  2  0  0  0
 18101  1  0  0  0
 19 20  1  0  0  0
 19 24  1  0  0  0
 20 21  2  0  0  0
 20102  1  0  0  0
 21 23  1  0  0  0
 22 28  1  0  0  0
 22 32  2  0  0  0
 26 27  1  0  0  0
 28103  1  0  0  0
 28104  1  0  0  0
 29105  1  0  0  0
 29106  1  0  0  0
 33 34  1  0  0  0
 33 66  1  0  0  0
 33 70  2  0  0  0
 34 36  1  0  0  0
 34 59  1  0  0  0
 34107  1  0  0  0
 35 44  2  0  0  0
 35 45  1  0  0  0
 35 68  1  0  0  0
 36 56  1  0  0  0
 36108  1  0  0  0
 37 39  1  0  0  0
 37 47  1  0  0  0
 37 66  1  0  0  0
 37109  1  0  0  0
 38 43  2  0  0  0
 38 46  1  0  0  0
 38 47  1  0  0  0
 39 64  1  0  0  0
 39 67  2  0  0  0
 40 52  1  0  0  0
 40 53  2  0  0  0
 40 58  1  0  0  0
 41110  1  0  0  0
 41111  1  0  0  0
 41112  1  0  0  0
 41 48  1  0  0  0
 42 43  1  0  0  0
 42 66  1  0  0  0
 42113  1  0  0  0
 42114  1  0  0  0
 43 44  1  0  0  0
 44115  1  0  0  0
 45 46  2  0  0  0
 45116  1  0  0  0
 46117  1  0  0  0
 47118  1  0  0  0
 47119  1  0  0  0
 48 56  1  0  0  0
 48 65  1  0  0  0
 48120  1  0  0  0
 49 50  1  0  0  0
 49 53  1  0  0  0
 49 64  1  0  0  0
 49121  1  0  0  0
 50 51  1  0  0  0
 50122  1  0  0  0
 50123  1  0  0  0
 51 52  1  0  0  0
 51124  1  0  0  0
 51125  1  0  0  0
 52126  1  0  0  0
 52127  1  0  0  0
 53 54  1  0  0  0
 54 55  2  0  0  0
 54128  1  0  0  0
 55 57  1  0  0  0
 55129  1  0  0  0
 56 69  2  0  0  0
 57 58  2  0  0  0
 57130  1  0  0  0
 58131  1  0  0  0
 59 60  1  0  0  0
 59 61  1  0  0  0
 59 62  1  0  0  0
 60132  1  0  0  0
 60133  1  0  0  0
 60134  1  0  0  0
 61135  1  0  0  0
 61136  1  0  0  0
 61137  1  0  0  0
 62138  1  0  0  0
 62139  1  0  0  0
 62140  1  0  0  0
 63 65  1  0  0  0
 63141  1  0  0  0
 63142  1  0  0  0
 63143  1  0  0  0
 64144  1  0  0  0
 65145  1  0  0  0
 68 85  1  0  0  0
 71 73  2  0  0  0
 71 74  1  0  0  0
 71146  1  0  0  0
 72 75  2  0  0  0
 72 76  1  0  0  0
 72147  1  0  0  0
 73 75  1  0  0  0
 73 81  1  0  0  0
 74 76  2  0  0  0
 74 85  1  0  0  0
 75 82  1  0  0  0
 76 83  1  0  0  0
 77 79  1  0  0  0
 77 81  1  0  0  0
 77148  1  0  0  0
 77149  1  0  0  0
 78 80  1  0  0  0
 78 81  1  0  0  0
 78150  1  0  0  0
 78151  1  0  0  0
 79 86  1  0  0  0
 79152  1  0  0  0
 79153  1  0  0  0
 80 86  1  0  0  0
 80154  1  0  0  0
 80155  1  0  0  0
 81156  1  0  0  0
 82157  1  0  0  0
 82158  1  0  0  0
 82159  1  0  0  0
 83160  1  0  0  0
 83161  1  0  0  0
 83162  1  0  0  0
 84163  1  0  0  0
 84164  1  0  0  0
 84165  1  0  0  0
 84 85  1  0  0  0
 85166  1  0  0  0
M  ISO  4   1 100  68 101  85 101  86 100
M  END
> <chiral flag>
0

> <version>
0

> <s_m_source_file>
/data/baiqing/PycharmProjects/Reinvent-master-3.2/result/LINK_invent/BTK/process_docking_weight1_custom_sum_contain_oxygen_bond_distance_aromatic_linkinvent_7_9_3/rearranged_h_0150.sdf

> <i_m_source_file_index>
88

> <r_mmod_Potential_Energy-OPLS-2005>
768.741455078125

> <r_mmod_Stretch_Energy-OPLS-2005>
211.729736328125

> <r_mmod_Bend_Energy-OPLS-2005>
306.18310546875

> <r_mmod_Torsional_Energy-OPLS-2005>
414.999664306641

> <r_mmod_Improper_Torsional_Energy-OPLS-2005>
9.26357746124268

> <r_mmod_Van_der_Waal_Energy-OPLS-2005>
159.447143554688

> <r_mmod_Electrostatic_Energy-OPLS-2005>
-296.245208740234

> <r_mmod_Solvation_Energy-OPLS-2005>
-191.988815307617

> <b_mmod_Minimization_Converged-OPLS-2005>
0

> <r_mmod_RMS_Derivative-OPLS-2005>
0.64884352684021

$$$$
88
                    3D
 Structure written by MMmdl.
180190  0  0  1  0            999 V2000
  -30.7922  -14.3171   20.7214 C   0  0  0  0  0  0
  -30.4147  -12.2845   19.3808 C   0  0  0  0  0  0
  -29.4789  -12.5307   18.1849 C   0  0  0  0  0  0
  -28.0056  -12.3828   18.6046 C   0  0  0  0  0  0
  -27.6663  -13.2021   19.8761 C   0  0  2  0  0  0
  -28.7016  -12.9350   20.9898 C   0  0  0  0  0  0
  -25.2609  -13.8163   20.5664 C   0  0  0  0  0  0
  -24.1845  -13.0439   20.9155 C   0  0  0  0  0  0
  -24.6391  -11.6907   20.8715 C   0  0  0  0  0  0
  -23.9054  -10.4295   21.0395 C   0  0  0  0  0  0
  -24.3612   -9.4219   21.9179 C   0  0  0  0  0  0
  -23.6288   -8.2252   22.0752 C   0  0  0  0  0  0
  -22.4271   -8.0287   21.3543 C   0  0  0  0  0  0
  -21.9906   -9.0255   20.4643 C   0  0  0  0  0  0
  -22.7227  -10.2138   20.3046 C   0  0  0  0  0  0
  -21.6851   -6.0735   22.5280 C   0  0  0  0  0  0
  -21.4012   -6.5639   23.8214 C   0  0  0  0  0  0
  -21.3660   -5.6794   24.9180 C   0  0  0  0  0  0
  -21.6045   -4.3055   24.7227 C   0  0  0  0  0  0
  -21.8824   -3.8142   23.4347 C   0  0  0  0  0  0
  -21.9192   -4.6960   22.3401 C   0  0  0  0  0  0
  -22.7873  -13.5244   21.1822 C   0  0  0  0  0  0
  -22.1662   -4.2142   21.0975 F   0  0  0  0  0  0
  -21.5634   -3.4541   25.7740 F   0  0  0  0  0  0
  -30.0515  -13.2129   20.4591 N   0  0  0  0  0  0
  -26.3040  -12.9321   20.3353 N   0  0  0  0  0  0
  -25.9312  -11.6479   20.5726 N   0  0  0  0  0  0
  -22.0512  -12.8239   22.0391 N   0  0  0  0  0  0
  -25.4351  -15.1876   20.4106 N   0  0  0  0  0  0
  -31.7754  -14.6578   20.0577 O   0  0  0  0  0  0
  -21.6640   -6.8880   21.4240 O   0  0  0  0  0  0
  -22.3558  -14.5543   20.6674 O   0  0  0  0  0  0
  -24.6095  -31.8723   23.2142 C   0  0  0  0  0  0
  -25.9000  -32.4854   23.8439 C   0  0  1  0  0  0
  -27.2492  -27.4943   20.0737 C   0  0  0  0  0  0
  -25.5874  -33.8647   24.2366 N   0  0  0  0  0  0
  -23.3972  -30.4958   21.5525 C   0  0  2  0  0  0
  -24.8459  -28.9606   20.1244 C   0  0  0  0  0  0
  -22.7374  -29.4704   22.5003 C   0  0  0  0  0  0
  -18.0264  -28.1402   22.8499 C   0  0  0  0  0  0
  -24.1493  -36.7317   23.2650 C   0  0  0  0  0  0
  -25.9214  -30.8516   21.3626 C   0  0  0  0  0  0
  -26.0015  -29.4878   20.7144 C   0  0  0  0  0  0
  -27.2070  -28.7599   20.6915 C   0  0  0  0  0  0
  -26.0739  -26.9490   19.5188 C   0  0  0  0  0  0
  -24.8724  -27.6846   19.5306 C   0  0  0  0  0  0
  -23.6062  -29.8238   20.1690 C   0  0  0  0  0  0
  -25.4119  -36.3130   24.0346 C   0  0  1  0  0  0
  -20.5858  -28.3687   23.1327 C   0  0  2  0  0  0
  -20.6770  -26.9429   22.5425 C   0  0  0  0  0  0
  -19.5755  -26.6406   21.5223 C   0  0  0  0  0  0
  -18.1924  -26.7958   22.1609 C   0  0  0  0  0  0
  -19.1516  -28.8855   23.2920 C   0  0  0  0  0  0
  -18.9441  -30.1463   23.8926 C   0  0  0  0  0  0
  -17.6449  -30.6609   24.0581 C   0  0  0  0  0  0
  -25.9033  -34.9488   23.5152 C   0  0  0  0  0  0
  -16.5339  -29.9114   23.6343 C   0  0  0  0  0  0
  -16.7251  -28.6536   23.0349 C   0  0  0  0  0  0
  -26.4466  -31.6624   25.0742 C   0  0  0  0  0  0
  -25.3751  -31.3702   26.1505 C   0  0  0  0  0  0
  -27.0313  -30.3076   24.6106 C   0  0  0  0  0  0
  -27.6083  -32.4330   25.7455 C   0  0  0  0  0  0
  -27.5586  -37.1835   24.8488 C   0  0  0  0  0  0
  -21.4111  -29.3048   22.3712 N   0  0  0  0  0  0
  -26.4326  -37.3794   23.9384 N   0  0  0  0  0  0
  -24.6606  -31.0869   22.1019 N   0  0  0  0  0  0
  -23.4153  -28.8256   23.3048 O   0  0  0  0  0  0
  -28.4210  -26.7876   20.0060 O   0  0  0  0  0  0
  -26.5609  -34.8922   22.4723 O   0  0  0  0  0  0
  -23.5293  -32.1465   23.7547 O   0  0  0  0  0  0
  -29.1033  -21.0322   20.0947 C   0  0  0  0  0  0
  -29.5931  -19.7394   18.0900 C   0  0  0  0  0  0
  -29.3649  -20.9848   18.7081 C   0  0  0  0  0  0
  -29.1328  -19.8632   20.8778 C   0  0  0  0  0  0
  -29.6276  -18.5602   18.8614 C   0  0  0  0  0  0
  -29.4441  -18.6316   20.2609 C   0  0  0  0  0  0
  -27.7764  -19.1499   23.0091 C   0  0  0  0  0  0
  -27.6407  -20.6489   22.8806 C   0  0  0  0  0  0
  -28.0933  -23.0225   17.8839 C   0  0  0  0  0  0
  -30.5929  -23.1637   18.4286 C   0  0  0  0  0  0
  -28.2182  -24.4193   17.2520 C   0  0  0  0  0  0
  -30.5949  -24.5637   17.8019 C   0  0  0  0  0  0
  -29.4446  -22.2727   17.8994 C   0  0  1  0  0  0
  -28.8742  -19.9544   22.3525 C   0  0  0  0  0  0
  -29.8867  -17.2255   18.1870 C   0  0  0  0  0  0
  -31.0915  -16.1501   22.3844 C   0  0  0  0  0  0
  -29.2325  -26.6501   17.7571 C   0  0  0  0  0  0
  -30.9639  -17.3646   21.4563 C   0  0  0  0  0  0
  -29.3945  -27.3453   19.1168 C   0  0  0  0  0  0
  -30.4408  -14.9659   21.8334 N   0  0  0  0  0  0
  -29.2611  -25.1856   17.9711 N   0  3  1  0  0  0
  -29.6118  -17.5146   21.0330 O   0  0  0  0  0  0
  -31.4556  -12.3934   19.0711 H   0  0  0  0  0  0
  -30.3195  -11.2568   19.7355 H   0  0  0  0  0  0
  -29.7078  -11.8324   17.3785 H   0  0  0  0  0  0
  -29.6482  -13.5310   17.7829 H   0  0  0  0  0  0
  -27.8126  -11.3244   18.7821 H   0  0  0  0  0  0
  -27.3502  -12.6769   17.7837 H   0  0  0  0  0  0
  -27.7293  -14.2577   19.6085 H   0  0  0  0  0  0
  -28.6527  -11.8928   21.3094 H   0  0  0  0  0  0
  -28.4440  -13.5192   21.8732 H   0  0  0  0  0  0
  -25.2757   -9.5702   22.4758 H   0  0  0  0  0  0
  -23.9998   -7.4651   22.7477 H   0  0  0  0  0  0
  -21.0843   -8.8777   19.8947 H   0  0  0  0  0  0
  -22.3686  -10.9680   19.6161 H   0  0  0  0  0  0
  -21.2002   -7.6146   23.9715 H   0  0  0  0  0  0
  -21.1476   -6.0522   25.9084 H   0  0  0  0  0  0
  -22.0597   -2.7599   23.2849 H   0  0  0  0  0  0
  -22.4121  -11.9894   22.4775 H   0  0  0  0  0  0
  -21.1135  -13.1285   22.2589 H   0  0  0  0  0  0
  -24.6783  -15.8508   20.5365 H   0  0  0  0  0  0
  -26.3050  -15.6266   20.1345 H   0  0  0  0  0  0
  -26.7079  -32.5591   23.1223 H   0  0  0  0  0  0
  -25.0075  -33.9836   25.0545 H   0  0  0  0  0  0
  -22.6845  -31.3104   21.4121 H   0  0  0  0  0  0
  -23.3765  -35.9645   23.3339 H   0  0  0  0  0  0
  -24.3593  -36.8912   22.2061 H   0  0  0  0  0  0
  -23.7232  -37.6515   23.6662 H   0  0  0  0  0  0
  -26.0269  -31.6159   20.5911 H   0  0  0  0  0  0
  -26.8113  -30.9100   21.9776 H   0  0  0  0  0  0
  -28.1041  -29.1676   21.1368 H   0  0  0  0  0  0
  -26.0873  -25.9678   19.0674 H   0  0  0  0  0  0
  -23.9780  -27.2674   19.0869 H   0  0  0  0  0  0
  -23.7123  -30.5966   19.4070 H   0  0  0  0  0  0
  -22.7316  -29.2407   19.8760 H   0  0  0  0  0  0
  -25.1307  -36.2035   25.0843 H   0  0  0  0  0  0
  -20.9957  -28.3274   24.1448 H   0  0  0  0  0  0
  -20.5721  -26.2286   23.3612 H   0  0  0  0  0  0
  -21.6640  -26.7521   22.1196 H   0  0  0  0  0  0
  -19.6927  -25.6319   21.1258 H   0  0  0  0  0  0
  -19.6704  -27.3210   20.6753 H   0  0  0  0  0  0
  -17.4208  -26.6726   21.3994 H   0  0  0  0  0  0
  -18.0292  -26.0091   22.8983 H   0  0  0  0  0  0
  -19.7912  -30.7280   24.2304 H   0  0  0  0  0  0
  -17.5004  -31.6291   24.5164 H   0  0  0  0  0  0
  -15.5341  -30.3029   23.7663 H   0  0  0  0  0  0
  -15.8642  -28.0871   22.7052 H   0  0  0  0  0  0
  -24.5859  -30.7146   25.7796 H   0  0  0  0  0  0
  -24.9022  -32.2857   26.5066 H   0  0  0  0  0  0
  -25.8089  -30.8738   27.0194 H   0  0  0  0  0  0
  -26.2836  -29.6767   24.1284 H   0  0  0  0  0  0
  -27.4229  -29.7381   25.4546 H   0  0  0  0  0  0
  -27.8604  -30.4404   23.9154 H   0  0  0  0  0  0
  -27.2767  -33.3647   26.2045 H   0  0  0  0  0  0
  -28.3854  -32.6855   25.0226 H   0  0  0  0  0  0
  -28.0804  -31.8448   26.5336 H   0  0  0  0  0  0
  -28.2676  -38.0056   24.7449 H   0  0  0  0  0  0
  -28.1009  -36.2592   24.6453 H   0  0  0  0  0  0
  -27.2293  -37.1655   25.8890 H   0  0  0  0  0  0
  -20.9253  -29.8710   21.6892 H   0  0  0  0  0  0
  -26.0236  -38.2889   24.1334 H   0  0  0  0  0  0
  -28.9072  -21.9782   20.5801 H   0  0  0  0  0  0
  -29.7710  -19.6900   17.0247 H   0  0  0  0  0  0
  -27.1517  -18.5289   22.3693 H   0  0  0  0  0  0
  -27.9682  -18.7526   24.0041 H   0  0  0  0  0  0
  -27.7426  -21.2364   23.7906 H   0  0  0  0  0  0
  -26.9129  -21.0220   22.1625 H   0  0  0  0  0  0
  -27.3467  -22.4365   17.3464 H   0  0  0  0  0  0
  -27.7101  -23.1382   18.8986 H   0  0  0  0  0  0
  -30.5169  -23.2827   19.5093 H   0  0  0  0  0  0
  -31.5522  -22.6754   18.2498 H   0  0  0  0  0  0
  -27.2545  -24.9244   17.3147 H   0  0  0  0  0  0
  -28.4679  -24.3510   16.1921 H   0  0  0  0  0  0
  -30.8530  -24.5110   16.7423 H   0  0  0  0  0  0
  -31.3629  -25.1722   18.2812 H   0  0  0  0  0  0
  -29.6841  -22.0170   16.8660 H   0  0  0  0  0  0
  -29.8017  -20.0882   22.9059 H   0  0  0  0  0  0
  -29.6749  -17.2766   17.1191 H   0  0  0  0  0  0
  -29.2512  -16.4487   18.6142 H   0  0  0  0  0  0
  -30.9268  -16.9251   18.3122 H   0  0  0  0  0  0
  -30.6336  -16.3757   23.3475 H   0  0  0  0  0  0
  -32.1443  -15.9410   22.5826 H   0  0  0  0  0  0
  -30.0085  -26.9643   17.0589 H   0  0  0  0  0  0
  -28.2827  -26.9593   17.3208 H   0  0  0  0  0  0
  -31.6172  -17.2503   20.5906 H   0  0  0  0  0  0
  -31.3074  -18.2575   21.9813 H   0  0  0  0  0  0
  -29.3083  -28.4277   19.0043 H   0  0  0  0  0  0
  -30.3888  -27.1609   19.5253 H   0  0  0  0  0  0
  -29.6406  -14.6083   22.3330 H   0  0  0  0  0  0
  -29.0220  -25.1001   18.9507 H   0  0  0  0  0  0
  1 25  1  0  0  0
  1 30  2  0  0  0
  1 90  1  0  0  0
  2  3  1  0  0  0
  2 25  1  0  0  0
  2 93  1  0  0  0
  2 94  1  0  0  0
  3  4  1  0  0  0
  3 95  1  0  0  0
  3 96  1  0  0  0
  4  5  1  0  0  0
  4 97  1  0  0  0
  4 98  1  0  0  0
  5  6  1  0  0  0
  5 26  1  0  0  0
  5 99  1  0  0  0
  6 25  1  0  0  0
  6100  1  0  0  0
  6101  1  0  0  0
  7  8  2  0  0  0
  7 26  1  0  0  0
  7 29  1  0  0  0
  8  9  1  0  0  0
  8 22  1  0  0  0
  9 10  1  0  0  0
  9 27  2  0  0  0
 10 11  2  0  0  0
 10 15  1  0  0  0
 11 12  1  0  0  0
 11102  1  0  0  0
 12 13  2  0  0  0
 12103  1  0  0  0
 13 14  1  0  0  0
 13 31  1  0  0  0
 14 15  2  0  0  0
 14104  1  0  0  0
 15105  1  0  0  0
 16 17  2  0  0  0
 16 21  1  0  0  0
 16 31  1  0  0  0
 17 18  1  0  0  0
 17106  1  0  0  0
 18 19  2  0  0  0
 18107  1  0  0  0
 19 20  1  0  0  0
 19 24  1  0  0  0
 20 21  2  0  0  0
 20108  1  0  0  0
 21 23  1  0  0  0
 22 28  1  0  0  0
 22 32  2  0  0  0
 26 27  1  0  0  0
 28109  1  0  0  0
 28110  1  0  0  0
 29111  1  0  0  0
 29112  1  0  0  0
 33 34  1  0  0  0
 33 66  1  0  0  0
 33 70  2  0  0  0
 34 36  1  0  0  0
 34 59  1  0  0  0
 34113  1  0  0  0
 35 44  2  0  0  0
 35 45  1  0  0  0
 35 68  1  0  0  0
 36 56  1  0  0  0
 36114  1  0  0  0
 37 39  1  0  0  0
 37 47  1  0  0  0
 37 66  1  0  0  0
 37115  1  0  0  0
 38 43  2  0  0  0
 38 46  1  0  0  0
 38 47  1  0  0  0
 39 64  1  0  0  0
 39 67  2  0  0  0
 40 52  1  0  0  0
 40 53  2  0  0  0
 40 58  1  0  0  0
 41116  1  0  0  0
 41117  1  0  0  0
 41118  1  0  0  0
 41 48  1  0  0  0
 42 43  1  0  0  0
 42 66  1  0  0  0
 42119  1  0  0  0
 42120  1  0  0  0
 43 44  1  0  0  0
 44121  1  0  0  0
 45 46  2  0  0  0
 45122  1  0  0  0
 46123  1  0  0  0
 47124  1  0  0  0
 47125  1  0  0  0
 48 56  1  0  0  0
 48 65  1  0  0  0
 48126  1  0  0  0
 49 50  1  0  0  0
 49 53  1  0  0  0
 49 64  1  0  0  0
 49127  1  0  0  0
 50 51  1  0  0  0
 50128  1  0  0  0
 50129  1  0  0  0
 51 52  1  0  0  0
 51130  1  0  0  0
 51131  1  0  0  0
 52132  1  0  0  0
 52133  1  0  0  0
 53 54  1  0  0  0
 54 55  2  0  0  0
 54134  1  0  0  0
 55 57  1  0  0  0
 55135  1  0  0  0
 56 69  2  0  0  0
 57 58  2  0  0  0
 57136  1  0  0  0
 58137  1  0  0  0
 59 60  1  0  0  0
 59 61  1  0  0  0
 59 62  1  0  0  0
 60138  1  0  0  0
 60139  1  0  0  0
 60140  1  0  0  0
 61141  1  0  0  0
 61142  1  0  0  0
 61143  1  0  0  0
 62144  1  0  0  0
 62145  1  0  0  0
 62146  1  0  0  0
 63 65  1  0  0  0
 63147  1  0  0  0
 63148  1  0  0  0
 63149  1  0  0  0
 64150  1  0  0  0
 65151  1  0  0  0
 68 89  1  0  0  0
 71 73  2  0  0  0
 71 74  1  0  0  0
 71152  1  0  0  0
 72 73  1  0  0  0
 72 75  2  0  0  0
 72153  1  0  0  0
 73 83  1  0  0  0
 74 76  2  0  0  0
 74 84  1  0  0  0
 75 76  1  0  0  0
 75 85  1  0  0  0
 76 92  1  0  0  0
 77 78  1  0  0  0
 77 84  1  0  0  0
 77154  1  0  0  0
 77155  1  0  0  0
 78 84  1  0  0  0
 78156  1  0  0  0
 78157  1  0  0  0
 79 81  1  0  0  0
 79 83  1  0  0  0
 79158  1  0  0  0
 79159  1  0  0  0
 80 82  1  0  0  0
 80 83  1  0  0  0
 80160  1  0  0  0
 80161  1  0  0  0
 81 91  1  0  0  0
 81162  1  0  0  0
 81163  1  0  0  0
 82 91  1  0  0  0
 82164  1  0  0  0
 82165  1  0  0  0
 83166  1  0  0  0
 84167  1  0  0  0
 85168  1  0  0  0
 85169  1  0  0  0
 85170  1  0  0  0
 86 88  1  0  0  0
 86 90  1  0  0  0
 86171  1  0  0  0
 86172  1  0  0  0
 87 89  1  0  0  0
 87173  1  0  0  0
 87174  1  0  0  0
 87 91  1  0  0  0
 88 92  1  0  0  0
 88175  1  0  0  0
 88176  1  0  0  0
 89177  1  0  0  0
 89178  1  0  0  0
 90179  1  0  0  0
 91180  1  0  0  0
M  CHG  1  91   1
M  ISO  4   1 100  68 101  89 101  90 100
M  END
> <chiral flag>
0

> <version>
0

> <s_m_source_file>
/data/baiqing/PycharmProjects/Reinvent-master-3.2/result/LINK_invent/BTK/process_docking_weight1_custom_sum_contain_oxygen_bond_distance_aromatic_linkinvent_7_9_3/rearranged_h_0150.sdf

> <i_m_source_file_index>
89

> <r_mmod_Potential_Energy-OPLS-2005>
-168.002212524414

> <r_mmod_Stretch_Energy-OPLS-2005>
31.842248916626

> <r_mmod_Bend_Energy-OPLS-2005>
89.9769897460938

> <r_mmod_Torsional_Energy-OPLS-2005>
332.653625488281

> <r_mmod_Improper_Torsional_Energy-OPLS-2005>
2.32390952110291

> <r_mmod_Van_der_Waal_Energy-OPLS-2005>
144.883987426758

> <r_mmod_Electrostatic_Energy-OPLS-2005>
-368.708221435547

> <r_mmod_Solvation_Energy-OPLS-2005>
-407.725067138672

> <b_mmod_Minimization_Converged-OPLS-2005>
0

> <r_mmod_RMS_Derivative-OPLS-2005>
1.71628892421722

$$$$
89
                    3D
 Structure written by MMmdl.
166175  0  0  1  0            999 V2000
  -30.6996  -14.7497   20.4865 C   0  0  0  0  0  0
  -30.4069  -12.4747   19.4793 C   0  0  0  0  0  0
  -29.4933  -12.4882   18.2380 C   0  0  0  0  0  0
  -28.0316  -12.2790   18.6656 C   0  0  0  0  0  0
  -27.6257  -13.2132   19.8303 C   0  0  2  0  0  0
  -28.6726  -13.2357   20.9720 C   0  0  0  0  0  0
  -25.2475  -13.8147   20.5698 C   0  0  0  0  0  0
  -24.1771  -13.0407   20.9233 C   0  0  0  0  0  0
  -24.6351  -11.6885   20.8785 C   0  0  0  0  0  0
  -23.9041  -10.4272   21.0433 C   0  0  0  0  0  0
  -24.3611   -9.4184   21.9198 C   0  0  0  0  0  0
  -23.6294   -8.2218   22.0751 C   0  0  0  0  0  0
  -22.4273   -8.0263   21.3540 C   0  0  0  0  0  0
  -21.9908   -9.0235   20.4641 C   0  0  0  0  0  0
  -22.7232  -10.2118   20.3066 C   0  0  0  0  0  0
  -21.6846   -6.0731   22.5280 C   0  0  0  0  0  0
  -21.4008   -6.5638   23.8214 C   0  0  0  0  0  0
  -21.3657   -5.6789   24.9173 C   0  0  0  0  0  0
  -21.6042   -4.3052   24.7222 C   0  0  0  0  0  0
  -21.8821   -3.8144   23.4346 C   0  0  0  0  0  0
  -21.9192   -4.6959   22.3404 C   0  0  0  0  0  0
  -22.7800  -13.5194   21.1907 C   0  0  0  0  0  0
  -22.1663   -4.2145   21.0982 F   0  0  0  0  0  0
  -21.5633   -3.4539   25.7738 F   0  0  0  0  0  0
  -29.9703  -13.5782   20.3783 N   0  0  0  0  0  0
  -26.2854  -12.9303   20.3236 N   0  0  0  0  0  0
  -25.9264  -11.6481   20.5787 N   0  0  0  0  0  0
  -22.0464  -12.8172   22.0460 N   0  0  0  0  0  0
  -25.4168  -15.1867   20.4098 N   0  0  0  0  0  0
  -31.8859  -14.7110   20.1506 O   0  0  0  0  0  0
  -21.6634   -6.8864   21.4237 O   0  0  0  0  0  0
  -22.3488  -14.5509   20.6765 O   0  0  0  0  0  0
  -24.6295  -31.8571   23.1993 C   0  0  0  0  0  0
  -25.9130  -32.4770   23.8328 C   0  0  1  0  0  0
  -27.2076  -27.2629   20.1413 C   0  0  0  0  0  0
  -25.5941  -33.8571   24.2257 N   0  0  0  0  0  0
  -23.4256  -30.4827   21.5414 C   0  0  2  0  0  0
  -24.8719  -28.9283   20.1141 C   0  0  0  0  0  0
  -22.7500  -29.4625   22.4888 C   0  0  0  0  0  0
  -18.0304  -28.1398   22.8485 C   0  0  0  0  0  0
  -24.1489  -36.7268   23.2644 C   0  0  0  0  0  0
  -25.9719  -30.7688   21.3825 C   0  0  0  0  0  0
  -26.0417  -29.3901   20.7311 C   0  0  0  0  0  0
  -27.2143  -28.5689   20.7360 C   0  0  0  0  0  0
  -26.0274  -26.8836   19.4713 C   0  0  0  0  0  0
  -24.8683  -27.6820   19.4737 C   0  0  0  0  0  0
  -23.6451  -29.8181   20.1575 C   0  0  0  0  0  0
  -25.4115  -36.3070   24.0336 C   0  0  1  0  0  0
  -20.5906  -28.3707   23.1262 C   0  0  2  0  0  0
  -20.6798  -26.9429   22.5398 C   0  0  0  0  0  0
  -19.5773  -26.6377   21.5215 C   0  0  0  0  0  0
  -18.1953  -26.7945   22.1617 C   0  0  0  0  0  0
  -19.1556  -28.8868   23.2878 C   0  0  0  0  0  0
  -18.9489  -30.1470   23.8894 C   0  0  0  0  0  0
  -17.6490  -30.6603   24.0563 C   0  0  0  0  0  0
  -25.9056  -34.9448   23.5096 C   0  0  0  0  0  0
  -16.5378  -29.9100   23.6335 C   0  0  0  0  0  0
  -16.7288  -28.6518   23.0352 C   0  0  0  0  0  0
  -26.4494  -31.6598   25.0715 C   0  0  0  0  0  0
  -25.3709  -31.3765   26.1432 C   0  0  0  0  0  0
  -27.0356  -30.3028   24.6194 C   0  0  0  0  0  0
  -27.6046  -32.4334   25.7486 C   0  0  0  0  0  0
  -27.5586  -37.1780   24.8467 C   0  0  0  0  0  0
  -21.4205  -29.3058   22.3644 N   0  0  0  0  0  0
  -26.4288  -37.3770   23.9431 N   0  0  0  0  0  0
  -24.6947  -31.0551   22.0970 N   0  0  0  0  0  0
  -23.4210  -28.8154   23.2976 O   0  0  0  0  0  0
  -28.2978  -26.3671   20.1366 O   0  0  0  0  0  0
  -26.5622  -34.8925   22.4655 O   0  0  0  0  0  0
  -23.5448  -32.1376   23.7298 O   0  0  0  0  0  0
  -30.0369  -23.0333   20.6642 C   0  0  0  0  0  0
  -27.8080  -22.5077   19.8669 C   0  0  0  0  0  0
  -29.5642  -24.4047   21.2950 C   0  0  0  0  0  0
  -27.2309  -23.8597   20.4472 C   0  0  0  0  0  0
  -30.9771  -18.4889   20.8020 C   0  0  0  0  0  0
  -28.6684  -18.0243   20.1794 C   0  0  0  0  0  0
  -31.0561  -17.0596   21.4653 C   0  0  0  0  0  0
  -28.8027  -16.5728   20.8241 C   0  0  0  0  0  0
  -29.0070  -21.8498   20.6429 C   0  0  1  0  0  0
  -29.5715  -19.1706   20.7777 C   0  0  0  0  0  0
  -28.1998  -25.0457   20.8519 C   0  0  2  0  0  0
  -29.4425  -20.4316   18.5726 C   0  0  0  0  0  0
  -30.1758  -15.9927   20.8942 N   0  0  0  0  0  0
  -29.5985  -20.5420   20.0455 N   0  3  1  0  0  0
  -31.4487  -12.5595   19.1653 H   0  0  0  0  0  0
  -30.3397  -11.5155   19.9960 H   0  0  0  0  0  0
  -29.7922  -11.7064   17.5383 H   0  0  0  0  0  0
  -29.5951  -13.4349   17.7057 H   0  0  0  0  0  0
  -27.9221  -11.2382   18.9718 H   0  0  0  0  0  0
  -27.3616  -12.4176   17.8157 H   0  0  0  0  0  0
  -27.5807  -14.1886   19.3583 H   0  0  0  0  0  0
  -28.7243  -12.2670   21.4714 H   0  0  0  0  0  0
  -28.3929  -13.9562   21.7416 H   0  0  0  0  0  0
  -25.2758   -9.5651   22.4769 H   0  0  0  0  0  0
  -24.0003   -7.4597   22.7452 H   0  0  0  0  0  0
  -21.0850   -8.8749   19.8937 H   0  0  0  0  0  0
  -22.3701  -10.9658   19.6175 H   0  0  0  0  0  0
  -21.1999   -7.6143   23.9715 H   0  0  0  0  0  0
  -21.1480   -6.0521   25.9076 H   0  0  0  0  0  0
  -22.0606   -2.7607   23.2849 H   0  0  0  0  0  0
  -22.4107  -11.9822   22.4808 H   0  0  0  0  0  0
  -21.1081  -13.1170   22.2707 H   0  0  0  0  0  0
  -24.6491  -15.8390   20.5277 H   0  0  0  0  0  0
  -26.2653  -15.6275   20.0813 H   0  0  0  0  0  0
  -26.7192  -32.5412   23.1059 H   0  0  0  0  0  0
  -25.0127  -33.9718   25.0432 H   0  0  0  0  0  0
  -22.7214  -31.3049   21.3948 H   0  0  0  0  0  0
  -23.3785  -35.9568   23.3270 H   0  0  0  0  0  0
  -24.3581  -36.8897   22.2062 H   0  0  0  0  0  0
  -23.7205  -37.6448   23.6676 H   0  0  0  0  0  0
  -26.1125  -31.5282   20.6118 H   0  0  0  0  0  0
  -26.8512  -30.8174   22.0141 H   0  0  0  0  0  0
  -28.1129  -28.9188   21.2241 H   0  0  0  0  0  0
  -25.9892  -25.9639   18.9145 H   0  0  0  0  0  0
  -23.9802  -27.3323   18.9655 H   0  0  0  0  0  0
  -23.7752  -30.5961   19.4043 H   0  0  0  0  0  0
  -22.7632  -29.2549   19.8461 H   0  0  0  0  0  0
  -25.1292  -36.1905   25.0831 H   0  0  0  0  0  0
  -21.0012  -28.3285   24.1376 H   0  0  0  0  0  0
  -20.5723  -26.2318   23.3594 H   0  0  0  0  0  0
  -21.6658  -26.7455   22.1179 H   0  0  0  0  0  0
  -19.6946  -25.6282   21.1254 H   0  0  0  0  0  0
  -19.6732  -27.3172   20.6743 H   0  0  0  0  0  0
  -17.4226  -26.6702   21.4017 H   0  0  0  0  0  0
  -18.0345  -26.0084   22.9006 H   0  0  0  0  0  0
  -19.7973  -30.7286   24.2244 H   0  0  0  0  0  0
  -17.5057  -31.6287   24.5157 H   0  0  0  0  0  0
  -15.5388  -30.3010   23.7672 H   0  0  0  0  0  0
  -15.8681  -28.0845   22.7062 H   0  0  0  0  0  0
  -24.5907  -30.7083   25.7762 H   0  0  0  0  0  0
  -24.8889  -32.2952   26.4792 H   0  0  0  0  0  0
  -25.8013  -30.8995   27.0248 H   0  0  0  0  0  0
  -26.2955  -29.6761   24.1210 H   0  0  0  0  0  0
  -27.4068  -29.7288   25.4695 H   0  0  0  0  0  0
  -27.8801  -30.4330   23.9420 H   0  0  0  0  0  0
  -27.2676  -33.3669   26.2001 H   0  0  0  0  0  0
  -28.3895  -32.6818   25.0328 H   0  0  0  0  0  0
  -28.0671  -31.8495   26.5452 H   0  0  0  0  0  0
  -28.2562  -38.0120   24.7561 H   0  0  0  0  0  0
  -28.1119  -36.2648   24.6221 H   0  0  0  0  0  0
  -27.2312  -37.1318   25.8871 H   0  0  0  0  0  0
  -20.9381  -29.8770   21.6846 H   0  0  0  0  0  0
  -26.0161  -38.2832   24.1477 H   0  0  0  0  0  0
  -30.9327  -22.7129   21.1978 H   0  0  0  0  0  0
  -30.3646  -23.2341   19.6443 H   0  0  0  0  0  0
  -28.0959  -22.7125   18.8366 H   0  0  0  0  0  0
  -26.9932  -21.7845   19.8054 H   0  0  0  0  0  0
  -30.3567  -25.1453   21.1796 H   0  0  0  0  0  0
  -29.5036  -24.2379   22.3728 H   0  0  0  0  0  0
  -26.7042  -23.5789   21.3614 H   0  0  0  0  0  0
  -26.4344  -24.1917   19.7923 H   0  0  0  0  0  0
  -31.3617  -18.4071   19.7845 H   0  0  0  0  0  0
  -31.6749  -19.1448   21.3251 H   0  0  0  0  0  0
  -27.6250  -18.3376   20.2315 H   0  0  0  0  0  0
  -28.8819  -17.9040   19.1178 H   0  0  0  0  0  0
  -30.8059  -17.1517   22.5225 H   0  0  0  0  0  0
  -32.1026  -16.7513   21.4607 H   0  0  0  0  0  0
  -28.1552  -15.9192   20.2622 H   0  0  0  0  0  0
  -28.3991  -16.5898   21.8372 H   0  0  0  0  0  0
  -28.6974  -21.6419   21.6679 H   0  0  0  0  0  0
  -29.2696  -19.3481   21.8106 H   0  0  0  0  0  0
  -27.7715  -25.3992   21.7925 H   0  0  0  0  0  0
  -29.7648  -21.3453   18.0737 H   0  0  0  0  0  0
  -28.4065  -20.2358   18.2948 H   0  0  0  0  0  0
  -30.0579  -19.6304   18.1656 H   0  0  0  0  0  0
  -30.5803  -20.7541   20.1394 H   0  0  0  0  0  0
  1 25  1  0  0  0
  1 30  2  0  0  0
  1 83  1  0  0  0
  2  3  1  0  0  0
  2 25  1  0  0  0
  2 85  1  0  0  0
  2 86  1  0  0  0
  3  4  1  0  0  0
  3 87  1  0  0  0
  3 88  1  0  0  0
  4  5  1  0  0  0
  4 89  1  0  0  0
  4 90  1  0  0  0
  5  6  1  0  0  0
  5 26  1  0  0  0
  5 91  1  0  0  0
  6 25  1  0  0  0
  6 92  1  0  0  0
  6 93  1  0  0  0
  7  8  2  0  0  0
  7 26  1  0  0  0
  7 29  1  0  0  0
  8  9  1  0  0  0
  8 22  1  0  0  0
  9 10  1  0  0  0
  9 27  2  0  0  0
 10 11  2  0  0  0
 10 15  1  0  0  0
 11 12  1  0  0  0
 11 94  1  0  0  0
 12 13  2  0  0  0
 12 95  1  0  0  0
 13 14  1  0  0  0
 13 31  1  0  0  0
 14 15  2  0  0  0
 14 96  1  0  0  0
 15 97  1  0  0  0
 16 17  2  0  0  0
 16 21  1  0  0  0
 16 31  1  0  0  0
 17 18  1  0  0  0
 17 98  1  0  0  0
 18 19  2  0  0  0
 18 99  1  0  0  0
 19 20  1  0  0  0
 19 24  1  0  0  0
 20 21  2  0  0  0
 20100  1  0  0  0
 21 23  1  0  0  0
 22 28  1  0  0  0
 22 32  2  0  0  0
 26 27  1  0  0  0
 28101  1  0  0  0
 28102  1  0  0  0
 29103  1  0  0  0
 29104  1  0  0  0
 33 34  1  0  0  0
 33 66  1  0  0  0
 33 70  2  0  0  0
 34 36  1  0  0  0
 34 59  1  0  0  0
 34105  1  0  0  0
 35 44  2  0  0  0
 35 45  1  0  0  0
 35 68  1  0  0  0
 36 56  1  0  0  0
 36106  1  0  0  0
 37 39  1  0  0  0
 37 47  1  0  0  0
 37 66  1  0  0  0
 37107  1  0  0  0
 38 43  2  0  0  0
 38 46  1  0  0  0
 38 47  1  0  0  0
 39 64  1  0  0  0
 39 67  2  0  0  0
 40 52  1  0  0  0
 40 53  2  0  0  0
 40 58  1  0  0  0
 41108  1  0  0  0
 41109  1  0  0  0
 41110  1  0  0  0
 41 48  1  0  0  0
 42 43  1  0  0  0
 42 66  1  0  0  0
 42111  1  0  0  0
 42112  1  0  0  0
 43 44  1  0  0  0
 44113  1  0  0  0
 45 46  2  0  0  0
 45114  1  0  0  0
 46115  1  0  0  0
 47116  1  0  0  0
 47117  1  0  0  0
 48 56  1  0  0  0
 48 65  1  0  0  0
 48118  1  0  0  0
 49 50  1  0  0  0
 49 53  1  0  0  0
 49 64  1  0  0  0
 49119  1  0  0  0
 50 51  1  0  0  0
 50120  1  0  0  0
 50121  1  0  0  0
 51 52  1  0  0  0
 51122  1  0  0  0
 51123  1  0  0  0
 52124  1  0  0  0
 52125  1  0  0  0
 53 54  1  0  0  0
 54 55  2  0  0  0
 54126  1  0  0  0
 55 57  1  0  0  0
 55127  1  0  0  0
 56 69  2  0  0  0
 57 58  2  0  0  0
 57128  1  0  0  0
 58129  1  0  0  0
 59 60  1  0  0  0
 59 61  1  0  0  0
 59 62  1  0  0  0
 60130  1  0  0  0
 60131  1  0  0  0
 60132  1  0  0  0
 61133  1  0  0  0
 61134  1  0  0  0
 61135  1  0  0  0
 62136  1  0  0  0
 62137  1  0  0  0
 62138  1  0  0  0
 63 65  1  0  0  0
 63139  1  0  0  0
 63140  1  0  0  0
 63141  1  0  0  0
 64142  1  0  0  0
 65143  1  0  0  0
 68 81  1  0  0  0
 71 73  1  0  0  0
 71144  1  0  0  0
 71145  1  0  0  0
 71 79  1  0  0  0
 72 74  1  0  0  0
 72 79  1  0  0  0
 72146  1  0  0  0
 72147  1  0  0  0
 73 81  1  0  0  0
 73148  1  0  0  0
 73149  1  0  0  0
 74 81  1  0  0  0
 74150  1  0  0  0
 74151  1  0  0  0
 75 77  1  0  0  0
 75152  1  0  0  0
 75153  1  0  0  0
 75 80  1  0  0  0
 76 78  1  0  0  0
 76 80  1  0  0  0
 76154  1  0  0  0
 76155  1  0  0  0
 77 83  1  0  0  0
 77156  1  0  0  0
 77157  1  0  0  0
 78 83  1  0  0  0
 78158  1  0  0  0
 78159  1  0  0  0
 79 84  1  0  0  0
 79160  1  0  0  0
 80 84  1  0  0  0
 80161  1  0  0  0
 81162  1  0  0  0
 82163  1  0  0  0
 82164  1  0  0  0
 82165  1  0  0  0
 82 84  1  0  0  0
 84166  1  0  0  0
M  CHG  1  84   1
M  ISO  4   1 100  68 101  81 101  83 100
M  END
> <chiral flag>
0

> <version>
0

> <s_m_source_file>
/data/baiqing/PycharmProjects/Reinvent-master-3.2/result/LINK_invent/BTK/process_docking_weight1_custom_sum_contain_oxygen_bond_distance_aromatic_linkinvent_7_9_3/rearranged_h_0150.sdf

> <i_m_source_file_index>
90

> <r_mmod_Potential_Energy-OPLS-2005>
413.187347412109

> <r_mmod_Stretch_Energy-OPLS-2005>
120.672897338867

> <r_mmod_Bend_Energy-OPLS-2005>
254.3017578125

> <r_mmod_Torsional_Energy-OPLS-2005>
382.921966552734

> <r_mmod_Improper_Torsional_Energy-OPLS-2005>
1.60132908821106

> <r_mmod_Van_der_Waal_Energy-OPLS-2005>
137.126770019531

> <r_mmod_Electrostatic_Energy-OPLS-2005>
-143.906188964844

> <r_mmod_Solvation_Energy-OPLS-2005>
-430.226287841797

> <b_mmod_Minimization_Converged-OPLS-2005>
0

> <r_mmod_RMS_Derivative-OPLS-2005>
1.66096448898315

$$$$
90
                    3D
 Structure written by MMmdl.
167176  0  0  1  0            999 V2000
  -30.7974  -14.3245   20.7380 C   0  0  0  0  0  0
  -30.4175  -12.2923   19.3901 C   0  0  0  0  0  0
  -29.4819  -12.5300   18.1918 C   0  0  0  0  0  0
  -28.0062  -12.3890   18.6084 C   0  0  0  0  0  0
  -27.6673  -13.2046   19.8852 C   0  0  2  0  0  0
  -28.7045  -12.9338   20.9974 C   0  0  0  0  0  0
  -25.2596  -13.8150   20.5696 C   0  0  0  0  0  0
  -24.1843  -13.0428   20.9184 C   0  0  0  0  0  0
  -24.6393  -11.6895   20.8740 C   0  0  0  0  0  0
  -23.9059  -10.4286   21.0413 C   0  0  0  0  0  0
  -24.3607   -9.4201   21.9182 C   0  0  0  0  0  0
  -23.6285   -8.2238   22.0741 C   0  0  0  0  0  0
  -22.4272   -8.0263   21.3523 C   0  0  0  0  0  0
  -21.9906   -9.0252   20.4635 C   0  0  0  0  0  0
  -22.7235  -10.2133   20.3053 C   0  0  0  0  0  0
  -21.6853   -6.0737   22.5282 C   0  0  0  0  0  0
  -21.4004   -6.5640   23.8211 C   0  0  0  0  0  0
  -21.3655   -5.6787   24.9171 C   0  0  0  0  0  0
  -21.6047   -4.3042   24.7228 C   0  0  0  0  0  0
  -21.8810   -3.8149   23.4342 C   0  0  0  0  0  0
  -21.9187   -4.6966   22.3405 C   0  0  0  0  0  0
  -22.7864  -13.5246   21.1846 C   0  0  0  0  0  0
  -22.1667   -4.2155   21.0980 F   0  0  0  0  0  0
  -21.5638   -3.4529   25.7740 F   0  0  0  0  0  0
  -30.0520  -13.2210   20.4693 N   0  0  0  0  0  0
  -26.3040  -12.9318   20.3405 N   0  0  0  0  0  0
  -25.9310  -11.6475   20.5741 N   0  0  0  0  0  0
  -22.0518  -12.8241   22.0394 N   0  0  0  0  0  0
  -25.4336  -15.1858   20.4144 N   0  0  0  0  0  0
  -31.7777  -14.6516   20.0565 O   0  0  0  0  0  0
  -21.6628   -6.8875   21.4233 O   0  0  0  0  0  0
  -22.3561  -14.5581   20.6724 O   0  0  0  0  0  0
  -24.6118  -31.8730   23.2148 C   0  0  0  0  0  0
  -25.9036  -32.4858   23.8428 C   0  0  1  0  0  0
  -27.2290  -27.4695   20.0834 C   0  0  0  0  0  0
  -25.5906  -33.8655   24.2370 N   0  0  0  0  0  0
  -23.3960  -30.4991   21.5550 C   0  0  2  0  0  0
  -24.8400  -28.9692   20.1159 C   0  0  0  0  0  0
  -22.7387  -29.4703   22.5016 C   0  0  0  0  0  0
  -18.0269  -28.1380   22.8502 C   0  0  0  0  0  0
  -24.1480  -36.7315   23.2632 C   0  0  0  0  0  0
  -25.9206  -30.8510   21.3581 C   0  0  0  0  0  0
  -25.9991  -29.4873   20.7057 C   0  0  0  0  0  0
  -27.1990  -28.7453   20.6830 C   0  0  0  0  0  0
  -26.0532  -26.9584   19.4886 C   0  0  0  0  0  0
  -24.8606  -27.7034   19.5065 C   0  0  0  0  0  0
  -23.6016  -29.8337   20.1687 C   0  0  0  0  0  0
  -25.4099  -36.3138   24.0349 C   0  0  1  0  0  0
  -20.5852  -28.3677   23.1337 C   0  0  2  0  0  0
  -20.6758  -26.9423   22.5423 C   0  0  0  0  0  0
  -19.5734  -26.6405   21.5221 C   0  0  0  0  0  0
  -18.1915  -26.7930   22.1638 C   0  0  0  0  0  0
  -19.1511  -28.8844   23.2920 C   0  0  0  0  0  0
  -18.9448  -30.1445   23.8944 C   0  0  0  0  0  0
  -17.6450  -30.6593   24.0583 C   0  0  0  0  0  0
  -25.9033  -34.9502   23.5162 C   0  0  0  0  0  0
  -16.5341  -29.9105   23.6324 C   0  0  0  0  0  0
  -16.7259  -28.6514   23.0355 C   0  0  0  0  0  0
  -26.4471  -31.6610   25.0732 C   0  0  0  0  0  0
  -25.3763  -31.3684   26.1499 C   0  0  0  0  0  0
  -27.0275  -30.3067   24.6036 C   0  0  0  0  0  0
  -27.6083  -32.4292   25.7468 C   0  0  0  0  0  0
  -27.5581  -37.1810   24.8463 C   0  0  0  0  0  0
  -21.4115  -29.3045   22.3741 N   0  0  0  0  0  0
  -26.4288  -37.3822   23.9420 N   0  0  0  0  0  0
  -24.6611  -31.0865   22.1020 N   0  0  0  0  0  0
  -23.4179  -28.8240   23.3040 O   0  0  0  0  0  0
  -28.4088  -26.7655   20.0895 O   0  0  0  0  0  0
  -26.5574  -34.8933   22.4709 O   0  0  0  0  0  0
  -23.5326  -32.1464   23.7563 O   0  0  0  0  0  0
  -30.8136  -20.4909   21.0170 C   0  0  0  0  0  0
  -30.0383  -20.9657   23.2633 C   0  0  0  0  0  0
  -30.3625  -18.6260   22.5591 C   0  0  0  0  0  0
  -30.4629  -21.4219   22.0044 C   0  0  0  0  0  0
  -30.7858  -19.1059   21.2801 C   0  0  0  0  0  0
  -30.0024  -19.5858   23.5535 C   0  0  0  0  0  0
  -31.7635  -16.5727   23.1974 C   0  0  0  0  0  0
  -31.6246  -15.0811   22.9080 C   0  0  0  0  0  0
  -29.6994  -16.1282   21.9518 C   0  0  0  0  0  0
  -30.3702  -17.1245   22.9224 C   0  0  2  0  0  0
  -31.2661  -18.2155   20.1421 C   0  0  0  0  0  0
  -29.6142  -19.1878   24.9731 C   0  0  0  0  0  0
  -30.5984  -22.9029   21.7237 C   0  0  0  0  0  0
  -28.2959  -25.3507   20.1976 C   0  0  0  0  0  0
  -29.5933  -24.8090   20.7984 C   0  0  0  0  0  0
  -30.5447  -14.9230   21.9226 N   0  0  0  0  0  0
  -29.4627  -23.4174   21.0480 O   0  0  0  0  0  0
  -31.4598  -12.3968   19.0802 H   0  0  0  0  0  0
  -30.3198  -11.2697   19.7568 H   0  0  0  0  0  0
  -29.7117  -11.8246   17.3911 H   0  0  0  0  0  0
  -29.6534  -13.5259   17.7783 H   0  0  0  0  0  0
  -27.8105  -11.3295   18.7777 H   0  0  0  0  0  0
  -27.3510  -12.6844   17.7881 H   0  0  0  0  0  0
  -27.7289  -14.2625   19.6272 H   0  0  0  0  0  0
  -28.6578  -11.8877   21.3078 H   0  0  0  0  0  0
  -28.4591  -13.5094   21.8890 H   0  0  0  0  0  0
  -25.2758   -9.5678   22.4738 H   0  0  0  0  0  0
  -24.0007   -7.4632   22.7438 H   0  0  0  0  0  0
  -21.0848   -8.8784   19.8934 H   0  0  0  0  0  0
  -22.3711  -10.9679   19.6160 H   0  0  0  0  0  0
  -21.1986   -7.6148   23.9726 H   0  0  0  0  0  0
  -21.1497   -6.0515   25.9080 H   0  0  0  0  0  0
  -22.0593   -2.7609   23.2854 H   0  0  0  0  0  0
  -22.4159  -11.9919   22.4799 H   0  0  0  0  0  0
  -21.1116  -13.1216   22.2579 H   0  0  0  0  0  0
  -24.6719  -15.8453   20.5361 H   0  0  0  0  0  0
  -26.2894  -15.6255   20.1000 H   0  0  0  0  0  0
  -26.7103  -32.5597   23.1201 H   0  0  0  0  0  0
  -25.0088  -33.9824   25.0534 H   0  0  0  0  0  0
  -22.6831  -31.3162   21.4203 H   0  0  0  0  0  0
  -23.3757  -35.9637   23.3308 H   0  0  0  0  0  0
  -24.3571  -36.8911   22.2044 H   0  0  0  0  0  0
  -23.7213  -37.6518   23.6626 H   0  0  0  0  0  0
  -26.0181  -31.6174   20.5869 H   0  0  0  0  0  0
  -26.8150  -30.9139   21.9670 H   0  0  0  0  0  0
  -28.0960  -29.1441   21.1349 H   0  0  0  0  0  0
  -26.0475  -25.9949   18.9997 H   0  0  0  0  0  0
  -23.9685  -27.3021   19.0464 H   0  0  0  0  0  0
  -23.7102  -30.6120   19.4120 H   0  0  0  0  0  0
  -22.7254  -29.2565   19.8705 H   0  0  0  0  0  0
  -25.1267  -36.2017   25.0842 H   0  0  0  0  0  0
  -20.9960  -28.3248   24.1454 H   0  0  0  0  0  0
  -20.5670  -26.2288   23.3598 H   0  0  0  0  0  0
  -21.6622  -26.7468   22.1211 H   0  0  0  0  0  0
  -19.6888  -25.6328   21.1226 H   0  0  0  0  0  0
  -19.6664  -27.3225   20.6756 H   0  0  0  0  0  0
  -17.4175  -26.6695   21.4045 H   0  0  0  0  0  0
  -18.0324  -26.0064   22.9025 H   0  0  0  0  0  0
  -19.7918  -30.7242   24.2357 H   0  0  0  0  0  0
  -17.5005  -31.6276   24.5170 H   0  0  0  0  0  0
  -15.5343  -30.3029   23.7606 H   0  0  0  0  0  0
  -15.8659  -28.0840   22.7073 H   0  0  0  0  0  0
  -24.5910  -30.7066   25.7815 H   0  0  0  0  0  0
  -24.8989  -32.2830   26.5024 H   0  0  0  0  0  0
  -25.8142  -30.8779   27.0203 H   0  0  0  0  0  0
  -26.2777  -29.6843   24.1133 H   0  0  0  0  0  0
  -27.4110  -29.7285   25.4447 H   0  0  0  0  0  0
  -27.8586  -30.4391   23.9110 H   0  0  0  0  0  0
  -27.2754  -33.3582   26.2090 H   0  0  0  0  0  0
  -28.3866  -32.6851   25.0275 H   0  0  0  0  0  0
  -28.0771  -31.8378   26.5337 H   0  0  0  0  0  0
  -28.2608  -38.0102   24.7547 H   0  0  0  0  0  0
  -28.1077  -36.2645   24.6256 H   0  0  0  0  0  0
  -27.2306  -37.1420   25.8868 H   0  0  0  0  0  0
  -20.9271  -29.8780   21.6973 H   0  0  0  0  0  0
  -26.0192  -38.2901   24.1450 H   0  0  0  0  0  0
  -31.1398  -20.8509   20.0492 H   0  0  0  0  0  0
  -29.7670  -21.6872   24.0212 H   0  0  0  0  0  0
  -32.5023  -17.0024   22.5225 H   0  0  0  0  0  0
  -32.1044  -16.7878   24.2121 H   0  0  0  0  0  0
  -31.3253  -14.5530   23.8147 H   0  0  0  0  0  0
  -32.5770  -14.6520   22.5898 H   0  0  0  0  0  0
  -29.5461  -16.5336   20.9541 H   0  0  0  0  0  0
  -28.7041  -15.8660   22.3114 H   0  0  0  0  0  0
  -29.8136  -16.9781   23.8465 H   0  0  0  0  0  0
  -32.0348  -18.7248   19.5593 H   0  0  0  0  0  0
  -30.4421  -17.9847   19.4647 H   0  0  0  0  0  0
  -31.7117  -17.2841   20.4805 H   0  0  0  0  0  0
  -29.4966  -20.0583   25.6212 H   0  0  0  0  0  0
  -30.3929  -18.5691   25.4176 H   0  0  0  0  0  0
  -28.6722  -18.6394   24.9900 H   0  0  0  0  0  0
  -31.4957  -23.0607   21.1220 H   0  0  0  0  0  0
  -30.7510  -23.4342   22.6652 H   0  0  0  0  0  0
  -27.4689  -25.0815   20.8593 H   0  0  0  0  0  0
  -28.1096  -24.9013   19.2211 H   0  0  0  0  0  0
  -29.7964  -25.3318   21.7343 H   0  0  0  0  0  0
  -30.4279  -25.0019   20.1243 H   0  0  0  0  0  0
  1 25  1  0  0  0
  1 30  2  0  0  0
  1 86  1  0  0  0
  2  3  1  0  0  0
  2 25  1  0  0  0
  2 88  1  0  0  0
  2 89  1  0  0  0
  3  4  1  0  0  0
  3 90  1  0  0  0
  3 91  1  0  0  0
  4  5  1  0  0  0
  4 92  1  0  0  0
  4 93  1  0  0  0
  5  6  1  0  0  0
  5 26  1  0  0  0
  5 94  1  0  0  0
  6 25  1  0  0  0
  6 95  1  0  0  0
  6 96  1  0  0  0
  7  8  2  0  0  0
  7 26  1  0  0  0
  7 29  1  0  0  0
  8  9  1  0  0  0
  8 22  1  0  0  0
  9 10  1  0  0  0
  9 27  2  0  0  0
 10 11  2  0  0  0
 10 15  1  0  0  0
 11 12  1  0  0  0
 11 97  1  0  0  0
 12 13  2  0  0  0
 12 98  1  0  0  0
 13 14  1  0  0  0
 13 31  1  0  0  0
 14 15  2  0  0  0
 14 99  1  0  0  0
 15100  1  0  0  0
 16 17  2  0  0  0
 16 21  1  0  0  0
 16 31  1  0  0  0
 17 18  1  0  0  0
 17101  1  0  0  0
 18 19  2  0  0  0
 18102  1  0  0  0
 19 20  1  0  0  0
 19 24  1  0  0  0
 20 21  2  0  0  0
 20103  1  0  0  0
 21 23  1  0  0  0
 22 28  1  0  0  0
 22 32  2  0  0  0
 26 27  1  0  0  0
 28104  1  0  0  0
 28105  1  0  0  0
 29106  1  0  0  0
 29107  1  0  0  0
 33 34  1  0  0  0
 33 66  1  0  0  0
 33 70  2  0  0  0
 34 36  1  0  0  0
 34 59  1  0  0  0
 34108  1  0  0  0
 35 44  2  0  0  0
 35 45  1  0  0  0
 35 68  1  0  0  0
 36 56  1  0  0  0
 36109  1  0  0  0
 37 39  1  0  0  0
 37 47  1  0  0  0
 37 66  1  0  0  0
 37110  1  0  0  0
 38 43  2  0  0  0
 38 46  1  0  0  0
 38 47  1  0  0  0
 39 64  1  0  0  0
 39 67  2  0  0  0
 40 52  1  0  0  0
 40 53  2  0  0  0
 40 58  1  0  0  0
 41111  1  0  0  0
 41112  1  0  0  0
 41113  1  0  0  0
 41 48  1  0  0  0
 42 43  1  0  0  0
 42 66  1  0  0  0
 42114  1  0  0  0
 42115  1  0  0  0
 43 44  1  0  0  0
 44116  1  0  0  0
 45 46  2  0  0  0
 45117  1  0  0  0
 46118  1  0  0  0
 47119  1  0  0  0
 47120  1  0  0  0
 48 56  1  0  0  0
 48 65  1  0  0  0
 48121  1  0  0  0
 49 50  1  0  0  0
 49 53  1  0  0  0
 49 64  1  0  0  0
 49122  1  0  0  0
 50 51  1  0  0  0
 50123  1  0  0  0
 50124  1  0  0  0
 51 52  1  0  0  0
 51125  1  0  0  0
 51126  1  0  0  0
 52127  1  0  0  0
 52128  1  0  0  0
 53 54  1  0  0  0
 54 55  2  0  0  0
 54129  1  0  0  0
 55 57  1  0  0  0
 55130  1  0  0  0
 56 69  2  0  0  0
 57 58  2  0  0  0
 57131  1  0  0  0
 58132  1  0  0  0
 59 60  1  0  0  0
 59 61  1  0  0  0
 59 62  1  0  0  0
 60133  1  0  0  0
 60134  1  0  0  0
 60135  1  0  0  0
 61136  1  0  0  0
 61137  1  0  0  0
 61138  1  0  0  0
 62139  1  0  0  0
 62140  1  0  0  0
 62141  1  0  0  0
 63 65  1  0  0  0
 63142  1  0  0  0
 63143  1  0  0  0
 63144  1  0  0  0
 64145  1  0  0  0
 65146  1  0  0  0
 68 84  1  0  0  0
 71 74  2  0  0  0
 71 75  1  0  0  0
 71147  1  0  0  0
 72 74  1  0  0  0
 72 76  2  0  0  0
 72148  1  0  0  0
 73 75  2  0  0  0
 73 76  1  0  0  0
 73 80  1  0  0  0
 74 83  1  0  0  0
 75 81  1  0  0  0
 76 82  1  0  0  0
 77 78  1  0  0  0
 77 80  1  0  0  0
 77149  1  0  0  0
 77150  1  0  0  0
 78 86  1  0  0  0
 78151  1  0  0  0
 78152  1  0  0  0
 79 80  1  0  0  0
 79 86  1  0  0  0
 79153  1  0  0  0
 79154  1  0  0  0
 80155  1  0  0  0
 81156  1  0  0  0
 81157  1  0  0  0
 81158  1  0  0  0
 82159  1  0  0  0
 82160  1  0  0  0
 82161  1  0  0  0
 83 87  1  0  0  0
 83162  1  0  0  0
 83163  1  0  0  0
 84 85  1  0  0  0
 84164  1  0  0  0
 84165  1  0  0  0
 85 87  1  0  0  0
 85166  1  0  0  0
 85167  1  0  0  0
M  ISO  4   1 100  68 101  84 101  86 100
M  END
> <chiral flag>
0

> <version>
0

> <s_m_source_file>
/data/baiqing/PycharmProjects/Reinvent-master-3.2/result/LINK_invent/BTK/process_docking_weight1_custom_sum_contain_oxygen_bond_distance_aromatic_linkinvent_7_9_3/rearranged_h_0150.sdf

> <i_m_source_file_index>
91

> <r_mmod_Potential_Energy-OPLS-2005>
180.769805908203

> <r_mmod_Stretch_Energy-OPLS-2005>
37.3038330078125

> <r_mmod_Bend_Energy-OPLS-2005>
115.322418212891

> <r_mmod_Torsional_Energy-OPLS-2005>
346.053741455078

> <r_mmod_Improper_Torsional_Energy-OPLS-2005>
8.50896739959717

> <r_mmod_Van_der_Waal_Energy-OPLS-2005>
159.836608886719

> <r_mmod_Electrostatic_Energy-OPLS-2005>
-299.220245361328

> <r_mmod_Solvation_Energy-OPLS-2005>
-195.069030761719

> <b_mmod_Minimization_Converged-OPLS-2005>
0

> <r_mmod_RMS_Derivative-OPLS-2005>
3.42813730239868

$$$$
91
                    3D
 Structure written by MMmdl.
166175  0  0  1  0            999 V2000
  -30.7237  -14.4421   20.5372 C   0  0  0  0  0  0
  -30.4123  -12.2820   19.4187 C   0  0  0  0  0  0
  -29.4876  -12.4868   18.2025 C   0  0  0  0  0  0
  -28.0087  -12.3514   18.6146 C   0  0  0  0  0  0
  -27.6566  -13.1990   19.8678 C   0  0  2  0  0  0
  -28.7023  -13.0086   20.9910 C   0  0  0  0  0  0
  -25.2608  -13.8147   20.5663 C   0  0  0  0  0  0
  -24.1841  -13.0438   20.9165 C   0  0  0  0  0  0
  -24.6381  -11.6910   20.8751 C   0  0  0  0  0  0
  -23.9044  -10.4311   21.0421 C   0  0  0  0  0  0
  -24.3624   -9.4224   21.9179 C   0  0  0  0  0  0
  -23.6311   -8.2261   22.0751 C   0  0  0  0  0  0
  -22.4296   -8.0287   21.3541 C   0  0  0  0  0  0
  -21.9911   -9.0256   20.4655 C   0  0  0  0  0  0
  -22.7221  -10.2139   20.3075 C   0  0  0  0  0  0
  -21.6857   -6.0750   22.5282 C   0  0  0  0  0  0
  -21.4014   -6.5648   23.8210 C   0  0  0  0  0  0
  -21.3666   -5.6799   24.9165 C   0  0  0  0  0  0
  -21.6059   -4.3065   24.7231 C   0  0  0  0  0  0
  -21.8829   -3.8162   23.4345 C   0  0  0  0  0  0
  -21.9199   -4.6978   22.3405 C   0  0  0  0  0  0
  -22.7870  -13.5255   21.1813 C   0  0  0  0  0  0
  -22.1657   -4.2167   21.0979 F   0  0  0  0  0  0
  -21.5647   -3.4538   25.7744 F   0  0  0  0  0  0
  -30.0316  -13.2790   20.4253 N   0  0  0  0  0  0
  -26.3010  -12.9273   20.3371 N   0  0  0  0  0  0
  -25.9312  -11.6455   20.5797 N   0  0  0  0  0  0
  -22.0533  -12.8236   22.0391 N   0  0  0  0  0  0
  -25.4373  -15.1841   20.4101 N   0  0  0  0  0  0
  -31.8877  -14.5769   20.1487 O   0  0  0  0  0  0
  -21.6661   -6.8891   21.4241 O   0  0  0  0  0  0
  -22.3540  -14.5548   20.6665 O   0  0  0  0  0  0
  -24.6088  -31.8707   23.2126 C   0  0  0  0  0  0
  -25.8989  -32.4849   23.8429 C   0  0  1  0  0  0
  -27.2581  -27.4621   20.1027 C   0  0  0  0  0  0
  -25.5867  -33.8645   24.2365 N   0  0  0  0  0  0
  -23.3960  -30.4905   21.5516 C   0  0  2  0  0  0
  -24.8466  -28.9547   20.1136 C   0  0  0  0  0  0
  -22.7396  -29.4660   22.5027 C   0  0  0  0  0  0
  -18.0287  -28.1385   22.8485 C   0  0  0  0  0  0
  -24.1472  -36.7311   23.2638 C   0  0  0  0  0  0
  -25.9179  -30.8407   21.3611 C   0  0  0  0  0  0
  -25.9965  -29.4723   20.7199 C   0  0  0  0  0  0
  -27.1934  -28.7271   20.7223 C   0  0  0  0  0  0
  -26.0875  -26.9487   19.4923 C   0  0  0  0  0  0
  -24.8857  -27.6892   19.4991 C   0  0  0  0  0  0
  -23.6025  -29.8172   20.1652 C   0  0  0  0  0  0
  -25.4093  -36.3129   24.0362 C   0  0  1  0  0  0
  -20.5858  -28.3662   23.1336 C   0  0  2  0  0  0
  -20.6734  -26.9401   22.5433 C   0  0  0  0  0  0
  -19.5740  -26.6392   21.5197 C   0  0  0  0  0  0
  -18.1914  -26.7949   22.1587 C   0  0  0  0  0  0
  -19.1527  -28.8850   23.2906 C   0  0  0  0  0  0
  -18.9448  -30.1445   23.8935 C   0  0  0  0  0  0
  -17.6444  -30.6581   24.0572 C   0  0  0  0  0  0
  -25.9035  -34.9499   23.5174 C   0  0  0  0  0  0
  -16.5349  -29.9084   23.6301 C   0  0  0  0  0  0
  -16.7275  -28.6498   23.0339 C   0  0  0  0  0  0
  -26.4449  -31.6614   25.0734 C   0  0  0  0  0  0
  -25.3764  -31.3644   26.1525 C   0  0  0  0  0  0
  -27.0248  -30.3086   24.6006 C   0  0  0  0  0  0
  -27.6084  -32.4332   25.7398 C   0  0  0  0  0  0
  -27.5616  -37.1761   24.8459 C   0  0  0  0  0  0
  -21.4129  -29.3022   22.3749 N   0  0  0  0  0  0
  -26.4274  -37.3827   23.9483 N   0  0  0  0  0  0
  -24.6589  -31.0836   22.1000 N   0  0  0  0  0  0
  -23.4187  -28.8239   23.3075 O   0  0  0  0  0  0
  -28.4714  -26.8043   20.1567 O   0  0  0  0  0  0
  -26.5620  -34.8945   22.4747 O   0  0  0  0  0  0
  -23.5293  -32.1440   23.7552 O   0  0  0  0  0  0
  -32.6679  -21.8345   21.2384 C   0  0  0  0  0  0
  -31.7671  -22.8794   20.9549 C   0  0  0  0  0  0
  -30.0354  -21.2360   20.4895 C   0  0  0  0  0  0
  -32.2770  -20.4809   21.1256 C   0  0  0  0  0  0
  -30.4419  -22.5826   20.5598 C   0  0  0  0  0  0
  -30.9333  -20.1786   20.7742 C   0  0  0  0  0  0
  -33.2922  -19.4061   21.4286 C   0  0  0  0  0  0
  -28.7218  -17.5467   19.9445 C   0  0  0  0  0  0
  -29.4871  -17.5134   22.3084 C   0  0  0  0  0  0
  -29.6615  -16.3630   19.6484 C   0  0  0  0  0  0
  -30.4190  -16.3214   22.0011 C   0  0  0  0  0  0
  -29.2852  -18.4074   21.0754 C   0  0  0  0  0  0
  -28.7170  -25.6382   19.3746 C   0  0  0  0  0  0
  -29.9247  -24.8626   19.9477 C   0  0  0  0  0  0
  -29.9837  -15.5356   20.8321 N   0  0  0  0  0  0
  -33.3236  -18.3497   20.6234 N   0  0  0  0  0  0
  -34.1027  -19.5332   22.3461 O   0  0  0  0  0  0
  -30.5686  -18.8581   20.6441 O   0  0  0  0  0  0
  -29.4997  -23.5308   20.2292 O   0  0  0  0  0  0
  -31.4573  -12.3673   19.1151 H   0  0  0  0  0  0
  -30.2976  -11.2789   19.8328 H   0  0  0  0  0  0
  -29.7269  -11.7627   17.4230 H   0  0  0  0  0  0
  -29.6585  -13.4708   17.7631 H   0  0  0  0  0  0
  -27.8108  -11.2947   18.8055 H   0  0  0  0  0  0
  -27.3619  -12.6289   17.7812 H   0  0  0  0  0  0
  -27.6820  -14.2405   19.5543 H   0  0  0  0  0  0
  -28.6683  -11.9923   21.3825 H   0  0  0  0  0  0
  -28.4806  -13.6646   21.8358 H   0  0  0  0  0  0
  -25.2791   -9.5703   22.4712 H   0  0  0  0  0  0
  -24.0054   -7.4655   22.7450 H   0  0  0  0  0  0
  -21.0847   -8.8772   19.8940 H   0  0  0  0  0  0
  -22.3680  -10.9688   19.6197 H   0  0  0  0  0  0
  -21.1970   -7.6149   23.9717 H   0  0  0  0  0  0
  -21.1481   -6.0523   25.9068 H   0  0  0  0  0  0
  -22.0591   -2.7624   23.2850 H   0  0  0  0  0  0
  -22.4211  -11.9909   22.4755 H   0  0  0  0  0  0
  -21.1163  -13.1255   22.2655 H   0  0  0  0  0  0
  -24.6792  -15.8486   20.5214 H   0  0  0  0  0  0
  -26.3077  -15.6157   20.1293 H   0  0  0  0  0  0
  -26.7065  -32.5585   23.1205 H   0  0  0  0  0  0
  -24.9988  -33.9808   25.0488 H   0  0  0  0  0  0
  -22.6812  -31.3049   21.4169 H   0  0  0  0  0  0
  -23.3770  -35.9599   23.3242 H   0  0  0  0  0  0
  -24.3577  -36.8975   22.2063 H   0  0  0  0  0  0
  -23.7145  -37.6467   23.6681 H   0  0  0  0  0  0
  -26.0223  -31.6001   20.5849 H   0  0  0  0  0  0
  -26.8089  -30.9036   21.9733 H   0  0  0  0  0  0
  -28.0773  -29.1231   21.2020 H   0  0  0  0  0  0
  -26.0767  -25.9817   19.0157 H   0  0  0  0  0  0
  -24.0036  -27.2796   19.0270 H   0  0  0  0  0  0
  -23.7078  -30.5942   19.4070 H   0  0  0  0  0  0
  -22.7232  -29.2395   19.8696 H   0  0  0  0  0  0
  -25.1232  -36.1990   25.0842 H   0  0  0  0  0  0
  -20.9960  -28.3243   24.1454 H   0  0  0  0  0  0
  -20.5551  -26.2311   23.3638 H   0  0  0  0  0  0
  -21.6621  -26.7373   22.1306 H   0  0  0  0  0  0
  -19.6881  -25.6298   21.1242 H   0  0  0  0  0  0
  -19.6695  -27.3191   20.6724 H   0  0  0  0  0  0
  -17.4188  -26.6758   21.3966 H   0  0  0  0  0  0
  -18.0276  -26.0071   22.8956 H   0  0  0  0  0  0
  -19.7909  -30.7255   24.2344 H   0  0  0  0  0  0
  -17.4984  -31.6249   24.5190 H   0  0  0  0  0  0
  -15.5345  -30.2992   23.7581 H   0  0  0  0  0  0
  -15.8685  -28.0818   22.7030 H   0  0  0  0  0  0
  -24.5979  -30.6928   25.7881 H   0  0  0  0  0  0
  -24.8889  -32.2741   26.5040 H   0  0  0  0  0  0
  -25.8188  -30.8803   27.0241 H   0  0  0  0  0  0
  -26.2697  -29.6842   24.1216 H   0  0  0  0  0  0
  -27.4231  -29.7327   25.4363 H   0  0  0  0  0  0
  -27.8455  -30.4464   23.8967 H   0  0  0  0  0  0
  -27.2776  -33.3641   26.2016 H   0  0  0  0  0  0
  -28.3789  -32.6891   25.0113 H   0  0  0  0  0  0
  -28.0880  -31.8450   26.5227 H   0  0  0  0  0  0
  -28.2565  -38.0133   24.7664 H   0  0  0  0  0  0
  -28.1183  -36.2687   24.6054 H   0  0  0  0  0  0
  -27.2406  -37.1152   25.8873 H   0  0  0  0  0  0
  -20.9323  -29.8769   21.6973 H   0  0  0  0  0  0
  -26.0173  -38.2888   24.1578 H   0  0  0  0  0  0
  -33.6797  -22.0777   21.5294 H   0  0  0  0  0  0
  -32.1215  -23.8970   21.0438 H   0  0  0  0  0  0
  -29.0265  -21.0274   20.1650 H   0  0  0  0  0  0
  -27.7264  -17.1867   20.2074 H   0  0  0  0  0  0
  -28.6021  -18.1503   19.0435 H   0  0  0  0  0  0
  -29.8936  -18.0985   23.1324 H   0  0  0  0  0  0
  -28.5209  -17.1395   22.6497 H   0  0  0  0  0  0
  -30.5893  -16.7463   19.2201 H   0  0  0  0  0  0
  -29.2106  -15.7481   18.8695 H   0  0  0  0  0  0
  -30.4741  -15.6746   22.8776 H   0  0  0  0  0  0
  -31.4343  -16.6880   21.8319 H   0  0  0  0  0  0
  -28.5887  -19.2120   21.3128 H   0  0  0  0  0  0
  -27.8621  -24.9653   19.3583 H   0  0  0  0  0  0
  -28.9203  -25.9398   18.3456 H   0  0  0  0  0  0
  -30.2937  -25.3368   20.8602 H   0  0  0  0  0  0
  -30.7432  -24.8645   19.2245 H   0  0  0  0  0  0
  -32.6284  -18.2604   19.8946 H   0  0  0  0  0  0
  -33.9817  -17.6004   20.7740 H   0  0  0  0  0  0
  1 25  1  0  0  0
  1 30  2  0  0  0
  1 85  1  0  0  0
  2  3  1  0  0  0
  2 25  1  0  0  0
  2 90  1  0  0  0
  2 91  1  0  0  0
  3  4  1  0  0  0
  3 92  1  0  0  0
  3 93  1  0  0  0
  4  5  1  0  0  0
  4 94  1  0  0  0
  4 95  1  0  0  0
  5  6  1  0  0  0
  5 26  1  0  0  0
  5 96  1  0  0  0
  6 25  1  0  0  0
  6 97  1  0  0  0
  6 98  1  0  0  0
  7  8  2  0  0  0
  7 26  1  0  0  0
  7 29  1  0  0  0
  8  9  1  0  0  0
  8 22  1  0  0  0
  9 10  1  0  0  0
  9 27  2  0  0  0
 10 11  2  0  0  0
 10 15  1  0  0  0
 11 12  1  0  0  0
 11 99  1  0  0  0
 12 13  2  0  0  0
 12100  1  0  0  0
 13 14  1  0  0  0
 13 31  1  0  0  0
 14 15  2  0  0  0
 14101  1  0  0  0
 15102  1  0  0  0
 16 17  2  0  0  0
 16 21  1  0  0  0
 16 31  1  0  0  0
 17 18  1  0  0  0
 17103  1  0  0  0
 18 19  2  0  0  0
 18104  1  0  0  0
 19 20  1  0  0  0
 19 24  1  0  0  0
 20 21  2  0  0  0
 20105  1  0  0  0
 21 23  1  0  0  0
 22 28  1  0  0  0
 22 32  2  0  0  0
 26 27  1  0  0  0
 28106  1  0  0  0
 28107  1  0  0  0
 29108  1  0  0  0
 29109  1  0  0  0
 33 34  1  0  0  0
 33 66  1  0  0  0
 33 70  2  0  0  0
 34 36  1  0  0  0
 34 59  1  0  0  0
 34110  1  0  0  0
 35 44  2  0  0  0
 35 45  1  0  0  0
 35 68  1  0  0  0
 36 56  1  0  0  0
 36111  1  0  0  0
 37 39  1  0  0  0
 37 47  1  0  0  0
 37 66  1  0  0  0
 37112  1  0  0  0
 38 43  2  0  0  0
 38 46  1  0  0  0
 38 47  1  0  0  0
 39 64  1  0  0  0
 39 67  2  0  0  0
 40 52  1  0  0  0
 40 53  2  0  0  0
 40 58  1  0  0  0
 41113  1  0  0  0
 41114  1  0  0  0
 41115  1  0  0  0
 41 48  1  0  0  0
 42 43  1  0  0  0
 42 66  1  0  0  0
 42116  1  0  0  0
 42117  1  0  0  0
 43 44  1  0  0  0
 44118  1  0  0  0
 45 46  2  0  0  0
 45119  1  0  0  0
 46120  1  0  0  0
 47121  1  0  0  0
 47122  1  0  0  0
 48 56  1  0  0  0
 48 65  1  0  0  0
 48123  1  0  0  0
 49 50  1  0  0  0
 49 53  1  0  0  0
 49 64  1  0  0  0
 49124  1  0  0  0
 50 51  1  0  0  0
 50125  1  0  0  0
 50126  1  0  0  0
 51 52  1  0  0  0
 51127  1  0  0  0
 51128  1  0  0  0
 52129  1  0  0  0
 52130  1  0  0  0
 53 54  1  0  0  0
 54 55  2  0  0  0
 54131  1  0  0  0
 55 57  1  0  0  0
 55132  1  0  0  0
 56 69  2  0  0  0
 57 58  2  0  0  0
 57133  1  0  0  0
 58134  1  0  0  0
 59 60  1  0  0  0
 59 61  1  0  0  0
 59 62  1  0  0  0
 60135  1  0  0  0
 60136  1  0  0  0
 60137  1  0  0  0
 61138  1  0  0  0
 61139  1  0  0  0
 61140  1  0  0  0
 62141  1  0  0  0
 62142  1  0  0  0
 62143  1  0  0  0
 63 65  1  0  0  0
 63144  1  0  0  0
 63145  1  0  0  0
 63146  1  0  0  0
 64147  1  0  0  0
 65148  1  0  0  0
 68 83  1  0  0  0
 71 72  2  0  0  0
 71 74  1  0  0  0
 71149  1  0  0  0
 72 75  1  0  0  0
 72150  1  0  0  0
 73 75  2  0  0  0
 73 76  1  0  0  0
 73151  1  0  0  0
 74 76  2  0  0  0
 74 77  1  0  0  0
 75 89  1  0  0  0
 76 88  1  0  0  0
 77 86  1  0  0  0
 77 87  2  0  0  0
 78 80  1  0  0  0
 78 82  1  0  0  0
 78152  1  0  0  0
 78153  1  0  0  0
 79 81  1  0  0  0
 79 82  1  0  0  0
 79154  1  0  0  0
 79155  1  0  0  0
 80 85  1  0  0  0
 80156  1  0  0  0
 80157  1  0  0  0
 81 85  1  0  0  0
 81158  1  0  0  0
 81159  1  0  0  0
 82 88  1  0  0  0
 82160  1  0  0  0
 83 84  1  0  0  0
 83161  1  0  0  0
 83162  1  0  0  0
 84 89  1  0  0  0
 84163  1  0  0  0
 84164  1  0  0  0
 86165  1  0  0  0
 86166  1  0  0  0
M  ISO  4   1 100  68 101  83 101  85 100
M  END
> <chiral flag>
0

> <version>
0

> <s_m_source_file>
/data/baiqing/PycharmProjects/Reinvent-master-3.2/result/LINK_invent/BTK/process_docking_weight1_custom_sum_contain_oxygen_bond_distance_aromatic_linkinvent_7_9_3/rearranged_h_0150.sdf

> <i_m_source_file_index>
92

> <r_mmod_Potential_Energy-OPLS-2005>
107.805297851562

> <r_mmod_Stretch_Energy-OPLS-2005>
37.0170440673828

> <r_mmod_Bend_Energy-OPLS-2005>
128.116333007812

> <r_mmod_Torsional_Energy-OPLS-2005>
354.41552734375

> <r_mmod_Improper_Torsional_Energy-OPLS-2005>
11.3181018829346

> <r_mmod_Van_der_Waal_Energy-OPLS-2005>
162.826553344727

> <r_mmod_Electrostatic_Energy-OPLS-2005>
-376.625885009766

> <r_mmod_Solvation_Energy-OPLS-2005>
-225.188537597656

> <b_mmod_Minimization_Converged-OPLS-2005>
0

> <r_mmod_RMS_Derivative-OPLS-2005>
3.35723400115967

$$$$
92
                    3D
 Structure written by MMmdl.
167176  0  0  1  0            999 V2000
  -30.7221  -14.5082   20.5474 C   0  0  0  0  0  0
  -30.4105  -12.3236   19.4444 C   0  0  0  0  0  0
  -29.4949  -12.4997   18.2170 C   0  0  0  0  0  0
  -28.0186  -12.3561   18.6287 C   0  0  0  0  0  0
  -27.6558  -13.2186   19.8682 C   0  0  2  0  0  0
  -28.6969  -13.0563   20.9991 C   0  0  0  0  0  0
  -25.2559  -13.8188   20.5685 C   0  0  0  0  0  0
  -24.1823  -13.0452   20.9175 C   0  0  0  0  0  0
  -24.6393  -11.6923   20.8736 C   0  0  0  0  0  0
  -23.9070  -10.4304   21.0408 C   0  0  0  0  0  0
  -24.3616   -9.4220   21.9191 C   0  0  0  0  0  0
  -23.6294   -8.2253   22.0758 C   0  0  0  0  0  0
  -22.4278   -8.0288   21.3547 C   0  0  0  0  0  0
  -21.9914   -9.0263   20.4648 C   0  0  0  0  0  0
  -22.7243  -10.2143   20.3057 C   0  0  0  0  0  0
  -21.6858   -6.0739   22.5283 C   0  0  0  0  0  0
  -21.4016   -6.5643   23.8216 C   0  0  0  0  0  0
  -21.3656   -5.6798   24.9178 C   0  0  0  0  0  0
  -21.6042   -4.3060   24.7228 C   0  0  0  0  0  0
  -21.8818   -3.8149   23.4351 C   0  0  0  0  0  0
  -21.9190   -4.6965   22.3406 C   0  0  0  0  0  0
  -22.7847  -13.5245   21.1840 C   0  0  0  0  0  0
  -22.1663   -4.2149   21.0986 F   0  0  0  0  0  0
  -21.5624   -3.4544   25.7743 F   0  0  0  0  0  0
  -30.0236  -13.3429   20.4368 N   0  0  0  0  0  0
  -26.3000  -12.9384   20.3346 N   0  0  0  0  0  0
  -25.9327  -11.6531   20.5767 N   0  0  0  0  0  0
  -22.0478  -12.8241   22.0388 N   0  0  0  0  0  0
  -25.4279  -15.1908   20.4111 N   0  0  0  0  0  0
  -31.8634  -14.6196   20.0965 O   0  0  0  0  0  0
  -21.6642   -6.8884   21.4246 O   0  0  0  0  0  0
  -22.3540  -14.5558   20.6694 O   0  0  0  0  0  0
  -24.6173  -31.8669   23.2107 C   0  0  0  0  0  0
  -25.9057  -32.4817   23.8406 C   0  0  1  0  0  0
  -27.2161  -27.3852   20.1184 C   0  0  0  0  0  0
  -25.5901  -33.8617   24.2330 N   0  0  0  0  0  0
  -23.4077  -30.4920   21.5518 C   0  0  2  0  0  0
  -24.8537  -28.9594   20.1147 C   0  0  0  0  0  0
  -22.7428  -29.4653   22.4979 C   0  0  0  0  0  0
  -18.0273  -28.1372   22.8492 C   0  0  0  0  0  0
  -24.1484  -36.7308   23.2638 C   0  0  0  0  0  0
  -25.9424  -30.8160   21.3759 C   0  0  0  0  0  0
  -26.0162  -29.4467   20.7261 C   0  0  0  0  0  0
  -27.2017  -28.6658   20.7300 C   0  0  0  0  0  0
  -26.0519  -26.9575   19.4465 C   0  0  0  0  0  0
  -24.8683  -27.7138   19.4694 C   0  0  0  0  0  0
  -23.6189  -29.8306   20.1654 C   0  0  0  0  0  0
  -25.4107  -36.3108   24.0339 C   0  0  1  0  0  0
  -20.5867  -28.3666   23.1306 C   0  0  2  0  0  0
  -20.6763  -26.9401   22.5411 C   0  0  0  0  0  0
  -19.5743  -26.6384   21.5205 C   0  0  0  0  0  0
  -18.1921  -26.7919   22.1619 C   0  0  0  0  0  0
  -19.1525  -28.8835   23.2893 C   0  0  0  0  0  0
  -18.9455  -30.1440   23.8905 C   0  0  0  0  0  0
  -17.6458  -30.6582   24.0562 C   0  0  0  0  0  0
  -25.9038  -34.9473   23.5132 C   0  0  0  0  0  0
  -16.5346  -29.9086   23.6327 C   0  0  0  0  0  0
  -16.7263  -28.6498   23.0355 C   0  0  0  0  0  0
  -26.4475  -31.6600   25.0739 C   0  0  0  0  0  0
  -25.3732  -31.3689   26.1475 C   0  0  0  0  0  0
  -27.0323  -30.3046   24.6132 C   0  0  0  0  0  0
  -27.6049  -32.4321   25.7500 C   0  0  0  0  0  0
  -27.5584  -37.1807   24.8465 C   0  0  0  0  0  0
  -21.4151  -29.3035   22.3712 N   0  0  0  0  0  0
  -26.4293  -37.3796   23.9412 N   0  0  0  0  0  0
  -24.6739  -31.0737   22.1033 N   0  0  0  0  0  0
  -23.4185  -28.8183   23.3026 O   0  0  0  0  0  0
  -28.3481  -26.5830   20.1104 O   0  0  0  0  0  0
  -26.5606  -34.8923   22.4697 O   0  0  0  0  0  0
  -23.5355  -32.1443   23.7473 O   0  0  0  0  0  0
  -27.2681  -22.9777   21.2411 C   0  0  0  0  0  0
  -29.7461  -23.1960   21.3755 C   0  0  0  0  0  0
  -30.7646  -17.6430   22.3605 C   0  0  0  0  0  0
  -27.1833  -24.3160   20.4749 C   0  0  0  0  0  0
  -29.6556  -24.5658   20.6348 C   0  0  0  0  0  0
  -29.7160  -18.7235   22.6745 C   0  0  0  0  0  0
  -28.5943  -22.2127   21.0305 C   0  0  1  0  0  0
  -30.5975  -16.9908   20.9698 C   0  0  2  0  0  0
  -28.3129  -25.3159   20.8408 C   0  0  1  0  0  0
  -29.5535  -19.7243   21.5111 C   0  0  2  0  0  0
  -29.9392  -17.9483   19.9151 C   0  0  1  0  0  0
  -29.2133  -17.2166   18.7769 C   0  0  0  0  0  0
  -28.5887  -20.8951   21.8827 C   0  0  0  0  0  0
  -30.0665  -15.5976   21.0169 N   0  0  0  0  0  0
  -29.0253  -18.9189   20.4535 O   0  0  0  0  0  0
  -31.4581  -12.3948   19.1470 H   0  0  0  0  0  0
  -30.2939  -11.3259   19.8698 H   0  0  0  0  0  0
  -29.7431  -11.7635   17.4514 H   0  0  0  0  0  0
  -29.6614  -13.4798   17.7666 H   0  0  0  0  0  0
  -27.8411  -11.3022   18.8461 H   0  0  0  0  0  0
  -27.3667  -12.6066   17.7907 H   0  0  0  0  0  0
  -27.6855  -14.2576   19.5408 H   0  0  0  0  0  0
  -28.6770  -12.0397   21.3946 H   0  0  0  0  0  0
  -28.4616  -13.7086   21.8411 H   0  0  0  0  0  0
  -25.2762   -9.5699   22.4767 H   0  0  0  0  0  0
  -24.0000   -7.4652   22.7487 H   0  0  0  0  0  0
  -21.0845   -8.8789   19.8955 H   0  0  0  0  0  0
  -22.3705  -10.9683   19.6165 H   0  0  0  0  0  0
  -21.2003   -7.6152   23.9721 H   0  0  0  0  0  0
  -21.1483   -6.0526   25.9084 H   0  0  0  0  0  0
  -22.0587   -2.7608   23.2857 H   0  0  0  0  0  0
  -22.4083  -11.9904   22.4787 H   0  0  0  0  0  0
  -21.1094  -13.1272   22.2576 H   0  0  0  0  0  0
  -24.6625  -15.8472   20.5204 H   0  0  0  0  0  0
  -26.2875  -15.6316   20.1102 H   0  0  0  0  0  0
  -26.7123  -32.5523   23.1164 H   0  0  0  0  0  0
  -25.0041  -33.9778   25.0468 H   0  0  0  0  0  0
  -22.6972  -31.3093   21.4140 H   0  0  0  0  0  0
  -23.3751  -35.9637   23.3302 H   0  0  0  0  0  0
  -24.3576  -36.8924   22.2053 H   0  0  0  0  0  0
  -23.7232  -37.6510   23.6653 H   0  0  0  0  0  0
  -26.0636  -31.5779   20.6043 H   0  0  0  0  0  0
  -26.8278  -30.8683   21.9976 H   0  0  0  0  0  0
  -28.0955  -29.0330   21.2151 H   0  0  0  0  0  0
  -26.0468  -26.0302   18.8945 H   0  0  0  0  0  0
  -23.9843  -27.3432   18.9687 H   0  0  0  0  0  0
  -23.7302  -30.6079   19.4084 H   0  0  0  0  0  0
  -22.7414  -29.2540   19.8673 H   0  0  0  0  0  0
  -25.1278  -36.1978   25.0833 H   0  0  0  0  0  0
  -20.9956  -28.3232   24.1427 H   0  0  0  0  0  0
  -20.5667  -26.2270   23.3595 H   0  0  0  0  0  0
  -21.6633  -26.7439   22.1209 H   0  0  0  0  0  0
  -19.6907  -25.6301   21.1222 H   0  0  0  0  0  0
  -19.6682  -27.3197   20.6739 H   0  0  0  0  0  0
  -17.4192  -26.6669   21.4021 H   0  0  0  0  0  0
  -18.0322  -26.0056   22.9009 H   0  0  0  0  0  0
  -19.7931  -30.7248   24.2288 H   0  0  0  0  0  0
  -17.5017  -31.6267   24.5158 H   0  0  0  0  0  0
  -15.5348  -30.2994   23.7650 H   0  0  0  0  0  0
  -15.8658  -28.0818   22.7079 H   0  0  0  0  0  0
  -24.5921  -30.7020   25.7800 H   0  0  0  0  0  0
  -24.8896  -32.2830   26.4929 H   0  0  0  0  0  0
  -25.8082  -30.8854   27.0232 H   0  0  0  0  0  0
  -26.2883  -29.6793   24.1181 H   0  0  0  0  0  0
  -27.4089  -29.7290   25.4599 H   0  0  0  0  0  0
  -27.8717  -30.4366   23.9300 H   0  0  0  0  0  0
  -27.2681  -33.3626   26.2079 H   0  0  0  0  0  0
  -28.3858  -32.6869   25.0322 H   0  0  0  0  0  0
  -28.0716  -31.8440   26.5413 H   0  0  0  0  0  0
  -28.2592  -38.0115   24.7540 H   0  0  0  0  0  0
  -28.1090  -36.2650   24.6258 H   0  0  0  0  0  0
  -27.2301  -37.1419   25.8867 H   0  0  0  0  0  0
  -20.9309  -29.8768   21.6943 H   0  0  0  0  0  0
  -26.0181  -38.2873   24.1424 H   0  0  0  0  0  0
  -26.4311  -22.3466   20.9386 H   0  0  0  0  0  0
  -27.1252  -23.1743   22.3049 H   0  0  0  0  0  0
  -29.7506  -23.3836   22.4503 H   0  0  0  0  0  0
  -30.7046  -22.7283   21.1490 H   0  0  0  0  0  0
  -30.7928  -16.8898   23.1487 H   0  0  0  0  0  0
  -31.7420  -18.1278   22.3905 H   0  0  0  0  0  0
  -26.2100  -24.7401   20.7151 H   0  0  0  0  0  0
  -27.1971  -24.1173   19.4027 H   0  0  0  0  0  0
  -29.8087  -24.4002   19.5678 H   0  0  0  0  0  0
  -30.4791  -25.2035   20.9594 H   0  0  0  0  0  0
  -30.0115  -19.2479   23.5843 H   0  0  0  0  0  0
  -28.7555  -18.2532   22.8913 H   0  0  0  0  0  0
  -28.6634  -21.9388   19.9763 H   0  0  0  0  0  0
  -31.6266  -16.9091   20.6157 H   0  0  0  0  0  0
  -28.2175  -25.5627   21.8995 H   0  0  0  0  0  0
  -30.5239  -20.1395   21.2334 H   0  0  0  0  0  0
  -30.7445  -18.5283   19.4605 H   0  0  0  0  0  0
  -28.3427  -16.6732   19.1433 H   0  0  0  0  0  0
  -29.8737  -16.5039   18.2815 H   0  0  0  0  0  0
  -28.8665  -17.9206   18.0205 H   0  0  0  0  0  0
  -27.5797  -20.4802   21.8914 H   0  0  0  0  0  0
  -28.7759  -21.1818   22.9186 H   0  0  0  0  0  0
  -29.1163  -15.4710   21.3295 H   0  0  0  0  0  0
  1 25  1  0  0  0
  1 30  2  0  0  0
  1 84  1  0  0  0
  2  3  1  0  0  0
  2 25  1  0  0  0
  2 86  1  0  0  0
  2 87  1  0  0  0
  3  4  1  0  0  0
  3 88  1  0  0  0
  3 89  1  0  0  0
  4  5  1  0  0  0
  4 90  1  0  0  0
  4 91  1  0  0  0
  5  6  1  0  0  0
  5 26  1  0  0  0
  5 92  1  0  0  0
  6 25  1  0  0  0
  6 93  1  0  0  0
  6 94  1  0  0  0
  7  8  2  0  0  0
  7 26  1  0  0  0
  7 29  1  0  0  0
  8  9  1  0  0  0
  8 22  1  0  0  0
  9 10  1  0  0  0
  9 27  2  0  0  0
 10 11  2  0  0  0
 10 15  1  0  0  0
 11 12  1  0  0  0
 11 95  1  0  0  0
 12 13  2  0  0  0
 12 96  1  0  0  0
 13 14  1  0  0  0
 13 31  1  0  0  0
 14 15  2  0  0  0
 14 97  1  0  0  0
 15 98  1  0  0  0
 16 17  2  0  0  0
 16 21  1  0  0  0
 16 31  1  0  0  0
 17 18  1  0  0  0
 17 99  1  0  0  0
 18 19  2  0  0  0
 18100  1  0  0  0
 19 20  1  0  0  0
 19 24  1  0  0  0
 20 21  2  0  0  0
 20101  1  0  0  0
 21 23  1  0  0  0
 22 28  1  0  0  0
 22 32  2  0  0  0
 26 27  1  0  0  0
 28102  1  0  0  0
 28103  1  0  0  0
 29104  1  0  0  0
 29105  1  0  0  0
 33 34  1  0  0  0
 33 66  1  0  0  0
 33 70  2  0  0  0
 34 36  1  0  0  0
 34 59  1  0  0  0
 34106  1  0  0  0
 35 44  2  0  0  0
 35 45  1  0  0  0
 35 68  1  0  0  0
 36 56  1  0  0  0
 36107  1  0  0  0
 37 39  1  0  0  0
 37 47  1  0  0  0
 37 66  1  0  0  0
 37108  1  0  0  0
 38 43  2  0  0  0
 38 46  1  0  0  0
 38 47  1  0  0  0
 39 64  1  0  0  0
 39 67  2  0  0  0
 40 52  1  0  0  0
 40 53  2  0  0  0
 40 58  1  0  0  0
 41109  1  0  0  0
 41110  1  0  0  0
 41111  1  0  0  0
 41 48  1  0  0  0
 42 43  1  0  0  0
 42 66  1  0  0  0
 42112  1  0  0  0
 42113  1  0  0  0
 43 44  1  0  0  0
 44114  1  0  0  0
 45 46  2  0  0  0
 45115  1  0  0  0
 46116  1  0  0  0
 47117  1  0  0  0
 47118  1  0  0  0
 48 56  1  0  0  0
 48 65  1  0  0  0
 48119  1  0  0  0
 49 50  1  0  0  0
 49 53  1  0  0  0
 49 64  1  0  0  0
 49120  1  0  0  0
 50 51  1  0  0  0
 50121  1  0  0  0
 50122  1  0  0  0
 51 52  1  0  0  0
 51123  1  0  0  0
 51124  1  0  0  0
 52125  1  0  0  0
 52126  1  0  0  0
 53 54  1  0  0  0
 54 55  2  0  0  0
 54127  1  0  0  0
 55 57  1  0  0  0
 55128  1  0  0  0
 56 69  2  0  0  0
 57 58  2  0  0  0
 57129  1  0  0  0
 58130  1  0  0  0
 59 60  1  0  0  0
 59 61  1  0  0  0
 59 62  1  0  0  0
 60131  1  0  0  0
 60132  1  0  0  0
 60133  1  0  0  0
 61134  1  0  0  0
 61135  1  0  0  0
 61136  1  0  0  0
 62137  1  0  0  0
 62138  1  0  0  0
 62139  1  0  0  0
 63 65  1  0  0  0
 63140  1  0  0  0
 63141  1  0  0  0
 63142  1  0  0  0
 64143  1  0  0  0
 65144  1  0  0  0
 68 79  1  0  0  0
 71 74  1  0  0  0
 71 77  1  0  0  0
 71145  1  0  0  0
 71146  1  0  0  0
 72 75  1  0  0  0
 72 77  1  0  0  0
 72147  1  0  0  0
 72148  1  0  0  0
 73 76  1  0  0  0
 73 78  1  0  0  0
 73149  1  0  0  0
 73150  1  0  0  0
 74 79  1  0  0  0
 74151  1  0  0  0
 74152  1  0  0  0
 75 79  1  0  0  0
 75153  1  0  0  0
 75154  1  0  0  0
 76 80  1  0  0  0
 76155  1  0  0  0
 76156  1  0  0  0
 77 83  1  0  0  0
 77157  1  0  0  0
 78 81  1  0  0  0
 78 84  1  0  0  0
 78158  1  0  0  0
 79159  1  0  0  0
 80 83  1  0  0  0
 80 85  1  0  0  0
 80160  1  0  0  0
 81 82  1  0  0  0
 81 85  1  0  0  0
 81161  1  0  0  0
 82162  1  0  0  0
 82163  1  0  0  0
 82164  1  0  0  0
 83165  1  0  0  0
 83166  1  0  0  0
 84167  1  0  0  0
M  ISO  4   1 100  68 101  79 101  84 100
M  END
> <chiral flag>
0

> <version>
0

> <s_m_source_file>
/data/baiqing/PycharmProjects/Reinvent-master-3.2/result/LINK_invent/BTK/process_docking_weight1_custom_sum_contain_oxygen_bond_distance_aromatic_linkinvent_7_9_3/rearranged_h_0150.sdf

> <i_m_source_file_index>
93

> <r_mmod_Potential_Energy-OPLS-2005>
-41.6169662475586

> <r_mmod_Stretch_Energy-OPLS-2005>
48.7959022521973

> <r_mmod_Bend_Energy-OPLS-2005>
129.761978149414

> <r_mmod_Torsional_Energy-OPLS-2005>
270.983215332031

> <r_mmod_Improper_Torsional_Energy-OPLS-2005>
3.64754390716553

> <r_mmod_Van_der_Waal_Energy-OPLS-2005>
140.411102294922

> <r_mmod_Electrostatic_Energy-OPLS-2005>
-465.942901611328

> <r_mmod_Solvation_Energy-OPLS-2005>
-191.856643676758

> <b_mmod_Minimization_Converged-OPLS-2005>
0

> <r_mmod_RMS_Derivative-OPLS-2005>
0.874009907245636

$$$$
93
                    3D
 Structure written by MMmdl.
166175  0  0  1  0            999 V2000
  -30.6983  -14.4605   20.6418 C   0  0  0  0  0  0
  -30.4446  -12.3212   19.4203 C   0  0  0  0  0  0
  -29.5109  -12.5304   18.2091 C   0  0  0  0  0  0
  -28.0311  -12.3845   18.6154 C   0  0  0  0  0  0
  -27.6752  -13.1995   19.8850 C   0  0  2  0  0  0
  -28.7145  -12.9399   20.9999 C   0  0  0  0  0  0
  -25.2632  -13.8080   20.5564 C   0  0  0  0  0  0
  -24.1870  -13.0413   20.9121 C   0  0  0  0  0  0
  -24.6405  -11.6877   20.8697 C   0  0  0  0  0  0
  -23.9044  -10.4279   21.0389 C   0  0  0  0  0  0
  -24.3580   -9.4211   21.9175 C   0  0  0  0  0  0
  -23.6257   -8.2254   22.0758 C   0  0  0  0  0  0
  -22.4241   -8.0266   21.3541 C   0  0  0  0  0  0
  -21.9866   -9.0247   20.4648 C   0  0  0  0  0  0
  -22.7218  -10.2124   20.3058 C   0  0  0  0  0  0
  -21.6853   -6.0702   22.5249 C   0  0  0  0  0  0
  -21.4023   -6.5612   23.8182 C   0  0  0  0  0  0
  -21.3651   -5.6771   24.9149 C   0  0  0  0  0  0
  -21.6050   -4.3031   24.7204 C   0  0  0  0  0  0
  -21.8819   -3.8124   23.4329 C   0  0  0  0  0  0
  -21.9202   -4.6941   22.3395 C   0  0  0  0  0  0
  -22.7897  -13.5272   21.1786 C   0  0  0  0  0  0
  -22.1666   -4.2126   21.0962 F   0  0  0  0  0  0
  -21.5632   -3.4525   25.7734 F   0  0  0  0  0  0
  -30.0578  -13.2683   20.4770 N   0  0  0  0  0  0
  -26.3085  -12.9255   20.3345 N   0  0  0  0  0  0
  -25.9335  -11.6423   20.5709 N   0  0  0  0  0  0
  -22.0513  -12.8316   22.0339 N   0  0  0  0  0  0
  -25.4335  -15.1737   20.3806 N   0  0  0  0  0  0
  -31.7211  -14.7728   20.0219 O   0  0  0  0  0  0
  -21.6649   -6.8836   21.4208 O   0  0  0  0  0  0
  -22.3606  -14.5594   20.6644 O   0  0  0  0  0  0
  -24.6135  -31.8702   23.2084 C   0  0  0  0  0  0
  -25.9026  -32.4828   23.8405 C   0  0  1  0  0  0
  -27.2461  -27.4555   20.0694 C   0  0  0  0  0  0
  -25.5861  -33.8623   24.2354 N   0  0  0  0  0  0
  -23.4021  -30.4978   21.5472 C   0  0  2  0  0  0
  -24.8478  -28.9650   20.1133 C   0  0  0  0  0  0
  -22.7413  -29.4699   22.4945 C   0  0  0  0  0  0
  -18.0286  -28.1380   22.8498 C   0  0  0  0  0  0
  -24.1473  -36.7326   23.2651 C   0  0  0  0  0  0
  -25.9292  -30.8428   21.3571 C   0  0  0  0  0  0
  -26.0073  -29.4757   20.7091 C   0  0  0  0  0  0
  -27.2060  -28.7286   20.6856 C   0  0  0  0  0  0
  -26.0629  -26.9593   19.4708 C   0  0  0  0  0  0
  -24.8703  -27.7043   19.4947 C   0  0  0  0  0  0
  -23.6110  -29.8333   20.1606 C   0  0  0  0  0  0
  -25.4079  -36.3127   24.0369 C   0  0  1  0  0  0
  -20.5874  -28.3686   23.1288 C   0  0  2  0  0  0
  -20.6744  -26.9409   22.5406 C   0  0  0  0  0  0
  -19.5713  -26.6395   21.5193 C   0  0  0  0  0  0
  -18.1908  -26.7931   22.1626 C   0  0  0  0  0  0
  -19.1544  -28.8846   23.2905 C   0  0  0  0  0  0
  -18.9472  -30.1436   23.8941 C   0  0  0  0  0  0
  -17.6480  -30.6575   24.0588 C   0  0  0  0  0  0
  -25.9016  -34.9484   23.5166 C   0  0  0  0  0  0
  -16.5365  -29.9094   23.6306 C   0  0  0  0  0  0
  -16.7287  -28.6508   23.0338 C   0  0  0  0  0  0
  -26.4447  -31.6584   25.0716 C   0  0  0  0  0  0
  -25.3738  -31.3668   26.1494 C   0  0  0  0  0  0
  -27.0297  -30.3054   24.6036 C   0  0  0  0  0  0
  -27.6070  -32.4272   25.7433 C   0  0  0  0  0  0
  -27.5581  -37.1799   24.8475 C   0  0  0  0  0  0
  -21.4146  -29.3077   22.3696 N   0  0  0  0  0  0
  -26.4271  -37.3802   23.9441 N   0  0  0  0  0  0
  -24.6674  -31.0844   22.0969 N   0  0  0  0  0  0
  -23.4199  -28.8228   23.2977 O   0  0  0  0  0  0
  -28.4394  -26.7583   20.0675 O   0  0  0  0  0  0
  -26.5600  -34.8935   22.4746 O   0  0  0  0  0  0
  -23.5324  -32.1450   23.7477 O   0  0  0  0  0  0
  -28.0436  -18.9147   21.3693 C   0  0  0  0  0  0
  -30.1038  -17.6820   20.8919 C   0  0  0  0  0  0
  -28.1892  -16.5531   21.9059 C   0  0  0  0  0  0
  -29.3693  -18.9049   20.8787 C   0  0  0  0  0  0
  -27.4501  -17.7462   21.8740 C   0  0  0  0  0  0
  -29.5116  -16.4969   21.4177 C   0  0  0  0  0  0
  -29.1509  -20.9376   19.3092 C   0  0  0  0  0  0
  -30.1345  -21.1929   21.6373 C   0  0  0  0  0  0
  -29.5422  -22.4159   19.0432 C   0  0  0  0  0  0
  -30.5416  -22.6259   21.2494 C   0  0  0  0  0  0
  -29.9837  -20.2415   20.4248 C   0  0  1  0  0  0
  -26.0248  -17.7774   22.3950 C   0  0  0  0  0  0
  -29.7164  -24.6860   20.1365 C   0  0  0  0  0  0
  -28.4409  -25.3918   19.6314 C   0  0  0  0  0  0
  -30.1739  -15.2445   21.5971 N   0  0  0  0  0  0
  -29.5563  -23.2081   20.3048 N   0  3  1  0  0  0
  -31.4882  -12.4422   19.1216 H   0  0  0  0  0  0
  -30.3609  -11.3000   19.7917 H   0  0  0  0  0  0
  -29.7506  -11.8207   17.4162 H   0  0  0  0  0  0
  -29.6780  -13.5208   17.7833 H   0  0  0  0  0  0
  -27.8318  -11.3266   18.7846 H   0  0  0  0  0  0
  -27.3899  -12.6859   17.7875 H   0  0  0  0  0  0
  -27.7309  -14.2539   19.6149 H   0  0  0  0  0  0
  -28.6933  -11.8905   21.2972 H   0  0  0  0  0  0
  -28.4470  -13.4854   21.9055 H   0  0  0  0  0  0
  -25.2710   -9.5710   22.4768 H   0  0  0  0  0  0
  -23.9944   -7.4653   22.7500 H   0  0  0  0  0  0
  -21.0784   -8.8776   19.8963 H   0  0  0  0  0  0
  -22.3644  -10.9658   19.6176 H   0  0  0  0  0  0
  -21.2012   -7.6120   23.9664 H   0  0  0  0  0  0
  -21.1473   -6.0504   25.9039 H   0  0  0  0  0  0
  -22.0614   -2.7581   23.2840 H   0  0  0  0  0  0
  -22.4075  -11.9972   22.4760 H   0  0  0  0  0  0
  -21.1143  -13.1390   22.2531 H   0  0  0  0  0  0
  -24.6657  -15.8277   20.4730 H   0  0  0  0  0  0
  -26.2916  -15.6075   20.0622 H   0  0  0  0  0  0
  -26.7115  -32.5559   23.1195 H   0  0  0  0  0  0
  -24.9948  -33.9762   25.0455 H   0  0  0  0  0  0
  -22.6909  -31.3154   21.4078 H   0  0  0  0  0  0
  -23.3719  -35.9673   23.3315 H   0  0  0  0  0  0
  -24.3607  -36.8933   22.2074 H   0  0  0  0  0  0
  -23.7224  -37.6533   23.6655 H   0  0  0  0  0  0
  -26.0359  -31.6010   20.5803 H   0  0  0  0  0  0
  -26.8216  -30.9071   21.9674 H   0  0  0  0  0  0
  -28.1048  -29.1318   21.1330 H   0  0  0  0  0  0
  -26.0360  -26.0092   18.9600 H   0  0  0  0  0  0
  -23.9827  -27.3067   19.0230 H   0  0  0  0  0  0
  -23.7268  -30.6128   19.4061 H   0  0  0  0  0  0
  -22.7332  -29.2609   19.8540 H   0  0  0  0  0  0
  -25.1215  -36.2009   25.0851 H   0  0  0  0  0  0
  -21.0023  -28.3261   24.1387 H   0  0  0  0  0  0
  -20.5578  -26.2315   23.3615 H   0  0  0  0  0  0
  -21.6614  -26.7374   22.1243 H   0  0  0  0  0  0
  -19.6848  -25.6313   21.1195 H   0  0  0  0  0  0
  -19.6605  -27.3222   20.6730 H   0  0  0  0  0  0
  -17.4154  -26.6718   21.4038 H   0  0  0  0  0  0
  -18.0300  -26.0045   22.9001 H   0  0  0  0  0  0
  -19.7955  -30.7227   24.2331 H   0  0  0  0  0  0
  -17.5042  -31.6242   24.5210 H   0  0  0  0  0  0
  -15.5373  -30.3019   23.7571 H   0  0  0  0  0  0
  -15.8698  -28.0829   22.7030 H   0  0  0  0  0  0
  -24.5918  -30.6981   25.7862 H   0  0  0  0  0  0
  -24.8892  -32.2807   26.4945 H   0  0  0  0  0  0
  -25.8118  -30.8862   27.0256 H   0  0  0  0  0  0
  -26.2823  -29.6760   24.1188 H   0  0  0  0  0  0
  -27.4256  -29.7312   25.4421 H   0  0  0  0  0  0
  -27.8562  -30.4427   23.9061 H   0  0  0  0  0  0
  -27.2755  -33.3588   26.2023 H   0  0  0  0  0  0
  -28.3837  -32.6786   25.0200 H   0  0  0  0  0  0
  -28.0783  -31.8377   26.5305 H   0  0  0  0  0  0
  -28.2582  -38.0106   24.7533 H   0  0  0  0  0  0
  -28.1081  -36.2646   24.6236 H   0  0  0  0  0  0
  -27.2351  -37.1409   25.8893 H   0  0  0  0  0  0
  -20.9287  -29.8930   21.7039 H   0  0  0  0  0  0
  -26.0169  -38.2888   24.1414 H   0  0  0  0  0  0
  -27.4732  -19.8331   21.3853 H   0  0  0  0  0  0
  -31.1274  -17.6632   20.5434 H   0  0  0  0  0  0
  -27.7280  -15.6703   22.3224 H   0  0  0  0  0  0
  -29.2338  -20.3632   18.3852 H   0  0  0  0  0  0
  -28.0926  -20.9277   19.5671 H   0  0  0  0  0  0
  -29.1949  -21.2524   22.1905 H   0  0  0  0  0  0
  -30.8609  -20.7787   22.3382 H   0  0  0  0  0  0
  -28.8321  -22.8511   18.3378 H   0  0  0  0  0  0
  -30.5218  -22.4697   18.5657 H   0  0  0  0  0  0
  -31.5377  -22.6426   20.8026 H   0  0  0  0  0  0
  -30.5974  -23.2297   22.1556 H   0  0  0  0  0  0
  -30.9791  -20.0473   20.0215 H   0  0  0  0  0  0
  -25.8428  -18.6687   22.9967 H   0  0  0  0  0  0
  -25.8130  -16.9089   23.0192 H   0  0  0  0  0  0
  -25.3178  -17.7692   21.5643 H   0  0  0  0  0  0
  -29.9299  -25.1124   21.1176 H   0  0  0  0  0  0
  -30.5766  -24.9294   19.5129 H   0  0  0  0  0  0
  -27.5750  -24.8668   20.0361 H   0  0  0  0  0  0
  -28.3844  -25.3455   18.5420 H   0  0  0  0  0  0
  -29.6742  -14.6585   22.2472 H   0  0  0  0  0  0
  -28.6554  -23.0811   20.7417 H   0  0  0  0  0  0
  1 25  1  0  0  0
  1 30  2  0  0  0
  1 85  1  0  0  0
  2  3  1  0  0  0
  2 25  1  0  0  0
  2 87  1  0  0  0
  2 88  1  0  0  0
  3  4  1  0  0  0
  3 89  1  0  0  0
  3 90  1  0  0  0
  4  5  1  0  0  0
  4 91  1  0  0  0
  4 92  1  0  0  0
  5  6  1  0  0  0
  5 26  1  0  0  0
  5 93  1  0  0  0
  6 25  1  0  0  0
  6 94  1  0  0  0
  6 95  1  0  0  0
  7  8  2  0  0  0
  7 26  1  0  0  0
  7 29  1  0  0  0
  8  9  1  0  0  0
  8 22  1  0  0  0
  9 10  1  0  0  0
  9 27  2  0  0  0
 10 11  2  0  0  0
 10 15  1  0  0  0
 11 12  1  0  0  0
 11 96  1  0  0  0
 12 13  2  0  0  0
 12 97  1  0  0  0
 13 14  1  0  0  0
 13 31  1  0  0  0
 14 15  2  0  0  0
 14 98  1  0  0  0
 15 99  1  0  0  0
 16 17  2  0  0  0
 16 21  1  0  0  0
 16 31  1  0  0  0
 17 18  1  0  0  0
 17100  1  0  0  0
 18 19  2  0  0  0
 18101  1  0  0  0
 19 20  1  0  0  0
 19 24  1  0  0  0
 20 21  2  0  0  0
 20102  1  0  0  0
 21 23  1  0  0  0
 22 28  1  0  0  0
 22 32  2  0  0  0
 26 27  1  0  0  0
 28103  1  0  0  0
 28104  1  0  0  0
 29105  1  0  0  0
 29106  1  0  0  0
 33 34  1  0  0  0
 33 66  1  0  0  0
 33 70  2  0  0  0
 34 36  1  0  0  0
 34 59  1  0  0  0
 34107  1  0  0  0
 35 44  2  0  0  0
 35 45  1  0  0  0
 35 68  1  0  0  0
 36 56  1  0  0  0
 36108  1  0  0  0
 37 39  1  0  0  0
 37 47  1  0  0  0
 37 66  1  0  0  0
 37109  1  0  0  0
 38 43  2  0  0  0
 38 46  1  0  0  0
 38 47  1  0  0  0
 39 64  1  0  0  0
 39 67  2  0  0  0
 40 52  1  0  0  0
 40 53  2  0  0  0
 40 58  1  0  0  0
 41110  1  0  0  0
 41111  1  0  0  0
 41112  1  0  0  0
 41 48  1  0  0  0
 42 43  1  0  0  0
 42 66  1  0  0  0
 42113  1  0  0  0
 42114  1  0  0  0
 43 44  1  0  0  0
 44115  1  0  0  0
 45 46  2  0  0  0
 45116  1  0  0  0
 46117  1  0  0  0
 47118  1  0  0  0
 47119  1  0  0  0
 48 56  1  0  0  0
 48 65  1  0  0  0
 48120  1  0  0  0
 49 50  1  0  0  0
 49 53  1  0  0  0
 49 64  1  0  0  0
 49121  1  0  0  0
 50 51  1  0  0  0
 50122  1  0  0  0
 50123  1  0  0  0
 51 52  1  0  0  0
 51124  1  0  0  0
 51125  1  0  0  0
 52126  1  0  0  0
 52127  1  0  0  0
 53 54  1  0  0  0
 54 55  2  0  0  0
 54128  1  0  0  0
 55 57  1  0  0  0
 55129  1  0  0  0
 56 69  2  0  0  0
 57 58  2  0  0  0
 57130  1  0  0  0
 58131  1  0  0  0
 59 60  1  0  0  0
 59 61  1  0  0  0
 59 62  1  0  0  0
 60132  1  0  0  0
 60133  1  0  0  0
 60134  1  0  0  0
 61135  1  0  0  0
 61136  1  0  0  0
 61137  1  0  0  0
 62138  1  0  0  0
 62139  1  0  0  0
 62140  1  0  0  0
 63 65  1  0  0  0
 63141  1  0  0  0
 63142  1  0  0  0
 63143  1  0  0  0
 64144  1  0  0  0
 65145  1  0  0  0
 68 84  1  0  0  0
 71 74  2  0  0  0
 71 75  1  0  0  0
 71146  1  0  0  0
 72 74  1  0  0  0
 72 76  2  0  0  0
 72147  1  0  0  0
 73 75  2  0  0  0
 73 76  1  0  0  0
 73148  1  0  0  0
 74 81  1  0  0  0
 75 82  1  0  0  0
 76 85  1  0  0  0
 77 79  1  0  0  0
 77 81  1  0  0  0
 77149  1  0  0  0
 77150  1  0  0  0
 78 80  1  0  0  0
 78 81  1  0  0  0
 78151  1  0  0  0
 78152  1  0  0  0
 79 86  1  0  0  0
 79153  1  0  0  0
 79154  1  0  0  0
 80 86  1  0  0  0
 80155  1  0  0  0
 80156  1  0  0  0
 81157  1  0  0  0
 82158  1  0  0  0
 82159  1  0  0  0
 82160  1  0  0  0
 83 84  1  0  0  0
 83161  1  0  0  0
 83162  1  0  0  0
 83 86  1  0  0  0
 84163  1  0  0  0
 84164  1  0  0  0
 85165  1  0  0  0
 86166  1  0  0  0
M  CHG  1  86   1
M  ISO  4   1 100  68 101  84 101  85 100
M  END
> <chiral flag>
0

> <version>
0

> <s_m_source_file>
/data/baiqing/PycharmProjects/Reinvent-master-3.2/result/LINK_invent/BTK/process_docking_weight1_custom_sum_contain_oxygen_bond_distance_aromatic_linkinvent_7_9_3/rearranged_h_0150.sdf

> <i_m_source_file_index>
94

> <r_mmod_Potential_Energy-OPLS-2005>
-90.4605560302734

> <r_mmod_Stretch_Energy-OPLS-2005>
40.9225997924805

> <r_mmod_Bend_Energy-OPLS-2005>
111.658546447754

> <r_mmod_Torsional_Energy-OPLS-2005>
268.823394775391

> <r_mmod_Improper_Torsional_Energy-OPLS-2005>
6.9083137512207

> <r_mmod_Van_der_Waal_Energy-OPLS-2005>
150.429275512695

> <r_mmod_Electrostatic_Energy-OPLS-2005>
-258.548065185547

> <r_mmod_Solvation_Energy-OPLS-2005>
-422.791351318359

> <b_mmod_Minimization_Converged-OPLS-2005>
0

> <r_mmod_RMS_Derivative-OPLS-2005>
4.08302021026611

$$$$
94
                    3D
 Structure written by MMmdl.
167177  0  0  1  0            999 V2000
  -30.4906  -15.0793   20.3844 C   0  0  0  0  0  0
  -30.4401  -12.6725   19.5168 C   0  0  0  0  0  0
  -29.5279  -12.5404   18.2740 C   0  0  0  0  0  0
  -28.0670  -12.3017   18.6969 C   0  0  0  0  0  0
  -27.6219  -13.2570   19.8333 C   0  0  2  0  0  0
  -28.6588  -13.3470   20.9728 C   0  0  0  0  0  0
  -25.2430  -13.8228   20.5725 C   0  0  0  0  0  0
  -24.1761  -13.0440   20.9244 C   0  0  0  0  0  0
  -24.6387  -11.6930   20.8762 C   0  0  0  0  0  0
  -23.9075  -10.4294   21.0414 C   0  0  0  0  0  0
  -24.3624   -9.4207   21.9188 C   0  0  0  0  0  0
  -23.6302   -8.2241   22.0752 C   0  0  0  0  0  0
  -22.4285   -8.0277   21.3542 C   0  0  0  0  0  0
  -21.9921   -9.0249   20.4640 C   0  0  0  0  0  0
  -22.7250  -10.2131   20.3056 C   0  0  0  0  0  0
  -21.6849   -6.0736   22.5274 C   0  0  0  0  0  0
  -21.4011   -6.5642   23.8207 C   0  0  0  0  0  0
  -21.3657   -5.6794   24.9170 C   0  0  0  0  0  0
  -21.6044   -4.3058   24.7219 C   0  0  0  0  0  0
  -21.8820   -3.8150   23.4342 C   0  0  0  0  0  0
  -21.9195   -4.6963   22.3400 C   0  0  0  0  0  0
  -22.7780  -13.5200   21.1897 C   0  0  0  0  0  0
  -22.1663   -4.2150   21.0977 F   0  0  0  0  0  0
  -21.5627   -3.4540   25.7734 F   0  0  0  0  0  0
  -29.9199  -13.7939   20.3658 N   0  0  0  0  0  0
  -26.2845  -12.9467   20.3233 N   0  0  0  0  0  0
  -25.9316  -11.6589   20.5737 N   0  0  0  0  0  0
  -22.0432  -12.8178   22.0447 N   0  0  0  0  0  0
  -25.4108  -15.1956   20.4144 N   0  0  0  0  0  0
  -31.6993  -15.1145   20.1197 O   0  0  0  0  0  0
  -21.6645   -6.8878   21.4240 O   0  0  0  0  0  0
  -22.3457  -14.5503   20.6739 O   0  0  0  0  0  0
  -24.6526  -31.8348   23.1806 C   0  0  0  0  0  0
  -25.9266  -32.4647   23.8213 C   0  0  1  0  0  0
  -27.2128  -27.0427   20.1530 C   0  0  0  0  0  0
  -25.5994  -33.8460   24.2130 N   0  0  0  0  0  0
  -23.4599  -30.4522   21.5275 C   0  0  2  0  0  0
  -24.9086  -28.8648   20.1037 C   0  0  0  0  0  0
  -22.7611  -29.4502   22.4817 C   0  0  0  0  0  0
  -18.0313  -28.1405   22.8481 C   0  0  0  0  0  0
  -24.1482  -36.7228   23.2643 C   0  0  0  0  0  0
  -26.0218  -30.6769   21.3938 C   0  0  0  0  0  0
  -26.0870  -29.2800   20.7334 C   0  0  0  0  0  0
  -27.2328  -28.3851   20.7424 C   0  0  0  0  0  0
  -26.0060  -26.7552   19.4732 C   0  0  0  0  0  0
  -24.8870  -27.6197   19.4569 C   0  0  0  0  0  0
  -23.6906  -29.7797   20.1468 C   0  0  0  0  0  0
  -25.4121  -36.2999   24.0310 C   0  0  1  0  0  0
  -20.5938  -28.3741   23.1218 C   0  0  2  0  0  0
  -20.6800  -26.9437   22.5405 C   0  0  0  0  0  0
  -19.5767  -26.6386   21.5219 C   0  0  0  0  0  0
  -18.1946  -26.7950   22.1620 C   0  0  0  0  0  0
  -19.1576  -28.8893   23.2839 C   0  0  0  0  0  0
  -18.9487  -30.1491   23.8858 C   0  0  0  0  0  0
  -17.6483  -30.6598   24.0563 C   0  0  0  0  0  0
  -25.9086  -34.9389   23.5025 C   0  0  0  0  0  0
  -16.5373  -29.9090   23.6350 C   0  0  0  0  0  0
  -16.7299  -28.6511   23.0362 C   0  0  0  0  0  0
  -26.4553  -31.6554   25.0696 C   0  0  0  0  0  0
  -25.3716  -31.3789   26.1379 C   0  0  0  0  0  0
  -27.0449  -30.2946   24.6354 C   0  0  0  0  0  0
  -27.6056  -32.4357   25.7491 C   0  0  0  0  0  0
  -27.5566  -37.1771   24.8471 C   0  0  0  0  0  0
  -21.4293  -29.3049   22.3574 N   0  0  0  0  0  0
  -26.4262  -37.3741   23.9429 N   0  0  0  0  0  0
  -24.7318  -31.0125   22.0882 N   0  0  0  0  0  0
  -23.4216  -28.8054   23.3000 O   0  0  0  0  0  0
  -28.2497  -26.0159   20.2784 O   0  0  0  0  0  0
  -26.5661  -34.8911   22.4597 O   0  0  0  0  0  0
  -23.5628  -32.1255   23.6981 O   0  0  0  0  0  0
  -31.4688  -19.5852   19.3567 C   0  0  0  0  0  0
  -31.0616  -18.2207   19.5029 C   0  0  0  0  0  0
  -30.9387  -20.5730   20.2213 C   0  0  0  0  0  0
  -29.9763  -20.1685   21.1285 C   0  0  0  0  0  0
  -29.1864  -19.0247   20.8480 C   0  0  0  0  0  0
  -29.9472  -17.8273   20.3088 C   0  0  0  0  0  0
  -28.0379  -19.8887   20.0788 C   0  0  0  0  0  0
  -30.8778  -22.1231   20.2103 C   0  0  0  0  0  0
  -28.0582  -21.5265   19.5882 C   0  0  0  0  0  0
  -28.4310  -22.9232   20.4319 C   0  0  2  0  0  0
  -29.6266  -21.3633   22.0561 C   0  0  2  0  0  0
  -30.7463  -21.4869   23.1256 C   0  0  0  0  0  0
  -28.1486  -20.0735   23.8450 C   0  0  0  0  0  0
  -28.2695  -24.5122   19.7285 C   0  0  0  0  0  0
  -28.2827  -21.2586   22.8673 C   0  0  0  0  0  0
  -29.7045  -16.2914   20.5295 N   0  0  0  0  0  0
  -29.7401  -22.5469   21.1186 N   0  3  1  0  0  0
  -31.4676  -12.8470   19.1968 H   0  0  0  0  0  0
  -30.4623  -11.7396   20.0821 H   0  0  0  0  0  0
  -29.8712  -11.7246   17.6366 H   0  0  0  0  0  0
  -29.5928  -13.4487   17.6726 H   0  0  0  0  0  0
  -27.9931  -11.2687   19.0395 H   0  0  0  0  0  0
  -27.3996  -12.3868   17.8388 H   0  0  0  0  0  0
  -27.5668  -14.2444   19.3731 H   0  0  0  0  0  0
  -28.7767  -12.3879   21.4800 H   0  0  0  0  0  0
  -28.3314  -14.0609   21.7298 H   0  0  0  0  0  0
  -25.2763   -9.5679   22.4765 H   0  0  0  0  0  0
  -24.0005   -7.4628   22.7466 H   0  0  0  0  0  0
  -21.0853   -8.8763   19.8940 H   0  0  0  0  0  0
  -22.3706  -10.9667   19.6162 H   0  0  0  0  0  0
  -21.2001   -7.6148   23.9706 H   0  0  0  0  0  0
  -21.1476   -6.0527   25.9071 H   0  0  0  0  0  0
  -22.0603   -2.7611   23.2841 H   0  0  0  0  0  0
  -22.4060  -11.9851   22.4848 H   0  0  0  0  0  0
  -21.1032  -13.1168   22.2633 H   0  0  0  0  0  0
  -24.6430  -15.8483   20.5275 H   0  0  0  0  0  0
  -26.2488  -15.6319   20.0529 H   0  0  0  0  0  0
  -26.7331  -32.5209   23.0931 H   0  0  0  0  0  0
  -25.0196  -33.9570   25.0314 H   0  0  0  0  0  0
  -22.7681  -31.2817   21.3693 H   0  0  0  0  0  0
  -23.3759  -35.9542   23.3273 H   0  0  0  0  0  0
  -24.3563  -36.8888   22.2065 H   0  0  0  0  0  0
  -23.7222  -37.6405   23.6700 H   0  0  0  0  0  0
  -26.1928  -31.4267   20.6197 H   0  0  0  0  0  0
  -26.8867  -30.7256   22.0425 H   0  0  0  0  0  0
  -28.1244  -28.6981   21.2674 H   0  0  0  0  0  0
  -25.8681  -25.8095   18.9757 H   0  0  0  0  0  0
  -23.9886  -27.2989   18.9475 H   0  0  0  0  0  0
  -23.8367  -30.5536   19.3928 H   0  0  0  0  0  0
  -22.8014  -29.2306   19.8319 H   0  0  0  0  0  0
  -25.1313  -36.1793   25.0800 H   0  0  0  0  0  0
  -21.0030  -28.3329   24.1337 H   0  0  0  0  0  0
  -20.5701  -26.2353   23.3632 H   0  0  0  0  0  0
  -21.6659  -26.7438   22.1193 H   0  0  0  0  0  0
  -19.6921  -25.6287   21.1267 H   0  0  0  0  0  0
  -19.6698  -27.3178   20.6734 H   0  0  0  0  0  0
  -17.4226  -26.6717   21.4013 H   0  0  0  0  0  0
  -18.0316  -26.0098   22.9013 H   0  0  0  0  0  0
  -19.7961  -30.7332   24.2192 H   0  0  0  0  0  0
  -17.5031  -31.6272   24.5174 H   0  0  0  0  0  0
  -15.5369  -30.2974   23.7706 H   0  0  0  0  0  0
  -15.8697  -28.0821   22.7089 H   0  0  0  0  0  0
  -24.5907  -30.7127   25.7707 H   0  0  0  0  0  0
  -24.8901  -32.2990   26.4699 H   0  0  0  0  0  0
  -25.7979  -30.9034   27.0222 H   0  0  0  0  0  0
  -26.3097  -29.6650   24.1339 H   0  0  0  0  0  0
  -27.4018  -29.7279   25.4964 H   0  0  0  0  0  0
  -27.9018  -30.4176   23.9729 H   0  0  0  0  0  0
  -27.2626  -33.3705   26.1948 H   0  0  0  0  0  0
  -28.3927  -32.6857   25.0361 H   0  0  0  0  0  0
  -28.0664  -31.8572   26.5510 H   0  0  0  0  0  0
  -28.2569  -38.0084   24.7538 H   0  0  0  0  0  0
  -28.1072  -36.2623   24.6251 H   0  0  0  0  0  0
  -27.2299  -37.1358   25.8875 H   0  0  0  0  0  0
  -20.9513  -29.8762   21.6742 H   0  0  0  0  0  0
  -26.0108  -38.2791   24.1450 H   0  0  0  0  0  0
  -32.2113  -19.8527   18.6183 H   0  0  0  0  0  0
  -31.6028  -17.4702   18.9450 H   0  0  0  0  0  0
  -27.1237  -19.7260   20.6513 H   0  0  0  0  0  0
  -27.8520  -19.3216   19.1658 H   0  0  0  0  0  0
  -30.7537  -22.5073   19.1974 H   0  0  0  0  0  0
  -31.8226  -22.5216   20.5812 H   0  0  0  0  0  0
  -27.0647  -21.7051   19.1753 H   0  0  0  0  0  0
  -28.6871  -21.5404   18.6979 H   0  0  0  0  0  0
  -27.6720  -23.0211   21.2027 H   0  0  0  0  0  0
  -30.8482  -20.5676   23.7021 H   0  0  0  0  0  0
  -30.5417  -22.2920   23.8320 H   0  0  0  0  0  0
  -31.7336  -21.6753   22.7069 H   0  0  0  0  0  0
  -27.1611  -20.0814   24.3072 H   0  0  0  0  0  0
  -28.8744  -20.1173   24.6560 H   0  0  0  0  0  0
  -28.2575  -19.1124   23.3453 H   0  0  0  0  0  0
  -27.3738  -24.4117   19.1233 H   0  0  0  0  0  0
  -29.0550  -24.5514   18.9738 H   0  0  0  0  0  0
  -27.4088  -21.2047   22.2266 H   0  0  0  0  0  0
  -28.1497  -22.1774   23.4402 H   0  0  0  0  0  0
  -28.7648  -16.0804   20.8303 H   0  0  0  0  0  0
  -30.0391  -23.3504   21.6525 H   0  0  0  0  0  0
  1 25  1  0  0  0
  1 30  2  0  0  0
  1 86  1  0  0  0
  2  3  1  0  0  0
  2 25  1  0  0  0
  2 88  1  0  0  0
  2 89  1  0  0  0
  3  4  1  0  0  0
  3 90  1  0  0  0
  3 91  1  0  0  0
  4  5  1  0  0  0
  4 92  1  0  0  0
  4 93  1  0  0  0
  5  6  1  0  0  0
  5 26  1  0  0  0
  5 94  1  0  0  0
  6 25  1  0  0  0
  6 95  1  0  0  0
  6 96  1  0  0  0
  7  8  2  0  0  0
  7 26  1  0  0  0
  7 29  1  0  0  0
  8  9  1  0  0  0
  8 22  1  0  0  0
  9 10  1  0  0  0
  9 27  2  0  0  0
 10 11  2  0  0  0
 10 15  1  0  0  0
 11 12  1  0  0  0
 11 97  1  0  0  0
 12 13  2  0  0  0
 12 98  1  0  0  0
 13 14  1  0  0  0
 13 31  1  0  0  0
 14 15  2  0  0  0
 14 99  1  0  0  0
 15100  1  0  0  0
 16 17  2  0  0  0
 16 21  1  0  0  0
 16 31  1  0  0  0
 17 18  1  0  0  0
 17101  1  0  0  0
 18 19  2  0  0  0
 18102  1  0  0  0
 19 20  1  0  0  0
 19 24  1  0  0  0
 20 21  2  0  0  0
 20103  1  0  0  0
 21 23  1  0  0  0
 22 28  1  0  0  0
 22 32  2  0  0  0
 26 27  1  0  0  0
 28104  1  0  0  0
 28105  1  0  0  0
 29106  1  0  0  0
 29107  1  0  0  0
 33 34  1  0  0  0
 33 66  1  0  0  0
 33 70  2  0  0  0
 34 36  1  0  0  0
 34 59  1  0  0  0
 34108  1  0  0  0
 35 44  2  0  0  0
 35 45  1  0  0  0
 35 68  1  0  0  0
 36 56  1  0  0  0
 36109  1  0  0  0
 37 39  1  0  0  0
 37 47  1  0  0  0
 37 66  1  0  0  0
 37110  1  0  0  0
 38 43  2  0  0  0
 38 46  1  0  0  0
 38 47  1  0  0  0
 39 64  1  0  0  0
 39 67  2  0  0  0
 40 52  1  0  0  0
 40 53  2  0  0  0
 40 58  1  0  0  0
 41111  1  0  0  0
 41112  1  0  0  0
 41113  1  0  0  0
 41 48  1  0  0  0
 42 43  1  0  0  0
 42 66  1  0  0  0
 42114  1  0  0  0
 42115  1  0  0  0
 43 44  1  0  0  0
 44116  1  0  0  0
 45 46  2  0  0  0
 45117  1  0  0  0
 46118  1  0  0  0
 47119  1  0  0  0
 47120  1  0  0  0
 48 56  1  0  0  0
 48 65  1  0  0  0
 48121  1  0  0  0
 49 50  1  0  0  0
 49 53  1  0  0  0
 49 64  1  0  0  0
 49122  1  0  0  0
 50 51  1  0  0  0
 50123  1  0  0  0
 50124  1  0  0  0
 51 52  1  0  0  0
 51125  1  0  0  0
 51126  1  0  0  0
 52127  1  0  0  0
 52128  1  0  0  0
 53 54  1  0  0  0
 54 55  2  0  0  0
 54129  1  0  0  0
 55 57  1  0  0  0
 55130  1  0  0  0
 56 69  2  0  0  0
 57 58  2  0  0  0
 57131  1  0  0  0
 58132  1  0  0  0
 59 60  1  0  0  0
 59 61  1  0  0  0
 59 62  1  0  0  0
 60133  1  0  0  0
 60134  1  0  0  0
 60135  1  0  0  0
 61136  1  0  0  0
 61137  1  0  0  0
 61138  1  0  0  0
 62139  1  0  0  0
 62140  1  0  0  0
 62141  1  0  0  0
 63 65  1  0  0  0
 63142  1  0  0  0
 63143  1  0  0  0
 63144  1  0  0  0
 64145  1  0  0  0
 65146  1  0  0  0
 68 84  1  0  0  0
 71 72  2  0  0  0
 71 73  1  0  0  0
 71147  1  0  0  0
 72 76  1  0  0  0
 72148  1  0  0  0
 73 74  2  0  0  0
 73 78  1  0  0  0
 74 75  1  0  0  0
 74 81  1  0  0  0
 75 76  2  0  0  0
 75 77  1  0  0  0
 76 86  1  0  0  0
 77 79  1  0  0  0
 77149  1  0  0  0
 77150  1  0  0  0
 78151  1  0  0  0
 78152  1  0  0  0
 78 87  1  0  0  0
 79 80  1  0  0  0
 79153  1  0  0  0
 79154  1  0  0  0
 80 84  1  0  0  0
 80 87  1  0  0  0
 80155  1  0  0  0
 81 82  1  0  0  0
 81 85  1  0  0  0
 81 87  1  0  0  0
 82156  1  0  0  0
 82157  1  0  0  0
 82158  1  0  0  0
 83 85  1  0  0  0
 83159  1  0  0  0
 83160  1  0  0  0
 83161  1  0  0  0
 84162  1  0  0  0
 84163  1  0  0  0
 85164  1  0  0  0
 85165  1  0  0  0
 86166  1  0  0  0
 87167  1  0  0  0
M  CHG  1  87   1
M  ISO  4   1 100  68 101  84 101  86 100
M  END
> <chiral flag>
0

> <version>
0

> <s_m_source_file>
/data/baiqing/PycharmProjects/Reinvent-master-3.2/result/LINK_invent/BTK/process_docking_weight1_custom_sum_contain_oxygen_bond_distance_aromatic_linkinvent_7_9_3/rearranged_h_0150.sdf

> <i_m_source_file_index>
95

> <r_mmod_Potential_Energy-OPLS-2005>
1044.90087890625

> <r_mmod_Stretch_Energy-OPLS-2005>
381.694732666016

> <r_mmod_Bend_Energy-OPLS-2005>
440.396759033203

> <r_mmod_Torsional_Energy-OPLS-2005>
443.522247314453

> <r_mmod_Improper_Torsional_Energy-OPLS-2005>
33.6348876953125

> <r_mmod_Van_der_Waal_Energy-OPLS-2005>
166.478179931641

> <r_mmod_Electrostatic_Energy-OPLS-2005>
-285.597839355469

> <r_mmod_Solvation_Energy-OPLS-2005>
-426.445922851562

> <b_mmod_Minimization_Converged-OPLS-2005>
0

> <r_mmod_RMS_Derivative-OPLS-2005>
1.5655505657196

$$$$
95
                    3D
 Structure written by MMmdl.
179189  0  0  1  0            999 V2000
  -30.7384  -14.3922   20.6634 C   0  0  0  0  0  0
  -30.4174  -12.2885   19.4101 C   0  0  0  0  0  0
  -29.4856  -12.5073   18.2003 C   0  0  0  0  0  0
  -28.0083  -12.3698   18.6148 C   0  0  0  0  0  0
  -27.6643  -13.1978   19.8818 C   0  0  2  0  0  0
  -28.7007  -12.9475   21.0008 C   0  0  0  0  0  0
  -25.2612  -13.8139   20.5690 C   0  0  0  0  0  0
  -24.1854  -13.0448   20.9149 C   0  0  0  0  0  0
  -24.6380  -11.6900   20.8718 C   0  0  0  0  0  0
  -23.9045  -10.4301   21.0392 C   0  0  0  0  0  0
  -24.3603   -9.4210   21.9169 C   0  0  0  0  0  0
  -23.6287   -8.2243   22.0750 C   0  0  0  0  0  0
  -22.4271   -8.0274   21.3541 C   0  0  0  0  0  0
  -21.9896   -9.0240   20.4640 C   0  0  0  0  0  0
  -22.7216  -10.2124   20.3044 C   0  0  0  0  0  0
  -21.6850   -6.0729   22.5278 C   0  0  0  0  0  0
  -21.4013   -6.5637   23.8211 C   0  0  0  0  0  0
  -21.3664   -5.6792   24.9173 C   0  0  0  0  0  0
  -21.6043   -4.3055   24.7227 C   0  0  0  0  0  0
  -21.8823   -3.8143   23.4352 C   0  0  0  0  0  0
  -21.9199   -4.6957   22.3406 C   0  0  0  0  0  0
  -22.7877  -13.5243   21.1828 C   0  0  0  0  0  0
  -22.1666   -4.2145   21.0980 F   0  0  0  0  0  0
  -21.5632   -3.4542   25.7743 F   0  0  0  0  0  0
  -30.0361  -13.2478   20.4593 N   0  0  0  0  0  0
  -26.3031  -12.9296   20.3382 N   0  0  0  0  0  0
  -25.9301  -11.6466   20.5763 N   0  0  0  0  0  0
  -22.0528  -12.8236   22.0379 N   0  0  0  0  0  0
  -25.4378  -15.1863   20.4110 N   0  0  0  0  0  0
  -31.8351  -14.6053   20.1348 O   0  0  0  0  0  0
  -21.6640   -6.8870   21.4243 O   0  0  0  0  0  0
  -22.3566  -14.5565   20.6688 O   0  0  0  0  0  0
  -24.6099  -31.8667   23.2083 C   0  0  0  0  0  0
  -25.9022  -32.4794   23.8377 C   0  0  1  0  0  0
  -27.2444  -27.4742   20.1464 C   0  0  0  0  0  0
  -25.5906  -33.8603   24.2314 N   0  0  0  0  0  0
  -23.3993  -30.4886   21.5394 C   0  0  2  0  0  0
  -24.8574  -28.9720   20.0892 C   0  0  0  0  0  0
  -22.7443  -29.4605   22.4901 C   0  0  0  0  0  0
  -18.0276  -28.1413   22.8410 C   0  0  0  0  0  0
  -24.1508  -36.7342   23.2638 C   0  0  0  0  0  0
  -25.9171  -30.8665   21.3420 C   0  0  0  0  0  0
  -26.0043  -29.5068   20.6876 C   0  0  0  0  0  0
  -27.2029  -28.7714   20.7044 C   0  0  0  0  0  0
  -26.0972  -26.9584   19.5060 C   0  0  0  0  0  0
  -24.8976  -27.7011   19.4839 C   0  0  0  0  0  0
  -23.6129  -29.8283   20.1452 C   0  0  0  0  0  0
  -25.4119  -36.3109   24.0334 C   0  0  1  0  0  0
  -20.5865  -28.3671   23.1312 C   0  0  2  0  0  0
  -20.6757  -26.9400   22.5433 C   0  0  0  0  0  0
  -19.5759  -26.6386   21.5215 C   0  0  0  0  0  0
  -18.1929  -26.7947   22.1591 C   0  0  0  0  0  0
  -19.1529  -28.8853   23.2835 C   0  0  0  0  0  0
  -18.9468  -30.1451   23.8856 C   0  0  0  0  0  0
  -17.6469  -30.6574   24.0572 C   0  0  0  0  0  0
  -25.9045  -34.9475   23.5122 C   0  0  0  0  0  0
  -16.5340  -29.9096   23.6335 C   0  0  0  0  0  0
  -16.7273  -28.6549   23.0279 C   0  0  0  0  0  0
  -26.4489  -31.6565   25.0691 C   0  0  0  0  0  0
  -25.3829  -31.3658   26.1496 C   0  0  0  0  0  0
  -27.0284  -30.3026   24.5976 C   0  0  0  0  0  0
  -27.6059  -32.4287   25.7480 C   0  0  0  0  0  0
  -27.5581  -37.1831   24.8455 C   0  0  0  0  0  0
  -21.4176  -29.3006   22.3704 N   0  0  0  0  0  0
  -26.4295  -37.3806   23.9413 N   0  0  0  0  0  0
  -24.6599  -31.0873   22.0921 N   0  0  0  0  0  0
  -23.4242  -28.8141   23.2911 O   0  0  0  0  0  0
  -28.3369  -26.6529   20.3226 O   0  0  0  0  0  0
  -26.5595  -34.8929   22.4666 O   0  0  0  0  0  0
  -23.5309  -32.1364   23.7541 O   0  0  0  0  0  0
  -30.7477  -20.3913   24.0373 C   0  0  0  0  0  0
  -32.1822  -20.6744   22.1126 C   0  0  0  0  0  0
  -31.4550  -21.2537   23.1692 C   0  0  0  0  0  0
  -31.2894  -18.4446   22.6300 C   0  0  0  0  0  0
  -30.6762  -18.9971   23.7932 C   0  0  0  0  0  0
  -32.0868  -19.3019   21.8210 C   0  0  0  0  0  0
  -30.9343  -23.4779   24.5243 C   0  0  0  0  0  0
  -32.3147  -23.6279   22.4371 C   0  0  0  0  0  0
  -30.2635  -15.8246   22.6912 C   0  0  0  0  0  0
  -30.2223  -16.7855   20.8819 C   0  0  0  0  0  0
  -30.2741  -24.8572   24.2318 C   0  0  0  0  0  0
  -32.1801  -25.1485   22.6978 C   0  0  0  0  0  0
  -31.2591  -22.7781   23.1947 C   0  0  1  0  0  0
  -31.0771  -17.0010   22.1331 C   0  0  0  0  0  0
  -29.8766  -18.1623   24.7801 C   0  0  0  0  0  0
  -32.7875  -18.8245   20.5514 C   0  0  0  0  0  0
  -27.6249  -26.1900   22.6676 C   0  0  0  0  0  0
  -29.8822  -25.4589   21.7846 C   0  0  0  0  0  0
  -28.7853  -26.5478   21.7016 C   0  0  1  0  0  0
  -30.0637  -15.3825   21.2922 N   0  0  0  0  0  0
  -30.7762  -25.5456   22.9924 N   0  3  1  0  0  0
  -31.4611  -12.3889   19.1044 H   0  0  0  0  0  0
  -30.3198  -11.2685   19.7862 H   0  0  0  0  0  0
  -29.7182  -11.7906   17.4103 H   0  0  0  0  0  0
  -29.6566  -13.4975   17.7768 H   0  0  0  0  0  0
  -27.8103  -11.3119   18.7970 H   0  0  0  0  0  0
  -27.3573  -12.6572   17.7890 H   0  0  0  0  0  0
  -27.7235  -14.2502   19.6019 H   0  0  0  0  0  0
  -28.6673  -11.9047   21.3203 H   0  0  0  0  0  0
  -28.4599  -13.5328   21.8898 H   0  0  0  0  0  0
  -25.2753   -9.5701   22.4733 H   0  0  0  0  0  0
  -24.0014   -7.4640   22.7470 H   0  0  0  0  0  0
  -21.0831   -8.8741   19.8938 H   0  0  0  0  0  0
  -22.3666  -10.9657   19.6150 H   0  0  0  0  0  0
  -21.1999   -7.6141   23.9710 H   0  0  0  0  0  0
  -21.1481   -6.0519   25.9073 H   0  0  0  0  0  0
  -22.0601   -2.7605   23.2848 H   0  0  0  0  0  0
  -22.4164  -11.9889   22.4748 H   0  0  0  0  0  0
  -21.1130  -13.1234   22.2594 H   0  0  0  0  0  0
  -24.6808  -15.8497   20.5329 H   0  0  0  0  0  0
  -26.3071  -15.6225   20.1293 H   0  0  0  0  0  0
  -26.7105  -32.5565   23.1165 H   0  0  0  0  0  0
  -25.0037  -33.9741   25.0446 H   0  0  0  0  0  0
  -22.6861  -31.3032   21.3958 H   0  0  0  0  0  0
  -23.3736  -35.9716   23.3301 H   0  0  0  0  0  0
  -24.3589  -36.8977   22.2052 H   0  0  0  0  0  0
  -23.7297  -37.6567   23.6639 H   0  0  0  0  0  0
  -26.0122  -31.6390   20.5758 H   0  0  0  0  0  0
  -26.8094  -30.9274   21.9511 H   0  0  0  0  0  0
  -28.0721  -29.1900   21.1887 H   0  0  0  0  0  0
  -26.1174  -25.9609   19.0870 H   0  0  0  0  0  0
  -24.0144  -27.2844   19.0201 H   0  0  0  0  0  0
  -23.7265  -30.6096   19.3921 H   0  0  0  0  0  0
  -22.7438  -29.2458   19.8364 H   0  0  0  0  0  0
  -25.1269  -36.1963   25.0822 H   0  0  0  0  0  0
  -20.9898  -28.3206   24.1458 H   0  0  0  0  0  0
  -20.5751  -26.2240   23.3605 H   0  0  0  0  0  0
  -21.6622  -26.7485   22.1184 H   0  0  0  0  0  0
  -19.6973  -25.6317   21.1226 H   0  0  0  0  0  0
  -19.6746  -27.3185   20.6745 H   0  0  0  0  0  0
  -17.4218  -26.6664   21.3956 H   0  0  0  0  0  0
  -18.0297  -26.0138   22.9044 H   0  0  0  0  0  0
  -19.7955  -30.7264   24.2214 H   0  0  0  0  0  0
  -17.5035  -31.6267   24.5172 H   0  0  0  0  0  0
  -15.5341  -30.2985   23.7713 H   0  0  0  0  0  0
  -15.8677  -28.0907   22.6938 H   0  0  0  0  0  0
  -24.5953  -30.7019   25.7910 H   0  0  0  0  0  0
  -24.9056  -32.2806   26.5030 H   0  0  0  0  0  0
  -25.8273  -30.8811   27.0205 H   0  0  0  0  0  0
  -26.2756  -29.6812   24.1099 H   0  0  0  0  0  0
  -27.4178  -29.7220   25.4356 H   0  0  0  0  0  0
  -27.8560  -30.4378   23.9002 H   0  0  0  0  0  0
  -27.2599  -33.3555   26.2080 H   0  0  0  0  0  0
  -28.3875  -32.6903   25.0327 H   0  0  0  0  0  0
  -28.0710  -31.8402   26.5405 H   0  0  0  0  0  0
  -28.2560  -38.0152   24.7478 H   0  0  0  0  0  0
  -28.1079  -36.2671   24.6249 H   0  0  0  0  0  0
  -27.2284  -37.1482   25.8853 H   0  0  0  0  0  0
  -20.9377  -29.8814   21.6990 H   0  0  0  0  0  0
  -26.0169  -38.2875   24.1470 H   0  0  0  0  0  0
  -30.1869  -20.7986   24.8679 H   0  0  0  0  0  0
  -32.7484  -21.2946   21.4343 H   0  0  0  0  0  0
  -30.2331  -22.9081   25.1333 H   0  0  0  0  0  0
  -31.8390  -23.5859   25.1251 H   0  0  0  0  0  0
  -33.3252  -23.3285   22.7185 H   0  0  0  0  0  0
  -32.2300  -23.4426   21.3671 H   0  0  0  0  0  0
  -29.3195  -16.0946   23.1671 H   0  0  0  0  0  0
  -30.8415  -15.1498   23.3265 H   0  0  0  0  0  0
  -30.7523  -16.9479   19.9410 H   0  0  0  0  0  0
  -29.2821  -17.3414   20.8850 H   0  0  0  0  0  0
  -30.4376  -25.5072   25.0928 H   0  0  0  0  0  0
  -29.2023  -24.7004   24.1759 H   0  0  0  0  0  0
  -32.5890  -25.7220   21.8628 H   0  0  0  0  0  0
  -32.7953  -25.4160   23.5582 H   0  0  0  0  0  0
  -30.3416  -22.8380   22.6148 H   0  0  0  0  0  0
  -32.0839  -16.6042   21.9953 H   0  0  0  0  0  0
  -29.7466  -18.6923   25.7264 H   0  0  0  0  0  0
  -30.3826  -17.2247   25.0114 H   0  0  0  0  0  0
  -28.8815  -17.9584   24.3841 H   0  0  0  0  0  0
  -33.6242  -19.4761   20.2969 H   0  0  0  0  0  0
  -32.0915  -18.8536   19.7125 H   0  0  0  0  0  0
  -33.1958  -17.8182   20.6317 H   0  0  0  0  0  0
  -26.7463  -26.8254   22.5670 H   0  0  0  0  0  0
  -27.9246  -26.3103   23.7048 H   0  0  0  0  0  0
  -27.3005  -25.1582   22.5157 H   0  0  0  0  0  0
  -30.5054  -25.5787   20.8974 H   0  0  0  0  0  0
  -29.4222  -24.4769   21.6783 H   0  0  0  0  0  0
  -29.2310  -27.4971   22.0018 H   0  0  0  0  0  0
  -30.8215  -26.5313   23.2161 H   0  0  0  0  0  0
  1 25  1  0  0  0
  1 30  2  0  0  0
  1 90  1  0  0  0
  2  3  1  0  0  0
  2 25  1  0  0  0
  2 92  1  0  0  0
  2 93  1  0  0  0
  3  4  1  0  0  0
  3 94  1  0  0  0
  3 95  1  0  0  0
  4  5  1  0  0  0
  4 96  1  0  0  0
  4 97  1  0  0  0
  5  6  1  0  0  0
  5 26  1  0  0  0
  5 98  1  0  0  0
  6 25  1  0  0  0
  6 99  1  0  0  0
  6100  1  0  0  0
  7  8  2  0  0  0
  7 26  1  0  0  0
  7 29  1  0  0  0
  8  9  1  0  0  0
  8 22  1  0  0  0
  9 10  1  0  0  0
  9 27  2  0  0  0
 10 11  2  0  0  0
 10 15  1  0  0  0
 11 12  1  0  0  0
 11101  1  0  0  0
 12 13  2  0  0  0
 12102  1  0  0  0
 13 14  1  0  0  0
 13 31  1  0  0  0
 14 15  2  0  0  0
 14103  1  0  0  0
 15104  1  0  0  0
 16 17  2  0  0  0
 16 21  1  0  0  0
 16 31  1  0  0  0
 17 18  1  0  0  0
 17105  1  0  0  0
 18 19  2  0  0  0
 18106  1  0  0  0
 19 20  1  0  0  0
 19 24  1  0  0  0
 20 21  2  0  0  0
 20107  1  0  0  0
 21 23  1  0  0  0
 22 28  1  0  0  0
 22 32  2  0  0  0
 26 27  1  0  0  0
 28108  1  0  0  0
 28109  1  0  0  0
 29110  1  0  0  0
 29111  1  0  0  0
 33 34  1  0  0  0
 33 66  1  0  0  0
 33 70  2  0  0  0
 34 36  1  0  0  0
 34 59  1  0  0  0
 34112  1  0  0  0
 35 44  2  0  0  0
 35 45  1  0  0  0
 35 68  1  0  0  0
 36 56  1  0  0  0
 36113  1  0  0  0
 37 39  1  0  0  0
 37 47  1  0  0  0
 37 66  1  0  0  0
 37114  1  0  0  0
 38 43  2  0  0  0
 38 46  1  0  0  0
 38 47  1  0  0  0
 39 64  1  0  0  0
 39 67  2  0  0  0
 40 52  1  0  0  0
 40 53  2  0  0  0
 40 58  1  0  0  0
 41115  1  0  0  0
 41116  1  0  0  0
 41117  1  0  0  0
 41 48  1  0  0  0
 42 43  1  0  0  0
 42 66  1  0  0  0
 42118  1  0  0  0
 42119  1  0  0  0
 43 44  1  0  0  0
 44120  1  0  0  0
 45 46  2  0  0  0
 45121  1  0  0  0
 46122  1  0  0  0
 47123  1  0  0  0
 47124  1  0  0  0
 48 56  1  0  0  0
 48 65  1  0  0  0
 48125  1  0  0  0
 49 50  1  0  0  0
 49 53  1  0  0  0
 49 64  1  0  0  0
 49126  1  0  0  0
 50 51  1  0  0  0
 50127  1  0  0  0
 50128  1  0  0  0
 51 52  1  0  0  0
 51129  1  0  0  0
 51130  1  0  0  0
 52131  1  0  0  0
 52132  1  0  0  0
 53 54  1  0  0  0
 54 55  2  0  0  0
 54133  1  0  0  0
 55 57  1  0  0  0
 55134  1  0  0  0
 56 69  2  0  0  0
 57 58  2  0  0  0
 57135  1  0  0  0
 58136  1  0  0  0
 59 60  1  0  0  0
 59 61  1  0  0  0
 59 62  1  0  0  0
 60137  1  0  0  0
 60138  1  0  0  0
 60139  1  0  0  0
 61140  1  0  0  0
 61141  1  0  0  0
 61142  1  0  0  0
 62143  1  0  0  0
 62144  1  0  0  0
 62145  1  0  0  0
 63 65  1  0  0  0
 63146  1  0  0  0
 63147  1  0  0  0
 63148  1  0  0  0
 64149  1  0  0  0
 65150  1  0  0  0
 68 89  1  0  0  0
 71 73  2  0  0  0
 71 75  1  0  0  0
 71151  1  0  0  0
 72 73  1  0  0  0
 72 76  2  0  0  0
 72152  1  0  0  0
 73 83  1  0  0  0
 74 75  2  0  0  0
 74 76  1  0  0  0
 74 84  1  0  0  0
 75 85  1  0  0  0
 76 86  1  0  0  0
 77 81  1  0  0  0
 77 83  1  0  0  0
 77153  1  0  0  0
 77154  1  0  0  0
 78 82  1  0  0  0
 78 83  1  0  0  0
 78155  1  0  0  0
 78156  1  0  0  0
 79 84  1  0  0  0
 79 90  1  0  0  0
 79157  1  0  0  0
 79158  1  0  0  0
 80 84  1  0  0  0
 80 90  1  0  0  0
 80159  1  0  0  0
 80160  1  0  0  0
 81 91  1  0  0  0
 81161  1  0  0  0
 81162  1  0  0  0
 82 91  1  0  0  0
 82163  1  0  0  0
 82164  1  0  0  0
 83165  1  0  0  0
 84166  1  0  0  0
 85167  1  0  0  0
 85168  1  0  0  0
 85169  1  0  0  0
 86170  1  0  0  0
 86171  1  0  0  0
 86172  1  0  0  0
 87173  1  0  0  0
 87174  1  0  0  0
 87175  1  0  0  0
 87 89  1  0  0  0
 88 89  1  0  0  0
 88176  1  0  0  0
 88177  1  0  0  0
 88 91  1  0  0  0
 89178  1  0  0  0
 91179  1  0  0  0
M  CHG  1  91   1
M  ISO  4   1 100  68 101  89 101  90 100
M  END
> <chiral flag>
0

> <version>
0

> <s_m_source_file>
/data/baiqing/PycharmProjects/Reinvent-master-3.2/result/LINK_invent/BTK/process_docking_weight1_custom_sum_contain_oxygen_bond_distance_aromatic_linkinvent_7_9_3/rearranged_h_0150.sdf

> <i_m_source_file_index>
96

> <r_mmod_Potential_Energy-OPLS-2005>
88.9342651367188

> <r_mmod_Stretch_Energy-OPLS-2005>
48.1997261047363

> <r_mmod_Bend_Energy-OPLS-2005>
143.59700012207

> <r_mmod_Torsional_Energy-OPLS-2005>
352.839019775391

> <r_mmod_Improper_Torsional_Energy-OPLS-2005>
14.1135301589966

> <r_mmod_Van_der_Waal_Energy-OPLS-2005>
190.526519775391

> <r_mmod_Electrostatic_Energy-OPLS-2005>
-268.230560302734

> <r_mmod_Solvation_Energy-OPLS-2005>
-410.688537597656

> <b_mmod_Minimization_Converged-OPLS-2005>
0

> <r_mmod_RMS_Derivative-OPLS-2005>
4.79251146316528

$$$$
96
                    3D
 Structure written by MMmdl.
178188  0  0  1  0            999 V2000
  -30.7210  -14.4262   20.5849 C   0  0  0  0  0  0
  -30.4167  -12.2827   19.4154 C   0  0  0  0  0  0
  -29.4903  -12.5033   18.2025 C   0  0  0  0  0  0
  -28.0114  -12.3686   18.6158 C   0  0  0  0  0  0
  -27.6632  -13.2030   19.8779 C   0  0  2  0  0  0
  -28.7025  -12.9695   20.9971 C   0  0  0  0  0  0
  -25.2601  -13.8166   20.5683 C   0  0  0  0  0  0
  -24.1842  -13.0447   20.9169 C   0  0  0  0  0  0
  -24.6390  -11.6912   20.8733 C   0  0  0  0  0  0
  -23.9064  -10.4299   21.0407 C   0  0  0  0  0  0
  -24.3614   -9.4212   21.9187 C   0  0  0  0  0  0
  -23.6289   -8.2247   22.0756 C   0  0  0  0  0  0
  -22.4273   -8.0284   21.3543 C   0  0  0  0  0  0
  -21.9907   -9.0260   20.4647 C   0  0  0  0  0  0
  -22.7239  -10.2140   20.3057 C   0  0  0  0  0  0
  -21.6853   -6.0735   22.5280 C   0  0  0  0  0  0
  -21.4014   -6.5639   23.8214 C   0  0  0  0  0  0
  -21.3655   -5.6791   24.9175 C   0  0  0  0  0  0
  -21.6043   -4.3054   24.7228 C   0  0  0  0  0  0
  -21.8820   -3.8149   23.4344 C   0  0  0  0  0  0
  -21.9192   -4.6964   22.3399 C   0  0  0  0  0  0
  -22.7865  -13.5245   21.1831 C   0  0  0  0  0  0
  -22.1660   -4.2151   21.0977 F   0  0  0  0  0  0
  -21.5627   -3.4537   25.7740 F   0  0  0  0  0  0
  -30.0365  -13.2598   20.4455 N   0  0  0  0  0  0
  -26.3032  -12.9323   20.3381 N   0  0  0  0  0  0
  -25.9316  -11.6485   20.5771 N   0  0  0  0  0  0
  -22.0499  -12.8239   22.0388 N   0  0  0  0  0  0
  -25.4348  -15.1883   20.4104 N   0  0  0  0  0  0
  -31.8387  -14.6044   20.0900 O   0  0  0  0  0  0
  -21.6634   -6.8882   21.4242 O   0  0  0  0  0  0
  -22.3551  -14.5547   20.6681 O   0  0  0  0  0  0
  -24.6118  -31.8696   23.2102 C   0  0  0  0  0  0
  -25.9021  -32.4832   23.8397 C   0  0  1  0  0  0
  -27.2373  -27.4631   20.0950 C   0  0  0  0  0  0
  -25.5894  -33.8627   24.2329 N   0  0  0  0  0  0
  -23.3996  -30.4896   21.5515 C   0  0  2  0  0  0
  -24.8482  -28.9595   20.1145 C   0  0  0  0  0  0
  -22.7404  -29.4639   22.5014 C   0  0  0  0  0  0
  -18.0265  -28.1358   22.8490 C   0  0  0  0  0  0
  -24.1487  -36.7315   23.2639 C   0  0  0  0  0  0
  -25.9255  -30.8418   21.3634 C   0  0  0  0  0  0
  -26.0057  -29.4798   20.7085 C   0  0  0  0  0  0
  -27.2067  -28.7386   20.6937 C   0  0  0  0  0  0
  -26.0685  -26.9478   19.4966 C   0  0  0  0  0  0
  -24.8723  -27.6915   19.5057 C   0  0  0  0  0  0
  -23.6078  -29.8220   20.1659 C   0  0  0  0  0  0
  -25.4111  -36.3114   24.0331 C   0  0  1  0  0  0
  -20.5854  -28.3637   23.1327 C   0  0  2  0  0  0
  -20.6766  -26.9378   22.5420 C   0  0  0  0  0  0
  -19.5749  -26.6378   21.5204 C   0  0  0  0  0  0
  -18.1919  -26.7908   22.1612 C   0  0  0  0  0  0
  -19.1516  -28.8817   23.2900 C   0  0  0  0  0  0
  -18.9454  -30.1427   23.8899 C   0  0  0  0  0  0
  -17.6460  -30.6577   24.0552 C   0  0  0  0  0  0
  -25.9033  -34.9480   23.5127 C   0  0  0  0  0  0
  -16.5345  -29.9074   23.6318 C   0  0  0  0  0  0
  -16.7257  -28.6486   23.0342 C   0  0  0  0  0  0
  -26.4457  -31.6611   25.0723 C   0  0  0  0  0  0
  -25.3717  -31.3715   26.1472 C   0  0  0  0  0  0
  -27.0300  -30.3057   24.6089 C   0  0  0  0  0  0
  -27.6023  -32.4346   25.7496 C   0  0  0  0  0  0
  -27.5579  -37.1816   24.8460 C   0  0  0  0  0  0
  -21.4133  -29.3009   22.3756 N   0  0  0  0  0  0
  -26.4301  -37.3794   23.9394 N   0  0  0  0  0  0
  -24.6630  -31.0815   22.0998 N   0  0  0  0  0  0
  -23.4181  -28.8185   23.3047 O   0  0  0  0  0  0
  -28.3937  -26.7234   20.1119 O   0  0  0  0  0  0
  -26.5601  -34.8931   22.4686 O   0  0  0  0  0  0
  -23.5321  -32.1447   23.7516 O   0  0  0  0  0  0
  -34.8372  -20.4358   22.2425 C   0  0  0  0  0  0
  -33.6014  -21.0813   22.0751 C   0  0  0  0  0  0
  -33.7142  -18.2886   22.0960 C   0  0  0  0  0  0
  -32.4522  -18.9214   21.9611 C   0  0  0  0  0  0
  -34.8978  -19.0339   22.2479 C   0  0  0  0  0  0
  -32.3984  -20.3461   21.9265 C   0  0  0  0  0  0
  -29.3529  -24.2301   22.7719 C   0  0  0  0  0  0
  -29.6410  -23.3569   20.3706 C   0  0  0  0  0  0
  -29.3354  -25.5601   22.0004 C   0  0  0  0  0  0
  -28.4653  -24.2705   19.9619 C   0  0  0  0  0  0
  -30.9651  -17.6544   20.3423 C   0  0  0  0  0  0
  -31.1726  -16.8013   22.7489 C   0  0  0  0  0  0
  -29.7991  -16.6563   20.1813 C   0  0  0  0  0  0
  -29.9920  -15.8507   22.4508 C   0  0  0  0  0  0
  -31.1920  -18.0481   21.8166 C   0  0  0  0  0  0
  -29.6467  -22.9953   21.8790 C   0  0  1  0  0  0
  -28.2991  -25.5117   20.8674 C   0  0  2  0  0  0
  -36.2273  -18.3266   22.4127 C   0  0  0  0  0  0
  -30.9763  -22.3371   22.3033 C   0  0  0  0  0  0
  -29.9918  -15.4749   21.0329 N   0  0  0  0  0  0
  -31.1790  -21.0158   21.7122 N   0  0  0  0  0  0
  -31.4615  -12.3718   19.1131 H   0  0  0  0  0  0
  -30.3075  -11.2690   19.8031 H   0  0  0  0  0  0
  -29.7246  -11.7869   17.4140 H   0  0  0  0  0  0
  -29.6647  -13.4931   17.7777 H   0  0  0  0  0  0
  -27.8167  -11.3122   18.8052 H   0  0  0  0  0  0
  -27.3616  -12.6513   17.7872 H   0  0  0  0  0  0
  -27.7136  -14.2528   19.5891 H   0  0  0  0  0  0
  -28.6674  -11.9351   21.3411 H   0  0  0  0  0  0
  -28.4670  -13.5769   21.8712 H   0  0  0  0  0  0
  -25.2761   -9.5682   22.4762 H   0  0  0  0  0  0
  -23.9999   -7.4632   22.7477 H   0  0  0  0  0  0
  -21.0839   -8.8780   19.8951 H   0  0  0  0  0  0
  -22.3703  -10.9677   19.6159 H   0  0  0  0  0  0
  -21.2009   -7.6151   23.9720 H   0  0  0  0  0  0
  -21.1474   -6.0519   25.9077 H   0  0  0  0  0  0
  -22.0605   -2.7612   23.2845 H   0  0  0  0  0  0
  -22.4103  -11.9893   22.4766 H   0  0  0  0  0  0
  -21.1122  -13.1273   22.2593 H   0  0  0  0  0  0
  -24.6762  -15.8513   20.5270 H   0  0  0  0  0  0
  -26.3026  -15.6254   20.1260 H   0  0  0  0  0  0
  -26.7097  -32.5544   23.1178 H   0  0  0  0  0  0
  -25.0041  -33.9785   25.0471 H   0  0  0  0  0  0
  -22.6870  -31.3042   21.4137 H   0  0  0  0  0  0
  -23.3747  -35.9649   23.3322 H   0  0  0  0  0  0
  -24.3587  -36.8913   22.2052 H   0  0  0  0  0  0
  -23.7244  -37.6522   23.6654 H   0  0  0  0  0  0
  -26.0389  -31.6125   20.6007 H   0  0  0  0  0  0
  -26.8101  -30.8893   21.9859 H   0  0  0  0  0  0
  -28.1009  -29.1302   21.1585 H   0  0  0  0  0  0
  -26.0856  -25.9724   19.0303 H   0  0  0  0  0  0
  -23.9829  -27.2844   19.0447 H   0  0  0  0  0  0
  -23.7099  -30.5968   19.4052 H   0  0  0  0  0  0
  -22.7340  -29.2361   19.8744 H   0  0  0  0  0  0
  -25.1290  -36.1988   25.0828 H   0  0  0  0  0  0
  -20.9919  -28.3205   24.1457 H   0  0  0  0  0  0
  -20.5681  -26.2236   23.3601 H   0  0  0  0  0  0
  -21.6637  -26.7444   22.1194 H   0  0  0  0  0  0
  -19.6917  -25.6291   21.1224 H   0  0  0  0  0  0
  -19.6700  -27.3200   20.6743 H   0  0  0  0  0  0
  -17.4192  -26.6654   21.4009 H   0  0  0  0  0  0
  -18.0308  -26.0047   22.9001 H   0  0  0  0  0  0
  -19.7938  -30.7227   24.2285 H   0  0  0  0  0  0
  -17.5021  -31.6260   24.5149 H   0  0  0  0  0  0
  -15.5343  -30.2975   23.7662 H   0  0  0  0  0  0
  -15.8652  -28.0820   22.7049 H   0  0  0  0  0  0
  -24.5882  -30.7081   25.7806 H   0  0  0  0  0  0
  -24.8920  -32.2871   26.4935 H   0  0  0  0  0  0
  -25.8056  -30.8871   27.0225 H   0  0  0  0  0  0
  -26.2848  -29.6835   24.1121 H   0  0  0  0  0  0
  -27.4057  -29.7285   25.4549 H   0  0  0  0  0  0
  -27.8686  -30.4392   23.9250 H   0  0  0  0  0  0
  -27.2614  -33.3633   26.2091 H   0  0  0  0  0  0
  -28.3815  -32.6934   25.0316 H   0  0  0  0  0  0
  -28.0703  -31.8464   26.5403 H   0  0  0  0  0  0
  -28.2592  -38.0118   24.7508 H   0  0  0  0  0  0
  -28.1079  -36.2645   24.6287 H   0  0  0  0  0  0
  -27.2293  -37.1460   25.8863 H   0  0  0  0  0  0
  -20.9308  -29.8730   21.6971 H   0  0  0  0  0  0
  -26.0196  -38.2870   24.1400 H   0  0  0  0  0  0
  -35.7362  -21.0271   22.3489 H   0  0  0  0  0  0
  -33.6217  -22.1596   22.0436 H   0  0  0  0  0  0
  -33.7999  -17.2128   22.0750 H   0  0  0  0  0  0
  -28.3818  -24.0938   23.2493 H   0  0  0  0  0  0
  -30.0663  -24.2996   23.5934 H   0  0  0  0  0  0
  -30.5747  -23.8609   20.1152 H   0  0  0  0  0  0
  -29.6238  -22.4475   19.7691 H   0  0  0  0  0  0
  -30.3280  -25.7666   21.5984 H   0  0  0  0  0  0
  -29.1045  -26.3828   22.6787 H   0  0  0  0  0  0
  -27.5414  -23.6909   19.9885 H   0  0  0  0  0  0
  -28.5884  -24.5795   18.9235 H   0  0  0  0  0  0
  -30.7703  -18.5475   19.7465 H   0  0  0  0  0  0
  -31.8779  -17.2192   19.9346 H   0  0  0  0  0  0
  -32.0788  -16.2094   22.6440 H   0  0  0  0  0  0
  -31.1413  -17.1202   23.7910 H   0  0  0  0  0  0
  -29.7010  -16.3583   19.1358 H   0  0  0  0  0  0
  -28.8553  -17.1367   20.4456 H   0  0  0  0  0  0
  -29.0442  -16.3303   22.6991 H   0  0  0  0  0  0
  -30.0593  -14.9635   23.0826 H   0  0  0  0  0  0
  -30.3282  -18.6372   22.1232 H   0  0  0  0  0  0
  -28.8416  -22.2804   22.0578 H   0  0  0  0  0  0
  -27.3224  -25.4300   21.3516 H   0  0  0  0  0  0
  -37.0341  -19.0342   22.6100 H   0  0  0  0  0  0
  -36.4785  -17.7674   21.5106 H   0  0  0  0  0  0
  -36.1858  -17.6270   23.2482 H   0  0  0  0  0  0
  -31.0074  -22.2240   23.3885 H   0  0  0  0  0  0
  -31.7785  -23.0236   22.0350 H   0  0  0  0  0  0
  -30.3524  -20.4327   21.6386 H   0  0  0  0  0  0
  1 25  1  0  0  0
  1 30  2  0  0  0
  1 90  1  0  0  0
  2  3  1  0  0  0
  2 25  1  0  0  0
  2 92  1  0  0  0
  2 93  1  0  0  0
  3  4  1  0  0  0
  3 94  1  0  0  0
  3 95  1  0  0  0
  4  5  1  0  0  0
  4 96  1  0  0  0
  4 97  1  0  0  0
  5  6  1  0  0  0
  5 26  1  0  0  0
  5 98  1  0  0  0
  6 25  1  0  0  0
  6 99  1  0  0  0
  6100  1  0  0  0
  7  8  2  0  0  0
  7 26  1  0  0  0
  7 29  1  0  0  0
  8  9  1  0  0  0
  8 22  1  0  0  0
  9 10  1  0  0  0
  9 27  2  0  0  0
 10 11  2  0  0  0
 10 15  1  0  0  0
 11 12  1  0  0  0
 11101  1  0  0  0
 12 13  2  0  0  0
 12102  1  0  0  0
 13 14  1  0  0  0
 13 31  1  0  0  0
 14 15  2  0  0  0
 14103  1  0  0  0
 15104  1  0  0  0
 16 17  2  0  0  0
 16 21  1  0  0  0
 16 31  1  0  0  0
 17 18  1  0  0  0
 17105  1  0  0  0
 18 19  2  0  0  0
 18106  1  0  0  0
 19 20  1  0  0  0
 19 24  1  0  0  0
 20 21  2  0  0  0
 20107  1  0  0  0
 21 23  1  0  0  0
 22 28  1  0  0  0
 22 32  2  0  0  0
 26 27  1  0  0  0
 28108  1  0  0  0
 28109  1  0  0  0
 29110  1  0  0  0
 29111  1  0  0  0
 33 34  1  0  0  0
 33 66  1  0  0  0
 33 70  2  0  0  0
 34 36  1  0  0  0
 34 59  1  0  0  0
 34112  1  0  0  0
 35 44  2  0  0  0
 35 45  1  0  0  0
 35 68  1  0  0  0
 36 56  1  0  0  0
 36113  1  0  0  0
 37 39  1  0  0  0
 37 47  1  0  0  0
 37 66  1  0  0  0
 37114  1  0  0  0
 38 43  2  0  0  0
 38 46  1  0  0  0
 38 47  1  0  0  0
 39 64  1  0  0  0
 39 67  2  0  0  0
 40 52  1  0  0  0
 40 53  2  0  0  0
 40 58  1  0  0  0
 41115  1  0  0  0
 41116  1  0  0  0
 41117  1  0  0  0
 41 48  1  0  0  0
 42 43  1  0  0  0
 42 66  1  0  0  0
 42118  1  0  0  0
 42119  1  0  0  0
 43 44  1  0  0  0
 44120  1  0  0  0
 45 46  2  0  0  0
 45121  1  0  0  0
 46122  1  0  0  0
 47123  1  0  0  0
 47124  1  0  0  0
 48 56  1  0  0  0
 48 65  1  0  0  0
 48125  1  0  0  0
 49 50  1  0  0  0
 49 53  1  0  0  0
 49 64  1  0  0  0
 49126  1  0  0  0
 50 51  1  0  0  0
 50127  1  0  0  0
 50128  1  0  0  0
 51 52  1  0  0  0
 51129  1  0  0  0
 51130  1  0  0  0
 52131  1  0  0  0
 52132  1  0  0  0
 53 54  1  0  0  0
 54 55  2  0  0  0
 54133  1  0  0  0
 55 57  1  0  0  0
 55134  1  0  0  0
 56 69  2  0  0  0
 57 58  2  0  0  0
 57135  1  0  0  0
 58136  1  0  0  0
 59 60  1  0  0  0
 59 61  1  0  0  0
 59 62  1  0  0  0
 60137  1  0  0  0
 60138  1  0  0  0
 60139  1  0  0  0
 61140  1  0  0  0
 61141  1  0  0  0
 61142  1  0  0  0
 62143  1  0  0  0
 62144  1  0  0  0
 62145  1  0  0  0
 63 65  1  0  0  0
 63146  1  0  0  0
 63147  1  0  0  0
 63148  1  0  0  0
 64149  1  0  0  0
 65150  1  0  0  0
 68 87  1  0  0  0
 71 72  2  0  0  0
 71 75  1  0  0  0
 71151  1  0  0  0
 72 76  1  0  0  0
 72152  1  0  0  0
 73 74  1  0  0  0
 73 75  2  0  0  0
 73153  1  0  0  0
 74 76  2  0  0  0
 74 85  1  0  0  0
 75 88  1  0  0  0
 76 91  1  0  0  0
 77 79  1  0  0  0
 77 86  1  0  0  0
 77154  1  0  0  0
 77155  1  0  0  0
 78 80  1  0  0  0
 78 86  1  0  0  0
 78156  1  0  0  0
 78157  1  0  0  0
 79 87  1  0  0  0
 79158  1  0  0  0
 79159  1  0  0  0
 80 87  1  0  0  0
 80160  1  0  0  0
 80161  1  0  0  0
 81 83  1  0  0  0
 81 85  1  0  0  0
 81162  1  0  0  0
 81163  1  0  0  0
 82 84  1  0  0  0
 82 85  1  0  0  0
 82164  1  0  0  0
 82165  1  0  0  0
 83 90  1  0  0  0
 83166  1  0  0  0
 83167  1  0  0  0
 84 90  1  0  0  0
 84168  1  0  0  0
 84169  1  0  0  0
 85170  1  0  0  0
 86 89  1  0  0  0
 86171  1  0  0  0
 87172  1  0  0  0
 88173  1  0  0  0
 88174  1  0  0  0
 88175  1  0  0  0
 89 91  1  0  0  0
 89176  1  0  0  0
 89177  1  0  0  0
 91178  1  0  0  0
M  ISO  4   1 100  68 101  87 101  90 100
M  END
> <chiral flag>
0

> <version>
0

> <s_m_source_file>
/data/baiqing/PycharmProjects/Reinvent-master-3.2/result/LINK_invent/BTK/process_docking_weight1_custom_sum_contain_oxygen_bond_distance_aromatic_linkinvent_7_9_3/rearranged_h_0150.sdf

> <i_m_source_file_index>
97

> <r_mmod_Potential_Energy-OPLS-2005>
219.826370239258

> <r_mmod_Stretch_Energy-OPLS-2005>
39.1980361938477

> <r_mmod_Bend_Energy-OPLS-2005>
102.143836975098

> <r_mmod_Torsional_Energy-OPLS-2005>
387.544586181641

> <r_mmod_Improper_Torsional_Energy-OPLS-2005>
12.1371936798096

> <r_mmod_Van_der_Waal_Energy-OPLS-2005>
171.719879150391

> <r_mmod_Electrostatic_Energy-OPLS-2005>
-311.741455078125

> <r_mmod_Solvation_Energy-OPLS-2005>
-191.067825317383

> <b_mmod_Minimization_Converged-OPLS-2005>
0

> <r_mmod_RMS_Derivative-OPLS-2005>
1.53891348838806

$$$$
97
                    3D
 Structure written by MMmdl.
172181  0  0  1  0            999 V2000
  -30.7802  -14.4534   20.5100 C   0  0  0  0  0  0
  -30.4025  -12.2897   19.4348 C   0  0  0  0  0  0
  -29.4887  -12.4782   18.2096 C   0  0  0  0  0  0
  -28.0129  -12.3488   18.6265 C   0  0  0  0  0  0
  -27.6564  -13.2178   19.8618 C   0  0  2  0  0  0
  -28.7038  -13.0769   20.9926 C   0  0  0  0  0  0
  -25.2581  -13.8165   20.5656 C   0  0  0  0  0  0
  -24.1841  -13.0442   20.9165 C   0  0  0  0  0  0
  -24.6398  -11.6915   20.8732 C   0  0  0  0  0  0
  -23.9055  -10.4292   21.0391 C   0  0  0  0  0  0
  -24.3577   -9.4198   21.9168 C   0  0  0  0  0  0
  -23.6259   -8.2213   22.0722 C   0  0  0  0  0  0
  -22.4240   -8.0266   21.3522 C   0  0  0  0  0  0
  -21.9884   -9.0248   20.4642 C   0  0  0  0  0  0
  -22.7212  -10.2130   20.3054 C   0  0  0  0  0  0
  -21.6842   -6.0722   22.5268 C   0  0  0  0  0  0
  -21.4032   -6.5638   23.8204 C   0  0  0  0  0  0
  -21.3661   -5.6786   24.9169 C   0  0  0  0  0  0
  -21.6034   -4.3042   24.7233 C   0  0  0  0  0  0
  -21.8830   -3.8145   23.4356 C   0  0  0  0  0  0
  -21.9185   -4.6951   22.3414 C   0  0  0  0  0  0
  -22.7851  -13.5256   21.1857 C   0  0  0  0  0  0
  -22.1653   -4.2144   21.0989 F   0  0  0  0  0  0
  -21.5625   -3.4539   25.7750 F   0  0  0  0  0  0
  -30.0334  -13.3228   20.4149 N   0  0  0  0  0  0
  -26.3021  -12.9348   20.3334 N   0  0  0  0  0  0
  -25.9341  -11.6513   20.5781 N   0  0  0  0  0  0
  -22.0519  -12.8233   22.0419 N   0  0  0  0  0  0
  -25.4360  -15.1857   20.3977 N   0  0  0  0  0  0
  -31.9477  -14.4995   20.1246 O   0  0  0  0  0  0
  -21.6602   -6.8850   21.4228 O   0  0  0  0  0  0
  -22.3532  -14.5600   20.6778 O   0  0  0  0  0  0
  -24.6073  -31.8724   23.2149 C   0  0  0  0  0  0
  -25.8993  -32.4849   23.8420 C   0  0  1  0  0  0
  -27.2395  -27.5081   20.0809 C   0  0  0  0  0  0
  -25.5881  -33.8652   24.2356 N   0  0  0  0  0  0
  -23.3908  -30.4962   21.5534 C   0  0  2  0  0  0
  -24.8402  -28.9704   20.1115 C   0  0  0  0  0  0
  -22.7360  -29.4680   22.5023 C   0  0  0  0  0  0
  -18.0259  -28.1364   22.8493 C   0  0  0  0  0  0
  -24.1491  -36.7330   23.2627 C   0  0  0  0  0  0
  -25.9114  -30.8583   21.3595 C   0  0  0  0  0  0
  -25.9921  -29.4965   20.7115 C   0  0  0  0  0  0
  -27.1934  -28.7651   20.7061 C   0  0  0  0  0  0
  -26.0767  -26.9678   19.4934 C   0  0  0  0  0  0
  -24.8738  -27.7006   19.5038 C   0  0  0  0  0  0
  -23.5964  -29.8277   20.1661 C   0  0  0  0  0  0
  -25.4098  -36.3138   24.0350 C   0  0  1  0  0  0
  -20.5842  -28.3641   23.1347 C   0  0  2  0  0  0
  -20.6754  -26.9385   22.5438 C   0  0  0  0  0  0
  -19.5739  -26.6390   21.5221 C   0  0  0  0  0  0
  -18.1910  -26.7922   22.1615 C   0  0  0  0  0  0
  -19.1507  -28.8820   23.2921 C   0  0  0  0  0  0
  -18.9441  -30.1426   23.8923 C   0  0  0  0  0  0
  -17.6443  -30.6575   24.0568 C   0  0  0  0  0  0
  -25.9030  -34.9497   23.5149 C   0  0  0  0  0  0
  -16.5336  -29.9081   23.6321 C   0  0  0  0  0  0
  -16.7249  -28.6504   23.0341 C   0  0  0  0  0  0
  -26.4452  -31.6611   25.0718 C   0  0  0  0  0  0
  -25.3759  -31.3768   26.1513 C   0  0  0  0  0  0
  -27.0209  -30.3032   24.6069 C   0  0  0  0  0  0
  -27.6078  -32.4298   25.7420 C   0  0  0  0  0  0
  -27.5611  -37.1776   24.8434 C   0  0  0  0  0  0
  -21.4102  -29.3014   22.3755 N   0  0  0  0  0  0
  -26.4283  -37.3821   23.9447 N   0  0  0  0  0  0
  -24.6538  -31.0892   22.1024 N   0  0  0  0  0  0
  -23.4171  -28.8226   23.3044 O   0  0  0  0  0  0
  -28.4111  -26.8107   20.0694 O   0  0  0  0  0  0
  -26.5581  -34.8938   22.4709 O   0  0  0  0  0  0
  -23.5281  -32.1453   23.7588 O   0  0  0  0  0  0
  -29.7186  -24.8154   17.4291 C   0  0  0  0  0  0
  -30.4642  -24.9163   19.7352 C   0  0  0  0  0  0
  -30.7180  -22.8262   18.4793 C   0  0  0  0  0  0
  -29.7997  -25.5039   18.6474 C   0  0  0  0  0  0
  -30.1650  -23.4836   17.3387 C   0  0  0  0  0  0
  -30.9288  -23.5911   19.6674 C   0  0  0  0  0  0
  -32.3331  -20.7688   18.8627 C   0  0  0  0  0  0
  -32.0439  -19.5546   19.7666 C   0  0  0  0  0  0
  -29.9073  -20.5000   19.2255 C   0  0  0  0  0  0
  -30.9535  -21.3052   18.4354 C   0  0  1  0  0  0
  -30.5968  -19.1464   19.4355 C   0  0  2  0  0  0
  -29.9821  -22.7890   15.9977 C   0  0  0  0  0  0
  -31.6220  -23.0662   20.9174 C   0  0  0  0  0  0
  -29.4404  -18.7050   21.7214 C   0  0  0  0  0  0
  -29.1066  -26.8297   18.8303 C   0  0  0  0  0  0
  -30.8251  -16.8980   20.6087 C   0  0  0  0  0  0
  -29.9019  -18.1149   20.3788 C   0  0  2  0  0  0
  -30.1545  -15.6024   20.8289 N   0  0  0  0  0  0
  -31.4502  -12.3417   19.1326 H   0  0  0  0  0  0
  -30.2722  -11.2985   19.8699 H   0  0  0  0  0  0
  -29.7252  -11.7386   17.4451 H   0  0  0  0  0  0
  -29.6620  -13.4536   17.7514 H   0  0  0  0  0  0
  -27.8252  -11.2964   18.8481 H   0  0  0  0  0  0
  -27.3629  -12.6034   17.7877 H   0  0  0  0  0  0
  -27.6825  -14.2531   19.5215 H   0  0  0  0  0  0
  -28.6753  -12.0794   21.4328 H   0  0  0  0  0  0
  -28.4854  -13.7702   21.8059 H   0  0  0  0  0  0
  -25.2714   -9.5666   22.4739 H   0  0  0  0  0  0
  -23.9997   -7.4597   22.7410 H   0  0  0  0  0  0
  -21.0820   -8.8756   19.8944 H   0  0  0  0  0  0
  -22.3652  -10.9654   19.6163 H   0  0  0  0  0  0
  -21.2031   -7.6139   23.9719 H   0  0  0  0  0  0
  -21.1476   -6.0502   25.9066 H   0  0  0  0  0  0
  -22.0615   -2.7616   23.2842 H   0  0  0  0  0  0
  -22.4123  -11.9878   22.4785 H   0  0  0  0  0  0
  -21.1159  -13.1254   22.2684 H   0  0  0  0  0  0
  -24.6780  -15.8545   20.4820 H   0  0  0  0  0  0
  -26.2956  -15.6048   20.0666 H   0  0  0  0  0  0
  -26.7059  -32.5593   23.1186 H   0  0  0  0  0  0
  -25.0061  -33.9822   25.0516 H   0  0  0  0  0  0
  -22.6749  -31.3100   21.4198 H   0  0  0  0  0  0
  -23.3769  -35.9643   23.3256 H   0  0  0  0  0  0
  -24.3608  -36.8967   22.2049 H   0  0  0  0  0  0
  -23.7210  -37.6521   23.6637 H   0  0  0  0  0  0
  -26.0142  -31.6276   20.5926 H   0  0  0  0  0  0
  -26.8027  -30.9133   21.9724 H   0  0  0  0  0  0
  -28.0859  -29.1679   21.1652 H   0  0  0  0  0  0
  -26.1059  -25.9911   19.0302 H   0  0  0  0  0  0
  -23.9867  -27.2898   19.0412 H   0  0  0  0  0  0
  -23.6866  -30.6017   19.4029 H   0  0  0  0  0  0
  -22.7239  -29.2377   19.8816 H   0  0  0  0  0  0
  -25.1255  -36.2002   25.0838 H   0  0  0  0  0  0
  -20.9931  -28.3218   24.1466 H   0  0  0  0  0  0
  -20.5652  -26.2251   23.3621 H   0  0  0  0  0  0
  -21.6635  -26.7434   22.1247 H   0  0  0  0  0  0
  -19.6909  -25.6312   21.1226 H   0  0  0  0  0  0
  -19.6690  -27.3224   20.6772 H   0  0  0  0  0  0
  -17.4195  -26.6677   21.4004 H   0  0  0  0  0  0
  -18.0293  -26.0051   22.8995 H   0  0  0  0  0  0
  -19.7918  -30.7235   24.2316 H   0  0  0  0  0  0
  -17.5001  -31.6256   24.5172 H   0  0  0  0  0  0
  -15.5334  -30.2993   23.7631 H   0  0  0  0  0  0
  -15.8650  -28.0830   22.7035 H   0  0  0  0  0  0
  -24.5887  -30.7137   25.7910 H   0  0  0  0  0  0
  -24.9002  -32.2953   26.4965 H   0  0  0  0  0  0
  -25.8149  -30.8953   27.0260 H   0  0  0  0  0  0
  -26.2701  -29.6834   24.1158 H   0  0  0  0  0  0
  -27.3983  -29.7243   25.4507 H   0  0  0  0  0  0
  -27.8553  -30.4297   23.9166 H   0  0  0  0  0  0
  -27.2748  -33.3601   26.2030 H   0  0  0  0  0  0
  -28.3842  -32.6853   25.0195 H   0  0  0  0  0  0
  -28.0791  -31.8401   26.5290 H   0  0  0  0  0  0
  -28.2565  -38.0139   24.7614 H   0  0  0  0  0  0
  -28.1167  -36.2690   24.6058 H   0  0  0  0  0  0
  -27.2372  -37.1209   25.8841 H   0  0  0  0  0  0
  -20.9244  -29.8714   21.6965 H   0  0  0  0  0  0
  -26.0184  -38.2885   24.1534 H   0  0  0  0  0  0
  -29.2509  -25.2971   16.5799 H   0  0  0  0  0  0
  -30.5621  -25.4763   20.6546 H   0  0  0  0  0  0
  -32.8919  -20.4665   17.9755 H   0  0  0  0  0  0
  -32.9591  -21.4991   19.3654 H   0  0  0  0  0  0
  -32.1226  -19.8394   20.8160 H   0  0  0  0  0  0
  -32.7669  -18.7552   19.5996 H   0  0  0  0  0  0
  -28.9590  -20.4231   18.6941 H   0  0  0  0  0  0
  -29.6980  -20.9811   20.1815 H   0  0  0  0  0  0
  -30.8514  -20.9549   17.4117 H   0  0  0  0  0  0
  -30.6325  -18.6766   18.4507 H   0  0  0  0  0  0
  -29.5631  -23.4639   15.2489 H   0  0  0  0  0  0
  -29.3010  -21.9437   16.0881 H   0  0  0  0  0  0
  -30.9395  -22.4338   15.6147 H   0  0  0  0  0  0
  -31.3217  -23.6303   21.7994 H   0  0  0  0  0  0
  -32.7022  -23.1843   20.8176 H   0  0  0  0  0  0
  -31.4053  -22.0235   21.1301 H   0  0  0  0  0  0
  -28.6209  -19.4091   21.5842 H   0  0  0  0  0  0
  -30.2463  -19.2306   22.2340 H   0  0  0  0  0  0
  -29.0816  -17.9214   22.3889 H   0  0  0  0  0  0
  -28.4334  -27.0106   17.9902 H   0  0  0  0  0  0
  -29.8438  -27.6330   18.8318 H   0  0  0  0  0  0
  -31.5005  -17.0946   21.4433 H   0  0  0  0  0  0
  -31.4597  -16.8155   19.7245 H   0  0  0  0  0  0
  -29.0082  -17.7701   19.8530 H   0  0  0  0  0  0
  -29.1860  -15.5859   21.1093 H   0  0  0  0  0  0
  1 25  1  0  0  0
  1 30  2  0  0  0
  1 88  1  0  0  0
  2  3  1  0  0  0
  2 25  1  0  0  0
  2 89  1  0  0  0
  2 90  1  0  0  0
  3  4  1  0  0  0
  3 91  1  0  0  0
  3 92  1  0  0  0
  4  5  1  0  0  0
  4 93  1  0  0  0
  4 94  1  0  0  0
  5  6  1  0  0  0
  5 26  1  0  0  0
  5 95  1  0  0  0
  6 25  1  0  0  0
  6 96  1  0  0  0
  6 97  1  0  0  0
  7  8  2  0  0  0
  7 26  1  0  0  0
  7 29  1  0  0  0
  8  9  1  0  0  0
  8 22  1  0  0  0
  9 10  1  0  0  0
  9 27  2  0  0  0
 10 11  2  0  0  0
 10 15  1  0  0  0
 11 12  1  0  0  0
 11 98  1  0  0  0
 12 13  2  0  0  0
 12 99  1  0  0  0
 13 14  1  0  0  0
 13 31  1  0  0  0
 14 15  2  0  0  0
 14100  1  0  0  0
 15101  1  0  0  0
 16 17  2  0  0  0
 16 21  1  0  0  0
 16 31  1  0  0  0
 17 18  1  0  0  0
 17102  1  0  0  0
 18 19  2  0  0  0
 18103  1  0  0  0
 19 20  1  0  0  0
 19 24  1  0  0  0
 20 21  2  0  0  0
 20104  1  0  0  0
 21 23  1  0  0  0
 22 28  1  0  0  0
 22 32  2  0  0  0
 26 27  1  0  0  0
 28105  1  0  0  0
 28106  1  0  0  0
 29107  1  0  0  0
 29108  1  0  0  0
 33 34  1  0  0  0
 33 66  1  0  0  0
 33 70  2  0  0  0
 34 36  1  0  0  0
 34 59  1  0  0  0
 34109  1  0  0  0
 35 44  2  0  0  0
 35 45  1  0  0  0
 35 68  1  0  0  0
 36 56  1  0  0  0
 36110  1  0  0  0
 37 39  1  0  0  0
 37 47  1  0  0  0
 37 66  1  0  0  0
 37111  1  0  0  0
 38 43  2  0  0  0
 38 46  1  0  0  0
 38 47  1  0  0  0
 39 64  1  0  0  0
 39 67  2  0  0  0
 40 52  1  0  0  0
 40 53  2  0  0  0
 40 58  1  0  0  0
 41112  1  0  0  0
 41113  1  0  0  0
 41114  1  0  0  0
 41 48  1  0  0  0
 42 43  1  0  0  0
 42 66  1  0  0  0
 42115  1  0  0  0
 42116  1  0  0  0
 43 44  1  0  0  0
 44117  1  0  0  0
 45 46  2  0  0  0
 45118  1  0  0  0
 46119  1  0  0  0
 47120  1  0  0  0
 47121  1  0  0  0
 48 56  1  0  0  0
 48 65  1  0  0  0
 48122  1  0  0  0
 49 50  1  0  0  0
 49 53  1  0  0  0
 49 64  1  0  0  0
 49123  1  0  0  0
 50 51  1  0  0  0
 50124  1  0  0  0
 50125  1  0  0  0
 51 52  1  0  0  0
 51126  1  0  0  0
 51127  1  0  0  0
 52128  1  0  0  0
 52129  1  0  0  0
 53 54  1  0  0  0
 54 55  2  0  0  0
 54130  1  0  0  0
 55 57  1  0  0  0
 55131  1  0  0  0
 56 69  2  0  0  0
 57 58  2  0  0  0
 57132  1  0  0  0
 58133  1  0  0  0
 59 60  1  0  0  0
 59 61  1  0  0  0
 59 62  1  0  0  0
 60134  1  0  0  0
 60135  1  0  0  0
 60136  1  0  0  0
 61137  1  0  0  0
 61138  1  0  0  0
 61139  1  0  0  0
 62140  1  0  0  0
 62141  1  0  0  0
 62142  1  0  0  0
 63 65  1  0  0  0
 63143  1  0  0  0
 63144  1  0  0  0
 63145  1  0  0  0
 64146  1  0  0  0
 65147  1  0  0  0
 68 85  1  0  0  0
 71 74  2  0  0  0
 71 75  1  0  0  0
 71148  1  0  0  0
 72 74  1  0  0  0
 72 76  2  0  0  0
 72149  1  0  0  0
 73 75  2  0  0  0
 73 76  1  0  0  0
 73 80  1  0  0  0
 74 85  1  0  0  0
 75 82  1  0  0  0
 76 83  1  0  0  0
 77 78  1  0  0  0
 77 80  1  0  0  0
 77150  1  0  0  0
 77151  1  0  0  0
 78152  1  0  0  0
 78153  1  0  0  0
 78 81  1  0  0  0
 79 80  1  0  0  0
 79 81  1  0  0  0
 79154  1  0  0  0
 79155  1  0  0  0
 80156  1  0  0  0
 81 87  1  0  0  0
 81157  1  0  0  0
 82158  1  0  0  0
 82159  1  0  0  0
 82160  1  0  0  0
 83161  1  0  0  0
 83162  1  0  0  0
 83163  1  0  0  0
 84164  1  0  0  0
 84165  1  0  0  0
 84166  1  0  0  0
 84 87  1  0  0  0
 85167  1  0  0  0
 85168  1  0  0  0
 86 87  1  0  0  0
 86 88  1  0  0  0
 86169  1  0  0  0
 86170  1  0  0  0
 87171  1  0  0  0
 88172  1  0  0  0
M  ISO  4   1 100  68 101  85 101  88 100
M  END
> <chiral flag>
0

> <version>
0

> <s_m_source_file>
/data/baiqing/PycharmProjects/Reinvent-master-3.2/result/LINK_invent/BTK/process_docking_weight1_custom_sum_contain_oxygen_bond_distance_aromatic_linkinvent_7_9_3/rearranged_h_0150.sdf

> <i_m_source_file_index>
98

> <r_mmod_Potential_Energy-OPLS-2005>
84.7253799438477

> <r_mmod_Stretch_Energy-OPLS-2005>
36.0038757324219

> <r_mmod_Bend_Energy-OPLS-2005>
140.222808837891

> <r_mmod_Torsional_Energy-OPLS-2005>
316.294586181641

> <r_mmod_Improper_Torsional_Energy-OPLS-2005>
5.55153465270996

> <r_mmod_Van_der_Waal_Energy-OPLS-2005>
166.586029052734

> <r_mmod_Electrostatic_Energy-OPLS-2005>
-404.148193359375

> <r_mmod_Solvation_Energy-OPLS-2005>
-196.089050292969

> <b_mmod_Minimization_Converged-OPLS-2005>
0

> <r_mmod_RMS_Derivative-OPLS-2005>
3.48402118682861

$$$$
