0
                    3D
 Structure written by MMmdl.
180189  0  0  1  0            999 V2000
  -30.6211  -14.8318   20.4246 C   0  0  0  0  0  0
  -30.4313  -12.5144   19.4638 C   0  0  0  0  0  0
  -29.5049  -12.5100   18.2269 C   0  0  0  0  0  0
  -28.0360  -12.3246   18.6514 C   0  0  0  0  0  0
  -27.6329  -13.2449   19.8338 C   0  0  2  0  0  0
  -28.6847  -13.2460   20.9622 C   0  0  0  0  0  0
  -25.2490  -13.8188   20.5669 C   0  0  0  0  0  0
  -24.1802  -13.0412   20.9198 C   0  0  0  0  0  0
  -24.6428  -11.6902   20.8748 C   0  0  0  0  0  0
  -23.9102  -10.4278   21.0417 C   0  0  0  0  0  0
  -24.3652   -9.4202   21.9186 C   0  0  0  0  0  0
  -23.6328   -8.2235   22.0749 C   0  0  0  0  0  0
  -22.4310   -8.0281   21.3536 C   0  0  0  0  0  0
  -21.9946   -9.0256   20.4641 C   0  0  0  0  0  0
  -22.7281  -10.2135   20.3066 C   0  0  0  0  0  0
  -21.6868   -6.0754   22.5293 C   0  0  0  0  0  0
  -21.4010   -6.5652   23.8224 C   0  0  0  0  0  0
  -21.3657   -5.6800   24.9177 C   0  0  0  0  0  0
  -21.6057   -4.3063   24.7228 C   0  0  0  0  0  0
  -21.8821   -3.8160   23.4342 C   0  0  0  0  0  0
  -21.9187   -4.6977   22.3406 C   0  0  0  0  0  0
  -22.7831  -13.5189   21.1865 C   0  0  0  0  0  0
  -22.1668   -4.2171   21.0980 F   0  0  0  0  0  0
  -21.5623   -3.4543   25.7730 F   0  0  0  0  0  0
  -29.9716  -13.6107   20.3531 N   0  0  0  0  0  0
  -26.2915  -12.9427   20.3254 N   0  0  0  0  0  0
  -25.9348  -11.6537   20.5718 N   0  0  0  0  0  0
  -22.0525  -12.8149   22.0451 N   0  0  0  0  0  0
  -25.4108  -15.1914   20.4074 N   0  0  0  0  0  0
  -31.8395  -14.8425   20.2635 O   0  0  0  0  0  0
  -21.6656   -6.8902   21.4253 O   0  0  0  0  0  0
  -22.3494  -14.5496   20.6738 O   0  0  0  0  0  0
  -24.6380  -31.8509   23.1979 C   0  0  0  0  0  0
  -25.9171  -32.4735   23.8346 C   0  0  1  0  0  0
  -27.2206  -27.1970   20.1526 C   0  0  0  0  0  0
  -25.5953  -33.8536   24.2244 N   0  0  0  0  0  0
  -23.4381  -30.4744   21.5409 C   0  0  2  0  0  0
  -24.8883  -28.9149   20.1122 C   0  0  0  0  0  0
  -22.7546  -29.4566   22.4880 C   0  0  0  0  0  0
  -18.0275  -28.1386   22.8475 C   0  0  0  0  0  0
  -24.1478  -36.7271   23.2645 C   0  0  0  0  0  0
  -25.9905  -30.7472   21.3874 C   0  0  0  0  0  0
  -26.0633  -29.3643   20.7276 C   0  0  0  0  0  0
  -27.2296  -28.5195   20.7358 C   0  0  0  0  0  0
  -26.0184  -26.8373   19.4987 C   0  0  0  0  0  0
  -24.8767  -27.6621   19.4847 C   0  0  0  0  0  0
  -23.6647  -29.8150   20.1552 C   0  0  0  0  0  0
  -25.4105  -36.3070   24.0340 C   0  0  1  0  0  0
  -20.5894  -28.3686   23.1264 C   0  0  2  0  0  0
  -20.6759  -26.9382   22.5419 C   0  0  0  0  0  0
  -19.5734  -26.6363   21.5209 C   0  0  0  0  0  0
  -18.1915  -26.7918   22.1627 C   0  0  0  0  0  0
  -19.1546  -28.8849   23.2859 C   0  0  0  0  0  0
  -18.9477  -30.1453   23.8881 C   0  0  0  0  0  0
  -17.6480  -30.6599   24.0556 C   0  0  0  0  0  0
  -25.9060  -34.9438   23.5097 C   0  0  0  0  0  0
  -16.5359  -29.9096   23.6346 C   0  0  0  0  0  0
  -16.7268  -28.6515   23.0359 C   0  0  0  0  0  0
  -26.4495  -31.6593   25.0776 C   0  0  0  0  0  0
  -25.3699  -31.3773   26.1498 C   0  0  0  0  0  0
  -27.0346  -30.3005   24.6315 C   0  0  0  0  0  0
  -27.6052  -32.4340   25.7538 C   0  0  0  0  0  0
  -27.5571  -37.1805   24.8473 C   0  0  0  0  0  0
  -21.4232  -29.3053   22.3671 N   0  0  0  0  0  0
  -26.4277  -37.3790   23.9426 N   0  0  0  0  0  0
  -24.7075  -31.0438   22.0974 N   0  0  0  0  0  0
  -23.4230  -28.8083   23.2967 O   0  0  0  0  0  0
  -28.2859  -26.2427   20.2291 O   0  0  0  0  0  0
  -26.5647  -34.8932   22.4676 O   0  0  0  0  0  0
  -23.5515  -32.1331   23.7267 O   0  0  0  0  0  0
  -30.4741  -19.7075   16.8031 C   0  0  0  0  0  0
  -30.3936  -18.4952   19.3423 C   0  0  0  0  0  0
  -31.5196  -18.8591   17.1735 C   0  0  0  0  0  0
  -29.4695  -20.0763   17.7159 C   0  0  0  0  0  0
  -31.4600  -18.2101   18.4296 C   0  0  0  0  0  0
  -29.6091  -19.7219   19.0965 C   0  0  0  0  0  0
  -29.1050  -18.3084   21.4492 C   0  0  0  0  0  0
  -29.2654  -19.8826   21.4674 C   0  0  0  0  0  0
  -30.1793  -17.5555   20.6040 C   0  0  1  0  0  0
  -32.6085  -17.2809   18.7939 C   0  0  0  0  0  0
  -33.8057  -19.6049   16.3121 C   0  0  0  0  0  0
  -27.7118  -20.1063   15.8179 C   0  0  0  0  0  0
  -29.3845  -23.5212   21.8937 C   0  0  0  0  0  0
  -26.9255  -21.7563   20.6916 C   0  0  0  0  0  0
  -32.6366  -18.6166   16.1589 C   0  0  0  0  0  0
  -28.2360  -20.7556   17.1141 C   0  0  0  0  0  0
  -27.9776  -24.7489   20.0767 C   0  0  0  0  0  0
  -28.9295  -23.4333   20.4272 C   0  0  2  0  0  0
  -28.3223  -21.9301   20.0630 C   0  0  1  0  0  0
  -29.0703  -20.5616   20.1658 N   0  0  0  0  0  0
  -29.8710  -16.0200   20.4611 N   0  0  0  0  0  0
  -31.4681  -12.6496   19.1497 H   0  0  0  0  0  0
  -30.3887  -11.5526   19.9799 H   0  0  0  0  0  0
  -29.7978  -11.7201   17.5316 H   0  0  0  0  0  0
  -29.6115  -13.4474   17.6775 H   0  0  0  0  0  0
  -27.9083  -11.2782   18.9325 H   0  0  0  0  0  0
  -27.3735  -12.4913   17.8034 H   0  0  0  0  0  0
  -27.6020  -14.2541   19.4202 H   0  0  0  0  0  0
  -28.7390  -12.2688   21.4429 H   0  0  0  0  0  0
  -28.4053  -13.9603   21.7394 H   0  0  0  0  0  0
  -25.2809   -9.5666   22.4735 H   0  0  0  0  0  0
  -24.0047   -7.4625   22.7463 H   0  0  0  0  0  0
  -21.0873   -8.8773   19.8949 H   0  0  0  0  0  0
  -22.3747  -10.9660   19.6165 H   0  0  0  0  0  0
  -21.2019   -7.6165   23.9728 H   0  0  0  0  0  0
  -21.1479   -6.0532   25.9083 H   0  0  0  0  0  0
  -22.0605   -2.7618   23.2837 H   0  0  0  0  0  0
  -22.4169  -11.9822   22.4823 H   0  0  0  0  0  0
  -21.1135  -13.1133   22.2654 H   0  0  0  0  0  0
  -24.6322  -15.8315   20.5232 H   0  0  0  0  0  0
  -26.2471  -15.6455   20.0607 H   0  0  0  0  0  0
  -26.7244  -32.5336   23.1091 H   0  0  0  0  0  0
  -25.0093  -33.9648   25.0394 H   0  0  0  0  0  0
  -22.7329  -31.2953   21.3966 H   0  0  0  0  0  0
  -23.3765  -35.9581   23.3302 H   0  0  0  0  0  0
  -24.3569  -36.8909   22.2065 H   0  0  0  0  0  0
  -23.7203  -37.6465   23.6651 H   0  0  0  0  0  0
  -26.1378  -31.5048   20.6168 H   0  0  0  0  0  0
  -26.8641  -30.7956   22.0259 H   0  0  0  0  0  0
  -28.1241  -28.8576   21.2407 H   0  0  0  0  0  0
  -25.9183  -25.8797   19.0123 H   0  0  0  0  0  0
  -23.9799  -27.3108   18.9948 H   0  0  0  0  0  0
  -23.8084  -30.6012   19.4126 H   0  0  0  0  0  0
  -22.7755  -29.2714   19.8310 H   0  0  0  0  0  0
  -25.1281  -36.1923   25.0836 H   0  0  0  0  0  0
  -20.9955  -28.3258   24.1398 H   0  0  0  0  0  0
  -20.5603  -26.2296   23.3641 H   0  0  0  0  0  0
  -21.6624  -26.7345   22.1237 H   0  0  0  0  0  0
  -19.6891  -25.6262   21.1249 H   0  0  0  0  0  0
  -19.6699  -27.3175   20.6737 H   0  0  0  0  0  0
  -17.4175  -26.6654   21.4039 H   0  0  0  0  0  0
  -18.0343  -26.0056   22.9029 H   0  0  0  0  0  0
  -19.7956  -30.7257   24.2259 H   0  0  0  0  0  0
  -17.5046  -31.6282   24.5142 H   0  0  0  0  0  0
  -15.5371  -30.3011   23.7689 H   0  0  0  0  0  0
  -15.8654  -28.0848   22.7087 H   0  0  0  0  0  0
  -24.5912  -30.7051   25.7873 H   0  0  0  0  0  0
  -24.8825  -32.2933   26.4843 H   0  0  0  0  0  0
  -25.8033  -30.9054   27.0325 H   0  0  0  0  0  0
  -26.2961  -29.6771   24.1267 H   0  0  0  0  0  0
  -27.3918  -29.7268   25.4872 H   0  0  0  0  0  0
  -27.8873  -30.4276   23.9649 H   0  0  0  0  0  0
  -27.2680  -33.3666   26.2072 H   0  0  0  0  0  0
  -28.3888  -32.6871   25.0381 H   0  0  0  0  0  0
  -28.0680  -31.8487   26.5498 H   0  0  0  0  0  0
  -28.2601  -38.0095   24.7534 H   0  0  0  0  0  0
  -28.1056  -36.2636   24.6264 H   0  0  0  0  0  0
  -27.2297  -37.1433   25.8881 H   0  0  0  0  0  0
  -20.9402  -29.8901   21.6998 H   0  0  0  0  0  0
  -26.0154  -38.2861   24.1455 H   0  0  0  0  0  0
  -30.4537  -20.0885   15.7927 H   0  0  0  0  0  0
  -28.1146  -18.0753   21.0565 H   0  0  0  0  0  0
  -29.1187  -17.9246   22.4698 H   0  0  0  0  0  0
  -30.2603  -20.1400   21.8328 H   0  0  0  0  0  0
  -28.5695  -20.2969   22.1968 H   0  0  0  0  0  0
  -31.0945  -17.6189   21.1913 H   0  0  0  0  0  0
  -32.6961  -17.1077   19.8621 H   0  0  0  0  0  0
  -33.5615  -17.7270   18.5170 H   0  0  0  0  0  0
  -32.5210  -16.3283   18.2723 H   0  0  0  0  0  0
  -34.6193  -19.3521   15.6308 H   0  0  0  0  0  0
  -34.2147  -19.6021   17.3229 H   0  0  0  0  0  0
  -33.4940  -20.6262   16.0885 H   0  0  0  0  0  0
  -26.8568  -20.6635   15.4335 H   0  0  0  0  0  0
  -27.3797  -19.0835   15.9951 H   0  0  0  0  0  0
  -28.4487  -20.0849   15.0163 H   0  0  0  0  0  0
  -29.9104  -24.4607   22.0707 H   0  0  0  0  0  0
  -30.0698  -22.7140   22.1530 H   0  0  0  0  0  0
  -28.5414  -23.4917   22.5834 H   0  0  0  0  0  0
  -26.2173  -22.4883   20.3033 H   0  0  0  0  0  0
  -26.9531  -21.8767   21.7749 H   0  0  0  0  0  0
  -26.5072  -20.7709   20.4812 H   0  0  0  0  0  0
  -32.2237  -18.7211   15.1540 H   0  0  0  0  0  0
  -32.9934  -17.5881   16.2111 H   0  0  0  0  0  0
  -28.4424  -21.8102   16.9332 H   0  0  0  0  0  0
  -27.4057  -20.6700   17.8134 H   0  0  0  0  0  0
  -27.0602  -24.5945   20.6435 H   0  0  0  0  0  0
  -27.7032  -24.6170   19.0299 H   0  0  0  0  0  0
  -29.8291  -23.5443   19.8213 H   0  0  0  0  0  0
  -28.1248  -22.1072   19.0230 H   0  0  0  0  0  0
  -28.8824  -15.8234   20.4623 H   0  0  0  0  0  0
  1 25  1  0  0  0
  1 30  2  0  0  0
  1 91  1  0  0  0
  2  3  1  0  0  0
  2 25  1  0  0  0
  2 92  1  0  0  0
  2 93  1  0  0  0
  3  4  1  0  0  0
  3 94  1  0  0  0
  3 95  1  0  0  0
  4  5  1  0  0  0
  4 96  1  0  0  0
  4 97  1  0  0  0
  5  6  1  0  0  0
  5 26  1  0  0  0
  5 98  1  0  0  0
  6 25  1  0  0  0
  6 99  1  0  0  0
  6100  1  0  0  0
  7  8  2  0  0  0
  7 26  1  0  0  0
  7 29  1  0  0  0
  8  9  1  0  0  0
  8 22  1  0  0  0
  9 10  1  0  0  0
  9 27  2  0  0  0
 10 11  2  0  0  0
 10 15  1  0  0  0
 11 12  1  0  0  0
 11101  1  0  0  0
 12 13  2  0  0  0
 12102  1  0  0  0
 13 14  1  0  0  0
 13 31  1  0  0  0
 14 15  2  0  0  0
 14103  1  0  0  0
 15104  1  0  0  0
 16 17  2  0  0  0
 16 21  1  0  0  0
 16 31  1  0  0  0
 17 18  1  0  0  0
 17105  1  0  0  0
 18 19  2  0  0  0
 18106  1  0  0  0
 19 20  1  0  0  0
 19 24  1  0  0  0
 20 21  2  0  0  0
 20107  1  0  0  0
 21 23  1  0  0  0
 22 28  1  0  0  0
 22 32  2  0  0  0
 26 27  1  0  0  0
 28108  1  0  0  0
 28109  1  0  0  0
 29110  1  0  0  0
 29111  1  0  0  0
 33 34  1  0  0  0
 33 66  1  0  0  0
 33 70  2  0  0  0
 34 36  1  0  0  0
 34 59  1  0  0  0
 34112  1  0  0  0
 35 44  2  0  0  0
 35 45  1  0  0  0
 35 68  1  0  0  0
 36 56  1  0  0  0
 36113  1  0  0  0
 37 39  1  0  0  0
 37 47  1  0  0  0
 37 66  1  0  0  0
 37114  1  0  0  0
 38 43  2  0  0  0
 38 46  1  0  0  0
 38 47  1  0  0  0
 39 64  1  0  0  0
 39 67  2  0  0  0
 40 52  1  0  0  0
 40 53  2  0  0  0
 40 58  1  0  0  0
 41115  1  0  0  0
 41116  1  0  0  0
 41117  1  0  0  0
 41 48  1  0  0  0
 42 43  1  0  0  0
 42 66  1  0  0  0
 42118  1  0  0  0
 42119  1  0  0  0
 43 44  1  0  0  0
 44120  1  0  0  0
 45 46  2  0  0  0
 45121  1  0  0  0
 46122  1  0  0  0
 47123  1  0  0  0
 47124  1  0  0  0
 48 56  1  0  0  0
 48 65  1  0  0  0
 48125  1  0  0  0
 49 50  1  0  0  0
 49 53  1  0  0  0
 49 64  1  0  0  0
 49126  1  0  0  0
 50 51  1  0  0  0
 50127  1  0  0  0
 50128  1  0  0  0
 51 52  1  0  0  0
 51129  1  0  0  0
 51130  1  0  0  0
 52131  1  0  0  0
 52132  1  0  0  0
 53 54  1  0  0  0
 54 55  2  0  0  0
 54133  1  0  0  0
 55 57  1  0  0  0
 55134  1  0  0  0
 56 69  2  0  0  0
 57 58  2  0  0  0
 57135  1  0  0  0
 58136  1  0  0  0
 59 60  1  0  0  0
 59 61  1  0  0  0
 59 62  1  0  0  0
 60137  1  0  0  0
 60138  1  0  0  0
 60139  1  0  0  0
 61140  1  0  0  0
 61141  1  0  0  0
 61142  1  0  0  0
 62143  1  0  0  0
 62144  1  0  0  0
 62145  1  0  0  0
 63 65  1  0  0  0
 63146  1  0  0  0
 63147  1  0  0  0
 63148  1  0  0  0
 64149  1  0  0  0
 65150  1  0  0  0
 68 87  1  0  0  0
 71 73  2  0  0  0
 71 74  1  0  0  0
 71151  1  0  0  0
 72 75  2  0  0  0
 72 76  1  0  0  0
 72 79  1  0  0  0
 73 75  1  0  0  0
 73 85  1  0  0  0
 74 76  2  0  0  0
 74 86  1  0  0  0
 75 80  1  0  0  0
 76 90  1  0  0  0
 77 78  1  0  0  0
 77 79  1  0  0  0
 77152  1  0  0  0
 77153  1  0  0  0
 78 90  1  0  0  0
 78154  1  0  0  0
 78155  1  0  0  0
 79 91  1  0  0  0
 79156  1  0  0  0
 80157  1  0  0  0
 80158  1  0  0  0
 80159  1  0  0  0
 81 85  1  0  0  0
 81160  1  0  0  0
 81161  1  0  0  0
 81162  1  0  0  0
 82 86  1  0  0  0
 82163  1  0  0  0
 82164  1  0  0  0
 82165  1  0  0  0
 83166  1  0  0  0
 83167  1  0  0  0
 83168  1  0  0  0
 83 88  1  0  0  0
 84169  1  0  0  0
 84170  1  0  0  0
 84171  1  0  0  0
 84 89  1  0  0  0
 85172  1  0  0  0
 85173  1  0  0  0
 86174  1  0  0  0
 86175  1  0  0  0
 87 88  1  0  0  0
 87176  1  0  0  0
 87177  1  0  0  0
 88 89  1  0  0  0
 88178  1  0  0  0
 89 90  1  0  0  0
 89179  1  0  0  0
 91180  1  0  0  0
M  ISO  4   1 100  68 101  87 101  91 100
M  END
> <chiral flag>
0

> <version>
0

> <s_m_source_file>
/data/baiqing/PycharmProjects/Reinvent-master-3.2/result/LINK_invent/BTK/process_docking_weight1_custom_sum_contain_oxygen_bond_distance_aromatic_linkinvent_7_9_3/rearranged_h_0162.sdf

> <i_m_source_file_index>
1

> <r_mmod_Potential_Energy-OPLS-2005>
440.377655029297

> <r_mmod_Stretch_Energy-OPLS-2005>
206.93928527832

> <r_mmod_Bend_Energy-OPLS-2005>
260.529968261719

> <r_mmod_Torsional_Energy-OPLS-2005>
314.154693603516

> <r_mmod_Improper_Torsional_Energy-OPLS-2005>
5.41797733306885

> <r_mmod_Van_der_Waal_Energy-OPLS-2005>
161.422653198242

> <r_mmod_Electrostatic_Energy-OPLS-2005>
-437.060394287109

> <r_mmod_Solvation_Energy-OPLS-2005>
-206.273681640625

> <b_mmod_Minimization_Converged-OPLS-2005>
0

> <r_mmod_RMS_Derivative-OPLS-2005>
3.72285556793213

$$$$
1
                    3D
 Structure written by MMmdl.
165174  0  0  1  0            999 V2000
  -30.7316  -14.6350   20.4817 C   0  0  0  0  0  0
  -30.4058  -12.3992   19.4474 C   0  0  0  0  0  0
  -29.4857  -12.4963   18.2160 C   0  0  0  0  0  0
  -28.0175  -12.3086   18.6378 C   0  0  0  0  0  0
  -27.6315  -13.1995   19.8463 C   0  0  2  0  0  0
  -28.6925  -13.1479   20.9742 C   0  0  0  0  0  0
  -25.2493  -13.8127   20.5737 C   0  0  0  0  0  0
  -24.1760  -13.0406   20.9229 C   0  0  0  0  0  0
  -24.6317  -11.6871   20.8773 C   0  0  0  0  0  0
  -23.9005  -10.4276   21.0429 C   0  0  0  0  0  0
  -24.3581   -9.4202   21.9207 C   0  0  0  0  0  0
  -23.6278   -8.2221   22.0747 C   0  0  0  0  0  0
  -22.4262   -8.0262   21.3537 C   0  0  0  0  0  0
  -21.9887   -9.0227   20.4640 C   0  0  0  0  0  0
  -22.7186  -10.2119   20.3069 C   0  0  0  0  0  0
  -21.6847   -6.0729   22.5283 C   0  0  0  0  0  0
  -21.4011   -6.5630   23.8215 C   0  0  0  0  0  0
  -21.3660   -5.6784   24.9178 C   0  0  0  0  0  0
  -21.6048   -4.3046   24.7226 C   0  0  0  0  0  0
  -21.8822   -3.8139   23.4347 C   0  0  0  0  0  0
  -21.9191   -4.6956   22.3402 C   0  0  0  0  0  0
  -22.7794  -13.5213   21.1885 C   0  0  0  0  0  0
  -22.1663   -4.2143   21.0978 F   0  0  0  0  0  0
  -21.5629   -3.4530   25.7738 F   0  0  0  0  0  0
  -29.9973  -13.4735   20.3807 N   0  0  0  0  0  0
  -26.2878  -12.9257   20.3325 N   0  0  0  0  0  0
  -25.9231  -11.6437   20.5780 N   0  0  0  0  0  0
  -22.0424  -12.8224   22.0441 N   0  0  0  0  0  0
  -25.4204  -15.1863   20.4163 N   0  0  0  0  0  0
  -31.9178  -14.6208   20.1433 O   0  0  0  0  0  0
  -21.6626   -6.8863   21.4241 O   0  0  0  0  0  0
  -22.3502  -14.5527   20.6721 O   0  0  0  0  0  0
  -24.6221  -31.8650   23.2048 C   0  0  0  0  0  0
  -25.9088  -32.4811   23.8370 C   0  0  1  0  0  0
  -27.2334  -27.3708   20.1154 C   0  0  0  0  0  0
  -25.5930  -33.8604   24.2314 N   0  0  0  0  0  0
  -23.4127  -30.4849   21.5478 C   0  0  2  0  0  0
  -24.8620  -28.9414   20.1145 C   0  0  0  0  0  0
  -22.7452  -29.4653   22.4993 C   0  0  0  0  0  0
  -18.0317  -28.1336   22.8482 C   0  0  0  0  0  0
  -24.1481  -36.7301   23.2629 C   0  0  0  0  0  0
  -25.9473  -30.8104   21.3657 C   0  0  0  0  0  0
  -26.0259  -29.4396   20.7142 C   0  0  0  0  0  0
  -27.2171  -28.6646   20.7047 C   0  0  0  0  0  0
  -26.0529  -26.9081   19.4978 C   0  0  0  0  0  0
  -24.8740  -27.6784   19.4990 C   0  0  0  0  0  0
  -23.6251  -29.8129   20.1651 C   0  0  0  0  0  0
  -25.4107  -36.3104   24.0339 C   0  0  1  0  0  0
  -20.5893  -28.3686   23.1327 C   0  0  2  0  0  0
  -20.6833  -26.9429   22.5407 C   0  0  0  0  0  0
  -19.5832  -26.6425   21.5187 C   0  0  0  0  0  0
  -18.2011  -26.7882   22.1622 C   0  0  0  0  0  0
  -19.1541  -28.8831   23.2896 C   0  0  0  0  0  0
  -18.9422  -30.1441   23.8888 C   0  0  0  0  0  0
  -17.6416  -30.6553   24.0518 C   0  0  0  0  0  0
  -25.9051  -34.9469   23.5130 C   0  0  0  0  0  0
  -16.5335  -29.9030   23.6271 C   0  0  0  0  0  0
  -16.7291  -28.6433   23.0330 C   0  0  0  0  0  0
  -26.4485  -31.6596   25.0715 C   0  0  0  0  0  0
  -25.3724  -31.3729   26.1448 C   0  0  0  0  0  0
  -27.0322  -30.3033   24.6105 C   0  0  0  0  0  0
  -27.6066  -32.4310   25.7475 C   0  0  0  0  0  0
  -27.5588  -37.1807   24.8464 C   0  0  0  0  0  0
  -21.4165  -29.3072   22.3750 N   0  0  0  0  0  0
  -26.4295  -37.3798   23.9413 N   0  0  0  0  0  0
  -24.6796  -31.0702   22.0974 N   0  0  0  0  0  0
  -23.4207  -28.8194   23.3053 O   0  0  0  0  0  0
  -28.3554  -26.5476   20.1322 O   0  0  0  0  0  0
  -26.5588  -34.8925   22.4676 O   0  0  0  0  0  0
  -23.5395  -32.1431   23.7391 O   0  0  0  0  0  0
  -27.9490  -22.7494   22.3589 C   0  0  0  0  0  0
  -28.8237  -20.1971   21.6178 C   0  0  0  0  0  0
  -28.6619  -22.6539   21.1512 C   0  0  0  0  0  0
  -29.1239  -21.3362   20.7778 C   0  0  0  0  0  0
  -28.0360  -20.4713   22.7738 C   0  0  0  0  0  0
  -28.5530  -17.8683   20.3346 C   0  0  0  0  0  0
  -30.7651  -18.3837   21.2074 C   0  0  0  0  0  0
  -28.8365  -16.3276   20.4284 C   0  0  0  0  0  0
  -31.0537  -16.8765   21.5170 C   0  0  0  0  0  0
  -29.2827  -18.7000   21.3937 C   0  0  0  0  0  0
  -29.9337  -21.1627   19.5013 C   0  0  0  0  0  0
  -27.5409  -19.4031   23.7395 C   0  0  0  0  0  0
  -28.8893  -23.9730   20.3260 C   0  0  0  0  0  0
  -28.1993  -25.2941   20.8700 C   0  0  0  0  0  0
  -27.6373  -21.7026   23.1319 N   0  0  0  0  0  0
  -30.1712  -15.8413   20.8831 N   0  0  0  0  0  0
  -31.4488  -12.4718   19.1362 H   0  0  0  0  0  0
  -30.3120  -11.4205   19.9222 H   0  0  0  0  0  0
  -29.7607  -11.7464   17.4733 H   0  0  0  0  0  0
  -29.6162  -13.4677   17.7341 H   0  0  0  0  0  0
  -27.8757  -11.2588   18.8938 H   0  0  0  0  0  0
  -27.3566  -12.5068   17.7934 H   0  0  0  0  0  0
  -27.5944  -14.1963   19.4315 H   0  0  0  0  0  0
  -28.7219  -12.1530   21.4213 H   0  0  0  0  0  0
  -28.4438  -13.8283   21.7873 H   0  0  0  0  0  0
  -25.2719   -9.5695   22.4793 H   0  0  0  0  0  0
  -23.9999   -7.4612   22.7460 H   0  0  0  0  0  0
  -21.0825   -8.8735   19.8949 H   0  0  0  0  0  0
  -22.3637  -10.9666   19.6189 H   0  0  0  0  0  0
  -21.2008   -7.6140   23.9715 H   0  0  0  0  0  0
  -21.1482   -6.0514   25.9077 H   0  0  0  0  0  0
  -22.0604   -2.7598   23.2847 H   0  0  0  0  0  0
  -22.4001  -11.9863   22.4841 H   0  0  0  0  0  0
  -21.1050  -13.1278   22.2644 H   0  0  0  0  0  0
  -24.6605  -15.8451   20.5503 H   0  0  0  0  0  0
  -26.2699  -15.6251   20.0888 H   0  0  0  0  0  0
  -26.7172  -32.5493   23.1141 H   0  0  0  0  0  0
  -25.0132  -33.9760   25.0495 H   0  0  0  0  0  0
  -22.7019  -31.3005   21.4033 H   0  0  0  0  0  0
  -23.3762  -35.9619   23.3289 H   0  0  0  0  0  0
  -24.3561  -36.8908   22.2039 H   0  0  0  0  0  0
  -23.7208  -37.6500   23.6638 H   0  0  0  0  0  0
  -26.0615  -31.5708   20.5914 H   0  0  0  0  0  0
  -26.8342  -30.8684   21.9857 H   0  0  0  0  0  0
  -28.1139  -29.0426   21.1752 H   0  0  0  0  0  0
  -26.0380  -25.9360   19.0245 H   0  0  0  0  0  0
  -23.9808  -27.2887   19.0289 H   0  0  0  0  0  0
  -23.7376  -30.5837   19.4026 H   0  0  0  0  0  0
  -22.7478  -29.2336   19.8710 H   0  0  0  0  0  0
  -25.1280  -36.1975   25.0838 H   0  0  0  0  0  0
  -20.9950  -28.3242   24.1467 H   0  0  0  0  0  0
  -20.5730  -26.2302   23.3588 H   0  0  0  0  0  0
  -21.6725  -26.7479   22.1218 H   0  0  0  0  0  0
  -19.7058  -25.6379   21.1147 H   0  0  0  0  0  0
  -19.6752  -27.3306   20.6778 H   0  0  0  0  0  0
  -17.4284  -26.6570   21.4033 H   0  0  0  0  0  0
  -18.0467  -26.0009   22.9019 H   0  0  0  0  0  0
  -19.7890  -30.7257   24.2273 H   0  0  0  0  0  0
  -17.4947  -31.6242   24.5095 H   0  0  0  0  0  0
  -15.5322  -30.2901   23.7565 H   0  0  0  0  0  0
  -15.8719  -28.0712   22.7044 H   0  0  0  0  0  0
  -24.5907  -30.7070   25.7784 H   0  0  0  0  0  0
  -24.8907  -32.2895   26.4867 H   0  0  0  0  0  0
  -25.8053  -30.8920   27.0223 H   0  0  0  0  0  0
  -26.2897  -29.6797   24.1121 H   0  0  0  0  0  0
  -27.4055  -29.7263   25.4574 H   0  0  0  0  0  0
  -27.8734  -30.4360   23.9296 H   0  0  0  0  0  0
  -27.2719  -33.3615   26.2062 H   0  0  0  0  0  0
  -28.3868  -32.6855   25.0292 H   0  0  0  0  0  0
  -28.0738  -31.8416   26.5368 H   0  0  0  0  0  0
  -28.2617  -38.0097   24.7527 H   0  0  0  0  0  0
  -28.1076  -36.2637   24.6281 H   0  0  0  0  0  0
  -27.2294  -37.1433   25.8860 H   0  0  0  0  0  0
  -20.9326  -29.8830   21.6999 H   0  0  0  0  0  0
  -26.0187  -38.2879   24.1426 H   0  0  0  0  0  0
  -27.5851  -23.6880   22.7438 H   0  0  0  0  0  0
  -27.4774  -18.0291   20.4255 H   0  0  0  0  0  0
  -28.8119  -18.2240   19.3378 H   0  0  0  0  0  0
  -31.0929  -18.6316   20.1978 H   0  0  0  0  0  0
  -31.3587  -19.0030   21.8801 H   0  0  0  0  0  0
  -28.6654  -15.9424   19.4253 H   0  0  0  0  0  0
  -28.0910  -15.8988   21.0947 H   0  0  0  0  0  0
  -30.9679  -16.7234   22.5936 H   0  0  0  0  0  0
  -32.1100  -16.7066   21.3038 H   0  0  0  0  0  0
  -29.0683  -18.1816   22.3214 H   0  0  0  0  0  0
  -29.6968  -20.2303   18.9957 H   0  0  0  0  0  0
  -30.9989  -21.1662   19.7278 H   0  0  0  0  0  0
  -29.7424  -21.9553   18.7793 H   0  0  0  0  0  0
  -28.3691  -18.9521   24.2873 H   0  0  0  0  0  0
  -26.9988  -18.6224   23.2069 H   0  0  0  0  0  0
  -26.8558  -19.8176   24.4801 H   0  0  0  0  0  0
  -28.5271  -23.8060   19.3120 H   0  0  0  0  0  0
  -29.9630  -24.1464   20.2449 H   0  0  0  0  0  0
  -28.5957  -25.5019   21.8643 H   0  0  0  0  0  0
  -27.1408  -25.0780   21.0184 H   0  0  0  0  0  0
  1 25  1  0  0  0
  1 30  2  0  0  0
  1 86  1  0  0  0
  2  3  1  0  0  0
  2 25  1  0  0  0
  2 87  1  0  0  0
  2 88  1  0  0  0
  3  4  1  0  0  0
  3 89  1  0  0  0
  3 90  1  0  0  0
  4  5  1  0  0  0
  4 91  1  0  0  0
  4 92  1  0  0  0
  5  6  1  0  0  0
  5 26  1  0  0  0
  5 93  1  0  0  0
  6 25  1  0  0  0
  6 94  1  0  0  0
  6 95  1  0  0  0
  7  8  2  0  0  0
  7 26  1  0  0  0
  7 29  1  0  0  0
  8  9  1  0  0  0
  8 22  1  0  0  0
  9 10  1  0  0  0
  9 27  2  0  0  0
 10 11  2  0  0  0
 10 15  1  0  0  0
 11 12  1  0  0  0
 11 96  1  0  0  0
 12 13  2  0  0  0
 12 97  1  0  0  0
 13 14  1  0  0  0
 13 31  1  0  0  0
 14 15  2  0  0  0
 14 98  1  0  0  0
 15 99  1  0  0  0
 16 17  2  0  0  0
 16 21  1  0  0  0
 16 31  1  0  0  0
 17 18  1  0  0  0
 17100  1  0  0  0
 18 19  2  0  0  0
 18101  1  0  0  0
 19 20  1  0  0  0
 19 24  1  0  0  0
 20 21  2  0  0  0
 20102  1  0  0  0
 21 23  1  0  0  0
 22 28  1  0  0  0
 22 32  2  0  0  0
 26 27  1  0  0  0
 28103  1  0  0  0
 28104  1  0  0  0
 29105  1  0  0  0
 29106  1  0  0  0
 33 34  1  0  0  0
 33 66  1  0  0  0
 33 70  2  0  0  0
 34 36  1  0  0  0
 34 59  1  0  0  0
 34107  1  0  0  0
 35 44  2  0  0  0
 35 45  1  0  0  0
 35 68  1  0  0  0
 36 56  1  0  0  0
 36108  1  0  0  0
 37 39  1  0  0  0
 37 47  1  0  0  0
 37 66  1  0  0  0
 37109  1  0  0  0
 38 43  2  0  0  0
 38 46  1  0  0  0
 38 47  1  0  0  0
 39 64  1  0  0  0
 39 67  2  0  0  0
 40 52  1  0  0  0
 40 53  2  0  0  0
 40 58  1  0  0  0
 41110  1  0  0  0
 41111  1  0  0  0
 41112  1  0  0  0
 41 48  1  0  0  0
 42 43  1  0  0  0
 42 66  1  0  0  0
 42113  1  0  0  0
 42114  1  0  0  0
 43 44  1  0  0  0
 44115  1  0  0  0
 45 46  2  0  0  0
 45116  1  0  0  0
 46117  1  0  0  0
 47118  1  0  0  0
 47119  1  0  0  0
 48 56  1  0  0  0
 48 65  1  0  0  0
 48120  1  0  0  0
 49 50  1  0  0  0
 49 53  1  0  0  0
 49 64  1  0  0  0
 49121  1  0  0  0
 50 51  1  0  0  0
 50122  1  0  0  0
 50123  1  0  0  0
 51 52  1  0  0  0
 51124  1  0  0  0
 51125  1  0  0  0
 52126  1  0  0  0
 52127  1  0  0  0
 53 54  1  0  0  0
 54 55  2  0  0  0
 54128  1  0  0  0
 55 57  1  0  0  0
 55129  1  0  0  0
 56 69  2  0  0  0
 57 58  2  0  0  0
 57130  1  0  0  0
 58131  1  0  0  0
 59 60  1  0  0  0
 59 61  1  0  0  0
 59 62  1  0  0  0
 60132  1  0  0  0
 60133  1  0  0  0
 60134  1  0  0  0
 61135  1  0  0  0
 61136  1  0  0  0
 61137  1  0  0  0
 62138  1  0  0  0
 62139  1  0  0  0
 62140  1  0  0  0
 63 65  1  0  0  0
 63141  1  0  0  0
 63142  1  0  0  0
 63143  1  0  0  0
 64144  1  0  0  0
 65145  1  0  0  0
 68 84  1  0  0  0
 71 73  2  0  0  0
 71 85  1  0  0  0
 71146  1  0  0  0
 72 74  2  0  0  0
 72 75  1  0  0  0
 72 80  1  0  0  0
 73 74  1  0  0  0
 73 83  1  0  0  0
 74 81  1  0  0  0
 75 82  1  0  0  0
 75 85  2  0  0  0
 76 78  1  0  0  0
 76 80  1  0  0  0
 76147  1  0  0  0
 76148  1  0  0  0
 77 79  1  0  0  0
 77 80  1  0  0  0
 77149  1  0  0  0
 77150  1  0  0  0
 78 86  1  0  0  0
 78151  1  0  0  0
 78152  1  0  0  0
 79 86  1  0  0  0
 79153  1  0  0  0
 79154  1  0  0  0
 80155  1  0  0  0
 81156  1  0  0  0
 81157  1  0  0  0
 81158  1  0  0  0
 82159  1  0  0  0
 82160  1  0  0  0
 82161  1  0  0  0
 83 84  1  0  0  0
 83162  1  0  0  0
 83163  1  0  0  0
 84164  1  0  0  0
 84165  1  0  0  0
M  ISO  4   1 100  68 101  84 101  86 100
M  END
> <chiral flag>
0

> <version>
0

> <s_m_source_file>
/data/baiqing/PycharmProjects/Reinvent-master-3.2/result/LINK_invent/BTK/process_docking_weight1_custom_sum_contain_oxygen_bond_distance_aromatic_linkinvent_7_9_3/rearranged_h_0162.sdf

> <i_m_source_file_index>
2

> <r_mmod_Potential_Energy-OPLS-2005>
143.010452270508

> <r_mmod_Stretch_Energy-OPLS-2005>
80.2878341674805

> <r_mmod_Bend_Energy-OPLS-2005>
166.401672363281

> <r_mmod_Torsional_Energy-OPLS-2005>
332.798461914062

> <r_mmod_Improper_Torsional_Energy-OPLS-2005>
2.3200535774231

> <r_mmod_Van_der_Waal_Energy-OPLS-2005>
170.012115478516

> <r_mmod_Electrostatic_Energy-OPLS-2005>
-438.775573730469

> <r_mmod_Solvation_Energy-OPLS-2005>
-215.680480957031

> <b_mmod_Minimization_Converged-OPLS-2005>
0

> <r_mmod_RMS_Derivative-OPLS-2005>
2.35158491134644

$$$$
2
                    3D
 Structure written by MMmdl.
164173  0  0  1  0            999 V2000
  -30.6892  -14.6265   20.5014 C   0  0  0  0  0  0
  -30.4139  -12.3865   19.4627 C   0  0  0  0  0  0
  -29.5030  -12.4995   18.2232 C   0  0  0  0  0  0
  -28.0250  -12.3458   18.6326 C   0  0  0  0  0  0
  -27.6441  -13.2296   19.8515 C   0  0  2  0  0  0
  -28.6868  -13.1307   20.9847 C   0  0  0  0  0  0
  -25.2530  -13.8199   20.5683 C   0  0  0  0  0  0
  -24.1816  -13.0446   20.9195 C   0  0  0  0  0  0
  -24.6400  -11.6922   20.8729 C   0  0  0  0  0  0
  -23.9068  -10.4297   21.0394 C   0  0  0  0  0  0
  -24.3621   -9.4222   21.9184 C   0  0  0  0  0  0
  -23.6306   -8.2243   22.0748 C   0  0  0  0  0  0
  -22.4286   -8.0271   21.3537 C   0  0  0  0  0  0
  -21.9921   -9.0242   20.4634 C   0  0  0  0  0  0
  -22.7241  -10.2130   20.3042 C   0  0  0  0  0  0
  -21.6852   -6.0734   22.5289 C   0  0  0  0  0  0
  -21.4007   -6.5637   23.8226 C   0  0  0  0  0  0
  -21.3675   -5.6786   24.9188 C   0  0  0  0  0  0
  -21.6048   -4.3046   24.7227 C   0  0  0  0  0  0
  -21.8817   -3.8144   23.4346 C   0  0  0  0  0  0
  -21.9194   -4.6963   22.3408 C   0  0  0  0  0  0
  -22.7844  -13.5240   21.1868 C   0  0  0  0  0  0
  -22.1665   -4.2150   21.0979 F   0  0  0  0  0  0
  -21.5643   -3.4527   25.7740 F   0  0  0  0  0  0
  -29.9965  -13.4469   20.4045 N   0  0  0  0  0  0
  -26.2953  -12.9406   20.3286 N   0  0  0  0  0  0
  -25.9334  -11.6544   20.5742 N   0  0  0  0  0  0
  -22.0478  -12.8230   22.0413 N   0  0  0  0  0  0
  -25.4234  -15.1923   20.4106 N   0  0  0  0  0  0
  -31.8804  -14.6636   20.1740 O   0  0  0  0  0  0
  -21.6645   -6.8874   21.4244 O   0  0  0  0  0  0
  -22.3536  -14.5557   20.6730 O   0  0  0  0  0  0
  -24.6223  -31.8626   23.2025 C   0  0  0  0  0  0
  -25.9084  -32.4795   23.8349 C   0  0  1  0  0  0
  -27.2243  -27.3505   20.1183 C   0  0  0  0  0  0
  -25.5910  -33.8593   24.2274 N   0  0  0  0  0  0
  -23.4151  -30.4856   21.5444 C   0  0  2  0  0  0
  -24.8653  -28.9411   20.1117 C   0  0  0  0  0  0
  -22.7452  -29.4642   22.4935 C   0  0  0  0  0  0
  -18.0286  -28.1386   22.8489 C   0  0  0  0  0  0
  -24.1477  -36.7298   23.2640 C   0  0  0  0  0  0
  -25.9529  -30.8031   21.3687 C   0  0  0  0  0  0
  -26.0314  -29.4289   20.7188 C   0  0  0  0  0  0
  -27.2177  -28.6414   20.7206 C   0  0  0  0  0  0
  -26.0463  -26.9032   19.4905 C   0  0  0  0  0  0
  -24.8720  -27.6809   19.4899 C   0  0  0  0  0  0
  -23.6306  -29.8180   20.1597 C   0  0  0  0  0  0
  -25.4108  -36.3095   24.0331 C   0  0  1  0  0  0
  -20.5883  -28.3686   23.1289 C   0  0  2  0  0  0
  -20.6773  -26.9411   22.5416 C   0  0  0  0  0  0
  -19.5753  -26.6385   21.5216 C   0  0  0  0  0  0
  -18.1931  -26.7931   22.1621 C   0  0  0  0  0  0
  -19.1535  -28.8850   23.2892 C   0  0  0  0  0  0
  -18.9467  -30.1448   23.8917 C   0  0  0  0  0  0
  -17.6465  -30.6586   24.0572 C   0  0  0  0  0  0
  -25.9051  -34.9469   23.5104 C   0  0  0  0  0  0
  -16.5355  -29.9098   23.6323 C   0  0  0  0  0  0
  -16.7268  -28.6515   23.0345 C   0  0  0  0  0  0
  -26.4472  -31.6586   25.0700 C   0  0  0  0  0  0
  -25.3701  -31.3732   26.1425 C   0  0  0  0  0  0
  -27.0288  -30.3001   24.6134 C   0  0  0  0  0  0
  -27.6021  -32.4322   25.7492 C   0  0  0  0  0  0
  -27.5581  -37.1797   24.8461 C   0  0  0  0  0  0
  -21.4172  -29.3033   22.3672 N   0  0  0  0  0  0
  -26.4276  -37.3801   23.9427 N   0  0  0  0  0  0
  -24.6826  -31.0662   22.0968 N   0  0  0  0  0  0
  -23.4184  -28.8198   23.3022 O   0  0  0  0  0  0
  -28.3099  -26.4766   20.1222 O   0  0  0  0  0  0
  -26.5632  -34.8936   22.4677 O   0  0  0  0  0  0
  -23.5397  -32.1405   23.7378 O   0  0  0  0  0  0
  -28.7963  -23.3402   19.9885 C   0  0  0  0  0  0
  -29.0762  -21.9365   19.9651 C   0  0  0  0  0  0
  -28.6929  -24.0679   21.2045 C   0  0  0  0  0  0
  -28.8536  -23.3053   22.4061 C   0  0  0  0  0  0
  -29.1310  -21.8973   22.3758 C   0  0  0  0  0  0
  -29.2645  -21.1840   21.1553 C   0  0  0  0  0  0
  -29.4127  -18.0655   19.4026 C   0  0  0  0  0  0
  -28.5872  -17.6240   21.7153 C   0  0  0  0  0  0
  -30.4361  -16.9086   19.6364 C   0  0  0  0  0  0
  -29.6476  -16.4714   21.8310 C   0  0  0  0  0  0
  -28.8659  -18.7571   20.6753 C   0  0  0  0  0  0
  -28.7186  -23.9863   23.7718 C   0  0  0  0  0  0
  -29.3017  -21.1256   23.6815 C   0  0  0  0  0  0
  -28.3864  -25.6149   21.2965 C   0  0  0  0  0  0
  -29.9815  -15.8174   20.5443 N   0  0  0  0  0  0
  -29.7003  -19.8432   21.1743 O   0  0  0  0  0  0
  -31.4620  -12.4680   19.1704 H   0  0  0  0  0  0
  -30.3108  -11.4042   19.9270 H   0  0  0  0  0  0
  -29.7714  -11.7391   17.4885 H   0  0  0  0  0  0
  -29.6549  -13.4638   17.7353 H   0  0  0  0  0  0
  -27.8610  -11.2950   18.8742 H   0  0  0  0  0  0
  -27.3733  -12.5650   17.7865 H   0  0  0  0  0  0
  -27.6496  -14.2596   19.4949 H   0  0  0  0  0  0
  -28.6976  -12.1292   21.4177 H   0  0  0  0  0  0
  -28.4313  -13.8083   21.7969 H   0  0  0  0  0  0
  -25.2752   -9.5719   22.4773 H   0  0  0  0  0  0
  -24.0023   -7.4631   22.7469 H   0  0  0  0  0  0
  -21.0850   -8.8747   19.8934 H   0  0  0  0  0  0
  -22.3690  -10.9661   19.6147 H   0  0  0  0  0  0
  -21.1981   -7.6143   23.9741 H   0  0  0  0  0  0
  -21.1512   -6.0506   25.9102 H   0  0  0  0  0  0
  -22.0585   -2.7599   23.2840 H   0  0  0  0  0  0
  -22.4062  -11.9880   22.4788 H   0  0  0  0  0  0
  -21.1096  -13.1269   22.2596 H   0  0  0  0  0  0
  -24.6513  -15.8441   20.5042 H   0  0  0  0  0  0
  -26.2843  -15.6320   20.1138 H   0  0  0  0  0  0
  -26.7161  -32.5483   23.1109 H   0  0  0  0  0  0
  -25.0037  -33.9743   25.0405 H   0  0  0  0  0  0
  -22.7078  -31.3056   21.4007 H   0  0  0  0  0  0
  -23.3756  -35.9611   23.3280 H   0  0  0  0  0  0
  -24.3578  -36.8944   22.2060 H   0  0  0  0  0  0
  -23.7197  -37.6480   23.6680 H   0  0  0  0  0  0
  -26.0726  -31.5634   20.5954 H   0  0  0  0  0  0
  -26.8374  -30.8596   21.9912 H   0  0  0  0  0  0
  -28.1141  -29.0092   21.2013 H   0  0  0  0  0  0
  -26.0323  -25.9309   19.0189 H   0  0  0  0  0  0
  -23.9789  -27.3010   19.0128 H   0  0  0  0  0  0
  -23.7481  -30.5933   19.4018 H   0  0  0  0  0  0
  -22.7509  -29.2464   19.8581 H   0  0  0  0  0  0
  -25.1284  -36.1937   25.0823 H   0  0  0  0  0  0
  -20.9987  -28.3266   24.1403 H   0  0  0  0  0  0
  -20.5664  -26.2306   23.3620 H   0  0  0  0  0  0
  -21.6644  -26.7449   22.1205 H   0  0  0  0  0  0
  -19.6915  -25.6295   21.1245 H   0  0  0  0  0  0
  -19.6690  -27.3195   20.6744 H   0  0  0  0  0  0
  -17.4204  -26.6686   21.4020 H   0  0  0  0  0  0
  -18.0325  -26.0062   22.9004 H   0  0  0  0  0  0
  -19.7946  -30.7255   24.2292 H   0  0  0  0  0  0
  -17.5029  -31.6260   24.5188 H   0  0  0  0  0  0
  -15.5357  -30.3013   23.7642 H   0  0  0  0  0  0
  -15.8665  -28.0844   22.7051 H   0  0  0  0  0  0
  -24.5871  -30.7090   25.7749 H   0  0  0  0  0  0
  -24.8900  -32.2906   26.4846 H   0  0  0  0  0  0
  -25.8011  -30.8907   27.0200 H   0  0  0  0  0  0
  -26.2834  -29.6778   24.1166 H   0  0  0  0  0  0
  -27.3979  -29.7241   25.4626 H   0  0  0  0  0  0
  -27.8713  -30.4271   23.9333 H   0  0  0  0  0  0
  -27.2599  -33.3605   26.2085 H   0  0  0  0  0  0
  -28.3835  -32.6913   25.0334 H   0  0  0  0  0  0
  -28.0677  -31.8436   26.5406 H   0  0  0  0  0  0
  -28.2573  -38.0121   24.7561 H   0  0  0  0  0  0
  -28.1097  -36.2657   24.6208 H   0  0  0  0  0  0
  -27.2314  -37.1347   25.8866 H   0  0  0  0  0  0
  -20.9346  -29.8735   21.6869 H   0  0  0  0  0  0
  -26.0152  -38.2865   24.1474 H   0  0  0  0  0  0
  -28.6713  -23.8653   19.0523 H   0  0  0  0  0  0
  -29.1842  -21.4411   19.0109 H   0  0  0  0  0  0
  -28.5646  -17.6446   18.8607 H   0  0  0  0  0  0
  -29.8416  -18.8157   18.7373 H   0  0  0  0  0  0
  -28.4051  -18.0589   22.6975 H   0  0  0  0  0  0
  -27.6421  -17.1553   21.4382 H   0  0  0  0  0  0
  -31.3713  -17.3250   20.0184 H   0  0  0  0  0  0
  -30.6810  -16.4823   18.6605 H   0  0  0  0  0  0
  -29.2898  -15.7290   22.5445 H   0  0  0  0  0  0
  -30.5640  -16.8732   22.2670 H   0  0  0  0  0  0
  -27.9046  -19.2082   20.4221 H   0  0  0  0  0  0
  -28.7871  -25.0715   23.7549 H   0  0  0  0  0  0
  -29.5037  -23.6605   24.4537 H   0  0  0  0  0  0
  -27.7565  -23.7318   24.2172 H   0  0  0  0  0  0
  -28.5868  -21.4470   24.4388 H   0  0  0  0  0  0
  -30.3081  -21.2632   24.0757 H   0  0  0  0  0  0
  -29.1398  -20.0576   23.5518 H   0  0  0  0  0  0
  -29.1824  -26.0635   21.8903 H   0  0  0  0  0  0
  -27.4732  -25.7170   21.8866 H   0  0  0  0  0  0
  1 25  1  0  0  0
  1 30  2  0  0  0
  1 85  1  0  0  0
  2  3  1  0  0  0
  2 25  1  0  0  0
  2 87  1  0  0  0
  2 88  1  0  0  0
  3  4  1  0  0  0
  3 89  1  0  0  0
  3 90  1  0  0  0
  4  5  1  0  0  0
  4 91  1  0  0  0
  4 92  1  0  0  0
  5  6  1  0  0  0
  5 26  1  0  0  0
  5 93  1  0  0  0
  6 25  1  0  0  0
  6 94  1  0  0  0
  6 95  1  0  0  0
  7  8  2  0  0  0
  7 26  1  0  0  0
  7 29  1  0  0  0
  8  9  1  0  0  0
  8 22  1  0  0  0
  9 10  1  0  0  0
  9 27  2  0  0  0
 10 11  2  0  0  0
 10 15  1  0  0  0
 11 12  1  0  0  0
 11 96  1  0  0  0
 12 13  2  0  0  0
 12 97  1  0  0  0
 13 14  1  0  0  0
 13 31  1  0  0  0
 14 15  2  0  0  0
 14 98  1  0  0  0
 15 99  1  0  0  0
 16 17  2  0  0  0
 16 21  1  0  0  0
 16 31  1  0  0  0
 17 18  1  0  0  0
 17100  1  0  0  0
 18 19  2  0  0  0
 18101  1  0  0  0
 19 20  1  0  0  0
 19 24  1  0  0  0
 20 21  2  0  0  0
 20102  1  0  0  0
 21 23  1  0  0  0
 22 28  1  0  0  0
 22 32  2  0  0  0
 26 27  1  0  0  0
 28103  1  0  0  0
 28104  1  0  0  0
 29105  1  0  0  0
 29106  1  0  0  0
 33 34  1  0  0  0
 33 66  1  0  0  0
 33 70  2  0  0  0
 34 36  1  0  0  0
 34 59  1  0  0  0
 34107  1  0  0  0
 35 44  2  0  0  0
 35 45  1  0  0  0
 35 68  1  0  0  0
 36 56  1  0  0  0
 36108  1  0  0  0
 37 39  1  0  0  0
 37 47  1  0  0  0
 37 66  1  0  0  0
 37109  1  0  0  0
 38 43  2  0  0  0
 38 46  1  0  0  0
 38 47  1  0  0  0
 39 64  1  0  0  0
 39 67  2  0  0  0
 40 52  1  0  0  0
 40 53  2  0  0  0
 40 58  1  0  0  0
 41110  1  0  0  0
 41111  1  0  0  0
 41112  1  0  0  0
 41 48  1  0  0  0
 42 43  1  0  0  0
 42 66  1  0  0  0
 42113  1  0  0  0
 42114  1  0  0  0
 43 44  1  0  0  0
 44115  1  0  0  0
 45 46  2  0  0  0
 45116  1  0  0  0
 46117  1  0  0  0
 47118  1  0  0  0
 47119  1  0  0  0
 48 56  1  0  0  0
 48 65  1  0  0  0
 48120  1  0  0  0
 49 50  1  0  0  0
 49 53  1  0  0  0
 49 64  1  0  0  0
 49121  1  0  0  0
 50 51  1  0  0  0
 50122  1  0  0  0
 50123  1  0  0  0
 51 52  1  0  0  0
 51124  1  0  0  0
 51125  1  0  0  0
 52126  1  0  0  0
 52127  1  0  0  0
 53 54  1  0  0  0
 54 55  2  0  0  0
 54128  1  0  0  0
 55 57  1  0  0  0
 55129  1  0  0  0
 56 69  2  0  0  0
 57 58  2  0  0  0
 57130  1  0  0  0
 58131  1  0  0  0
 59 60  1  0  0  0
 59 61  1  0  0  0
 59 62  1  0  0  0
 60132  1  0  0  0
 60133  1  0  0  0
 60134  1  0  0  0
 61135  1  0  0  0
 61136  1  0  0  0
 61137  1  0  0  0
 62138  1  0  0  0
 62139  1  0  0  0
 62140  1  0  0  0
 63 65  1  0  0  0
 63141  1  0  0  0
 63142  1  0  0  0
 63143  1  0  0  0
 64144  1  0  0  0
 65145  1  0  0  0
 68 84  1  0  0  0
 71 72  2  0  0  0
 71 73  1  0  0  0
 71146  1  0  0  0
 72 76  1  0  0  0
 72147  1  0  0  0
 73 74  2  0  0  0
 73 84  1  0  0  0
 74 75  1  0  0  0
 74 82  1  0  0  0
 75 76  2  0  0  0
 75 83  1  0  0  0
 76 86  1  0  0  0
 77 79  1  0  0  0
 77 81  1  0  0  0
 77148  1  0  0  0
 77149  1  0  0  0
 78 80  1  0  0  0
 78 81  1  0  0  0
 78150  1  0  0  0
 78151  1  0  0  0
 79 85  1  0  0  0
 79152  1  0  0  0
 79153  1  0  0  0
 80 85  1  0  0  0
 80154  1  0  0  0
 80155  1  0  0  0
 81 86  1  0  0  0
 81156  1  0  0  0
 82157  1  0  0  0
 82158  1  0  0  0
 82159  1  0  0  0
 83160  1  0  0  0
 83161  1  0  0  0
 83162  1  0  0  0
 84163  1  0  0  0
 84164  1  0  0  0
M  ISO  4   1 100  68 101  84 101  85 100
M  END
> <chiral flag>
0

> <version>
0

> <s_m_source_file>
/data/baiqing/PycharmProjects/Reinvent-master-3.2/result/LINK_invent/BTK/process_docking_weight1_custom_sum_contain_oxygen_bond_distance_aromatic_linkinvent_7_9_3/rearranged_h_0162.sdf

> <i_m_source_file_index>
3

> <r_mmod_Potential_Energy-OPLS-2005>
329.400451660156

> <r_mmod_Stretch_Energy-OPLS-2005>
75.5323028564453

> <r_mmod_Bend_Energy-OPLS-2005>
154.781173706055

> <r_mmod_Torsional_Energy-OPLS-2005>
380.873504638672

> <r_mmod_Improper_Torsional_Energy-OPLS-2005>
17.0490589141846

> <r_mmod_Van_der_Waal_Energy-OPLS-2005>
148.813613891602

> <r_mmod_Electrostatic_Energy-OPLS-2005>
-300.040008544922

> <r_mmod_Solvation_Energy-OPLS-2005>
-194.126968383789

> <b_mmod_Minimization_Converged-OPLS-2005>
0

> <r_mmod_RMS_Derivative-OPLS-2005>
1.88900649547577

$$$$
3
                    3D
 Structure written by MMmdl.
164173  0  0  1  0            999 V2000
  -30.6127  -14.6234   20.5111 C   0  0  0  0  0  0
  -30.4449  -12.3848   19.4400 C   0  0  0  0  0  0
  -29.5082  -12.5114   18.2169 C   0  0  0  0  0  0
  -28.0282  -12.3570   18.6258 C   0  0  0  0  0  0
  -27.6562  -13.2121   19.8672 C   0  0  2  0  0  0
  -28.7031  -13.0358   20.9906 C   0  0  0  0  0  0
  -25.2563  -13.8158   20.5678 C   0  0  0  0  0  0
  -24.1832  -13.0429   20.9204 C   0  0  0  0  0  0
  -24.6388  -11.6905   20.8739 C   0  0  0  0  0  0
  -23.9039  -10.4295   21.0405 C   0  0  0  0  0  0
  -24.3598   -9.4213   21.9182 C   0  0  0  0  0  0
  -23.6285   -8.2245   22.0757 C   0  0  0  0  0  0
  -22.4270   -8.0275   21.3545 C   0  0  0  0  0  0
  -21.9894   -9.0238   20.4638 C   0  0  0  0  0  0
  -22.7213  -10.2123   20.3044 C   0  0  0  0  0  0
  -21.6845   -6.0727   22.5280 C   0  0  0  0  0  0
  -21.4009   -6.5636   23.8211 C   0  0  0  0  0  0
  -21.3659   -5.6785   24.9174 C   0  0  0  0  0  0
  -21.6054   -4.3049   24.7228 C   0  0  0  0  0  0
  -21.8814   -3.8140   23.4343 C   0  0  0  0  0  0
  -21.9193   -4.6956   22.3399 C   0  0  0  0  0  0
  -22.7849  -13.5227   21.1859 C   0  0  0  0  0  0
  -22.1659   -4.2142   21.0972 F   0  0  0  0  0  0
  -21.5635   -3.4525   25.7736 F   0  0  0  0  0  0
  -30.0188  -13.3903   20.4324 N   0  0  0  0  0  0
  -26.2998  -12.9330   20.3327 N   0  0  0  0  0  0
  -25.9318  -11.6492   20.5744 N   0  0  0  0  0  0
  -22.0469  -12.8231   22.0397 N   0  0  0  0  0  0
  -25.4256  -15.1873   20.4086 N   0  0  0  0  0  0
  -31.7714  -14.8063   20.1234 O   0  0  0  0  0  0
  -21.6639   -6.8868   21.4242 O   0  0  0  0  0  0
  -22.3545  -14.5539   20.6701 O   0  0  0  0  0  0
  -24.6249  -31.8615   23.2033 C   0  0  0  0  0  0
  -25.9095  -32.4784   23.8359 C   0  0  1  0  0  0
  -27.2194  -27.3244   20.1096 C   0  0  0  0  0  0
  -25.5920  -33.8581   24.2288 N   0  0  0  0  0  0
  -23.4183  -30.4877   21.5448 C   0  0  2  0  0  0
  -24.8628  -28.9498   20.1055 C   0  0  0  0  0  0
  -22.7469  -29.4625   22.4899 C   0  0  0  0  0  0
  -18.0276  -28.1403   22.8508 C   0  0  0  0  0  0
  -24.1462  -36.7264   23.2646 C   0  0  0  0  0  0
  -25.9607  -30.7889   21.3801 C   0  0  0  0  0  0
  -26.0310  -29.4192   20.7209 C   0  0  0  0  0  0
  -27.2086  -28.6160   20.7204 C   0  0  0  0  0  0
  -26.0329  -26.9218   19.4504 C   0  0  0  0  0  0
  -24.8661  -27.7044   19.4636 C   0  0  0  0  0  0
  -23.6327  -29.8310   20.1566 C   0  0  0  0  0  0
  -25.4099  -36.3080   24.0338 C   0  0  1  0  0  0
  -20.5878  -28.3684   23.1273 C   0  0  2  0  0  0
  -20.6755  -26.9400   22.5402 C   0  0  0  0  0  0
  -19.5715  -26.6386   21.5210 C   0  0  0  0  0  0
  -18.1904  -26.7959   22.1625 C   0  0  0  0  0  0
  -19.1539  -28.8862   23.2890 C   0  0  0  0  0  0
  -18.9476  -30.1476   23.8887 C   0  0  0  0  0  0
  -17.6487  -30.6613   24.0577 C   0  0  0  0  0  0
  -25.9053  -34.9461   23.5120 C   0  0  0  0  0  0
  -16.5368  -29.9122   23.6344 C   0  0  0  0  0  0
  -16.7271  -28.6530   23.0375 C   0  0  0  0  0  0
  -26.4479  -31.6591   25.0724 C   0  0  0  0  0  0
  -25.3714  -31.3730   26.1449 C   0  0  0  0  0  0
  -27.0329  -30.3033   24.6162 C   0  0  0  0  0  0
  -27.6043  -32.4322   25.7493 C   0  0  0  0  0  0
  -27.5562  -37.1787   24.8479 C   0  0  0  0  0  0
  -21.4178  -29.3046   22.3663 N   0  0  0  0  0  0
  -26.4272  -37.3784   23.9427 N   0  0  0  0  0  0
  -24.6862  -31.0625   22.0993 N   0  0  0  0  0  0
  -23.4197  -28.8140   23.2955 O   0  0  0  0  0  0
  -28.3324  -26.4713   20.1807 O   0  0  0  0  0  0
  -26.5614  -34.8946   22.4683 O   0  0  0  0  0  0
  -23.5414  -32.1410   23.7372 O   0  0  0  0  0  0
  -30.9529  -19.2944   20.4524 C   0  0  0  0  0  0
  -28.6233  -19.2700   21.0425 C   0  0  0  0  0  0
  -30.9854  -17.8661   20.4574 C   0  0  0  0  0  0
  -28.6544  -17.8448   21.0509 C   0  0  0  0  0  0
  -29.7820  -20.0389   20.7688 C   0  0  0  0  0  0
  -29.8360  -17.0994   20.7819 C   0  0  0  0  0  0
  -29.3594  -21.6668   23.4135 C   0  0  0  0  0  0
  -28.7287  -23.5431   21.9125 C   0  0  0  0  0  0
  -29.8433  -21.6101   20.9341 C   0  0  1  0  0  0
  -29.1197  -23.9515   20.4807 C   0  0  1  0  0  0
  -29.2316  -22.5305   19.8201 C   0  0  1  0  0  0
  -28.5255  -22.2998   24.5274 C   0  0  0  0  0  0
  -30.0391  -22.5180   18.5107 C   0  0  0  0  0  0
  -28.1641  -25.0430   19.8317 C   0  0  0  0  0  0
  -29.2686  -22.1894   22.1670 N   0  0  0  0  0  0
  -29.7750  -15.6411   20.8807 N   0  0  0  0  0  0
  -30.0536  -20.6863   23.6912 O   0  0  0  0  0  0
  -31.4830  -12.5235   19.1357 H   0  0  0  0  0  0
  -30.3906  -11.3817   19.8651 H   0  0  0  0  0  0
  -29.7671  -11.7658   17.4634 H   0  0  0  0  0  0
  -29.6554  -13.4842   17.7443 H   0  0  0  0  0  0
  -27.8515  -11.3021   18.8351 H   0  0  0  0  0  0
  -27.3774  -12.6110   17.7877 H   0  0  0  0  0  0
  -27.6800  -14.2536   19.5472 H   0  0  0  0  0  0
  -28.7135  -12.0011   21.3403 H   0  0  0  0  0  0
  -28.4532  -13.6366   21.8666 H   0  0  0  0  0  0
  -25.2741   -9.5694   22.4763 H   0  0  0  0  0  0
  -23.9993   -7.4631   22.7472 H   0  0  0  0  0  0
  -21.0836   -8.8736   19.8941 H   0  0  0  0  0  0
  -22.3666  -10.9653   19.6152 H   0  0  0  0  0  0
  -21.1991   -7.6144   23.9708 H   0  0  0  0  0  0
  -21.1492   -6.0519   25.9074 H   0  0  0  0  0  0
  -22.0597   -2.7605   23.2837 H   0  0  0  0  0  0
  -22.4066  -11.9894   22.4821 H   0  0  0  0  0  0
  -21.1075  -13.1258   22.2552 H   0  0  0  0  0  0
  -24.6547  -15.8354   20.5221 H   0  0  0  0  0  0
  -26.2507  -15.6220   20.0169 H   0  0  0  0  0  0
  -26.7165  -32.5427   23.1101 H   0  0  0  0  0  0
  -25.0082  -33.9736   25.0445 H   0  0  0  0  0  0
  -22.7132  -31.3094   21.4061 H   0  0  0  0  0  0
  -23.3763  -35.9558   23.3323 H   0  0  0  0  0  0
  -24.3567  -36.8866   22.2061 H   0  0  0  0  0  0
  -23.7175  -37.6459   23.6653 H   0  0  0  0  0  0
  -26.1015  -31.5510   20.6126 H   0  0  0  0  0  0
  -26.8404  -30.8312   22.0106 H   0  0  0  0  0  0
  -28.0989  -28.9700   21.2216 H   0  0  0  0  0  0
  -25.9667  -25.9873   18.9152 H   0  0  0  0  0  0
  -23.9756  -27.3451   18.9649 H   0  0  0  0  0  0
  -23.7596  -30.6146   19.4063 H   0  0  0  0  0  0
  -22.7498  -29.2681   19.8455 H   0  0  0  0  0  0
  -25.1281  -36.1918   25.0831 H   0  0  0  0  0  0
  -20.9989  -28.3245   24.1383 H   0  0  0  0  0  0
  -20.5627  -26.2290   23.3607 H   0  0  0  0  0  0
  -21.6621  -26.7409   22.1189 H   0  0  0  0  0  0
  -19.6857  -25.6292   21.1241 H   0  0  0  0  0  0
  -19.6660  -27.3198   20.6744 H   0  0  0  0  0  0
  -17.4165  -26.6724   21.4038 H   0  0  0  0  0  0
  -18.0303  -26.0124   22.9030 H   0  0  0  0  0  0
  -19.7963  -30.7303   24.2225 H   0  0  0  0  0  0
  -17.5058  -31.6298   24.5184 H   0  0  0  0  0  0
  -15.5377  -30.3040   23.7710 H   0  0  0  0  0  0
  -15.8655  -28.0871   22.7095 H   0  0  0  0  0  0
  -24.5882  -30.7076   25.7778 H   0  0  0  0  0  0
  -24.8897  -32.2899   26.4863 H   0  0  0  0  0  0
  -25.8045  -30.8911   27.0223 H   0  0  0  0  0  0
  -26.2889  -29.6776   24.1215 H   0  0  0  0  0  0
  -27.4108  -29.7276   25.4619 H   0  0  0  0  0  0
  -27.8721  -30.4381   23.9340 H   0  0  0  0  0  0
  -27.2663  -33.3642   26.2049 H   0  0  0  0  0  0
  -28.3866  -32.6855   25.0317 H   0  0  0  0  0  0
  -28.0694  -31.8447   26.5421 H   0  0  0  0  0  0
  -28.2592  -38.0077   24.7556 H   0  0  0  0  0  0
  -28.1056  -36.2620   24.6279 H   0  0  0  0  0  0
  -27.2303  -37.1399   25.8891 H   0  0  0  0  0  0
  -20.9331  -29.8811   21.6925 H   0  0  0  0  0  0
  -26.0149  -38.2845   24.1488 H   0  0  0  0  0  0
  -31.8697  -19.8260   20.2415 H   0  0  0  0  0  0
  -27.7006  -19.7715   21.2975 H   0  0  0  0  0  0
  -31.9225  -17.3737   20.2392 H   0  0  0  0  0  0
  -27.7418  -17.3188   21.2958 H   0  0  0  0  0  0
  -27.6441  -23.5158   22.0289 H   0  0  0  0  0  0
  -29.1155  -24.2752   22.6237 H   0  0  0  0  0  0
  -30.9047  -21.8550   21.0015 H   0  0  0  0  0  0
  -30.1258  -24.3735   20.5082 H   0  0  0  0  0  0
  -28.2207  -22.1782   19.6063 H   0  0  0  0  0  0
  -28.8448  -23.3223   24.7234 H   0  0  0  0  0  0
  -28.6260  -21.7375   25.4560 H   0  0  0  0  0  0
  -27.4692  -22.3066   24.2550 H   0  0  0  0  0  0
  -31.0427  -22.9188   18.6615 H   0  0  0  0  0  0
  -29.5536  -23.1155   17.7392 H   0  0  0  0  0  0
  -30.1455  -21.5037   18.1219 H   0  0  0  0  0  0
  -27.1566  -24.7039   20.0733 H   0  0  0  0  0  0
  -28.2467  -24.9782   18.7457 H   0  0  0  0  0  0
  -28.8779  -15.2884   21.1759 H   0  0  0  0  0  0
  1 25  1  0  0  0
  1 30  2  0  0  0
  1 86  1  0  0  0
  2  3  1  0  0  0
  2 25  1  0  0  0
  2 88  1  0  0  0
  2 89  1  0  0  0
  3  4  1  0  0  0
  3 90  1  0  0  0
  3 91  1  0  0  0
  4  5  1  0  0  0
  4 92  1  0  0  0
  4 93  1  0  0  0
  5  6  1  0  0  0
  5 26  1  0  0  0
  5 94  1  0  0  0
  6 25  1  0  0  0
  6 95  1  0  0  0
  6 96  1  0  0  0
  7  8  2  0  0  0
  7 26  1  0  0  0
  7 29  1  0  0  0
  8  9  1  0  0  0
  8 22  1  0  0  0
  9 10  1  0  0  0
  9 27  2  0  0  0
 10 11  2  0  0  0
 10 15  1  0  0  0
 11 12  1  0  0  0
 11 97  1  0  0  0
 12 13  2  0  0  0
 12 98  1  0  0  0
 13 14  1  0  0  0
 13 31  1  0  0  0
 14 15  2  0  0  0
 14 99  1  0  0  0
 15100  1  0  0  0
 16 17  2  0  0  0
 16 21  1  0  0  0
 16 31  1  0  0  0
 17 18  1  0  0  0
 17101  1  0  0  0
 18 19  2  0  0  0
 18102  1  0  0  0
 19 20  1  0  0  0
 19 24  1  0  0  0
 20 21  2  0  0  0
 20103  1  0  0  0
 21 23  1  0  0  0
 22 28  1  0  0  0
 22 32  2  0  0  0
 26 27  1  0  0  0
 28104  1  0  0  0
 28105  1  0  0  0
 29106  1  0  0  0
 29107  1  0  0  0
 33 34  1  0  0  0
 33 66  1  0  0  0
 33 70  2  0  0  0
 34 36  1  0  0  0
 34 59  1  0  0  0
 34108  1  0  0  0
 35 44  2  0  0  0
 35 45  1  0  0  0
 35 68  1  0  0  0
 36 56  1  0  0  0
 36109  1  0  0  0
 37 39  1  0  0  0
 37 47  1  0  0  0
 37 66  1  0  0  0
 37110  1  0  0  0
 38 43  2  0  0  0
 38 46  1  0  0  0
 38 47  1  0  0  0
 39 64  1  0  0  0
 39 67  2  0  0  0
 40 52  1  0  0  0
 40 53  2  0  0  0
 40 58  1  0  0  0
 41111  1  0  0  0
 41112  1  0  0  0
 41113  1  0  0  0
 41 48  1  0  0  0
 42 43  1  0  0  0
 42 66  1  0  0  0
 42114  1  0  0  0
 42115  1  0  0  0
 43 44  1  0  0  0
 44116  1  0  0  0
 45 46  2  0  0  0
 45117  1  0  0  0
 46118  1  0  0  0
 47119  1  0  0  0
 47120  1  0  0  0
 48 56  1  0  0  0
 48 65  1  0  0  0
 48121  1  0  0  0
 49 50  1  0  0  0
 49 53  1  0  0  0
 49 64  1  0  0  0
 49122  1  0  0  0
 50 51  1  0  0  0
 50123  1  0  0  0
 50124  1  0  0  0
 51 52  1  0  0  0
 51125  1  0  0  0
 51126  1  0  0  0
 52127  1  0  0  0
 52128  1  0  0  0
 53 54  1  0  0  0
 54 55  2  0  0  0
 54129  1  0  0  0
 55 57  1  0  0  0
 55130  1  0  0  0
 56 69  2  0  0  0
 57 58  2  0  0  0
 57131  1  0  0  0
 58132  1  0  0  0
 59 60  1  0  0  0
 59 61  1  0  0  0
 59 62  1  0  0  0
 60133  1  0  0  0
 60134  1  0  0  0
 60135  1  0  0  0
 61136  1  0  0  0
 61137  1  0  0  0
 61138  1  0  0  0
 62139  1  0  0  0
 62140  1  0  0  0
 62141  1  0  0  0
 63 65  1  0  0  0
 63142  1  0  0  0
 63143  1  0  0  0
 63144  1  0  0  0
 64145  1  0  0  0
 65146  1  0  0  0
 68 84  1  0  0  0
 71 73  2  0  0  0
 71 75  1  0  0  0
 71147  1  0  0  0
 72 74  1  0  0  0
 72 75  2  0  0  0
 72148  1  0  0  0
 73 76  1  0  0  0
 73149  1  0  0  0
 74 76  2  0  0  0
 74150  1  0  0  0
 75 79  1  0  0  0
 76 86  1  0  0  0
 77 82  1  0  0  0
 77 85  1  0  0  0
 77 87  2  0  0  0
 78 80  1  0  0  0
 78 85  1  0  0  0
 78151  1  0  0  0
 78152  1  0  0  0
 79 81  1  0  0  0
 79 85  1  0  0  0
 79153  1  0  0  0
 80 81  1  0  0  0
 80 84  1  0  0  0
 80154  1  0  0  0
 81 83  1  0  0  0
 81155  1  0  0  0
 82156  1  0  0  0
 82157  1  0  0  0
 82158  1  0  0  0
 83159  1  0  0  0
 83160  1  0  0  0
 83161  1  0  0  0
 84162  1  0  0  0
 84163  1  0  0  0
 86164  1  0  0  0
M  ISO  4   1 100  68 101  84 101  86 100
M  END
> <chiral flag>
0

> <version>
0

> <s_m_source_file>
/data/baiqing/PycharmProjects/Reinvent-master-3.2/result/LINK_invent/BTK/process_docking_weight1_custom_sum_contain_oxygen_bond_distance_aromatic_linkinvent_7_9_3/rearranged_h_0162.sdf

> <i_m_source_file_index>
4

> <r_mmod_Potential_Energy-OPLS-2005>
118.669044494629

> <r_mmod_Stretch_Energy-OPLS-2005>
75.6915054321289

> <r_mmod_Bend_Energy-OPLS-2005>
168.118225097656

> <r_mmod_Torsional_Energy-OPLS-2005>
287.940887451172

> <r_mmod_Improper_Torsional_Energy-OPLS-2005>
5.0659441947937

> <r_mmod_Van_der_Waal_Energy-OPLS-2005>
144.176376342773

> <r_mmod_Electrostatic_Energy-OPLS-2005>
-379.274230957031

> <r_mmod_Solvation_Energy-OPLS-2005>
-229.293548583984

> <b_mmod_Minimization_Converged-OPLS-2005>
0

> <r_mmod_RMS_Derivative-OPLS-2005>
2.6216824054718

$$$$
4
                    3D
 Structure written by MMmdl.
169178  0  0  1  0            999 V2000
  -30.6565  -15.0615   20.6095 C   0  0  0  0  0  0
  -30.4405  -12.7280   19.5853 C   0  0  0  0  0  0
  -29.5341  -12.5560   18.3415 C   0  0  0  0  0  0
  -28.0991  -12.2778   18.7806 C   0  0  0  0  0  0
  -27.6289  -13.2638   19.8680 C   0  0  2  0  0  0
  -28.6595  -13.4138   21.0148 C   0  0  0  0  0  0
  -25.2445  -13.8238   20.5799 C   0  0  0  0  0  0
  -24.1751  -13.0466   20.9258 C   0  0  0  0  0  0
  -24.6430  -11.6959   20.8791 C   0  0  0  0  0  0
  -23.9055  -10.4298   21.0421 C   0  0  0  0  0  0
  -24.3583   -9.4191   21.9170 C   0  0  0  0  0  0
  -23.6267   -8.2222   22.0742 C   0  0  0  0  0  0
  -22.4250   -8.0245   21.3563 C   0  0  0  0  0  0
  -21.9894   -9.0211   20.4642 C   0  0  0  0  0  0
  -22.7229  -10.2106   20.3052 C   0  0  0  0  0  0
  -21.6835   -6.0720   22.5283 C   0  0  0  0  0  0
  -21.4010   -6.5633   23.8214 C   0  0  0  0  0  0
  -21.3664   -5.6794   24.9175 C   0  0  0  0  0  0
  -21.6048   -4.3055   24.7232 C   0  0  0  0  0  0
  -21.8815   -3.8138   23.4347 C   0  0  0  0  0  0
  -21.9182   -4.6950   22.3401 C   0  0  0  0  0  0
  -22.7758  -13.5208   21.1912 C   0  0  0  0  0  0
  -22.1653   -4.2134   21.0984 F   0  0  0  0  0  0
  -21.5626   -3.4534   25.7747 F   0  0  0  0  0  0
  -29.9433  -13.8524   20.4474 N   0  0  0  0  0  0
  -26.2875  -12.9464   20.3438 N   0  0  0  0  0  0
  -25.9380  -11.6612   20.5849 N   0  0  0  0  0  0
  -22.0389  -12.8205   22.0425 N   0  0  0  0  0  0
  -25.4216  -15.1933   20.4280 N   0  0  0  0  0  0
  -31.8535  -15.0075   20.3094 O   0  0  0  0  0  0
  -21.6630   -6.8843   21.4241 O   0  0  0  0  0  0
  -22.3450  -14.5467   20.6680 O   0  0  0  0  0  0
  -24.6407  -31.8602   23.2131 C   0  0  0  0  0  0
  -25.9054  -32.5006   23.8556 C   0  0  1  0  0  0
  -27.2423  -27.2935   20.1863 C   0  0  0  0  0  0
  -25.5737  -33.8931   24.2463 N   0  0  0  0  0  0
  -23.4666  -30.4358   21.5572 C   0  0  2  0  0  0
  -24.9121  -28.9334   20.1133 C   0  0  0  0  0  0
  -22.7682  -29.4216   22.5107 C   0  0  0  0  0  0
  -18.0328  -28.1411   22.8485 C   0  0  0  0  0  0
  -24.1354  -36.7376   23.2636 C   0  0  0  0  0  0
  -26.0067  -30.7946   21.4029 C   0  0  0  0  0  0
  -26.0670  -29.4123   20.7503 C   0  0  0  0  0  0
  -27.2553  -28.6157   20.7490 C   0  0  0  0  0  0
  -26.1210  -26.9941   19.3828 C   0  0  0  0  0  0
  -24.9717  -27.7601   19.3770 C   0  0  0  0  0  0
  -23.6767  -29.7856   20.1718 C   0  0  0  0  0  0
  -25.4020  -36.3419   24.0501 C   0  0  1  0  0  0
  -20.5839  -28.3620   23.1433 C   0  0  2  0  0  0
  -20.6704  -26.9379   22.5414 C   0  0  0  0  0  0
  -19.5699  -26.6358   21.5182 C   0  0  0  0  0  0
  -18.1887  -26.7936   22.1573 C   0  0  0  0  0  0
  -19.1588  -28.8872   23.2889 C   0  0  0  0  0  0
  -18.9486  -30.1430   23.8949 C   0  0  0  0  0  0
  -17.6494  -30.6562   24.0571 C   0  0  0  0  0  0
  -25.9042  -34.9744   23.5304 C   0  0  0  0  0  0
  -16.5374  -29.9116   23.6244 C   0  0  0  0  0  0
  -16.7317  -28.6531   23.0295 C   0  0  0  0  0  0
  -26.4454  -31.6791   25.0930 C   0  0  0  0  0  0
  -25.3811  -31.3893   26.1812 C   0  0  0  0  0  0
  -27.0051  -30.3320   24.5836 C   0  0  0  0  0  0
  -27.5985  -32.4381   25.7919 C   0  0  0  0  0  0
  -27.5512  -37.1878   24.8451 C   0  0  0  0  0  0
  -21.4392  -29.3062   22.4101 N   0  0  0  0  0  0
  -26.4192  -37.3986   23.9494 N   0  0  0  0  0  0
  -24.7143  -31.0529   22.1013 N   0  0  0  0  0  0
  -23.4257  -28.8005   23.3447 O   0  0  0  0  0  0
  -28.2133  -26.2574   20.4300 O   0  0  0  0  0  0
  -26.5526  -34.9052   22.4857 O   0  0  0  0  0  0
  -23.5421  -32.1415   23.7242 O   0  0  0  0  0  0
  -29.4208  -19.6750   21.3980 C   0  0  0  0  0  0
  -30.7254  -19.1130   21.6179 C   0  0  0  0  0  0
  -29.1119  -21.1456   21.6938 C   0  0  0  0  0  0
  -31.7257  -20.0857   21.9703 C   0  0  0  0  0  0
  -30.1175  -21.8742   22.3954 C   0  0  0  0  0  0
  -31.4559  -21.4298   22.3769 C   0  0  0  0  0  0
  -28.4304  -18.5257   21.0293 C   0  0  0  0  0  0
  -31.0749  -17.5311   21.4408 C   0  0  0  0  0  0
  -28.9270  -17.0796   20.4292 C   0  0  1  0  0  0
  -33.1804  -19.7148   21.8816 C   0  0  0  0  0  0
  -29.7841  -23.1481   23.1909 C   0  0  0  0  0  0
  -32.5611  -22.4411   22.7666 C   0  0  0  0  0  0
  -29.2011  -17.1575   18.9302 C   0  0  0  0  0  0
  -27.8252  -21.9844   21.2869 C   0  0  0  0  0  0
  -27.5964  -23.6078   21.4472 C   0  0  0  0  0  0
  -27.8078  -24.7786   20.3091 C   0  0  0  0  0  0
  -30.1226  -16.3834   21.0229 N   0  0  0  0  0  0
  -31.4810  -12.8618   19.2827 H   0  0  0  0  0  0
  -30.4692  -11.8235   20.1969 H   0  0  0  0  0  0
  -29.9147  -11.7554   17.7151 H   0  0  0  0  0  0
  -29.5657  -13.4599   17.7492 H   0  0  0  0  0  0
  -28.0882  -11.2635   19.1931 H   0  0  0  0  0  0
  -27.4251  -12.2584   17.9327 H   0  0  0  0  0  0
  -27.5696  -14.2271   19.3640 H   0  0  0  0  0  0
  -28.8047  -12.4727   21.5509 H   0  0  0  0  0  0
  -28.3135  -14.1382   21.7570 H   0  0  0  0  0  0
  -25.2698   -9.5668   22.4800 H   0  0  0  0  0  0
  -23.9965   -7.4595   22.7475 H   0  0  0  0  0  0
  -21.0798   -8.8718   19.8924 H   0  0  0  0  0  0
  -22.3635  -10.9648   19.6169 H   0  0  0  0  0  0
  -21.2017   -7.6139   23.9713 H   0  0  0  0  0  0
  -21.1499   -6.0521   25.9076 H   0  0  0  0  0  0
  -22.0592   -2.7600   23.2859 H   0  0  0  0  0  0
  -22.4007  -11.9880   22.4850 H   0  0  0  0  0  0
  -21.1022  -13.1236   22.2645 H   0  0  0  0  0  0
  -24.6587  -15.8581   20.5294 H   0  0  0  0  0  0
  -26.2774  -15.6181   20.1168 H   0  0  0  0  0  0
  -26.7102  -32.5749   23.1283 H   0  0  0  0  0  0
  -25.0033  -33.9959   25.0691 H   0  0  0  0  0  0
  -22.7603  -31.2581   21.4067 H   0  0  0  0  0  0
  -23.3752  -35.9485   23.3332 H   0  0  0  0  0  0
  -24.3470  -36.8977   22.1965 H   0  0  0  0  0  0
  -23.6787  -37.6522   23.6594 H   0  0  0  0  0  0
  -26.0784  -31.5369   20.6194 H   0  0  0  0  0  0
  -26.9373  -30.8973   21.9538 H   0  0  0  0  0  0
  -28.1545  -28.9769   21.2117 H   0  0  0  0  0  0
  -26.1653  -26.1246   18.7437 H   0  0  0  0  0  0
  -24.1836  -27.4437   18.7055 H   0  0  0  0  0  0
  -23.8115  -30.5690   19.4236 H   0  0  0  0  0  0
  -22.8186  -29.1889   19.8543 H   0  0  0  0  0  0
  -25.1041  -36.2458   25.0974 H   0  0  0  0  0  0
  -20.9863  -28.2934   24.1554 H   0  0  0  0  0  0
  -20.5385  -26.2179   23.3563 H   0  0  0  0  0  0
  -21.6550  -26.7193   22.1274 H   0  0  0  0  0  0
  -19.6769  -25.6248   21.1273 H   0  0  0  0  0  0
  -19.6651  -27.3064   20.6663 H   0  0  0  0  0  0
  -17.4077  -26.6704   21.4021 H   0  0  0  0  0  0
  -18.0288  -26.0109   22.9004 H   0  0  0  0  0  0
  -19.7958  -30.7214   24.2335 H   0  0  0  0  0  0
  -17.5060  -31.6233   24.5200 H   0  0  0  0  0  0
  -15.5365  -30.3052   23.7620 H   0  0  0  0  0  0
  -15.8675  -28.0915   22.6981 H   0  0  0  0  0  0
  -24.5935  -30.7061   25.8570 H   0  0  0  0  0  0
  -24.8940  -32.2940   26.5373 H   0  0  0  0  0  0
  -25.8403  -30.9298   27.0592 H   0  0  0  0  0  0
  -26.2538  -29.7632   24.0414 H   0  0  0  0  0  0
  -27.3493  -29.6850   25.3892 H   0  0  0  0  0  0
  -27.8196  -30.5013   23.8798 H   0  0  0  0  0  0
  -27.2521  -33.3635   26.2616 H   0  0  0  0  0  0
  -28.3907  -32.7124   25.0967 H   0  0  0  0  0  0
  -28.0525  -31.8387   26.5791 H   0  0  0  0  0  0
  -28.2607  -38.0087   24.7611 H   0  0  0  0  0  0
  -28.0948  -36.2691   24.6206 H   0  0  0  0  0  0
  -27.2286  -37.1454   25.8846 H   0  0  0  0  0  0
  -20.9738  -29.9107   21.7546 H   0  0  0  0  0  0
  -26.0246  -38.3111   24.1541 H   0  0  0  0  0  0
  -27.6136  -18.9106   20.4009 H   0  0  0  0  0  0
  -27.9458  -18.2593   21.9723 H   0  0  0  0  0  0
  -31.8798  -17.5317   20.7164 H   0  0  0  0  0  0
  -31.5300  -17.2422   22.3855 H   0  0  0  0  0  0
  -28.0991  -16.3787   20.5480 H   0  0  0  0  0  0
  -33.3877  -18.6626   21.6989 H   0  0  0  0  0  0
  -33.7279  -19.9970   22.7863 H   0  0  0  0  0  0
  -33.6191  -20.2586   21.0319 H   0  0  0  0  0  0
  -28.8418  -22.9659   23.7314 H   0  0  0  0  0  0
  -29.7767  -23.9925   22.5334 H   0  0  0  0  0  0
  -30.4359  -23.4965   23.9941 H   0  0  0  0  0  0
  -33.0909  -22.1184   23.6575 H   0  0  0  0  0  0
  -32.2217  -23.4614   22.9718 H   0  0  0  0  0  0
  -33.2470  -22.5982   21.9394 H   0  0  0  0  0  0
  -30.1631  -17.6631   18.7800 H   0  0  0  0  0  0
  -28.4507  -17.6663   18.3518 H   0  0  0  0  0  0
  -29.3028  -16.1530   18.5140 H   0  0  0  0  0  0
  -27.1431  -21.5493   22.0130 H   0  0  0  0  0  0
  -27.4372  -21.6783   20.3292 H   0  0  0  0  0  0
  -27.7940  -24.0365   22.4163 H   0  0  0  0  0  0
  -26.4619  -23.4956   21.5221 H   0  0  0  0  0  0
  -26.7678  -24.9953   20.2384 H   0  0  0  0  0  0
  -28.0843  -24.3772   19.3200 H   0  0  0  0  0  0
  1 25  1  0  0  0
  1 30  2  0  0  0
  1 87  1  0  0  0
  2  3  1  0  0  0
  2 25  1  0  0  0
  2 88  1  0  0  0
  2 89  1  0  0  0
  3  4  1  0  0  0
  3 90  1  0  0  0
  3 91  1  0  0  0
  4  5  1  0  0  0
  4 92  1  0  0  0
  4 93  1  0  0  0
  5  6  1  0  0  0
  5 26  1  0  0  0
  5 94  1  0  0  0
  6 25  1  0  0  0
  6 95  1  0  0  0
  6 96  1  0  0  0
  7  8  2  0  0  0
  7 26  1  0  0  0
  7 29  1  0  0  0
  8  9  1  0  0  0
  8 22  1  0  0  0
  9 10  1  0  0  0
  9 27  2  0  0  0
 10 11  2  0  0  0
 10 15  1  0  0  0
 11 12  1  0  0  0
 11 97  1  0  0  0
 12 13  2  0  0  0
 12 98  1  0  0  0
 13 14  1  0  0  0
 13 31  1  0  0  0
 14 15  2  0  0  0
 14 99  1  0  0  0
 15100  1  0  0  0
 16 17  2  0  0  0
 16 21  1  0  0  0
 16 31  1  0  0  0
 17 18  1  0  0  0
 17101  1  0  0  0
 18 19  2  0  0  0
 18102  1  0  0  0
 19 20  1  0  0  0
 19 24  1  0  0  0
 20 21  2  0  0  0
 20103  1  0  0  0
 21 23  1  0  0  0
 22 28  1  0  0  0
 22 32  2  0  0  0
 26 27  1  0  0  0
 28104  1  0  0  0
 28105  1  0  0  0
 29106  1  0  0  0
 29107  1  0  0  0
 33 34  1  0  0  0
 33 66  1  0  0  0
 33 70  2  0  0  0
 34 36  1  0  0  0
 34 59  1  0  0  0
 34108  1  0  0  0
 35 44  2  0  0  0
 35 45  1  0  0  0
 35 68  1  0  0  0
 36 56  1  0  0  0
 36109  1  0  0  0
 37 39  1  0  0  0
 37 47  1  0  0  0
 37 66  1  0  0  0
 37110  1  0  0  0
 38 43  2  0  0  0
 38 46  1  0  0  0
 38 47  1  0  0  0
 39 64  1  0  0  0
 39 67  2  0  0  0
 40 52  1  0  0  0
 40 53  2  0  0  0
 40 58  1  0  0  0
 41111  1  0  0  0
 41112  1  0  0  0
 41113  1  0  0  0
 41 48  1  0  0  0
 42 43  1  0  0  0
 42 66  1  0  0  0
 42114  1  0  0  0
 42115  1  0  0  0
 43 44  1  0  0  0
 44116  1  0  0  0
 45 46  2  0  0  0
 45117  1  0  0  0
 46118  1  0  0  0
 47119  1  0  0  0
 47120  1  0  0  0
 48 56  1  0  0  0
 48 65  1  0  0  0
 48121  1  0  0  0
 49 50  1  0  0  0
 49 53  1  0  0  0
 49 64  1  0  0  0
 49122  1  0  0  0
 50 51  1  0  0  0
 50123  1  0  0  0
 50124  1  0  0  0
 51 52  1  0  0  0
 51125  1  0  0  0
 51126  1  0  0  0
 52127  1  0  0  0
 52128  1  0  0  0
 53 54  1  0  0  0
 54 55  2  0  0  0
 54129  1  0  0  0
 55 57  1  0  0  0
 55130  1  0  0  0
 56 69  2  0  0  0
 57 58  2  0  0  0
 57131  1  0  0  0
 58132  1  0  0  0
 59 60  1  0  0  0
 59 61  1  0  0  0
 59 62  1  0  0  0
 60133  1  0  0  0
 60134  1  0  0  0
 60135  1  0  0  0
 61136  1  0  0  0
 61137  1  0  0  0
 61138  1  0  0  0
 62139  1  0  0  0
 62140  1  0  0  0
 62141  1  0  0  0
 63 65  1  0  0  0
 63142  1  0  0  0
 63143  1  0  0  0
 63144  1  0  0  0
 64145  1  0  0  0
 65146  1  0  0  0
 68 86  1  0  0  0
 71 72  1  0  0  0
 71 73  2  0  0  0
 71 77  1  0  0  0
 72 74  2  0  0  0
 72 78  1  0  0  0
 73 75  1  0  0  0
 73 84  1  0  0  0
 74 76  1  0  0  0
 74 80  1  0  0  0
 75 76  2  0  0  0
 75 81  1  0  0  0
 76 82  1  0  0  0
 77 79  1  0  0  0
 77147  1  0  0  0
 77148  1  0  0  0
 78 87  1  0  0  0
 78149  1  0  0  0
 78150  1  0  0  0
 79 83  1  0  0  0
 79 87  1  0  0  0
 79151  1  0  0  0
 80152  1  0  0  0
 80153  1  0  0  0
 80154  1  0  0  0
 81155  1  0  0  0
 81156  1  0  0  0
 81157  1  0  0  0
 82158  1  0  0  0
 82159  1  0  0  0
 82160  1  0  0  0
 83161  1  0  0  0
 83162  1  0  0  0
 83163  1  0  0  0
 84 85  1  0  0  0
 84164  1  0  0  0
 84165  1  0  0  0
 85 86  1  0  0  0
 85166  1  0  0  0
 85167  1  0  0  0
 86168  1  0  0  0
 86169  1  0  0  0
M  ISO  4   1 100  68 101  86 101  87 100
M  END
> <chiral flag>
0

> <version>
0

> <s_m_source_file>
/data/baiqing/PycharmProjects/Reinvent-master-3.2/result/LINK_invent/BTK/process_docking_weight1_custom_sum_contain_oxygen_bond_distance_aromatic_linkinvent_7_9_3/rearranged_h_0162.sdf

> <i_m_source_file_index>
5

> <r_mmod_Potential_Energy-OPLS-2005>
955.122253417969

> <r_mmod_Stretch_Energy-OPLS-2005>
280.262023925781

> <r_mmod_Bend_Energy-OPLS-2005>
398.236541748047

> <r_mmod_Torsional_Energy-OPLS-2005>
360.580291748047

> <r_mmod_Improper_Torsional_Energy-OPLS-2005>
6.05194759368896

> <r_mmod_Van_der_Waal_Energy-OPLS-2005>
217.202972412109

> <r_mmod_Electrostatic_Energy-OPLS-2005>
-342.120666503906

> <r_mmod_Solvation_Energy-OPLS-2005>
-203.42839050293

> <b_mmod_Minimization_Converged-OPLS-2005>
0

> <r_mmod_RMS_Derivative-OPLS-2005>
45.2988433837891

$$$$
5
                    3D
 Structure written by MMmdl.
168177  0  0  1  0            999 V2000
  -30.4533  -14.8499   20.3230 C   0  0  0  0  0  0
  -30.4444  -12.4913   19.5138 C   0  0  0  0  0  0
  -29.5153  -12.3749   18.2786 C   0  0  0  0  0  0
  -28.0633  -12.1684   18.7356 C   0  0  0  0  0  0
  -27.6350  -13.1769   19.8272 C   0  0  2  0  0  0
  -28.6661  -13.1849   20.9789 C   0  0  0  0  0  0
  -25.2628  -13.8137   20.5714 C   0  0  0  0  0  0
  -24.1838  -13.0497   20.9207 C   0  0  0  0  0  0
  -24.6352  -11.6954   20.8781 C   0  0  0  0  0  0
  -23.9054  -10.4349   21.0468 C   0  0  0  0  0  0
  -24.3594   -9.4232   21.9229 C   0  0  0  0  0  0
  -23.6274   -8.2251   22.0774 C   0  0  0  0  0  0
  -22.4241   -8.0288   21.3587 C   0  0  0  0  0  0
  -21.9895   -9.0275   20.4691 C   0  0  0  0  0  0
  -22.7230  -10.2170   20.3130 C   0  0  0  0  0  0
  -21.6838   -6.0731   22.5255 C   0  0  0  0  0  0
  -21.3998   -6.5636   23.8182 C   0  0  0  0  0  0
  -21.3642   -5.6804   24.9166 C   0  0  0  0  0  0
  -21.6046   -4.3057   24.7233 C   0  0  0  0  0  0
  -21.8833   -3.8142   23.4350 C   0  0  0  0  0  0
  -21.9201   -4.6965   22.3403 C   0  0  0  0  0  0
  -22.7876  -13.5335   21.1790 C   0  0  0  0  0  0
  -22.1663   -4.2142   21.0987 F   0  0  0  0  0  0
  -21.5634   -3.4530   25.7747 F   0  0  0  0  0  0
  -29.9427  -13.5841   20.3889 N   0  0  0  0  0  0
  -26.2919  -12.9174   20.3227 N   0  0  0  0  0  0
  -25.9256  -11.6388   20.5898 N   0  0  0  0  0  0
  -22.0498  -12.8374   22.0343 N   0  0  0  0  0  0
  -25.4523  -15.1835   20.3924 N   0  0  0  0  0  0
  -31.6195  -15.0138   19.9689 O   0  0  0  0  0  0
  -21.6623   -6.8867   21.4220 O   0  0  0  0  0  0
  -22.3693  -14.5713   20.6658 O   0  0  0  0  0  0
  -24.6440  -31.8811   23.1873 C   0  0  0  0  0  0
  -25.9261  -32.4851   23.8337 C   0  0  1  0  0  0
  -27.2360  -27.4441   20.1372 C   0  0  0  0  0  0
  -25.6014  -33.8648   24.2284 N   0  0  0  0  0  0
  -23.4273  -30.5221   21.5137 C   0  0  2  0  0  0
  -24.9082  -28.9829   20.0870 C   0  0  0  0  0  0
  -22.7430  -29.5010   22.4714 C   0  0  0  0  0  0
  -18.0285  -28.1399   22.8425 C   0  0  0  0  0  0
  -24.1640  -36.7282   23.2609 C   0  0  0  0  0  0
  -25.9504  -30.8652   21.3297 C   0  0  0  0  0  0
  -26.0469  -29.4819   20.7391 C   0  0  0  0  0  0
  -27.2187  -28.6952   20.7822 C   0  0  0  0  0  0
  -26.1025  -26.9597   19.4601 C   0  0  0  0  0  0
  -24.9230  -27.7385   19.4212 C   0  0  0  0  0  0
  -23.6813  -29.8654   20.1236 C   0  0  0  0  0  0
  -25.4188  -36.2937   24.0290 C   0  0  1  0  0  0
  -20.5966  -28.3771   23.1156 C   0  0  2  0  0  0
  -20.6836  -26.9528   22.5198 C   0  0  0  0  0  0
  -19.5743  -26.6508   21.5021 C   0  0  0  0  0  0
  -18.1987  -26.7912   22.1619 C   0  0  0  0  0  0
  -19.1593  -28.8814   23.2877 C   0  0  0  0  0  0
  -18.9566  -30.1438   23.8877 C   0  0  0  0  0  0
  -17.6607  -30.6586   24.0554 C   0  0  0  0  0  0
  -25.9100  -34.9412   23.5037 C   0  0  0  0  0  0
  -16.5466  -29.9150   23.6362 C   0  0  0  0  0  0
  -16.7289  -28.6602   23.0303 C   0  0  0  0  0  0
  -26.4563  -31.6441   25.0488 C   0  0  0  0  0  0
  -25.3885  -31.3545   26.1195 C   0  0  0  0  0  0
  -27.0200  -30.2866   24.5615 C   0  0  0  0  0  0
  -27.6000  -32.4055   25.7320 C   0  0  0  0  0  0
  -27.5565  -37.1736   24.8429 C   0  0  0  0  0  0
  -21.4185  -29.3327   22.3566 N   0  0  0  0  0  0
  -26.4277  -37.3582   23.9408 N   0  0  0  0  0  0
  -24.6936  -31.0946   22.0696 N   0  0  0  0  0  0
  -23.4279  -28.8594   23.2804 O   0  0  0  0  0  0
  -28.2513  -26.5476   20.3599 O   0  0  0  0  0  0
  -26.5558  -34.8734   22.4552 O   0  0  0  0  0  0
  -23.5561  -32.1449   23.7203 O   0  0  0  0  0  0
  -28.2683  -20.2276   17.7481 C   0  0  0  0  0  0
  -28.4102  -21.2659   18.6714 C   0  0  0  0  0  0
  -28.1723  -18.9456   18.2457 C   0  0  0  0  0  0
  -28.7277  -20.9205   20.0119 C   0  0  0  0  0  0
  -28.8615  -18.5776   19.4152 C   0  0  0  0  0  0
  -29.8210  -22.1935   21.9646 C   0  0  0  0  0  0
  -30.5364  -23.3199   21.2867 C   0  0  0  0  0  0
  -28.2767  -23.5542   20.7955 C   0  0  0  0  0  0
  -28.5773  -22.0124   21.1193 C   0  0  2  0  0  0
  -27.9219  -22.6090   18.1313 C   0  0  0  0  0  0
  -26.7391  -18.4533   18.1313 C   0  0  0  0  0  0
  -29.1992  -16.9917   19.4400 C   0  0  0  0  0  0
  -30.0955  -25.2236   19.8053 C   0  0  0  0  0  0
  -29.3623  -26.5364   19.4951 C   0  0  0  0  0  0
  -29.0668  -19.5840   20.3411 N   0  0  0  0  0  0
  -29.5887  -15.9627   20.4873 N   0  0  0  0  0  0
  -29.5570  -24.3117   20.8831 N   0  3  2  0  0  0
  -31.4705  -12.6424   19.1865 H   0  0  0  0  0  0
  -30.4652  -11.5596   20.0733 H   0  0  0  0  0  0
  -29.8207  -11.4947   17.6950 H   0  0  0  0  0  0
  -29.6152  -13.2199   17.5994 H   0  0  0  0  0  0
  -28.0275  -11.1753   19.1612 H   0  0  0  0  0  0
  -27.3672  -12.1433   17.9104 H   0  0  0  0  0  0
  -27.6161  -14.1568   19.3625 H   0  0  0  0  0  0
  -28.7607  -12.2111   21.4532 H   0  0  0  0  0  0
  -28.3896  -13.8712   21.7754 H   0  0  0  0  0  0
  -25.2734   -9.5668   22.4815 H   0  0  0  0  0  0
  -23.9974   -7.4633   22.7484 H   0  0  0  0  0  0
  -21.0815   -8.8834   19.8977 H   0  0  0  0  0  0
  -22.3704  -10.9726   19.6250 H   0  0  0  0  0  0
  -21.1960   -7.6128   23.9701 H   0  0  0  0  0  0
  -21.1438   -6.0516   25.9083 H   0  0  0  0  0  0
  -22.0625   -2.7588   23.2857 H   0  0  0  0  0  0
  -22.4074  -12.0054   22.4732 H   0  0  0  0  0  0
  -21.1161  -13.1489   22.2503 H   0  0  0  0  0  0
  -24.6940  -15.8559   20.4998 H   0  0  0  0  0  0
  -26.2940  -15.5797   19.9847 H   0  0  0  0  0  0
  -26.7415  -32.5812   23.1191 H   0  0  0  0  0  0
  -24.9985  -33.9943   25.0250 H   0  0  0  0  0  0
  -22.7323  -31.3660   21.3941 H   0  0  0  0  0  0
  -23.3636  -35.9849   23.3153 H   0  0  0  0  0  0
  -24.3637  -36.9014   22.2002 H   0  0  0  0  0  0
  -23.7665  -37.6566   23.6724 H   0  0  0  0  0  0
  -25.9987  -31.5803   20.5178 H   0  0  0  0  0  0
  -26.8816  -31.0193   21.8684 H   0  0  0  0  0  0
  -28.0750  -29.0633   21.3328 H   0  0  0  0  0  0
  -26.1525  -26.0040   18.9341 H   0  0  0  0  0  0
  -24.0276  -27.4121   18.9470 H   0  0  0  0  0  0
  -23.8724  -30.6330   19.3736 H   0  0  0  0  0  0
  -22.8131  -29.3570   19.7368 H   0  0  0  0  0  0
  -25.1378  -36.1535   25.0713 H   0  0  0  0  0  0
  -21.0127  -28.3331   24.1286 H   0  0  0  0  0  0
  -20.5508  -26.2453   23.3441 H   0  0  0  0  0  0
  -21.6762  -26.7523   22.1137 H   0  0  0  0  0  0
  -19.6967  -25.6420   21.1094 H   0  0  0  0  0  0
  -19.6565  -27.3257   20.6483 H   0  0  0  0  0  0
  -17.4163  -26.6397   21.4225 H   0  0  0  0  0  0
  -18.0719  -26.0056   22.9050 H   0  0  0  0  0  0
  -19.8083  -30.7159   24.2336 H   0  0  0  0  0  0
  -17.5211  -31.6210   24.5236 H   0  0  0  0  0  0
  -15.5501  -30.3135   23.7535 H   0  0  0  0  0  0
  -15.8712  -28.0933   22.7034 H   0  0  0  0  0  0
  -24.5981  -30.6947   25.7547 H   0  0  0  0  0  0
  -24.9155  -32.2761   26.4673 H   0  0  0  0  0  0
  -25.8344  -30.8628   26.9921 H   0  0  0  0  0  0
  -26.2689  -29.6773   24.0463 H   0  0  0  0  0  0
  -27.3818  -29.6798   25.3979 H   0  0  0  0  0  0
  -27.8611  -30.3995   23.8678 H   0  0  0  0  0  0
  -27.2459  -33.3259   26.1971 H   0  0  0  0  0  0
  -28.3835  -32.6870   25.0261 H   0  0  0  0  0  0
  -28.0628  -31.8126   26.5236 H   0  0  0  0  0  0
  -28.2496  -38.0095   24.7286 H   0  0  0  0  0  0
  -28.1190  -36.2576   24.6444 H   0  0  0  0  0  0
  -27.2267  -37.1512   25.8833 H   0  0  0  0  0  0
  -20.9121  -29.9462   21.7304 H   0  0  0  0  0  0
  -26.0077  -38.2654   24.1160 H   0  0  0  0  0  0
  -27.8770  -20.5235   16.7773 H   0  0  0  0  0  0
  -29.5115  -22.5014   22.9754 H   0  0  0  0  0  0
  -30.4051  -21.2617   22.0251 H   0  0  0  0  0  0
  -31.0803  -22.9681   20.4176 H   0  0  0  0  0  0
  -31.2390  -23.7667   21.9744 H   0  0  0  0  0  0
  -27.5940  -23.8478   20.0103 H   0  0  0  0  0  0
  -27.6359  -23.9543   21.6151 H   0  0  0  0  0  0
  -27.7651  -21.6314   21.7204 H   0  0  0  0  0  0
  -26.8562  -22.7261   18.3629 H   0  0  0  0  0  0
  -28.1168  -22.7140   17.0773 H   0  0  0  0  0  0
  -28.5225  -23.5096   18.3451 H   0  0  0  0  0  0
  -26.4206  -18.3770   17.0770 H   0  0  0  0  0  0
  -26.1349  -19.2389   18.6155 H   0  0  0  0  0  0
  -26.4748  -17.5791   18.7211 H   0  0  0  0  0  0
  -28.1607  -16.6588   19.4363 H   0  0  0  0  0  0
  -29.5129  -16.6487   18.4338 H   0  0  0  0  0  0
  -31.0519  -25.5662   20.2072 H   0  0  0  0  0  0
  -30.2843  -24.7514   18.8703 H   0  0  0  0  0  0
  -29.9755  -27.4261   19.6513 H   0  0  0  0  0  0
  -29.0774  -26.5585   18.4511 H   0  0  0  0  0  0
  -28.7750  -15.7035   21.0155 H   0  0  0  0  0  0
  -29.3918  -24.9557   21.6364 H   0  0  0  0  0  0
  1 25  1  0  0  0
  1 30  2  0  0  0
  1 86  1  0  0  0
  2  3  1  0  0  0
  2 25  1  0  0  0
  2 88  1  0  0  0
  2 89  1  0  0  0
  3  4  1  0  0  0
  3 90  1  0  0  0
  3 91  1  0  0  0
  4  5  1  0  0  0
  4 92  1  0  0  0
  4 93  1  0  0  0
  5  6  1  0  0  0
  5 26  1  0  0  0
  5 94  1  0  0  0
  6 25  1  0  0  0
  6 95  1  0  0  0
  6 96  1  0  0  0
  7  8  2  0  0  0
  7 26  1  0  0  0
  7 29  1  0  0  0
  8  9  1  0  0  0
  8 22  1  0  0  0
  9 10  1  0  0  0
  9 27  2  0  0  0
 10 11  2  0  0  0
 10 15  1  0  0  0
 11 12  1  0  0  0
 11 97  1  0  0  0
 12 13  2  0  0  0
 12 98  1  0  0  0
 13 14  1  0  0  0
 13 31  1  0  0  0
 14 15  2  0  0  0
 14 99  1  0  0  0
 15100  1  0  0  0
 16 17  2  0  0  0
 16 21  1  0  0  0
 16 31  1  0  0  0
 17 18  1  0  0  0
 17101  1  0  0  0
 18 19  2  0  0  0
 18102  1  0  0  0
 19 20  1  0  0  0
 19 24  1  0  0  0
 20 21  2  0  0  0
 20103  1  0  0  0
 21 23  1  0  0  0
 22 28  1  0  0  0
 22 32  2  0  0  0
 26 27  1  0  0  0
 28104  1  0  0  0
 28105  1  0  0  0
 29106  1  0  0  0
 29107  1  0  0  0
 33 34  1  0  0  0
 33 66  1  0  0  0
 33 70  2  0  0  0
 34 36  1  0  0  0
 34 59  1  0  0  0
 34108  1  0  0  0
 35 44  2  0  0  0
 35 45  1  0  0  0
 35 68  1  0  0  0
 36 56  1  0  0  0
 36109  1  0  0  0
 37 39  1  0  0  0
 37 47  1  0  0  0
 37 66  1  0  0  0
 37110  1  0  0  0
 38 43  2  0  0  0
 38 46  1  0  0  0
 38 47  1  0  0  0
 39 64  1  0  0  0
 39 67  2  0  0  0
 40 52  1  0  0  0
 40 53  2  0  0  0
 40 58  1  0  0  0
 41111  1  0  0  0
 41112  1  0  0  0
 41113  1  0  0  0
 41 48  1  0  0  0
 42 43  1  0  0  0
 42 66  1  0  0  0
 42114  1  0  0  0
 42115  1  0  0  0
 43 44  1  0  0  0
 44116  1  0  0  0
 45 46  2  0  0  0
 45117  1  0  0  0
 46118  1  0  0  0
 47119  1  0  0  0
 47120  1  0  0  0
 48 56  1  0  0  0
 48 65  1  0  0  0
 48121  1  0  0  0
 49 50  1  0  0  0
 49 53  1  0  0  0
 49 64  1  0  0  0
 49122  1  0  0  0
 50 51  1  0  0  0
 50123  1  0  0  0
 50124  1  0  0  0
 51 52  1  0  0  0
 51125  1  0  0  0
 51126  1  0  0  0
 52127  1  0  0  0
 52128  1  0  0  0
 53 54  1  0  0  0
 54 55  2  0  0  0
 54129  1  0  0  0
 55 57  1  0  0  0
 55130  1  0  0  0
 56 69  2  0  0  0
 57 58  2  0  0  0
 57131  1  0  0  0
 58132  1  0  0  0
 59 60  1  0  0  0
 59 61  1  0  0  0
 59 62  1  0  0  0
 60133  1  0  0  0
 60134  1  0  0  0
 60135  1  0  0  0
 61136  1  0  0  0
 61137  1  0  0  0
 61138  1  0  0  0
 62139  1  0  0  0
 62140  1  0  0  0
 62141  1  0  0  0
 63 65  1  0  0  0
 63142  1  0  0  0
 63143  1  0  0  0
 63144  1  0  0  0
 64145  1  0  0  0
 65146  1  0  0  0
 68 84  1  0  0  0
 71 72  2  0  0  0
 71 73  1  0  0  0
 71147  1  0  0  0
 72 74  1  0  0  0
 72 80  1  0  0  0
 73 75  2  0  0  0
 73 81  1  0  0  0
 74 85  2  0  0  0
 74 79  1  0  0  0
 75 82  1  0  0  0
 75 85  1  0  0  0
 76 77  1  0  0  0
 76 79  1  0  0  0
 76148  1  0  0  0
 76149  1  0  0  0
 77 87  1  0  0  0
 77150  1  0  0  0
 77151  1  0  0  0
 78 79  1  0  0  0
 78 87  1  0  0  0
 78152  1  0  0  0
 78153  1  0  0  0
 79154  1  0  0  0
 80155  1  0  0  0
 80156  1  0  0  0
 80157  1  0  0  0
 81158  1  0  0  0
 81159  1  0  0  0
 81160  1  0  0  0
 82 86  1  0  0  0
 82161  1  0  0  0
 82162  1  0  0  0
 83 84  1  0  0  0
 83163  1  0  0  0
 83164  1  0  0  0
 83 87  1  0  0  0
 84165  1  0  0  0
 84166  1  0  0  0
 86167  1  0  0  0
 87168  1  0  0  0
M  CHG  1  87   1
M  ISO  4   1 100  68 101  84 101  86 100
M  END
> <chiral flag>
0

> <version>
0

> <s_m_source_file>
/data/baiqing/PycharmProjects/Reinvent-master-3.2/result/LINK_invent/BTK/process_docking_weight1_custom_sum_contain_oxygen_bond_distance_aromatic_linkinvent_7_9_3/rearranged_h_0162.sdf

> <i_m_source_file_index>
6

> <r_mmod_Potential_Energy-OPLS-2005>
337.300323486328

> <r_mmod_Stretch_Energy-OPLS-2005>
107.711273193359

> <r_mmod_Bend_Energy-OPLS-2005>
380.677490234375

> <r_mmod_Torsional_Energy-OPLS-2005>
507.413940429688

> <r_mmod_Improper_Torsional_Energy-OPLS-2005>
26.6815299987793

> <r_mmod_Van_der_Waal_Energy-OPLS-2005>
183.282180786133

> <r_mmod_Electrostatic_Energy-OPLS-2005>
-562.640991210938

> <r_mmod_Solvation_Energy-OPLS-2005>
-437.557922363281

> <b_mmod_Minimization_Converged-OPLS-2005>
0

> <r_mmod_RMS_Derivative-OPLS-2005>
44.1440086364746

$$$$
6
                    3D
 Structure written by MMmdl.
177187  0  0  1  0            999 V2000
  -30.8220  -14.5335   20.7153 C   0  0  0  0  0  0
  -30.4341  -12.4039   19.4679 C   0  0  0  0  0  0
  -29.5225  -12.5390   18.2339 C   0  0  0  0  0  0
  -28.0459  -12.3523   18.6309 C   0  0  0  0  0  0
  -27.6601  -13.2335   19.8460 C   0  0  2  0  0  0
  -28.6932  -13.1256   20.9861 C   0  0  0  0  0  0
  -25.2606  -13.8260   20.5648 C   0  0  0  0  0  0
  -24.1867  -13.0484   20.9197 C   0  0  0  0  0  0
  -24.6462  -11.6966   20.8685 C   0  0  0  0  0  0
  -23.9113  -10.4352   21.0370 C   0  0  0  0  0  0
  -24.3681   -9.4273   21.9145 C   0  0  0  0  0  0
  -23.6380   -8.2279   22.0695 C   0  0  0  0  0  0
  -22.4343   -8.0325   21.3530 C   0  0  0  0  0  0
  -21.9964   -9.0279   20.4626 C   0  0  0  0  0  0
  -22.7276  -10.2162   20.3008 C   0  0  0  0  0  0
  -21.6892   -6.0805   22.5304 C   0  0  0  0  0  0
  -21.4109   -6.5680   23.8263 C   0  0  0  0  0  0
  -21.3582   -5.6766   24.9164 C   0  0  0  0  0  0
  -21.5961   -4.3042   24.7191 C   0  0  0  0  0  0
  -21.8818   -3.8179   23.4316 C   0  0  0  0  0  0
  -21.9222   -4.7040   22.3407 C   0  0  0  0  0  0
  -22.7880  -13.5311   21.1862 C   0  0  0  0  0  0
  -22.1689   -4.2227   21.0981 F   0  0  0  0  0  0
  -21.5526   -3.4477   25.7693 F   0  0  0  0  0  0
  -30.0453  -13.4170   20.4719 N   0  0  0  0  0  0
  -26.3033  -12.9432   20.3185 N   0  0  0  0  0  0
  -25.9399  -11.6582   20.5691 N   0  0  0  0  0  0
  -22.0459  -12.8271   22.0401 N   0  0  0  0  0  0
  -25.4364  -15.1962   20.4265 N   0  0  0  0  0  0
  -31.8004  -14.7737   20.0034 O   0  0  0  0  0  0
  -21.6696   -6.8934   21.4263 O   0  0  0  0  0  0
  -22.3550  -14.5566   20.6661 O   0  0  0  0  0  0
  -24.6294  -31.8608   23.2057 C   0  0  0  0  0  0
  -25.9147  -32.4767   23.8355 C   0  0  1  0  0  0
  -27.1717  -27.3108   20.0658 C   0  0  0  0  0  0
  -25.5972  -33.8569   24.2275 N   0  0  0  0  0  0
  -23.4146  -30.4970   21.5528 C   0  0  2  0  0  0
  -24.8451  -28.9668   20.1004 C   0  0  0  0  0  0
  -22.7475  -29.4629   22.4922 C   0  0  0  0  0  0
  -18.0291  -28.1392   22.8479 C   0  0  0  0  0  0
  -24.1496  -36.7301   23.2631 C   0  0  0  0  0  0
  -25.9589  -30.7882   21.3738 C   0  0  0  0  0  0
  -26.0223  -29.4177   20.7100 C   0  0  0  0  0  0
  -27.1912  -28.5965   20.6948 C   0  0  0  0  0  0
  -25.9770  -26.9433   19.4028 C   0  0  0  0  0  0
  -24.8242  -27.7352   19.4411 C   0  0  0  0  0  0
  -23.6223  -29.8542   20.1615 C   0  0  0  0  0  0
  -25.4119  -36.3067   24.0322 C   0  0  1  0  0  0
  -20.5897  -28.3686   23.1278 C   0  0  2  0  0  0
  -20.6770  -26.9408   22.5415 C   0  0  0  0  0  0
  -19.5758  -26.6377   21.5201 C   0  0  0  0  0  0
  -18.1936  -26.7937   22.1604 C   0  0  0  0  0  0
  -19.1549  -28.8849   23.2882 C   0  0  0  0  0  0
  -18.9469  -30.1452   23.8906 C   0  0  0  0  0  0
  -17.6473  -30.6587   24.0567 C   0  0  0  0  0  0
  -25.9069  -34.9443   23.5089 C   0  0  0  0  0  0
  -16.5360  -29.9097   23.6324 C   0  0  0  0  0  0
  -16.7281  -28.6513   23.0338 C   0  0  0  0  0  0
  -26.4545  -31.6554   25.0705 C   0  0  0  0  0  0
  -25.3792  -31.3655   26.1433 C   0  0  0  0  0  0
  -27.0366  -30.2997   24.6070 C   0  0  0  0  0  0
  -27.6116  -32.4252   25.7503 C   0  0  0  0  0  0
  -27.5587  -37.1802   24.8456 C   0  0  0  0  0  0
  -21.4192  -29.3048   22.3681 N   0  0  0  0  0  0
  -26.4280  -37.3780   23.9423 N   0  0  0  0  0  0
  -24.6886  -31.0634   22.1015 N   0  0  0  0  0  0
  -23.4208  -28.8109   23.2940 O   0  0  0  0  0  0
  -28.2400  -26.3972   20.1163 O   0  0  0  0  0  0
  -26.5616  -34.8911   22.4643 O   0  0  0  0  0  0
  -23.5468  -32.1409   23.7399 O   0  0  0  0  0  0
  -32.8319  -17.2324   23.9273 C   0  0  0  0  0  0
  -31.8909  -16.3574   23.3854 C   0  0  0  0  0  0
  -33.2784  -18.2974   23.1344 C   0  0  0  0  0  0
  -32.6465  -18.5542   21.8786 C   0  0  0  0  0  0
  -31.2986  -16.5312   22.1293 C   0  0  0  0  0  0
  -31.4981  -17.7878   21.4411 C   0  0  0  0  0  0
  -31.4269  -15.1208   24.0702 C   0  0  0  0  0  0
  -29.3476  -20.2538   21.4907 C   0  0  0  0  0  0
  -29.5099  -20.0949   19.0796 C   0  0  0  0  0  0
  -30.3962  -14.5645   23.0851 C   0  0  0  0  0  0
  -29.3807  -21.8205   21.4141 C   0  0  0  0  0  0
  -29.4169  -21.6593   18.9430 C   0  0  0  0  0  0
  -30.2327  -19.6630   20.3754 C   0  0  2  0  0  0
  -34.4422  -19.1250   23.6898 C   0  0  0  0  0  0
  -33.3252  -19.5853   20.9828 C   0  0  0  0  0  0
  -27.0549  -24.6483   21.3965 C   0  0  0  0  0  0
  -29.1285  -23.9361   20.0257 C   0  0  0  0  0  0
  -27.9050  -24.9387   20.1370 C   0  0  2  0  0  0
  -30.5555  -15.3150   21.8164 N   0  0  0  0  0  0
  -28.8745  -22.4199   20.1268 N   0  3  2  0  0  0
  -30.5936  -18.2323   20.4573 O   0  0  0  0  0  0
  -31.4832  -12.4866   19.1887 H   0  0  0  0  0  0
  -30.3528  -11.4108   19.9092 H   0  0  0  0  0  0
  -29.8167  -11.8053   17.4810 H   0  0  0  0  0  0
  -29.6713  -13.5182   17.7772 H   0  0  0  0  0  0
  -27.8906  -11.3009   18.8753 H   0  0  0  0  0  0
  -27.3886  -12.5620   17.7865 H   0  0  0  0  0  0
  -27.6708  -14.2705   19.5021 H   0  0  0  0  0  0
  -28.6931  -12.1359   21.4408 H   0  0  0  0  0  0
  -28.3744  -13.8206   21.7585 H   0  0  0  0  0  0
  -25.2810   -9.5754   22.4770 H   0  0  0  0  0  0
  -24.0073   -7.4657   22.7378 H   0  0  0  0  0  0
  -21.0863   -8.8792   19.8988 H   0  0  0  0  0  0
  -22.3701  -10.9695   19.6126 H   0  0  0  0  0  0
  -21.2225   -7.6235   23.9806 H   0  0  0  0  0  0
  -21.1342   -6.0494   25.9069 H   0  0  0  0  0  0
  -22.0696   -2.7671   23.2786 H   0  0  0  0  0  0
  -22.4042  -11.9978   22.4909 H   0  0  0  0  0  0
  -21.1033  -13.1230   22.2458 H   0  0  0  0  0  0
  -24.6749  -15.8551   20.5729 H   0  0  0  0  0  0
  -26.3203  -15.6434   20.2091 H   0  0  0  0  0  0
  -26.7190  -32.5417   23.1075 H   0  0  0  0  0  0
  -25.0168  -33.9716   25.0450 H   0  0  0  0  0  0
  -22.7074  -31.3194   21.4236 H   0  0  0  0  0  0
  -23.3747  -35.9645   23.3278 H   0  0  0  0  0  0
  -24.3588  -36.8944   22.2047 H   0  0  0  0  0  0
  -23.7254  -37.6503   23.6667 H   0  0  0  0  0  0
  -26.0809  -31.5494   20.6011 H   0  0  0  0  0  0
  -26.8463  -30.8376   21.9926 H   0  0  0  0  0  0
  -28.0877  -28.9226   21.2039 H   0  0  0  0  0  0
  -25.8689  -26.0265   18.8461 H   0  0  0  0  0  0
  -23.9260  -27.3986   18.9412 H   0  0  0  0  0  0
  -23.7471  -30.6406   19.4176 H   0  0  0  0  0  0
  -22.7349  -29.3026   19.8460 H   0  0  0  0  0  0
  -25.1296  -36.1913   25.0814 H   0  0  0  0  0  0
  -20.9988  -28.3257   24.1398 H   0  0  0  0  0  0
  -20.5611  -26.2320   23.3629 H   0  0  0  0  0  0
  -21.6648  -26.7401   22.1239 H   0  0  0  0  0  0
  -19.6919  -25.6270   21.1261 H   0  0  0  0  0  0
  -19.6716  -27.3159   20.6706 H   0  0  0  0  0  0
  -17.4211  -26.6683   21.4003 H   0  0  0  0  0  0
  -18.0342  -26.0077   22.8993 H   0  0  0  0  0  0
  -19.7950  -30.7264   24.2283 H   0  0  0  0  0  0
  -17.5030  -31.6270   24.5177 H   0  0  0  0  0  0
  -15.5361  -30.3004   23.7646 H   0  0  0  0  0  0
  -15.8674  -28.0831   22.7048 H   0  0  0  0  0  0
  -24.6023  -30.6928   25.7770 H   0  0  0  0  0  0
  -24.8922  -32.2800   26.4834 H   0  0  0  0  0  0
  -25.8163  -30.8885   27.0213 H   0  0  0  0  0  0
  -26.2884  -29.6749   24.1173 H   0  0  0  0  0  0
  -27.4203  -29.7240   25.4496 H   0  0  0  0  0  0
  -27.8702  -30.4318   23.9168 H   0  0  0  0  0  0
  -27.2754  -33.3578   26.2051 H   0  0  0  0  0  0
  -28.3992  -32.6742   25.0374 H   0  0  0  0  0  0
  -28.0697  -31.8359   26.5458 H   0  0  0  0  0  0
  -28.2559  -38.0141   24.7544 H   0  0  0  0  0  0
  -28.1126  -36.2673   24.6220 H   0  0  0  0  0  0
  -27.2327  -37.1378   25.8862 H   0  0  0  0  0  0
  -20.9341  -29.8890   21.7015 H   0  0  0  0  0  0
  -26.0152  -38.2848   24.1455 H   0  0  0  0  0  0
  -33.2641  -17.0308   24.9027 H   0  0  0  0  0  0
  -30.9769  -15.3459   25.0372 H   0  0  0  0  0  0
  -32.2665  -14.4410   24.2111 H   0  0  0  0  0  0
  -28.3189  -19.8940   21.4115 H   0  0  0  0  0  0
  -29.7009  -19.9087   22.4624 H   0  0  0  0  0  0
  -30.0621  -19.7210   18.2154 H   0  0  0  0  0  0
  -28.5224  -19.6317   19.0179 H   0  0  0  0  0  0
  -29.3893  -14.7218   23.4699 H   0  0  0  0  0  0
  -30.5455  -13.4859   23.0106 H   0  0  0  0  0  0
  -30.4237  -22.1242   21.5338 H   0  0  0  0  0  0
  -28.8417  -22.2497   22.2604 H   0  0  0  0  0  0
  -28.8253  -21.9094   18.0627 H   0  0  0  0  0  0
  -30.4188  -22.0228   18.7228 H   0  0  0  0  0  0
  -31.1277  -20.2567   20.3753 H   0  0  0  0  0  0
  -34.5859  -18.9236   24.7543 H   0  0  0  0  0  0
  -34.2795  -20.2000   23.5875 H   0  0  0  0  0  0
  -35.3831  -18.8796   23.1962 H   0  0  0  0  0  0
  -34.4086  -19.5291   21.0813 H   0  0  0  0  0  0
  -33.0331  -20.6017   21.2574 H   0  0  0  0  0  0
  -33.1040  -19.3821   19.9321 H   0  0  0  0  0  0
  -26.6472  -23.6392   21.3851 H   0  0  0  0  0  0
  -26.1926  -25.3084   21.4827 H   0  0  0  0  0  0
  -27.6406  -24.7714   22.3058 H   0  0  0  0  0  0
  -29.8845  -24.2372   20.7478 H   0  0  0  0  0  0
  -29.5864  -24.1426   19.0558 H   0  0  0  0  0  0
  -27.3155  -24.6884   19.2557 H   0  0  0  0  0  0
  -27.8732  -22.2728   20.1104 H   0  0  0  0  0  0
  1 25  1  0  0  0
  1 30  2  0  0  0
  1 89  1  0  0  0
  2  3  1  0  0  0
  2 25  1  0  0  0
  2 92  1  0  0  0
  2 93  1  0  0  0
  3  4  1  0  0  0
  3 94  1  0  0  0
  3 95  1  0  0  0
  4  5  1  0  0  0
  4 96  1  0  0  0
  4 97  1  0  0  0
  5  6  1  0  0  0
  5 26  1  0  0  0
  5 98  1  0  0  0
  6 25  1  0  0  0
  6 99  1  0  0  0
  6100  1  0  0  0
  7  8  2  0  0  0
  7 26  1  0  0  0
  7 29  1  0  0  0
  8  9  1  0  0  0
  8 22  1  0  0  0
  9 10  1  0  0  0
  9 27  2  0  0  0
 10 11  2  0  0  0
 10 15  1  0  0  0
 11 12  1  0  0  0
 11101  1  0  0  0
 12 13  2  0  0  0
 12102  1  0  0  0
 13 14  1  0  0  0
 13 31  1  0  0  0
 14 15  2  0  0  0
 14103  1  0  0  0
 15104  1  0  0  0
 16 17  2  0  0  0
 16 21  1  0  0  0
 16 31  1  0  0  0
 17 18  1  0  0  0
 17105  1  0  0  0
 18 19  2  0  0  0
 18106  1  0  0  0
 19 20  1  0  0  0
 19 24  1  0  0  0
 20 21  2  0  0  0
 20107  1  0  0  0
 21 23  1  0  0  0
 22 28  1  0  0  0
 22 32  2  0  0  0
 26 27  1  0  0  0
 28108  1  0  0  0
 28109  1  0  0  0
 29110  1  0  0  0
 29111  1  0  0  0
 33 34  1  0  0  0
 33 66  1  0  0  0
 33 70  2  0  0  0
 34 36  1  0  0  0
 34 59  1  0  0  0
 34112  1  0  0  0
 35 44  2  0  0  0
 35 45  1  0  0  0
 35 68  1  0  0  0
 36 56  1  0  0  0
 36113  1  0  0  0
 37 39  1  0  0  0
 37 47  1  0  0  0
 37 66  1  0  0  0
 37114  1  0  0  0
 38 43  2  0  0  0
 38 46  1  0  0  0
 38 47  1  0  0  0
 39 64  1  0  0  0
 39 67  2  0  0  0
 40 52  1  0  0  0
 40 53  2  0  0  0
 40 58  1  0  0  0
 41115  1  0  0  0
 41116  1  0  0  0
 41117  1  0  0  0
 41 48  1  0  0  0
 42 43  1  0  0  0
 42 66  1  0  0  0
 42118  1  0  0  0
 42119  1  0  0  0
 43 44  1  0  0  0
 44120  1  0  0  0
 45 46  2  0  0  0
 45121  1  0  0  0
 46122  1  0  0  0
 47123  1  0  0  0
 47124  1  0  0  0
 48 56  1  0  0  0
 48 65  1  0  0  0
 48125  1  0  0  0
 49 50  1  0  0  0
 49 53  1  0  0  0
 49 64  1  0  0  0
 49126  1  0  0  0
 50 51  1  0  0  0
 50127  1  0  0  0
 50128  1  0  0  0
 51 52  1  0  0  0
 51129  1  0  0  0
 51130  1  0  0  0
 52131  1  0  0  0
 52132  1  0  0  0
 53 54  1  0  0  0
 54 55  2  0  0  0
 54133  1  0  0  0
 55 57  1  0  0  0
 55134  1  0  0  0
 56 69  2  0  0  0
 57 58  2  0  0  0
 57135  1  0  0  0
 58136  1  0  0  0
 59 60  1  0  0  0
 59 61  1  0  0  0
 59 62  1  0  0  0
 60137  1  0  0  0
 60138  1  0  0  0
 60139  1  0  0  0
 61140  1  0  0  0
 61141  1  0  0  0
 61142  1  0  0  0
 62143  1  0  0  0
 62144  1  0  0  0
 62145  1  0  0  0
 63 65  1  0  0  0
 63146  1  0  0  0
 63147  1  0  0  0
 63148  1  0  0  0
 64149  1  0  0  0
 65150  1  0  0  0
 68 88  1  0  0  0
 71 72  2  0  0  0
 71 73  1  0  0  0
 71151  1  0  0  0
 72 75  1  0  0  0
 72 77  1  0  0  0
 73 74  2  0  0  0
 73 84  1  0  0  0
 74 76  1  0  0  0
 74 85  1  0  0  0
 75 76  2  0  0  0
 75 89  1  0  0  0
 76 91  1  0  0  0
 77 80  1  0  0  0
 77152  1  0  0  0
 77153  1  0  0  0
 78 81  1  0  0  0
 78 83  1  0  0  0
 78154  1  0  0  0
 78155  1  0  0  0
 79 82  1  0  0  0
 79 83  1  0  0  0
 79156  1  0  0  0
 79157  1  0  0  0
 80 89  1  0  0  0
 80158  1  0  0  0
 80159  1  0  0  0
 81 90  1  0  0  0
 81160  1  0  0  0
 81161  1  0  0  0
 82 90  1  0  0  0
 82162  1  0  0  0
 82163  1  0  0  0
 83 91  1  0  0  0
 83164  1  0  0  0
 84165  1  0  0  0
 84166  1  0  0  0
 84167  1  0  0  0
 85168  1  0  0  0
 85169  1  0  0  0
 85170  1  0  0  0
 86171  1  0  0  0
 86172  1  0  0  0
 86173  1  0  0  0
 86 88  1  0  0  0
 87 88  1  0  0  0
 87174  1  0  0  0
 87175  1  0  0  0
 87 90  1  0  0  0
 88176  1  0  0  0
 90177  1  0  0  0
M  CHG  1  90   1
M  ISO  4   1 100  68 101  88 101  89 100
M  END
> <chiral flag>
0

> <version>
0

> <s_m_source_file>
/data/baiqing/PycharmProjects/Reinvent-master-3.2/result/LINK_invent/BTK/process_docking_weight1_custom_sum_contain_oxygen_bond_distance_aromatic_linkinvent_7_9_3/rearranged_h_0162.sdf

> <i_m_source_file_index>
7

> <r_mmod_Potential_Energy-OPLS-2005>
289.380706787109

> <r_mmod_Stretch_Energy-OPLS-2005>
102.421104431152

> <r_mmod_Bend_Energy-OPLS-2005>
227.019683837891

> <r_mmod_Torsional_Energy-OPLS-2005>
383.551574707031

> <r_mmod_Improper_Torsional_Energy-OPLS-2005>
6.8270001411438

> <r_mmod_Van_der_Waal_Energy-OPLS-2005>
175.978332519531

> <r_mmod_Electrostatic_Energy-OPLS-2005>
-239.506622314453

> <r_mmod_Solvation_Energy-OPLS-2005>
-418.469116210938

> <b_mmod_Minimization_Converged-OPLS-2005>
0

> <r_mmod_RMS_Derivative-OPLS-2005>
8.14896297454834

$$$$
7
                    3D
 Structure written by MMmdl.
183193  0  0  1  0            999 V2000
  -30.8209  -14.3801   20.6001 C   0  0  0  0  0  0
  -30.4073  -12.2876   19.3902 C   0  0  0  0  0  0
  -29.4696  -12.5061   18.1871 C   0  0  0  0  0  0
  -27.9907  -12.3883   18.6064 C   0  0  0  0  0  0
  -27.6585  -13.2001   19.8860 C   0  0  2  0  0  0
  -28.7156  -12.8966   20.9691 C   0  0  0  0  0  0
  -25.2541  -13.8142   20.5722 C   0  0  0  0  0  0
  -24.1772  -13.0435   20.9220 C   0  0  0  0  0  0
  -24.6328  -11.6891   20.8789 C   0  0  0  0  0  0
  -23.8998  -10.4289   21.0418 C   0  0  0  0  0  0
  -24.3553   -9.4206   21.9190 C   0  0  0  0  0  0
  -23.6251   -8.2239   22.0740 C   0  0  0  0  0  0
  -22.4241   -8.0268   21.3541 C   0  0  0  0  0  0
  -21.9859   -9.0241   20.4632 C   0  0  0  0  0  0
  -22.7176  -10.2122   20.3053 C   0  0  0  0  0  0
  -21.6837   -6.0718   22.5280 C   0  0  0  0  0  0
  -21.4014   -6.5627   23.8200 C   0  0  0  0  0  0
  -21.3654   -5.6780   24.9176 C   0  0  0  0  0  0
  -21.6058   -4.3045   24.7225 C   0  0  0  0  0  0
  -21.8810   -3.8127   23.4342 C   0  0  0  0  0  0
  -21.9175   -4.6952   22.3399 C   0  0  0  0  0  0
  -22.7798  -13.5234   21.1881 C   0  0  0  0  0  0
  -22.1647   -4.2133   21.0977 F   0  0  0  0  0  0
  -21.5629   -3.4532   25.7737 F   0  0  0  0  0  0
  -30.0301  -13.2744   20.4208 N   0  0  0  0  0  0
  -26.2983  -12.9312   20.3455 N   0  0  0  0  0  0
  -25.9258  -11.6480   20.5844 N   0  0  0  0  0  0
  -22.0406  -12.8288   22.0438 N   0  0  0  0  0  0
  -25.4246  -15.1864   20.4145 N   0  0  0  0  0  0
  -31.9896  -14.3611   20.2026 O   0  0  0  0  0  0
  -21.6603   -6.8877   21.4239 O   0  0  0  0  0  0
  -22.3475  -14.5539   20.6684 O   0  0  0  0  0  0
  -24.6084  -31.8745   23.2119 C   0  0  0  0  0  0
  -25.9030  -32.4823   23.8432 C   0  0  1  0  0  0
  -27.2474  -27.4933   20.1012 C   0  0  0  0  0  0
  -25.5938  -33.8627   24.2351 N   0  0  0  0  0  0
  -23.3963  -30.5015   21.5438 C   0  0  2  0  0  0
  -24.8509  -28.9789   20.0989 C   0  0  0  0  0  0
  -22.7411  -29.4748   22.4938 C   0  0  0  0  0  0
  -18.0355  -28.1355   22.8406 C   0  0  0  0  0  0
  -24.1482  -36.7323   23.2643 C   0  0  0  0  0  0
  -25.9212  -30.8428   21.3823 C   0  0  0  0  0  0
  -25.9942  -29.4872   20.7260 C   0  0  0  0  0  0
  -27.1919  -28.7500   20.7418 C   0  0  0  0  0  0
  -26.1102  -27.0196   19.4217 C   0  0  0  0  0  0
  -24.9036  -27.7407   19.4362 C   0  0  0  0  0  0
  -23.6025  -29.8275   20.1578 C   0  0  0  0  0  0
  -25.4097  -36.3092   24.0332 C   0  0  1  0  0  0
  -20.5909  -28.3744   23.1280 C   0  0  2  0  0  0
  -20.6840  -26.9417   22.5591 C   0  0  0  0  0  0
  -19.5929  -26.6301   21.5277 C   0  0  0  0  0  0
  -18.2048  -26.7905   22.1540 C   0  0  0  0  0  0
  -19.1563  -28.8848   23.2860 C   0  0  0  0  0  0
  -18.9443  -30.1421   23.8916 C   0  0  0  0  0  0
  -17.6430  -30.6492   24.0594 C   0  0  0  0  0  0
  -25.9037  -34.9456   23.5114 C   0  0  0  0  0  0
  -16.5355  -29.8987   23.6254 C   0  0  0  0  0  0
  -16.7328  -28.6434   23.0207 C   0  0  0  0  0  0
  -26.4441  -31.6593   25.0770 C   0  0  0  0  0  0
  -25.3688  -31.3808   26.1518 C   0  0  0  0  0  0
  -27.0298  -30.2987   24.6268 C   0  0  0  0  0  0
  -27.5994  -32.4325   25.7531 C   0  0  0  0  0  0
  -27.5574  -37.1829   24.8441 C   0  0  0  0  0  0
  -21.4166  -29.3051   22.3606 N   0  0  0  0  0  0
  -26.4284  -37.3762   23.9386 N   0  0  0  0  0  0
  -24.6564  -31.0883   22.1016 N   0  0  0  0  0  0
  -23.4187  -28.8356   23.3020 O   0  0  0  0  0  0
  -28.3608  -26.6919   20.1318 O   0  0  0  0  0  0
  -26.5554  -34.8895   22.4654 O   0  0  0  0  0  0
  -23.5280  -32.1509   23.7533 O   0  0  0  0  0  0
  -27.7964  -19.3066   20.8914 C   0  0  0  0  0  0
  -28.8531  -19.5134   21.7986 C   0  0  0  0  0  0
  -28.1926  -21.8441   22.0150 C   0  0  0  0  0  0
  -27.2161  -21.6495   20.9973 C   0  0  0  0  0  0
  -29.0202  -20.7699   22.4263 C   0  0  0  0  0  0
  -26.9949  -20.3686   20.4480 C   0  0  0  0  0  0
  -28.3739  -23.2187   22.6544 C   0  0  0  0  0  0
  -29.1937  -17.1234   22.5669 C   0  0  0  0  0  0
  -30.5016  -18.1198   20.6054 C   0  0  0  0  0  0
  -29.0420  -15.9633   21.5730 C   0  0  0  0  0  0
  -31.1757  -16.7604   20.5424 C   0  0  0  0  0  0
  -26.4655  -24.0251   21.3856 C   0  0  0  0  0  0
  -29.8434  -18.3778   21.9657 C   0  0  0  0  0  0
  -26.4682  -22.8381   20.4103 C   0  0  1  0  0  0
  -30.0943  -20.9777   23.5006 C   0  0  0  0  0  0
  -27.0589  -23.2083   19.0331 C   0  0  0  0  0  0
  -26.9066  -26.3623   23.0355 C   0  0  0  0  0  0
  -26.3421  -19.2771   18.4224 C   0  0  0  0  0  0
  -28.9752  -26.5213   21.4159 C   0  0  0  0  0  0
  -28.1317  -25.6649   22.3955 C   0  0  2  0  0  0
  -30.3048  -15.6072   20.9022 N   0  0  0  0  0  0
  -27.8551  -24.3150   21.8155 N   0  3  1  0  0  0
  -26.0397  -20.2006   19.4687 O   0  0  0  0  0  0
  -31.4416  -12.3735   19.0532 H   0  0  0  0  0  0
  -30.3248  -11.2695   19.7777 H   0  0  0  0  0  0
  -29.6974  -11.7843   17.4029 H   0  0  0  0  0  0
  -29.6462  -13.4944   17.7596 H   0  0  0  0  0  0
  -27.7774  -11.3323   18.7798 H   0  0  0  0  0  0
  -27.3398  -12.6989   17.7892 H   0  0  0  0  0  0
  -27.7232  -14.2559   19.6285 H   0  0  0  0  0  0
  -28.7088  -11.8210   21.1502 H   0  0  0  0  0  0
  -28.4826  -13.2656   21.9586 H   0  0  0  0  0  0
  -25.2681   -9.5698   22.4786 H   0  0  0  0  0  0
  -23.9961   -7.4622   22.7443 H   0  0  0  0  0  0
  -21.0793   -8.8736   19.8946 H   0  0  0  0  0  0
  -22.3606  -10.9663   19.6175 H   0  0  0  0  0  0
  -21.2021   -7.6134   23.9720 H   0  0  0  0  0  0
  -21.1490   -6.0503   25.9074 H   0  0  0  0  0  0
  -22.0599   -2.7594   23.2828 H   0  0  0  0  0  0
  -22.3954  -11.9953   22.4914 H   0  0  0  0  0  0
  -21.1025  -13.1336   22.2575 H   0  0  0  0  0  0
  -24.6601  -15.8404   20.5473 H   0  0  0  0  0  0
  -26.2797  -15.6284   20.1071 H   0  0  0  0  0  0
  -26.7181  -32.5490   23.1268 H   0  0  0  0  0  0
  -25.0169  -33.9834   25.0550 H   0  0  0  0  0  0
  -22.6812  -31.3152   21.4022 H   0  0  0  0  0  0
  -23.3707  -35.9695   23.3282 H   0  0  0  0  0  0
  -24.3624  -36.8923   22.2070 H   0  0  0  0  0  0
  -23.7246  -37.6535   23.6657 H   0  0  0  0  0  0
  -26.0572  -31.6158   20.6255 H   0  0  0  0  0  0
  -26.8008  -30.8700   22.0170 H   0  0  0  0  0  0
  -28.0496  -29.1613   21.2557 H   0  0  0  0  0  0
  -26.1558  -26.0848   18.8899 H   0  0  0  0  0  0
  -24.0445  -27.3571   18.9043 H   0  0  0  0  0  0
  -23.6870  -30.5907   19.3830 H   0  0  0  0  0  0
  -22.7337  -29.2272   19.8798 H   0  0  0  0  0  0
  -25.1275  -36.1975   25.0832 H   0  0  0  0  0  0
  -21.0072  -28.3450   24.1374 H   0  0  0  0  0  0
  -20.5485  -26.2471   23.3911 H   0  0  0  0  0  0
  -21.6800  -26.7304   22.1658 H   0  0  0  0  0  0
  -19.7132  -25.6153   21.1444 H   0  0  0  0  0  0
  -19.6941  -27.3010   20.6743 H   0  0  0  0  0  0
  -17.4434  -26.6656   21.3839 H   0  0  0  0  0  0
  -18.0396  -26.0042   22.8918 H   0  0  0  0  0  0
  -19.7915  -30.7227   24.2304 H   0  0  0  0  0  0
  -17.4927  -31.6105   24.5305 H   0  0  0  0  0  0
  -15.5317  -30.2825   23.7499 H   0  0  0  0  0  0
  -15.8782  -28.0755   22.6799 H   0  0  0  0  0  0
  -24.5787  -30.7230   25.7877 H   0  0  0  0  0  0
  -24.8998  -32.3041   26.4932 H   0  0  0  0  0  0
  -25.8004  -30.8979   27.0290 H   0  0  0  0  0  0
  -26.2970  -29.6773   24.1121 H   0  0  0  0  0  0
  -27.3743  -29.7190   25.4837 H   0  0  0  0  0  0
  -27.8921  -30.4204   23.9711 H   0  0  0  0  0  0
  -27.2582  -33.3583   26.2166 H   0  0  0  0  0  0
  -28.3790  -32.6944   25.0372 H   0  0  0  0  0  0
  -28.0699  -31.8437   26.5408 H   0  0  0  0  0  0
  -28.2557  -38.0157   24.7484 H   0  0  0  0  0  0
  -28.1106  -36.2674   24.6259 H   0  0  0  0  0  0
  -27.2330  -37.1467   25.8859 H   0  0  0  0  0  0
  -20.9345  -29.8801   21.6845 H   0  0  0  0  0  0
  -26.0150  -38.2847   24.1314 H   0  0  0  0  0  0
  -27.6536  -18.3220   20.4771 H   0  0  0  0  0  0
  -29.4333  -23.4120   22.8235 H   0  0  0  0  0  0
  -27.8700  -23.2258   23.6216 H   0  0  0  0  0  0
  -29.8164  -16.7728   23.3903 H   0  0  0  0  0  0
  -28.2318  -17.3586   23.0249 H   0  0  0  0  0  0
  -29.7789  -18.1436   19.7913 H   0  0  0  0  0  0
  -31.2071  -18.9219   20.3768 H   0  0  0  0  0  0
  -28.3050  -16.1975   20.8085 H   0  0  0  0  0  0
  -28.6305  -15.1784   22.1797 H   0  0  0  0  0  0
  -32.0619  -16.7677   21.1790 H   0  0  0  0  0  0
  -31.5253  -16.6459   19.5151 H   0  0  0  0  0  0
  -25.8635  -23.7814   22.2622 H   0  0  0  0  0  0
  -25.9848  -24.8783   20.9164 H   0  0  0  0  0  0
  -30.6510  -18.6613   22.6360 H   0  0  0  0  0  0
  -25.4307  -22.5379   20.2544 H   0  0  0  0  0  0
  -30.2098  -20.1053   24.1435 H   0  0  0  0  0  0
  -29.8648  -21.7820   24.1977 H   0  0  0  0  0  0
  -31.0536  -21.2058   23.0329 H   0  0  0  0  0  0
  -28.0882  -23.5626   19.1104 H   0  0  0  0  0  0
  -26.4648  -23.9719   18.5326 H   0  0  0  0  0  0
  -27.0739  -22.3482   18.3631 H   0  0  0  0  0  0
  -27.1762  -27.3656   23.3659 H   0  0  0  0  0  0
  -26.5615  -25.8083   23.9132 H   0  0  0  0  0  0
  -26.0571  -26.4837   22.3635 H   0  0  0  0  0  0
  -25.5695  -19.3345   17.6589 H   0  0  0  0  0  0
  -26.3708  -18.2392   18.7560 H   0  0  0  0  0  0
  -27.2957  -19.5187   17.9479 H   0  0  0  0  0  0
  -29.9261  -26.0123   21.2507 H   0  0  0  0  0  0
  -29.2499  -27.4700   21.8813 H   0  0  0  0  0  0
  -28.8091  -25.5303   23.2396 H   0  0  0  0  0  0
  -28.4035  -24.2615   20.9708 H   0  0  0  0  0  0
  1 25  1  0  0  0
  1 30  2  0  0  0
  1 91  1  0  0  0
  2  3  1  0  0  0
  2 25  1  0  0  0
  2 94  1  0  0  0
  2 95  1  0  0  0
  3  4  1  0  0  0
  3 96  1  0  0  0
  3 97  1  0  0  0
  4  5  1  0  0  0
  4 98  1  0  0  0
  4 99  1  0  0  0
  5  6  1  0  0  0
  5 26  1  0  0  0
  5100  1  0  0  0
  6 25  1  0  0  0
  6101  1  0  0  0
  6102  1  0  0  0
  7  8  2  0  0  0
  7 26  1  0  0  0
  7 29  1  0  0  0
  8  9  1  0  0  0
  8 22  1  0  0  0
  9 10  1  0  0  0
  9 27  2  0  0  0
 10 11  2  0  0  0
 10 15  1  0  0  0
 11 12  1  0  0  0
 11103  1  0  0  0
 12 13  2  0  0  0
 12104  1  0  0  0
 13 14  1  0  0  0
 13 31  1  0  0  0
 14 15  2  0  0  0
 14105  1  0  0  0
 15106  1  0  0  0
 16 17  2  0  0  0
 16 21  1  0  0  0
 16 31  1  0  0  0
 17 18  1  0  0  0
 17107  1  0  0  0
 18 19  2  0  0  0
 18108  1  0  0  0
 19 20  1  0  0  0
 19 24  1  0  0  0
 20 21  2  0  0  0
 20109  1  0  0  0
 21 23  1  0  0  0
 22 28  1  0  0  0
 22 32  2  0  0  0
 26 27  1  0  0  0
 28110  1  0  0  0
 28111  1  0  0  0
 29112  1  0  0  0
 29113  1  0  0  0
 33 34  1  0  0  0
 33 66  1  0  0  0
 33 70  2  0  0  0
 34 36  1  0  0  0
 34 59  1  0  0  0
 34114  1  0  0  0
 35 44  2  0  0  0
 35 45  1  0  0  0
 35 68  1  0  0  0
 36 56  1  0  0  0
 36115  1  0  0  0
 37 39  1  0  0  0
 37 47  1  0  0  0
 37 66  1  0  0  0
 37116  1  0  0  0
 38 43  2  0  0  0
 38 46  1  0  0  0
 38 47  1  0  0  0
 39 64  1  0  0  0
 39 67  2  0  0  0
 40 52  1  0  0  0
 40 53  2  0  0  0
 40 58  1  0  0  0
 41117  1  0  0  0
 41118  1  0  0  0
 41119  1  0  0  0
 41 48  1  0  0  0
 42 43  1  0  0  0
 42 66  1  0  0  0
 42120  1  0  0  0
 42121  1  0  0  0
 43 44  1  0  0  0
 44122  1  0  0  0
 45 46  2  0  0  0
 45123  1  0  0  0
 46124  1  0  0  0
 47125  1  0  0  0
 47126  1  0  0  0
 48 56  1  0  0  0
 48 65  1  0  0  0
 48127  1  0  0  0
 49 50  1  0  0  0
 49 53  1  0  0  0
 49 64  1  0  0  0
 49128  1  0  0  0
 50 51  1  0  0  0
 50129  1  0  0  0
 50130  1  0  0  0
 51 52  1  0  0  0
 51131  1  0  0  0
 51132  1  0  0  0
 52133  1  0  0  0
 52134  1  0  0  0
 53 54  1  0  0  0
 54 55  2  0  0  0
 54135  1  0  0  0
 55 57  1  0  0  0
 55136  1  0  0  0
 56 69  2  0  0  0
 57 58  2  0  0  0
 57137  1  0  0  0
 58138  1  0  0  0
 59 60  1  0  0  0
 59 61  1  0  0  0
 59 62  1  0  0  0
 60139  1  0  0  0
 60140  1  0  0  0
 60141  1  0  0  0
 61142  1  0  0  0
 61143  1  0  0  0
 61144  1  0  0  0
 62145  1  0  0  0
 62146  1  0  0  0
 62147  1  0  0  0
 63 65  1  0  0  0
 63148  1  0  0  0
 63149  1  0  0  0
 63150  1  0  0  0
 64151  1  0  0  0
 65152  1  0  0  0
 68 89  1  0  0  0
 71 72  2  0  0  0
 71 76  1  0  0  0
 71153  1  0  0  0
 72 75  1  0  0  0
 72 83  1  0  0  0
 73 74  1  0  0  0
 73 75  2  0  0  0
 73 77  1  0  0  0
 74 76  2  0  0  0
 74 84  1  0  0  0
 75 85  1  0  0  0
 76 93  1  0  0  0
 77154  1  0  0  0
 77155  1  0  0  0
 77 92  1  0  0  0
 78 80  1  0  0  0
 78 83  1  0  0  0
 78156  1  0  0  0
 78157  1  0  0  0
 79 81  1  0  0  0
 79 83  1  0  0  0
 79158  1  0  0  0
 79159  1  0  0  0
 80 91  1  0  0  0
 80160  1  0  0  0
 80161  1  0  0  0
 81 91  1  0  0  0
 81162  1  0  0  0
 81163  1  0  0  0
 82 84  1  0  0  0
 82 92  1  0  0  0
 82164  1  0  0  0
 82165  1  0  0  0
 83166  1  0  0  0
 84 86  1  0  0  0
 84167  1  0  0  0
 85168  1  0  0  0
 85169  1  0  0  0
 85170  1  0  0  0
 86171  1  0  0  0
 86172  1  0  0  0
 86173  1  0  0  0
 87174  1  0  0  0
 87175  1  0  0  0
 87176  1  0  0  0
 87 90  1  0  0  0
 88 93  1  0  0  0
 88177  1  0  0  0
 88178  1  0  0  0
 88179  1  0  0  0
 89 90  1  0  0  0
 89180  1  0  0  0
 89181  1  0  0  0
 90 92  1  0  0  0
 90182  1  0  0  0
 92183  1  0  0  0
M  CHG  1  92   1
M  ISO  4   1 100  68 101  89 101  91 100
M  END
> <chiral flag>
0

> <version>
0

> <s_m_source_file>
/data/baiqing/PycharmProjects/Reinvent-master-3.2/result/LINK_invent/BTK/process_docking_weight1_custom_sum_contain_oxygen_bond_distance_aromatic_linkinvent_7_9_3/rearranged_h_0162.sdf

> <i_m_source_file_index>
8

> <r_mmod_Potential_Energy-OPLS-2005>
211.681732177734

> <r_mmod_Stretch_Energy-OPLS-2005>
42.5428161621094

> <r_mmod_Bend_Energy-OPLS-2005>
164.095230102539

> <r_mmod_Torsional_Energy-OPLS-2005>
380.102722167969

> <r_mmod_Improper_Torsional_Energy-OPLS-2005>
8.36500549316406

> <r_mmod_Van_der_Waal_Energy-OPLS-2005>
208.07421875

> <r_mmod_Electrostatic_Energy-OPLS-2005>
-235.794326782227

> <r_mmod_Solvation_Energy-OPLS-2005>
-384.192047119141

> <b_mmod_Minimization_Converged-OPLS-2005>
0

> <r_mmod_RMS_Derivative-OPLS-2005>
5.39458990097046

$$$$
8
                    3D
 Structure written by MMmdl.
177187  0  0  1  0            999 V2000
  -30.7635  -14.3553   20.6956 C   0  0  0  0  0  0
  -30.4254  -12.2840   19.3979 C   0  0  0  0  0  0
  -29.4918  -12.5364   18.1990 C   0  0  0  0  0  0
  -28.0157  -12.3848   18.6130 C   0  0  0  0  0  0
  -27.6732  -13.1986   19.8873 C   0  0  2  0  0  0
  -28.7094  -12.9237   21.0008 C   0  0  0  0  0  0
  -25.2642  -13.8153   20.5671 C   0  0  0  0  0  0
  -24.1865  -13.0434   20.9143 C   0  0  0  0  0  0
  -24.6401  -11.6899   20.8709 C   0  0  0  0  0  0
  -23.9061  -10.4288   21.0398 C   0  0  0  0  0  0
  -24.3613   -9.4209   21.9181 C   0  0  0  0  0  0
  -23.6288   -8.2244   22.0754 C   0  0  0  0  0  0
  -22.4269   -8.0285   21.3546 C   0  0  0  0  0  0
  -21.9905   -9.0259   20.4649 C   0  0  0  0  0  0
  -22.7233  -10.2136   20.3053 C   0  0  0  0  0  0
  -21.6857   -6.0734   22.5276 C   0  0  0  0  0  0
  -21.4017   -6.5636   23.8210 C   0  0  0  0  0  0
  -21.3659   -5.6791   24.9174 C   0  0  0  0  0  0
  -21.6043   -4.3053   24.7227 C   0  0  0  0  0  0
  -21.8820   -3.8145   23.4347 C   0  0  0  0  0  0
  -21.9193   -4.6961   22.3403 C   0  0  0  0  0  0
  -22.7892  -13.5252   21.1813 C   0  0  0  0  0  0
  -22.1660   -4.2145   21.0982 F   0  0  0  0  0  0
  -21.5630   -3.4536   25.7741 F   0  0  0  0  0  0
  -30.0600  -13.2142   20.4750 N   0  0  0  0  0  0
  -26.3082  -12.9299   20.3400 N   0  0  0  0  0  0
  -25.9333  -11.6461   20.5760 N   0  0  0  0  0  0
  -22.0524  -12.8249   22.0373 N   0  0  0  0  0  0
  -25.4396  -15.1864   20.4105 N   0  0  0  0  0  0
  -31.7483  -14.6857   20.0289 O   0  0  0  0  0  0
  -21.6636   -6.8880   21.4239 O   0  0  0  0  0  0
  -22.3578  -14.5558   20.6674 O   0  0  0  0  0  0
  -24.6073  -31.8731   23.2105 C   0  0  0  0  0  0
  -25.8967  -32.4851   23.8415 C   0  0  1  0  0  0
  -27.2425  -27.4891   20.0607 C   0  0  0  0  0  0
  -25.5841  -33.8645   24.2354 N   0  0  0  0  0  0
  -23.3957  -30.4984   21.5472 C   0  0  2  0  0  0
  -24.8426  -28.9661   20.1162 C   0  0  0  0  0  0
  -22.7358  -29.4703   22.4950 C   0  0  0  0  0  0
  -18.0267  -28.1367   22.8469 C   0  0  0  0  0  0
  -24.1515  -36.7387   23.2636 C   0  0  0  0  0  0
  -25.9196  -30.8501   21.3588 C   0  0  0  0  0  0
  -25.9971  -29.4829   20.7160 C   0  0  0  0  0  0
  -27.1959  -28.7431   20.7008 C   0  0  0  0  0  0
  -26.0626  -26.9597   19.4913 C   0  0  0  0  0  0
  -24.8662  -27.6991   19.5080 C   0  0  0  0  0  0
  -23.6052  -29.8306   20.1612 C   0  0  0  0  0  0
  -25.4114  -36.3152   24.0351 C   0  0  1  0  0  0
  -20.5857  -28.3670   23.1297 C   0  0  2  0  0  0
  -20.6761  -26.9408   22.5396 C   0  0  0  0  0  0
  -19.5755  -26.6380   21.5180 C   0  0  0  0  0  0
  -18.1929  -26.7912   22.1596 C   0  0  0  0  0  0
  -19.1511  -28.8826   23.2903 C   0  0  0  0  0  0
  -18.9434  -30.1419   23.8946 C   0  0  0  0  0  0
  -17.6437  -30.6577   24.0561 C   0  0  0  0  0  0
  -25.9010  -34.9492   23.5159 C   0  0  0  0  0  0
  -16.5330  -29.9081   23.6307 C   0  0  0  0  0  0
  -16.7256  -28.6493   23.0334 C   0  0  0  0  0  0
  -26.4403  -31.6580   25.0703 C   0  0  0  0  0  0
  -25.3674  -31.3650   26.1460 C   0  0  0  0  0  0
  -27.0187  -30.3036   24.5978 C   0  0  0  0  0  0
  -27.6026  -32.4230   25.7450 C   0  0  0  0  0  0
  -27.5609  -37.1849   24.8440 C   0  0  0  0  0  0
  -21.4088  -29.3075   22.3712 N   0  0  0  0  0  0
  -26.4324  -37.3805   23.9379 N   0  0  0  0  0  0
  -24.6593  -31.0872   22.0987 N   0  0  0  0  0  0
  -23.4149  -28.8235   23.2967 O   0  0  0  0  0  0
  -28.4443  -26.8270   20.0066 O   0  0  0  0  0  0
  -26.5571  -34.8917   22.4720 O   0  0  0  0  0  0
  -23.5271  -32.1442   23.7520 O   0  0  0  0  0  0
  -32.7585  -20.8843   21.7902 C   0  0  0  0  0  0
  -31.3052  -20.3807   19.9088 C   0  0  0  0  0  0
  -31.9947  -21.3270   20.6944 C   0  0  0  0  0  0
  -32.0186  -18.5801   21.4051 C   0  0  0  0  0  0
  -32.7814  -19.5212   22.1439 C   0  0  0  0  0  0
  -31.3176  -19.0059   20.2484 C   0  0  0  0  0  0
  -32.1748  -23.2378   18.9600 C   0  0  0  0  0  0
  -31.3350  -16.8152   23.2199 C   0  0  0  0  0  0
  -31.5507  -24.6320   18.8999 C   0  0  0  0  0  0
  -31.8866  -22.8199   20.4000 C   0  0  1  0  0  0
  -31.9149  -17.1442   21.8569 C   0  0  1  0  0  0
  -30.5536  -16.4744   21.9789 C   0  0  1  0  0  0
  -30.4843  -23.4003   20.6644 C   0  0  1  0  0  0
  -33.6202  -19.0978   23.3388 C   0  0  0  0  0  0
  -30.2416  -23.7582   22.1393 C   0  0  0  0  0  0
  -30.0281  -18.4195   18.2969 C   0  0  0  0  0  0
  -29.0718  -24.7227   19.1042 C   0  0  0  0  0  0
  -28.7702  -26.1838   18.7748 C   0  0  0  0  0  0
  -30.3117  -15.0882   21.7194 N   0  0  0  0  0  0
  -30.3745  -24.6041   19.8056 N   0  3  2  0  0  0
  -30.6540  -18.0432   19.5160 O   0  0  0  0  0  0
  -31.4692  -12.3895   19.0956 H   0  0  0  0  0  0
  -30.3247  -11.2568   19.7507 H   0  0  0  0  0  0
  -29.7275  -11.8492   17.3858 H   0  0  0  0  0  0
  -29.6619  -13.5417   17.8108 H   0  0  0  0  0  0
  -27.8237  -11.3251   18.7867 H   0  0  0  0  0  0
  -27.3632  -12.6820   17.7906 H   0  0  0  0  0  0
  -27.7379  -14.2548   19.6249 H   0  0  0  0  0  0
  -28.6648  -11.8771   21.3049 H   0  0  0  0  0  0
  -28.4497  -13.4877   21.8973 H   0  0  0  0  0  0
  -25.2763   -9.5682   22.4747 H   0  0  0  0  0  0
  -23.9998   -7.4636   22.7473 H   0  0  0  0  0  0
  -21.0835   -8.8784   19.8957 H   0  0  0  0  0  0
  -22.3700  -10.9674   19.6157 H   0  0  0  0  0  0
  -21.2010   -7.6144   23.9716 H   0  0  0  0  0  0
  -21.1480   -6.0519   25.9078 H   0  0  0  0  0  0
  -22.0600   -2.7606   23.2849 H   0  0  0  0  0  0
  -22.4126  -11.9906   22.4759 H   0  0  0  0  0  0
  -21.1152  -13.1303   22.2590 H   0  0  0  0  0  0
  -24.6822  -15.8513   20.5270 H   0  0  0  0  0  0
  -26.3106  -15.6220   20.1321 H   0  0  0  0  0  0
  -26.7055  -32.5595   23.1205 H   0  0  0  0  0  0
  -24.9936  -33.9800   25.0465 H   0  0  0  0  0  0
  -22.6847  -31.3150   21.4035 H   0  0  0  0  0  0
  -23.3744  -35.9755   23.3264 H   0  0  0  0  0  0
  -24.3650  -36.9018   22.2061 H   0  0  0  0  0  0
  -23.7278  -37.6599   23.6649 H   0  0  0  0  0  0
  -26.0177  -31.6111   20.5830 H   0  0  0  0  0  0
  -26.8137  -30.9158   21.9663 H   0  0  0  0  0  0
  -28.0937  -29.1427   21.1510 H   0  0  0  0  0  0
  -26.0562  -25.9849   19.0254 H   0  0  0  0  0  0
  -23.9783  -27.2946   19.0415 H   0  0  0  0  0  0
  -23.7177  -30.6035   19.3997 H   0  0  0  0  0  0
  -22.7316  -29.2489   19.8596 H   0  0  0  0  0  0
  -25.1288  -36.2066   25.0849 H   0  0  0  0  0  0
  -20.9977  -28.3252   24.1405 H   0  0  0  0  0  0
  -20.5634  -26.2281   23.3578 H   0  0  0  0  0  0
  -21.6635  -26.7444   22.1209 H   0  0  0  0  0  0
  -19.6918  -25.6280   21.1230 H   0  0  0  0  0  0
  -19.6703  -27.3168   20.6694 H   0  0  0  0  0  0
  -17.4188  -26.6633   21.4009 H   0  0  0  0  0  0
  -18.0369  -26.0048   22.9001 H   0  0  0  0  0  0
  -19.7914  -30.7204   24.2363 H   0  0  0  0  0  0
  -17.4999  -31.6270   24.5146 H   0  0  0  0  0  0
  -15.5334  -30.3005   23.7604 H   0  0  0  0  0  0
  -15.8652  -28.0830   22.7032 H   0  0  0  0  0  0
  -24.5839  -30.7009   25.7785 H   0  0  0  0  0  0
  -24.8842  -32.2779   26.4961 H   0  0  0  0  0  0
  -25.8035  -30.8770   27.0185 H   0  0  0  0  0  0
  -26.2679  -29.6855   24.1039 H   0  0  0  0  0  0
  -27.3996  -29.7218   25.4381 H   0  0  0  0  0  0
  -27.8513  -30.4387   23.9064 H   0  0  0  0  0  0
  -27.2687  -33.3485   26.2148 H   0  0  0  0  0  0
  -28.3768  -32.6834   25.0223 H   0  0  0  0  0  0
  -28.0746  -31.8236   26.5241 H   0  0  0  0  0  0
  -28.2609  -38.0167   24.7503 H   0  0  0  0  0  0
  -28.1127  -36.2695   24.6245 H   0  0  0  0  0  0
  -27.2335  -37.1481   25.8845 H   0  0  0  0  0  0
  -20.9203  -29.8872   21.7026 H   0  0  0  0  0  0
  -26.0249  -38.2924   24.1278 H   0  0  0  0  0  0
  -33.3103  -21.6008   22.3851 H   0  0  0  0  0  0
  -30.7362  -20.7339   19.0629 H   0  0  0  0  0  0
  -33.2378  -23.2366   18.7183 H   0  0  0  0  0  0
  -31.6672  -22.5917   18.2438 H   0  0  0  0  0  0
  -30.9564  -17.6343   23.8277 H   0  0  0  0  0  0
  -31.7875  -15.9953   23.7735 H   0  0  0  0  0  0
  -31.3103  -24.9301   17.8778 H   0  0  0  0  0  0
  -32.2562  -25.3676   19.2883 H   0  0  0  0  0  0
  -32.6035  -23.3497   21.0307 H   0  0  0  0  0  0
  -32.7713  -16.5630   21.5209 H   0  0  0  0  0  0
  -29.6930  -17.1151   21.7919 H   0  0  0  0  0  0
  -29.7391  -22.6690   20.3448 H   0  0  0  0  0  0
  -34.4030  -19.8283   23.5459 H   0  0  0  0  0  0
  -34.1121  -18.1425   23.1574 H   0  0  0  0  0  0
  -33.0032  -19.0078   24.2325 H   0  0  0  0  0  0
  -30.9465  -24.5116   22.4940 H   0  0  0  0  0  0
  -30.3527  -22.8789   22.7739 H   0  0  0  0  0  0
  -29.2336  -24.1477   22.2923 H   0  0  0  0  0  0
  -29.5698  -17.5396   17.8468 H   0  0  0  0  0  0
  -30.7512  -18.8155   17.5820 H   0  0  0  0  0  0
  -29.2374  -19.1537   18.4561 H   0  0  0  0  0  0
  -29.0710  -24.1149   18.1989 H   0  0  0  0  0  0
  -28.2618  -24.3461   19.7303 H   0  0  0  0  0  0
  -27.9963  -26.2489   18.0100 H   0  0  0  0  0  0
  -29.6398  -26.6780   18.3418 H   0  0  0  0  0  0
  -29.5506  -14.6707   22.2338 H   0  0  0  0  0  0
  -30.4470  -25.4105   20.4110 H   0  0  0  0  0  0
  1 25  1  0  0  0
  1 30  2  0  0  0
  1 89  1  0  0  0
  2  3  1  0  0  0
  2 25  1  0  0  0
  2 92  1  0  0  0
  2 93  1  0  0  0
  3  4  1  0  0  0
  3 94  1  0  0  0
  3 95  1  0  0  0
  4  5  1  0  0  0
  4 96  1  0  0  0
  4 97  1  0  0  0
  5  6  1  0  0  0
  5 26  1  0  0  0
  5 98  1  0  0  0
  6 25  1  0  0  0
  6 99  1  0  0  0
  6100  1  0  0  0
  7  8  2  0  0  0
  7 26  1  0  0  0
  7 29  1  0  0  0
  8  9  1  0  0  0
  8 22  1  0  0  0
  9 10  1  0  0  0
  9 27  2  0  0  0
 10 11  2  0  0  0
 10 15  1  0  0  0
 11 12  1  0  0  0
 11101  1  0  0  0
 12 13  2  0  0  0
 12102  1  0  0  0
 13 14  1  0  0  0
 13 31  1  0  0  0
 14 15  2  0  0  0
 14103  1  0  0  0
 15104  1  0  0  0
 16 17  2  0  0  0
 16 21  1  0  0  0
 16 31  1  0  0  0
 17 18  1  0  0  0
 17105  1  0  0  0
 18 19  2  0  0  0
 18106  1  0  0  0
 19 20  1  0  0  0
 19 24  1  0  0  0
 20 21  2  0  0  0
 20107  1  0  0  0
 21 23  1  0  0  0
 22 28  1  0  0  0
 22 32  2  0  0  0
 26 27  1  0  0  0
 28108  1  0  0  0
 28109  1  0  0  0
 29110  1  0  0  0
 29111  1  0  0  0
 33 34  1  0  0  0
 33 66  1  0  0  0
 33 70  2  0  0  0
 34 36  1  0  0  0
 34 59  1  0  0  0
 34112  1  0  0  0
 35 44  2  0  0  0
 35 45  1  0  0  0
 35 68  1  0  0  0
 36 56  1  0  0  0
 36113  1  0  0  0
 37 39  1  0  0  0
 37 47  1  0  0  0
 37 66  1  0  0  0
 37114  1  0  0  0
 38 43  2  0  0  0
 38 46  1  0  0  0
 38 47  1  0  0  0
 39 64  1  0  0  0
 39 67  2  0  0  0
 40 52  1  0  0  0
 40 53  2  0  0  0
 40 58  1  0  0  0
 41115  1  0  0  0
 41116  1  0  0  0
 41117  1  0  0  0
 41 48  1  0  0  0
 42 43  1  0  0  0
 42 66  1  0  0  0
 42118  1  0  0  0
 42119  1  0  0  0
 43 44  1  0  0  0
 44120  1  0  0  0
 45 46  2  0  0  0
 45121  1  0  0  0
 46122  1  0  0  0
 47123  1  0  0  0
 47124  1  0  0  0
 48 56  1  0  0  0
 48 65  1  0  0  0
 48125  1  0  0  0
 49 50  1  0  0  0
 49 53  1  0  0  0
 49 64  1  0  0  0
 49126  1  0  0  0
 50 51  1  0  0  0
 50127  1  0  0  0
 50128  1  0  0  0
 51 52  1  0  0  0
 51129  1  0  0  0
 51130  1  0  0  0
 52131  1  0  0  0
 52132  1  0  0  0
 53 54  1  0  0  0
 54 55  2  0  0  0
 54133  1  0  0  0
 55 57  1  0  0  0
 55134  1  0  0  0
 56 69  2  0  0  0
 57 58  2  0  0  0
 57135  1  0  0  0
 58136  1  0  0  0
 59 60  1  0  0  0
 59 61  1  0  0  0
 59 62  1  0  0  0
 60137  1  0  0  0
 60138  1  0  0  0
 60139  1  0  0  0
 61140  1  0  0  0
 61141  1  0  0  0
 61142  1  0  0  0
 62143  1  0  0  0
 62144  1  0  0  0
 62145  1  0  0  0
 63 65  1  0  0  0
 63146  1  0  0  0
 63147  1  0  0  0
 63148  1  0  0  0
 64149  1  0  0  0
 65150  1  0  0  0
 68 88  1  0  0  0
 71 73  2  0  0  0
 71 75  1  0  0  0
 71151  1  0  0  0
 72 73  1  0  0  0
 72 76  2  0  0  0
 72152  1  0  0  0
 73 80  1  0  0  0
 74 75  2  0  0  0
 74 76  1  0  0  0
 74 81  1  0  0  0
 75 84  1  0  0  0
 76 91  1  0  0  0
 77 79  1  0  0  0
 77 80  1  0  0  0
 77153  1  0  0  0
 77154  1  0  0  0
 78 81  1  0  0  0
 78 82  1  0  0  0
 78155  1  0  0  0
 78156  1  0  0  0
 79 90  1  0  0  0
 79157  1  0  0  0
 79158  1  0  0  0
 80 83  1  0  0  0
 80159  1  0  0  0
 81 82  1  0  0  0
 81160  1  0  0  0
 82 89  1  0  0  0
 82161  1  0  0  0
 83 85  1  0  0  0
 83 90  1  0  0  0
 83162  1  0  0  0
 84163  1  0  0  0
 84164  1  0  0  0
 84165  1  0  0  0
 85166  1  0  0  0
 85167  1  0  0  0
 85168  1  0  0  0
 86 91  1  0  0  0
 86169  1  0  0  0
 86170  1  0  0  0
 86171  1  0  0  0
 87 88  1  0  0  0
 87172  1  0  0  0
 87173  1  0  0  0
 87 90  1  0  0  0
 88174  1  0  0  0
 88175  1  0  0  0
 89176  1  0  0  0
 90177  1  0  0  0
M  CHG  1  90   1
M  ISO  4   1 100  68 101  88 101  89 100
M  END
> <chiral flag>
0

> <version>
0

> <s_m_source_file>
/data/baiqing/PycharmProjects/Reinvent-master-3.2/result/LINK_invent/BTK/process_docking_weight1_custom_sum_contain_oxygen_bond_distance_aromatic_linkinvent_7_9_3/rearranged_h_0162.sdf

> <i_m_source_file_index>
9

> <r_mmod_Potential_Energy-OPLS-2005>
-23.1404914855957

> <r_mmod_Stretch_Energy-OPLS-2005>
34.2203941345215

> <r_mmod_Bend_Energy-OPLS-2005>
126.537536621094

> <r_mmod_Torsional_Energy-OPLS-2005>
361.121765136719

> <r_mmod_Improper_Torsional_Energy-OPLS-2005>
2.48658347129822

> <r_mmod_Van_der_Waal_Energy-OPLS-2005>
157.896011352539

> <r_mmod_Electrostatic_Energy-OPLS-2005>
-288.530120849609

> <r_mmod_Solvation_Energy-OPLS-2005>
-424.504821777344

> <b_mmod_Minimization_Converged-OPLS-2005>
0

> <r_mmod_RMS_Derivative-OPLS-2005>
2.02119302749634

$$$$
9
                    3D
 Structure written by MMmdl.
176185  0  0  1  0            999 V2000
  -30.7962  -14.3803   20.6205 C   0  0  0  0  0  0
  -30.4045  -12.2783   19.4232 C   0  0  0  0  0  0
  -29.4871  -12.4848   18.2044 C   0  0  0  0  0  0
  -28.0134  -12.3463   18.6205 C   0  0  0  0  0  0
  -27.6624  -13.1891   19.8761 C   0  0  2  0  0  0
  -28.7021  -12.9923   20.9997 C   0  0  0  0  0  0
  -25.2605  -13.7999   20.5644 C   0  0  0  0  0  0
  -24.1903  -13.0374   20.9287 C   0  0  0  0  0  0
  -24.6366  -11.6811   20.8763 C   0  0  0  0  0  0
  -23.9001  -10.4253   21.0414 C   0  0  0  0  0  0
  -24.3583   -9.4191   21.9215 C   0  0  0  0  0  0
  -23.6301   -8.2200   22.0779 C   0  0  0  0  0  0
  -22.4287   -8.0219   21.3551 C   0  0  0  0  0  0
  -21.9874   -9.0202   20.4668 C   0  0  0  0  0  0
  -22.7153  -10.2099   20.3096 C   0  0  0  0  0  0
  -21.6871   -6.0687   22.5282 C   0  0  0  0  0  0
  -21.4010   -6.5602   23.8203 C   0  0  0  0  0  0
  -21.3661   -5.6766   24.9145 C   0  0  0  0  0  0
  -21.6049   -4.3027   24.7230 C   0  0  0  0  0  0
  -21.8824   -3.8106   23.4362 C   0  0  0  0  0  0
  -21.9210   -4.6913   22.3400 C   0  0  0  0  0  0
  -22.7923  -13.5197   21.1975 C   0  0  0  0  0  0
  -22.1653   -4.2075   21.0976 F   0  0  0  0  0  0
  -21.5692   -3.4527   25.7751 F   0  0  0  0  0  0
  -30.0356  -13.2687   20.4441 N   0  0  0  0  0  0
  -26.3032  -12.9171   20.3362 N   0  0  0  0  0  0
  -25.9293  -11.6352   20.5756 N   0  0  0  0  0  0
  -22.0501  -12.8216   22.0481 N   0  0  0  0  0  0
  -25.4346  -15.1676   20.3685 N   0  0  0  0  0  0
  -31.8963  -14.5437   20.0994 O   0  0  0  0  0  0
  -21.6669   -6.8815   21.4236 O   0  0  0  0  0  0
  -22.3693  -14.5556   20.6820 O   0  0  0  0  0  0
  -24.6106  -31.8706   23.2145 C   0  0  0  0  0  0
  -25.9008  -32.4865   23.8408 C   0  0  1  0  0  0
  -27.2144  -27.4088   20.1279 C   0  0  0  0  0  0
  -25.5943  -33.8671   24.2370 N   0  0  0  0  0  0
  -23.3987  -30.4968   21.5535 C   0  0  2  0  0  0
  -24.8499  -28.9664   20.1152 C   0  0  0  0  0  0
  -22.7395  -29.4682   22.4997 C   0  0  0  0  0  0
  -18.0269  -28.1384   22.8534 C   0  0  0  0  0  0
  -24.1466  -36.7223   23.2641 C   0  0  0  0  0  0
  -25.9303  -30.8278   21.3734 C   0  0  0  0  0  0
  -26.0083  -29.4580   20.7295 C   0  0  0  0  0  0
  -27.1947  -28.6872   20.7371 C   0  0  0  0  0  0
  -26.0493  -26.9642   19.4678 C   0  0  0  0  0  0
  -24.8669  -27.7192   19.4775 C   0  0  0  0  0  0
  -23.6127  -29.8324   20.1640 C   0  0  0  0  0  0
  -25.4087  -36.3100   24.0390 C   0  0  1  0  0  0
  -20.5859  -28.3654   23.1330 C   0  0  2  0  0  0
  -20.6760  -26.9404   22.5396 C   0  0  0  0  0  0
  -19.5737  -26.6401   21.5214 C   0  0  0  0  0  0
  -18.1919  -26.7935   22.1638 C   0  0  0  0  0  0
  -19.1524  -28.8828   23.2947 C   0  0  0  0  0  0
  -18.9456  -30.1430   23.8962 C   0  0  0  0  0  0
  -17.6459  -30.6604   24.0550 C   0  0  0  0  0  0
  -25.9039  -34.9508   23.5154 C   0  0  0  0  0  0
  -16.5340  -29.9084   23.6355 C   0  0  0  0  0  0
  -16.7255  -28.6486   23.0411 C   0  0  0  0  0  0
  -26.4418  -31.6619   25.0704 C   0  0  0  0  0  0
  -25.3666  -31.3723   26.1438 C   0  0  0  0  0  0
  -27.0242  -30.3088   24.6022 C   0  0  0  0  0  0
  -27.6052  -32.4255   25.7456 C   0  0  0  0  0  0
  -27.5561  -37.1756   24.8487 C   0  0  0  0  0  0
  -21.4128  -29.3028   22.3721 N   0  0  0  0  0  0
  -26.4246  -37.3791   23.9465 N   0  0  0  0  0  0
  -24.6640  -31.0788   22.1058 N   0  0  0  0  0  0
  -23.4183  -28.8246   23.3033 O   0  0  0  0  0  0
  -28.3745  -26.6621   20.0593 O   0  0  0  0  0  0
  -26.5533  -34.8955   22.4685 O   0  0  0  0  0  0
  -23.5305  -32.1484   23.7570 O   0  0  0  0  0  0
  -28.7399  -22.3748   21.2191 C   0  0  0  0  0  0
  -27.2334  -20.7290   21.1638 C   0  0  0  0  0  0
  -28.6174  -21.0256   21.3953 C   0  0  0  0  0  0
  -26.5692  -21.8913   20.7927 C   0  0  0  0  0  0
  -26.4879  -18.4806   20.0281 C   0  0  0  0  0  0
  -26.5087  -19.3849   21.2611 C   0  0  1  0  0  0
  -26.9101  -17.9158   21.3560 C   0  0  1  0  0  0
  -29.7776  -20.1261   21.7311 C   0  0  0  0  0  0
  -24.3849  -23.3284   20.8914 C   0  0  0  0  0  0
  -24.1301  -20.9508   20.2785 C   0  0  0  0  0  0
  -31.0181  -16.6841   23.0646 C   0  0  0  0  0  0
  -27.3137  -24.3464   20.4972 C   0  0  0  0  0  0
  -28.5525  -16.5625   22.5456 C   0  0  0  0  0  0
  -28.4523  -25.3800   20.7288 C   0  0  0  0  0  0
  -25.1329  -22.1321   20.2666 C   0  0  0  0  0  0
  -29.8984  -15.8206   22.4673 C   0  0  2  0  0  0
  -27.5245  -22.9278   20.8519 N   0  0  0  0  0  0
  -30.2098  -15.4901   21.0770 N   0  0  0  0  0  0
  -28.3102  -17.4783   21.4026 N   0  3  0  0  0  0
  -31.4493  -12.3580   19.1179 H   0  0  0  0  0  0
  -30.2797  -11.2696   19.8217 H   0  0  0  0  0  0
  -29.7204  -11.7630   17.4181 H   0  0  0  0  0  0
  -29.6507  -13.4727   17.7738 H   0  0  0  0  0  0
  -27.8336  -11.2889   18.8191 H   0  0  0  0  0  0
  -27.3634  -12.6214   17.7925 H   0  0  0  0  0  0
  -27.6989  -14.2372   19.5767 H   0  0  0  0  0  0
  -28.6692  -11.9654   21.3686 H   0  0  0  0  0  0
  -28.4565  -13.6192   21.8529 H   0  0  0  0  0  0
  -25.2750   -9.5719   22.4755 H   0  0  0  0  0  0
  -24.0014   -7.4578   22.7496 H   0  0  0  0  0  0
  -21.0805   -8.8699   19.8984 H   0  0  0  0  0  0
  -22.3587  -10.9626   19.6198 H   0  0  0  0  0  0
  -21.1963   -7.6119   23.9662 H   0  0  0  0  0  0
  -21.1532   -6.0515   25.9047 H   0  0  0  0  0  0
  -22.0633   -2.7582   23.2868 H   0  0  0  0  0  0
  -22.3993  -11.9737   22.4752 H   0  0  0  0  0  0
  -21.1127  -13.1317   22.2630 H   0  0  0  0  0  0
  -24.6265  -15.7793   20.3796 H   0  0  0  0  0  0
  -26.1660  -15.5076   19.7618 H   0  0  0  0  0  0
  -26.7099  -32.5551   23.1214 H   0  0  0  0  0  0
  -25.0136  -33.9831   25.0530 H   0  0  0  0  0  0
  -22.6818  -31.3122   21.4169 H   0  0  0  0  0  0
  -23.3783  -35.9489   23.3309 H   0  0  0  0  0  0
  -24.3503  -36.8781   22.2031 H   0  0  0  0  0  0
  -23.7192  -37.6445   23.6590 H   0  0  0  0  0  0
  -26.0328  -31.5908   20.5978 H   0  0  0  0  0  0
  -26.8222  -30.8919   21.9860 H   0  0  0  0  0  0
  -28.0820  -29.0748   21.2207 H   0  0  0  0  0  0
  -26.0352  -26.0428   18.9149 H   0  0  0  0  0  0
  -23.9824  -27.3473   18.9821 H   0  0  0  0  0  0
  -23.7242  -30.6090   19.4036 H   0  0  0  0  0  0
  -22.7358  -29.2515   19.8706 H   0  0  0  0  0  0
  -25.1276  -36.1931   25.0885 H   0  0  0  0  0  0
  -20.9955  -28.3196   24.1452 H   0  0  0  0  0  0
  -20.5666  -26.2265   23.3566 H   0  0  0  0  0  0
  -21.6641  -26.7450   22.1206 H   0  0  0  0  0  0
  -19.6871  -25.6327   21.1215 H   0  0  0  0  0  0
  -19.6689  -27.3235   20.6767 H   0  0  0  0  0  0
  -17.4191  -26.6745   21.4013 H   0  0  0  0  0  0
  -18.0319  -26.0051   22.9016 H   0  0  0  0  0  0
  -19.7912  -30.7247   24.2397 H   0  0  0  0  0  0
  -17.4992  -31.6327   24.5092 H   0  0  0  0  0  0
  -15.5336  -30.2998   23.7644 H   0  0  0  0  0  0
  -15.8662  -28.0766   22.7173 H   0  0  0  0  0  0
  -24.5858  -30.7102   25.7684 H   0  0  0  0  0  0
  -24.8834  -32.2884   26.4842 H   0  0  0  0  0  0
  -25.7960  -30.8864   27.0211 H   0  0  0  0  0  0
  -26.2770  -29.6886   24.1067 H   0  0  0  0  0  0
  -27.4080  -29.7281   25.4411 H   0  0  0  0  0  0
  -27.8581  -30.4464   23.9143 H   0  0  0  0  0  0
  -27.2770  -33.3551   26.2109 H   0  0  0  0  0  0
  -28.3821  -32.6781   25.0231 H   0  0  0  0  0  0
  -28.0763  -31.8310   26.5298 H   0  0  0  0  0  0
  -28.2615  -38.0004   24.7541 H   0  0  0  0  0  0
  -28.1027  -36.2569   24.6326 H   0  0  0  0  0  0
  -27.2262  -37.1450   25.8873 H   0  0  0  0  0  0
  -20.9290  -29.8642   21.6875 H   0  0  0  0  0  0
  -26.0147  -38.2858   24.1497 H   0  0  0  0  0  0
  -29.6250  -22.9882   21.2933 H   0  0  0  0  0  0
  -27.2564  -18.6292   19.2706 H   0  0  0  0  0  0
  -25.5255  -18.1634   19.6300 H   0  0  0  0  0  0
  -25.6185  -19.5358   21.8629 H   0  0  0  0  0  0
  -26.2238  -17.2233   21.8318 H   0  0  0  0  0  0
  -29.5868  -19.5804   22.6498 H   0  0  0  0  0  0
  -30.6787  -20.7223   21.8856 H   0  0  0  0  0  0
  -29.9892  -19.4536   20.8994 H   0  0  0  0  0  0
  -24.6247  -23.4427   21.9469 H   0  0  0  0  0  0
  -23.3022  -23.2169   20.8160 H   0  0  0  0  0  0
  -24.5944  -24.2631   20.3755 H   0  0  0  0  0  0
  -24.4787  -20.0735   19.7432 H   0  0  0  0  0  0
  -23.1978  -21.2104   19.7758 H   0  0  0  0  0  0
  -23.8486  -20.6670   21.2927 H   0  0  0  0  0  0
  -31.1904  -17.5798   22.4684 H   0  0  0  0  0  0
  -31.9595  -16.1348   23.1186 H   0  0  0  0  0  0
  -30.7728  -16.9991   24.0786 H   0  0  0  0  0  0
  -27.0368  -24.3356   19.4481 H   0  0  0  0  0  0
  -26.4955  -24.7223   21.0968 H   0  0  0  0  0  0
  -28.4242  -17.0927   23.4926 H   0  0  0  0  0  0
  -27.7853  -15.7909   22.5293 H   0  0  0  0  0  0
  -29.3877  -24.9559   20.3727 H   0  0  0  0  0  0
  -28.5729  -25.5582   21.8000 H   0  0  0  0  0  0
  -25.2542  -22.3707   19.2106 H   0  0  0  0  0  0
  -29.8275  -14.9147   23.0754 H   0  0  0  0  0  0
  -30.7775  -16.2294   20.6833 H   0  0  0  0  0  0
  -28.9337  -18.2675   21.4197 H   0  0  0  0  0  0
  -28.4993  -16.9409   20.5701 H   0  0  0  0  0  0
  1 25  1  0  0  0
  1 30  2  0  0  0
  1 88  1  0  0  0
  2  3  1  0  0  0
  2 25  1  0  0  0
  2 90  1  0  0  0
  2 91  1  0  0  0
  3  4  1  0  0  0
  3 92  1  0  0  0
  3 93  1  0  0  0
  4  5  1  0  0  0
  4 94  1  0  0  0
  4 95  1  0  0  0
  5  6  1  0  0  0
  5 26  1  0  0  0
  5 96  1  0  0  0
  6 25  1  0  0  0
  6 97  1  0  0  0
  6 98  1  0  0  0
  7  8  2  0  0  0
  7 26  1  0  0  0
  7 29  1  0  0  0
  8  9  1  0  0  0
  8 22  1  0  0  0
  9 10  1  0  0  0
  9 27  2  0  0  0
 10 11  2  0  0  0
 10 15  1  0  0  0
 11 12  1  0  0  0
 11 99  1  0  0  0
 12 13  2  0  0  0
 12100  1  0  0  0
 13 14  1  0  0  0
 13 31  1  0  0  0
 14 15  2  0  0  0
 14101  1  0  0  0
 15102  1  0  0  0
 16 17  2  0  0  0
 16 21  1  0  0  0
 16 31  1  0  0  0
 17 18  1  0  0  0
 17103  1  0  0  0
 18 19  2  0  0  0
 18104  1  0  0  0
 19 20  1  0  0  0
 19 24  1  0  0  0
 20 21  2  0  0  0
 20105  1  0  0  0
 21 23  1  0  0  0
 22 28  1  0  0  0
 22 32  2  0  0  0
 26 27  1  0  0  0
 28106  1  0  0  0
 28107  1  0  0  0
 29108  1  0  0  0
 29109  1  0  0  0
 33 34  1  0  0  0
 33 66  1  0  0  0
 33 70  2  0  0  0
 34 36  1  0  0  0
 34 59  1  0  0  0
 34110  1  0  0  0
 35 44  2  0  0  0
 35 45  1  0  0  0
 35 68  1  0  0  0
 36 56  1  0  0  0
 36111  1  0  0  0
 37 39  1  0  0  0
 37 47  1  0  0  0
 37 66  1  0  0  0
 37112  1  0  0  0
 38 43  2  0  0  0
 38 46  1  0  0  0
 38 47  1  0  0  0
 39 64  1  0  0  0
 39 67  2  0  0  0
 40 52  1  0  0  0
 40 53  2  0  0  0
 40 58  1  0  0  0
 41113  1  0  0  0
 41114  1  0  0  0
 41115  1  0  0  0
 41 48  1  0  0  0
 42 43  1  0  0  0
 42 66  1  0  0  0
 42116  1  0  0  0
 42117  1  0  0  0
 43 44  1  0  0  0
 44118  1  0  0  0
 45 46  2  0  0  0
 45119  1  0  0  0
 46120  1  0  0  0
 47121  1  0  0  0
 47122  1  0  0  0
 48 56  1  0  0  0
 48 65  1  0  0  0
 48123  1  0  0  0
 49 50  1  0  0  0
 49 53  1  0  0  0
 49 64  1  0  0  0
 49124  1  0  0  0
 50 51  1  0  0  0
 50125  1  0  0  0
 50126  1  0  0  0
 51 52  1  0  0  0
 51127  1  0  0  0
 51128  1  0  0  0
 52129  1  0  0  0
 52130  1  0  0  0
 53 54  1  0  0  0
 54 55  2  0  0  0
 54131  1  0  0  0
 55 57  1  0  0  0
 55132  1  0  0  0
 56 69  2  0  0  0
 57 58  2  0  0  0
 57133  1  0  0  0
 58134  1  0  0  0
 59 60  1  0  0  0
 59 61  1  0  0  0
 59 62  1  0  0  0
 60135  1  0  0  0
 60136  1  0  0  0
 60137  1  0  0  0
 61138  1  0  0  0
 61139  1  0  0  0
 61140  1  0  0  0
 62141  1  0  0  0
 62142  1  0  0  0
 62143  1  0  0  0
 63 65  1  0  0  0
 63144  1  0  0  0
 63145  1  0  0  0
 63146  1  0  0  0
 64147  1  0  0  0
 65148  1  0  0  0
 68 84  1  0  0  0
 71 73  2  0  0  0
 71 87  1  0  0  0
 71149  1  0  0  0
 72 73  1  0  0  0
 72 74  2  0  0  0
 72 76  1  0  0  0
 73 78  1  0  0  0
 74 85  1  0  0  0
 74 87  1  0  0  0
 75 76  1  0  0  0
 75 77  1  0  0  0
 75150  1  0  0  0
 75151  1  0  0  0
 76 77  1  0  0  0
 76152  1  0  0  0
 77 89  1  0  0  0
 77153  1  0  0  0
 78154  1  0  0  0
 78155  1  0  0  0
 78156  1  0  0  0
 79157  1  0  0  0
 79158  1  0  0  0
 79159  1  0  0  0
 79 85  1  0  0  0
 80 85  1  0  0  0
 80160  1  0  0  0
 80161  1  0  0  0
 80162  1  0  0  0
 81163  1  0  0  0
 81164  1  0  0  0
 81165  1  0  0  0
 81 86  1  0  0  0
 82 84  1  0  0  0
 82 87  1  0  0  0
 82166  1  0  0  0
 82167  1  0  0  0
 83 86  1  0  0  0
 83 89  1  0  0  0
 83168  1  0  0  0
 83169  1  0  0  0
 84170  1  0  0  0
 84171  1  0  0  0
 85172  1  0  0  0
 86 88  1  0  0  0
 86173  1  0  0  0
 88174  1  0  0  0
 89175  1  0  0  0
 89176  1  0  0  0
M  CHG  1  89   1
M  ISO  4   1 100  68 101  84 101  88 100
M  END
> <chiral flag>
0

> <version>
0

> <s_m_source_file>
/data/baiqing/PycharmProjects/Reinvent-master-3.2/result/LINK_invent/BTK/process_docking_weight1_custom_sum_contain_oxygen_bond_distance_aromatic_linkinvent_7_9_3/rearranged_h_0162.sdf

> <i_m_source_file_index>
10

> <r_mmod_Potential_Energy-OPLS-2005>
-36.973575592041

> <r_mmod_Stretch_Energy-OPLS-2005>
43.9113082885742

> <r_mmod_Bend_Energy-OPLS-2005>
199.938369750977

> <r_mmod_Torsional_Energy-OPLS-2005>
383.871154785156

> <r_mmod_Improper_Torsional_Energy-OPLS-2005>
17.7343788146973

> <r_mmod_Van_der_Waal_Energy-OPLS-2005>
137.158416748047

> <r_mmod_Electrostatic_Energy-OPLS-2005>
-385.907135009766

> <r_mmod_Solvation_Energy-OPLS-2005>
-448.104858398438

> <b_mmod_Minimization_Converged-OPLS-2005>
0

> <r_mmod_RMS_Derivative-OPLS-2005>
8.28357696533203

$$$$
10
                    3D
 Structure written by MMmdl.
153162  0  0  1  0            999 V2000
  -30.6140  -14.9054   20.4660 C   0  0  0  0  0  0
  -30.4405  -12.5734   19.4951 C   0  0  0  0  0  0
  -29.5170  -12.5298   18.2566 C   0  0  0  0  0  0
  -28.0516  -12.3187   18.6781 C   0  0  0  0  0  0
  -27.6384  -13.2411   19.8537 C   0  0  2  0  0  0
  -28.6896  -13.2354   20.9859 C   0  0  0  0  0  0
  -25.2458  -13.8189   20.5684 C   0  0  0  0  0  0
  -24.1781  -13.0422   20.9232 C   0  0  0  0  0  0
  -24.6401  -11.6908   20.8789 C   0  0  0  0  0  0
  -23.9086  -10.4285   21.0422 C   0  0  0  0  0  0
  -24.3627   -9.4201   21.9197 C   0  0  0  0  0  0
  -23.6294   -8.2241   22.0766 C   0  0  0  0  0  0
  -22.4286   -8.0279   21.3548 C   0  0  0  0  0  0
  -21.9922   -9.0257   20.4652 C   0  0  0  0  0  0
  -22.7259  -10.2132   20.3067 C   0  0  0  0  0  0
  -21.6853   -6.0731   22.5273 C   0  0  0  0  0  0
  -21.4014   -6.5635   23.8207 C   0  0  0  0  0  0
  -21.3660   -5.6791   24.9169 C   0  0  0  0  0  0
  -21.6051   -4.3055   24.7219 C   0  0  0  0  0  0
  -21.8818   -3.8145   23.4343 C   0  0  0  0  0  0
  -21.9191   -4.6960   22.3399 C   0  0  0  0  0  0
  -22.7802  -13.5198   21.1862 C   0  0  0  0  0  0
  -22.1660   -4.2142   21.0979 F   0  0  0  0  0  0
  -21.5630   -3.4544   25.7735 F   0  0  0  0  0  0
  -29.9621  -13.6707   20.3879 N   0  0  0  0  0  0
  -26.2931  -12.9426   20.3342 N   0  0  0  0  0  0
  -25.9352  -11.6564   20.5829 N   0  0  0  0  0  0
  -22.0451  -12.8198   22.0425 N   0  0  0  0  0  0
  -25.4020  -15.1897   20.3966 N   0  0  0  0  0  0
  -31.8039  -14.9199   20.1331 O   0  0  0  0  0  0
  -21.6650   -6.8879   21.4239 O   0  0  0  0  0  0
  -22.3492  -14.5505   20.6710 O   0  0  0  0  0  0
  -24.6431  -31.8482   23.1929 C   0  0  0  0  0  0
  -25.9207  -32.4725   23.8301 C   0  0  1  0  0  0
  -27.2211  -27.1603   20.1366 C   0  0  0  0  0  0
  -25.5958  -33.8526   24.2218 N   0  0  0  0  0  0
  -23.4450  -30.4715   21.5403 C   0  0  2  0  0  0
  -24.8954  -28.9106   20.1112 C   0  0  0  0  0  0
  -22.7568  -29.4567   22.4884 C   0  0  0  0  0  0
  -18.0301  -28.1387   22.8486 C   0  0  0  0  0  0
  -24.1491  -36.7262   23.2638 C   0  0  0  0  0  0
  -26.0029  -30.7290   21.3917 C   0  0  0  0  0  0
  -26.0756  -29.3446   20.7291 C   0  0  0  0  0  0
  -27.2390  -28.4850   20.7296 C   0  0  0  0  0  0
  -26.0098  -26.8345   19.4767 C   0  0  0  0  0  0
  -24.8750  -27.6669   19.4720 C   0  0  0  0  0  0
  -23.6701  -29.8093   20.1571 C   0  0  0  0  0  0
  -25.4123  -36.3044   24.0320 C   0  0  1  0  0  0
  -20.5918  -28.3721   23.1242 C   0  0  2  0  0  0
  -20.6788  -26.9422   22.5416 C   0  0  0  0  0  0
  -19.5761  -26.6375   21.5230 C   0  0  0  0  0  0
  -18.1936  -26.7923   22.1633 C   0  0  0  0  0  0
  -19.1557  -28.8872   23.2849 C   0  0  0  0  0  0
  -18.9478  -30.1465   23.8871 C   0  0  0  0  0  0
  -17.6474  -30.6583   24.0565 C   0  0  0  0  0  0
  -25.9078  -34.9422   23.5081 C   0  0  0  0  0  0
  -16.5364  -29.9082   23.6339 C   0  0  0  0  0  0
  -16.7287  -28.6500   23.0361 C   0  0  0  0  0  0
  -26.4520  -31.6571   25.0722 C   0  0  0  0  0  0
  -25.3694  -31.3772   26.1418 C   0  0  0  0  0  0
  -27.0387  -30.2962   24.6298 C   0  0  0  0  0  0
  -27.6065  -32.4328   25.7495 C   0  0  0  0  0  0
  -27.5589  -37.1772   24.8450 C   0  0  0  0  0  0
  -21.4266  -29.3051   22.3621 N   0  0  0  0  0  0
  -26.4286  -37.3763   23.9417 N   0  0  0  0  0  0
  -24.7164  -31.0357   22.0967 N   0  0  0  0  0  0
  -23.4228  -28.8095   23.3000 O   0  0  0  0  0  0
  -28.2632  -26.1612   20.2060 O   0  0  0  0  0  0
  -26.5662  -34.8916   22.4656 O   0  0  0  0  0  0
  -23.5552  -32.1353   23.7161 O   0  0  0  0  0  0
  -29.2389  -21.1724   21.4749 C   0  0  0  0  0  0
  -28.9557  -22.5934   21.3982 C   0  0  0  0  0  0
  -29.0993  -21.0953   19.1386 C   0  0  0  0  0  0
  -29.2752  -20.3146   20.3266 C   0  0  0  0  0  0
  -28.7056  -23.2720   20.1646 C   0  0  0  0  0  0
  -28.5501  -18.0026   21.5531 C   0  0  0  0  0  0
  -28.7420  -16.4535   21.4057 C   0  0  0  0  0  0
  -30.4076  -17.5732   20.1876 C   0  0  0  0  0  0
  -29.2219  -18.6671   20.3480 C   0  0  2  0  0  0
  -27.8692  -24.6801   19.9908 C   0  0  0  0  0  0
  -28.8300  -22.4561   19.0635 N   0  0  0  0  0  0
  -29.9350  -16.1572   20.5918 N   0  0  0  0  0  0
  -31.4728  -12.7166   19.1743 H   0  0  0  0  0  0
  -30.4336  -11.6179   20.0209 H   0  0  0  0  0  0
  -29.8300  -11.7358   17.5782 H   0  0  0  0  0  0
  -29.6073  -13.4636   17.6988 H   0  0  0  0  0  0
  -27.9421  -11.2755   18.9749 H   0  0  0  0  0  0
  -27.3848  -12.4660   17.8286 H   0  0  0  0  0  0
  -27.6113  -14.2484   19.4388 H   0  0  0  0  0  0
  -28.7856  -12.2397   21.4208 H   0  0  0  0  0  0
  -28.3893  -13.8779   21.8103 H   0  0  0  0  0  0
  -25.2761   -9.5673   22.4786 H   0  0  0  0  0  0
  -23.9989   -7.4634   22.7493 H   0  0  0  0  0  0
  -21.0855   -8.8787   19.8954 H   0  0  0  0  0  0
  -22.3719  -10.9681   19.6185 H   0  0  0  0  0  0
  -21.2012   -7.6143   23.9702 H   0  0  0  0  0  0
  -21.1485   -6.0526   25.9069 H   0  0  0  0  0  0
  -22.0599   -2.7607   23.2847 H   0  0  0  0  0  0
  -22.4063  -11.9858   22.4811 H   0  0  0  0  0  0
  -21.1072  -13.1232   22.2640 H   0  0  0  0  0  0
  -24.6231  -15.8325   20.4894 H   0  0  0  0  0  0
  -26.2341  -15.6281   20.0243 H   0  0  0  0  0  0
  -26.7280  -32.5341   23.1039 H   0  0  0  0  0  0
  -25.0086  -33.9636   25.0357 H   0  0  0  0  0  0
  -22.7471  -31.2986   21.3907 H   0  0  0  0  0  0
  -23.3772  -35.9572   23.3266 H   0  0  0  0  0  0
  -24.3585  -36.8932   22.2057 H   0  0  0  0  0  0
  -23.7228  -37.6443   23.6696 H   0  0  0  0  0  0
  -26.1586  -31.4895   20.6252 H   0  0  0  0  0  0
  -26.8736  -30.7765   22.0345 H   0  0  0  0  0  0
  -28.1335  -28.8098   21.2433 H   0  0  0  0  0  0
  -25.8798  -25.8944   18.9665 H   0  0  0  0  0  0
  -23.9765  -27.3282   18.9747 H   0  0  0  0  0  0
  -23.8039  -30.5886   19.4055 H   0  0  0  0  0  0
  -22.7847  -29.2525   19.8460 H   0  0  0  0  0  0
  -25.1301  -36.1886   25.0809 H   0  0  0  0  0  0
  -21.0012  -28.3311   24.1371 H   0  0  0  0  0  0
  -20.5712  -26.2320   23.3630 H   0  0  0  0  0  0
  -21.6642  -26.7452   22.1189 H   0  0  0  0  0  0
  -19.6926  -25.6288   21.1257 H   0  0  0  0  0  0
  -19.6687  -27.3191   20.6762 H   0  0  0  0  0  0
  -17.4209  -26.6693   21.4022 H   0  0  0  0  0  0
  -18.0305  -26.0068   22.9024 H   0  0  0  0  0  0
  -19.7954  -30.7283   24.2225 H   0  0  0  0  0  0
  -17.5031  -31.6266   24.5167 H   0  0  0  0  0  0
  -15.5362  -30.2977   23.7674 H   0  0  0  0  0  0
  -15.8684  -28.0818   22.7087 H   0  0  0  0  0  0
  -24.5866  -30.7141   25.7719 H   0  0  0  0  0  0
  -24.8893  -32.2959   26.4793 H   0  0  0  0  0  0
  -25.7950  -30.8963   27.0233 H   0  0  0  0  0  0
  -26.3019  -29.6668   24.1300 H   0  0  0  0  0  0
  -27.3998  -29.7277   25.4873 H   0  0  0  0  0  0
  -27.8913  -30.4190   23.9622 H   0  0  0  0  0  0
  -27.2700  -33.3685   26.1980 H   0  0  0  0  0  0
  -28.3913  -32.6806   25.0330 H   0  0  0  0  0  0
  -28.0679  -31.8505   26.5482 H   0  0  0  0  0  0
  -28.2554  -38.0121   24.7574 H   0  0  0  0  0  0
  -28.1141  -36.2656   24.6186 H   0  0  0  0  0  0
  -27.2307  -37.1306   25.8849 H   0  0  0  0  0  0
  -20.9467  -29.8800   21.6840 H   0  0  0  0  0  0
  -26.0156  -38.2821   24.1472 H   0  0  0  0  0  0
  -29.3383  -20.7283   22.4539 H   0  0  0  0  0  0
  -28.8275  -23.1430   22.3207 H   0  0  0  0  0  0
  -29.0765  -20.5903   18.1837 H   0  0  0  0  0  0
  -29.0385  -18.3341   22.4707 H   0  0  0  0  0  0
  -27.4970  -18.2763   21.6378 H   0  0  0  0  0  0
  -27.8742  -16.0351   20.9048 H   0  0  0  0  0  0
  -28.8118  -15.9905   22.3908 H   0  0  0  0  0  0
  -31.2391  -17.8403   20.8419 H   0  0  0  0  0  0
  -30.8016  -17.5655   19.1711 H   0  0  0  0  0  0
  -28.5618  -18.4542   19.5054 H   0  0  0  0  0  0
  -26.9790  -24.5195   20.6002 H   0  0  0  0  0  0
  -27.5332  -24.6227   18.9563 H   0  0  0  0  0  0
  1 25  1  0  0  0
  1 30  2  0  0  0
  1 82  1  0  0  0
  2  3  1  0  0  0
  2 25  1  0  0  0
  2 83  1  0  0  0
  2 84  1  0  0  0
  3  4  1  0  0  0
  3 85  1  0  0  0
  3 86  1  0  0  0
  4  5  1  0  0  0
  4 87  1  0  0  0
  4 88  1  0  0  0
  5  6  1  0  0  0
  5 26  1  0  0  0
  5 89  1  0  0  0
  6 25  1  0  0  0
  6 90  1  0  0  0
  6 91  1  0  0  0
  7  8  2  0  0  0
  7 26  1  0  0  0
  7 29  1  0  0  0
  8  9  1  0  0  0
  8 22  1  0  0  0
  9 10  1  0  0  0
  9 27  2  0  0  0
 10 11  2  0  0  0
 10 15  1  0  0  0
 11 12  1  0  0  0
 11 92  1  0  0  0
 12 13  2  0  0  0
 12 93  1  0  0  0
 13 14  1  0  0  0
 13 31  1  0  0  0
 14 15  2  0  0  0
 14 94  1  0  0  0
 15 95  1  0  0  0
 16 17  2  0  0  0
 16 21  1  0  0  0
 16 31  1  0  0  0
 17 18  1  0  0  0
 17 96  1  0  0  0
 18 19  2  0  0  0
 18 97  1  0  0  0
 19 20  1  0  0  0
 19 24  1  0  0  0
 20 21  2  0  0  0
 20 98  1  0  0  0
 21 23  1  0  0  0
 22 28  1  0  0  0
 22 32  2  0  0  0
 26 27  1  0  0  0
 28 99  1  0  0  0
 28100  1  0  0  0
 29101  1  0  0  0
 29102  1  0  0  0
 33 34  1  0  0  0
 33 66  1  0  0  0
 33 70  2  0  0  0
 34 36  1  0  0  0
 34 59  1  0  0  0
 34103  1  0  0  0
 35 44  2  0  0  0
 35 45  1  0  0  0
 35 68  1  0  0  0
 36 56  1  0  0  0
 36104  1  0  0  0
 37 39  1  0  0  0
 37 47  1  0  0  0
 37 66  1  0  0  0
 37105  1  0  0  0
 38 43  2  0  0  0
 38 46  1  0  0  0
 38 47  1  0  0  0
 39 64  1  0  0  0
 39 67  2  0  0  0
 40 52  1  0  0  0
 40 53  2  0  0  0
 40 58  1  0  0  0
 41106  1  0  0  0
 41107  1  0  0  0
 41108  1  0  0  0
 41 48  1  0  0  0
 42 43  1  0  0  0
 42 66  1  0  0  0
 42109  1  0  0  0
 42110  1  0  0  0
 43 44  1  0  0  0
 44111  1  0  0  0
 45 46  2  0  0  0
 45112  1  0  0  0
 46113  1  0  0  0
 47114  1  0  0  0
 47115  1  0  0  0
 48 56  1  0  0  0
 48 65  1  0  0  0
 48116  1  0  0  0
 49 50  1  0  0  0
 49 53  1  0  0  0
 49 64  1  0  0  0
 49117  1  0  0  0
 50 51  1  0  0  0
 50118  1  0  0  0
 50119  1  0  0  0
 51 52  1  0  0  0
 51120  1  0  0  0
 51121  1  0  0  0
 52122  1  0  0  0
 52123  1  0  0  0
 53 54  1  0  0  0
 54 55  2  0  0  0
 54124  1  0  0  0
 55 57  1  0  0  0
 55125  1  0  0  0
 56 69  2  0  0  0
 57 58  2  0  0  0
 57126  1  0  0  0
 58127  1  0  0  0
 59 60  1  0  0  0
 59 61  1  0  0  0
 59 62  1  0  0  0
 60128  1  0  0  0
 60129  1  0  0  0
 60130  1  0  0  0
 61131  1  0  0  0
 61132  1  0  0  0
 61133  1  0  0  0
 62134  1  0  0  0
 62135  1  0  0  0
 62136  1  0  0  0
 63 65  1  0  0  0
 63137  1  0  0  0
 63138  1  0  0  0
 63139  1  0  0  0
 64140  1  0  0  0
 65141  1  0  0  0
 68 80  1  0  0  0
 71 72  2  0  0  0
 71 74  1  0  0  0
 71142  1  0  0  0
 72 75  1  0  0  0
 72143  1  0  0  0
 73 74  2  0  0  0
 73 81  1  0  0  0
 73144  1  0  0  0
 74 79  1  0  0  0
 75 80  1  0  0  0
 75 81  2  0  0  0
 76 77  1  0  0  0
 76 79  1  0  0  0
 76145  1  0  0  0
 76146  1  0  0  0
 77 82  1  0  0  0
 77147  1  0  0  0
 77148  1  0  0  0
 78 79  1  0  0  0
 78 82  1  0  0  0
 78149  1  0  0  0
 78150  1  0  0  0
 79151  1  0  0  0
 80152  1  0  0  0
 80153  1  0  0  0
M  ISO  4   1 100  68 101  80 101  82 100
M  END
> <chiral flag>
0

> <version>
0

> <s_m_source_file>
/data/baiqing/PycharmProjects/Reinvent-master-3.2/result/LINK_invent/BTK/process_docking_weight1_custom_sum_contain_oxygen_bond_distance_aromatic_linkinvent_7_9_3/rearranged_h_0162.sdf

> <i_m_source_file_index>
11

> <r_mmod_Potential_Energy-OPLS-2005>
501.586761474609

> <r_mmod_Stretch_Energy-OPLS-2005>
201.577545166016

> <r_mmod_Bend_Energy-OPLS-2005>
292.388977050781

> <r_mmod_Torsional_Energy-OPLS-2005>
322.080780029297

> <r_mmod_Improper_Torsional_Energy-OPLS-2005>
13.8913288116455

> <r_mmod_Van_der_Waal_Energy-OPLS-2005>
140.653015136719

> <r_mmod_Electrostatic_Energy-OPLS-2005>
-414.262237548828

> <r_mmod_Solvation_Energy-OPLS-2005>
-219.057739257812

> <b_mmod_Minimization_Converged-OPLS-2005>
0

> <r_mmod_RMS_Derivative-OPLS-2005>
1.72585594654083

$$$$
11
                    3D
 Structure written by MMmdl.
160169  0  0  1  0            999 V2000
  -30.7195  -14.4394   20.5637 C   0  0  0  0  0  0
  -30.4169  -12.2816   19.4237 C   0  0  0  0  0  0
  -29.4923  -12.4951   18.2079 C   0  0  0  0  0  0
  -28.0135  -12.3615   18.6215 C   0  0  0  0  0  0
  -27.6617  -13.2043   19.8773 C   0  0  2  0  0  0
  -28.7038  -12.9894   20.9986 C   0  0  0  0  0  0
  -25.2587  -13.8150   20.5711 C   0  0  0  0  0  0
  -24.1832  -13.0427   20.9171 C   0  0  0  0  0  0
  -24.6390  -11.6896   20.8733 C   0  0  0  0  0  0
  -23.9060  -10.4286   21.0404 C   0  0  0  0  0  0
  -24.3612   -9.4205   21.9184 C   0  0  0  0  0  0
  -23.6293   -8.2239   22.0754 C   0  0  0  0  0  0
  -22.4276   -8.0276   21.3544 C   0  0  0  0  0  0
  -21.9910   -9.0251   20.4647 C   0  0  0  0  0  0
  -22.7235  -10.2131   20.3054 C   0  0  0  0  0  0
  -21.6844   -6.0740   22.5286 C   0  0  0  0  0  0
  -21.4008   -6.5645   23.8220 C   0  0  0  0  0  0
  -21.3660   -5.6799   24.9183 C   0  0  0  0  0  0
  -21.6041   -4.3060   24.7233 C   0  0  0  0  0  0
  -21.8817   -3.8152   23.4354 C   0  0  0  0  0  0
  -21.9185   -4.6968   22.3409 C   0  0  0  0  0  0
  -22.7854  -13.5223   21.1836 C   0  0  0  0  0  0
  -22.1653   -4.2153   21.0986 F   0  0  0  0  0  0
  -21.5635   -3.4540   25.7745 F   0  0  0  0  0  0
  -30.0357  -13.2719   20.4399 N   0  0  0  0  0  0
  -26.3029  -12.9325   20.3402 N   0  0  0  0  0  0
  -25.9320  -11.6485   20.5779 N   0  0  0  0  0  0
  -22.0498  -12.8217   22.0393 N   0  0  0  0  0  0
  -25.4315  -15.1865   20.4172 N   0  0  0  0  0  0
  -31.8675  -14.5937   20.1320 O   0  0  0  0  0  0
  -21.6633   -6.8880   21.4247 O   0  0  0  0  0  0
  -22.3537  -14.5531   20.6690 O   0  0  0  0  0  0
  -24.6100  -31.8700   23.2117 C   0  0  0  0  0  0
  -25.9008  -32.4836   23.8406 C   0  0  1  0  0  0
  -27.2375  -27.4670   20.0958 C   0  0  0  0  0  0
  -25.5884  -33.8634   24.2342 N   0  0  0  0  0  0
  -23.3971  -30.4912   21.5513 C   0  0  2  0  0  0
  -24.8470  -28.9580   20.1165 C   0  0  0  0  0  0
  -22.7387  -29.4656   22.5009 C   0  0  0  0  0  0
  -18.0264  -28.1366   22.8495 C   0  0  0  0  0  0
  -24.1488  -36.7323   23.2639 C   0  0  0  0  0  0
  -25.9211  -30.8445   21.3607 C   0  0  0  0  0  0
  -26.0020  -29.4785   20.7148 C   0  0  0  0  0  0
  -27.2017  -28.7368   20.7083 C   0  0  0  0  0  0
  -26.0740  -26.9504   19.4928 C   0  0  0  0  0  0
  -24.8753  -27.6905   19.5056 C   0  0  0  0  0  0
  -23.6057  -29.8200   20.1664 C   0  0  0  0  0  0
  -25.4108  -36.3121   24.0342 C   0  0  1  0  0  0
  -20.5850  -28.3645   23.1336 C   0  0  2  0  0  0
  -20.6755  -26.9385   22.5423 C   0  0  0  0  0  0
  -19.5742  -26.6378   21.5209 C   0  0  0  0  0  0
  -18.1916  -26.7916   22.1615 C   0  0  0  0  0  0
  -19.1512  -28.8821   23.2911 C   0  0  0  0  0  0
  -18.9445  -30.1431   23.8913 C   0  0  0  0  0  0
  -17.6450  -30.6578   24.0561 C   0  0  0  0  0  0
  -25.9031  -34.9484   23.5139 C   0  0  0  0  0  0
  -16.5341  -29.9081   23.6321 C   0  0  0  0  0  0
  -16.7255  -28.6497   23.0345 C   0  0  0  0  0  0
  -26.4455  -31.6604   25.0717 C   0  0  0  0  0  0
  -25.3734  -31.3695   26.1472 C   0  0  0  0  0  0
  -27.0286  -30.3059   24.6054 C   0  0  0  0  0  0
  -27.6036  -32.4315   25.7478 C   0  0  0  0  0  0
  -27.5587  -37.1810   24.8461 C   0  0  0  0  0  0
  -21.4118  -29.3020   22.3753 N   0  0  0  0  0  0
  -26.4296  -37.3803   23.9411 N   0  0  0  0  0  0
  -24.6605  -31.0823   22.1005 N   0  0  0  0  0  0
  -23.4173  -28.8199   23.3040 O   0  0  0  0  0  0
  -28.3947  -26.7334   20.0759 O   0  0  0  0  0  0
  -26.5586  -34.8929   22.4696 O   0  0  0  0  0  0
  -23.5301  -32.1437   23.7531 O   0  0  0  0  0  0
  -28.1320  -19.9445   22.7361 C   0  0  0  0  0  0
  -28.1200  -21.3416   22.9062 C   0  0  0  0  0  0
  -28.9941  -20.3165   20.5247 C   0  0  0  0  0  0
  -28.5804  -19.3860   21.5147 C   0  0  0  0  0  0
  -28.5392  -22.1620   21.8504 C   0  0  0  0  0  0
  -28.7163  -17.0211   22.4032 C   0  0  0  0  0  0
  -28.6586  -17.4126   19.9556 C   0  0  0  0  0  0
  -29.9174  -16.0666   22.1933 C   0  0  0  0  0  0
  -29.9409  -16.5878   19.8175 C   0  0  0  0  0  0
  -28.4357  -24.4224   20.8453 C   0  0  0  0  0  0
  -28.5710  -25.9072   21.2255 C   0  0  0  0  0  0
  -28.9701  -21.6596   20.6798 N   0  0  0  0  0  0
  -28.5986  -17.9832   21.3001 N   0  0  0  0  0  0
  -29.9555  -15.5193   20.8278 N   0  0  0  0  0  0
  -28.5357  -23.5497   22.0137 N   0  0  0  0  0  0
  -31.4632  -12.3655   19.1242 H   0  0  0  0  0  0
  -30.3011  -11.2732   19.8241 H   0  0  0  0  0  0
  -29.7274  -11.7731   17.4247 H   0  0  0  0  0  0
  -29.6663  -13.4819   17.7764 H   0  0  0  0  0  0
  -27.8214  -11.3061   18.8196 H   0  0  0  0  0  0
  -27.3634  -12.6362   17.7900 H   0  0  0  0  0  0
  -27.7044  -14.2512   19.5774 H   0  0  0  0  0  0
  -28.6689  -11.9619   21.3634 H   0  0  0  0  0  0
  -28.4767  -13.6174   21.8606 H   0  0  0  0  0  0
  -25.2759   -9.5679   22.4754 H   0  0  0  0  0  0
  -24.0000   -7.4632   22.7477 H   0  0  0  0  0  0
  -21.0839   -8.8775   19.8956 H   0  0  0  0  0  0
  -22.3699  -10.9673   19.6161 H   0  0  0  0  0  0
  -21.2003   -7.6154   23.9724 H   0  0  0  0  0  0
  -21.1483   -6.0532   25.9086 H   0  0  0  0  0  0
  -22.0593   -2.7613   23.2859 H   0  0  0  0  0  0
  -22.4114  -11.9874   22.4775 H   0  0  0  0  0  0
  -21.1125  -13.1258   22.2621 H   0  0  0  0  0  0
  -24.6731  -15.8470   20.5467 H   0  0  0  0  0  0
  -26.3043  -15.6287   20.1626 H   0  0  0  0  0  0
  -26.7081  -32.5572   23.1180 H   0  0  0  0  0  0
  -25.0053  -33.9809   25.0499 H   0  0  0  0  0  0
  -22.6837  -31.3058   21.4113 H   0  0  0  0  0  0
  -23.3750  -35.9656   23.3302 H   0  0  0  0  0  0
  -24.3588  -36.8935   22.2053 H   0  0  0  0  0  0
  -23.7238  -37.6530   23.6647 H   0  0  0  0  0  0
  -26.0234  -31.6079   20.5883 H   0  0  0  0  0  0
  -26.8126  -30.9054   21.9729 H   0  0  0  0  0  0
  -28.0958  -29.1331   21.1695 H   0  0  0  0  0  0
  -26.0964  -25.9793   19.0183 H   0  0  0  0  0  0
  -23.9868  -27.2835   19.0431 H   0  0  0  0  0  0
  -23.7086  -30.5929   19.4039 H   0  0  0  0  0  0
  -22.7321  -29.2346   19.8741 H   0  0  0  0  0  0
  -25.1280  -36.1994   25.0835 H   0  0  0  0  0  0
  -20.9936  -28.3197   24.1460 H   0  0  0  0  0  0
  -20.5654  -26.2244   23.3599 H   0  0  0  0  0  0
  -21.6628  -26.7429   22.1221 H   0  0  0  0  0  0
  -19.6904  -25.6292   21.1228 H   0  0  0  0  0  0
  -19.6693  -27.3197   20.6748 H   0  0  0  0  0  0
  -17.4189  -26.6669   21.4010 H   0  0  0  0  0  0
  -18.0312  -26.0048   22.9002 H   0  0  0  0  0  0
  -19.7925  -30.7235   24.2295 H   0  0  0  0  0  0
  -17.5012  -31.6265   24.5153 H   0  0  0  0  0  0
  -15.5345  -30.2991   23.7640 H   0  0  0  0  0  0
  -15.8655  -28.0827   22.7048 H   0  0  0  0  0  0
  -24.5916  -30.7026   25.7817 H   0  0  0  0  0  0
  -24.8909  -32.2844   26.4919 H   0  0  0  0  0  0
  -25.8104  -30.8877   27.0228 H   0  0  0  0  0  0
  -26.2820  -29.6826   24.1116 H   0  0  0  0  0  0
  -27.4094  -29.7281   25.4486 H   0  0  0  0  0  0
  -27.8634  -30.4405   23.9168 H   0  0  0  0  0  0
  -27.2659  -33.3601   26.2088 H   0  0  0  0  0  0
  -28.3828  -32.6893   25.0294 H   0  0  0  0  0  0
  -28.0717  -31.8414   26.5367 H   0  0  0  0  0  0
  -28.2593  -38.0119   24.7529 H   0  0  0  0  0  0
  -28.1094  -36.2650   24.6257 H   0  0  0  0  0  0
  -27.2308  -37.1428   25.8865 H   0  0  0  0  0  0
  -20.9264  -29.8761   21.7002 H   0  0  0  0  0  0
  -26.0189  -38.2883   24.1420 H   0  0  0  0  0  0
  -27.7792  -19.3258   23.5472 H   0  0  0  0  0  0
  -27.7783  -21.7593   23.8434 H   0  0  0  0  0  0
  -29.3785  -19.9984   19.5684 H   0  0  0  0  0  0
  -28.8322  -17.5039   23.3729 H   0  0  0  0  0  0
  -27.7919  -16.4427   22.4555 H   0  0  0  0  0  0
  -27.7944  -16.7638   19.8127 H   0  0  0  0  0  0
  -28.5926  -18.1500   19.1576 H   0  0  0  0  0  0
  -29.8767  -15.2633   22.9318 H   0  0  0  0  0  0
  -30.8486  -16.6044   22.3813 H   0  0  0  0  0  0
  -30.8237  -17.2211   19.9265 H   0  0  0  0  0  0
  -29.9830  -16.1659   18.8104 H   0  0  0  0  0  0
  -29.2084  -24.1692   20.1178 H   0  0  0  0  0  0
  -27.4734  -24.2486   20.3621 H   0  0  0  0  0  0
  -29.5655  -26.0967   21.6306 H   0  0  0  0  0  0
  -27.8633  -26.1592   22.0191 H   0  0  0  0  0  0
  -28.1627  -23.9117   22.8847 H   0  0  0  0  0  0
  1 25  1  0  0  0
  1 30  2  0  0  0
  1 84  1  0  0  0
  2  3  1  0  0  0
  2 25  1  0  0  0
  2 86  1  0  0  0
  2 87  1  0  0  0
  3  4  1  0  0  0
  3 88  1  0  0  0
  3 89  1  0  0  0
  4  5  1  0  0  0
  4 90  1  0  0  0
  4 91  1  0  0  0
  5  6  1  0  0  0
  5 26  1  0  0  0
  5 92  1  0  0  0
  6 25  1  0  0  0
  6 93  1  0  0  0
  6 94  1  0  0  0
  7  8  2  0  0  0
  7 26  1  0  0  0
  7 29  1  0  0  0
  8  9  1  0  0  0
  8 22  1  0  0  0
  9 10  1  0  0  0
  9 27  2  0  0  0
 10 11  2  0  0  0
 10 15  1  0  0  0
 11 12  1  0  0  0
 11 95  1  0  0  0
 12 13  2  0  0  0
 12 96  1  0  0  0
 13 14  1  0  0  0
 13 31  1  0  0  0
 14 15  2  0  0  0
 14 97  1  0  0  0
 15 98  1  0  0  0
 16 17  2  0  0  0
 16 21  1  0  0  0
 16 31  1  0  0  0
 17 18  1  0  0  0
 17 99  1  0  0  0
 18 19  2  0  0  0
 18100  1  0  0  0
 19 20  1  0  0  0
 19 24  1  0  0  0
 20 21  2  0  0  0
 20101  1  0  0  0
 21 23  1  0  0  0
 22 28  1  0  0  0
 22 32  2  0  0  0
 26 27  1  0  0  0
 28102  1  0  0  0
 28103  1  0  0  0
 29104  1  0  0  0
 29105  1  0  0  0
 33 34  1  0  0  0
 33 66  1  0  0  0
 33 70  2  0  0  0
 34 36  1  0  0  0
 34 59  1  0  0  0
 34106  1  0  0  0
 35 44  2  0  0  0
 35 45  1  0  0  0
 35 68  1  0  0  0
 36 56  1  0  0  0
 36107  1  0  0  0
 37 39  1  0  0  0
 37 47  1  0  0  0
 37 66  1  0  0  0
 37108  1  0  0  0
 38 43  2  0  0  0
 38 46  1  0  0  0
 38 47  1  0  0  0
 39 64  1  0  0  0
 39 67  2  0  0  0
 40 52  1  0  0  0
 40 53  2  0  0  0
 40 58  1  0  0  0
 41109  1  0  0  0
 41110  1  0  0  0
 41111  1  0  0  0
 41 48  1  0  0  0
 42 43  1  0  0  0
 42 66  1  0  0  0
 42112  1  0  0  0
 42113  1  0  0  0
 43 44  1  0  0  0
 44114  1  0  0  0
 45 46  2  0  0  0
 45115  1  0  0  0
 46116  1  0  0  0
 47117  1  0  0  0
 47118  1  0  0  0
 48 56  1  0  0  0
 48 65  1  0  0  0
 48119  1  0  0  0
 49 50  1  0  0  0
 49 53  1  0  0  0
 49 64  1  0  0  0
 49120  1  0  0  0
 50 51  1  0  0  0
 50121  1  0  0  0
 50122  1  0  0  0
 51 52  1  0  0  0
 51123  1  0  0  0
 51124  1  0  0  0
 52125  1  0  0  0
 52126  1  0  0  0
 53 54  1  0  0  0
 54 55  2  0  0  0
 54127  1  0  0  0
 55 57  1  0  0  0
 55128  1  0  0  0
 56 69  2  0  0  0
 57 58  2  0  0  0
 57129  1  0  0  0
 58130  1  0  0  0
 59 60  1  0  0  0
 59 61  1  0  0  0
 59 62  1  0  0  0
 60131  1  0  0  0
 60132  1  0  0  0
 60133  1  0  0  0
 61134  1  0  0  0
 61135  1  0  0  0
 61136  1  0  0  0
 62137  1  0  0  0
 62138  1  0  0  0
 62139  1  0  0  0
 63 65  1  0  0  0
 63140  1  0  0  0
 63141  1  0  0  0
 63142  1  0  0  0
 64143  1  0  0  0
 65144  1  0  0  0
 68 81  1  0  0  0
 71 72  2  0  0  0
 71 74  1  0  0  0
 71145  1  0  0  0
 72 75  1  0  0  0
 72146  1  0  0  0
 73 74  2  0  0  0
 73 82  1  0  0  0
 73147  1  0  0  0
 74 83  1  0  0  0
 75 82  2  0  0  0
 75 85  1  0  0  0
 76 78  1  0  0  0
 76 83  1  0  0  0
 76148  1  0  0  0
 76149  1  0  0  0
 77 79  1  0  0  0
 77 83  1  0  0  0
 77150  1  0  0  0
 77151  1  0  0  0
 78 84  1  0  0  0
 78152  1  0  0  0
 78153  1  0  0  0
 79 84  1  0  0  0
 79154  1  0  0  0
 79155  1  0  0  0
 80 81  1  0  0  0
 80 85  1  0  0  0
 80156  1  0  0  0
 80157  1  0  0  0
 81158  1  0  0  0
 81159  1  0  0  0
 85160  1  0  0  0
M  ISO  4   1 100  68 101  81 101  84 100
M  END
> <chiral flag>
0

> <version>
0

> <s_m_source_file>
/data/baiqing/PycharmProjects/Reinvent-master-3.2/result/LINK_invent/BTK/process_docking_weight1_custom_sum_contain_oxygen_bond_distance_aromatic_linkinvent_7_9_3/rearranged_h_0162.sdf

> <i_m_source_file_index>
12

> <r_mmod_Potential_Energy-OPLS-2005>
-33.681095123291

> <r_mmod_Stretch_Energy-OPLS-2005>
35.3982582092285

> <r_mmod_Bend_Energy-OPLS-2005>
115.92057800293

> <r_mmod_Torsional_Energy-OPLS-2005>
351.408660888672

> <r_mmod_Improper_Torsional_Energy-OPLS-2005>
15.5214042663574

> <r_mmod_Van_der_Waal_Energy-OPLS-2005>
164.829833984375

> <r_mmod_Electrostatic_Energy-OPLS-2005>
-493.462036132812

> <r_mmod_Solvation_Energy-OPLS-2005>
-234.295989990234

> <b_mmod_Minimization_Converged-OPLS-2005>
0

> <r_mmod_RMS_Derivative-OPLS-2005>
0.797568023204803

$$$$
12
                    3D
 Structure written by MMmdl.
164174  0  0  1  0            999 V2000
  -30.6115  -14.7191   20.4783 C   0  0  0  0  0  0
  -30.4338  -12.4442   19.4570 C   0  0  0  0  0  0
  -29.5052  -12.5041   18.2248 C   0  0  0  0  0  0
  -28.0314  -12.3294   18.6422 C   0  0  0  0  0  0
  -27.6411  -13.2255   19.8477 C   0  0  2  0  0  0
  -28.6877  -13.1434   20.9788 C   0  0  0  0  0  0
  -25.2516  -13.8185   20.5688 C   0  0  0  0  0  0
  -24.1805  -13.0435   20.9212 C   0  0  0  0  0  0
  -24.6390  -11.6912   20.8755 C   0  0  0  0  0  0
  -23.9065  -10.4292   21.0416 C   0  0  0  0  0  0
  -24.3619   -9.4206   21.9190 C   0  0  0  0  0  0
  -23.6296   -8.2240   22.0757 C   0  0  0  0  0  0
  -22.4277   -8.0281   21.3547 C   0  0  0  0  0  0
  -21.9912   -9.0254   20.4648 C   0  0  0  0  0  0
  -22.7241  -10.2133   20.3060 C   0  0  0  0  0  0
  -21.6852   -6.0739   22.5281 C   0  0  0  0  0  0
  -21.4013   -6.5643   23.8215 C   0  0  0  0  0  0
  -21.3659   -5.6795   24.9177 C   0  0  0  0  0  0
  -21.6043   -4.3059   24.7226 C   0  0  0  0  0  0
  -21.8820   -3.8151   23.4348 C   0  0  0  0  0  0
  -21.9193   -4.6967   22.3404 C   0  0  0  0  0  0
  -22.7828  -13.5221   21.1873 C   0  0  0  0  0  0
  -22.1662   -4.2154   21.0982 F   0  0  0  0  0  0
  -21.5628   -3.4542   25.7739 F   0  0  0  0  0  0
  -29.9865  -13.4978   20.3931 N   0  0  0  0  0  0
  -26.2932  -12.9378   20.3268 N   0  0  0  0  0  0
  -25.9316  -11.6528   20.5751 N   0  0  0  0  0  0
  -22.0471  -12.8208   22.0425 N   0  0  0  0  0  0
  -25.4204  -15.1909   20.4097 N   0  0  0  0  0  0
  -31.8117  -14.8069   20.2095 O   0  0  0  0  0  0
  -21.6640   -6.8880   21.4243 O   0  0  0  0  0  0
  -22.3515  -14.5528   20.6724 O   0  0  0  0  0  0
  -24.6290  -31.8567   23.1998 C   0  0  0  0  0  0
  -25.9125  -32.4761   23.8339 C   0  0  1  0  0  0
  -27.2205  -27.2756   20.1448 C   0  0  0  0  0  0
  -25.5929  -33.8564   24.2264 N   0  0  0  0  0  0
  -23.4245  -30.4781   21.5430 C   0  0  2  0  0  0
  -24.8716  -28.9166   20.1232 C   0  0  0  0  0  0
  -22.7485  -29.4613   22.4937 C   0  0  0  0  0  0
  -18.0287  -28.1387   22.8488 C   0  0  0  0  0  0
  -24.1487  -36.7285   23.2639 C   0  0  0  0  0  0
  -25.9679  -30.7727   21.3782 C   0  0  0  0  0  0
  -26.0406  -29.3911   20.7330 C   0  0  0  0  0  0
  -27.2201  -28.5831   20.7313 C   0  0  0  0  0  0
  -26.0362  -26.8642   19.5025 C   0  0  0  0  0  0
  -24.8723  -27.6587   19.4990 C   0  0  0  0  0  0
  -23.6434  -29.8053   20.1620 C   0  0  0  0  0  0
  -25.4113  -36.3075   24.0329 C   0  0  1  0  0  0
  -20.5887  -28.3696   23.1278 C   0  0  2  0  0  0
  -20.6777  -26.9416   22.5412 C   0  0  0  0  0  0
  -19.5752  -26.6387   21.5215 C   0  0  0  0  0  0
  -18.1932  -26.7930   22.1625 C   0  0  0  0  0  0
  -19.1539  -28.8858   23.2877 C   0  0  0  0  0  0
  -18.9462  -30.1460   23.8895 C   0  0  0  0  0  0
  -17.6462  -30.6589   24.0564 C   0  0  0  0  0  0
  -25.9053  -34.9444   23.5098 C   0  0  0  0  0  0
  -16.5353  -29.9086   23.6332 C   0  0  0  0  0  0
  -16.7273  -28.6503   23.0354 C   0  0  0  0  0  0
  -26.4504  -31.6581   25.0721 C   0  0  0  0  0  0
  -25.3731  -31.3720   26.1441 C   0  0  0  0  0  0
  -27.0352  -30.3001   24.6197 C   0  0  0  0  0  0
  -27.6058  -32.4322   25.7493 C   0  0  0  0  0  0
  -27.5582  -37.1794   24.8462 C   0  0  0  0  0  0
  -21.4196  -29.3045   22.3672 N   0  0  0  0  0  0
  -26.4287  -37.3776   23.9414 N   0  0  0  0  0  0
  -24.6927  -31.0543   22.0966 N   0  0  0  0  0  0
  -23.4190  -28.8162   23.3038 O   0  0  0  0  0  0
  -28.3501  -26.4454   20.0568 O   0  0  0  0  0  0
  -26.5626  -34.8919   22.4667 O   0  0  0  0  0  0
  -23.5447  -32.1385   23.7308 O   0  0  0  0  0  0
  -32.0395  -22.0658   20.0562 C   0  0  0  0  0  0
  -30.4758  -20.1406   20.1214 C   0  0  0  0  0  0
  -29.6606  -22.6052   20.1689 C   0  0  0  0  0  0
  -31.7903  -20.6883   19.9558 C   0  0  0  0  0  0
  -31.0154  -23.0127   20.1485 C   0  0  0  0  0  0
  -29.4164  -21.1554   20.1976 C   0  0  0  0  0  0
  -31.4488  -17.7776   20.7161 C   0  0  0  0  0  0
  -27.3877  -24.0656   20.7945 C   0  0  0  0  0  0
  -30.3306  -18.5368   20.0019 C   0  0  1  0  0  0
  -28.6096  -23.7760   19.9522 C   0  0  1  0  0  0
  -30.0906  -17.2841   20.9993 C   0  0  1  0  0  0
  -28.4707  -25.1342   20.7695 C   0  0  2  0  0  0
  -33.0164  -19.8722   19.5546 C   0  0  0  0  0  0
  -31.4295  -24.4789   20.1135 C   0  0  0  0  0  0
  -27.9725  -20.6884   20.2250 C   0  0  0  0  0  0
  -29.8107  -15.8352   20.6805 N   0  0  0  0  0  0
  -31.4728  -12.5771   19.1505 H   0  0  0  0  0  0
  -30.3840  -11.4642   19.9344 H   0  0  0  0  0  0
  -29.7834  -11.7352   17.5028 H   0  0  0  0  0  0
  -29.6309  -13.4612   17.7158 H   0  0  0  0  0  0
  -27.8858  -11.2801   18.9015 H   0  0  0  0  0  0
  -27.3728  -12.5264   17.7955 H   0  0  0  0  0  0
  -27.6379  -14.2487   19.4720 H   0  0  0  0  0  0
  -28.7222  -12.1394   21.4045 H   0  0  0  0  0  0
  -28.4276  -13.8137   21.7996 H   0  0  0  0  0  0
  -25.2764   -9.5684   22.4763 H   0  0  0  0  0  0
  -24.0009   -7.4630   22.7473 H   0  0  0  0  0  0
  -21.0847   -8.8774   19.8947 H   0  0  0  0  0  0
  -22.3704  -10.9676   19.6172 H   0  0  0  0  0  0
  -21.2004   -7.6150   23.9720 H   0  0  0  0  0  0
  -21.1481   -6.0526   25.9081 H   0  0  0  0  0  0
  -22.0597   -2.7613   23.2848 H   0  0  0  0  0  0
  -22.4096  -11.9873   22.4813 H   0  0  0  0  0  0
  -21.1089  -13.1234   22.2632 H   0  0  0  0  0  0
  -24.6487  -15.8406   20.5163 H   0  0  0  0  0  0
  -26.2585  -15.6315   20.0537 H   0  0  0  0  0  0
  -26.7192  -32.5423   23.1084 H   0  0  0  0  0  0
  -25.0080  -33.9701   25.0411 H   0  0  0  0  0  0
  -22.7203  -31.2996   21.3949 H   0  0  0  0  0  0
  -23.3757  -35.9607   23.3288 H   0  0  0  0  0  0
  -24.3579  -36.8922   22.2056 H   0  0  0  0  0  0
  -23.7231  -37.6480   23.6670 H   0  0  0  0  0  0
  -26.1017  -31.5280   20.6026 H   0  0  0  0  0  0
  -26.8478  -30.8276   22.0077 H   0  0  0  0  0  0
  -28.1245  -28.9521   21.1945 H   0  0  0  0  0  0
  -26.0111  -25.9204   18.9788 H   0  0  0  0  0  0
  -23.9818  -27.2955   19.0044 H   0  0  0  0  0  0
  -23.7703  -30.5777   19.4027 H   0  0  0  0  0  0
  -22.7617  -29.2386   19.8577 H   0  0  0  0  0  0
  -25.1295  -36.1923   25.0823 H   0  0  0  0  0  0
  -20.9977  -28.3273   24.1399 H   0  0  0  0  0  0
  -20.5686  -26.2303   23.3614 H   0  0  0  0  0  0
  -21.6645  -26.7450   22.1202 H   0  0  0  0  0  0
  -19.6915  -25.6298   21.1245 H   0  0  0  0  0  0
  -19.6688  -27.3196   20.6744 H   0  0  0  0  0  0
  -17.4204  -26.6681   21.4027 H   0  0  0  0  0  0
  -18.0330  -26.0072   22.9020 H   0  0  0  0  0  0
  -19.7937  -30.7279   24.2264 H   0  0  0  0  0  0
  -17.5013  -31.6269   24.5167 H   0  0  0  0  0  0
  -15.5352  -30.2987   23.7657 H   0  0  0  0  0  0
  -15.8673  -28.0821   22.7071 H   0  0  0  0  0  0
  -24.5910  -30.7066   25.7767 H   0  0  0  0  0  0
  -24.8917  -32.2884   26.4866 H   0  0  0  0  0  0
  -25.8054  -30.8900   27.0217 H   0  0  0  0  0  0
  -26.2931  -29.6742   24.1227 H   0  0  0  0  0  0
  -27.4044  -29.7272   25.4714 H   0  0  0  0  0  0
  -27.8803  -30.4281   23.9428 H   0  0  0  0  0  0
  -27.2669  -33.3628   26.2058 H   0  0  0  0  0  0
  -28.3874  -32.6875   25.0324 H   0  0  0  0  0  0
  -28.0717  -31.8454   26.5420 H   0  0  0  0  0  0
  -28.2587  -38.0105   24.7538 H   0  0  0  0  0  0
  -28.1094  -36.2640   24.6255 H   0  0  0  0  0  0
  -27.2302  -37.1402   25.8865 H   0  0  0  0  0  0
  -20.9383  -29.8752   21.6864 H   0  0  0  0  0  0
  -26.0168  -38.2847   24.1431 H   0  0  0  0  0  0
  -33.0588  -22.4181   19.9678 H   0  0  0  0  0  0
  -31.9342  -18.2354   21.5764 H   0  0  0  0  0  0
  -32.1196  -17.2258   20.0642 H   0  0  0  0  0  0
  -27.2822  -23.5112   21.7244 H   0  0  0  0  0  0
  -26.4558  -24.2369   20.2664 H   0  0  0  0  0  0
  -30.1750  -18.3083   18.9491 H   0  0  0  0  0  0
  -28.4610  -23.8665   18.8779 H   0  0  0  0  0  0
  -29.6596  -17.5915   21.9503 H   0  0  0  0  0  0
  -29.0346  -25.2504   21.6925 H   0  0  0  0  0  0
  -33.7579  -20.4939   19.0513 H   0  0  0  0  0  0
  -32.7637  -19.0881   18.8416 H   0  0  0  0  0  0
  -33.5112  -19.4387   20.4233 H   0  0  0  0  0  0
  -32.4925  -24.5918   19.8983 H   0  0  0  0  0  0
  -31.2490  -24.9553   21.0765 H   0  0  0  0  0  0
  -30.8947  -25.0279   19.3380 H   0  0  0  0  0  0
  -27.8839  -19.6102   20.0959 H   0  0  0  0  0  0
  -27.4017  -21.1633   19.4265 H   0  0  0  0  0  0
  -27.5096  -20.9495   21.1770 H   0  0  0  0  0  0
  -28.8352  -15.5928   20.7666 H   0  0  0  0  0  0
  1 25  1  0  0  0
  1 30  2  0  0  0
  1 86  1  0  0  0
  2  3  1  0  0  0
  2 25  1  0  0  0
  2 87  1  0  0  0
  2 88  1  0  0  0
  3  4  1  0  0  0
  3 89  1  0  0  0
  3 90  1  0  0  0
  4  5  1  0  0  0
  4 91  1  0  0  0
  4 92  1  0  0  0
  5  6  1  0  0  0
  5 26  1  0  0  0
  5 93  1  0  0  0
  6 25  1  0  0  0
  6 94  1  0  0  0
  6 95  1  0  0  0
  7  8  2  0  0  0
  7 26  1  0  0  0
  7 29  1  0  0  0
  8  9  1  0  0  0
  8 22  1  0  0  0
  9 10  1  0  0  0
  9 27  2  0  0  0
 10 11  2  0  0  0
 10 15  1  0  0  0
 11 12  1  0  0  0
 11 96  1  0  0  0
 12 13  2  0  0  0
 12 97  1  0  0  0
 13 14  1  0  0  0
 13 31  1  0  0  0
 14 15  2  0  0  0
 14 98  1  0  0  0
 15 99  1  0  0  0
 16 17  2  0  0  0
 16 21  1  0  0  0
 16 31  1  0  0  0
 17 18  1  0  0  0
 17100  1  0  0  0
 18 19  2  0  0  0
 18101  1  0  0  0
 19 20  1  0  0  0
 19 24  1  0  0  0
 20 21  2  0  0  0
 20102  1  0  0  0
 21 23  1  0  0  0
 22 28  1  0  0  0
 22 32  2  0  0  0
 26 27  1  0  0  0
 28103  1  0  0  0
 28104  1  0  0  0
 29105  1  0  0  0
 29106  1  0  0  0
 33 34  1  0  0  0
 33 66  1  0  0  0
 33 70  2  0  0  0
 34 36  1  0  0  0
 34 59  1  0  0  0
 34107  1  0  0  0
 35 44  2  0  0  0
 35 45  1  0  0  0
 35 68  1  0  0  0
 36 56  1  0  0  0
 36108  1  0  0  0
 37 39  1  0  0  0
 37 47  1  0  0  0
 37 66  1  0  0  0
 37109  1  0  0  0
 38 43  2  0  0  0
 38 46  1  0  0  0
 38 47  1  0  0  0
 39 64  1  0  0  0
 39 67  2  0  0  0
 40 52  1  0  0  0
 40 53  2  0  0  0
 40 58  1  0  0  0
 41110  1  0  0  0
 41111  1  0  0  0
 41112  1  0  0  0
 41 48  1  0  0  0
 42 43  1  0  0  0
 42 66  1  0  0  0
 42113  1  0  0  0
 42114  1  0  0  0
 43 44  1  0  0  0
 44115  1  0  0  0
 45 46  2  0  0  0
 45116  1  0  0  0
 46117  1  0  0  0
 47118  1  0  0  0
 47119  1  0  0  0
 48 56  1  0  0  0
 48 65  1  0  0  0
 48120  1  0  0  0
 49 50  1  0  0  0
 49 53  1  0  0  0
 49 64  1  0  0  0
 49121  1  0  0  0
 50 51  1  0  0  0
 50122  1  0  0  0
 50123  1  0  0  0
 51 52  1  0  0  0
 51124  1  0  0  0
 51125  1  0  0  0
 52126  1  0  0  0
 52127  1  0  0  0
 53 54  1  0  0  0
 54 55  2  0  0  0
 54128  1  0  0  0
 55 57  1  0  0  0
 55129  1  0  0  0
 56 69  2  0  0  0
 57 58  2  0  0  0
 57130  1  0  0  0
 58131  1  0  0  0
 59 60  1  0  0  0
 59 61  1  0  0  0
 59 62  1  0  0  0
 60132  1  0  0  0
 60133  1  0  0  0
 60134  1  0  0  0
 61135  1  0  0  0
 61136  1  0  0  0
 61137  1  0  0  0
 62138  1  0  0  0
 62139  1  0  0  0
 62140  1  0  0  0
 63 65  1  0  0  0
 63141  1  0  0  0
 63142  1  0  0  0
 63143  1  0  0  0
 64144  1  0  0  0
 65145  1  0  0  0
 68 82  1  0  0  0
 71 74  2  0  0  0
 71 75  1  0  0  0
 71146  1  0  0  0
 72 74  1  0  0  0
 72 76  2  0  0  0
 72 79  1  0  0  0
 73 75  2  0  0  0
 73 76  1  0  0  0
 73 80  1  0  0  0
 74 83  1  0  0  0
 75 84  1  0  0  0
 76 85  1  0  0  0
 77 79  1  0  0  0
 77 81  1  0  0  0
 77147  1  0  0  0
 77148  1  0  0  0
 78 80  1  0  0  0
 78 82  1  0  0  0
 78149  1  0  0  0
 78150  1  0  0  0
 79 81  1  0  0  0
 79151  1  0  0  0
 80 82  1  0  0  0
 80152  1  0  0  0
 81 86  1  0  0  0
 81153  1  0  0  0
 82154  1  0  0  0
 83155  1  0  0  0
 83156  1  0  0  0
 83157  1  0  0  0
 84158  1  0  0  0
 84159  1  0  0  0
 84160  1  0  0  0
 85161  1  0  0  0
 85162  1  0  0  0
 85163  1  0  0  0
 86164  1  0  0  0
M  ISO  4   1 100  68 101  82 101  86 100
M  END
> <chiral flag>
0

> <version>
0

> <s_m_source_file>
/data/baiqing/PycharmProjects/Reinvent-master-3.2/result/LINK_invent/BTK/process_docking_weight1_custom_sum_contain_oxygen_bond_distance_aromatic_linkinvent_7_9_3/rearranged_h_0162.sdf

> <i_m_source_file_index>
13

> <r_mmod_Potential_Energy-OPLS-2005>
317.333435058594

> <r_mmod_Stretch_Energy-OPLS-2005>
140.986663818359

> <r_mmod_Bend_Energy-OPLS-2005>
221.606079101562

> <r_mmod_Torsional_Energy-OPLS-2005>
330.116119384766

> <r_mmod_Improper_Torsional_Energy-OPLS-2005>
7.13072395324707

> <r_mmod_Van_der_Waal_Energy-OPLS-2005>
153.564315795898

> <r_mmod_Electrostatic_Energy-OPLS-2005>
-397.892639160156

> <r_mmod_Solvation_Energy-OPLS-2005>
-208.509078979492

> <b_mmod_Minimization_Converged-OPLS-2005>
0

> <r_mmod_RMS_Derivative-OPLS-2005>
0.445540845394135

$$$$
13
                    3D
 Structure written by MMmdl.
165174  0  0  1  0            999 V2000
  -30.6694  -14.7146   20.4662 C   0  0  0  0  0  0
  -30.4200  -12.4419   19.4721 C   0  0  0  0  0  0
  -29.5023  -12.5000   18.2339 C   0  0  0  0  0  0
  -28.0323  -12.3218   18.6556 C   0  0  0  0  0  0
  -27.6389  -13.2318   19.8505 C   0  0  2  0  0  0
  -28.6858  -13.1941   20.9847 C   0  0  0  0  0  0
  -25.2518  -13.8201   20.5719 C   0  0  0  0  0  0
  -24.1797  -13.0447   20.9196 C   0  0  0  0  0  0
  -24.6381  -11.6922   20.8746 C   0  0  0  0  0  0
  -23.9062  -10.4302   21.0407 C   0  0  0  0  0  0
  -24.3614   -9.4219   21.9188 C   0  0  0  0  0  0
  -23.6290   -8.2253   22.0763 C   0  0  0  0  0  0
  -22.4275   -8.0284   21.3547 C   0  0  0  0  0  0
  -21.9911   -9.0257   20.4651 C   0  0  0  0  0  0
  -22.7237  -10.2137   20.3057 C   0  0  0  0  0  0
  -21.6855   -6.0735   22.5276 C   0  0  0  0  0  0
  -21.4011   -6.5639   23.8207 C   0  0  0  0  0  0
  -21.3658   -5.6794   24.9169 C   0  0  0  0  0  0
  -21.6038   -4.3056   24.7219 C   0  0  0  0  0  0
  -21.8818   -3.8146   23.4344 C   0  0  0  0  0  0
  -21.9192   -4.6962   22.3398 C   0  0  0  0  0  0
  -22.7825  -13.5234   21.1865 C   0  0  0  0  0  0
  -22.1663   -4.2147   21.0975 F   0  0  0  0  0  0
  -21.5632   -3.4541   25.7734 F   0  0  0  0  0  0
  -29.9859  -13.5216   20.3893 N   0  0  0  0  0  0
  -26.2932  -12.9398   20.3320 N   0  0  0  0  0  0
  -25.9317  -11.6542   20.5788 N   0  0  0  0  0  0
  -22.0473  -12.8211   22.0411 N   0  0  0  0  0  0
  -25.4265  -15.1928   20.4169 N   0  0  0  0  0  0
  -31.8675  -14.7420   20.1698 O   0  0  0  0  0  0
  -21.6640   -6.8877   21.4238 O   0  0  0  0  0  0
  -22.3514  -14.5554   20.6737 O   0  0  0  0  0  0
  -24.6336  -31.8571   23.2037 C   0  0  0  0  0  0
  -25.9158  -32.4777   23.8369 C   0  0  1  0  0  0
  -27.2015  -27.2518   20.1181 C   0  0  0  0  0  0
  -25.5960  -33.8579   24.2284 N   0  0  0  0  0  0
  -23.4295  -30.4865   21.5486 C   0  0  2  0  0  0
  -24.8734  -28.9502   20.1051 C   0  0  0  0  0  0
  -22.7520  -29.4615   22.4914 C   0  0  0  0  0  0
  -18.0293  -28.1388   22.8485 C   0  0  0  0  0  0
  -24.1476  -36.7278   23.2643 C   0  0  0  0  0  0
  -25.9798  -30.7657   21.3895 C   0  0  0  0  0  0
  -26.0489  -29.3913   20.7266 C   0  0  0  0  0  0
  -27.2146  -28.5530   20.7312 C   0  0  0  0  0  0
  -26.0079  -26.9160   19.4274 C   0  0  0  0  0  0
  -24.8593  -27.7198   19.4444 C   0  0  0  0  0  0
  -23.6459  -29.8362   20.1602 C   0  0  0  0  0  0
  -25.4107  -36.3079   24.0331 C   0  0  1  0  0  0
  -20.5902  -28.3699   23.1258 C   0  0  2  0  0  0
  -20.6789  -26.9418   22.5391 C   0  0  0  0  0  0
  -19.5753  -26.6379   21.5208 C   0  0  0  0  0  0
  -18.1928  -26.7934   22.1615 C   0  0  0  0  0  0
  -19.1551  -28.8862   23.2865 C   0  0  0  0  0  0
  -18.9475  -30.1461   23.8880 C   0  0  0  0  0  0
  -17.6478  -30.6595   24.0558 C   0  0  0  0  0  0
  -25.9057  -34.9451   23.5105 C   0  0  0  0  0  0
  -16.5364  -29.9093   23.6341 C   0  0  0  0  0  0
  -16.7283  -28.6511   23.0367 C   0  0  0  0  0  0
  -26.4525  -31.6612   25.0757 C   0  0  0  0  0  0
  -25.3738  -31.3737   26.1464 C   0  0  0  0  0  0
  -27.0424  -30.3048   24.6251 C   0  0  0  0  0  0
  -27.6056  -32.4385   25.7541 C   0  0  0  0  0  0
  -27.5568  -37.1795   24.8474 C   0  0  0  0  0  0
  -21.4228  -29.3059   22.3659 N   0  0  0  0  0  0
  -26.4279  -37.3778   23.9415 N   0  0  0  0  0  0
  -24.7004  -31.0535   22.1032 N   0  0  0  0  0  0
  -23.4218  -28.8122   23.2989 O   0  0  0  0  0  0
  -28.2474  -26.2900   20.2195 O   0  0  0  0  0  0
  -26.5609  -34.8924   22.4660 O   0  0  0  0  0  0
  -23.5479  -32.1407   23.7316 O   0  0  0  0  0  0
  -29.3897  -20.6819   20.4520 C   0  0  0  0  0  0
  -30.3509  -21.7453   20.3004 C   0  0  0  0  0  0
  -29.9460  -23.1313   20.1825 C   0  0  0  0  0  0
  -28.0564  -21.1637   20.5971 C   0  0  0  0  0  0
  -28.5723  -23.4904   20.2694 C   0  0  0  0  0  0
  -29.9501  -18.3473   21.7580 C   0  0  0  0  0  0
  -28.9760  -18.1161   19.5566 C   0  0  0  0  0  0
  -30.5814  -16.8975   21.6285 C   0  0  0  0  0  0
  -29.6110  -16.6731   19.4110 C   0  0  0  0  0  0
  -29.8033  -19.1171   20.4163 C   0  0  0  0  0  0
  -31.8353  -21.3960   20.2387 C   0  0  0  0  0  0
  -30.9784  -24.2249   19.9337 C   0  0  0  0  0  0
  -26.8859  -20.2375   20.8663 C   0  0  0  0  0  0
  -27.8712  -24.8731   19.8591 C   0  0  0  0  0  0
  -27.6910  -22.4777   20.5031 N   0  0  0  0  0  0
  -29.9925  -15.9240   20.6507 N   0  0  0  0  0  0
  -31.4630  -12.5417   19.1665 H   0  0  0  0  0  0
  -30.3455  -11.4714   19.9659 H   0  0  0  0  0  0
  -29.7841  -11.7272   17.5173 H   0  0  0  0  0  0
  -29.6272  -13.4559   17.7231 H   0  0  0  0  0  0
  -27.8981  -11.2752   18.9318 H   0  0  0  0  0  0
  -27.3689  -12.4990   17.8081 H   0  0  0  0  0  0
  -27.6250  -14.2474   19.4589 H   0  0  0  0  0  0
  -28.7179  -12.2113   21.4581 H   0  0  0  0  0  0
  -28.4283  -13.9103   21.7670 H   0  0  0  0  0  0
  -25.2752   -9.5695   22.4770 H   0  0  0  0  0  0
  -23.9996   -7.4643   22.7484 H   0  0  0  0  0  0
  -21.0847   -8.8770   19.8954 H   0  0  0  0  0  0
  -22.3692  -10.9675   19.6170 H   0  0  0  0  0  0
  -21.2001   -7.6144   23.9707 H   0  0  0  0  0  0
  -21.1484   -6.0525   25.9072 H   0  0  0  0  0  0
  -22.0596   -2.7609   23.2844 H   0  0  0  0  0  0
  -22.4094  -11.9850   22.4749 H   0  0  0  0  0  0
  -21.1102  -13.1250   22.2651 H   0  0  0  0  0  0
  -24.6706  -15.8570   20.5407 H   0  0  0  0  0  0
  -26.2951  -15.6299   20.1359 H   0  0  0  0  0  0
  -26.7219  -32.5426   23.1103 H   0  0  0  0  0  0
  -25.0157  -33.9728   25.0467 H   0  0  0  0  0  0
  -22.7255  -31.3096   21.4099 H   0  0  0  0  0  0
  -23.3757  -35.9593   23.3298 H   0  0  0  0  0  0
  -24.3561  -36.8906   22.2058 H   0  0  0  0  0  0
  -23.7210  -37.6466   23.6681 H   0  0  0  0  0  0
  -26.1222  -31.5275   20.6222 H   0  0  0  0  0  0
  -26.8568  -30.8114   22.0235 H   0  0  0  0  0  0
  -28.1041  -28.8797   21.2510 H   0  0  0  0  0  0
  -25.8975  -25.9990   18.8705 H   0  0  0  0  0  0
  -23.9667  -27.3852   18.9333 H   0  0  0  0  0  0
  -23.7702  -30.6209   19.4127 H   0  0  0  0  0  0
  -22.7633  -29.2735   19.8504 H   0  0  0  0  0  0
  -25.1283  -36.1930   25.0824 H   0  0  0  0  0  0
  -20.9983  -28.3272   24.1388 H   0  0  0  0  0  0
  -20.5704  -26.2307   23.3598 H   0  0  0  0  0  0
  -21.6652  -26.7452   22.1166 H   0  0  0  0  0  0
  -19.6911  -25.6288   21.1251 H   0  0  0  0  0  0
  -19.6687  -27.3177   20.6731 H   0  0  0  0  0  0
  -17.4200  -26.6694   21.4014 H   0  0  0  0  0  0
  -18.0309  -26.0072   22.9004 H   0  0  0  0  0  0
  -19.7953  -30.7280   24.2240 H   0  0  0  0  0  0
  -17.5040  -31.6284   24.5148 H   0  0  0  0  0  0
  -15.5367  -30.2995   23.7692 H   0  0  0  0  0  0
  -15.8675  -28.0838   22.7092 H   0  0  0  0  0  0
  -24.5925  -30.7083   25.7774 H   0  0  0  0  0  0
  -24.8916  -32.2897   26.4891 H   0  0  0  0  0  0
  -25.8039  -30.8910   27.0248 H   0  0  0  0  0  0
  -26.3047  -29.6758   24.1255 H   0  0  0  0  0  0
  -27.4122  -29.7340   25.4778 H   0  0  0  0  0  0
  -27.8901  -30.4368   23.9520 H   0  0  0  0  0  0
  -27.2661  -33.3725   26.2037 H   0  0  0  0  0  0
  -28.3907  -32.6885   25.0394 H   0  0  0  0  0  0
  -28.0682  -31.8569   26.5526 H   0  0  0  0  0  0
  -28.2580  -38.0098   24.7539 H   0  0  0  0  0  0
  -28.1068  -36.2628   24.6289 H   0  0  0  0  0  0
  -27.2283  -37.1429   25.8875 H   0  0  0  0  0  0
  -20.9410  -29.8838   21.6913 H   0  0  0  0  0  0
  -26.0157  -38.2846   24.1438 H   0  0  0  0  0  0
  -30.5754  -18.9317   22.4341 H   0  0  0  0  0  0
  -28.9812  -18.2701   22.2503 H   0  0  0  0  0  0
  -27.9762  -17.9924   19.9668 H   0  0  0  0  0  0
  -28.8414  -18.5345   18.5583 H   0  0  0  0  0  0
  -30.5698  -16.4273   22.6133 H   0  0  0  0  0  0
  -31.6373  -17.0287   21.3818 H   0  0  0  0  0  0
  -30.5000  -16.7609   18.7836 H   0  0  0  0  0  0
  -28.9180  -16.0564   18.8385 H   0  0  0  0  0  0
  -30.7858  -19.0920   19.9477 H   0  0  0  0  0  0
  -32.0804  -20.6033   20.9450 H   0  0  0  0  0  0
  -32.4824  -22.2297   20.5044 H   0  0  0  0  0  0
  -32.1055  -21.0633   19.2364 H   0  0  0  0  0  0
  -31.6516  -23.9504   19.1209 H   0  0  0  0  0  0
  -31.5727  -24.3903   20.8339 H   0  0  0  0  0  0
  -30.5256  -25.1786   19.6644 H   0  0  0  0  0  0
  -27.1518  -19.4534   21.5723 H   0  0  0  0  0  0
  -26.5390  -19.7805   19.9398 H   0  0  0  0  0  0
  -26.0471  -20.7805   21.3032 H   0  0  0  0  0  0
  -26.8694  -24.7206   20.2632 H   0  0  0  0  0  0
  -27.7817  -24.8351   18.7725 H   0  0  0  0  0  0
  1 25  1  0  0  0
  1 30  2  0  0  0
  1 86  1  0  0  0
  2  3  1  0  0  0
  2 25  1  0  0  0
  2 87  1  0  0  0
  2 88  1  0  0  0
  3  4  1  0  0  0
  3 89  1  0  0  0
  3 90  1  0  0  0
  4  5  1  0  0  0
  4 91  1  0  0  0
  4 92  1  0  0  0
  5  6  1  0  0  0
  5 26  1  0  0  0
  5 93  1  0  0  0
  6 25  1  0  0  0
  6 94  1  0  0  0
  6 95  1  0  0  0
  7  8  2  0  0  0
  7 26  1  0  0  0
  7 29  1  0  0  0
  8  9  1  0  0  0
  8 22  1  0  0  0
  9 10  1  0  0  0
  9 27  2  0  0  0
 10 11  2  0  0  0
 10 15  1  0  0  0
 11 12  1  0  0  0
 11 96  1  0  0  0
 12 13  2  0  0  0
 12 97  1  0  0  0
 13 14  1  0  0  0
 13 31  1  0  0  0
 14 15  2  0  0  0
 14 98  1  0  0  0
 15 99  1  0  0  0
 16 17  2  0  0  0
 16 21  1  0  0  0
 16 31  1  0  0  0
 17 18  1  0  0  0
 17100  1  0  0  0
 18 19  2  0  0  0
 18101  1  0  0  0
 19 20  1  0  0  0
 19 24  1  0  0  0
 20 21  2  0  0  0
 20102  1  0  0  0
 21 23  1  0  0  0
 22 28  1  0  0  0
 22 32  2  0  0  0
 26 27  1  0  0  0
 28103  1  0  0  0
 28104  1  0  0  0
 29105  1  0  0  0
 29106  1  0  0  0
 33 34  1  0  0  0
 33 66  1  0  0  0
 33 70  2  0  0  0
 34 36  1  0  0  0
 34 59  1  0  0  0
 34107  1  0  0  0
 35 44  2  0  0  0
 35 45  1  0  0  0
 35 68  1  0  0  0
 36 56  1  0  0  0
 36108  1  0  0  0
 37 39  1  0  0  0
 37 47  1  0  0  0
 37 66  1  0  0  0
 37109  1  0  0  0
 38 43  2  0  0  0
 38 46  1  0  0  0
 38 47  1  0  0  0
 39 64  1  0  0  0
 39 67  2  0  0  0
 40 52  1  0  0  0
 40 53  2  0  0  0
 40 58  1  0  0  0
 41110  1  0  0  0
 41111  1  0  0  0
 41112  1  0  0  0
 41 48  1  0  0  0
 42 43  1  0  0  0
 42 66  1  0  0  0
 42113  1  0  0  0
 42114  1  0  0  0
 43 44  1  0  0  0
 44115  1  0  0  0
 45 46  2  0  0  0
 45116  1  0  0  0
 46117  1  0  0  0
 47118  1  0  0  0
 47119  1  0  0  0
 48 56  1  0  0  0
 48 65  1  0  0  0
 48120  1  0  0  0
 49 50  1  0  0  0
 49 53  1  0  0  0
 49 64  1  0  0  0
 49121  1  0  0  0
 50 51  1  0  0  0
 50122  1  0  0  0
 50123  1  0  0  0
 51 52  1  0  0  0
 51124  1  0  0  0
 51125  1  0  0  0
 52126  1  0  0  0
 52127  1  0  0  0
 53 54  1  0  0  0
 54 55  2  0  0  0
 54128  1  0  0  0
 55 57  1  0  0  0
 55129  1  0  0  0
 56 69  2  0  0  0
 57 58  2  0  0  0
 57130  1  0  0  0
 58131  1  0  0  0
 59 60  1  0  0  0
 59 61  1  0  0  0
 59 62  1  0  0  0
 60132  1  0  0  0
 60133  1  0  0  0
 60134  1  0  0  0
 61135  1  0  0  0
 61136  1  0  0  0
 61137  1  0  0  0
 62138  1  0  0  0
 62139  1  0  0  0
 62140  1  0  0  0
 63 65  1  0  0  0
 63141  1  0  0  0
 63142  1  0  0  0
 63143  1  0  0  0
 64144  1  0  0  0
 65145  1  0  0  0
 68 84  1  0  0  0
 71 72  2  0  0  0
 71 74  1  0  0  0
 71 80  1  0  0  0
 72 73  1  0  0  0
 72 81  1  0  0  0
 73 75  2  0  0  0
 73 82  1  0  0  0
 74 83  1  0  0  0
 74 85  2  0  0  0
 75 84  1  0  0  0
 75 85  1  0  0  0
 76 78  1  0  0  0
 76 80  1  0  0  0
 76146  1  0  0  0
 76147  1  0  0  0
 77 79  1  0  0  0
 77 80  1  0  0  0
 77148  1  0  0  0
 77149  1  0  0  0
 78 86  1  0  0  0
 78150  1  0  0  0
 78151  1  0  0  0
 79 86  1  0  0  0
 79152  1  0  0  0
 79153  1  0  0  0
 80154  1  0  0  0
 81155  1  0  0  0
 81156  1  0  0  0
 81157  1  0  0  0
 82158  1  0  0  0
 82159  1  0  0  0
 82160  1  0  0  0
 83161  1  0  0  0
 83162  1  0  0  0
 83163  1  0  0  0
 84164  1  0  0  0
 84165  1  0  0  0
M  ISO  4   1 100  68 101  84 101  86 100
M  END
> <chiral flag>
0

> <version>
0

> <s_m_source_file>
/data/baiqing/PycharmProjects/Reinvent-master-3.2/result/LINK_invent/BTK/process_docking_weight1_custom_sum_contain_oxygen_bond_distance_aromatic_linkinvent_7_9_3/rearranged_h_0162.sdf

> <i_m_source_file_index>
14

> <r_mmod_Potential_Energy-OPLS-2005>
322.044281005859

> <r_mmod_Stretch_Energy-OPLS-2005>
123.411468505859

> <r_mmod_Bend_Energy-OPLS-2005>
214.870346069336

> <r_mmod_Torsional_Energy-OPLS-2005>
335.452423095703

> <r_mmod_Improper_Torsional_Energy-OPLS-2005>
10.6883735656738

> <r_mmod_Van_der_Waal_Energy-OPLS-2005>
165.145645141602

> <r_mmod_Electrostatic_Energy-OPLS-2005>
-410.88623046875

> <r_mmod_Solvation_Energy-OPLS-2005>
-209.603042602539

> <b_mmod_Minimization_Converged-OPLS-2005>
0

> <r_mmod_RMS_Derivative-OPLS-2005>
1.44500160217285

$$$$
14
                    3D
 Structure written by MMmdl.
169178  0  0  1  0            999 V2000
  -30.7159  -14.4696   20.5168 C   0  0  0  0  0  0
  -30.4124  -12.2755   19.4414 C   0  0  0  0  0  0
  -29.4961  -12.4365   18.2102 C   0  0  0  0  0  0
  -28.0097  -12.3509   18.6164 C   0  0  0  0  0  0
  -27.6537  -13.2103   19.8611 C   0  0  2  0  0  0
  -28.6981  -13.0314   20.9855 C   0  0  0  0  0  0
  -25.2551  -13.8165   20.5689 C   0  0  0  0  0  0
  -24.1818  -13.0424   20.9203 C   0  0  0  0  0  0
  -24.6393  -11.6896   20.8762 C   0  0  0  0  0  0
  -23.9062  -10.4288   21.0446 C   0  0  0  0  0  0
  -24.3623   -9.4192   21.9210 C   0  0  0  0  0  0
  -23.6301   -8.2218   22.0765 C   0  0  0  0  0  0
  -22.4278   -8.0273   21.3561 C   0  0  0  0  0  0
  -21.9917   -9.0238   20.4648 C   0  0  0  0  0  0
  -22.7246  -10.2118   20.3078 C   0  0  0  0  0  0
  -21.6845   -6.0733   22.5293 C   0  0  0  0  0  0
  -21.4001   -6.5640   23.8224 C   0  0  0  0  0  0
  -21.3664   -5.6799   24.9194 C   0  0  0  0  0  0
  -21.6048   -4.3059   24.7246 C   0  0  0  0  0  0
  -21.8817   -3.8151   23.4368 C   0  0  0  0  0  0
  -21.9178   -4.6960   22.3418 C   0  0  0  0  0  0
  -22.7842  -13.5192   21.1875 C   0  0  0  0  0  0
  -22.1650   -4.2149   21.0994 F   0  0  0  0  0  0
  -21.5648   -3.4543   25.7756 F   0  0  0  0  0  0
  -30.0262  -13.3043   20.4151 N   0  0  0  0  0  0
  -26.2989  -12.9340   20.3325 N   0  0  0  0  0  0
  -25.9311  -11.6501   20.5772 N   0  0  0  0  0  0
  -22.0490  -12.8177   22.0444 N   0  0  0  0  0  0
  -25.4234  -15.1888   20.4083 N   0  0  0  0  0  0
  -31.8989  -14.5794   20.1887 O   0  0  0  0  0  0
  -21.6641   -6.8872   21.4251 O   0  0  0  0  0  0
  -22.3505  -14.5491   20.6718 O   0  0  0  0  0  0
  -24.6108  -31.8691   23.2090 C   0  0  0  0  0  0
  -25.9010  -32.4834   23.8392 C   0  0  1  0  0  0
  -27.2384  -27.4567   20.1055 C   0  0  0  0  0  0
  -25.5874  -33.8632   24.2325 N   0  0  0  0  0  0
  -23.3991  -30.4921   21.5462 C   0  0  2  0  0  0
  -24.8503  -28.9590   20.1107 C   0  0  0  0  0  0
  -22.7382  -29.4678   22.4960 C   0  0  0  0  0  0
  -18.0270  -28.1377   22.8493 C   0  0  0  0  0  0
  -24.1479  -36.7326   23.2636 C   0  0  0  0  0  0
  -25.9233  -30.8441   21.3586 C   0  0  0  0  0  0
  -26.0050  -29.4784   20.7100 C   0  0  0  0  0  0
  -27.2035  -28.7330   20.7089 C   0  0  0  0  0  0
  -26.0775  -26.9499   19.4890 C   0  0  0  0  0  0
  -24.8803  -27.6923   19.4974 C   0  0  0  0  0  0
  -23.6074  -29.8190   20.1615 C   0  0  0  0  0  0
  -25.4101  -36.3126   24.0341 C   0  0  1  0  0  0
  -20.5860  -28.3662   23.1306 C   0  0  2  0  0  0
  -20.6751  -26.9399   22.5411 C   0  0  0  0  0  0
  -19.5735  -26.6381   21.5201 C   0  0  0  0  0  0
  -18.1915  -26.7921   22.1615 C   0  0  0  0  0  0
  -19.1524  -28.8833   23.2901 C   0  0  0  0  0  0
  -18.9451  -30.1439   23.8912 C   0  0  0  0  0  0
  -17.6460  -30.6587   24.0567 C   0  0  0  0  0  0
  -25.9029  -34.9489   23.5137 C   0  0  0  0  0  0
  -16.5353  -29.9093   23.6327 C   0  0  0  0  0  0
  -16.7265  -28.6512   23.0350 C   0  0  0  0  0  0
  -26.4452  -31.6599   25.0709 C   0  0  0  0  0  0
  -25.3730  -31.3707   26.1466 C   0  0  0  0  0  0
  -27.0273  -30.3042   24.6065 C   0  0  0  0  0  0
  -27.6023  -32.4315   25.7489 C   0  0  0  0  0  0
  -27.5593  -37.1803   24.8454 C   0  0  0  0  0  0
  -21.4111  -29.3046   22.3708 N   0  0  0  0  0  0
  -26.4287  -37.3813   23.9422 N   0  0  0  0  0  0
  -24.6617  -31.0823   22.0971 N   0  0  0  0  0  0
  -23.4171  -28.8218   23.2994 O   0  0  0  0  0  0
  -28.3739  -26.6816   20.1341 O   0  0  0  0  0  0
  -26.5605  -34.8941   22.4706 O   0  0  0  0  0  0
  -23.5307  -32.1424   23.7502 O   0  0  0  0  0  0
  -29.9962  -19.2856   19.8532 C   0  0  0  0  0  0
  -29.7765  -18.4399   17.2012 C   0  0  0  0  0  0
  -29.7720  -20.2476   18.8358 C   0  0  0  0  0  0
  -30.1162  -17.8966   19.5721 C   0  0  0  0  0  0
  -29.6731  -19.8066   17.4969 C   0  0  0  0  0  0
  -30.0004  -17.4864   18.2111 C   0  0  0  0  0  0
  -28.2592  -22.3062   18.9648 C   0  0  0  0  0  0
  -29.6540  -21.7265   19.1232 C   0  0  1  0  0  0
  -28.9480  -22.3871   20.2983 C   0  0  1  0  0  0
  -29.4761  -20.7856   16.3490 C   0  0  0  0  0  0
  -30.1269  -16.0549   17.7460 C   0  0  0  0  0  0
  -30.0153  -26.4677   21.9185 C   0  0  0  0  0  0
  -30.4536  -16.9591   20.7590 C   0  0  0  0  0  0
  -28.3528  -24.5518   21.3669 C   0  0  0  0  0  0
  -28.6207  -26.0762   21.4138 C   0  0  2  0  0  0
  -29.9707  -15.5649   20.7532 N   0  0  0  0  0  0
  -29.3500  -23.7882   20.5774 N   0  3  0  0  0  0
  -31.4631  -12.3403   19.1529 H   0  0  0  0  0  0
  -30.2853  -11.2852   19.8800 H   0  0  0  0  0  0
  -29.7181  -11.6594   17.4777 H   0  0  0  0  0  0
  -29.7015  -13.3778   17.7056 H   0  0  0  0  0  0
  -27.7908  -11.3030   18.8180 H   0  0  0  0  0  0
  -27.3757  -12.6321   17.7758 H   0  0  0  0  0  0
  -27.6816  -14.2517   19.5416 H   0  0  0  0  0  0
  -28.6690  -12.0118   21.3727 H   0  0  0  0  0  0
  -28.4798  -13.6785   21.8359 H   0  0  0  0  0  0
  -25.2775   -9.5636   22.4790 H   0  0  0  0  0  0
  -24.0007   -7.4590   22.7475 H   0  0  0  0  0  0
  -21.0856   -8.8743   19.8942 H   0  0  0  0  0  0
  -22.3726  -10.9651   19.6183 H   0  0  0  0  0  0
  -21.1990   -7.6146   23.9720 H   0  0  0  0  0  0
  -21.1497   -6.0544   25.9091 H   0  0  0  0  0  0
  -22.0594   -2.7608   23.2880 H   0  0  0  0  0  0
  -22.4090  -11.9810   22.4800 H   0  0  0  0  0  0
  -21.1108  -13.1204   22.2666 H   0  0  0  0  0  0
  -24.6578  -15.8444   20.5201 H   0  0  0  0  0  0
  -26.2685  -15.6301   20.0688 H   0  0  0  0  0  0
  -26.7085  -32.5567   23.1164 H   0  0  0  0  0  0
  -24.9996  -33.9793   25.0456 H   0  0  0  0  0  0
  -22.6879  -31.3077   21.4030 H   0  0  0  0  0  0
  -23.3755  -35.9643   23.3274 H   0  0  0  0  0  0
  -24.3579  -36.8969   22.2056 H   0  0  0  0  0  0
  -23.7204  -37.6514   23.6665 H   0  0  0  0  0  0
  -26.0279  -31.6109   20.5888 H   0  0  0  0  0  0
  -26.8130  -30.9026   21.9733 H   0  0  0  0  0  0
  -28.0928  -29.1300   21.1789 H   0  0  0  0  0  0
  -26.0948  -25.9744   19.0223 H   0  0  0  0  0  0
  -23.9917  -27.2856   19.0336 H   0  0  0  0  0  0
  -23.7069  -30.5892   19.3959 H   0  0  0  0  0  0
  -22.7346  -29.2302   19.8719 H   0  0  0  0  0  0
  -25.1271  -36.1999   25.0834 H   0  0  0  0  0  0
  -20.9969  -28.3237   24.1416 H   0  0  0  0  0  0
  -20.5626  -26.2283   23.3604 H   0  0  0  0  0  0
  -21.6623  -26.7416   22.1228 H   0  0  0  0  0  0
  -19.6893  -25.6290   21.1233 H   0  0  0  0  0  0
  -19.6677  -27.3186   20.6731 H   0  0  0  0  0  0
  -17.4183  -26.6678   21.4023 H   0  0  0  0  0  0
  -18.0318  -26.0058   22.9007 H   0  0  0  0  0  0
  -19.7940  -30.7248   24.2285 H   0  0  0  0  0  0
  -17.5028  -31.6272   24.5159 H   0  0  0  0  0  0
  -15.5362  -30.3010   23.7632 H   0  0  0  0  0  0
  -15.8660  -28.0839   22.7049 H   0  0  0  0  0  0
  -24.5867  -30.7100   25.7803 H   0  0  0  0  0  0
  -24.8974  -32.2874   26.4968 H   0  0  0  0  0  0
  -25.8091  -30.8826   27.0192 H   0  0  0  0  0  0
  -26.2809  -29.6826   24.1101 H   0  0  0  0  0  0
  -27.4018  -29.7257   25.4523 H   0  0  0  0  0  0
  -27.8660  -30.4362   23.9221 H   0  0  0  0  0  0
  -27.2614  -33.3567   26.2153 H   0  0  0  0  0  0
  -28.3805  -32.6954   25.0317 H   0  0  0  0  0  0
  -28.0722  -31.8388   26.5348 H   0  0  0  0  0  0
  -28.2574  -38.0139   24.7574 H   0  0  0  0  0  0
  -28.1126  -36.2678   24.6187 H   0  0  0  0  0  0
  -27.2323  -37.1346   25.8855 H   0  0  0  0  0  0
  -20.9248  -29.8797   21.6971 H   0  0  0  0  0  0
  -26.0185  -38.2888   24.1459 H   0  0  0  0  0  0
  -30.0969  -19.6270   20.8747 H   0  0  0  0  0  0
  -29.6979  -18.1190   16.1696 H   0  0  0  0  0  0
  -27.4215  -21.6142   18.8993 H   0  0  0  0  0  0
  -28.1636  -23.2030   18.3555 H   0  0  0  0  0  0
  -30.4899  -22.2606   18.6757 H   0  0  0  0  0  0
  -28.6144  -21.7940   21.1484 H   0  0  0  0  0  0
  -29.4573  -20.2749   15.3861 H   0  0  0  0  0  0
  -30.2877  -21.5140   16.3198 H   0  0  0  0  0  0
  -28.5323  -21.3202   16.4490 H   0  0  0  0  0  0
  -30.0655  -15.9686   16.6608 H   0  0  0  0  0  0
  -29.3105  -15.4709   18.1631 H   0  0  0  0  0  0
  -31.0888  -15.6369   18.0336 H   0  0  0  0  0  0
  -30.2070  -26.0385   22.9019 H   0  0  0  0  0  0
  -30.0971  -27.5507   22.0162 H   0  0  0  0  0  0
  -30.8039  -26.1401   21.2437 H   0  0  0  0  0  0
  -30.0489  -17.4105   21.6659 H   0  0  0  0  0  0
  -31.5367  -16.9867   20.8997 H   0  0  0  0  0  0
  -27.3516  -24.3805   20.9660 H   0  0  0  0  0  0
  -28.3488  -24.1508   22.3813 H   0  0  0  0  0  0
  -27.9161  -26.4692   22.1512 H   0  0  0  0  0  0
  -28.9942  -15.4175   20.9541 H   0  0  0  0  0  0
  -29.4977  -24.2655   19.7019 H   0  0  0  0  0  0
  -30.2321  -23.7824   21.0675 H   0  0  0  0  0  0
  1 25  1  0  0  0
  1 30  2  0  0  0
  1 86  1  0  0  0
  2  3  1  0  0  0
  2 25  1  0  0  0
  2 88  1  0  0  0
  2 89  1  0  0  0
  3  4  1  0  0  0
  3 90  1  0  0  0
  3 91  1  0  0  0
  4  5  1  0  0  0
  4 92  1  0  0  0
  4 93  1  0  0  0
  5  6  1  0  0  0
  5 26  1  0  0  0
  5 94  1  0  0  0
  6 25  1  0  0  0
  6 95  1  0  0  0
  6 96  1  0  0  0
  7  8  2  0  0  0
  7 26  1  0  0  0
  7 29  1  0  0  0
  8  9  1  0  0  0
  8 22  1  0  0  0
  9 10  1  0  0  0
  9 27  2  0  0  0
 10 11  2  0  0  0
 10 15  1  0  0  0
 11 12  1  0  0  0
 11 97  1  0  0  0
 12 13  2  0  0  0
 12 98  1  0  0  0
 13 14  1  0  0  0
 13 31  1  0  0  0
 14 15  2  0  0  0
 14 99  1  0  0  0
 15100  1  0  0  0
 16 17  2  0  0  0
 16 21  1  0  0  0
 16 31  1  0  0  0
 17 18  1  0  0  0
 17101  1  0  0  0
 18 19  2  0  0  0
 18102  1  0  0  0
 19 20  1  0  0  0
 19 24  1  0  0  0
 20 21  2  0  0  0
 20103  1  0  0  0
 21 23  1  0  0  0
 22 28  1  0  0  0
 22 32  2  0  0  0
 26 27  1  0  0  0
 28104  1  0  0  0
 28105  1  0  0  0
 29106  1  0  0  0
 29107  1  0  0  0
 33 34  1  0  0  0
 33 66  1  0  0  0
 33 70  2  0  0  0
 34 36  1  0  0  0
 34 59  1  0  0  0
 34108  1  0  0  0
 35 44  2  0  0  0
 35 45  1  0  0  0
 35 68  1  0  0  0
 36 56  1  0  0  0
 36109  1  0  0  0
 37 39  1  0  0  0
 37 47  1  0  0  0
 37 66  1  0  0  0
 37110  1  0  0  0
 38 43  2  0  0  0
 38 46  1  0  0  0
 38 47  1  0  0  0
 39 64  1  0  0  0
 39 67  2  0  0  0
 40 52  1  0  0  0
 40 53  2  0  0  0
 40 58  1  0  0  0
 41111  1  0  0  0
 41112  1  0  0  0
 41113  1  0  0  0
 41 48  1  0  0  0
 42 43  1  0  0  0
 42 66  1  0  0  0
 42114  1  0  0  0
 42115  1  0  0  0
 43 44  1  0  0  0
 44116  1  0  0  0
 45 46  2  0  0  0
 45117  1  0  0  0
 46118  1  0  0  0
 47119  1  0  0  0
 47120  1  0  0  0
 48 56  1  0  0  0
 48 65  1  0  0  0
 48121  1  0  0  0
 49 50  1  0  0  0
 49 53  1  0  0  0
 49 64  1  0  0  0
 49122  1  0  0  0
 50 51  1  0  0  0
 50123  1  0  0  0
 50124  1  0  0  0
 51 52  1  0  0  0
 51125  1  0  0  0
 51126  1  0  0  0
 52127  1  0  0  0
 52128  1  0  0  0
 53 54  1  0  0  0
 54 55  2  0  0  0
 54129  1  0  0  0
 55 57  1  0  0  0
 55130  1  0  0  0
 56 69  2  0  0  0
 57 58  2  0  0  0
 57131  1  0  0  0
 58132  1  0  0  0
 59 60  1  0  0  0
 59 61  1  0  0  0
 59 62  1  0  0  0
 60133  1  0  0  0
 60134  1  0  0  0
 60135  1  0  0  0
 61136  1  0  0  0
 61137  1  0  0  0
 61138  1  0  0  0
 62139  1  0  0  0
 62140  1  0  0  0
 62141  1  0  0  0
 63 65  1  0  0  0
 63142  1  0  0  0
 63143  1  0  0  0
 63144  1  0  0  0
 64145  1  0  0  0
 65146  1  0  0  0
 68 85  1  0  0  0
 71 73  2  0  0  0
 71 74  1  0  0  0
 71147  1  0  0  0
 72 75  2  0  0  0
 72 76  1  0  0  0
 72148  1  0  0  0
 73 75  1  0  0  0
 73 78  1  0  0  0
 74 76  2  0  0  0
 74 83  1  0  0  0
 75 80  1  0  0  0
 76 81  1  0  0  0
 77 78  1  0  0  0
 77 79  1  0  0  0
 77149  1  0  0  0
 77150  1  0  0  0
 78 79  1  0  0  0
 78151  1  0  0  0
 79 87  1  0  0  0
 79152  1  0  0  0
 80153  1  0  0  0
 80154  1  0  0  0
 80155  1  0  0  0
 81156  1  0  0  0
 81157  1  0  0  0
 81158  1  0  0  0
 82159  1  0  0  0
 82160  1  0  0  0
 82161  1  0  0  0
 82 85  1  0  0  0
 83 86  1  0  0  0
 83162  1  0  0  0
 83163  1  0  0  0
 84 85  1  0  0  0
 84 87  1  0  0  0
 84164  1  0  0  0
 84165  1  0  0  0
 85166  1  0  0  0
 86167  1  0  0  0
 87168  1  0  0  0
 87169  1  0  0  0
M  CHG  1  87   1
M  ISO  4   1 100  68 101  85 101  86 100
M  END
> <chiral flag>
0

> <version>
0

> <s_m_source_file>
/data/baiqing/PycharmProjects/Reinvent-master-3.2/result/LINK_invent/BTK/process_docking_weight1_custom_sum_contain_oxygen_bond_distance_aromatic_linkinvent_7_9_3/rearranged_h_0162.sdf

> <i_m_source_file_index>
15

> <r_mmod_Potential_Energy-OPLS-2005>
-217.007034301758

> <r_mmod_Stretch_Energy-OPLS-2005>
38.2104759216309

> <r_mmod_Bend_Energy-OPLS-2005>
113.620666503906

> <r_mmod_Torsional_Energy-OPLS-2005>
280.493011474609

> <r_mmod_Improper_Torsional_Energy-OPLS-2005>
5.83012008666992

> <r_mmod_Van_der_Waal_Energy-OPLS-2005>
148.311462402344

> <r_mmod_Electrostatic_Energy-OPLS-2005>
-375.128112792969

> <r_mmod_Solvation_Energy-OPLS-2005>
-447.153778076172

> <b_mmod_Minimization_Converged-OPLS-2005>
0

> <r_mmod_RMS_Derivative-OPLS-2005>
2.42881798744202

$$$$
15
                    3D
 Structure written by MMmdl.
171180  0  0  1  0            999 V2000
  -30.6055  -14.9078   20.4891 C   0  0  0  0  0  0
  -30.4298  -12.5742   19.5130 C   0  0  0  0  0  0
  -29.5224  -12.5635   18.2649 C   0  0  0  0  0  0
  -28.0637  -12.3180   18.6851 C   0  0  0  0  0  0
  -27.6337  -13.2392   19.8522 C   0  0  2  0  0  0
  -28.6706  -13.2990   20.9967 C   0  0  0  0  0  0
  -25.2438  -13.8166   20.5716 C   0  0  0  0  0  0
  -24.1784  -13.0396   20.9204 C   0  0  0  0  0  0
  -24.6391  -11.6873   20.8761 C   0  0  0  0  0  0
  -23.9067  -10.4266   21.0396 C   0  0  0  0  0  0
  -24.3630   -9.4207   21.9192 C   0  0  0  0  0  0
  -23.6306   -8.2244   22.0768 C   0  0  0  0  0  0
  -22.4286   -8.0264   21.3563 C   0  0  0  0  0  0
  -21.9908   -9.0231   20.4692 C   0  0  0  0  0  0
  -22.7207  -10.2106   20.3095 C   0  0  0  0  0  0
  -21.6864   -6.0707   22.5228 C   0  0  0  0  0  0
  -21.4004   -6.5642   23.8143 C   0  0  0  0  0  0
  -21.3665   -5.6821   24.9127 C   0  0  0  0  0  0
  -21.6060   -4.3088   24.7211 C   0  0  0  0  0  0
  -21.8833   -3.8139   23.4339 C   0  0  0  0  0  0
  -21.9215   -4.6936   22.3384 C   0  0  0  0  0  0
  -22.7801  -13.5137   21.1866 C   0  0  0  0  0  0
  -22.1683   -4.2106   21.0970 F   0  0  0  0  0  0
  -21.5654   -3.4590   25.7740 F   0  0  0  0  0  0
  -29.9552  -13.6794   20.3982 N   0  0  0  0  0  0
  -26.2908  -12.9417   20.3312 N   0  0  0  0  0  0
  -25.9340  -11.6546   20.5775 N   0  0  0  0  0  0
  -22.0501  -12.8119   22.0438 N   0  0  0  0  0  0
  -25.3961  -15.1899   20.4104 N   0  0  0  0  0  0
  -31.8089  -14.9064   20.2008 O   0  0  0  0  0  0
  -21.6682   -6.8837   21.4186 O   0  0  0  0  0  0
  -22.3479  -14.5444   20.6697 O   0  0  0  0  0  0
  -24.6407  -31.8436   23.1852 C   0  0  0  0  0  0
  -25.9205  -32.4674   23.8272 C   0  0  1  0  0  0
  -27.2147  -27.1431   20.1799 C   0  0  0  0  0  0
  -25.5952  -33.8478   24.2182 N   0  0  0  0  0  0
  -23.4461  -30.4635   21.5257 C   0  0  2  0  0  0
  -24.8994  -28.8928   20.1067 C   0  0  0  0  0  0
  -22.7586  -29.4550   22.4805 C   0  0  0  0  0  0
  -18.0316  -28.1353   22.8436 C   0  0  0  0  0  0
  -24.1551  -36.7281   23.2638 C   0  0  0  0  0  0
  -26.0016  -30.7286   21.3828 C   0  0  0  0  0  0
  -26.0769  -29.3412   20.7227 C   0  0  0  0  0  0
  -27.2363  -28.4825   20.7367 C   0  0  0  0  0  0
  -26.0196  -26.7976   19.5107 C   0  0  0  0  0  0
  -24.8833  -27.6342   19.4837 C   0  0  0  0  0  0
  -23.6782  -29.7925   20.1457 C   0  0  0  0  0  0
  -25.4177  -36.3027   24.0301 C   0  0  1  0  0  0
  -20.5922  -28.3706   23.1201 C   0  0  2  0  0  0
  -20.6797  -26.9404   22.5378 C   0  0  0  0  0  0
  -19.5788  -26.6357   21.5160 C   0  0  0  0  0  0
  -18.1965  -26.7889   22.1589 C   0  0  0  0  0  0
  -19.1566  -28.8851   23.2817 C   0  0  0  0  0  0
  -18.9482  -30.1453   23.8844 C   0  0  0  0  0  0
  -17.6463  -30.6544   24.0557 C   0  0  0  0  0  0
  -25.9096  -34.9390   23.5063 C   0  0  0  0  0  0
  -16.5358  -29.9033   23.6301 C   0  0  0  0  0  0
  -16.7299  -28.6462   23.0299 C   0  0  0  0  0  0
  -26.4546  -31.6512   25.0691 C   0  0  0  0  0  0
  -25.3749  -31.3618   26.1393 C   0  0  0  0  0  0
  -27.0421  -30.2894   24.6287 C   0  0  0  0  0  0
  -27.6140  -32.4241   25.7445 C   0  0  0  0  0  0
  -27.5619  -37.1803   24.8454 C   0  0  0  0  0  0
  -21.4264  -29.3039   22.3584 N   0  0  0  0  0  0
  -26.4333  -37.3734   23.9372 N   0  0  0  0  0  0
  -24.7149  -31.0356   22.0849 N   0  0  0  0  0  0
  -23.4250  -28.8118   23.2965 O   0  0  0  0  0  0
  -28.2568  -26.1608   20.3118 O   0  0  0  0  0  0
  -26.5697  -34.8886   22.4647 O   0  0  0  0  0  0
  -23.5543  -32.1311   23.7082 O   0  0  0  0  0  0
  -30.7093  -23.5779   22.7462 C   0  0  0  0  0  0
  -31.5145  -22.7904   21.8809 C   0  0  0  0  0  0
  -29.4449  -24.0174   22.2781 C   0  0  0  0  0  0
  -30.9057  -22.1314   20.7818 C   0  0  0  0  0  0
  -28.9408  -23.5396   21.0344 C   0  0  0  0  0  0
  -29.5026  -22.2017   20.6344 C   0  0  0  0  0  0
  -28.3163  -18.2490   20.5676 C   0  0  0  0  0  0
  -30.5195  -18.8086   21.3401 C   0  0  0  0  0  0
  -28.8031  -16.7817   20.1243 C   0  0  0  0  0  0
  -30.6512  -17.2191   21.6562 C   0  0  0  0  0  0
  -29.3687  -19.3920   20.4107 C   0  0  0  0  0  0
  -31.2026  -23.9991   24.1349 C   0  0  0  0  0  0
  -33.0025  -22.5894   22.1356 C   0  0  0  0  0  0
  -28.6538  -25.0276   23.1125 C   0  0  0  0  0  0
  -31.7463  -21.3729   19.7558 C   0  0  0  0  0  0
  -28.0045  -24.6207   20.2282 C   0  0  0  0  0  0
  -29.9652  -16.1409   20.8373 N   0  0  0  0  0  0
  -28.8429  -20.8801   20.4886 N   0  0  0  0  0  0
  -31.4727  -12.7002   19.2149 H   0  0  0  0  0  0
  -30.3879  -11.6103   20.0263 H   0  0  0  0  0  0
  -29.8468  -11.8123   17.5434 H   0  0  0  0  0  0
  -29.6013  -13.5243   17.7502 H   0  0  0  0  0  0
  -27.9689  -11.2715   18.9817 H   0  0  0  0  0  0
  -27.4012  -12.4607   17.8351 H   0  0  0  0  0  0
  -27.5872  -14.2232   19.3926 H   0  0  0  0  0  0
  -28.7504  -12.3564   21.5404 H   0  0  0  0  0  0
  -28.3767  -14.0490   21.7323 H   0  0  0  0  0  0
  -25.2781   -9.5694   22.4763 H   0  0  0  0  0  0
  -24.0040   -7.4646   22.7486 H   0  0  0  0  0  0
  -21.0834   -8.8724   19.9014 H   0  0  0  0  0  0
  -22.3621  -10.9660   19.6249 H   0  0  0  0  0  0
  -21.1959   -7.6150   23.9584 H   0  0  0  0  0  0
  -21.1498   -6.0604   25.9021 H   0  0  0  0  0  0
  -22.0615   -2.7590   23.2858 H   0  0  0  0  0  0
  -22.4245  -11.9795   22.4758 H   0  0  0  0  0  0
  -21.1122  -13.1076   22.2712 H   0  0  0  0  0  0
  -24.6019  -15.8164   20.4996 H   0  0  0  0  0  0
  -26.2254  -15.6429   20.0522 H   0  0  0  0  0  0
  -26.7297  -32.5338   23.1050 H   0  0  0  0  0  0
  -25.0025  -33.9566   25.0281 H   0  0  0  0  0  0
  -22.7453  -31.2844   21.3616 H   0  0  0  0  0  0
  -23.3780  -35.9645   23.3260 H   0  0  0  0  0  0
  -24.3663  -36.8958   22.2064 H   0  0  0  0  0  0
  -23.7335  -37.6478   23.6704 H   0  0  0  0  0  0
  -26.1632  -31.4952   20.6244 H   0  0  0  0  0  0
  -26.8673  -30.7718   22.0308 H   0  0  0  0  0  0
  -28.1333  -28.8136   21.2389 H   0  0  0  0  0  0
  -25.9351  -25.8323   19.0343 H   0  0  0  0  0  0
  -23.9842  -27.2822   18.9976 H   0  0  0  0  0  0
  -23.8192  -30.5612   19.3830 H   0  0  0  0  0  0
  -22.7969  -29.2294   19.8340 H   0  0  0  0  0  0
  -25.1362  -36.1864   25.0781 H   0  0  0  0  0  0
  -21.0007  -28.3272   24.1328 H   0  0  0  0  0  0
  -20.5588  -26.2323   23.3603 H   0  0  0  0  0  0
  -21.6681  -26.7358   22.1251 H   0  0  0  0  0  0
  -19.6961  -25.6251   21.1219 H   0  0  0  0  0  0
  -19.6722  -27.3147   20.6664 H   0  0  0  0  0  0
  -17.4233  -26.6577   21.4011 H   0  0  0  0  0  0
  -18.0434  -26.0042   22.9006 H   0  0  0  0  0  0
  -19.7954  -30.7284   24.2187 H   0  0  0  0  0  0
  -17.5007  -31.6205   24.5180 H   0  0  0  0  0  0
  -15.5359  -30.2921   23.7621 H   0  0  0  0  0  0
  -15.8712  -28.0782   22.6995 H   0  0  0  0  0  0
  -24.5972  -30.6950   25.7650 H   0  0  0  0  0  0
  -24.8900  -32.2745   26.4844 H   0  0  0  0  0  0
  -25.8045  -30.8738   27.0144 H   0  0  0  0  0  0
  -26.3062  -29.6609   24.1263 H   0  0  0  0  0  0
  -27.3959  -29.7200   25.4887 H   0  0  0  0  0  0
  -27.9002  -30.4065   23.9671 H   0  0  0  0  0  0
  -27.2811  -33.3552   26.2033 H   0  0  0  0  0  0
  -28.3932  -32.6760   25.0238 H   0  0  0  0  0  0
  -28.0863  -31.8348   26.5317 H   0  0  0  0  0  0
  -28.2594  -38.0136   24.7506 H   0  0  0  0  0  0
  -28.1147  -36.2647   24.6270 H   0  0  0  0  0  0
  -27.2326  -37.1466   25.8854 H   0  0  0  0  0  0
  -20.9462  -29.8769   21.6790 H   0  0  0  0  0  0
  -26.0195  -38.2812   24.1287 H   0  0  0  0  0  0
  -28.0037  -18.2068   21.6160 H   0  0  0  0  0  0
  -27.4196  -18.5118   20.0012 H   0  0  0  0  0  0
  -31.4808  -19.0830   20.9150 H   0  0  0  0  0  0
  -30.4868  -19.3298   22.2975 H   0  0  0  0  0  0
  -29.0379  -16.8066   19.0564 H   0  0  0  0  0  0
  -27.9397  -16.1310   20.2281 H   0  0  0  0  0  0
  -31.7103  -16.9745   21.7598 H   0  0  0  0  0  0
  -30.2604  -17.0757   22.6652 H   0  0  0  0  0  0
  -29.7028  -19.2560   19.3862 H   0  0  0  0  0  0
  -30.9275  -25.0184   24.3936 H   0  0  0  0  0  0
  -32.2779  -23.9355   24.2784 H   0  0  0  0  0  0
  -30.7427  -23.3475   24.8795 H   0  0  0  0  0  0
  -33.1577  -21.6669   22.6930 H   0  0  0  0  0  0
  -33.4639  -23.4190   22.6651 H   0  0  0  0  0  0
  -33.5541  -22.5156   21.1993 H   0  0  0  0  0  0
  -29.1973  -25.9706   23.2013 H   0  0  0  0  0  0
  -27.6641  -25.2484   22.7115 H   0  0  0  0  0  0
  -28.5014  -24.6293   24.1171 H   0  0  0  0  0  0
  -32.2017  -22.0816   19.0651 H   0  0  0  0  0  0
  -31.1714  -20.6952   19.1345 H   0  0  0  0  0  0
  -32.5425  -20.8077   20.2293 H   0  0  0  0  0  0
  -26.9822  -24.4146   20.5594 H   0  0  0  0  0  0
  -28.0259  -24.3366   19.1769 H   0  0  0  0  0  0
  -27.8601  -20.9528   20.2461 H   0  0  0  0  0  0
  1 25  1  0  0  0
  1 30  2  0  0  0
  1 87  1  0  0  0
  2  3  1  0  0  0
  2 25  1  0  0  0
  2 89  1  0  0  0
  2 90  1  0  0  0
  3  4  1  0  0  0
  3 91  1  0  0  0
  3 92  1  0  0  0
  4  5  1  0  0  0
  4 93  1  0  0  0
  4 94  1  0  0  0
  5  6  1  0  0  0
  5 26  1  0  0  0
  5 95  1  0  0  0
  6 25  1  0  0  0
  6 96  1  0  0  0
  6 97  1  0  0  0
  7  8  2  0  0  0
  7 26  1  0  0  0
  7 29  1  0  0  0
  8  9  1  0  0  0
  8 22  1  0  0  0
  9 10  1  0  0  0
  9 27  2  0  0  0
 10 11  2  0  0  0
 10 15  1  0  0  0
 11 12  1  0  0  0
 11 98  1  0  0  0
 12 13  2  0  0  0
 12 99  1  0  0  0
 13 14  1  0  0  0
 13 31  1  0  0  0
 14 15  2  0  0  0
 14100  1  0  0  0
 15101  1  0  0  0
 16 17  2  0  0  0
 16 21  1  0  0  0
 16 31  1  0  0  0
 17 18  1  0  0  0
 17102  1  0  0  0
 18 19  2  0  0  0
 18103  1  0  0  0
 19 20  1  0  0  0
 19 24  1  0  0  0
 20 21  2  0  0  0
 20104  1  0  0  0
 21 23  1  0  0  0
 22 28  1  0  0  0
 22 32  2  0  0  0
 26 27  1  0  0  0
 28105  1  0  0  0
 28106  1  0  0  0
 29107  1  0  0  0
 29108  1  0  0  0
 33 34  1  0  0  0
 33 66  1  0  0  0
 33 70  2  0  0  0
 34 36  1  0  0  0
 34 59  1  0  0  0
 34109  1  0  0  0
 35 44  2  0  0  0
 35 45  1  0  0  0
 35 68  1  0  0  0
 36 56  1  0  0  0
 36110  1  0  0  0
 37 39  1  0  0  0
 37 47  1  0  0  0
 37 66  1  0  0  0
 37111  1  0  0  0
 38 43  2  0  0  0
 38 46  1  0  0  0
 38 47  1  0  0  0
 39 64  1  0  0  0
 39 67  2  0  0  0
 40 52  1  0  0  0
 40 53  2  0  0  0
 40 58  1  0  0  0
 41112  1  0  0  0
 41113  1  0  0  0
 41114  1  0  0  0
 41 48  1  0  0  0
 42 43  1  0  0  0
 42 66  1  0  0  0
 42115  1  0  0  0
 42116  1  0  0  0
 43 44  1  0  0  0
 44117  1  0  0  0
 45 46  2  0  0  0
 45118  1  0  0  0
 46119  1  0  0  0
 47120  1  0  0  0
 47121  1  0  0  0
 48 56  1  0  0  0
 48 65  1  0  0  0
 48122  1  0  0  0
 49 50  1  0  0  0
 49 53  1  0  0  0
 49 64  1  0  0  0
 49123  1  0  0  0
 50 51  1  0  0  0
 50124  1  0  0  0
 50125  1  0  0  0
 51 52  1  0  0  0
 51126  1  0  0  0
 51127  1  0  0  0
 52128  1  0  0  0
 52129  1  0  0  0
 53 54  1  0  0  0
 54 55  2  0  0  0
 54130  1  0  0  0
 55 57  1  0  0  0
 55131  1  0  0  0
 56 69  2  0  0  0
 57 58  2  0  0  0
 57132  1  0  0  0
 58133  1  0  0  0
 59 60  1  0  0  0
 59 61  1  0  0  0
 59 62  1  0  0  0
 60134  1  0  0  0
 60135  1  0  0  0
 60136  1  0  0  0
 61137  1  0  0  0
 61138  1  0  0  0
 61139  1  0  0  0
 62140  1  0  0  0
 62141  1  0  0  0
 62142  1  0  0  0
 63 65  1  0  0  0
 63143  1  0  0  0
 63144  1  0  0  0
 63145  1  0  0  0
 64146  1  0  0  0
 65147  1  0  0  0
 68 86  1  0  0  0
 71 72  2  0  0  0
 71 73  1  0  0  0
 71 82  1  0  0  0
 72 74  1  0  0  0
 72 83  1  0  0  0
 73 75  2  0  0  0
 73 84  1  0  0  0
 74 76  2  0  0  0
 74 85  1  0  0  0
 75 76  1  0  0  0
 75 86  1  0  0  0
 76 88  1  0  0  0
 77 79  1  0  0  0
 77 81  1  0  0  0
 77148  1  0  0  0
 77149  1  0  0  0
 78 80  1  0  0  0
 78 81  1  0  0  0
 78150  1  0  0  0
 78151  1  0  0  0
 79 87  1  0  0  0
 79152  1  0  0  0
 79153  1  0  0  0
 80 87  1  0  0  0
 80154  1  0  0  0
 80155  1  0  0  0
 81 88  1  0  0  0
 81156  1  0  0  0
 82157  1  0  0  0
 82158  1  0  0  0
 82159  1  0  0  0
 83160  1  0  0  0
 83161  1  0  0  0
 83162  1  0  0  0
 84163  1  0  0  0
 84164  1  0  0  0
 84165  1  0  0  0
 85166  1  0  0  0
 85167  1  0  0  0
 85168  1  0  0  0
 86169  1  0  0  0
 86170  1  0  0  0
 88171  1  0  0  0
M  ISO  4   1 100  68 101  86 101  87 100
M  END
> <chiral flag>
0

> <version>
0

> <s_m_source_file>
/data/baiqing/PycharmProjects/Reinvent-master-3.2/result/LINK_invent/BTK/process_docking_weight1_custom_sum_contain_oxygen_bond_distance_aromatic_linkinvent_7_9_3/rearranged_h_0162.sdf

> <i_m_source_file_index>
16

> <r_mmod_Potential_Energy-OPLS-2005>
889.138488769531

> <r_mmod_Stretch_Energy-OPLS-2005>
239.429672241211

> <r_mmod_Bend_Energy-OPLS-2005>
304.905334472656

> <r_mmod_Torsional_Energy-OPLS-2005>
526.323120117188

> <r_mmod_Improper_Torsional_Energy-OPLS-2005>
8.10246467590332

> <r_mmod_Van_der_Waal_Energy-OPLS-2005>
162.747406005859

> <r_mmod_Electrostatic_Energy-OPLS-2005>
-320.984252929688

> <r_mmod_Solvation_Energy-OPLS-2005>
-211.011871337891

> <b_mmod_Minimization_Converged-OPLS-2005>
0

> <r_mmod_RMS_Derivative-OPLS-2005>
7.5235390663147

$$$$
16
                    3D
 Structure written by MMmdl.
168177  0  0  1  0            999 V2000
  -30.6173  -14.6458   20.5188 C   0  0  0  0  0  0
  -30.4363  -12.3942   19.4632 C   0  0  0  0  0  0
  -29.5167  -12.5294   18.2288 C   0  0  0  0  0  0
  -28.0338  -12.3704   18.6270 C   0  0  0  0  0  0
  -27.6561  -13.2247   19.8673 C   0  0  2  0  0  0
  -28.6967  -13.0558   20.9951 C   0  0  0  0  0  0
  -25.2563  -13.8201   20.5659 C   0  0  0  0  0  0
  -24.1837  -13.0439   20.9151 C   0  0  0  0  0  0
  -24.6411  -11.6924   20.8680 C   0  0  0  0  0  0
  -23.9067  -10.4309   21.0352 C   0  0  0  0  0  0
  -24.3623   -9.4251   21.9153 C   0  0  0  0  0  0
  -23.6313   -8.2272   22.0729 C   0  0  0  0  0  0
  -22.4295   -8.0302   21.3522 C   0  0  0  0  0  0
  -21.9907   -9.0261   20.4619 C   0  0  0  0  0  0
  -22.7225  -10.2145   20.3017 C   0  0  0  0  0  0
  -21.6879   -6.0745   22.5262 C   0  0  0  0  0  0
  -21.4042   -6.5643   23.8200 C   0  0  0  0  0  0
  -21.3656   -5.6792   24.9151 C   0  0  0  0  0  0
  -21.6046   -4.3050   24.7207 C   0  0  0  0  0  0
  -21.8838   -3.8140   23.4333 C   0  0  0  0  0  0
  -21.9215   -4.6958   22.3389 C   0  0  0  0  0  0
  -22.7870  -13.5226   21.1834 C   0  0  0  0  0  0
  -22.1690   -4.2144   21.0960 F   0  0  0  0  0  0
  -21.5609   -3.4533   25.7720 F   0  0  0  0  0  0
  -30.0100  -13.4159   20.4440 N   0  0  0  0  0  0
  -26.3010  -12.9391   20.3312 N   0  0  0  0  0  0
  -25.9350  -11.6529   20.5701 N   0  0  0  0  0  0
  -22.0531  -12.8200   22.0386 N   0  0  0  0  0  0
  -25.4271  -15.1930   20.4123 N   0  0  0  0  0  0
  -31.7653  -14.7834   20.0839 O   0  0  0  0  0  0
  -21.6679   -6.8880   21.4222 O   0  0  0  0  0  0
  -22.3544  -14.5534   20.6698 O   0  0  0  0  0  0
  -24.6261  -31.8591   23.2015 C   0  0  0  0  0  0
  -25.9117  -32.4763   23.8343 C   0  0  1  0  0  0
  -27.2151  -27.3281   20.1200 C   0  0  0  0  0  0
  -25.5935  -33.8563   24.2276 N   0  0  0  0  0  0
  -23.4184  -30.4824   21.5446 C   0  0  2  0  0  0
  -24.8642  -28.9360   20.1105 C   0  0  0  0  0  0
  -22.7485  -29.4613   22.4943 C   0  0  0  0  0  0
  -18.0293  -28.1380   22.8480 C   0  0  0  0  0  0
  -24.1490  -36.7294   23.2641 C   0  0  0  0  0  0
  -25.9593  -30.7920   21.3706 C   0  0  0  0  0  0
  -26.0327  -29.4187   20.7162 C   0  0  0  0  0  0
  -27.2166  -28.6255   20.7129 C   0  0  0  0  0  0
  -26.0393  -26.8967   19.4818 C   0  0  0  0  0  0
  -24.8688  -27.6794   19.4830 C   0  0  0  0  0  0
  -23.6312  -29.8164   20.1596 C   0  0  0  0  0  0
  -25.4119  -36.3079   24.0324 C   0  0  1  0  0  0
  -20.5896  -28.3690   23.1286 C   0  0  2  0  0  0
  -20.6778  -26.9409   22.5414 C   0  0  0  0  0  0
  -19.5755  -26.6383   21.5211 C   0  0  0  0  0  0
  -18.1934  -26.7918   22.1621 C   0  0  0  0  0  0
  -19.1543  -28.8852   23.2869 C   0  0  0  0  0  0
  -18.9464  -30.1452   23.8889 C   0  0  0  0  0  0
  -17.6464  -30.6580   24.0562 C   0  0  0  0  0  0
  -25.9057  -34.9445   23.5105 C   0  0  0  0  0  0
  -16.5354  -29.9082   23.6319 C   0  0  0  0  0  0
  -16.7278  -28.6497   23.0347 C   0  0  0  0  0  0
  -26.4489  -31.6573   25.0713 C   0  0  0  0  0  0
  -25.3737  -31.3719   26.1460 C   0  0  0  0  0  0
  -27.0331  -30.3004   24.6153 C   0  0  0  0  0  0
  -27.6038  -32.4325   25.7484 C   0  0  0  0  0  0
  -27.5582  -37.1800   24.8462 C   0  0  0  0  0  0
  -21.4199  -29.3032   22.3672 N   0  0  0  0  0  0
  -26.4299  -37.3774   23.9402 N   0  0  0  0  0  0
  -24.6868  -31.0621   22.0949 N   0  0  0  0  0  0
  -23.4211  -28.8156   23.3021 O   0  0  0  0  0  0
  -28.3043  -26.4571   20.1256 O   0  0  0  0  0  0
  -26.5629  -34.8916   22.4672 O   0  0  0  0  0  0
  -23.5432  -32.1382   23.7361 O   0  0  0  0  0  0
  -28.7020  -20.8770   20.6133 C   0  0  0  0  0  0
  -27.4175  -21.5224   20.4876 C   0  0  0  0  0  0
  -29.8276  -21.7680   20.5137 C   0  0  0  0  0  0
  -27.2587  -22.9514   20.5528 C   0  0  0  0  0  0
  -29.6630  -23.2049   20.5154 C   0  0  0  0  0  0
  -28.3826  -23.8261   20.6517 C   0  0  0  0  0  0
  -28.7819  -19.3440   20.9713 C   0  0  0  0  0  0
  -30.7082  -16.7451   22.0791 C   0  0  0  0  0  0
  -30.8549  -18.1924   21.5524 C   0  0  0  0  0  0
  -29.4916  -17.0979   20.0434 C   0  0  0  0  0  0
  -29.8738  -15.9513   21.0621 C   0  0  1  0  0  0
  -26.1528  -20.6734   20.2924 C   0  0  0  0  0  0
  -31.2424  -21.1941   20.4262 C   0  0  0  0  0  0
  -25.8388  -23.5278   20.5326 C   0  0  0  0  0  0
  -30.8971  -24.1004   20.4061 C   0  0  0  0  0  0
  -28.2361  -25.3470   21.0912 C   0  0  0  0  0  0
  -29.7771  -18.4694   20.5910 N   0  0  0  0  0  0
  -27.8578  -18.8693   21.6394 O   0  0  0  0  0  0
  -31.4818  -12.5046   19.1702 H   0  0  0  0  0  0
  -30.3524  -11.3950   19.8937 H   0  0  0  0  0  0
  -29.7867  -11.7934   17.4713 H   0  0  0  0  0  0
  -29.6712  -13.5075   17.7692 H   0  0  0  0  0  0
  -27.8607  -11.3147   18.8401 H   0  0  0  0  0  0
  -27.3910  -12.6239   17.7819 H   0  0  0  0  0  0
  -27.6790  -14.2668   19.5489 H   0  0  0  0  0  0
  -28.7087  -12.0221   21.3447 H   0  0  0  0  0  0
  -28.4345  -13.6451   21.8725 H   0  0  0  0  0  0
  -25.2757   -9.5778   22.4726 H   0  0  0  0  0  0
  -24.0047   -7.4682   22.7454 H   0  0  0  0  0  0
  -21.0837   -8.8769   19.8942 H   0  0  0  0  0  0
  -22.3651  -10.9685   19.6129 H   0  0  0  0  0  0
  -21.2060   -7.6146   23.9698 H   0  0  0  0  0  0
  -21.1450   -6.0509   25.9053 H   0  0  0  0  0  0
  -22.0618   -2.7597   23.2830 H   0  0  0  0  0  0
  -22.4169  -11.9882   22.4796 H   0  0  0  0  0  0
  -21.1144  -13.1199   22.2553 H   0  0  0  0  0  0
  -24.6635  -15.8496   20.5372 H   0  0  0  0  0  0
  -26.2915  -15.6383   20.1321 H   0  0  0  0  0  0
  -26.7191  -32.5419   23.1093 H   0  0  0  0  0  0
  -25.0042  -33.9691   25.0401 H   0  0  0  0  0  0
  -22.7108  -31.3019   21.4027 H   0  0  0  0  0  0
  -23.3739  -35.9637   23.3295 H   0  0  0  0  0  0
  -24.3582  -36.8931   22.2057 H   0  0  0  0  0  0
  -23.7260  -37.6501   23.6674 H   0  0  0  0  0  0
  -26.0964  -31.5539   20.6016 H   0  0  0  0  0  0
  -26.8396  -30.8374   21.9992 H   0  0  0  0  0  0
  -28.1175  -28.9897   21.1855 H   0  0  0  0  0  0
  -26.0221  -25.9342   18.9907 H   0  0  0  0  0  0
  -23.9782  -27.3054   18.9984 H   0  0  0  0  0  0
  -23.7442  -30.5935   19.4037 H   0  0  0  0  0  0
  -22.7501  -29.2477   19.8587 H   0  0  0  0  0  0
  -25.1295  -36.1916   25.0815 H   0  0  0  0  0  0
  -20.9983  -28.3271   24.1412 H   0  0  0  0  0  0
  -20.5695  -26.2294   23.3615 H   0  0  0  0  0  0
  -21.6648  -26.7441   22.1199 H   0  0  0  0  0  0
  -19.6925  -25.6302   21.1226 H   0  0  0  0  0  0
  -19.6697  -27.3204   20.6748 H   0  0  0  0  0  0
  -17.4209  -26.6673   21.4012 H   0  0  0  0  0  0
  -18.0329  -26.0060   22.9018 H   0  0  0  0  0  0
  -19.7947  -30.7263   24.2252 H   0  0  0  0  0  0
  -17.5027  -31.6253   24.5179 H   0  0  0  0  0  0
  -15.5364  -30.2987   23.7642 H   0  0  0  0  0  0
  -15.8675  -28.0813   22.7070 H   0  0  0  0  0  0
  -24.5891  -30.7074   25.7819 H   0  0  0  0  0  0
  -24.8940  -32.2885   26.4900 H   0  0  0  0  0  0
  -25.8074  -30.8901   27.0234 H   0  0  0  0  0  0
  -26.2899  -29.6756   24.1186 H   0  0  0  0  0  0
  -27.4057  -29.7242   25.4631 H   0  0  0  0  0  0
  -27.8749  -30.4289   23.9349 H   0  0  0  0  0  0
  -27.2619  -33.3621   26.2049 H   0  0  0  0  0  0
  -28.3842  -32.6909   25.0312 H   0  0  0  0  0  0
  -28.0711  -31.8472   26.5416 H   0  0  0  0  0  0
  -28.2592  -38.0100   24.7509 H   0  0  0  0  0  0
  -28.1086  -36.2634   24.6281 H   0  0  0  0  0  0
  -27.2301  -37.1438   25.8866 H   0  0  0  0  0  0
  -20.9391  -29.8745   21.6858 H   0  0  0  0  0  0
  -26.0167  -38.2846   24.1406 H   0  0  0  0  0  0
  -30.1813  -16.7569   23.0348 H   0  0  0  0  0  0
  -31.6850  -16.2996   22.2729 H   0  0  0  0  0  0
  -31.8069  -18.2932   21.0297 H   0  0  0  0  0  0
  -30.8740  -18.9006   22.3854 H   0  0  0  0  0  0
  -28.4413  -17.0124   19.7563 H   0  0  0  0  0  0
  -30.0652  -16.9789   19.1250 H   0  0  0  0  0  0
  -28.9481  -15.6688   21.5569 H   0  0  0  0  0  0
  -25.3859  -21.1712   19.7019 H   0  0  0  0  0  0
  -25.7193  -20.4156   21.2599 H   0  0  0  0  0  0
  -26.3555  -19.7530   19.7453 H   0  0  0  0  0  0
  -31.5904  -20.9054   21.4155 H   0  0  0  0  0  0
  -31.9853  -21.8683   20.0084 H   0  0  0  0  0  0
  -31.2697  -20.3351   19.7597 H   0  0  0  0  0  0
  -25.1724  -22.9589   21.1815 H   0  0  0  0  0  0
  -25.4390  -23.4965   19.5172 H   0  0  0  0  0  0
  -25.7494  -24.5542   20.8658 H   0  0  0  0  0  0
  -31.5582  -23.9598   21.2615 H   0  0  0  0  0  0
  -30.6705  -25.1631   20.3345 H   0  0  0  0  0  0
  -31.4466  -23.8772   19.4917 H   0  0  0  0  0  0
  -29.0494  -25.5335   21.7937 H   0  0  0  0  0  0
  -27.3779  -25.4580   21.7534 H   0  0  0  0  0  0
  1 25  1  0  0  0
  1 30  2  0  0  0
  1 81  1  0  0  0
  2  3  1  0  0  0
  2 25  1  0  0  0
  2 89  1  0  0  0
  2 90  1  0  0  0
  3  4  1  0  0  0
  3 91  1  0  0  0
  3 92  1  0  0  0
  4  5  1  0  0  0
  4 93  1  0  0  0
  4 94  1  0  0  0
  5  6  1  0  0  0
  5 26  1  0  0  0
  5 95  1  0  0  0
  6 25  1  0  0  0
  6 96  1  0  0  0
  6 97  1  0  0  0
  7  8  2  0  0  0
  7 26  1  0  0  0
  7 29  1  0  0  0
  8  9  1  0  0  0
  8 22  1  0  0  0
  9 10  1  0  0  0
  9 27  2  0  0  0
 10 11  2  0  0  0
 10 15  1  0  0  0
 11 12  1  0  0  0
 11 98  1  0  0  0
 12 13  2  0  0  0
 12 99  1  0  0  0
 13 14  1  0  0  0
 13 31  1  0  0  0
 14 15  2  0  0  0
 14100  1  0  0  0
 15101  1  0  0  0
 16 17  2  0  0  0
 16 21  1  0  0  0
 16 31  1  0  0  0
 17 18  1  0  0  0
 17102  1  0  0  0
 18 19  2  0  0  0
 18103  1  0  0  0
 19 20  1  0  0  0
 19 24  1  0  0  0
 20 21  2  0  0  0
 20104  1  0  0  0
 21 23  1  0  0  0
 22 28  1  0  0  0
 22 32  2  0  0  0
 26 27  1  0  0  0
 28105  1  0  0  0
 28106  1  0  0  0
 29107  1  0  0  0
 29108  1  0  0  0
 33 34  1  0  0  0
 33 66  1  0  0  0
 33 70  2  0  0  0
 34 36  1  0  0  0
 34 59  1  0  0  0
 34109  1  0  0  0
 35 44  2  0  0  0
 35 45  1  0  0  0
 35 68  1  0  0  0
 36 56  1  0  0  0
 36110  1  0  0  0
 37 39  1  0  0  0
 37 47  1  0  0  0
 37 66  1  0  0  0
 37111  1  0  0  0
 38 43  2  0  0  0
 38 46  1  0  0  0
 38 47  1  0  0  0
 39 64  1  0  0  0
 39 67  2  0  0  0
 40 52  1  0  0  0
 40 53  2  0  0  0
 40 58  1  0  0  0
 41112  1  0  0  0
 41113  1  0  0  0
 41114  1  0  0  0
 41 48  1  0  0  0
 42 43  1  0  0  0
 42 66  1  0  0  0
 42115  1  0  0  0
 42116  1  0  0  0
 43 44  1  0  0  0
 44117  1  0  0  0
 45 46  2  0  0  0
 45118  1  0  0  0
 46119  1  0  0  0
 47120  1  0  0  0
 47121  1  0  0  0
 48 56  1  0  0  0
 48 65  1  0  0  0
 48122  1  0  0  0
 49 50  1  0  0  0
 49 53  1  0  0  0
 49 64  1  0  0  0
 49123  1  0  0  0
 50 51  1  0  0  0
 50124  1  0  0  0
 50125  1  0  0  0
 51 52  1  0  0  0
 51126  1  0  0  0
 51127  1  0  0  0
 52128  1  0  0  0
 52129  1  0  0  0
 53 54  1  0  0  0
 54 55  2  0  0  0
 54130  1  0  0  0
 55 57  1  0  0  0
 55131  1  0  0  0
 56 69  2  0  0  0
 57 58  2  0  0  0
 57132  1  0  0  0
 58133  1  0  0  0
 59 60  1  0  0  0
 59 61  1  0  0  0
 59 62  1  0  0  0
 60134  1  0  0  0
 60135  1  0  0  0
 60136  1  0  0  0
 61137  1  0  0  0
 61138  1  0  0  0
 61139  1  0  0  0
 62140  1  0  0  0
 62141  1  0  0  0
 62142  1  0  0  0
 63 65  1  0  0  0
 63143  1  0  0  0
 63144  1  0  0  0
 63145  1  0  0  0
 64146  1  0  0  0
 65147  1  0  0  0
 68 86  1  0  0  0
 71 72  2  0  0  0
 71 73  1  0  0  0
 71 77  1  0  0  0
 72 74  1  0  0  0
 72 82  1  0  0  0
 73 75  2  0  0  0
 73 83  1  0  0  0
 74 76  2  0  0  0
 74 84  1  0  0  0
 75 76  1  0  0  0
 75 85  1  0  0  0
 76 86  1  0  0  0
 77 87  1  0  0  0
 77 88  2  0  0  0
 78 79  1  0  0  0
 78 81  1  0  0  0
 78148  1  0  0  0
 78149  1  0  0  0
 79 87  1  0  0  0
 79150  1  0  0  0
 79151  1  0  0  0
 80 81  1  0  0  0
 80 87  1  0  0  0
 80152  1  0  0  0
 80153  1  0  0  0
 81154  1  0  0  0
 82155  1  0  0  0
 82156  1  0  0  0
 82157  1  0  0  0
 83158  1  0  0  0
 83159  1  0  0  0
 83160  1  0  0  0
 84161  1  0  0  0
 84162  1  0  0  0
 84163  1  0  0  0
 85164  1  0  0  0
 85165  1  0  0  0
 85166  1  0  0  0
 86167  1  0  0  0
 86168  1  0  0  0
M  ISO  4   1 100  68 101  81 100  86 101
M  END
> <chiral flag>
0

> <version>
0

> <s_m_source_file>
/data/baiqing/PycharmProjects/Reinvent-master-3.2/result/LINK_invent/BTK/process_docking_weight1_custom_sum_contain_oxygen_bond_distance_aromatic_linkinvent_7_9_3/rearranged_h_0162.sdf

> <i_m_source_file_index>
17

> <r_mmod_Potential_Energy-OPLS-2005>
427.385406494141

> <r_mmod_Stretch_Energy-OPLS-2005>
101.978775024414

> <r_mmod_Bend_Energy-OPLS-2005>
180.712341308594

> <r_mmod_Torsional_Energy-OPLS-2005>
376.985198974609

> <r_mmod_Improper_Torsional_Energy-OPLS-2005>
8.7583532333374

> <r_mmod_Van_der_Waal_Energy-OPLS-2005>
169.673812866211

> <r_mmod_Electrostatic_Energy-OPLS-2005>
-253.604446411133

> <r_mmod_Solvation_Energy-OPLS-2005>
-204.206756591797

> <b_mmod_Minimization_Converged-OPLS-2005>
0

> <r_mmod_RMS_Derivative-OPLS-2005>
3.08663415908813

$$$$
17
                    3D
 Structure written by MMmdl.
168177  0  0  1  0            999 V2000
  -30.6346  -14.7106   20.5066 C   0  0  0  0  0  0
  -30.4353  -12.4494   19.4608 C   0  0  0  0  0  0
  -29.5090  -12.5227   18.2277 C   0  0  0  0  0  0
  -28.0338  -12.3438   18.6359 C   0  0  0  0  0  0
  -27.6454  -13.2191   19.8571 C   0  0  2  0  0  0
  -28.6929  -13.0918   20.9851 C   0  0  0  0  0  0
  -25.2492  -13.8168   20.5606 C   0  0  0  0  0  0
  -24.1788  -13.0409   20.9180 C   0  0  0  0  0  0
  -24.6394  -11.6900   20.8755 C   0  0  0  0  0  0
  -23.9067  -10.4279   21.0419 C   0  0  0  0  0  0
  -24.3622   -9.4195   21.9190 C   0  0  0  0  0  0
  -23.6294   -8.2232   22.0751 C   0  0  0  0  0  0
  -22.4278   -8.0274   21.3538 C   0  0  0  0  0  0
  -21.9918   -9.0249   20.4639 C   0  0  0  0  0  0
  -22.7252  -10.2131   20.3061 C   0  0  0  0  0  0
  -21.6848   -6.0736   22.5277 C   0  0  0  0  0  0
  -21.4009   -6.5643   23.8214 C   0  0  0  0  0  0
  -21.3659   -5.6796   24.9178 C   0  0  0  0  0  0
  -21.6047   -4.3057   24.7224 C   0  0  0  0  0  0
  -21.8825   -3.8149   23.4347 C   0  0  0  0  0  0
  -21.9198   -4.6967   22.3404 C   0  0  0  0  0  0
  -22.7822  -13.5206   21.1840 C   0  0  0  0  0  0
  -22.1663   -4.2151   21.0977 F   0  0  0  0  0  0
  -21.5634   -3.4537   25.7739 F   0  0  0  0  0  0
  -29.9854  -13.4932   20.4144 N   0  0  0  0  0  0
  -26.2935  -12.9363   20.3282 N   0  0  0  0  0  0
  -25.9324  -11.6516   20.5757 N   0  0  0  0  0  0
  -22.0478  -12.8200   22.0410 N   0  0  0  0  0  0
  -25.4111  -15.1870   20.3870 N   0  0  0  0  0  0
  -31.8132  -14.7816   20.1435 O   0  0  0  0  0  0
  -21.6638   -6.8874   21.4236 O   0  0  0  0  0  0
  -22.3502  -14.5512   20.6701 O   0  0  0  0  0  0
  -24.6329  -31.8550   23.1959 C   0  0  0  0  0  0
  -25.9176  -32.4732   23.8306 C   0  0  1  0  0  0
  -27.2410  -27.2760   20.1403 C   0  0  0  0  0  0
  -25.5988  -33.8525   24.2242 N   0  0  0  0  0  0
  -23.4293  -30.4696   21.5388 C   0  0  2  0  0  0
  -24.8797  -28.8988   20.1319 C   0  0  0  0  0  0
  -22.7507  -29.4597   22.4946 C   0  0  0  0  0  0
  -18.0304  -28.1339   22.8457 C   0  0  0  0  0  0
  -24.1527  -36.7289   23.2637 C   0  0  0  0  0  0
  -25.9712  -30.7669   21.3784 C   0  0  0  0  0  0
  -26.0462  -29.3807   20.7409 C   0  0  0  0  0  0
  -27.2301  -28.5775   20.7381 C   0  0  0  0  0  0
  -26.0556  -26.8485   19.5107 C   0  0  0  0  0  0
  -24.8842  -27.6355   19.5155 C   0  0  0  0  0  0
  -23.6505  -29.7866   20.1630 C   0  0  0  0  0  0
  -25.4146  -36.3055   24.0307 C   0  0  1  0  0  0
  -20.5902  -28.3683   23.1252 C   0  0  2  0  0  0
  -20.6832  -26.9397   22.5376 C   0  0  0  0  0  0
  -19.5810  -26.6338   21.5194 C   0  0  0  0  0  0
  -18.1966  -26.7886   22.1582 C   0  0  0  0  0  0
  -19.1544  -28.8828   23.2852 C   0  0  0  0  0  0
  -18.9458  -30.1427   23.8885 C   0  0  0  0  0  0
  -17.6463  -30.6560   24.0530 C   0  0  0  0  0  0
  -25.9062  -34.9415   23.5071 C   0  0  0  0  0  0
  -16.5353  -29.9039   23.6308 C   0  0  0  0  0  0
  -16.7295  -28.6445   23.0327 C   0  0  0  0  0  0
  -26.4584  -31.6546   25.0693 C   0  0  0  0  0  0
  -25.3791  -31.3675   26.1395 C   0  0  0  0  0  0
  -27.0442  -30.2952   24.6183 C   0  0  0  0  0  0
  -27.6131  -32.4303   25.7491 C   0  0  0  0  0  0
  -27.5603  -37.1810   24.8462 C   0  0  0  0  0  0
  -21.4227  -29.3033   22.3654 N   0  0  0  0  0  0
  -26.4313  -37.3740   23.9396 N   0  0  0  0  0  0
  -24.6953  -31.0512   22.0932 N   0  0  0  0  0  0
  -23.4198  -28.8170   23.3080 O   0  0  0  0  0  0
  -28.3963  -26.4950   19.9710 O   0  0  0  0  0  0
  -26.5604  -34.8896   22.4616 O   0  0  0  0  0  0
  -23.5471  -32.1391   23.7235 O   0  0  0  0  0  0
  -29.2062  -22.4163   20.7979 C   0  0  0  0  0  0
  -28.8703  -21.0620   20.3334 C   0  0  0  0  0  0
  -30.3732  -22.4494   21.6391 C   0  0  0  0  0  0
  -29.6450  -19.8928   20.7159 C   0  0  0  0  0  0
  -31.1209  -21.2619   21.8719 C   0  0  0  0  0  0
  -28.6385  -17.7050   21.7425 C   0  0  0  0  0  0
  -28.8083  -16.1733   21.5828 C   0  0  0  0  0  0
  -30.3795  -17.2654   20.2052 C   0  0  0  0  0  0
  -29.2676  -18.3550   20.5120 C   0  0  2  0  0  0
  -27.6621  -20.8205   19.4339 C   0  0  0  0  0  0
  -30.8661  -23.7158   22.3334 C   0  0  0  0  0  0
  -32.4340  -21.2363   22.6432 C   0  0  0  0  0  0
  -26.9184  -23.5695   21.0633 C   0  0  0  0  0  0
  -28.7541  -25.2697   20.7439 C   0  0  0  0  0  0
  -28.3121  -23.7296   20.4293 C   0  0  1  0  0  0
  -30.7526  -20.0457   21.4498 N   0  0  0  0  0  0
  -29.9128  -15.8996   20.6504 N   0  0  0  0  0  0
  -31.4721  -12.5837   19.1482 H   0  0  0  0  0  0
  -30.3966  -11.4600   19.9215 H   0  0  0  0  0  0
  -29.7941  -11.7687   17.4933 H   0  0  0  0  0  0
  -29.6373  -13.4898   17.7390 H   0  0  0  0  0  0
  -27.8817  -11.2911   18.8738 H   0  0  0  0  0  0
  -27.3817  -12.5620   17.7902 H   0  0  0  0  0  0
  -27.6555  -14.2479   19.4991 H   0  0  0  0  0  0
  -28.7371  -12.0636   21.3479 H   0  0  0  0  0  0
  -28.4211  -13.6741   21.8609 H   0  0  0  0  0  0
  -25.2774   -9.5679   22.4746 H   0  0  0  0  0  0
  -24.0012   -7.4634   22.7480 H   0  0  0  0  0  0
  -21.0852   -8.8778   19.8940 H   0  0  0  0  0  0
  -22.3719  -10.9670   19.6161 H   0  0  0  0  0  0
  -21.1988   -7.6148   23.9716 H   0  0  0  0  0  0
  -21.1475   -6.0522   25.9081 H   0  0  0  0  0  0
  -22.0606   -2.7610   23.2848 H   0  0  0  0  0  0
  -22.4104  -11.9872   22.4805 H   0  0  0  0  0  0
  -21.1096  -13.1230   22.2611 H   0  0  0  0  0  0
  -24.6373  -15.8355   20.4678 H   0  0  0  0  0  0
  -26.2586  -15.6210   20.0426 H   0  0  0  0  0  0
  -26.7239  -32.5436   23.1044 H   0  0  0  0  0  0
  -25.0269  -33.9637   25.0482 H   0  0  0  0  0  0
  -22.7250  -31.2878   21.3795 H   0  0  0  0  0  0
  -23.3741  -35.9673   23.3277 H   0  0  0  0  0  0
  -24.3641  -36.8916   22.2066 H   0  0  0  0  0  0
  -23.7292  -37.6479   23.6673 H   0  0  0  0  0  0
  -26.1090  -31.5184   20.5993 H   0  0  0  0  0  0
  -26.8467  -30.8255   22.0125 H   0  0  0  0  0  0
  -28.1406  -28.9511   21.1856 H   0  0  0  0  0  0
  -26.0402  -25.9007   18.9902 H   0  0  0  0  0  0
  -23.9928  -27.2591   19.0319 H   0  0  0  0  0  0
  -23.7773  -30.5512   19.3960 H   0  0  0  0  0  0
  -22.7727  -29.2101   19.8690 H   0  0  0  0  0  0
  -25.1299  -36.1911   25.0783 H   0  0  0  0  0  0
  -20.9988  -28.3294   24.1373 H   0  0  0  0  0  0
  -20.5764  -26.2315   23.3612 H   0  0  0  0  0  0
  -21.6712  -26.7462   22.1157 H   0  0  0  0  0  0
  -19.6985  -25.6230   21.1249 H   0  0  0  0  0  0
  -19.6746  -27.3140   20.6711 H   0  0  0  0  0  0
  -17.4265  -26.6636   21.3964 H   0  0  0  0  0  0
  -18.0342  -26.0003   22.8955 H   0  0  0  0  0  0
  -19.7939  -30.7206   24.2285 H   0  0  0  0  0  0
  -17.5010  -31.6245   24.5123 H   0  0  0  0  0  0
  -15.5339  -30.2919   23.7625 H   0  0  0  0  0  0
  -15.8713  -28.0748   22.7040 H   0  0  0  0  0  0
  -24.6002  -30.6984   25.7703 H   0  0  0  0  0  0
  -24.8962  -32.2843   26.4788 H   0  0  0  0  0  0
  -25.8118  -30.8887   27.0187 H   0  0  0  0  0  0
  -26.3018  -29.6638   24.1284 H   0  0  0  0  0  0
  -27.4170  -29.7283   25.4717 H   0  0  0  0  0  0
  -27.8887  -30.4157   23.9387 H   0  0  0  0  0  0
  -27.2715  -33.3607   26.2039 H   0  0  0  0  0  0
  -28.3994  -32.6841   25.0364 H   0  0  0  0  0  0
  -28.0755  -31.8436   26.5442 H   0  0  0  0  0  0
  -28.2573  -38.0154   24.7497 H   0  0  0  0  0  0
  -28.1130  -36.2652   24.6280 H   0  0  0  0  0  0
  -27.2321  -37.1432   25.8867 H   0  0  0  0  0  0
  -20.9428  -29.8756   21.6850 H   0  0  0  0  0  0
  -26.0177  -38.2808   24.1373 H   0  0  0  0  0  0
  -29.1888  -18.0207   22.6299 H   0  0  0  0  0  0
  -27.5997  -18.0069   21.8800 H   0  0  0  0  0  0
  -27.8847  -15.7592   21.1926 H   0  0  0  0  0  0
  -28.9963  -15.7183   22.5555 H   0  0  0  0  0  0
  -31.2843  -17.4875   20.7742 H   0  0  0  0  0  0
  -30.6629  -17.2743   19.1519 H   0  0  0  0  0  0
  -28.5480  -18.2748   19.6985 H   0  0  0  0  0  0
  -26.8133  -20.4586   20.0162 H   0  0  0  0  0  0
  -27.8882  -20.0723   18.6760 H   0  0  0  0  0  0
  -27.3577  -21.7064   18.8812 H   0  0  0  0  0  0
  -30.0426  -24.2869   22.7504 H   0  0  0  0  0  0
  -31.4645  -24.3273   21.6566 H   0  0  0  0  0  0
  -31.4944  -23.5078   23.1991 H   0  0  0  0  0  0
  -33.0980  -22.0377   22.3223 H   0  0  0  0  0  0
  -32.9794  -20.3048   22.4844 H   0  0  0  0  0  0
  -32.2632  -21.3309   23.7156 H   0  0  0  0  0  0
  -26.3985  -22.6743   20.7392 H   0  0  0  0  0  0
  -26.2767  -24.4146   20.8245 H   0  0  0  0  0  0
  -26.9969  -23.5218   22.1490 H   0  0  0  0  0  0
  -29.8310  -25.3047   20.5990 H   0  0  0  0  0  0
  -28.5789  -25.5034   21.7928 H   0  0  0  0  0  0
  -28.2017  -23.6983   19.3461 H   0  0  0  0  0  0
  1 25  1  0  0  0
  1 30  2  0  0  0
  1 87  1  0  0  0
  2  3  1  0  0  0
  2 25  1  0  0  0
  2 88  1  0  0  0
  2 89  1  0  0  0
  3  4  1  0  0  0
  3 90  1  0  0  0
  3 91  1  0  0  0
  4  5  1  0  0  0
  4 92  1  0  0  0
  4 93  1  0  0  0
  5  6  1  0  0  0
  5 26  1  0  0  0
  5 94  1  0  0  0
  6 25  1  0  0  0
  6 95  1  0  0  0
  6 96  1  0  0  0
  7  8  2  0  0  0
  7 26  1  0  0  0
  7 29  1  0  0  0
  8  9  1  0  0  0
  8 22  1  0  0  0
  9 10  1  0  0  0
  9 27  2  0  0  0
 10 11  2  0  0  0
 10 15  1  0  0  0
 11 12  1  0  0  0
 11 97  1  0  0  0
 12 13  2  0  0  0
 12 98  1  0  0  0
 13 14  1  0  0  0
 13 31  1  0  0  0
 14 15  2  0  0  0
 14 99  1  0  0  0
 15100  1  0  0  0
 16 17  2  0  0  0
 16 21  1  0  0  0
 16 31  1  0  0  0
 17 18  1  0  0  0
 17101  1  0  0  0
 18 19  2  0  0  0
 18102  1  0  0  0
 19 20  1  0  0  0
 19 24  1  0  0  0
 20 21  2  0  0  0
 20103  1  0  0  0
 21 23  1  0  0  0
 22 28  1  0  0  0
 22 32  2  0  0  0
 26 27  1  0  0  0
 28104  1  0  0  0
 28105  1  0  0  0
 29106  1  0  0  0
 29107  1  0  0  0
 33 34  1  0  0  0
 33 66  1  0  0  0
 33 70  2  0  0  0
 34 36  1  0  0  0
 34 59  1  0  0  0
 34108  1  0  0  0
 35 44  2  0  0  0
 35 45  1  0  0  0
 35 68  1  0  0  0
 36 56  1  0  0  0
 36109  1  0  0  0
 37 39  1  0  0  0
 37 47  1  0  0  0
 37 66  1  0  0  0
 37110  1  0  0  0
 38 43  2  0  0  0
 38 46  1  0  0  0
 38 47  1  0  0  0
 39 64  1  0  0  0
 39 67  2  0  0  0
 40 52  1  0  0  0
 40 53  2  0  0  0
 40 58  1  0  0  0
 41111  1  0  0  0
 41112  1  0  0  0
 41113  1  0  0  0
 41 48  1  0  0  0
 42 43  1  0  0  0
 42 66  1  0  0  0
 42114  1  0  0  0
 42115  1  0  0  0
 43 44  1  0  0  0
 44116  1  0  0  0
 45 46  2  0  0  0
 45117  1  0  0  0
 46118  1  0  0  0
 47119  1  0  0  0
 47120  1  0  0  0
 48 56  1  0  0  0
 48 65  1  0  0  0
 48121  1  0  0  0
 49 50  1  0  0  0
 49 53  1  0  0  0
 49 64  1  0  0  0
 49122  1  0  0  0
 50 51  1  0  0  0
 50123  1  0  0  0
 50124  1  0  0  0
 51 52  1  0  0  0
 51125  1  0  0  0
 51126  1  0  0  0
 52127  1  0  0  0
 52128  1  0  0  0
 53 54  1  0  0  0
 54 55  2  0  0  0
 54129  1  0  0  0
 55 57  1  0  0  0
 55130  1  0  0  0
 56 69  2  0  0  0
 57 58  2  0  0  0
 57131  1  0  0  0
 58132  1  0  0  0
 59 60  1  0  0  0
 59 61  1  0  0  0
 59 62  1  0  0  0
 60133  1  0  0  0
 60134  1  0  0  0
 60135  1  0  0  0
 61136  1  0  0  0
 61137  1  0  0  0
 61138  1  0  0  0
 62139  1  0  0  0
 62140  1  0  0  0
 62141  1  0  0  0
 63 65  1  0  0  0
 63142  1  0  0  0
 63143  1  0  0  0
 63144  1  0  0  0
 64145  1  0  0  0
 65146  1  0  0  0
 68 84  1  0  0  0
 71 72  2  0  0  0
 71 73  1  0  0  0
 71 85  1  0  0  0
 72 74  1  0  0  0
 72 80  1  0  0  0
 73 75  2  0  0  0
 73 81  1  0  0  0
 74 86  2  0  0  0
 74 79  1  0  0  0
 75 82  1  0  0  0
 75 86  1  0  0  0
 76 77  1  0  0  0
 76 79  1  0  0  0
 76147  1  0  0  0
 76148  1  0  0  0
 77 87  1  0  0  0
 77149  1  0  0  0
 77150  1  0  0  0
 78 79  1  0  0  0
 78 87  1  0  0  0
 78151  1  0  0  0
 78152  1  0  0  0
 79153  1  0  0  0
 80154  1  0  0  0
 80155  1  0  0  0
 80156  1  0  0  0
 81157  1  0  0  0
 81158  1  0  0  0
 81159  1  0  0  0
 82160  1  0  0  0
 82161  1  0  0  0
 82162  1  0  0  0
 83163  1  0  0  0
 83164  1  0  0  0
 83165  1  0  0  0
 83 85  1  0  0  0
 84 85  1  0  0  0
 84166  1  0  0  0
 84167  1  0  0  0
 85168  1  0  0  0
M  ISO  4   1 100  68 101  84 101  87 100
M  END
> <chiral flag>
0

> <version>
0

> <s_m_source_file>
/data/baiqing/PycharmProjects/Reinvent-master-3.2/result/LINK_invent/BTK/process_docking_weight1_custom_sum_contain_oxygen_bond_distance_aromatic_linkinvent_7_9_3/rearranged_h_0162.sdf

> <i_m_source_file_index>
18

> <r_mmod_Potential_Energy-OPLS-2005>
249.399810791016

> <r_mmod_Stretch_Energy-OPLS-2005>
131.051483154297

> <r_mmod_Bend_Energy-OPLS-2005>
237.881484985352

> <r_mmod_Torsional_Energy-OPLS-2005>
330.347900390625

> <r_mmod_Improper_Torsional_Energy-OPLS-2005>
11.9401197433472

> <r_mmod_Van_der_Waal_Energy-OPLS-2005>
152.396331787109

> <r_mmod_Electrostatic_Energy-OPLS-2005>
-459.776123046875

> <r_mmod_Solvation_Energy-OPLS-2005>
-216.758148193359

> <b_mmod_Minimization_Converged-OPLS-2005>
0

> <r_mmod_RMS_Derivative-OPLS-2005>
3.52081060409546

$$$$
18
                    3D
 Structure written by MMmdl.
171180  0  0  1  0            999 V2000
  -30.5831  -14.8889   20.4242 C   0  0  0  0  0  0
  -30.4289  -12.5492   19.4941 C   0  0  0  0  0  0
  -29.5151  -12.5145   18.2499 C   0  0  0  0  0  0
  -28.0472  -12.3118   18.6705 C   0  0  0  0  0  0
  -27.6275  -13.2476   19.8354 C   0  0  2  0  0  0
  -28.6684  -13.2732   20.9728 C   0  0  0  0  0  0
  -25.2461  -13.8221   20.5726 C   0  0  0  0  0  0
  -24.1762  -13.0443   20.9207 C   0  0  0  0  0  0
  -24.6375  -11.6926   20.8739 C   0  0  0  0  0  0
  -23.9059  -10.4300   21.0404 C   0  0  0  0  0  0
  -24.3613   -9.4209   21.9176 C   0  0  0  0  0  0
  -23.6292   -8.2243   22.0744 C   0  0  0  0  0  0
  -22.4271   -8.0279   21.3551 C   0  0  0  0  0  0
  -21.9905   -9.0252   20.4651 C   0  0  0  0  0  0
  -22.7229  -10.2130   20.3058 C   0  0  0  0  0  0
  -21.6852   -6.0726   22.5275 C   0  0  0  0  0  0
  -21.4015   -6.5629   23.8207 C   0  0  0  0  0  0
  -21.3662   -5.6782   24.9169 C   0  0  0  0  0  0
  -21.6044   -4.3043   24.7222 C   0  0  0  0  0  0
  -21.8815   -3.8136   23.4339 C   0  0  0  0  0  0
  -21.9193   -4.6954   22.3398 C   0  0  0  0  0  0
  -22.7785  -13.5222   21.1866 C   0  0  0  0  0  0
  -22.1664   -4.2140   21.0974 F   0  0  0  0  0  0
  -21.5637   -3.4526   25.7738 F   0  0  0  0  0  0
  -29.9482  -13.6553   20.3676 N   0  0  0  0  0  0
  -26.2871  -12.9450   20.3241 N   0  0  0  0  0  0
  -25.9305  -11.6580   20.5726 N   0  0  0  0  0  0
  -22.0437  -12.8227   22.0434 N   0  0  0  0  0  0
  -25.4178  -15.1947   20.4210 N   0  0  0  0  0  0
  -31.7949  -14.9080   20.1758 O   0  0  0  0  0  0
  -21.6638   -6.8873   21.4241 O   0  0  0  0  0  0
  -22.3474  -14.5518   20.6699 O   0  0  0  0  0  0
  -24.6435  -31.8459   23.1910 C   0  0  0  0  0  0
  -25.9213  -32.4701   23.8289 C   0  0  1  0  0  0
  -27.2070  -27.1439   20.1438 C   0  0  0  0  0  0
  -25.5967  -33.8507   24.2205 N   0  0  0  0  0  0
  -23.4453  -30.4681   21.5370 C   0  0  2  0  0  0
  -24.8917  -28.9003   20.1111 C   0  0  0  0  0  0
  -22.7568  -29.4558   22.4871 C   0  0  0  0  0  0
  -18.0304  -28.1392   22.8471 C   0  0  0  0  0  0
  -24.1495  -36.7262   23.2638 C   0  0  0  0  0  0
  -26.0024  -30.7217   21.3896 C   0  0  0  0  0  0
  -26.0710  -29.3348   20.7294 C   0  0  0  0  0  0
  -27.2315  -28.4734   20.7275 C   0  0  0  0  0  0
  -26.0012  -26.8155   19.4839 C   0  0  0  0  0  0
  -24.8700  -27.6541   19.4725 C   0  0  0  0  0  0
  -23.6704  -29.8025   20.1550 C   0  0  0  0  0  0
  -25.4123  -36.3035   24.0318 C   0  0  1  0  0  0
  -20.5913  -28.3719   23.1239 C   0  0  2  0  0  0
  -20.6789  -26.9423   22.5407 C   0  0  0  0  0  0
  -19.5769  -26.6381   21.5208 C   0  0  0  0  0  0
  -18.1946  -26.7932   22.1611 C   0  0  0  0  0  0
  -19.1558  -28.8869   23.2846 C   0  0  0  0  0  0
  -18.9473  -30.1472   23.8864 C   0  0  0  0  0  0
  -17.6471  -30.6586   24.0551 C   0  0  0  0  0  0
  -25.9074  -34.9413   23.5067 C   0  0  0  0  0  0
  -16.5363  -29.9076   23.6336 C   0  0  0  0  0  0
  -16.7291  -28.6498   23.0346 C   0  0  0  0  0  0
  -26.4527  -31.6559   25.0727 C   0  0  0  0  0  0
  -25.3714  -31.3766   26.1426 C   0  0  0  0  0  0
  -27.0372  -30.2945   24.6317 C   0  0  0  0  0  0
  -27.6066  -32.4314   25.7502 C   0  0  0  0  0  0
  -27.5580  -37.1788   24.8460 C   0  0  0  0  0  0
  -21.4260  -29.3051   22.3619 N   0  0  0  0  0  0
  -26.4289  -37.3748   23.9403 N   0  0  0  0  0  0
  -24.7168  -31.0328   22.0939 N   0  0  0  0  0  0
  -23.4221  -28.8101   23.3003 O   0  0  0  0  0  0
  -28.2559  -26.1565   20.1935 O   0  0  0  0  0  0
  -26.5651  -34.8906   22.4640 O   0  0  0  0  0  0
  -23.5558  -32.1332   23.7138 O   0  0  0  0  0  0
  -31.2019  -22.5050   19.6263 C   0  0  0  0  0  0
  -30.3069  -23.5853   19.7943 C   0  0  0  0  0  0
  -30.8542  -21.1429   19.8025 C   0  0  0  0  0  0
  -28.9576  -23.3635   20.1588 C   0  0  0  0  0  0
  -28.6091  -21.9258   20.3612 C   0  0  0  0  0  0
  -29.5384  -20.7728   20.2053 C   0  0  0  0  0  0
  -29.5527  -18.5654   21.6492 C   0  0  0  0  0  0
  -28.8633  -18.3585   19.3543 C   0  0  0  0  0  0
  -30.3372  -17.1656   21.5102 C   0  0  0  0  0  0
  -29.6223  -16.9334   19.2881 C   0  0  0  0  0  0
  -30.8382  -24.9861   19.5435 C   0  0  0  0  0  0
  -27.1687  -21.6202   20.7369 C   0  0  0  0  0  0
  -33.1528  -20.2633   20.4675 C   0  0  0  0  0  0
  -32.3978  -20.1500   18.0409 C   0  0  0  0  0  0
  -27.9151  -24.6370   20.2324 C   0  0  0  0  0  0
  -31.9566  -20.1096   19.5146 C   0  0  0  0  0  0
  -29.2702  -19.3241   20.4062 N   0  0  0  0  0  0
  -29.8707  -16.1178   20.5326 N   0  0  0  0  0  0
  -31.4680  -12.6818   19.1876 H   0  0  0  0  0  0
  -30.3963  -11.5975   20.0277 H   0  0  0  0  0  0
  -29.8271  -11.7175   17.5735 H   0  0  0  0  0  0
  -29.6127  -13.4469   17.6916 H   0  0  0  0  0  0
  -27.9405  -11.2720   18.9813 H   0  0  0  0  0  0
  -27.3828  -12.4427   17.8156 H   0  0  0  0  0  0
  -27.5951  -14.2498   19.4069 H   0  0  0  0  0  0
  -28.7401  -12.3041   21.4690 H   0  0  0  0  0  0
  -28.3784  -13.9961   21.7373 H   0  0  0  0  0  0
  -25.2759   -9.5688   22.4739 H   0  0  0  0  0  0
  -24.0006   -7.4633   22.7452 H   0  0  0  0  0  0
  -21.0841   -8.8766   19.8962 H   0  0  0  0  0  0
  -22.3684  -10.9665   19.6166 H   0  0  0  0  0  0
  -21.2010   -7.6138   23.9707 H   0  0  0  0  0  0
  -21.1493   -6.0512   25.9073 H   0  0  0  0  0  0
  -22.0597   -2.7600   23.2830 H   0  0  0  0  0  0
  -22.4068  -11.9916   22.4863 H   0  0  0  0  0  0
  -21.1048  -13.1259   22.2622 H   0  0  0  0  0  0
  -24.6591  -15.8538   20.5524 H   0  0  0  0  0  0
  -26.2852  -15.6365   20.1434 H   0  0  0  0  0  0
  -26.7277  -32.5299   23.1015 H   0  0  0  0  0  0
  -25.0099  -33.9625   25.0342 H   0  0  0  0  0  0
  -22.7462  -31.2931   21.3863 H   0  0  0  0  0  0
  -23.3757  -35.9591   23.3291 H   0  0  0  0  0  0
  -24.3584  -36.8902   22.2053 H   0  0  0  0  0  0
  -23.7259  -37.6463   23.6675 H   0  0  0  0  0  0
  -26.1596  -31.4765   20.6178 H   0  0  0  0  0  0
  -26.8725  -30.7680   22.0333 H   0  0  0  0  0  0
  -28.1301  -28.8019   21.2302 H   0  0  0  0  0  0
  -25.8864  -25.8762   18.9685 H   0  0  0  0  0  0
  -23.9722  -27.3204   18.9700 H   0  0  0  0  0  0
  -23.8075  -30.5786   19.4011 H   0  0  0  0  0  0
  -22.7848  -29.2465   19.8433 H   0  0  0  0  0  0
  -25.1311  -36.1860   25.0810 H   0  0  0  0  0  0
  -20.9999  -28.3305   24.1361 H   0  0  0  0  0  0
  -20.5676  -26.2334   23.3625 H   0  0  0  0  0  0
  -21.6658  -26.7425   22.1214 H   0  0  0  0  0  0
  -19.6933  -25.6285   21.1264 H   0  0  0  0  0  0
  -19.6716  -27.3169   20.6721 H   0  0  0  0  0  0
  -17.4221  -26.6676   21.4004 H   0  0  0  0  0  0
  -18.0340  -26.0080   22.9015 H   0  0  0  0  0  0
  -19.7948  -30.7294   24.2221 H   0  0  0  0  0  0
  -17.5021  -31.6261   24.5171 H   0  0  0  0  0  0
  -15.5360  -30.2962   23.7681 H   0  0  0  0  0  0
  -15.8695  -28.0815   22.7067 H   0  0  0  0  0  0
  -24.5895  -30.7104   25.7763 H   0  0  0  0  0  0
  -24.8897  -32.2953   26.4782 H   0  0  0  0  0  0
  -25.7998  -30.8993   27.0249 H   0  0  0  0  0  0
  -26.2983  -29.6678   24.1311 H   0  0  0  0  0  0
  -27.3946  -29.7237   25.4901 H   0  0  0  0  0  0
  -27.8914  -30.4153   23.9653 H   0  0  0  0  0  0
  -27.2664  -33.3621   26.2052 H   0  0  0  0  0  0
  -28.3887  -32.6865   25.0339 H   0  0  0  0  0  0
  -28.0726  -31.8462   26.5441 H   0  0  0  0  0  0
  -28.2592  -38.0088   24.7490 H   0  0  0  0  0  0
  -28.1078  -36.2618   24.6287 H   0  0  0  0  0  0
  -27.2304  -37.1444   25.8865 H   0  0  0  0  0  0
  -20.9473  -29.8767   21.6801 H   0  0  0  0  0  0
  -26.0157  -38.2817   24.1391 H   0  0  0  0  0  0
  -32.2152  -22.7313   19.3272 H   0  0  0  0  0  0
  -30.1001  -19.2141   22.3334 H   0  0  0  0  0  0
  -28.5934  -18.3764   22.1341 H   0  0  0  0  0  0
  -27.7972  -18.1711   19.4937 H   0  0  0  0  0  0
  -28.9451  -18.8488   18.3831 H   0  0  0  0  0  0
  -30.3589  -16.7006   22.4974 H   0  0  0  0  0  0
  -31.3822  -17.3860   21.2837 H   0  0  0  0  0  0
  -30.5910  -17.0953   18.8122 H   0  0  0  0  0  0
  -29.0746  -16.2993   18.5890 H   0  0  0  0  0  0
  -31.8825  -24.9753   19.2284 H   0  0  0  0  0  0
  -30.7769  -25.5843   20.4530 H   0  0  0  0  0  0
  -30.2680  -25.4802   18.7565 H   0  0  0  0  0  0
  -26.8639  -22.2088   21.6022 H   0  0  0  0  0  0
  -27.0210  -20.5702   20.9887 H   0  0  0  0  0  0
  -26.5090  -21.8618   19.9029 H   0  0  0  0  0  0
  -32.8319  -20.1987   21.5077 H   0  0  0  0  0  0
  -33.6635  -21.2169   20.3346 H   0  0  0  0  0  0
  -33.8865  -19.4737   20.3020 H   0  0  0  0  0  0
  -31.5468  -19.9930   17.3762 H   0  0  0  0  0  0
  -33.1269  -19.3673   17.8282 H   0  0  0  0  0  0
  -32.8548  -21.1032   17.7739 H   0  0  0  0  0  0
  -27.3195  -24.4941   21.1336 H   0  0  0  0  0  0
  -27.2480  -24.4177   19.4038 H   0  0  0  0  0  0
  -31.5873  -19.1015   19.6735 H   0  0  0  0  0  0
  1 25  1  0  0  0
  1 30  2  0  0  0
  1 88  1  0  0  0
  2  3  1  0  0  0
  2 25  1  0  0  0
  2 89  1  0  0  0
  2 90  1  0  0  0
  3  4  1  0  0  0
  3 91  1  0  0  0
  3 92  1  0  0  0
  4  5  1  0  0  0
  4 93  1  0  0  0
  4 94  1  0  0  0
  5  6  1  0  0  0
  5 26  1  0  0  0
  5 95  1  0  0  0
  6 25  1  0  0  0
  6 96  1  0  0  0
  6 97  1  0  0  0
  7  8  2  0  0  0
  7 26  1  0  0  0
  7 29  1  0  0  0
  8  9  1  0  0  0
  8 22  1  0  0  0
  9 10  1  0  0  0
  9 27  2  0  0  0
 10 11  2  0  0  0
 10 15  1  0  0  0
 11 12  1  0  0  0
 11 98  1  0  0  0
 12 13  2  0  0  0
 12 99  1  0  0  0
 13 14  1  0  0  0
 13 31  1  0  0  0
 14 15  2  0  0  0
 14100  1  0  0  0
 15101  1  0  0  0
 16 17  2  0  0  0
 16 21  1  0  0  0
 16 31  1  0  0  0
 17 18  1  0  0  0
 17102  1  0  0  0
 18 19  2  0  0  0
 18103  1  0  0  0
 19 20  1  0  0  0
 19 24  1  0  0  0
 20 21  2  0  0  0
 20104  1  0  0  0
 21 23  1  0  0  0
 22 28  1  0  0  0
 22 32  2  0  0  0
 26 27  1  0  0  0
 28105  1  0  0  0
 28106  1  0  0  0
 29107  1  0  0  0
 29108  1  0  0  0
 33 34  1  0  0  0
 33 66  1  0  0  0
 33 70  2  0  0  0
 34 36  1  0  0  0
 34 59  1  0  0  0
 34109  1  0  0  0
 35 44  2  0  0  0
 35 45  1  0  0  0
 35 68  1  0  0  0
 36 56  1  0  0  0
 36110  1  0  0  0
 37 39  1  0  0  0
 37 47  1  0  0  0
 37 66  1  0  0  0
 37111  1  0  0  0
 38 43  2  0  0  0
 38 46  1  0  0  0
 38 47  1  0  0  0
 39 64  1  0  0  0
 39 67  2  0  0  0
 40 52  1  0  0  0
 40 53  2  0  0  0
 40 58  1  0  0  0
 41112  1  0  0  0
 41113  1  0  0  0
 41114  1  0  0  0
 41 48  1  0  0  0
 42 43  1  0  0  0
 42 66  1  0  0  0
 42115  1  0  0  0
 42116  1  0  0  0
 43 44  1  0  0  0
 44117  1  0  0  0
 45 46  2  0  0  0
 45118  1  0  0  0
 46119  1  0  0  0
 47120  1  0  0  0
 47121  1  0  0  0
 48 56  1  0  0  0
 48 65  1  0  0  0
 48122  1  0  0  0
 49 50  1  0  0  0
 49 53  1  0  0  0
 49 64  1  0  0  0
 49123  1  0  0  0
 50 51  1  0  0  0
 50124  1  0  0  0
 50125  1  0  0  0
 51 52  1  0  0  0
 51126  1  0  0  0
 51127  1  0  0  0
 52128  1  0  0  0
 52129  1  0  0  0
 53 54  1  0  0  0
 54 55  2  0  0  0
 54130  1  0  0  0
 55 57  1  0  0  0
 55131  1  0  0  0
 56 69  2  0  0  0
 57 58  2  0  0  0
 57132  1  0  0  0
 58133  1  0  0  0
 59 60  1  0  0  0
 59 61  1  0  0  0
 59 62  1  0  0  0
 60134  1  0  0  0
 60135  1  0  0  0
 60136  1  0  0  0
 61137  1  0  0  0
 61138  1  0  0  0
 61139  1  0  0  0
 62140  1  0  0  0
 62141  1  0  0  0
 62142  1  0  0  0
 63 65  1  0  0  0
 63143  1  0  0  0
 63144  1  0  0  0
 63145  1  0  0  0
 64146  1  0  0  0
 65147  1  0  0  0
 68 85  1  0  0  0
 71 72  2  0  0  0
 71 73  1  0  0  0
 71148  1  0  0  0
 72 74  1  0  0  0
 72 81  1  0  0  0
 73 76  2  0  0  0
 73 86  1  0  0  0
 74 75  2  0  0  0
 74 85  1  0  0  0
 75 76  1  0  0  0
 75 82  1  0  0  0
 76 87  1  0  0  0
 77 79  1  0  0  0
 77 87  1  0  0  0
 77149  1  0  0  0
 77150  1  0  0  0
 78 80  1  0  0  0
 78 87  1  0  0  0
 78151  1  0  0  0
 78152  1  0  0  0
 79 88  1  0  0  0
 79153  1  0  0  0
 79154  1  0  0  0
 80 88  1  0  0  0
 80155  1  0  0  0
 80156  1  0  0  0
 81157  1  0  0  0
 81158  1  0  0  0
 81159  1  0  0  0
 82160  1  0  0  0
 82161  1  0  0  0
 82162  1  0  0  0
 83163  1  0  0  0
 83164  1  0  0  0
 83165  1  0  0  0
 83 86  1  0  0  0
 84 86  1  0  0  0
 84166  1  0  0  0
 84167  1  0  0  0
 84168  1  0  0  0
 85169  1  0  0  0
 85170  1  0  0  0
 86171  1  0  0  0
M  ISO  4   1 100  68 101  85 101  88 100
M  END
> <chiral flag>
0

> <version>
0

> <s_m_source_file>
/data/baiqing/PycharmProjects/Reinvent-master-3.2/result/LINK_invent/BTK/process_docking_weight1_custom_sum_contain_oxygen_bond_distance_aromatic_linkinvent_7_9_3/rearranged_h_0162.sdf

> <i_m_source_file_index>
19

> <r_mmod_Potential_Energy-OPLS-2005>
636.05224609375

> <r_mmod_Stretch_Energy-OPLS-2005>
213.529006958008

> <r_mmod_Bend_Energy-OPLS-2005>
262.551177978516

> <r_mmod_Torsional_Energy-OPLS-2005>
389.606689453125

> <r_mmod_Improper_Torsional_Energy-OPLS-2005>
10.2560815811157

> <r_mmod_Van_der_Waal_Energy-OPLS-2005>
138.471923828125

> <r_mmod_Electrostatic_Energy-OPLS-2005>
-356.170349121094

> <r_mmod_Solvation_Energy-OPLS-2005>
-191.68376159668

> <b_mmod_Minimization_Converged-OPLS-2005>
0

> <r_mmod_RMS_Derivative-OPLS-2005>
1.46440482139587

$$$$
19
                    3D
 Structure written by MMmdl.
173182  0  0  1  0            999 V2000
  -30.6832  -14.4901   20.4519 C   0  0  0  0  0  0
  -30.4170  -12.2869   19.4193 C   0  0  0  0  0  0
  -29.4937  -12.4824   18.1974 C   0  0  0  0  0  0
  -28.0112  -12.3573   18.6091 C   0  0  0  0  0  0
  -27.6573  -13.1835   19.8775 C   0  0  2  0  0  0
  -28.7105  -13.0180   20.9903 C   0  0  0  0  0  0
  -25.2614  -13.8063   20.5741 C   0  0  0  0  0  0
  -24.1833  -13.0383   20.9198 C   0  0  0  0  0  0
  -24.6382  -11.6858   20.8743 C   0  0  0  0  0  0
  -23.9033  -10.4297   21.0394 C   0  0  0  0  0  0
  -24.3609   -9.4231   21.9180 C   0  0  0  0  0  0
  -23.6321   -8.2253   22.0736 C   0  0  0  0  0  0
  -22.4300   -8.0297   21.3545 C   0  0  0  0  0  0
  -21.9908   -9.0253   20.4632 C   0  0  0  0  0  0
  -22.7211  -10.2142   20.3052 C   0  0  0  0  0  0
  -21.6879   -6.0766   22.5276 C   0  0  0  0  0  0
  -21.4018   -6.5667   23.8200 C   0  0  0  0  0  0
  -21.3646   -5.6810   24.9154 C   0  0  0  0  0  0
  -21.6045   -4.3079   24.7202 C   0  0  0  0  0  0
  -21.8822   -3.8183   23.4322 C   0  0  0  0  0  0
  -21.9222   -4.7003   22.3393 C   0  0  0  0  0  0
  -22.7877  -13.5213   21.1847 C   0  0  0  0  0  0
  -22.1706   -4.2198   21.0967 F   0  0  0  0  0  0
  -21.5614   -3.4553   25.7705 F   0  0  0  0  0  0
  -30.0330  -13.2986   20.4112 N   0  0  0  0  0  0
  -26.3018  -12.9194   20.3404 N   0  0  0  0  0  0
  -25.9303  -11.6378   20.5792 N   0  0  0  0  0  0
  -22.0508  -12.8195   22.0384 N   0  0  0  0  0  0
  -25.4245  -15.1780   20.4288 N   0  0  0  0  0  0
  -31.8816  -14.6102   20.1997 O   0  0  0  0  0  0
  -21.6680   -6.8897   21.4237 O   0  0  0  0  0  0
  -22.3597  -14.5548   20.6725 O   0  0  0  0  0  0
  -24.6119  -31.8666   23.2072 C   0  0  0  0  0  0
  -25.9025  -32.4806   23.8374 C   0  0  1  0  0  0
  -27.2375  -27.4415   20.0962 C   0  0  0  0  0  0
  -25.5878  -33.8605   24.2315 N   0  0  0  0  0  0
  -23.3974  -30.4910   21.5464 C   0  0  2  0  0  0
  -24.8436  -28.9541   20.1143 C   0  0  0  0  0  0
  -22.7389  -29.4675   22.4981 C   0  0  0  0  0  0
  -18.0285  -28.1365   22.8471 C   0  0  0  0  0  0
  -24.1495  -36.7313   23.2633 C   0  0  0  0  0  0
  -25.9239  -30.8405   21.3521 C   0  0  0  0  0  0
  -26.0026  -29.4746   20.7043 C   0  0  0  0  0  0
  -27.1989  -28.7256   20.6837 C   0  0  0  0  0  0
  -26.0503  -26.9194   19.5343 C   0  0  0  0  0  0
  -24.8650  -27.6788   19.5242 C   0  0  0  0  0  0
  -23.6037  -29.8173   20.1622 C   0  0  0  0  0  0
  -25.4114  -36.3105   24.0333 C   0  0  1  0  0  0
  -20.5864  -28.3682   23.1334 C   0  0  2  0  0  0
  -20.6809  -26.9434   22.5417 C   0  0  0  0  0  0
  -19.5811  -26.6393   21.5230 C   0  0  0  0  0  0
  -18.1977  -26.7905   22.1629 C   0  0  0  0  0  0
  -19.1524  -28.8834   23.2881 C   0  0  0  0  0  0
  -18.9431  -30.1438   23.8859 C   0  0  0  0  0  0
  -17.6414  -30.6551   24.0541 C   0  0  0  0  0  0
  -25.9033  -34.9461   23.5136 C   0  0  0  0  0  0
  -16.5317  -29.9052   23.6284 C   0  0  0  0  0  0
  -16.7277  -28.6500   23.0291 C   0  0  0  0  0  0
  -26.4451  -31.6571   25.0704 C   0  0  0  0  0  0
  -25.3747  -31.3647   26.1483 C   0  0  0  0  0  0
  -27.0269  -30.3025   24.6038 C   0  0  0  0  0  0
  -27.6057  -32.4267   25.7463 C   0  0  0  0  0  0
  -27.5588  -37.1811   24.8468 C   0  0  0  0  0  0
  -21.4109  -29.3062   22.3737 N   0  0  0  0  0  0
  -26.4302  -37.3783   23.9397 N   0  0  0  0  0  0
  -24.6623  -31.0819   22.0927 N   0  0  0  0  0  0
  -23.4179  -28.8259   23.3034 O   0  0  0  0  0  0
  -28.4591  -26.7967   20.1086 O   0  0  0  0  0  0
  -26.5614  -34.8904   22.4712 O   0  0  0  0  0  0
  -23.5329  -32.1393   23.7492 O   0  0  0  0  0  0
  -28.7974  -19.0702   20.5258 C   0  0  0  0  0  0
  -26.5501  -18.1302   19.1430 C   0  0  0  0  0  0
  -27.6619  -19.9020   20.3848 C   0  0  0  0  0  0
  -28.8416  -17.7848   19.9344 C   0  0  0  0  0  0
  -27.7465  -17.3840   19.1169 C   0  0  0  0  0  0
  -26.4959  -19.3745   19.8009 C   0  0  0  0  0  0
  -27.2154  -21.8079   22.1156 C   0  0  0  0  0  0
  -27.6555  -21.3632   20.7346 C   0  0  1  0  0  0
  -28.6377  -22.0510   21.6551 C   0  0  1  0  0  0
  -27.8356  -16.2713   18.0874 C   0  0  0  0  0  0
  -31.0012  -17.1601   18.8461 C   0  0  0  0  0  0
  -28.4815  -25.0748   18.2944 C   0  0  0  0  0  0
  -24.2005  -19.4629   20.2952 C   0  0  0  0  0  0
  -27.9845  -24.4217   20.7676 C   0  0  0  0  0  0
  -30.1269  -16.9633   20.1048 C   0  0  2  0  0  0
  -28.6566  -25.4143   19.7863 C   0  0  2  0  0  0
  -29.8599  -15.5553   20.4728 N   0  0  0  0  0  0
  -28.9938  -23.4596   21.3066 N   0  3  0  0  0  0
  -25.3566  -20.1386   19.8186 O   0  0  0  0  0  0
  -31.4652  -12.3731   19.1217 H   0  0  0  0  0  0
  -30.2992  -11.2864   19.8384 H   0  0  0  0  0  0
  -29.7255  -11.7493   17.4237 H   0  0  0  0  0  0
  -29.6751  -13.4581   17.7410 H   0  0  0  0  0  0
  -27.8040  -11.3011   18.7855 H   0  0  0  0  0  0
  -27.3656  -12.6537   17.7814 H   0  0  0  0  0  0
  -27.6799  -14.2245   19.5980 H   0  0  0  0  0  0
  -28.6818  -12.0061   21.3962 H   0  0  0  0  0  0
  -28.4895  -13.6840   21.8261 H   0  0  0  0  0  0
  -25.2730   -9.5775   22.4765 H   0  0  0  0  0  0
  -24.0076   -7.4655   22.7427 H   0  0  0  0  0  0
  -21.0851   -8.8765   19.8935 H   0  0  0  0  0  0
  -22.3643  -10.9703   19.6202 H   0  0  0  0  0  0
  -21.2005   -7.6183   23.9696 H   0  0  0  0  0  0
  -21.1447   -6.0553   25.9042 H   0  0  0  0  0  0
  -22.0612   -2.7660   23.2800 H   0  0  0  0  0  0
  -22.4171  -11.9883   22.4790 H   0  0  0  0  0  0
  -21.1099  -13.1161   22.2505 H   0  0  0  0  0  0
  -24.6351  -15.8043   20.5361 H   0  0  0  0  0  0
  -26.2729  -15.6565   20.1561 H   0  0  0  0  0  0
  -26.7118  -32.5529   23.1160 H   0  0  0  0  0  0
  -24.9997  -33.9739   25.0445 H   0  0  0  0  0  0
  -22.6821  -31.3053   21.4044 H   0  0  0  0  0  0
  -23.3747  -35.9663   23.3316 H   0  0  0  0  0  0
  -24.3576  -36.8913   22.2043 H   0  0  0  0  0  0
  -23.7259  -37.6528   23.6635 H   0  0  0  0  0  0
  -26.0346  -31.6057   20.5827 H   0  0  0  0  0  0
  -26.8126  -30.8958   21.9700 H   0  0  0  0  0  0
  -28.1000  -29.1300   21.1233 H   0  0  0  0  0  0
  -26.0030  -25.9354   19.1031 H   0  0  0  0  0  0
  -23.9734  -27.2707   19.0666 H   0  0  0  0  0  0
  -23.6972  -30.5854   19.3927 H   0  0  0  0  0  0
  -22.7323  -29.2263   19.8774 H   0  0  0  0  0  0
  -25.1298  -36.1975   25.0827 H   0  0  0  0  0  0
  -20.9937  -28.3266   24.1462 H   0  0  0  0  0  0
  -20.5705  -26.2336   23.3624 H   0  0  0  0  0  0
  -21.6703  -26.7482   22.1244 H   0  0  0  0  0  0
  -19.6948  -25.6283   21.1329 H   0  0  0  0  0  0
  -19.6743  -27.3181   20.6741 H   0  0  0  0  0  0
  -17.4319  -26.6646   21.3967 H   0  0  0  0  0  0
  -18.0397  -26.0053   22.9049 H   0  0  0  0  0  0
  -19.7913  -30.7277   24.2216 H   0  0  0  0  0  0
  -17.4935  -31.6196   24.5190 H   0  0  0  0  0  0
  -15.5286  -30.2918   23.7566 H   0  0  0  0  0  0
  -15.8697  -28.0836   22.6926 H   0  0  0  0  0  0
  -24.5943  -30.6953   25.7851 H   0  0  0  0  0  0
  -24.8907  -32.2773   26.4958 H   0  0  0  0  0  0
  -25.8133  -30.8829   27.0229 H   0  0  0  0  0  0
  -26.2801  -29.6819   24.1074 H   0  0  0  0  0  0
  -27.4049  -29.7217   25.4458 H   0  0  0  0  0  0
  -27.8624  -30.4367   23.9170 H   0  0  0  0  0  0
  -27.2707  -33.3560   26.2070 H   0  0  0  0  0  0
  -28.3835  -32.6814   25.0261 H   0  0  0  0  0  0
  -28.0744  -31.8359   26.5335 H   0  0  0  0  0  0
  -28.2624  -38.0092   24.7510 H   0  0  0  0  0  0
  -28.1054  -36.2621   24.6309 H   0  0  0  0  0  0
  -27.2290  -37.1504   25.8866 H   0  0  0  0  0  0
  -20.9271  -29.8742   21.6947 H   0  0  0  0  0  0
  -26.0200  -38.2873   24.1369 H   0  0  0  0  0  0
  -29.6773  -19.4399   21.0335 H   0  0  0  0  0  0
  -25.6930  -17.7966   18.5740 H   0  0  0  0  0  0
  -27.0566  -21.0177   22.8475 H   0  0  0  0  0  0
  -26.5306  -22.6506   22.1911 H   0  0  0  0  0  0
  -27.2953  -21.9067   19.8651 H   0  0  0  0  0  0
  -29.4579  -21.4877   22.0942 H   0  0  0  0  0  0
  -26.9266  -15.6733   18.0527 H   0  0  0  0  0  0
  -28.6758  -15.6014   18.2319 H   0  0  0  0  0  0
  -27.9663  -16.7148   17.0978 H   0  0  0  0  0  0
  -32.0182  -16.7979   18.9894 H   0  0  0  0  0  0
  -30.5968  -16.6741   17.9602 H   0  0  0  0  0  0
  -31.0813  -18.2213   18.6065 H   0  0  0  0  0  0
  -28.9720  -25.8204   17.6712 H   0  0  0  0  0  0
  -27.4460  -25.0095   17.9753 H   0  0  0  0  0  0
  -28.9323  -24.1093   18.0679 H   0  0  0  0  0  0
  -24.4152  -18.8572   21.1780 H   0  0  0  0  0  0
  -23.7807  -18.8192   19.5251 H   0  0  0  0  0  0
  -23.4393  -20.1904   20.5810 H   0  0  0  0  0  0
  -27.1386  -23.9561   20.2669 H   0  0  0  0  0  0
  -27.5599  -24.9556   21.6162 H   0  0  0  0  0  0
  -30.6694  -17.3937   20.9511 H   0  0  0  0  0  0
  -29.7308  -25.3287   19.9539 H   0  0  0  0  0  0
  -28.8945  -15.3367   20.6596 H   0  0  0  0  0  0
  -29.7407  -23.4047   20.6309 H   0  0  0  0  0  0
  -29.4057  -23.8815   22.1270 H   0  0  0  0  0  0
  1 25  1  0  0  0
  1 30  2  0  0  0
  1 87  1  0  0  0
  2  3  1  0  0  0
  2 25  1  0  0  0
  2 90  1  0  0  0
  2 91  1  0  0  0
  3  4  1  0  0  0
  3 92  1  0  0  0
  3 93  1  0  0  0
  4  5  1  0  0  0
  4 94  1  0  0  0
  4 95  1  0  0  0
  5  6  1  0  0  0
  5 26  1  0  0  0
  5 96  1  0  0  0
  6 25  1  0  0  0
  6 97  1  0  0  0
  6 98  1  0  0  0
  7  8  2  0  0  0
  7 26  1  0  0  0
  7 29  1  0  0  0
  8  9  1  0  0  0
  8 22  1  0  0  0
  9 10  1  0  0  0
  9 27  2  0  0  0
 10 11  2  0  0  0
 10 15  1  0  0  0
 11 12  1  0  0  0
 11 99  1  0  0  0
 12 13  2  0  0  0
 12100  1  0  0  0
 13 14  1  0  0  0
 13 31  1  0  0  0
 14 15  2  0  0  0
 14101  1  0  0  0
 15102  1  0  0  0
 16 17  2  0  0  0
 16 21  1  0  0  0
 16 31  1  0  0  0
 17 18  1  0  0  0
 17103  1  0  0  0
 18 19  2  0  0  0
 18104  1  0  0  0
 19 20  1  0  0  0
 19 24  1  0  0  0
 20 21  2  0  0  0
 20105  1  0  0  0
 21 23  1  0  0  0
 22 28  1  0  0  0
 22 32  2  0  0  0
 26 27  1  0  0  0
 28106  1  0  0  0
 28107  1  0  0  0
 29108  1  0  0  0
 29109  1  0  0  0
 33 34  1  0  0  0
 33 66  1  0  0  0
 33 70  2  0  0  0
 34 36  1  0  0  0
 34 59  1  0  0  0
 34110  1  0  0  0
 35 44  2  0  0  0
 35 45  1  0  0  0
 35 68  1  0  0  0
 36 56  1  0  0  0
 36111  1  0  0  0
 37 39  1  0  0  0
 37 47  1  0  0  0
 37 66  1  0  0  0
 37112  1  0  0  0
 38 43  2  0  0  0
 38 46  1  0  0  0
 38 47  1  0  0  0
 39 64  1  0  0  0
 39 67  2  0  0  0
 40 52  1  0  0  0
 40 53  2  0  0  0
 40 58  1  0  0  0
 41113  1  0  0  0
 41114  1  0  0  0
 41115  1  0  0  0
 41 48  1  0  0  0
 42 43  1  0  0  0
 42 66  1  0  0  0
 42116  1  0  0  0
 42117  1  0  0  0
 43 44  1  0  0  0
 44118  1  0  0  0
 45 46  2  0  0  0
 45119  1  0  0  0
 46120  1  0  0  0
 47121  1  0  0  0
 47122  1  0  0  0
 48 56  1  0  0  0
 48 65  1  0  0  0
 48123  1  0  0  0
 49 50  1  0  0  0
 49 53  1  0  0  0
 49 64  1  0  0  0
 49124  1  0  0  0
 50 51  1  0  0  0
 50125  1  0  0  0
 50126  1  0  0  0
 51 52  1  0  0  0
 51127  1  0  0  0
 51128  1  0  0  0
 52129  1  0  0  0
 52130  1  0  0  0
 53 54  1  0  0  0
 54 55  2  0  0  0
 54131  1  0  0  0
 55 57  1  0  0  0
 55132  1  0  0  0
 56 69  2  0  0  0
 57 58  2  0  0  0
 57133  1  0  0  0
 58134  1  0  0  0
 59 60  1  0  0  0
 59 61  1  0  0  0
 59 62  1  0  0  0
 60135  1  0  0  0
 60136  1  0  0  0
 60137  1  0  0  0
 61138  1  0  0  0
 61139  1  0  0  0
 61140  1  0  0  0
 62141  1  0  0  0
 62142  1  0  0  0
 62143  1  0  0  0
 63 65  1  0  0  0
 63144  1  0  0  0
 63145  1  0  0  0
 63146  1  0  0  0
 64147  1  0  0  0
 65148  1  0  0  0
 68 86  1  0  0  0
 71 73  2  0  0  0
 71 74  1  0  0  0
 71149  1  0  0  0
 72 75  1  0  0  0
 72 76  2  0  0  0
 72150  1  0  0  0
 73 76  1  0  0  0
 73 78  1  0  0  0
 74 75  2  0  0  0
 74 85  1  0  0  0
 75 80  1  0  0  0
 76 89  1  0  0  0
 77 78  1  0  0  0
 77 79  1  0  0  0
 77151  1  0  0  0
 77152  1  0  0  0
 78 79  1  0  0  0
 78153  1  0  0  0
 79 88  1  0  0  0
 79154  1  0  0  0
 80155  1  0  0  0
 80156  1  0  0  0
 80157  1  0  0  0
 81158  1  0  0  0
 81159  1  0  0  0
 81160  1  0  0  0
 81 85  1  0  0  0
 82161  1  0  0  0
 82162  1  0  0  0
 82163  1  0  0  0
 82 86  1  0  0  0
 83 89  1  0  0  0
 83164  1  0  0  0
 83165  1  0  0  0
 83166  1  0  0  0
 84 86  1  0  0  0
 84 88  1  0  0  0
 84167  1  0  0  0
 84168  1  0  0  0
 85 87  1  0  0  0
 85169  1  0  0  0
 86170  1  0  0  0
 87171  1  0  0  0
 88172  1  0  0  0
 88173  1  0  0  0
M  CHG  1  88   1
M  ISO  4   1 100  68 101  86 101  87 100
M  END
> <chiral flag>
0

> <version>
0

> <s_m_source_file>
/data/baiqing/PycharmProjects/Reinvent-master-3.2/result/LINK_invent/BTK/process_docking_weight1_custom_sum_contain_oxygen_bond_distance_aromatic_linkinvent_7_9_3/rearranged_h_0162.sdf

> <i_m_source_file_index>
20

> <r_mmod_Potential_Energy-OPLS-2005>
-125.959449768066

> <r_mmod_Stretch_Energy-OPLS-2005>
37.5377655029297

> <r_mmod_Bend_Energy-OPLS-2005>
151.962631225586

> <r_mmod_Torsional_Energy-OPLS-2005>
312.600067138672

> <r_mmod_Improper_Torsional_Energy-OPLS-2005>
9.35654067993164

> <r_mmod_Van_der_Waal_Energy-OPLS-2005>
154.11784362793

> <r_mmod_Electrostatic_Energy-OPLS-2005>
-366.233612060547

> <r_mmod_Solvation_Energy-OPLS-2005>
-446.472991943359

> <b_mmod_Minimization_Converged-OPLS-2005>
0

> <r_mmod_RMS_Derivative-OPLS-2005>
4.46166515350342

$$$$
20
                    3D
 Structure written by MMmdl.
166175  0  0  1  0            999 V2000
  -30.5770  -14.8637   20.4020 C   0  0  0  0  0  0
  -30.4278  -12.5256   19.5026 C   0  0  0  0  0  0
  -29.5204  -12.5553   18.2527 C   0  0  0  0  0  0
  -28.0481  -12.3568   18.6586 C   0  0  0  0  0  0
  -27.6413  -13.2522   19.8579 C   0  0  2  0  0  0
  -28.6810  -13.2485   21.0000 C   0  0  0  0  0  0
  -25.2569  -13.8275   20.5733 C   0  0  0  0  0  0
  -24.1848  -13.0491   20.9218 C   0  0  0  0  0  0
  -24.6458  -11.6969   20.8746 C   0  0  0  0  0  0
  -23.9103  -10.4344   21.0417 C   0  0  0  0  0  0
  -24.3647   -9.4258   21.9195 C   0  0  0  0  0  0
  -23.6323   -8.2286   22.0760 C   0  0  0  0  0  0
  -22.4298   -8.0321   21.3569 C   0  0  0  0  0  0
  -21.9962   -9.0284   20.4642 C   0  0  0  0  0  0
  -22.7286  -10.2172   20.3058 C   0  0  0  0  0  0
  -21.6878   -6.0736   22.5278 C   0  0  0  0  0  0
  -21.4019   -6.5644   23.8201 C   0  0  0  0  0  0
  -21.3684   -5.6809   24.9175 C   0  0  0  0  0  0
  -21.6048   -4.3066   24.7219 C   0  0  0  0  0  0
  -21.8831   -3.8150   23.4346 C   0  0  0  0  0  0
  -21.9217   -4.6966   22.3404 C   0  0  0  0  0  0
  -22.7886  -13.5247   21.1848 C   0  0  0  0  0  0
  -22.1697   -4.2169   21.0978 F   0  0  0  0  0  0
  -21.5628   -3.4541   25.7724 F   0  0  0  0  0  0
  -29.9753  -13.6152   20.4102 N   0  0  0  0  0  0
  -26.2980  -12.9489   20.3341 N   0  0  0  0  0  0
  -25.9404  -11.6618   20.5748 N   0  0  0  0  0  0
  -22.0556  -12.8172   22.0372 N   0  0  0  0  0  0
  -25.4312  -15.1977   20.4109 N   0  0  0  0  0  0
  -31.7550  -14.9414   20.0414 O   0  0  0  0  0  0
  -21.6680   -6.8900   21.4240 O   0  0  0  0  0  0
  -22.3539  -14.5549   20.6717 O   0  0  0  0  0  0
  -24.6346  -31.8497   23.1906 C   0  0  0  0  0  0
  -25.9141  -32.4719   23.8291 C   0  0  1  0  0  0
  -27.2405  -27.2262   20.1368 C   0  0  0  0  0  0
  -25.5916  -33.8524   24.2243 N   0  0  0  0  0  0
  -23.4364  -30.4627   21.5361 C   0  0  2  0  0  0
  -24.8884  -28.8926   20.1177 C   0  0  0  0  0  0
  -22.7539  -29.4565   22.4934 C   0  0  0  0  0  0
  -18.0301  -28.1388   22.8475 C   0  0  0  0  0  0
  -24.1495  -36.7277   23.2641 C   0  0  0  0  0  0
  -25.9804  -30.7589   21.3638 C   0  0  0  0  0  0
  -26.0588  -29.3709   20.7168 C   0  0  0  0  0  0
  -27.2399  -28.5545   20.6993 C   0  0  0  0  0  0
  -26.0403  -26.8138   19.5220 C   0  0  0  0  0  0
  -24.8852  -27.6268   19.5073 C   0  0  0  0  0  0
  -23.6552  -29.7752   20.1590 C   0  0  0  0  0  0
  -25.4124  -36.3068   24.0340 C   0  0  1  0  0  0
  -20.5889  -28.3713   23.1265 C   0  0  2  0  0  0
  -20.6768  -26.9425   22.5423 C   0  0  0  0  0  0
  -19.5756  -26.6390   21.5216 C   0  0  0  0  0  0
  -18.1932  -26.7938   22.1609 C   0  0  0  0  0  0
  -19.1542  -28.8874   23.2854 C   0  0  0  0  0  0
  -18.9455  -30.1466   23.8891 C   0  0  0  0  0  0
  -17.6443  -30.6578   24.0570 C   0  0  0  0  0  0
  -25.9064  -34.9419   23.5112 C   0  0  0  0  0  0
  -16.5344  -29.9074   23.6321 C   0  0  0  0  0  0
  -16.7284  -28.6485   23.0361 C   0  0  0  0  0  0
  -26.4521  -31.6525   25.0671 C   0  0  0  0  0  0
  -25.3733  -31.3582   26.1360 C   0  0  0  0  0  0
  -27.0393  -30.2972   24.6103 C   0  0  0  0  0  0
  -27.6100  -32.4227   25.7452 C   0  0  0  0  0  0
  -27.5591  -37.1796   24.8464 C   0  0  0  0  0  0
  -21.4240  -29.3039   22.3669 N   0  0  0  0  0  0
  -26.4311  -37.3753   23.9403 N   0  0  0  0  0  0
  -24.7049  -31.0421   22.0887 N   0  0  0  0  0  0
  -23.4208  -28.8132   23.3080 O   0  0  0  0  0  0
  -28.3709  -26.3634   20.1470 O   0  0  0  0  0  0
  -26.5631  -34.8908   22.4679 O   0  0  0  0  0  0
  -23.5482  -32.1311   23.7182 O   0  0  0  0  0  0
  -29.4705  -18.7085   20.5829 C   0  0  0  0  0  0
  -30.4854  -17.5325   18.7456 C   0  0  0  0  0  0
  -29.6906  -24.0308   20.6157 C   0  0  0  0  0  0
  -30.7443  -24.8928   21.0938 C   0  0  0  0  0  0
  -29.9430  -17.4211   20.0424 C   0  0  0  0  0  0
  -29.5673  -19.9964   19.8631 C   0  0  0  0  0  0
  -30.0573  -22.5624   20.5038 C   0  0  0  0  0  0
  -32.0824  -24.4730   21.0497 C   0  0  0  0  0  0
  -30.0714  -19.8442   18.5393 C   0  0  0  0  0  0
  -31.4652  -22.2959   20.6762 C   0  0  0  0  0  0
  -30.5075  -26.2666   21.7290 C   0  0  0  0  0  0
  -33.2687  -25.3751   21.3590 C   0  0  0  0  0  0
  -30.1434  -21.0133   17.5641 C   0  0  0  0  0  0
  -32.1097  -20.9297   20.8803 C   0  0  0  0  0  0
  -28.3133  -24.8373   20.3077 C   0  0  0  0  0  0
  -30.5283  -18.6769   18.0252 N   0  0  0  0  0  0
  -32.4217  -23.2202   20.8010 N   0  0  0  0  0  0
  -29.2246  -21.3538   20.3559 N   0  0  0  0  0  0
  -29.8360  -16.0343   20.6532 N   0  0  0  0  0  0
  -31.4732  -12.6339   19.2116 H   0  0  0  0  0  0
  -30.3592  -11.5555   20.0004 H   0  0  0  0  0  0
  -29.8176  -11.7916   17.5348 H   0  0  0  0  0  0
  -29.6351  -13.5136   17.7458 H   0  0  0  0  0  0
  -27.9049  -11.3033   18.9004 H   0  0  0  0  0  0
  -27.3984  -12.5663   17.8100 H   0  0  0  0  0  0
  -27.6171  -14.2662   19.4603 H   0  0  0  0  0  0
  -28.7366  -12.2789   21.4972 H   0  0  0  0  0  0
  -28.3962  -13.9655   21.7732 H   0  0  0  0  0  0
  -25.2807   -9.5723   22.4749 H   0  0  0  0  0  0
  -24.0064   -7.4662   22.7453 H   0  0  0  0  0  0
  -21.0943   -8.8772   19.8874 H   0  0  0  0  0  0
  -22.3782  -10.9693   19.6122 H   0  0  0  0  0  0
  -21.1982   -7.6147   23.9709 H   0  0  0  0  0  0
  -21.1501   -6.0531   25.9079 H   0  0  0  0  0  0
  -22.0582   -2.7610   23.2832 H   0  0  0  0  0  0
  -22.4235  -11.9799   22.4638 H   0  0  0  0  0  0
  -21.1133  -13.1080   22.2546 H   0  0  0  0  0  0
  -24.6634  -15.8558   20.4881 H   0  0  0  0  0  0
  -26.2673  -15.6191   20.0282 H   0  0  0  0  0  0
  -26.7219  -32.5392   23.1041 H   0  0  0  0  0  0
  -25.0069  -33.9644   25.0402 H   0  0  0  0  0  0
  -22.7348  -31.2836   21.3751 H   0  0  0  0  0  0
  -23.3772  -35.9593   23.3268 H   0  0  0  0  0  0
  -24.3608  -36.8946   22.2073 H   0  0  0  0  0  0
  -23.7226  -37.6462   23.6686 H   0  0  0  0  0  0
  -26.0985  -31.5099   20.5814 H   0  0  0  0  0  0
  -26.8642  -30.8313   21.9825 H   0  0  0  0  0  0
  -28.1477  -28.9287   21.1507 H   0  0  0  0  0  0
  -25.9849  -25.8437   19.0495 H   0  0  0  0  0  0
  -23.9866  -27.2641   19.0271 H   0  0  0  0  0  0
  -23.7693  -30.5337   19.3852 H   0  0  0  0  0  0
  -22.7779  -29.1913   19.8726 H   0  0  0  0  0  0
  -25.1307  -36.1933   25.0824 H   0  0  0  0  0  0
  -20.9963  -28.3283   24.1395 H   0  0  0  0  0  0
  -20.5661  -26.2333   23.3637 H   0  0  0  0  0  0
  -21.6646  -26.7430   22.1239 H   0  0  0  0  0  0
  -19.6927  -25.6299   21.1264 H   0  0  0  0  0  0
  -19.6696  -27.3190   20.6735 H   0  0  0  0  0  0
  -17.4225  -26.6712   21.3990 H   0  0  0  0  0  0
  -18.0293  -26.0074   22.8973 H   0  0  0  0  0  0
  -19.7920  -30.7296   24.2265 H   0  0  0  0  0  0
  -17.4987  -31.6259   24.5175 H   0  0  0  0  0  0
  -15.5345  -30.2975   23.7641 H   0  0  0  0  0  0
  -15.8680  -28.0807   22.7079 H   0  0  0  0  0  0
  -24.6029  -30.6812   25.7632 H   0  0  0  0  0  0
  -24.8773  -32.2687   26.4728 H   0  0  0  0  0  0
  -25.8067  -30.8816   27.0163 H   0  0  0  0  0  0
  -26.2963  -29.6665   24.1212 H   0  0  0  0  0  0
  -27.4219  -29.7257   25.4566 H   0  0  0  0  0  0
  -27.8756  -30.4287   23.9234 H   0  0  0  0  0  0
  -27.2798  -33.3593   26.1936 H   0  0  0  0  0  0
  -28.3971  -32.6642   25.0294 H   0  0  0  0  0  0
  -28.0682  -31.8372   26.5431 H   0  0  0  0  0  0
  -28.2590  -38.0115   24.7551 H   0  0  0  0  0  0
  -28.1125  -36.2649   24.6262 H   0  0  0  0  0  0
  -27.2308  -37.1399   25.8869 H   0  0  0  0  0  0
  -20.9475  -29.8736   21.6826 H   0  0  0  0  0  0
  -26.0195  -38.2844   24.1384 H   0  0  0  0  0  0
  -29.0583  -18.7147   21.5820 H   0  0  0  0  0  0
  -30.8502  -16.6614   18.2206 H   0  0  0  0  0  0
  -29.5245  -26.3610   22.1884 H   0  0  0  0  0  0
  -30.6582  -27.0668   21.0065 H   0  0  0  0  0  0
  -31.1989  -26.4414   22.5559 H   0  0  0  0  0  0
  -33.1507  -26.3623   20.9127 H   0  0  0  0  0  0
  -34.1912  -24.9513   20.9591 H   0  0  0  0  0  0
  -33.4054  -25.4951   22.4332 H   0  0  0  0  0  0
  -31.0357  -21.6150   17.7371 H   0  0  0  0  0  0
  -29.2756  -21.6642   17.6639 H   0  0  0  0  0  0
  -30.1664  -20.6715   16.5281 H   0  0  0  0  0  0
  -32.2515  -20.4107   19.9375 H   0  0  0  0  0  0
  -31.5286  -20.3227   21.5709 H   0  0  0  0  0  0
  -33.1009  -21.0176   21.3309 H   0  0  0  0  0  0
  -27.6125  -24.6115   21.1091 H   0  0  0  0  0  0
  -27.8775  -24.4187   19.4012 H   0  0  0  0  0  0
  -28.3695  -21.3896   20.9101 H   0  0  0  0  0  0
  -29.0134  -15.8825   21.2201 H   0  0  0  0  0  0
  1 25  1  0  0  0
  1 30  2  0  0  0
  1 89  1  0  0  0
  2  3  1  0  0  0
  2 25  1  0  0  0
  2 90  1  0  0  0
  2 91  1  0  0  0
  3  4  1  0  0  0
  3 92  1  0  0  0
  3 93  1  0  0  0
  4  5  1  0  0  0
  4 94  1  0  0  0
  4 95  1  0  0  0
  5  6  1  0  0  0
  5 26  1  0  0  0
  5 96  1  0  0  0
  6 25  1  0  0  0
  6 97  1  0  0  0
  6 98  1  0  0  0
  7  8  2  0  0  0
  7 26  1  0  0  0
  7 29  1  0  0  0
  8  9  1  0  0  0
  8 22  1  0  0  0
  9 10  1  0  0  0
  9 27  2  0  0  0
 10 11  2  0  0  0
 10 15  1  0  0  0
 11 12  1  0  0  0
 11 99  1  0  0  0
 12 13  2  0  0  0
 12100  1  0  0  0
 13 14  1  0  0  0
 13 31  1  0  0  0
 14 15  2  0  0  0
 14101  1  0  0  0
 15102  1  0  0  0
 16 17  2  0  0  0
 16 21  1  0  0  0
 16 31  1  0  0  0
 17 18  1  0  0  0
 17103  1  0  0  0
 18 19  2  0  0  0
 18104  1  0  0  0
 19 20  1  0  0  0
 19 24  1  0  0  0
 20 21  2  0  0  0
 20105  1  0  0  0
 21 23  1  0  0  0
 22 28  1  0  0  0
 22 32  2  0  0  0
 26 27  1  0  0  0
 28106  1  0  0  0
 28107  1  0  0  0
 29108  1  0  0  0
 29109  1  0  0  0
 33 34  1  0  0  0
 33 66  1  0  0  0
 33 70  2  0  0  0
 34 36  1  0  0  0
 34 59  1  0  0  0
 34110  1  0  0  0
 35 44  2  0  0  0
 35 45  1  0  0  0
 35 68  1  0  0  0
 36 56  1  0  0  0
 36111  1  0  0  0
 37 39  1  0  0  0
 37 47  1  0  0  0
 37 66  1  0  0  0
 37112  1  0  0  0
 38 43  2  0  0  0
 38 46  1  0  0  0
 38 47  1  0  0  0
 39 64  1  0  0  0
 39 67  2  0  0  0
 40 52  1  0  0  0
 40 53  2  0  0  0
 40 58  1  0  0  0
 41113  1  0  0  0
 41114  1  0  0  0
 41115  1  0  0  0
 41 48  1  0  0  0
 42 43  1  0  0  0
 42 66  1  0  0  0
 42116  1  0  0  0
 42117  1  0  0  0
 43 44  1  0  0  0
 44118  1  0  0  0
 45 46  2  0  0  0
 45119  1  0  0  0
 46120  1  0  0  0
 47121  1  0  0  0
 47122  1  0  0  0
 48 56  1  0  0  0
 48 65  1  0  0  0
 48123  1  0  0  0
 49 50  1  0  0  0
 49 53  1  0  0  0
 49 64  1  0  0  0
 49124  1  0  0  0
 50 51  1  0  0  0
 50125  1  0  0  0
 50126  1  0  0  0
 51 52  1  0  0  0
 51127  1  0  0  0
 51128  1  0  0  0
 52129  1  0  0  0
 52130  1  0  0  0
 53 54  1  0  0  0
 54 55  2  0  0  0
 54131  1  0  0  0
 55 57  1  0  0  0
 55132  1  0  0  0
 56 69  2  0  0  0
 57 58  2  0  0  0
 57133  1  0  0  0
 58134  1  0  0  0
 59 60  1  0  0  0
 59 61  1  0  0  0
 59 62  1  0  0  0
 60135  1  0  0  0
 60136  1  0  0  0
 60137  1  0  0  0
 61138  1  0  0  0
 61139  1  0  0  0
 61140  1  0  0  0
 62141  1  0  0  0
 62142  1  0  0  0
 62143  1  0  0  0
 63 65  1  0  0  0
 63144  1  0  0  0
 63145  1  0  0  0
 63146  1  0  0  0
 64147  1  0  0  0
 65148  1  0  0  0
 68 85  1  0  0  0
 71 75  2  0  0  0
 71 76  1  0  0  0
 71149  1  0  0  0
 72 75  1  0  0  0
 72 86  2  0  0  0
 72150  1  0  0  0
 73 74  2  0  0  0
 73 77  1  0  0  0
 73 85  1  0  0  0
 74 78  1  0  0  0
 74 81  1  0  0  0
 75 89  1  0  0  0
 76 79  2  0  0  0
 76 88  1  0  0  0
 77 80  2  0  0  0
 77 88  1  0  0  0
 78 82  1  0  0  0
 78 87  2  0  0  0
 79 83  1  0  0  0
 79 86  1  0  0  0
 80 84  1  0  0  0
 80 87  1  0  0  0
 81151  1  0  0  0
 81152  1  0  0  0
 81153  1  0  0  0
 82154  1  0  0  0
 82155  1  0  0  0
 82156  1  0  0  0
 83157  1  0  0  0
 83158  1  0  0  0
 83159  1  0  0  0
 84160  1  0  0  0
 84161  1  0  0  0
 84162  1  0  0  0
 85163  1  0  0  0
 85164  1  0  0  0
 88165  1  0  0  0
 89166  1  0  0  0
M  ISO  4   1 100  68 101  85 101  89 100
M  END
> <chiral flag>
0

> <version>
0

> <s_m_source_file>
/data/baiqing/PycharmProjects/Reinvent-master-3.2/result/LINK_invent/BTK/process_docking_weight1_custom_sum_contain_oxygen_bond_distance_aromatic_linkinvent_7_9_3/rearranged_h_0162.sdf

> <i_m_source_file_index>
21

> <r_mmod_Potential_Energy-OPLS-2005>
208.193496704102

> <r_mmod_Stretch_Energy-OPLS-2005>
211.210800170898

> <r_mmod_Bend_Energy-OPLS-2005>
221.316177368164

> <r_mmod_Torsional_Energy-OPLS-2005>
304.090881347656

> <r_mmod_Improper_Torsional_Energy-OPLS-2005>
5.728196144104

> <r_mmod_Van_der_Waal_Energy-OPLS-2005>
181.997039794922

> <r_mmod_Electrostatic_Energy-OPLS-2005>
-600.887756347656

> <r_mmod_Solvation_Energy-OPLS-2005>
-238.459762573242

> <b_mmod_Minimization_Converged-OPLS-2005>
0

> <r_mmod_RMS_Derivative-OPLS-2005>
4.72454071044922

$$$$
21
                    3D
 Structure written by MMmdl.
169179  0  0  1  0            999 V2000
  -30.6949  -14.4352   20.5109 C   0  0  0  0  0  0
  -30.4251  -12.2504   19.4333 C   0  0  0  0  0  0
  -29.5016  -12.4404   18.2113 C   0  0  0  0  0  0
  -28.0163  -12.3353   18.6197 C   0  0  0  0  0  0
  -27.6596  -13.1878   19.8693 C   0  0  2  0  0  0
  -28.7040  -12.9673   20.9899 C   0  0  0  0  0  0
  -25.2601  -13.8139   20.5651 C   0  0  0  0  0  0
  -24.1823  -13.0443   20.9168 C   0  0  0  0  0  0
  -24.6355  -11.6902   20.8734 C   0  0  0  0  0  0
  -23.9022  -10.4296   21.0412 C   0  0  0  0  0  0
  -24.3586   -9.4222   21.9191 C   0  0  0  0  0  0
  -23.6267   -8.2262   22.0768 C   0  0  0  0  0  0
  -22.4254   -8.0281   21.3555 C   0  0  0  0  0  0
  -21.9884   -9.0244   20.4642 C   0  0  0  0  0  0
  -22.7204  -10.2129   20.3054 C   0  0  0  0  0  0
  -21.6857   -6.0720   22.5274 C   0  0  0  0  0  0
  -21.4003   -6.5626   23.8200 C   0  0  0  0  0  0
  -21.3657   -5.6777   24.9167 C   0  0  0  0  0  0
  -21.6046   -4.3035   24.7216 C   0  0  0  0  0  0
  -21.8828   -3.8128   23.4341 C   0  0  0  0  0  0
  -21.9206   -4.6950   22.3394 C   0  0  0  0  0  0
  -22.7854  -13.5257   21.1832 C   0  0  0  0  0  0
  -22.1680   -4.2130   21.0972 F   0  0  0  0  0  0
  -21.5640   -3.4520   25.7733 F   0  0  0  0  0  0
  -30.0368  -13.2508   20.4310 N   0  0  0  0  0  0
  -26.3000  -12.9260   20.3344 N   0  0  0  0  0  0
  -25.9271  -11.6443   20.5779 N   0  0  0  0  0  0
  -22.0479  -12.8243   22.0386 N   0  0  0  0  0  0
  -25.4373  -15.1848   20.4049 N   0  0  0  0  0  0
  -31.8661  -14.5845   20.1436 O   0  0  0  0  0  0
  -21.6639   -6.8868   21.4238 O   0  0  0  0  0  0
  -22.3550  -14.5561   20.6681 O   0  0  0  0  0  0
  -24.6068  -31.8722   23.2120 C   0  0  0  0  0  0
  -25.8992  -32.4845   23.8392 C   0  0  1  0  0  0
  -27.2350  -27.4845   20.0980 C   0  0  0  0  0  0
  -25.5890  -33.8645   24.2331 N   0  0  0  0  0  0
  -23.3895  -30.4936   21.5538 C   0  0  2  0  0  0
  -24.8369  -28.9671   20.1107 C   0  0  0  0  0  0
  -22.7359  -29.4649   22.5024 C   0  0  0  0  0  0
  -18.0252  -28.1337   22.8499 C   0  0  0  0  0  0
  -24.1483  -36.7310   23.2630 C   0  0  0  0  0  0
  -25.9071  -30.8586   21.3493 C   0  0  0  0  0  0
  -25.9885  -29.4916   20.7094 C   0  0  0  0  0  0
  -27.1889  -28.7574   20.7108 C   0  0  0  0  0  0
  -26.0726  -26.9689   19.4907 C   0  0  0  0  0  0
  -24.8707  -27.7005   19.4992 C   0  0  0  0  0  0
  -23.5926  -29.8234   20.1670 C   0  0  0  0  0  0
  -25.4104  -36.3126   24.0330 C   0  0  1  0  0  0
  -20.5833  -28.3607   23.1336 C   0  0  2  0  0  0
  -20.6737  -26.9361   22.5412 C   0  0  0  0  0  0
  -19.5731  -26.6365   21.5192 C   0  0  0  0  0  0
  -18.1909  -26.7902   22.1602 C   0  0  0  0  0  0
  -19.1501  -28.8789   23.2918 C   0  0  0  0  0  0
  -18.9440  -30.1399   23.8921 C   0  0  0  0  0  0
  -17.6458  -30.6583   24.0535 C   0  0  0  0  0  0
  -25.9031  -34.9495   23.5127 C   0  0  0  0  0  0
  -16.5341  -29.9081   23.6314 C   0  0  0  0  0  0
  -16.7245  -28.6470   23.0375 C   0  0  0  0  0  0
  -26.4444  -31.6588   25.0682 C   0  0  0  0  0  0
  -25.3728  -31.3631   26.1430 C   0  0  0  0  0  0
  -27.0282  -30.3066   24.5953 C   0  0  0  0  0  0
  -27.6015  -32.4275   25.7486 C   0  0  0  0  0  0
  -27.5583  -37.1810   24.8460 C   0  0  0  0  0  0
  -21.4090  -29.2987   22.3753 N   0  0  0  0  0  0
  -26.4283  -37.3815   23.9424 N   0  0  0  0  0  0
  -24.6533  -31.0862   22.0996 N   0  0  0  0  0  0
  -23.4174  -28.8209   23.3040 O   0  0  0  0  0  0
  -28.3663  -26.7131   20.0402 O   0  0  0  0  0  0
  -26.5603  -34.8959   22.4696 O   0  0  0  0  0  0
  -23.5286  -32.1439   23.7572 O   0  0  0  0  0  0
  -30.1870  -20.7274   21.2476 C   0  0  0  0  0  0
  -28.0017  -20.2600   20.2705 C   0  0  0  0  0  0
  -29.2763  -19.8041   20.6941 C   0  0  0  0  0  0
  -29.7733  -22.0618   21.2921 C   0  0  0  0  0  0
  -28.5325  -22.4202   20.8132 C   0  0  0  0  0  0
  -28.3653  -23.9108   20.8537 C   0  0  0  0  0  0
  -29.6294  -17.5820   21.8762 C   0  0  0  0  0  0
  -29.0256  -17.5996   19.4056 C   0  0  0  0  0  0
  -29.2884  -16.0863   21.7034 C   0  0  0  0  0  0
  -29.7242  -16.2493   19.2208 C   0  0  0  0  0  0
  -29.7145  -18.3582   20.5470 C   0  0  0  0  0  0
  -30.5502  -23.2648   21.7431 C   0  0  2  0  0  0
  -31.0909  -23.1250   23.1734 C   0  0  0  0  0  0
  -30.2116  -25.6233   21.0697 C   0  0  0  0  0  0
  -29.2976  -26.8525   21.1025 C   0  0  0  0  0  0
  -27.6228  -21.5596   20.3143 N   0  0  0  0  0  0
  -29.8616  -15.4946   20.4819 N   0  0  0  0  0  0
  -29.5740  -24.3881   21.6023 N   0  3  1  0  0  0
  -31.4723  -12.3329   19.1397 H   0  0  0  0  0  0
  -30.3117  -11.2489   19.8515 H   0  0  0  0  0  0
  -29.7280  -11.6829   17.4591 H   0  0  0  0  0  0
  -29.6984  -13.4047   17.7395 H   0  0  0  0  0  0
  -27.8122  -11.2842   18.8246 H   0  0  0  0  0  0
  -27.3763  -12.6073   17.7805 H   0  0  0  0  0  0
  -27.6944  -14.2298   19.5589 H   0  0  0  0  0  0
  -28.6670  -11.9355   21.3407 H   0  0  0  0  0  0
  -28.4824  -13.5769   21.8645 H   0  0  0  0  0  0
  -25.2740   -9.5711   22.4744 H   0  0  0  0  0  0
  -23.9976   -7.4677   22.7500 H   0  0  0  0  0  0
  -21.0819   -8.8747   19.8937 H   0  0  0  0  0  0
  -22.3665  -10.9658   19.6141 H   0  0  0  0  0  0
  -21.1975   -7.6131   23.9690 H   0  0  0  0  0  0
  -21.1478   -6.0510   25.9071 H   0  0  0  0  0  0
  -22.0609   -2.7586   23.2843 H   0  0  0  0  0  0
  -22.4064  -11.9863   22.4726 H   0  0  0  0  0  0
  -21.1112  -13.1290   22.2634 H   0  0  0  0  0  0
  -24.6733  -15.8438   20.5044 H   0  0  0  0  0  0
  -26.2988  -15.6168   20.0958 H   0  0  0  0  0  0
  -26.7077  -32.5568   23.1185 H   0  0  0  0  0  0
  -25.0093  -33.9799   25.0512 H   0  0  0  0  0  0
  -22.6748  -31.3081   21.4197 H   0  0  0  0  0  0
  -23.3783  -35.9598   23.3238 H   0  0  0  0  0  0
  -24.3594  -36.8986   22.2061 H   0  0  0  0  0  0
  -23.7195  -37.6475   23.6689 H   0  0  0  0  0  0
  -25.9918  -31.6181   20.5711 H   0  0  0  0  0  0
  -26.8051  -30.9325   21.9491 H   0  0  0  0  0  0
  -28.0658  -29.1878   21.1717 H   0  0  0  0  0  0
  -26.0985  -25.9991   19.0140 H   0  0  0  0  0  0
  -23.9857  -27.2904   19.0297 H   0  0  0  0  0  0
  -23.6823  -30.5959   19.4033 H   0  0  0  0  0  0
  -22.7207  -29.2310   19.8838 H   0  0  0  0  0  0
  -25.1270  -36.1984   25.0816 H   0  0  0  0  0  0
  -20.9913  -28.3164   24.1459 H   0  0  0  0  0  0
  -20.5642  -26.2206   23.3569 H   0  0  0  0  0  0
  -21.6611  -26.7426   22.1213 H   0  0  0  0  0  0
  -19.6901  -25.6284   21.1207 H   0  0  0  0  0  0
  -19.6684  -27.3160   20.6710 H   0  0  0  0  0  0
  -17.4180  -26.6625   21.4008 H   0  0  0  0  0  0
  -18.0328  -26.0036   22.8986 H   0  0  0  0  0  0
  -19.7911  -30.7176   24.2339 H   0  0  0  0  0  0
  -17.5020  -31.6278   24.5111 H   0  0  0  0  0  0
  -15.5340  -30.3005   23.7623 H   0  0  0  0  0  0
  -15.8626  -28.0786   22.7132 H   0  0  0  0  0  0
  -24.5896  -30.6998   25.7743 H   0  0  0  0  0  0
  -24.8925  -32.2765   26.4941 H   0  0  0  0  0  0
  -25.8093  -30.8747   27.0150 H   0  0  0  0  0  0
  -26.2795  -29.6831   24.1054 H   0  0  0  0  0  0
  -27.4177  -29.7273   25.4335 H   0  0  0  0  0  0
  -27.8563  -30.4448   23.8998 H   0  0  0  0  0  0
  -27.2636  -33.3562   26.2094 H   0  0  0  0  0  0
  -28.3852  -32.6837   25.0347 H   0  0  0  0  0  0
  -28.0647  -31.8359   26.5393 H   0  0  0  0  0  0
  -28.2557  -38.0160   24.7632 H   0  0  0  0  0  0
  -28.1135  -36.2710   24.6150 H   0  0  0  0  0  0
  -27.2300  -37.1278   25.8855 H   0  0  0  0  0  0
  -20.9241  -29.8734   21.6989 H   0  0  0  0  0  0
  -26.0163  -38.2862   24.1529 H   0  0  0  0  0  0
  -31.1672  -20.4267   21.5890 H   0  0  0  0  0  0
  -27.2725  -19.5789   19.8575 H   0  0  0  0  0  0
  -27.4342  -24.1953   21.3457 H   0  0  0  0  0  0
  -28.3477  -24.2665   19.8240 H   0  0  0  0  0  0
  -30.5667  -17.7008   22.4205 H   0  0  0  0  0  0
  -28.8640  -18.0182   22.5204 H   0  0  0  0  0  0
  -27.9642  -17.4473   19.6112 H   0  0  0  0  0  0
  -29.0873  -18.1649   18.4739 H   0  0  0  0  0  0
  -28.2048  -15.9741   21.6447 H   0  0  0  0  0  0
  -29.5965  -15.5401   22.5994 H   0  0  0  0  0  0
  -30.7104  -16.4282   18.7879 H   0  0  0  0  0  0
  -29.1809  -15.6467   18.4926 H   0  0  0  0  0  0
  -30.7701  -18.4011   20.2676 H   0  0  0  0  0  0
  -31.3800  -23.3945   21.0457 H   0  0  0  0  0  0
  -30.2966  -22.9477   23.8971 H   0  0  0  0  0  0
  -31.6354  -24.0179   23.4791 H   0  0  0  0  0  0
  -31.7878  -22.2899   23.2367 H   0  0  0  0  0  0
  -31.0881  -25.8409   21.6806 H   0  0  0  0  0  0
  -30.5734  -25.4549   20.0545 H   0  0  0  0  0  0
  -29.8899  -27.7548   20.9500 H   0  0  0  0  0  0
  -28.8043  -26.9363   22.0736 H   0  0  0  0  0  0
  -29.2391  -24.5762   22.5354 H   0  0  0  0  0  0
  1 25  1  0  0  0
  1 30  2  0  0  0
  1 87  1  0  0  0
  2  3  1  0  0  0
  2 25  1  0  0  0
  2 89  1  0  0  0
  2 90  1  0  0  0
  3  4  1  0  0  0
  3 91  1  0  0  0
  3 92  1  0  0  0
  4  5  1  0  0  0
  4 93  1  0  0  0
  4 94  1  0  0  0
  5  6  1  0  0  0
  5 26  1  0  0  0
  5 95  1  0  0  0
  6 25  1  0  0  0
  6 96  1  0  0  0
  6 97  1  0  0  0
  7  8  2  0  0  0
  7 26  1  0  0  0
  7 29  1  0  0  0
  8  9  1  0  0  0
  8 22  1  0  0  0
  9 10  1  0  0  0
  9 27  2  0  0  0
 10 11  2  0  0  0
 10 15  1  0  0  0
 11 12  1  0  0  0
 11 98  1  0  0  0
 12 13  2  0  0  0
 12 99  1  0  0  0
 13 14  1  0  0  0
 13 31  1  0  0  0
 14 15  2  0  0  0
 14100  1  0  0  0
 15101  1  0  0  0
 16 17  2  0  0  0
 16 21  1  0  0  0
 16 31  1  0  0  0
 17 18  1  0  0  0
 17102  1  0  0  0
 18 19  2  0  0  0
 18103  1  0  0  0
 19 20  1  0  0  0
 19 24  1  0  0  0
 20 21  2  0  0  0
 20104  1  0  0  0
 21 23  1  0  0  0
 22 28  1  0  0  0
 22 32  2  0  0  0
 26 27  1  0  0  0
 28105  1  0  0  0
 28106  1  0  0  0
 29107  1  0  0  0
 29108  1  0  0  0
 33 34  1  0  0  0
 33 66  1  0  0  0
 33 70  2  0  0  0
 34 36  1  0  0  0
 34 59  1  0  0  0
 34109  1  0  0  0
 35 44  2  0  0  0
 35 45  1  0  0  0
 35 68  1  0  0  0
 36 56  1  0  0  0
 36110  1  0  0  0
 37 39  1  0  0  0
 37 47  1  0  0  0
 37 66  1  0  0  0
 37111  1  0  0  0
 38 43  2  0  0  0
 38 46  1  0  0  0
 38 47  1  0  0  0
 39 64  1  0  0  0
 39 67  2  0  0  0
 40 52  1  0  0  0
 40 53  2  0  0  0
 40 58  1  0  0  0
 41112  1  0  0  0
 41113  1  0  0  0
 41114  1  0  0  0
 41 48  1  0  0  0
 42 43  1  0  0  0
 42 66  1  0  0  0
 42115  1  0  0  0
 42116  1  0  0  0
 43 44  1  0  0  0
 44117  1  0  0  0
 45 46  2  0  0  0
 45118  1  0  0  0
 46119  1  0  0  0
 47120  1  0  0  0
 47121  1  0  0  0
 48 56  1  0  0  0
 48 65  1  0  0  0
 48122  1  0  0  0
 49 50  1  0  0  0
 49 53  1  0  0  0
 49 64  1  0  0  0
 49123  1  0  0  0
 50 51  1  0  0  0
 50124  1  0  0  0
 50125  1  0  0  0
 51 52  1  0  0  0
 51126  1  0  0  0
 51127  1  0  0  0
 52128  1  0  0  0
 52129  1  0  0  0
 53 54  1  0  0  0
 54 55  2  0  0  0
 54130  1  0  0  0
 55 57  1  0  0  0
 55131  1  0  0  0
 56 69  2  0  0  0
 57 58  2  0  0  0
 57132  1  0  0  0
 58133  1  0  0  0
 59 60  1  0  0  0
 59 61  1  0  0  0
 59 62  1  0  0  0
 60134  1  0  0  0
 60135  1  0  0  0
 60136  1  0  0  0
 61137  1  0  0  0
 61138  1  0  0  0
 61139  1  0  0  0
 62140  1  0  0  0
 62141  1  0  0  0
 62142  1  0  0  0
 63 65  1  0  0  0
 63143  1  0  0  0
 63144  1  0  0  0
 63145  1  0  0  0
 64146  1  0  0  0
 65147  1  0  0  0
 68 85  1  0  0  0
 71 73  2  0  0  0
 71 74  1  0  0  0
 71148  1  0  0  0
 72 73  1  0  0  0
 72 86  2  0  0  0
 72149  1  0  0  0
 73 81  1  0  0  0
 74 75  2  0  0  0
 74 82  1  0  0  0
 75 76  1  0  0  0
 75 86  1  0  0  0
 76 88  1  0  0  0
 76150  1  0  0  0
 76151  1  0  0  0
 77 79  1  0  0  0
 77 81  1  0  0  0
 77152  1  0  0  0
 77153  1  0  0  0
 78 80  1  0  0  0
 78 81  1  0  0  0
 78154  1  0  0  0
 78155  1  0  0  0
 79 87  1  0  0  0
 79156  1  0  0  0
 79157  1  0  0  0
 80 87  1  0  0  0
 80158  1  0  0  0
 80159  1  0  0  0
 81160  1  0  0  0
 82 83  1  0  0  0
 82 88  1  0  0  0
 82161  1  0  0  0
 83162  1  0  0  0
 83163  1  0  0  0
 83164  1  0  0  0
 84 85  1  0  0  0
 84165  1  0  0  0
 84166  1  0  0  0
 84 88  1  0  0  0
 85167  1  0  0  0
 85168  1  0  0  0
 88169  1  0  0  0
M  CHG  1  88   1
M  ISO  4   1 100  68 101  85 101  87 100
M  END
> <chiral flag>
0

> <version>
0

> <s_m_source_file>
/data/baiqing/PycharmProjects/Reinvent-master-3.2/result/LINK_invent/BTK/process_docking_weight1_custom_sum_contain_oxygen_bond_distance_aromatic_linkinvent_7_9_3/rearranged_h_0162.sdf

> <i_m_source_file_index>
22

> <r_mmod_Potential_Energy-OPLS-2005>
-25.9234275817871

> <r_mmod_Stretch_Energy-OPLS-2005>
36.0534934997559

> <r_mmod_Bend_Energy-OPLS-2005>
138.858901977539

> <r_mmod_Torsional_Energy-OPLS-2005>
368.784332275391

> <r_mmod_Improper_Torsional_Energy-OPLS-2005>
18.0920104980469

> <r_mmod_Van_der_Waal_Energy-OPLS-2005>
161.357772827148

> <r_mmod_Electrostatic_Energy-OPLS-2005>
-345.362823486328

> <r_mmod_Solvation_Energy-OPLS-2005>
-416.719909667969

> <b_mmod_Minimization_Converged-OPLS-2005>
0

> <r_mmod_RMS_Derivative-OPLS-2005>
2.8103232383728

$$$$
22
                    3D
 Structure written by MMmdl.
172181  0  0  1  0            999 V2000
  -30.7283  -14.4264   20.5639 C   0  0  0  0  0  0
  -30.4080  -12.2719   19.4224 C   0  0  0  0  0  0
  -29.4890  -12.4913   18.2030 C   0  0  0  0  0  0
  -28.0087  -12.3651   18.6138 C   0  0  0  0  0  0
  -27.6588  -13.2059   19.8717 C   0  0  2  0  0  0
  -28.6984  -12.9873   20.9927 C   0  0  0  0  0  0
  -25.2579  -13.8174   20.5680 C   0  0  0  0  0  0
  -24.1826  -13.0443   20.9168 C   0  0  0  0  0  0
  -24.6389  -11.6919   20.8738 C   0  0  0  0  0  0
  -23.9068  -10.4298   21.0412 C   0  0  0  0  0  0
  -24.3621   -9.4215   21.9189 C   0  0  0  0  0  0
  -23.6294   -8.2256   22.0757 C   0  0  0  0  0  0
  -22.4277   -8.0291   21.3551 C   0  0  0  0  0  0
  -21.9921   -9.0260   20.4645 C   0  0  0  0  0  0
  -22.7249  -10.2142   20.3054 C   0  0  0  0  0  0
  -21.6851   -6.0742   22.5283 C   0  0  0  0  0  0
  -21.4010   -6.5646   23.8216 C   0  0  0  0  0  0
  -21.3659   -5.6801   24.9181 C   0  0  0  0  0  0
  -21.6041   -4.3061   24.7228 C   0  0  0  0  0  0
  -21.8823   -3.8154   23.4348 C   0  0  0  0  0  0
  -21.9185   -4.6969   22.3403 C   0  0  0  0  0  0
  -22.7848  -13.5236   21.1837 C   0  0  0  0  0  0
  -22.1653   -4.2152   21.0979 F   0  0  0  0  0  0
  -21.5632   -3.4545   25.7743 F   0  0  0  0  0  0
  -30.0299  -13.2675   20.4358 N   0  0  0  0  0  0
  -26.3006  -12.9339   20.3362 N   0  0  0  0  0  0
  -25.9307  -11.6509   20.5764 N   0  0  0  0  0  0
  -22.0490  -12.8217   22.0383 N   0  0  0  0  0  0
  -25.4335  -15.1876   20.4120 N   0  0  0  0  0  0
  -31.8767  -14.5620   20.1253 O   0  0  0  0  0  0
  -21.6639   -6.8890   21.4250 O   0  0  0  0  0  0
  -22.3534  -14.5540   20.6688 O   0  0  0  0  0  0
  -24.6104  -31.8723   23.2144 C   0  0  0  0  0  0
  -25.9006  -32.4852   23.8433 C   0  0  1  0  0  0
  -27.2292  -27.4586   20.1067 C   0  0  0  0  0  0
  -25.5879  -33.8653   24.2369 N   0  0  0  0  0  0
  -23.3986  -30.4943   21.5562 C   0  0  2  0  0  0
  -24.8469  -28.9611   20.1205 C   0  0  0  0  0  0
  -22.7389  -29.4678   22.5032 C   0  0  0  0  0  0
  -18.0267  -28.1367   22.8521 C   0  0  0  0  0  0
  -24.1484  -36.7331   23.2647 C   0  0  0  0  0  0
  -25.9243  -30.8429   21.3654 C   0  0  0  0  0  0
  -26.0041  -29.4755   20.7223 C   0  0  0  0  0  0
  -27.1999  -28.7268   20.7241 C   0  0  0  0  0  0
  -26.0672  -26.9577   19.4857 C   0  0  0  0  0  0
  -24.8702  -27.6982   19.5032 C   0  0  0  0  0  0
  -23.6074  -29.8260   20.1714 C   0  0  0  0  0  0
  -25.4102  -36.3143   24.0361 C   0  0  1  0  0  0
  -20.5855  -28.3662   23.1337 C   0  0  2  0  0  0
  -20.6768  -26.9411   22.5424 C   0  0  0  0  0  0
  -19.5743  -26.6403   21.5222 C   0  0  0  0  0  0
  -18.1910  -26.7922   22.1633 C   0  0  0  0  0  0
  -19.1513  -28.8825   23.2928 C   0  0  0  0  0  0
  -18.9440  -30.1429   23.8947 C   0  0  0  0  0  0
  -17.6446  -30.6594   24.0558 C   0  0  0  0  0  0
  -25.9029  -34.9496   23.5162 C   0  0  0  0  0  0
  -16.5334  -29.9105   23.6319 C   0  0  0  0  0  0
  -16.7248  -28.6502   23.0382 C   0  0  0  0  0  0
  -26.4443  -31.6616   25.0741 C   0  0  0  0  0  0
  -25.3707  -31.3623   26.1465 C   0  0  0  0  0  0
  -27.0300  -30.3094   24.6062 C   0  0  0  0  0  0
  -27.6049  -32.4298   25.7483 C   0  0  0  0  0  0
  -27.5581  -37.1824   24.8468 C   0  0  0  0  0  0
  -21.4118  -29.3022   22.3745 N   0  0  0  0  0  0
  -26.4299  -37.3815   23.9409 N   0  0  0  0  0  0
  -24.6627  -31.0832   22.1045 N   0  0  0  0  0  0
  -23.4166  -28.8233   23.3072 O   0  0  0  0  0  0
  -28.3712  -26.7007   20.0727 O   0  0  0  0  0  0
  -26.5602  -34.8937   22.4733 O   0  0  0  0  0  0
  -23.5312  -32.1473   23.7557 O   0  0  0  0  0  0
  -27.4000  -21.3862   22.3534 C   0  0  0  0  0  0
  -26.4633  -20.5653   21.6533 C   0  0  0  0  0  0
  -28.5187  -20.5897   22.4370 C   0  0  0  0  0  0
  -29.0397  -17.7251   20.0829 C   0  0  0  0  0  0
  -28.8827  -17.0853   22.4804 C   0  0  0  0  0  0
  -30.1024  -16.6332   19.8763 C   0  0  0  0  0  0
  -29.9412  -15.9796   22.2523 C   0  0  0  0  0  0
  -29.1222  -18.2615   21.5193 C   0  0  0  0  0  0
  -25.0358  -20.8715   21.2986 C   0  0  0  0  0  0
  -29.8460  -20.8202   23.0884 C   0  0  0  0  0  0
  -27.0254  -22.7675   24.4324 C   0  0  0  0  0  0
  -27.6195  -24.8210   21.5070 C   0  0  0  0  0  0
  -28.6384  -25.9631   21.2682 C   0  0  0  0  0  0
  -27.1277  -22.7828   22.8995 C   0  0  1  0  0  0
  -26.9706  -19.3933   21.3078 N   0  0  0  0  0  0
  -28.2421  -19.4099   21.7601 N   0  0  0  0  0  0
  -29.9907  -15.5256   20.8494 N   0  0  0  0  0  0
  -28.1272  -23.7803   22.4423 N   0  3  0  0  0  0
  -31.4560  -12.3432   19.1282 H   0  0  0  0  0  0
  -30.2794  -11.2648   19.8221 H   0  0  0  0  0  0
  -29.7217  -11.7684   17.4198 H   0  0  0  0  0  0
  -29.6695  -13.4784   17.7732 H   0  0  0  0  0  0
  -27.8076  -11.3094   18.8039 H   0  0  0  0  0  0
  -27.3625  -12.6479   17.7823 H   0  0  0  0  0  0
  -27.7054  -14.2535   19.5744 H   0  0  0  0  0  0
  -28.6609  -11.9575   21.3506 H   0  0  0  0  0  0
  -28.4662  -13.6098   21.8552 H   0  0  0  0  0  0
  -25.2765   -9.5691   22.4763 H   0  0  0  0  0  0
  -23.9997   -7.4651   22.7485 H   0  0  0  0  0  0
  -21.0856   -8.8792   19.8941 H   0  0  0  0  0  0
  -22.3721  -10.9687   19.6156 H   0  0  0  0  0  0
  -21.2012   -7.6156   23.9722 H   0  0  0  0  0  0
  -21.1469   -6.0530   25.9085 H   0  0  0  0  0  0
  -22.0599   -2.7614   23.2852 H   0  0  0  0  0  0
  -22.4104  -11.9855   22.4732 H   0  0  0  0  0  0
  -21.1108  -13.1249   22.2591 H   0  0  0  0  0  0
  -24.6817  -15.8540   20.5503 H   0  0  0  0  0  0
  -26.3084  -15.6287   20.1557 H   0  0  0  0  0  0
  -26.7081  -32.5597   23.1216 H   0  0  0  0  0  0
  -24.9957  -33.9815   25.0463 H   0  0  0  0  0  0
  -22.6874  -31.3117   21.4192 H   0  0  0  0  0  0
  -23.3756  -35.9655   23.3310 H   0  0  0  0  0  0
  -24.3561  -36.8946   22.2056 H   0  0  0  0  0  0
  -23.7223  -37.6537   23.6654 H   0  0  0  0  0  0
  -26.0221  -31.6020   20.5876 H   0  0  0  0  0  0
  -26.8162  -30.9096   21.9750 H   0  0  0  0  0  0
  -28.0912  -29.1181   21.1943 H   0  0  0  0  0  0
  -26.0901  -25.9915   18.9998 H   0  0  0  0  0  0
  -23.9802  -27.2964   19.0396 H   0  0  0  0  0  0
  -23.7124  -30.6029   19.4130 H   0  0  0  0  0  0
  -22.7312  -29.2456   19.8794 H   0  0  0  0  0  0
  -25.1267  -36.2029   25.0857 H   0  0  0  0  0  0
  -20.9920  -28.3246   24.1470 H   0  0  0  0  0  0
  -20.5702  -26.2266   23.3604 H   0  0  0  0  0  0
  -21.6636  -26.7495   22.1189 H   0  0  0  0  0  0
  -19.6922  -25.6323   21.1235 H   0  0  0  0  0  0
  -19.6697  -27.3222   20.6751 H   0  0  0  0  0  0
  -17.4190  -26.6686   21.4019 H   0  0  0  0  0  0
  -18.0298  -26.0044   22.8999 H   0  0  0  0  0  0
  -19.7916  -30.7213   24.2370 H   0  0  0  0  0  0
  -17.5017  -31.6284   24.5143 H   0  0  0  0  0  0
  -15.5345  -30.3032   23.7631 H   0  0  0  0  0  0
  -15.8635  -28.0828   22.7127 H   0  0  0  0  0  0
  -24.5930  -30.6949   25.7737 H   0  0  0  0  0  0
  -24.8817  -32.2710   26.4972 H   0  0  0  0  0  0
  -25.8054  -30.8739   27.0190 H   0  0  0  0  0  0
  -26.2846  -29.6826   24.1154 H   0  0  0  0  0  0
  -27.4157  -29.7343   25.4488 H   0  0  0  0  0  0
  -27.8623  -30.4468   23.9151 H   0  0  0  0  0  0
  -27.2746  -33.3624   26.2071 H   0  0  0  0  0  0
  -28.3846  -32.6808   25.0273 H   0  0  0  0  0  0
  -28.0727  -31.8390   26.5372 H   0  0  0  0  0  0
  -28.2602  -38.0119   24.7535 H   0  0  0  0  0  0
  -28.1084  -36.2655   24.6290 H   0  0  0  0  0  0
  -27.2293  -37.1461   25.8869 H   0  0  0  0  0  0
  -20.9287  -29.8721   21.6942 H   0  0  0  0  0  0
  -26.0210  -38.2911   24.1385 H   0  0  0  0  0  0
  -28.0476  -17.3202   19.8775 H   0  0  0  0  0  0
  -29.1977  -18.5334   19.3672 H   0  0  0  0  0  0
  -28.9238  -17.4298   23.5147 H   0  0  0  0  0  0
  -27.8821  -16.6772   22.3292 H   0  0  0  0  0  0
  -31.0971  -17.0792   19.9497 H   0  0  0  0  0  0
  -30.0131  -16.2447   18.8591 H   0  0  0  0  0  0
  -29.7412  -15.1418   22.9213 H   0  0  0  0  0  0
  -30.9278  -16.3561   22.5319 H   0  0  0  0  0  0
  -30.1438  -18.6122   21.6665 H   0  0  0  0  0  0
  -24.9854  -21.6077   20.4961 H   0  0  0  0  0  0
  -24.4925  -21.2686   22.1565 H   0  0  0  0  0  0
  -24.5026  -19.9825   20.9622 H   0  0  0  0  0  0
  -29.8455  -21.7114   23.7134 H   0  0  0  0  0  0
  -30.6291  -20.9385   22.3389 H   0  0  0  0  0  0
  -30.1152  -19.9764   23.7250 H   0  0  0  0  0  0
  -26.2464  -22.0776   24.7564 H   0  0  0  0  0  0
  -26.7655  -23.7524   24.8238 H   0  0  0  0  0  0
  -27.9547  -22.4522   24.9064 H   0  0  0  0  0  0
  -27.3708  -24.3411   20.5595 H   0  0  0  0  0  0
  -26.6948  -25.2532   21.8952 H   0  0  0  0  0  0
  -29.6409  -25.5494   21.1590 H   0  0  0  0  0  0
  -28.6773  -26.6318   22.1296 H   0  0  0  0  0  0
  -26.1520  -23.1167   22.5431 H   0  0  0  0  0  0
  -28.4876  -24.2406   23.2648 H   0  0  0  0  0  0
  -28.8939  -23.2920   22.0068 H   0  0  0  0  0  0
  1 25  1  0  0  0
  1 30  2  0  0  0
  1 87  1  0  0  0
  2  3  1  0  0  0
  2 25  1  0  0  0
  2 89  1  0  0  0
  2 90  1  0  0  0
  3  4  1  0  0  0
  3 91  1  0  0  0
  3 92  1  0  0  0
  4  5  1  0  0  0
  4 93  1  0  0  0
  4 94  1  0  0  0
  5  6  1  0  0  0
  5 26  1  0  0  0
  5 95  1  0  0  0
  6 25  1  0  0  0
  6 96  1  0  0  0
  6 97  1  0  0  0
  7  8  2  0  0  0
  7 26  1  0  0  0
  7 29  1  0  0  0
  8  9  1  0  0  0
  8 22  1  0  0  0
  9 10  1  0  0  0
  9 27  2  0  0  0
 10 11  2  0  0  0
 10 15  1  0  0  0
 11 12  1  0  0  0
 11 98  1  0  0  0
 12 13  2  0  0  0
 12 99  1  0  0  0
 13 14  1  0  0  0
 13 31  1  0  0  0
 14 15  2  0  0  0
 14100  1  0  0  0
 15101  1  0  0  0
 16 17  2  0  0  0
 16 21  1  0  0  0
 16 31  1  0  0  0
 17 18  1  0  0  0
 17102  1  0  0  0
 18 19  2  0  0  0
 18103  1  0  0  0
 19 20  1  0  0  0
 19 24  1  0  0  0
 20 21  2  0  0  0
 20104  1  0  0  0
 21 23  1  0  0  0
 22 28  1  0  0  0
 22 32  2  0  0  0
 26 27  1  0  0  0
 28105  1  0  0  0
 28106  1  0  0  0
 29107  1  0  0  0
 29108  1  0  0  0
 33 34  1  0  0  0
 33 66  1  0  0  0
 33 70  2  0  0  0
 34 36  1  0  0  0
 34 59  1  0  0  0
 34109  1  0  0  0
 35 44  2  0  0  0
 35 45  1  0  0  0
 35 68  1  0  0  0
 36 56  1  0  0  0
 36110  1  0  0  0
 37 39  1  0  0  0
 37 47  1  0  0  0
 37 66  1  0  0  0
 37111  1  0  0  0
 38 43  2  0  0  0
 38 46  1  0  0  0
 38 47  1  0  0  0
 39 64  1  0  0  0
 39 67  2  0  0  0
 40 52  1  0  0  0
 40 53  2  0  0  0
 40 58  1  0  0  0
 41112  1  0  0  0
 41113  1  0  0  0
 41114  1  0  0  0
 41 48  1  0  0  0
 42 43  1  0  0  0
 42 66  1  0  0  0
 42115  1  0  0  0
 42116  1  0  0  0
 43 44  1  0  0  0
 44117  1  0  0  0
 45 46  2  0  0  0
 45118  1  0  0  0
 46119  1  0  0  0
 47120  1  0  0  0
 47121  1  0  0  0
 48 56  1  0  0  0
 48 65  1  0  0  0
 48122  1  0  0  0
 49 50  1  0  0  0
 49 53  1  0  0  0
 49 64  1  0  0  0
 49123  1  0  0  0
 50 51  1  0  0  0
 50124  1  0  0  0
 50125  1  0  0  0
 51 52  1  0  0  0
 51126  1  0  0  0
 51127  1  0  0  0
 52128  1  0  0  0
 52129  1  0  0  0
 53 54  1  0  0  0
 54 55  2  0  0  0
 54130  1  0  0  0
 55 57  1  0  0  0
 55131  1  0  0  0
 56 69  2  0  0  0
 57 58  2  0  0  0
 57132  1  0  0  0
 58133  1  0  0  0
 59 60  1  0  0  0
 59 61  1  0  0  0
 59 62  1  0  0  0
 60134  1  0  0  0
 60135  1  0  0  0
 60136  1  0  0  0
 61137  1  0  0  0
 61138  1  0  0  0
 61139  1  0  0  0
 62140  1  0  0  0
 62141  1  0  0  0
 62142  1  0  0  0
 63 65  1  0  0  0
 63143  1  0  0  0
 63144  1  0  0  0
 63145  1  0  0  0
 64146  1  0  0  0
 65147  1  0  0  0
 68 83  1  0  0  0
 71 72  1  0  0  0
 71 73  2  0  0  0
 71 84  1  0  0  0
 72 79  1  0  0  0
 72 85  2  0  0  0
 73 80  1  0  0  0
 73 86  1  0  0  0
 74 76  1  0  0  0
 74 78  1  0  0  0
 74148  1  0  0  0
 74149  1  0  0  0
 75 77  1  0  0  0
 75 78  1  0  0  0
 75150  1  0  0  0
 75151  1  0  0  0
 76 87  1  0  0  0
 76152  1  0  0  0
 76153  1  0  0  0
 77 87  1  0  0  0
 77154  1  0  0  0
 77155  1  0  0  0
 78 86  1  0  0  0
 78156  1  0  0  0
 79157  1  0  0  0
 79158  1  0  0  0
 79159  1  0  0  0
 80160  1  0  0  0
 80161  1  0  0  0
 80162  1  0  0  0
 81163  1  0  0  0
 81164  1  0  0  0
 81165  1  0  0  0
 81 84  1  0  0  0
 82 83  1  0  0  0
 82 88  1  0  0  0
 82166  1  0  0  0
 82167  1  0  0  0
 83168  1  0  0  0
 83169  1  0  0  0
 84 88  1  0  0  0
 84170  1  0  0  0
 85 86  1  0  0  0
 88171  1  0  0  0
 88172  1  0  0  0
M  CHG  1  88   1
M  ISO  4   1 100  68 101  83 101  87 100
M  END
> <chiral flag>
0

> <version>
0

> <s_m_source_file>
/data/baiqing/PycharmProjects/Reinvent-master-3.2/result/LINK_invent/BTK/process_docking_weight1_custom_sum_contain_oxygen_bond_distance_aromatic_linkinvent_7_9_3/rearranged_h_0162.sdf

> <i_m_source_file_index>
23

> <r_mmod_Potential_Energy-OPLS-2005>
-24.3011875152588

> <r_mmod_Stretch_Energy-OPLS-2005>
35.2279014587402

> <r_mmod_Bend_Energy-OPLS-2005>
99.1182327270508

> <r_mmod_Torsional_Energy-OPLS-2005>
361.257995605469

> <r_mmod_Improper_Torsional_Energy-OPLS-2005>
13.2807168960571

> <r_mmod_Van_der_Waal_Energy-OPLS-2005>
120.519248962402

> <r_mmod_Electrostatic_Energy-OPLS-2005>
-231.098785400391

> <r_mmod_Solvation_Energy-OPLS-2005>
-434.194030761719

> <b_mmod_Minimization_Converged-OPLS-2005>
0

> <r_mmod_RMS_Derivative-OPLS-2005>
2.39655518531799

$$$$
23
                    3D
 Structure written by MMmdl.
183193  0  0  1  0            999 V2000
  -30.7542  -14.4681   20.6109 C   0  0  0  0  0  0
  -30.4073  -12.3161   19.4420 C   0  0  0  0  0  0
  -29.4941  -12.5069   18.2147 C   0  0  0  0  0  0
  -28.0156  -12.3651   18.6204 C   0  0  0  0  0  0
  -27.6566  -13.2156   19.8669 C   0  0  2  0  0  0
  -28.6907  -13.0293   20.9960 C   0  0  0  0  0  0
  -25.2575  -13.8186   20.5683 C   0  0  0  0  0  0
  -24.1835  -13.0451   20.9172 C   0  0  0  0  0  0
  -24.6398  -11.6915   20.8724 C   0  0  0  0  0  0
  -23.9069  -10.4297   21.0403 C   0  0  0  0  0  0
  -24.3619   -9.4214   21.9190 C   0  0  0  0  0  0
  -23.6296   -8.2247   22.0760 C   0  0  0  0  0  0
  -22.4282   -8.0282   21.3547 C   0  0  0  0  0  0
  -21.9912   -9.0255   20.4650 C   0  0  0  0  0  0
  -22.7238  -10.2136   20.3059 C   0  0  0  0  0  0
  -21.6854   -6.0737   22.5278 C   0  0  0  0  0  0
  -21.4013   -6.5640   23.8211 C   0  0  0  0  0  0
  -21.3659   -5.6794   24.9174 C   0  0  0  0  0  0
  -21.6042   -4.3056   24.7222 C   0  0  0  0  0  0
  -21.8821   -3.8147   23.4344 C   0  0  0  0  0  0
  -21.9194   -4.6964   22.3401 C   0  0  0  0  0  0
  -22.7857  -13.5244   21.1838 C   0  0  0  0  0  0
  -22.1664   -4.2149   21.0979 F   0  0  0  0  0  0
  -21.5629   -3.4540   25.7736 F   0  0  0  0  0  0
  -30.0262  -13.3230   20.4528 N   0  0  0  0  0  0
  -26.3005  -12.9366   20.3324 N   0  0  0  0  0  0
  -25.9327  -11.6518   20.5745 N   0  0  0  0  0  0
  -22.0504  -12.8230   22.0394 N   0  0  0  0  0  0
  -25.4304  -15.1902   20.4117 N   0  0  0  0  0  0
  -31.8574  -14.6001   20.0683 O   0  0  0  0  0  0
  -21.6644   -6.8879   21.4242 O   0  0  0  0  0  0
  -22.3539  -14.5552   20.6696 O   0  0  0  0  0  0
  -24.6178  -31.8677   23.2117 C   0  0  0  0  0  0
  -25.9064  -32.4822   23.8422 C   0  0  1  0  0  0
  -27.2209  -27.3909   20.1062 C   0  0  0  0  0  0
  -25.5922  -33.8626   24.2343 N   0  0  0  0  0  0
  -23.4055  -30.4946   21.5527 C   0  0  2  0  0  0
  -24.8465  -28.9560   20.1233 C   0  0  0  0  0  0
  -22.7433  -29.4666   22.4992 C   0  0  0  0  0  0
  -18.0276  -28.1384   22.8487 C   0  0  0  0  0  0
  -24.1482  -36.7307   23.2644 C   0  0  0  0  0  0
  -25.9398  -30.8163   21.3741 C   0  0  0  0  0  0
  -26.0085  -29.4453   20.7301 C   0  0  0  0  0  0
  -27.1948  -28.6689   20.7220 C   0  0  0  0  0  0
  -26.0446  -26.9521   19.4575 C   0  0  0  0  0  0
  -24.8605  -27.7071   19.4873 C   0  0  0  0  0  0
  -23.6157  -29.8324   20.1666 C   0  0  0  0  0  0
  -25.4099  -36.3106   24.0338 C   0  0  1  0  0  0
  -20.5869  -28.3672   23.1306 C   0  0  2  0  0  0
  -20.6768  -26.9408   22.5407 C   0  0  0  0  0  0
  -19.5741  -26.6382   21.5215 C   0  0  0  0  0  0
  -18.1919  -26.7933   22.1622 C   0  0  0  0  0  0
  -19.1529  -28.8846   23.2894 C   0  0  0  0  0  0
  -18.9461  -30.1451   23.8904 C   0  0  0  0  0  0
  -17.6463  -30.6591   24.0568 C   0  0  0  0  0  0
  -25.9030  -34.9474   23.5132 C   0  0  0  0  0  0
  -16.5351  -29.9094   23.6337 C   0  0  0  0  0  0
  -16.7267  -28.6513   23.0349 C   0  0  0  0  0  0
  -26.4474  -31.6612   25.0764 C   0  0  0  0  0  0
  -25.3739  -31.3712   26.1519 C   0  0  0  0  0  0
  -27.0328  -30.3066   24.6144 C   0  0  0  0  0  0
  -27.6044  -32.4342   25.7524 C   0  0  0  0  0  0
  -27.5567  -37.1809   24.8471 C   0  0  0  0  0  0
  -21.4158  -29.3047   22.3727 N   0  0  0  0  0  0
  -26.4283  -37.3790   23.9415 N   0  0  0  0  0  0
  -24.6730  -31.0756   22.1036 N   0  0  0  0  0  0
  -23.4194  -28.8204   23.3041 O   0  0  0  0  0  0
  -28.4140  -26.6831   20.0540 O   0  0  0  0  0  0
  -26.5587  -34.8917   22.4685 O   0  0  0  0  0  0
  -23.5362  -32.1453   23.7474 O   0  0  0  0  0  0
  -28.5851  -20.4823   25.2212 C   0  0  0  0  0  0
  -27.8521  -21.0024   24.1226 C   0  0  0  0  0  0
  -29.4081  -19.5109   24.7374 C   0  0  0  0  0  0
  -28.3656  -20.4478   22.9698 C   0  0  0  0  0  0
  -28.9377  -23.3530   21.9613 C   0  0  0  0  0  0
  -27.9470  -22.7815   19.7569 C   0  0  0  0  0  0
  -28.5890  -24.8573   21.7650 C   0  0  0  0  0  0
  -27.5934  -24.2666   19.5237 C   0  0  0  0  0  0
  -29.6923  -18.1006   21.0887 C   0  0  0  0  0  0
  -29.2463  -16.8321   23.1386 C   0  0  0  0  0  0
  -30.4710  -16.8702   20.5472 C   0  0  0  0  0  0
  -30.1143  -15.6535   22.6418 C   0  0  0  0  0  0
  -27.9120  -22.4170   21.2620 C   0  0  1  0  0  0
  -29.7806  -18.1940   22.6229 C   0  0  0  0  0  0
  -28.5318  -25.2449   20.2725 C   0  0  1  0  0  0
  -28.4780  -20.9086   26.6673 C   0  0  0  0  0  0
  -26.7374  -22.0187   24.2523 C   0  0  0  0  0  0
  -30.3853  -18.6959   25.5427 C   0  0  0  0  0  0
  -26.7753  -20.1262   21.0566 C   0  0  0  0  0  0
  -28.0422  -20.8632   21.5376 C   0  0  2  0  0  0
  -29.1767  -19.3496   23.3646 N   0  0  0  0  0  0
  -30.1506  -15.5584   21.1715 N   0  0  0  0  0  0
  -31.4557  -12.3814   19.1449 H   0  0  0  0  0  0
  -30.2860  -11.3126   19.8531 H   0  0  0  0  0  0
  -29.7407  -11.7758   17.4437 H   0  0  0  0  0  0
  -29.6655  -13.4893   17.7719 H   0  0  0  0  0  0
  -27.8297  -11.3101   18.8256 H   0  0  0  0  0  0
  -27.3676  -12.6313   17.7847 H   0  0  0  0  0  0
  -27.6939  -14.2606   19.5581 H   0  0  0  0  0  0
  -28.6672  -12.0073   21.3766 H   0  0  0  0  0  0
  -28.4162  -13.6638   21.8348 H   0  0  0  0  0  0
  -25.2768   -9.5690   22.4761 H   0  0  0  0  0  0
  -24.0003   -7.4640   22.7482 H   0  0  0  0  0  0
  -21.0843   -8.8773   19.8954 H   0  0  0  0  0  0
  -22.3704  -10.9675   19.6159 H   0  0  0  0  0  0
  -21.2006   -7.6148   23.9712 H   0  0  0  0  0  0
  -21.1478   -6.0526   25.9076 H   0  0  0  0  0  0
  -22.0601   -2.7609   23.2846 H   0  0  0  0  0  0
  -22.4119  -11.9886   22.4769 H   0  0  0  0  0  0
  -21.1126  -13.1258   22.2604 H   0  0  0  0  0  0
  -24.6711  -15.8513   20.5346 H   0  0  0  0  0  0
  -26.2970  -15.6298   20.1266 H   0  0  0  0  0  0
  -26.7138  -32.5519   23.1183 H   0  0  0  0  0  0
  -25.0152  -33.9812   25.0543 H   0  0  0  0  0  0
  -22.6943  -31.3116   21.4132 H   0  0  0  0  0  0
  -23.3748  -35.9644   23.3323 H   0  0  0  0  0  0
  -24.3584  -36.8906   22.2061 H   0  0  0  0  0  0
  -23.7231  -37.6512   23.6651 H   0  0  0  0  0  0
  -26.0569  -31.5736   20.5981 H   0  0  0  0  0  0
  -26.8282  -30.8722   21.9922 H   0  0  0  0  0  0
  -28.0936  -29.0489   21.1869 H   0  0  0  0  0  0
  -26.0143  -26.0594   18.8601 H   0  0  0  0  0  0
  -23.9766  -27.3378   18.9862 H   0  0  0  0  0  0
  -23.7347  -30.6093   19.4104 H   0  0  0  0  0  0
  -22.7363  -29.2611   19.8648 H   0  0  0  0  0  0
  -25.1264  -36.1976   25.0830 H   0  0  0  0  0  0
  -20.9948  -28.3234   24.1431 H   0  0  0  0  0  0
  -20.5680  -26.2289   23.3600 H   0  0  0  0  0  0
  -21.6633  -26.7458   22.1180 H   0  0  0  0  0  0
  -19.6905  -25.6295   21.1248 H   0  0  0  0  0  0
  -19.6674  -27.3200   20.6750 H   0  0  0  0  0  0
  -17.4181  -26.6698   21.4023 H   0  0  0  0  0  0
  -18.0302  -26.0068   22.9007 H   0  0  0  0  0  0
  -19.7939  -30.7261   24.2269 H   0  0  0  0  0  0
  -17.5025  -31.6271   24.5172 H   0  0  0  0  0  0
  -15.5357  -30.2998   23.7658 H   0  0  0  0  0  0
  -15.8665  -28.0838   22.7056 H   0  0  0  0  0  0
  -24.5909  -30.7046   25.7869 H   0  0  0  0  0  0
  -24.8933  -32.2871   26.4979 H   0  0  0  0  0  0
  -25.8100  -30.8885   27.0280 H   0  0  0  0  0  0
  -26.2881  -29.6821   24.1195 H   0  0  0  0  0  0
  -27.4118  -29.7297   25.4595 H   0  0  0  0  0  0
  -27.8701  -30.4412   23.9291 H   0  0  0  0  0  0
  -27.2661  -33.3646   26.2097 H   0  0  0  0  0  0
  -28.3859  -32.6901   25.0355 H   0  0  0  0  0  0
  -28.0713  -31.8478   26.5454 H   0  0  0  0  0  0
  -28.2582  -38.0105   24.7507 H   0  0  0  0  0  0
  -28.1053  -36.2634   24.6295 H   0  0  0  0  0  0
  -27.2289  -37.1454   25.8875 H   0  0  0  0  0  0
  -20.9315  -29.8820   21.6993 H   0  0  0  0  0  0
  -26.0171  -38.2865   24.1424 H   0  0  0  0  0  0
  -29.0081  -23.1465   23.0263 H   0  0  0  0  0  0
  -29.9350  -23.1545   21.5668 H   0  0  0  0  0  0
  -28.9284  -22.5575   19.3369 H   0  0  0  0  0  0
  -27.2345  -22.1769   19.1978 H   0  0  0  0  0  0
  -29.3346  -25.4712   22.2716 H   0  0  0  0  0  0
  -27.6336  -25.0809   22.2412 H   0  0  0  0  0  0
  -26.5736  -24.3822   19.8869 H   0  0  0  0  0  0
  -27.5995  -24.4799   18.4541 H   0  0  0  0  0  0
  -28.6580  -18.0428   20.7573 H   0  0  0  0  0  0
  -30.1462  -18.9763   20.6302 H   0  0  0  0  0  0
  -29.2112  -16.7926   24.2240 H   0  0  0  0  0  0
  -28.2127  -16.6962   22.8170 H   0  0  0  0  0  0
  -31.5380  -17.0652   20.6785 H   0  0  0  0  0  0
  -30.3083  -16.8049   19.4693 H   0  0  0  0  0  0
  -29.7604  -14.7289   23.0955 H   0  0  0  0  0  0
  -31.1350  -15.7758   23.0098 H   0  0  0  0  0  0
  -26.9315  -22.7176   21.6285 H   0  0  0  0  0  0
  -30.8495  -18.2461   22.8293 H   0  0  0  0  0  0
  -29.5277  -25.0349   19.8799 H   0  0  0  0  0  0
  -27.4853  -21.2866   26.9076 H   0  0  0  0  0  0
  -29.2018  -21.6956   26.8810 H   0  0  0  0  0  0
  -28.6786  -20.0719   27.3372 H   0  0  0  0  0  0
  -27.1235  -23.0372   24.2676 H   0  0  0  0  0  0
  -26.1797  -21.8623   25.1745 H   0  0  0  0  0  0
  -26.0151  -21.9221   23.4440 H   0  0  0  0  0  0
  -30.8940  -19.3250   26.2738 H   0  0  0  0  0  0
  -31.1665  -18.2320   24.9451 H   0  0  0  0  0  0
  -29.8719  -17.9117   26.0993 H   0  0  0  0  0  0
  -26.8057  -19.0666   21.3042 H   0  0  0  0  0  0
  -26.6424  -20.1991   19.9782 H   0  0  0  0  0  0
  -25.8799  -20.5305   21.5275 H   0  0  0  0  0  0
  -28.8699  -20.5646   20.9086 H   0  0  0  0  0  0
  1 25  1  0  0  0
  1 30  2  0  0  0
  1 92  1  0  0  0
  2  3  1  0  0  0
  2 25  1  0  0  0
  2 93  1  0  0  0
  2 94  1  0  0  0
  3  4  1  0  0  0
  3 95  1  0  0  0
  3 96  1  0  0  0
  4  5  1  0  0  0
  4 97  1  0  0  0
  4 98  1  0  0  0
  5  6  1  0  0  0
  5 26  1  0  0  0
  5 99  1  0  0  0
  6 25  1  0  0  0
  6100  1  0  0  0
  6101  1  0  0  0
  7  8  2  0  0  0
  7 26  1  0  0  0
  7 29  1  0  0  0
  8  9  1  0  0  0
  8 22  1  0  0  0
  9 10  1  0  0  0
  9 27  2  0  0  0
 10 11  2  0  0  0
 10 15  1  0  0  0
 11 12  1  0  0  0
 11102  1  0  0  0
 12 13  2  0  0  0
 12103  1  0  0  0
 13 14  1  0  0  0
 13 31  1  0  0  0
 14 15  2  0  0  0
 14104  1  0  0  0
 15105  1  0  0  0
 16 17  2  0  0  0
 16 21  1  0  0  0
 16 31  1  0  0  0
 17 18  1  0  0  0
 17106  1  0  0  0
 18 19  2  0  0  0
 18107  1  0  0  0
 19 20  1  0  0  0
 19 24  1  0  0  0
 20 21  2  0  0  0
 20108  1  0  0  0
 21 23  1  0  0  0
 22 28  1  0  0  0
 22 32  2  0  0  0
 26 27  1  0  0  0
 28109  1  0  0  0
 28110  1  0  0  0
 29111  1  0  0  0
 29112  1  0  0  0
 33 34  1  0  0  0
 33 66  1  0  0  0
 33 70  2  0  0  0
 34 36  1  0  0  0
 34 59  1  0  0  0
 34113  1  0  0  0
 35 44  2  0  0  0
 35 45  1  0  0  0
 35 68  1  0  0  0
 36 56  1  0  0  0
 36114  1  0  0  0
 37 39  1  0  0  0
 37 47  1  0  0  0
 37 66  1  0  0  0
 37115  1  0  0  0
 38 43  2  0  0  0
 38 46  1  0  0  0
 38 47  1  0  0  0
 39 64  1  0  0  0
 39 67  2  0  0  0
 40 52  1  0  0  0
 40 53  2  0  0  0
 40 58  1  0  0  0
 41116  1  0  0  0
 41117  1  0  0  0
 41118  1  0  0  0
 41 48  1  0  0  0
 42 43  1  0  0  0
 42 66  1  0  0  0
 42119  1  0  0  0
 42120  1  0  0  0
 43 44  1  0  0  0
 44121  1  0  0  0
 45 46  2  0  0  0
 45122  1  0  0  0
 46123  1  0  0  0
 47124  1  0  0  0
 47125  1  0  0  0
 48 56  1  0  0  0
 48 65  1  0  0  0
 48126  1  0  0  0
 49 50  1  0  0  0
 49 53  1  0  0  0
 49 64  1  0  0  0
 49127  1  0  0  0
 50 51  1  0  0  0
 50128  1  0  0  0
 50129  1  0  0  0
 51 52  1  0  0  0
 51130  1  0  0  0
 51131  1  0  0  0
 52132  1  0  0  0
 52133  1  0  0  0
 53 54  1  0  0  0
 54 55  2  0  0  0
 54134  1  0  0  0
 55 57  1  0  0  0
 55135  1  0  0  0
 56 69  2  0  0  0
 57 58  2  0  0  0
 57136  1  0  0  0
 58137  1  0  0  0
 59 60  1  0  0  0
 59 61  1  0  0  0
 59 62  1  0  0  0
 60138  1  0  0  0
 60139  1  0  0  0
 60140  1  0  0  0
 61141  1  0  0  0
 61142  1  0  0  0
 61143  1  0  0  0
 62144  1  0  0  0
 62145  1  0  0  0
 62146  1  0  0  0
 63 65  1  0  0  0
 63147  1  0  0  0
 63148  1  0  0  0
 63149  1  0  0  0
 64150  1  0  0  0
 65151  1  0  0  0
 68 85  1  0  0  0
 71 72  1  0  0  0
 71 73  2  0  0  0
 71 86  1  0  0  0
 72 74  2  0  0  0
 72 87  1  0  0  0
 73 88  1  0  0  0
 73 91  1  0  0  0
 74 90  1  0  0  0
 74 91  1  0  0  0
 75 77  1  0  0  0
 75152  1  0  0  0
 75153  1  0  0  0
 75 83  1  0  0  0
 76 78  1  0  0  0
 76 83  1  0  0  0
 76154  1  0  0  0
 76155  1  0  0  0
 77 85  1  0  0  0
 77156  1  0  0  0
 77157  1  0  0  0
 78 85  1  0  0  0
 78158  1  0  0  0
 78159  1  0  0  0
 79 81  1  0  0  0
 79 84  1  0  0  0
 79160  1  0  0  0
 79161  1  0  0  0
 80 82  1  0  0  0
 80 84  1  0  0  0
 80162  1  0  0  0
 80163  1  0  0  0
 81 92  1  0  0  0
 81164  1  0  0  0
 81165  1  0  0  0
 82 92  1  0  0  0
 82166  1  0  0  0
 82167  1  0  0  0
 83 90  1  0  0  0
 83168  1  0  0  0
 84 91  1  0  0  0
 84169  1  0  0  0
 85170  1  0  0  0
 86171  1  0  0  0
 86172  1  0  0  0
 86173  1  0  0  0
 87174  1  0  0  0
 87175  1  0  0  0
 87176  1  0  0  0
 88177  1  0  0  0
 88178  1  0  0  0
 88179  1  0  0  0
 89180  1  0  0  0
 89181  1  0  0  0
 89182  1  0  0  0
 89 90  1  0  0  0
 90183  1  0  0  0
M  ISO  4   1 100  68 101  85 101  92 100
M  END
> <chiral flag>
0

> <version>
0

> <s_m_source_file>
/data/baiqing/PycharmProjects/Reinvent-master-3.2/result/LINK_invent/BTK/process_docking_weight1_custom_sum_contain_oxygen_bond_distance_aromatic_linkinvent_7_9_3/rearranged_h_0162.sdf

> <i_m_source_file_index>
24

> <r_mmod_Potential_Energy-OPLS-2005>
269.018280029297

> <r_mmod_Stretch_Energy-OPLS-2005>
58.9633712768555

> <r_mmod_Bend_Energy-OPLS-2005>
186.390975952148

> <r_mmod_Torsional_Energy-OPLS-2005>
379.736541748047

> <r_mmod_Improper_Torsional_Energy-OPLS-2005>
9.7876558303833

> <r_mmod_Van_der_Waal_Energy-OPLS-2005>
152.611053466797

> <r_mmod_Electrostatic_Energy-OPLS-2005>
-348.391296386719

> <r_mmod_Solvation_Energy-OPLS-2005>
-185.64501953125

> <b_mmod_Minimization_Converged-OPLS-2005>
0

> <r_mmod_RMS_Derivative-OPLS-2005>
1.39611113071442

$$$$
24
                    3D
 Structure written by MMmdl.
173181  0  0  1  0            999 V2000
  -30.6535  -14.4872   20.5445 C   0  0  0  0  0  0
  -30.4359  -12.3003   19.4487 C   0  0  0  0  0  0
  -29.5165  -12.5016   18.2257 C   0  0  0  0  0  0
  -28.0310  -12.3569   18.6216 C   0  0  0  0  0  0
  -27.6611  -13.1980   19.8758 C   0  0  2  0  0  0
  -28.6973  -12.9781   21.0060 C   0  0  0  0  0  0
  -25.2557  -13.8045   20.5583 C   0  0  0  0  0  0
  -24.1820  -13.0369   20.9202 C   0  0  0  0  0  0
  -24.6367  -11.6849   20.8748 C   0  0  0  0  0  0
  -23.9034  -10.4261   21.0404 C   0  0  0  0  0  0
  -24.3593   -9.4177   21.9200 C   0  0  0  0  0  0
  -23.6277   -8.2211   22.0757 C   0  0  0  0  0  0
  -22.4242   -8.0259   21.3556 C   0  0  0  0  0  0
  -21.9889   -9.0221   20.4660 C   0  0  0  0  0  0
  -22.7212  -10.2111   20.3075 C   0  0  0  0  0  0
  -21.6835   -6.0709   22.5269 C   0  0  0  0  0  0
  -21.4007   -6.5622   23.8207 C   0  0  0  0  0  0
  -21.3667   -5.6774   24.9173 C   0  0  0  0  0  0
  -21.6059   -4.3035   24.7223 C   0  0  0  0  0  0
  -21.8809   -3.8126   23.4352 C   0  0  0  0  0  0
  -21.9185   -4.6954   22.3402 C   0  0  0  0  0  0
  -22.7870  -13.5229   21.1881 C   0  0  0  0  0  0
  -22.1643   -4.2134   21.0987 F   0  0  0  0  0  0
  -21.5640   -3.4521   25.7746 F   0  0  0  0  0  0
  -30.0327  -13.2811   20.4676 N   0  0  0  0  0  0
  -26.3008  -12.9232   20.3296 N   0  0  0  0  0  0
  -25.9301  -11.6406   20.5757 N   0  0  0  0  0  0
  -22.0486  -12.8255   22.0453 N   0  0  0  0  0  0
  -25.4187  -15.1726   20.3845 N   0  0  0  0  0  0
  -31.8092  -14.6762   20.1588 O   0  0  0  0  0  0
  -21.6630   -6.8854   21.4227 O   0  0  0  0  0  0
  -22.3617  -14.5548   20.6739 O   0  0  0  0  0  0
  -24.6112  -31.8706   23.2166 C   0  0  0  0  0  0
  -25.9031  -32.4808   23.8437 C   0  0  1  0  0  0
  -27.2062  -27.4335   20.0901 C   0  0  0  0  0  0
  -25.5907  -33.8637   24.2348 N   0  0  0  0  0  0
  -23.3960  -30.5030   21.5585 C   0  0  2  0  0  0
  -24.8339  -28.9675   20.1152 C   0  0  0  0  0  0
  -22.7333  -29.4746   22.5037 C   0  0  0  0  0  0
  -18.0230  -28.1363   22.8458 C   0  0  0  0  0  0
  -24.1490  -36.7312   23.2638 C   0  0  0  0  0  0
  -25.9280  -30.8347   21.3679 C   0  0  0  0  0  0
  -25.9983  -29.4703   20.7109 C   0  0  0  0  0  0
  -27.1902  -28.7075   20.7008 C   0  0  0  0  0  0
  -26.0349  -26.9549   19.4685 C   0  0  0  0  0  0
  -24.8477  -27.7090   19.4893 C   0  0  0  0  0  0
  -23.5996  -29.8404   20.1695 C   0  0  0  0  0  0
  -25.4113  -36.3109   24.0337 C   0  0  1  0  0  0
  -20.5784  -28.3669   23.1389 C   0  0  2  0  0  0
  -20.6737  -26.9385   22.5434 C   0  0  0  0  0  0
  -19.5769  -26.6515   21.5147 C   0  0  0  0  0  0
  -18.1949  -26.7930   22.1593 C   0  0  0  0  0  0
  -19.1449  -28.8830   23.2927 C   0  0  0  0  0  0
  -18.9365  -30.1426   23.9031 C   0  0  0  0  0  0
  -17.6313  -30.6489   24.0617 C   0  0  0  0  0  0
  -25.9038  -34.9462   23.5130 C   0  0  0  0  0  0
  -16.5215  -29.9013   23.6289 C   0  0  0  0  0  0
  -16.7196  -28.6434   23.0295 C   0  0  0  0  0  0
  -26.4480  -31.6582   25.0759 C   0  0  0  0  0  0
  -25.3742  -31.3677   26.1508 C   0  0  0  0  0  0
  -27.0305  -30.3021   24.6098 C   0  0  0  0  0  0
  -27.6061  -32.4318   25.7497 C   0  0  0  0  0  0
  -27.5587  -37.1812   24.8475 C   0  0  0  0  0  0
  -21.4036  -29.3153   22.3913 N   0  0  0  0  0  0
  -26.4303  -37.3786   23.9409 N   0  0  0  0  0  0
  -24.6645  -31.0820   22.1052 N   0  0  0  0  0  0
  -23.4179  -28.8202   23.2967 O   0  0  0  0  0  0
  -28.3421  -26.6547   20.0951 O   0  0  0  0  0  0
  -26.5607  -34.8905   22.4676 O   0  0  0  0  0  0
  -23.5325  -32.1513   23.7534 O   0  0  0  0  0  0
  -25.5000  -18.9299   20.7070 C   0  0  0  0  0  0
  -27.1586  -18.9537   18.9764 C   0  0  0  0  0  0
  -25.6720  -19.2041   19.2278 C   0  0  1  0  0  0
  -26.8644  -19.2434   21.3290 C   0  0  2  0  0  0
  -24.7415  -18.3610   18.3374 C   0  0  0  0  0  0
  -25.9118  -21.0353   22.9149 C   0  0  0  0  0  0
  -29.9780  -16.7023   18.6166 C   0  0  0  0  0  0
  -27.8546  -24.1723   20.3465 C   0  0  0  0  0  0
  -28.4654  -17.5831   20.5063 C   0  0  0  0  0  0
  -27.8251  -23.0089   21.3782 C   0  0  0  0  0  0
  -28.2846  -25.5246   20.9869 C   0  0  0  0  0  0
  -27.0441  -20.6809   21.9210 C   0  0  2  0  0  0
  -29.8191  -16.8514   20.1681 C   0  0  1  0  0  0
  -27.8651  -18.9222   20.2920 N   0  0  0  0  0  0
  -29.8009  -15.5089   20.7823 N   0  0  0  0  0  0
  -27.2068  -21.7414   20.8851 N   0  3  0  0  0  0
  -31.4811  -12.4146   19.1547 H   0  0  0  0  0  0
  -30.3493  -11.2847   19.8372 H   0  0  0  0  0  0
  -29.7670  -11.7817   17.4445 H   0  0  0  0  0  0
  -29.6882  -13.4901   17.7992 H   0  0  0  0  0  0
  -27.8431  -11.2994   18.8146 H   0  0  0  0  0  0
  -27.3913  -12.6348   17.7838 H   0  0  0  0  0  0
  -27.6973  -14.2453   19.5715 H   0  0  0  0  0  0
  -28.6711  -11.9423   21.3549 H   0  0  0  0  0  0
  -28.4606  -13.5882   21.8800 H   0  0  0  0  0  0
  -25.2752   -9.5635   22.4752 H   0  0  0  0  0  0
  -23.9983   -7.4603   22.7450 H   0  0  0  0  0  0
  -21.0842   -8.8746   19.8961 H   0  0  0  0  0  0
  -22.3689  -10.9640   19.6162 H   0  0  0  0  0  0
  -21.1980   -7.6129   23.9695 H   0  0  0  0  0  0
  -21.1518   -6.0522   25.9078 H   0  0  0  0  0  0
  -22.0595   -2.7595   23.2849 H   0  0  0  0  0  0
  -22.4089  -11.9913   22.4842 H   0  0  0  0  0  0
  -21.1092  -13.1268   22.2600 H   0  0  0  0  0  0
  -24.6038  -15.7735   20.3990 H   0  0  0  0  0  0
  -26.1999  -15.5718   19.8845 H   0  0  0  0  0  0
  -26.7080  -32.5506   23.1182 H   0  0  0  0  0  0
  -25.0077  -33.9824   25.0518 H   0  0  0  0  0  0
  -22.6879  -31.3240   21.4205 H   0  0  0  0  0  0
  -23.3727  -35.9666   23.3300 H   0  0  0  0  0  0
  -24.3600  -36.8946   22.2058 H   0  0  0  0  0  0
  -23.7273  -37.6525   23.6658 H   0  0  0  0  0  0
  -26.0434  -31.6011   20.6000 H   0  0  0  0  0  0
  -26.8169  -30.8834   21.9874 H   0  0  0  0  0  0
  -28.0867  -29.0904   21.1699 H   0  0  0  0  0  0
  -26.0296  -26.0055   18.9555 H   0  0  0  0  0  0
  -23.9554  -27.3270   19.0117 H   0  0  0  0  0  0
  -23.7102  -30.6211   19.4157 H   0  0  0  0  0  0
  -22.7152  -29.2735   19.8735 H   0  0  0  0  0  0
  -25.1276  -36.1966   25.0836 H   0  0  0  0  0  0
  -20.9851  -28.3148   24.1518 H   0  0  0  0  0  0
  -20.5408  -26.2198   23.3545 H   0  0  0  0  0  0
  -21.6686  -26.7373   22.1398 H   0  0  0  0  0  0
  -19.6888  -25.6523   21.0922 H   0  0  0  0  0  0
  -19.6703  -27.3599   20.6906 H   0  0  0  0  0  0
  -17.4323  -26.6651   21.3939 H   0  0  0  0  0  0
  -18.0277  -26.0035   22.8968 H   0  0  0  0  0  0
  -19.7858  -30.7095   24.2593 H   0  0  0  0  0  0
  -17.4868  -31.6117   24.5320 H   0  0  0  0  0  0
  -15.5163  -30.2819   23.7653 H   0  0  0  0  0  0
  -15.8720  -28.0595   22.6991 H   0  0  0  0  0  0
  -24.5919  -30.7014   25.7864 H   0  0  0  0  0  0
  -24.8923  -32.2827   26.4947 H   0  0  0  0  0  0
  -25.8109  -30.8871   27.0267 H   0  0  0  0  0  0
  -26.2858  -29.6776   24.1153 H   0  0  0  0  0  0
  -27.4106  -29.7247   25.4534 H   0  0  0  0  0  0
  -27.8656  -30.4353   23.9222 H   0  0  0  0  0  0
  -27.2666  -33.3612   26.2060 H   0  0  0  0  0  0
  -28.3824  -32.6893   25.0287 H   0  0  0  0  0  0
  -28.0732  -31.8454   26.5412 H   0  0  0  0  0  0
  -28.2595  -38.0114   24.7477 H   0  0  0  0  0  0
  -28.1075  -36.2633   24.6300 H   0  0  0  0  0  0
  -27.2302  -37.1470   25.8883 H   0  0  0  0  0  0
  -20.9035  -29.9031   21.7425 H   0  0  0  0  0  0
  -26.0160  -38.2859   24.1379 H   0  0  0  0  0  0
  -25.2812  -17.8761   20.8638 H   0  0  0  0  0  0
  -24.6723  -19.4792   21.1532 H   0  0  0  0  0  0
  -27.5646  -19.7373   18.3293 H   0  0  0  0  0  0
  -27.2867  -18.0260   18.4177 H   0  0  0  0  0  0
  -25.4782  -20.2559   19.0351 H   0  0  0  0  0  0
  -27.0041  -18.5719   22.1802 H   0  0  0  0  0  0
  -24.9264  -17.2941   18.4639 H   0  0  0  0  0  0
  -24.8774  -18.5988   17.2830 H   0  0  0  0  0  0
  -23.6939  -18.5465   18.5777 H   0  0  0  0  0  0
  -24.9824  -21.2934   22.4057 H   0  0  0  0  0  0
  -26.1830  -21.8771   23.5496 H   0  0  0  0  0  0
  -25.6860  -20.2085   23.5881 H   0  0  0  0  0  0
  -29.9398  -17.6600   18.0921 H   0  0  0  0  0  0
  -29.1743  -16.0851   18.2057 H   0  0  0  0  0  0
  -30.9269  -16.2488   18.3328 H   0  0  0  0  0  0
  -26.8637  -24.2673   19.9023 H   0  0  0  0  0  0
  -28.5388  -23.9220   19.5338 H   0  0  0  0  0  0
  -27.7242  -16.9071   20.0736 H   0  0  0  0  0  0
  -29.0274  -18.2300   19.8406 H   0  0  0  0  0  0
  -27.2793  -23.3465   22.2571 H   0  0  0  0  0  0
  -28.8404  -22.7946   21.7166 H   0  0  0  0  0  0
  -29.2809  -25.4044   21.4161 H   0  0  0  0  0  0
  -27.6261  -25.7496   21.8301 H   0  0  0  0  0  0
  -27.9725  -20.6515   22.4929 H   0  0  0  0  0  0
  -30.6786  -17.3930   20.5792 H   0  0  0  0  0  0
  -28.9152  -15.2308   21.1763 H   0  0  0  0  0  0
  -27.7996  -21.3400   20.1769 H   0  0  0  0  0  0
  -26.3057  -21.9313   20.4731 H   0  0  0  0  0  0
  1 25  1  0  0  0
  1 30  2  0  0  0
  1 85  1  0  0  0
  2  3  1  0  0  0
  2 25  1  0  0  0
  2 87  1  0  0  0
  2 88  1  0  0  0
  3  4  1  0  0  0
  3 89  1  0  0  0
  3 90  1  0  0  0
  4  5  1  0  0  0
  4 91  1  0  0  0
  4 92  1  0  0  0
  5  6  1  0  0  0
  5 26  1  0  0  0
  5 93  1  0  0  0
  6 25  1  0  0  0
  6 94  1  0  0  0
  6 95  1  0  0  0
  7  8  2  0  0  0
  7 26  1  0  0  0
  7 29  1  0  0  0
  8  9  1  0  0  0
  8 22  1  0  0  0
  9 10  1  0  0  0
  9 27  2  0  0  0
 10 11  2  0  0  0
 10 15  1  0  0  0
 11 12  1  0  0  0
 11 96  1  0  0  0
 12 13  2  0  0  0
 12 97  1  0  0  0
 13 14  1  0  0  0
 13 31  1  0  0  0
 14 15  2  0  0  0
 14 98  1  0  0  0
 15 99  1  0  0  0
 16 17  2  0  0  0
 16 21  1  0  0  0
 16 31  1  0  0  0
 17 18  1  0  0  0
 17100  1  0  0  0
 18 19  2  0  0  0
 18101  1  0  0  0
 19 20  1  0  0  0
 19 24  1  0  0  0
 20 21  2  0  0  0
 20102  1  0  0  0
 21 23  1  0  0  0
 22 28  1  0  0  0
 22 32  2  0  0  0
 26 27  1  0  0  0
 28103  1  0  0  0
 28104  1  0  0  0
 29105  1  0  0  0
 29106  1  0  0  0
 33 34  1  0  0  0
 33 66  1  0  0  0
 33 70  2  0  0  0
 34 36  1  0  0  0
 34 59  1  0  0  0
 34107  1  0  0  0
 35 44  2  0  0  0
 35 45  1  0  0  0
 35 68  1  0  0  0
 36 56  1  0  0  0
 36108  1  0  0  0
 37 39  1  0  0  0
 37 47  1  0  0  0
 37 66  1  0  0  0
 37109  1  0  0  0
 38 43  2  0  0  0
 38 46  1  0  0  0
 38 47  1  0  0  0
 39 64  1  0  0  0
 39 67  2  0  0  0
 40 52  1  0  0  0
 40 53  2  0  0  0
 40 58  1  0  0  0
 41110  1  0  0  0
 41111  1  0  0  0
 41112  1  0  0  0
 41 48  1  0  0  0
 42 43  1  0  0  0
 42 66  1  0  0  0
 42113  1  0  0  0
 42114  1  0  0  0
 43 44  1  0  0  0
 44115  1  0  0  0
 45 46  2  0  0  0
 45116  1  0  0  0
 46117  1  0  0  0
 47118  1  0  0  0
 47119  1  0  0  0
 48 56  1  0  0  0
 48 65  1  0  0  0
 48120  1  0  0  0
 49 50  1  0  0  0
 49 53  1  0  0  0
 49 64  1  0  0  0
 49121  1  0  0  0
 50 51  1  0  0  0
 50122  1  0  0  0
 50123  1  0  0  0
 51 52  1  0  0  0
 51124  1  0  0  0
 51125  1  0  0  0
 52126  1  0  0  0
 52127  1  0  0  0
 53 54  1  0  0  0
 54 55  2  0  0  0
 54128  1  0  0  0
 55 57  1  0  0  0
 55129  1  0  0  0
 56 69  2  0  0  0
 57 58  2  0  0  0
 57130  1  0  0  0
 58131  1  0  0  0
 59 60  1  0  0  0
 59 61  1  0  0  0
 59 62  1  0  0  0
 60132  1  0  0  0
 60133  1  0  0  0
 60134  1  0  0  0
 61135  1  0  0  0
 61136  1  0  0  0
 61137  1  0  0  0
 62138  1  0  0  0
 62139  1  0  0  0
 62140  1  0  0  0
 63 65  1  0  0  0
 63141  1  0  0  0
 63142  1  0  0  0
 63143  1  0  0  0
 64144  1  0  0  0
 65145  1  0  0  0
 68 81  1  0  0  0
 71 73  1  0  0  0
 71146  1  0  0  0
 71147  1  0  0  0
 71 74  1  0  0  0
 72 73  1  0  0  0
 72 84  1  0  0  0
 72148  1  0  0  0
 72149  1  0  0  0
 73 75  1  0  0  0
 73150  1  0  0  0
 74 82  1  0  0  0
 74 84  1  0  0  0
 74151  1  0  0  0
 75152  1  0  0  0
 75153  1  0  0  0
 75154  1  0  0  0
 76155  1  0  0  0
 76156  1  0  0  0
 76157  1  0  0  0
 76 82  1  0  0  0
 77158  1  0  0  0
 77159  1  0  0  0
 77160  1  0  0  0
 77 83  1  0  0  0
 78 80  1  0  0  0
 78 81  1  0  0  0
 78161  1  0  0  0
 78162  1  0  0  0
 79 83  1  0  0  0
 79 84  1  0  0  0
 79163  1  0  0  0
 79164  1  0  0  0
 80 86  1  0  0  0
 80165  1  0  0  0
 80166  1  0  0  0
 81167  1  0  0  0
 81168  1  0  0  0
 82 86  1  0  0  0
 82169  1  0  0  0
 83 85  1  0  0  0
 83170  1  0  0  0
 85171  1  0  0  0
 86172  1  0  0  0
 86173  1  0  0  0
M  CHG  1  86   1
M  ISO  4   1 100  68 101  81 101  85 100
M  END
> <chiral flag>
0

> <version>
0

> <s_m_source_file>
/data/baiqing/PycharmProjects/Reinvent-master-3.2/result/LINK_invent/BTK/process_docking_weight1_custom_sum_contain_oxygen_bond_distance_aromatic_linkinvent_7_9_3/rearranged_h_0162.sdf

> <i_m_source_file_index>
25

> <r_mmod_Potential_Energy-OPLS-2005>
119.641120910645

> <r_mmod_Stretch_Energy-OPLS-2005>
48.7709541320801

> <r_mmod_Bend_Energy-OPLS-2005>
331.746215820312

> <r_mmod_Torsional_Energy-OPLS-2005>
345.763641357422

> <r_mmod_Improper_Torsional_Energy-OPLS-2005>
10.4397010803223

> <r_mmod_Van_der_Waal_Energy-OPLS-2005>
146.189437866211

> <r_mmod_Electrostatic_Energy-OPLS-2005>
-345.471649169922

> <r_mmod_Solvation_Energy-OPLS-2005>
-434.850036621094

> <b_mmod_Minimization_Converged-OPLS-2005>
0

> <r_mmod_RMS_Derivative-OPLS-2005>
7.3023829460144

$$$$
25
                    3D
 Structure written by MMmdl.
163172  0  0  1  0            999 V2000
  -30.4911  -15.0549   20.4241 C   0  0  0  0  0  0
  -30.4350  -12.6603   19.5286 C   0  0  0  0  0  0
  -29.5274  -12.5502   18.2810 C   0  0  0  0  0  0
  -28.0658  -12.3107   18.6999 C   0  0  0  0  0  0
  -27.6208  -13.2630   19.8402 C   0  0  2  0  0  0
  -28.6514  -13.3309   20.9852 C   0  0  0  0  0  0
  -25.2397  -13.8227   20.5753 C   0  0  0  0  0  0
  -24.1759  -13.0433   20.9271 C   0  0  0  0  0  0
  -24.6437  -11.6927   20.8862 C   0  0  0  0  0  0
  -23.9170  -10.4289   21.0482 C   0  0  0  0  0  0
  -24.3713   -9.4173   21.9239 C   0  0  0  0  0  0
  -23.6350   -8.2228   22.0817 C   0  0  0  0  0  0
  -22.4330   -8.0319   21.3598 C   0  0  0  0  0  0
  -22.0019   -9.0286   20.4689 C   0  0  0  0  0  0
  -22.7377  -10.2138   20.3081 C   0  0  0  0  0  0
  -21.6847   -6.0813   22.5336 C   0  0  0  0  0  0
  -21.4020   -6.5714   23.8278 C   0  0  0  0  0  0
  -21.3615   -5.6857   24.9224 C   0  0  0  0  0  0
  -21.6002   -4.3120   24.7271 C   0  0  0  0  0  0
  -21.8805   -3.8225   23.4396 C   0  0  0  0  0  0
  -21.9177   -4.7040   22.3459 C   0  0  0  0  0  0
  -22.7734  -13.5147   21.1871 C   0  0  0  0  0  0
  -22.1627   -4.2232   21.1018 F   0  0  0  0  0  0
  -21.5602   -3.4582   25.7772 F   0  0  0  0  0  0
  -29.9104  -13.7774   20.3832 N   0  0  0  0  0  0
  -26.2814  -12.9498   20.3268 N   0  0  0  0  0  0
  -25.9347  -11.6602   20.5808 N   0  0  0  0  0  0
  -22.0383  -12.8112   22.0421 N   0  0  0  0  0  0
  -25.4085  -15.1976   20.4228 N   0  0  0  0  0  0
  -31.6846  -15.0870   20.0878 O   0  0  0  0  0  0
  -21.6635   -6.8964   21.4312 O   0  0  0  0  0  0
  -22.3400  -14.5424   20.6701 O   0  0  0  0  0  0
  -24.6510  -31.8440   23.1850 C   0  0  0  0  0  0
  -25.9279  -32.4681   23.8257 C   0  0  1  0  0  0
  -27.2000  -27.1046   20.1408 C   0  0  0  0  0  0
  -25.6013  -33.8488   24.2181 N   0  0  0  0  0  0
  -23.4525  -30.4651   21.5329 C   0  0  2  0  0  0
  -24.8960  -28.8883   20.1129 C   0  0  0  0  0  0
  -22.7609  -29.4549   22.4851 C   0  0  0  0  0  0
  -18.0306  -28.1376   22.8456 C   0  0  0  0  0  0
  -24.1479  -36.7265   23.2636 C   0  0  0  0  0  0
  -26.0146  -30.7047   21.3895 C   0  0  0  0  0  0
  -26.0794  -29.3125   20.7316 C   0  0  0  0  0  0
  -27.2370  -28.4399   20.7282 C   0  0  0  0  0  0
  -25.9937  -26.7995   19.4773 C   0  0  0  0  0  0
  -24.8708  -27.6430   19.4695 C   0  0  0  0  0  0
  -23.6772  -29.7961   20.1516 C   0  0  0  0  0  0
  -25.4089  -36.3024   24.0347 C   0  0  1  0  0  0
  -20.5922  -28.3714   23.1175 C   0  0  2  0  0  0
  -20.6770  -26.9396   22.5369 C   0  0  0  0  0  0
  -19.5722  -26.6363   21.5186 C   0  0  0  0  0  0
  -18.1895  -26.7908   22.1600 C   0  0  0  0  0  0
  -19.1562  -28.8870   23.2801 C   0  0  0  0  0  0
  -18.9508  -30.1463   23.8818 C   0  0  0  0  0  0
  -17.6500  -30.6573   24.0532 C   0  0  0  0  0  0
  -25.9088  -34.9420   23.5068 C   0  0  0  0  0  0
  -16.5395  -29.9084   23.6301 C   0  0  0  0  0  0
  -16.7288  -28.6510   23.0327 C   0  0  0  0  0  0
  -26.4564  -31.6577   25.0732 C   0  0  0  0  0  0
  -25.3761  -31.3785   26.1444 C   0  0  0  0  0  0
  -27.0474  -30.2970   24.6364 C   0  0  0  0  0  0
  -27.6037  -32.4427   25.7536 C   0  0  0  0  0  0
  -27.5559  -37.1733   24.8434 C   0  0  0  0  0  0
  -21.4301  -29.3092   22.3629 N   0  0  0  0  0  0
  -26.4222  -37.3770   23.9479 N   0  0  0  0  0  0
  -24.7256  -31.0273   22.0900 N   0  0  0  0  0  0
  -23.4264  -28.8051   23.2957 O   0  0  0  0  0  0
  -28.2213  -26.0788   20.1626 O   0  0  0  0  0  0
  -26.5648  -34.8948   22.4630 O   0  0  0  0  0  0
  -23.5611  -32.1378   23.7030 O   0  0  0  0  0  0
  -30.3266  -20.8787   19.1138 C   0  0  0  0  0  0
  -29.2586  -20.5589   19.9844 C   0  0  0  0  0  0
  -30.5729  -22.1885   18.6210 C   0  0  0  0  0  0
  -28.4644  -21.7695   20.3694 C   0  0  0  0  0  0
  -29.7680  -23.3089   18.9797 C   0  0  0  0  0  0
  -28.7256  -23.1925   19.9422 C   0  0  0  0  0  0
  -28.8397  -18.3597   21.7116 C   0  0  0  0  0  0
  -28.8568  -16.7661   21.6063 C   0  0  0  0  0  0
  -30.0002  -17.6779   19.8097 C   0  0  0  0  0  0
  -29.0169  -18.9208   20.2852 C   0  0  2  0  0  0
  -31.7348  -22.3589   17.6457 C   0  0  0  0  0  0
  -27.2175  -21.5172   21.2075 C   0  0  0  0  0  0
  -29.9887  -24.6411   18.2591 C   0  0  0  0  0  0
  -27.8575  -24.5566   20.3739 C   0  0  0  0  0  0
  -29.7380  -16.2985   20.4946 N   0  0  0  0  0  0
  -31.4674  -12.8292   19.2122 H   0  0  0  0  0  0
  -30.4534  -11.7222   20.0867 H   0  0  0  0  0  0
  -29.8719  -11.7499   17.6262 H   0  0  0  0  0  0
  -29.5932  -13.4732   17.7028 H   0  0  0  0  0  0
  -27.9909  -11.2777   19.0404 H   0  0  0  0  0  0
  -27.4044  -12.4046   17.8368 H   0  0  0  0  0  0
  -27.5693  -14.2541   19.3887 H   0  0  0  0  0  0
  -28.7593  -12.3589   21.4686 H   0  0  0  0  0  0
  -28.3303  -14.0335   21.7564 H   0  0  0  0  0  0
  -25.2858   -9.5608   22.4831 H   0  0  0  0  0  0
  -24.0047   -7.4619   22.7509 H   0  0  0  0  0  0
  -21.0975   -8.8800   19.8992 H   0  0  0  0  0  0
  -22.3861  -10.9685   19.6199 H   0  0  0  0  0  0
  -21.2038   -7.6230   23.9808 H   0  0  0  0  0  0
  -21.1417   -6.0600   25.9131 H   0  0  0  0  0  0
  -22.0629   -2.7689   23.2880 H   0  0  0  0  0  0
  -22.3969  -11.9796   22.4874 H   0  0  0  0  0  0
  -21.1008  -13.1162   22.2601 H   0  0  0  0  0  0
  -24.6563  -15.8646   20.5557 H   0  0  0  0  0  0
  -26.2673  -15.6375   20.1192 H   0  0  0  0  0  0
  -26.7350  -32.5227   23.0981 H   0  0  0  0  0  0
  -25.0220  -33.9576   25.0364 H   0  0  0  0  0  0
  -22.7553  -31.2907   21.3704 H   0  0  0  0  0  0
  -23.3805  -35.9529   23.3213 H   0  0  0  0  0  0
  -24.3540  -36.8993   22.2053 H   0  0  0  0  0  0
  -23.7196  -37.6420   23.6751 H   0  0  0  0  0  0
  -26.1699  -31.4538   20.6138 H   0  0  0  0  0  0
  -26.8912  -30.7529   22.0230 H   0  0  0  0  0  0
  -28.1388  -28.7630   21.2291 H   0  0  0  0  0  0
  -25.8783  -25.8611   18.9602 H   0  0  0  0  0  0
  -23.9788  -27.3012   18.9637 H   0  0  0  0  0  0
  -23.8248  -30.5742   19.4010 H   0  0  0  0  0  0
  -22.7909  -29.2485   19.8234 H   0  0  0  0  0  0
  -25.1235  -36.1804   25.0836 H   0  0  0  0  0  0
  -20.9988  -28.3301   24.1304 H   0  0  0  0  0  0
  -20.5572  -26.2352   23.3625 H   0  0  0  0  0  0
  -21.6628  -26.7309   22.1187 H   0  0  0  0  0  0
  -19.6893  -25.6277   21.1208 H   0  0  0  0  0  0
  -19.6645  -27.3177   20.6717 H   0  0  0  0  0  0
  -17.4157  -26.6692   21.4006 H   0  0  0  0  0  0
  -18.0275  -26.0014   22.8951 H   0  0  0  0  0  0
  -19.7997  -30.7271   24.2168 H   0  0  0  0  0  0
  -17.5071  -31.6205   24.5202 H   0  0  0  0  0  0
  -15.5391  -30.2966   23.7694 H   0  0  0  0  0  0
  -15.8683  -28.0820   22.7081 H   0  0  0  0  0  0
  -24.5901  -30.7142   25.7840 H   0  0  0  0  0  0
  -24.8988  -32.2973   26.4861 H   0  0  0  0  0  0
  -25.8065  -30.8983   27.0236 H   0  0  0  0  0  0
  -26.3131  -29.6652   24.1346 H   0  0  0  0  0  0
  -27.4083  -29.7276   25.4947 H   0  0  0  0  0  0
  -27.9032  -30.4256   23.9733 H   0  0  0  0  0  0
  -27.2575  -33.3778   26.1971 H   0  0  0  0  0  0
  -28.3925  -32.6951   25.0436 H   0  0  0  0  0  0
  -28.0650  -31.8670   26.5567 H   0  0  0  0  0  0
  -28.2464  -38.0126   24.7601 H   0  0  0  0  0  0
  -28.1172  -36.2669   24.6102 H   0  0  0  0  0  0
  -27.2280  -37.1155   25.8820 H   0  0  0  0  0  0
  -20.9572  -29.8981   21.6907 H   0  0  0  0  0  0
  -26.0086  -38.2821   24.1587 H   0  0  0  0  0  0
  -30.9610  -20.0774   18.7578 H   0  0  0  0  0  0
  -29.6694  -18.6911   22.3377 H   0  0  0  0  0  0
  -27.9322  -18.7270   22.1966 H   0  0  0  0  0  0
  -27.8450  -16.4069   21.4019 H   0  0  0  0  0  0
  -29.1445  -16.3389   22.5705 H   0  0  0  0  0  0
  -31.0403  -17.9365   20.0219 H   0  0  0  0  0  0
  -29.9308  -17.5569   18.7267 H   0  0  0  0  0  0
  -28.0608  -18.7375   19.7890 H   0  0  0  0  0  0
  -32.4442  -21.5407   17.7474 H   0  0  0  0  0  0
  -32.2993  -23.2767   17.8333 H   0  0  0  0  0  0
  -31.3719  -22.3642   16.6154 H   0  0  0  0  0  0
  -26.5295  -20.8754   20.6542 H   0  0  0  0  0  0
  -26.6878  -22.4425   21.4337 H   0  0  0  0  0  0
  -27.4504  -21.0201   22.1479 H   0  0  0  0  0  0
  -30.4438  -24.5265   17.2749 H   0  0  0  0  0  0
  -30.6241  -25.2932   18.8550 H   0  0  0  0  0  0
  -29.0401  -25.1359   18.0605 H   0  0  0  0  0  0
  -27.7345  -24.4807   21.4558 H   0  0  0  0  0  0
  -26.8622  -24.3615   19.9800 H   0  0  0  0  0  0
  1 25  1  0  0  0
  1 30  2  0  0  0
  1 85  1  0  0  0
  2  3  1  0  0  0
  2 25  1  0  0  0
  2 86  1  0  0  0
  2 87  1  0  0  0
  3  4  1  0  0  0
  3 88  1  0  0  0
  3 89  1  0  0  0
  4  5  1  0  0  0
  4 90  1  0  0  0
  4 91  1  0  0  0
  5  6  1  0  0  0
  5 26  1  0  0  0
  5 92  1  0  0  0
  6 25  1  0  0  0
  6 93  1  0  0  0
  6 94  1  0  0  0
  7  8  2  0  0  0
  7 26  1  0  0  0
  7 29  1  0  0  0
  8  9  1  0  0  0
  8 22  1  0  0  0
  9 10  1  0  0  0
  9 27  2  0  0  0
 10 11  2  0  0  0
 10 15  1  0  0  0
 11 12  1  0  0  0
 11 95  1  0  0  0
 12 13  2  0  0  0
 12 96  1  0  0  0
 13 14  1  0  0  0
 13 31  1  0  0  0
 14 15  2  0  0  0
 14 97  1  0  0  0
 15 98  1  0  0  0
 16 17  2  0  0  0
 16 21  1  0  0  0
 16 31  1  0  0  0
 17 18  1  0  0  0
 17 99  1  0  0  0
 18 19  2  0  0  0
 18100  1  0  0  0
 19 20  1  0  0  0
 19 24  1  0  0  0
 20 21  2  0  0  0
 20101  1  0  0  0
 21 23  1  0  0  0
 22 28  1  0  0  0
 22 32  2  0  0  0
 26 27  1  0  0  0
 28102  1  0  0  0
 28103  1  0  0  0
 29104  1  0  0  0
 29105  1  0  0  0
 33 34  1  0  0  0
 33 66  1  0  0  0
 33 70  2  0  0  0
 34 36  1  0  0  0
 34 59  1  0  0  0
 34106  1  0  0  0
 35 44  2  0  0  0
 35 45  1  0  0  0
 35 68  1  0  0  0
 36 56  1  0  0  0
 36107  1  0  0  0
 37 39  1  0  0  0
 37 47  1  0  0  0
 37 66  1  0  0  0
 37108  1  0  0  0
 38 43  2  0  0  0
 38 46  1  0  0  0
 38 47  1  0  0  0
 39 64  1  0  0  0
 39 67  2  0  0  0
 40 52  1  0  0  0
 40 53  2  0  0  0
 40 58  1  0  0  0
 41109  1  0  0  0
 41110  1  0  0  0
 41111  1  0  0  0
 41 48  1  0  0  0
 42 43  1  0  0  0
 42 66  1  0  0  0
 42112  1  0  0  0
 42113  1  0  0  0
 43 44  1  0  0  0
 44114  1  0  0  0
 45 46  2  0  0  0
 45115  1  0  0  0
 46116  1  0  0  0
 47117  1  0  0  0
 47118  1  0  0  0
 48 56  1  0  0  0
 48 65  1  0  0  0
 48119  1  0  0  0
 49 50  1  0  0  0
 49 53  1  0  0  0
 49 64  1  0  0  0
 49120  1  0  0  0
 50 51  1  0  0  0
 50121  1  0  0  0
 50122  1  0  0  0
 51 52  1  0  0  0
 51123  1  0  0  0
 51124  1  0  0  0
 52125  1  0  0  0
 52126  1  0  0  0
 53 54  1  0  0  0
 54 55  2  0  0  0
 54127  1  0  0  0
 55 57  1  0  0  0
 55128  1  0  0  0
 56 69  2  0  0  0
 57 58  2  0  0  0
 57129  1  0  0  0
 58130  1  0  0  0
 59 60  1  0  0  0
 59 61  1  0  0  0
 59 62  1  0  0  0
 60131  1  0  0  0
 60132  1  0  0  0
 60133  1  0  0  0
 61134  1  0  0  0
 61135  1  0  0  0
 61136  1  0  0  0
 62137  1  0  0  0
 62138  1  0  0  0
 62139  1  0  0  0
 63 65  1  0  0  0
 63140  1  0  0  0
 63141  1  0  0  0
 63142  1  0  0  0
 64143  1  0  0  0
 65144  1  0  0  0
 68 84  1  0  0  0
 71 72  2  0  0  0
 71 73  1  0  0  0
 71145  1  0  0  0
 72 74  1  0  0  0
 72 80  1  0  0  0
 73 75  2  0  0  0
 73 81  1  0  0  0
 74 76  2  0  0  0
 74 82  1  0  0  0
 75 76  1  0  0  0
 75 83  1  0  0  0
 76 84  1  0  0  0
 77 78  1  0  0  0
 77 80  1  0  0  0
 77146  1  0  0  0
 77147  1  0  0  0
 78 85  1  0  0  0
 78148  1  0  0  0
 78149  1  0  0  0
 79 80  1  0  0  0
 79 85  1  0  0  0
 79150  1  0  0  0
 79151  1  0  0  0
 80152  1  0  0  0
 81153  1  0  0  0
 81154  1  0  0  0
 81155  1  0  0  0
 82156  1  0  0  0
 82157  1  0  0  0
 82158  1  0  0  0
 83159  1  0  0  0
 83160  1  0  0  0
 83161  1  0  0  0
 84162  1  0  0  0
 84163  1  0  0  0
M  ISO  4   1 100  68 101  84 101  85 100
M  END
> <chiral flag>
0

> <version>
0

> <s_m_source_file>
/data/baiqing/PycharmProjects/Reinvent-master-3.2/result/LINK_invent/BTK/process_docking_weight1_custom_sum_contain_oxygen_bond_distance_aromatic_linkinvent_7_9_3/rearranged_h_0162.sdf

> <i_m_source_file_index>
26

> <r_mmod_Potential_Energy-OPLS-2005>
834.662414550781

> <r_mmod_Stretch_Energy-OPLS-2005>
303.807983398438

> <r_mmod_Bend_Energy-OPLS-2005>
307.864990234375

> <r_mmod_Torsional_Energy-OPLS-2005>
328.7666015625

> <r_mmod_Improper_Torsional_Energy-OPLS-2005>
11.3018178939819

> <r_mmod_Van_der_Waal_Energy-OPLS-2005>
131.47688293457

> <r_mmod_Electrostatic_Energy-OPLS-2005>
-301.815032958984

> <r_mmod_Solvation_Energy-OPLS-2005>
-198.253890991211

> <b_mmod_Minimization_Converged-OPLS-2005>
0

> <r_mmod_RMS_Derivative-OPLS-2005>
6.36697673797607

$$$$
26
                    3D
 Structure written by MMmdl.
171181  0  0  1  0            999 V2000
  -30.6730  -14.6082   20.5040 C   0  0  0  0  0  0
  -30.4256  -12.3775   19.4445 C   0  0  0  0  0  0
  -29.4986  -12.4991   18.2171 C   0  0  0  0  0  0
  -28.0234  -12.3369   18.6340 C   0  0  0  0  0  0
  -27.6467  -13.2119   19.8590 C   0  0  2  0  0  0
  -28.6963  -13.0978   20.9869 C   0  0  0  0  0  0
  -25.2543  -13.8152   20.5704 C   0  0  0  0  0  0
  -24.1808  -13.0424   20.9198 C   0  0  0  0  0  0
  -24.6378  -11.6895   20.8755 C   0  0  0  0  0  0
  -23.9052  -10.4283   21.0416 C   0  0  0  0  0  0
  -24.3610   -9.4198   21.9189 C   0  0  0  0  0  0
  -23.6285   -8.2233   22.0757 C   0  0  0  0  0  0
  -22.4266   -8.0275   21.3548 C   0  0  0  0  0  0
  -21.9902   -9.0248   20.4650 C   0  0  0  0  0  0
  -22.7230  -10.2126   20.3060 C   0  0  0  0  0  0
  -21.6849   -6.0730   22.5280 C   0  0  0  0  0  0
  -21.4008   -6.5636   23.8212 C   0  0  0  0  0  0
  -21.3657   -5.6791   24.9175 C   0  0  0  0  0  0
  -21.6044   -4.3051   24.7228 C   0  0  0  0  0  0
  -21.8820   -3.8143   23.4349 C   0  0  0  0  0  0
  -21.9189   -4.6959   22.3403 C   0  0  0  0  0  0
  -22.7833  -13.5223   21.1854 C   0  0  0  0  0  0
  -22.1658   -4.2144   21.0982 F   0  0  0  0  0  0
  -21.5634   -3.4537   25.7739 F   0  0  0  0  0  0
  -30.0102  -13.4134   20.4083 N   0  0  0  0  0  0
  -26.2960  -12.9321   20.3341 N   0  0  0  0  0  0
  -25.9304  -11.6482   20.5781 N   0  0  0  0  0  0
  -22.0471  -12.8221   22.0415 N   0  0  0  0  0  0
  -25.4263  -15.1874   20.4134 N   0  0  0  0  0  0
  -31.8538  -14.7186   20.1626 O   0  0  0  0  0  0
  -21.6633   -6.8872   21.4241 O   0  0  0  0  0  0
  -22.3524  -14.5527   20.6699 O   0  0  0  0  0  0
  -24.6239  -31.8624   23.2056 C   0  0  0  0  0  0
  -25.9099  -32.4791   23.8370 C   0  0  1  0  0  0
  -27.2239  -27.3381   20.0959 C   0  0  0  0  0  0
  -25.5930  -33.8592   24.2295 N   0  0  0  0  0  0
  -23.4157  -30.4889   21.5480 C   0  0  2  0  0  0
  -24.8598  -28.9513   20.1084 C   0  0  0  0  0  0
  -22.7463  -29.4640   22.4941 C   0  0  0  0  0  0
  -18.0283  -28.1387   22.8485 C   0  0  0  0  0  0
  -24.1486  -36.7292   23.2633 C   0  0  0  0  0  0
  -25.9565  -30.7960   21.3763 C   0  0  0  0  0  0
  -26.0278  -29.4263   20.7164 C   0  0  0  0  0  0
  -27.2064  -28.6266   20.7111 C   0  0  0  0  0  0
  -26.0254  -26.9137   19.4724 C   0  0  0  0  0  0
  -24.8590  -27.6975   19.4835 C   0  0  0  0  0  0
  -23.6283  -29.8295   20.1608 C   0  0  0  0  0  0
  -25.4108  -36.3087   24.0333 C   0  0  1  0  0  0
  -20.5884  -28.3684   23.1286 C   0  0  2  0  0  0
  -20.6775  -26.9409   22.5411 C   0  0  0  0  0  0
  -19.5754  -26.6384   21.5210 C   0  0  0  0  0  0
  -18.1930  -26.7930   22.1617 C   0  0  0  0  0  0
  -19.1538  -28.8851   23.2883 C   0  0  0  0  0  0
  -18.9461  -30.1453   23.8900 C   0  0  0  0  0  0
  -17.6463  -30.6587   24.0565 C   0  0  0  0  0  0
  -25.9053  -34.9460   23.5111 C   0  0  0  0  0  0
  -16.5353  -29.9088   23.6333 C   0  0  0  0  0  0
  -16.7269  -28.6508   23.0350 C   0  0  0  0  0  0
  -26.4489  -31.6596   25.0734 C   0  0  0  0  0  0
  -25.3731  -31.3742   26.1472 C   0  0  0  0  0  0
  -27.0311  -30.3012   24.6179 C   0  0  0  0  0  0
  -27.6063  -32.4322   25.7491 C   0  0  0  0  0  0
  -27.5591  -37.1782   24.8449 C   0  0  0  0  0  0
  -21.4181  -29.3043   22.3681 N   0  0  0  0  0  0
  -26.4276  -37.3792   23.9435 N   0  0  0  0  0  0
  -24.6843  -31.0653   22.1001 N   0  0  0  0  0  0
  -23.4199  -28.8178   23.3009 O   0  0  0  0  0  0
  -28.3593  -26.5169   20.1743 O   0  0  0  0  0  0
  -26.5616  -34.8926   22.4674 O   0  0  0  0  0  0
  -23.5410  -32.1416   23.7398 O   0  0  0  0  0  0
  -30.2181  -21.8505   20.0698 C   0  0  0  0  0  0
  -27.9786  -21.7512   20.9662 C   0  0  0  0  0  0
  -30.0481  -23.2302   19.7609 C   0  0  0  0  0  0
  -27.7802  -23.1311   20.6044 C   0  0  0  0  0  0
  -28.8043  -23.8987   19.9714 C   0  0  0  0  0  0
  -29.1840  -21.0636   20.6384 C   0  0  0  0  0  0
  -26.3925  -21.3320   23.0419 C   0  0  0  0  0  0
  -27.1582  -20.0547   22.8383 C   0  0  0  0  0  0
  -30.9351  -17.9364   21.6173 C   0  0  0  0  0  0
  -29.8822  -17.8227   19.3405 C   0  0  0  0  0  0
  -30.2069  -16.6000   21.9702 C   0  0  0  0  0  0
  -29.1904  -16.4967   19.7889 C   0  0  0  0  0  0
  -26.8838  -20.9653   21.6539 C   0  0  0  0  0  0
  -30.3200  -18.7896   20.4713 C   0  0  0  0  0  0
  -31.2353  -23.9581   19.1489 C   0  0  0  0  0  0
  -26.4251  -23.7951   20.8240 C   0  0  0  0  0  0
  -28.5204  -25.3194   19.3351 C   0  0  0  0  0  0
  -29.9350  -15.7265   20.8103 N   0  0  0  0  0  0
  -29.2570  -19.6808   20.9174 O   0  0  0  0  0  0
  -31.4691  -12.4832   19.1422 H   0  0  0  0  0  0
  -30.3432  -11.3870   19.8945 H   0  0  0  0  0  0
  -29.7600  -11.7490   17.4696 H   0  0  0  0  0  0
  -29.6424  -13.4698   17.7396 H   0  0  0  0  0  0
  -27.8613  -11.2843   18.8686 H   0  0  0  0  0  0
  -27.3661  -12.5631   17.7936 H   0  0  0  0  0  0
  -27.6458  -14.2387   19.5045 H   0  0  0  0  0  0
  -28.7037  -12.0924   21.4098 H   0  0  0  0  0  0
  -28.4507  -13.7716   21.8092 H   0  0  0  0  0  0
  -25.2755   -9.5673   22.4763 H   0  0  0  0  0  0
  -23.9994   -7.4624   22.7476 H   0  0  0  0  0  0
  -21.0832   -8.8768   19.8955 H   0  0  0  0  0  0
  -22.3691  -10.9666   19.6172 H   0  0  0  0  0  0
  -21.1995   -7.6145   23.9714 H   0  0  0  0  0  0
  -21.1477   -6.0520   25.9078 H   0  0  0  0  0  0
  -22.0600   -2.7603   23.2851 H   0  0  0  0  0  0
  -22.4077  -11.9880   22.4806 H   0  0  0  0  0  0
  -21.1093  -13.1257   22.2622 H   0  0  0  0  0  0
  -24.6652  -15.8465   20.5346 H   0  0  0  0  0  0
  -26.2900  -15.6271   20.1230 H   0  0  0  0  0  0
  -26.7162  -32.5461   23.1115 H   0  0  0  0  0  0
  -25.0091  -33.9746   25.0447 H   0  0  0  0  0  0
  -22.7083  -31.3089   21.4093 H   0  0  0  0  0  0
  -23.3770  -35.9599   23.3250 H   0  0  0  0  0  0
  -24.3594  -36.8956   22.2058 H   0  0  0  0  0  0
  -23.7206  -37.6468   23.6678 H   0  0  0  0  0  0
  -26.0886  -31.5612   20.6101 H   0  0  0  0  0  0
  -26.8372  -30.8407   22.0053 H   0  0  0  0  0  0
  -28.1003  -28.9862   21.2016 H   0  0  0  0  0  0
  -25.9252  -25.9569   18.9916 H   0  0  0  0  0  0
  -23.9608  -27.3241   19.0111 H   0  0  0  0  0  0
  -23.7458  -30.6087   19.4067 H   0  0  0  0  0  0
  -22.7482  -29.2593   19.8581 H   0  0  0  0  0  0
  -25.1280  -36.1926   25.0822 H   0  0  0  0  0  0
  -20.9977  -28.3253   24.1407 H   0  0  0  0  0  0
  -20.5670  -26.2295   23.3610 H   0  0  0  0  0  0
  -21.6647  -26.7440   22.1208 H   0  0  0  0  0  0
  -19.6919  -25.6294   21.1242 H   0  0  0  0  0  0
  -19.6700  -27.3196   20.6743 H   0  0  0  0  0  0
  -17.4206  -26.6679   21.4014 H   0  0  0  0  0  0
  -18.0326  -26.0070   22.9010 H   0  0  0  0  0  0
  -19.7938  -30.7267   24.2272 H   0  0  0  0  0  0
  -17.5019  -31.6268   24.5164 H   0  0  0  0  0  0
  -15.5354  -30.2994   23.7660 H   0  0  0  0  0  0
  -15.8667  -28.0831   22.7065 H   0  0  0  0  0  0
  -24.5898  -30.7093   25.7813 H   0  0  0  0  0  0
  -24.8932  -32.2913   26.4899 H   0  0  0  0  0  0
  -25.8062  -30.8922   27.0245 H   0  0  0  0  0  0
  -26.2868  -29.6781   24.1207 H   0  0  0  0  0  0
  -27.4002  -29.7255   25.4676 H   0  0  0  0  0  0
  -27.8749  -30.4288   23.9395 H   0  0  0  0  0  0
  -27.2690  -33.3635   26.2055 H   0  0  0  0  0  0
  -28.3876  -32.6860   25.0314 H   0  0  0  0  0  0
  -28.0723  -31.8452   26.5416 H   0  0  0  0  0  0
  -28.2547  -38.0141   24.7594 H   0  0  0  0  0  0
  -28.1148  -36.2682   24.6134 H   0  0  0  0  0  0
  -27.2334  -37.1256   25.8852 H   0  0  0  0  0  0
  -20.9347  -29.8770   21.6906 H   0  0  0  0  0  0
  -26.0152  -38.2848   24.1509 H   0  0  0  0  0  0
  -31.1767  -21.4112   19.8451 H   0  0  0  0  0  0
  -26.9005  -22.1402   23.5648 H   0  0  0  0  0  0
  -25.3275  -21.2392   23.2455 H   0  0  0  0  0  0
  -26.5966  -19.1245   22.8981 H   0  0  0  0  0  0
  -28.1664  -20.0183   23.2473 H   0  0  0  0  0  0
  -31.9535  -17.6766   21.3242 H   0  0  0  0  0  0
  -31.0427  -18.5503   22.5125 H   0  0  0  0  0  0
  -29.2460  -18.3557   18.6331 H   0  0  0  0  0  0
  -30.7742  -17.5477   18.7758 H   0  0  0  0  0  0
  -29.2546  -16.8283   22.4506 H   0  0  0  0  0  0
  -30.7889  -16.0529   22.7140 H   0  0  0  0  0  0
  -29.0283  -15.8823   18.9021 H   0  0  0  0  0  0
  -28.2005  -16.7225   20.1868 H   0  0  0  0  0  0
  -26.1464  -20.6258   20.9287 H   0  0  0  0  0  0
  -31.1371  -19.3828   20.0731 H   0  0  0  0  0  0
  -32.1637  -23.4057   19.2969 H   0  0  0  0  0  0
  -31.3716  -24.9379   19.6079 H   0  0  0  0  0  0
  -31.0947  -24.0895   18.0758 H   0  0  0  0  0  0
  -25.7462  -23.2446   21.4679 H   0  0  0  0  0  0
  -25.9167  -23.9118   19.8680 H   0  0  0  0  0  0
  -26.5497  -24.7764   21.2802 H   0  0  0  0  0  0
  -27.7278  -25.1757   18.6083 H   0  0  0  0  0  0
  -29.3478  -25.5813   18.6799 H   0  0  0  0  0  0
  1 25  1  0  0  0
  1 30  2  0  0  0
  1 88  1  0  0  0
  2  3  1  0  0  0
  2 25  1  0  0  0
  2 90  1  0  0  0
  2 91  1  0  0  0
  3  4  1  0  0  0
  3 92  1  0  0  0
  3 93  1  0  0  0
  4  5  1  0  0  0
  4 94  1  0  0  0
  4 95  1  0  0  0
  5  6  1  0  0  0
  5 26  1  0  0  0
  5 96  1  0  0  0
  6 25  1  0  0  0
  6 97  1  0  0  0
  6 98  1  0  0  0
  7  8  2  0  0  0
  7 26  1  0  0  0
  7 29  1  0  0  0
  8  9  1  0  0  0
  8 22  1  0  0  0
  9 10  1  0  0  0
  9 27  2  0  0  0
 10 11  2  0  0  0
 10 15  1  0  0  0
 11 12  1  0  0  0
 11 99  1  0  0  0
 12 13  2  0  0  0
 12100  1  0  0  0
 13 14  1  0  0  0
 13 31  1  0  0  0
 14 15  2  0  0  0
 14101  1  0  0  0
 15102  1  0  0  0
 16 17  2  0  0  0
 16 21  1  0  0  0
 16 31  1  0  0  0
 17 18  1  0  0  0
 17103  1  0  0  0
 18 19  2  0  0  0
 18104  1  0  0  0
 19 20  1  0  0  0
 19 24  1  0  0  0
 20 21  2  0  0  0
 20105  1  0  0  0
 21 23  1  0  0  0
 22 28  1  0  0  0
 22 32  2  0  0  0
 26 27  1  0  0  0
 28106  1  0  0  0
 28107  1  0  0  0
 29108  1  0  0  0
 29109  1  0  0  0
 33 34  1  0  0  0
 33 66  1  0  0  0
 33 70  2  0  0  0
 34 36  1  0  0  0
 34 59  1  0  0  0
 34110  1  0  0  0
 35 44  2  0  0  0
 35 45  1  0  0  0
 35 68  1  0  0  0
 36 56  1  0  0  0
 36111  1  0  0  0
 37 39  1  0  0  0
 37 47  1  0  0  0
 37 66  1  0  0  0
 37112  1  0  0  0
 38 43  2  0  0  0
 38 46  1  0  0  0
 38 47  1  0  0  0
 39 64  1  0  0  0
 39 67  2  0  0  0
 40 52  1  0  0  0
 40 53  2  0  0  0
 40 58  1  0  0  0
 41113  1  0  0  0
 41114  1  0  0  0
 41115  1  0  0  0
 41 48  1  0  0  0
 42 43  1  0  0  0
 42 66  1  0  0  0
 42116  1  0  0  0
 42117  1  0  0  0
 43 44  1  0  0  0
 44118  1  0  0  0
 45 46  2  0  0  0
 45119  1  0  0  0
 46120  1  0  0  0
 47121  1  0  0  0
 47122  1  0  0  0
 48 56  1  0  0  0
 48 65  1  0  0  0
 48123  1  0  0  0
 49 50  1  0  0  0
 49 53  1  0  0  0
 49 64  1  0  0  0
 49124  1  0  0  0
 50 51  1  0  0  0
 50125  1  0  0  0
 50126  1  0  0  0
 51 52  1  0  0  0
 51127  1  0  0  0
 51128  1  0  0  0
 52129  1  0  0  0
 52130  1  0  0  0
 53 54  1  0  0  0
 54 55  2  0  0  0
 54131  1  0  0  0
 55 57  1  0  0  0
 55132  1  0  0  0
 56 69  2  0  0  0
 57 58  2  0  0  0
 57133  1  0  0  0
 58134  1  0  0  0
 59 60  1  0  0  0
 59 61  1  0  0  0
 59 62  1  0  0  0
 60135  1  0  0  0
 60136  1  0  0  0
 60137  1  0  0  0
 61138  1  0  0  0
 61139  1  0  0  0
 61140  1  0  0  0
 62141  1  0  0  0
 62142  1  0  0  0
 62143  1  0  0  0
 63 65  1  0  0  0
 63144  1  0  0  0
 63145  1  0  0  0
 63146  1  0  0  0
 64147  1  0  0  0
 65148  1  0  0  0
 68 87  1  0  0  0
 71 73  2  0  0  0
 71 76  1  0  0  0
 71149  1  0  0  0
 72 74  1  0  0  0
 72 76  2  0  0  0
 72 83  1  0  0  0
 73 75  1  0  0  0
 73 85  1  0  0  0
 74 75  2  0  0  0
 74 86  1  0  0  0
 75 87  1  0  0  0
 76 89  1  0  0  0
 77 78  1  0  0  0
 77 83  1  0  0  0
 77150  1  0  0  0
 77151  1  0  0  0
 78 83  1  0  0  0
 78152  1  0  0  0
 78153  1  0  0  0
 79 81  1  0  0  0
 79 84  1  0  0  0
 79154  1  0  0  0
 79155  1  0  0  0
 80 82  1  0  0  0
 80 84  1  0  0  0
 80156  1  0  0  0
 80157  1  0  0  0
 81 88  1  0  0  0
 81158  1  0  0  0
 81159  1  0  0  0
 82 88  1  0  0  0
 82160  1  0  0  0
 82161  1  0  0  0
 83162  1  0  0  0
 84 89  1  0  0  0
 84163  1  0  0  0
 85164  1  0  0  0
 85165  1  0  0  0
 85166  1  0  0  0
 86167  1  0  0  0
 86168  1  0  0  0
 86169  1  0  0  0
 87170  1  0  0  0
 87171  1  0  0  0
M  ISO  4   1 100  68 101  87 101  88 100
M  END
> <chiral flag>
0

> <version>
0

> <s_m_source_file>
/data/baiqing/PycharmProjects/Reinvent-master-3.2/result/LINK_invent/BTK/process_docking_weight1_custom_sum_contain_oxygen_bond_distance_aromatic_linkinvent_7_9_3/rearranged_h_0162.sdf

> <i_m_source_file_index>
27

> <r_mmod_Potential_Energy-OPLS-2005>
358.903778076172

> <r_mmod_Stretch_Energy-OPLS-2005>
75.4094924926758

> <r_mmod_Bend_Energy-OPLS-2005>
162.816864013672

> <r_mmod_Torsional_Energy-OPLS-2005>
382.10595703125

> <r_mmod_Improper_Torsional_Energy-OPLS-2005>
6.67638492584229

> <r_mmod_Van_der_Waal_Energy-OPLS-2005>
152.759017944336

> <r_mmod_Electrostatic_Energy-OPLS-2005>
-270.488098144531

> <r_mmod_Solvation_Energy-OPLS-2005>
-192.742630004883

> <b_mmod_Minimization_Converged-OPLS-2005>
0

> <r_mmod_RMS_Derivative-OPLS-2005>
0.670864105224609

$$$$
27
                    3D
 Structure written by MMmdl.
170179  0  0  1  0            999 V2000
  -30.5680  -15.0573   20.4222 C   0  0  0  0  0  0
  -30.4369  -12.6666   19.5230 C   0  0  0  0  0  0
  -29.5393  -12.5645   18.2707 C   0  0  0  0  0  0
  -28.0775  -12.3181   18.6864 C   0  0  0  0  0  0
  -27.6326  -13.2658   19.8336 C   0  0  2  0  0  0
  -28.6683  -13.3663   20.9764 C   0  0  0  0  0  0
  -25.2491  -13.8250   20.5757 C   0  0  0  0  0  0
  -24.1796  -13.0458   20.9224 C   0  0  0  0  0  0
  -24.6416  -11.6938   20.8711 C   0  0  0  0  0  0
  -23.9087  -10.4283   21.0355 C   0  0  0  0  0  0
  -24.3638   -9.4204   21.9138 C   0  0  0  0  0  0
  -23.6299   -8.2240   22.0737 C   0  0  0  0  0  0
  -22.4277   -8.0268   21.3521 C   0  0  0  0  0  0
  -21.9907   -9.0261   20.4639 C   0  0  0  0  0  0
  -22.7249  -10.2127   20.3024 C   0  0  0  0  0  0
  -21.6880   -6.0717   22.5257 C   0  0  0  0  0  0
  -21.4028   -6.5616   23.8196 C   0  0  0  0  0  0
  -21.3668   -5.6760   24.9159 C   0  0  0  0  0  0
  -21.6049   -4.3026   24.7196 C   0  0  0  0  0  0
  -21.8847   -3.8130   23.4316 C   0  0  0  0  0  0
  -21.9196   -4.6943   22.3381 C   0  0  0  0  0  0
  -22.7807  -13.5238   21.1816 C   0  0  0  0  0  0
  -22.1668   -4.2125   21.0966 F   0  0  0  0  0  0
  -21.5607   -3.4525   25.7723 F   0  0  0  0  0  0
  -29.9338  -13.8000   20.3708 N   0  0  0  0  0  0
  -26.2936  -12.9525   20.3235 N   0  0  0  0  0  0
  -25.9375  -11.6635   20.5679 N   0  0  0  0  0  0
  -22.0409  -12.8273   22.0368 N   0  0  0  0  0  0
  -25.4141  -15.1976   20.4198 N   0  0  0  0  0  0
  -31.7573  -15.0463   20.0893 O   0  0  0  0  0  0
  -21.6637   -6.8866   21.4222 O   0  0  0  0  0  0
  -22.3507  -14.5542   20.6619 O   0  0  0  0  0  0
  -24.6498  -31.8404   23.1865 C   0  0  0  0  0  0
  -25.9282  -32.4688   23.8239 C   0  0  1  0  0  0
  -27.2237  -27.0767   20.2042 C   0  0  0  0  0  0
  -25.6003  -33.8471   24.2171 N   0  0  0  0  0  0
  -23.4547  -30.4558   21.5316 C   0  0  2  0  0  0
  -24.9098  -28.8625   20.1228 C   0  0  0  0  0  0
  -22.7593  -29.4549   22.4879 C   0  0  0  0  0  0
  -18.0308  -28.1394   22.8486 C   0  0  0  0  0  0
  -24.1485  -36.7216   23.2631 C   0  0  0  0  0  0
  -26.0126  -30.6997   21.3918 C   0  0  0  0  0  0
  -26.0882  -29.3006   20.7421 C   0  0  0  0  0  0
  -27.2454  -28.4292   20.7569 C   0  0  0  0  0  0
  -26.0154  -26.7436   19.5533 C   0  0  0  0  0  0
  -24.8894  -27.5982   19.5114 C   0  0  0  0  0  0
  -23.6890  -29.7706   20.1566 C   0  0  0  0  0  0
  -25.4121  -36.2995   24.0317 C   0  0  1  0  0  0
  -20.5926  -28.3738   23.1227 C   0  0  2  0  0  0
  -20.6807  -26.9448   22.5395 C   0  0  0  0  0  0
  -19.5778  -26.6379   21.5212 C   0  0  0  0  0  0
  -18.1951  -26.7946   22.1599 C   0  0  0  0  0  0
  -19.1562  -28.8891   23.2841 C   0  0  0  0  0  0
  -18.9466  -30.1492   23.8860 C   0  0  0  0  0  0
  -17.6461  -30.6604   24.0547 C   0  0  0  0  0  0
  -25.9090  -34.9388   23.5040 C   0  0  0  0  0  0
  -16.5358  -29.9083   23.6347 C   0  0  0  0  0  0
  -16.7289  -28.6493   23.0388 C   0  0  0  0  0  0
  -26.4554  -31.6604   25.0732 C   0  0  0  0  0  0
  -25.3702  -31.3872   26.1428 C   0  0  0  0  0  0
  -27.0440  -30.2989   24.6408 C   0  0  0  0  0  0
  -27.6057  -32.4382   25.7531 C   0  0  0  0  0  0
  -27.5578  -37.1769   24.8455 C   0  0  0  0  0  0
  -21.4284  -29.3048   22.3604 N   0  0  0  0  0  0
  -26.4263  -37.3737   23.9436 N   0  0  0  0  0  0
  -24.7248  -31.0242   22.0896 N   0  0  0  0  0  0
  -23.4239  -28.8127   23.3048 O   0  0  0  0  0  0
  -28.2727  -26.0703   20.2219 O   0  0  0  0  0  0
  -26.5615  -34.8906   22.4590 O   0  0  0  0  0  0
  -23.5626  -32.1260   23.7101 O   0  0  0  0  0  0
  -31.5670  -20.3688   20.6760 C   0  0  0  0  0  0
  -30.1869  -20.6079   20.4690 C   0  0  0  0  0  0
  -29.8094  -22.0970   20.2611 C   0  0  0  0  0  0
  -30.9082  -22.9638   19.8937 C   0  0  0  0  0  0
  -32.2734  -22.5905   20.0324 C   0  0  0  0  0  0
  -32.5871  -21.3050   20.4955 C   0  0  0  0  0  0
  -29.2263  -18.3955   21.8390 C   0  0  0  0  0  0
  -29.0643  -16.8226   21.6393 C   0  0  0  0  0  0
  -30.1945  -17.7183   19.8419 C   0  0  0  0  0  0
  -29.4641  -19.0918   20.4802 C   0  0  2  0  0  0
  -30.6652  -24.3396   19.2646 C   0  0  0  0  0  0
  -33.4169  -23.5556   19.6863 C   0  0  0  0  0  0
  -27.4605  -22.0882   21.2358 C   0  0  0  0  0  0
  -34.5688  -21.3856   21.7834 C   0  0  0  0  0  0
  -28.0805  -24.6063   20.7991 C   0  0  0  0  0  0
  -28.3794  -22.9429   20.3323 C   0  0  1  0  0  0
  -29.8727  -16.3359   20.5036 N   0  0  0  0  0  0
  -33.8815  -20.8726   20.6500 O   0  0  0  0  0  0
  -31.4747  -12.8011   19.2189 H   0  0  0  0  0  0
  -30.4172  -11.7335   20.0841 H   0  0  0  0  0  0
  -29.8970  -11.7657   17.6183 H   0  0  0  0  0  0
  -29.6098  -13.4920   17.7004 H   0  0  0  0  0  0
  -28.0016  -11.2809   19.0160 H   0  0  0  0  0  0
  -27.4201  -12.4094   17.8211 H   0  0  0  0  0  0
  -27.5794  -14.2559   19.3803 H   0  0  0  0  0  0
  -28.7787  -12.4162   21.5074 H   0  0  0  0  0  0
  -28.3410  -14.1002   21.7108 H   0  0  0  0  0  0
  -25.2761   -9.5718   22.4706 H   0  0  0  0  0  0
  -24.0001   -7.4666   22.7494 H   0  0  0  0  0  0
  -21.0806   -8.8799   19.8981 H   0  0  0  0  0  0
  -22.3673  -10.9667   19.6142 H   0  0  0  0  0  0
  -21.2032   -7.6123   23.9712 H   0  0  0  0  0  0
  -21.1462   -6.0461   25.9058 H   0  0  0  0  0  0
  -22.0612   -2.7587   23.2817 H   0  0  0  0  0  0
  -22.4002  -12.0042   22.4944 H   0  0  0  0  0  0
  -21.1012  -13.1335   22.2444 H   0  0  0  0  0  0
  -24.6518  -15.8507   20.5558 H   0  0  0  0  0  0
  -26.2655  -15.6387   20.0943 H   0  0  0  0  0  0
  -26.7344  -32.5330   23.0964 H   0  0  0  0  0  0
  -25.0249  -33.9508   25.0393 H   0  0  0  0  0  0
  -22.7596  -31.2833   21.3725 H   0  0  0  0  0  0
  -23.3765  -35.9519   23.3227 H   0  0  0  0  0  0
  -24.3538  -36.8913   22.2046 H   0  0  0  0  0  0
  -23.7237  -37.6395   23.6704 H   0  0  0  0  0  0
  -26.1706  -31.4494   20.6141 H   0  0  0  0  0  0
  -26.8797  -30.7552   22.0408 H   0  0  0  0  0  0
  -28.1444  -28.7627   21.2566 H   0  0  0  0  0  0
  -25.9304  -25.7650   19.1023 H   0  0  0  0  0  0
  -23.9864  -27.2501   19.0312 H   0  0  0  0  0  0
  -23.8357  -30.5357   19.3933 H   0  0  0  0  0  0
  -22.8040  -29.2115   19.8469 H   0  0  0  0  0  0
  -25.1329  -36.1743   25.0803 H   0  0  0  0  0  0
  -20.9976  -28.3318   24.1363 H   0  0  0  0  0  0
  -20.5720  -26.2337   23.3607 H   0  0  0  0  0  0
  -21.6678  -26.7491   22.1188 H   0  0  0  0  0  0
  -19.6929  -25.6263   21.1305 H   0  0  0  0  0  0
  -19.6732  -27.3130   20.6700 H   0  0  0  0  0  0
  -17.4244  -26.6696   21.3981 H   0  0  0  0  0  0
  -18.0331  -26.0093   22.8987 H   0  0  0  0  0  0
  -19.7944  -30.7323   24.2219 H   0  0  0  0  0  0
  -17.5015  -31.6295   24.5131 H   0  0  0  0  0  0
  -15.5354  -30.2958   23.7741 H   0  0  0  0  0  0
  -15.8678  -28.0802   22.7156 H   0  0  0  0  0  0
  -24.5812  -30.7316   25.7754 H   0  0  0  0  0  0
  -24.8978  -32.3100   26.4805 H   0  0  0  0  0  0
  -25.7913  -30.9050   27.0265 H   0  0  0  0  0  0
  -26.3109  -29.6697   24.1366 H   0  0  0  0  0  0
  -27.3951  -29.7351   25.5067 H   0  0  0  0  0  0
  -27.9049  -30.4199   23.9824 H   0  0  0  0  0  0
  -27.2634  -33.3698   26.2055 H   0  0  0  0  0  0
  -28.3907  -32.6940   25.0395 H   0  0  0  0  0  0
  -28.0708  -31.8575   26.5515 H   0  0  0  0  0  0
  -28.2599  -38.0071   24.7546 H   0  0  0  0  0  0
  -28.1074  -36.2611   24.6218 H   0  0  0  0  0  0
  -27.2287  -37.1373   25.8852 H   0  0  0  0  0  0
  -20.9526  -29.8712   21.6725 H   0  0  0  0  0  0
  -26.0104  -38.2800   24.1427 H   0  0  0  0  0  0
  -31.9046  -19.3864   20.9683 H   0  0  0  0  0  0
  -30.0961  -18.5638   22.4752 H   0  0  0  0  0  0
  -28.3752  -18.8290   22.3641 H   0  0  0  0  0  0
  -28.0212  -16.6029   21.4117 H   0  0  0  0  0  0
  -29.3109  -16.2804   22.5544 H   0  0  0  0  0  0
  -31.2809  -17.7984   19.8454 H   0  0  0  0  0  0
  -29.9330  -17.6582   18.7833 H   0  0  0  0  0  0
  -28.4957  -19.2102   19.9907 H   0  0  0  0  0  0
  -29.6646  -24.4839   18.8735 H   0  0  0  0  0  0
  -31.2631  -24.4663   18.3658 H   0  0  0  0  0  0
  -30.9137  -25.1457   19.9573 H   0  0  0  0  0  0
  -33.2742  -24.0919   18.7523 H   0  0  0  0  0  0
  -34.3678  -23.0407   19.5460 H   0  0  0  0  0  0
  -33.5493  -24.2911   20.4818 H   0  0  0  0  0  0
  -27.3644  -21.0671   20.8674 H   0  0  0  0  0  0
  -26.4475  -22.4842   21.2921 H   0  0  0  0  0  0
  -27.8515  -22.0255   22.2549 H   0  0  0  0  0  0
  -34.9014  -22.4122   21.6312 H   0  0  0  0  0  0
  -35.4655  -20.7872   21.9500 H   0  0  0  0  0  0
  -33.9609  -21.3426   22.6884 H   0  0  0  0  0  0
  -28.4785  -24.6890   21.8110 H   0  0  0  0  0  0
  -27.0046  -24.6060   20.9624 H   0  0  0  0  0  0
  -27.9706  -22.8591   19.3243 H   0  0  0  0  0  0
  1 25  1  0  0  0
  1 30  2  0  0  0
  1 87  1  0  0  0
  2  3  1  0  0  0
  2 25  1  0  0  0
  2 89  1  0  0  0
  2 90  1  0  0  0
  3  4  1  0  0  0
  3 91  1  0  0  0
  3 92  1  0  0  0
  4  5  1  0  0  0
  4 93  1  0  0  0
  4 94  1  0  0  0
  5  6  1  0  0  0
  5 26  1  0  0  0
  5 95  1  0  0  0
  6 25  1  0  0  0
  6 96  1  0  0  0
  6 97  1  0  0  0
  7  8  2  0  0  0
  7 26  1  0  0  0
  7 29  1  0  0  0
  8  9  1  0  0  0
  8 22  1  0  0  0
  9 10  1  0  0  0
  9 27  2  0  0  0
 10 11  2  0  0  0
 10 15  1  0  0  0
 11 12  1  0  0  0
 11 98  1  0  0  0
 12 13  2  0  0  0
 12 99  1  0  0  0
 13 14  1  0  0  0
 13 31  1  0  0  0
 14 15  2  0  0  0
 14100  1  0  0  0
 15101  1  0  0  0
 16 17  2  0  0  0
 16 21  1  0  0  0
 16 31  1  0  0  0
 17 18  1  0  0  0
 17102  1  0  0  0
 18 19  2  0  0  0
 18103  1  0  0  0
 19 20  1  0  0  0
 19 24  1  0  0  0
 20 21  2  0  0  0
 20104  1  0  0  0
 21 23  1  0  0  0
 22 28  1  0  0  0
 22 32  2  0  0  0
 26 27  1  0  0  0
 28105  1  0  0  0
 28106  1  0  0  0
 29107  1  0  0  0
 29108  1  0  0  0
 33 34  1  0  0  0
 33 66  1  0  0  0
 33 70  2  0  0  0
 34 36  1  0  0  0
 34 59  1  0  0  0
 34109  1  0  0  0
 35 44  2  0  0  0
 35 45  1  0  0  0
 35 68  1  0  0  0
 36 56  1  0  0  0
 36110  1  0  0  0
 37 39  1  0  0  0
 37 47  1  0  0  0
 37 66  1  0  0  0
 37111  1  0  0  0
 38 43  2  0  0  0
 38 46  1  0  0  0
 38 47  1  0  0  0
 39 64  1  0  0  0
 39 67  2  0  0  0
 40 52  1  0  0  0
 40 53  2  0  0  0
 40 58  1  0  0  0
 41112  1  0  0  0
 41113  1  0  0  0
 41114  1  0  0  0
 41 48  1  0  0  0
 42 43  1  0  0  0
 42 66  1  0  0  0
 42115  1  0  0  0
 42116  1  0  0  0
 43 44  1  0  0  0
 44117  1  0  0  0
 45 46  2  0  0  0
 45118  1  0  0  0
 46119  1  0  0  0
 47120  1  0  0  0
 47121  1  0  0  0
 48 56  1  0  0  0
 48 65  1  0  0  0
 48122  1  0  0  0
 49 50  1  0  0  0
 49 53  1  0  0  0
 49 64  1  0  0  0
 49123  1  0  0  0
 50 51  1  0  0  0
 50124  1  0  0  0
 50125  1  0  0  0
 51 52  1  0  0  0
 51126  1  0  0  0
 51127  1  0  0  0
 52128  1  0  0  0
 52129  1  0  0  0
 53 54  1  0  0  0
 54 55  2  0  0  0
 54130  1  0  0  0
 55 57  1  0  0  0
 55131  1  0  0  0
 56 69  2  0  0  0
 57 58  2  0  0  0
 57132  1  0  0  0
 58133  1  0  0  0
 59 60  1  0  0  0
 59 61  1  0  0  0
 59 62  1  0  0  0
 60134  1  0  0  0
 60135  1  0  0  0
 60136  1  0  0  0
 61137  1  0  0  0
 61138  1  0  0  0
 61139  1  0  0  0
 62140  1  0  0  0
 62141  1  0  0  0
 62142  1  0  0  0
 63 65  1  0  0  0
 63143  1  0  0  0
 63144  1  0  0  0
 63145  1  0  0  0
 64146  1  0  0  0
 65147  1  0  0  0
 68 85  1  0  0  0
 71 72  2  0  0  0
 71 76  1  0  0  0
 71148  1  0  0  0
 72 73  1  0  0  0
 72 80  1  0  0  0
 73 74  2  0  0  0
 73 86  1  0  0  0
 74 75  1  0  0  0
 74 81  1  0  0  0
 75 76  2  0  0  0
 75 82  1  0  0  0
 76 88  1  0  0  0
 77 78  1  0  0  0
 77 80  1  0  0  0
 77149  1  0  0  0
 77150  1  0  0  0
 78 87  1  0  0  0
 78151  1  0  0  0
 78152  1  0  0  0
 79 80  1  0  0  0
 79 87  1  0  0  0
 79153  1  0  0  0
 79154  1  0  0  0
 80155  1  0  0  0
 81156  1  0  0  0
 81157  1  0  0  0
 81158  1  0  0  0
 82159  1  0  0  0
 82160  1  0  0  0
 82161  1  0  0  0
 83162  1  0  0  0
 83163  1  0  0  0
 83164  1  0  0  0
 83 86  1  0  0  0
 84 88  1  0  0  0
 84165  1  0  0  0
 84166  1  0  0  0
 84167  1  0  0  0
 85 86  1  0  0  0
 85168  1  0  0  0
 85169  1  0  0  0
 86170  1  0  0  0
M  ISO  4   1 100  68 101  85 101  87 100
M  END
> <chiral flag>
0

> <version>
0

> <s_m_source_file>
/data/baiqing/PycharmProjects/Reinvent-master-3.2/result/LINK_invent/BTK/process_docking_weight1_custom_sum_contain_oxygen_bond_distance_aromatic_linkinvent_7_9_3/rearranged_h_0162.sdf

> <i_m_source_file_index>
28

> <r_mmod_Potential_Energy-OPLS-2005>
1083.16882324219

> <r_mmod_Stretch_Energy-OPLS-2005>
376.297607421875

> <r_mmod_Bend_Energy-OPLS-2005>
436.932342529297

> <r_mmod_Torsional_Energy-OPLS-2005>
389.130218505859

> <r_mmod_Improper_Torsional_Energy-OPLS-2005>
11.0734186172485

> <r_mmod_Van_der_Waal_Energy-OPLS-2005>
148.862930297852

> <r_mmod_Electrostatic_Energy-OPLS-2005>
-333.205902099609

> <r_mmod_Solvation_Energy-OPLS-2005>
-204.644897460938

> <b_mmod_Minimization_Converged-OPLS-2005>
0

> <r_mmod_RMS_Derivative-OPLS-2005>
5.05995893478394

$$$$
28
                    3D
 Structure written by MMmdl.
173183  0  0  1  0            999 V2000
  -30.6992  -14.5243   20.5688 C   0  0  0  0  0  0
  -30.4287  -12.3404   19.4247 C   0  0  0  0  0  0
  -29.4909  -12.4675   18.2062 C   0  0  0  0  0  0
  -28.0213  -12.2913   18.6344 C   0  0  0  0  0  0
  -27.6471  -13.1809   19.8457 C   0  0  2  0  0  0
  -28.6926  -13.0424   20.9768 C   0  0  0  0  0  0
  -25.2568  -13.8086   20.5616 C   0  0  0  0  0  0
  -24.1815  -13.0396   20.9194 C   0  0  0  0  0  0
  -24.6341  -11.6860   20.8748 C   0  0  0  0  0  0
  -23.9007  -10.4264   21.0423 C   0  0  0  0  0  0
  -24.3576   -9.4191   21.9198 C   0  0  0  0  0  0
  -23.6268   -8.2223   22.0757 C   0  0  0  0  0  0
  -22.4255   -8.0256   21.3543 C   0  0  0  0  0  0
  -21.9875   -9.0225   20.4647 C   0  0  0  0  0  0
  -22.7188  -10.2114   20.3064 C   0  0  0  0  0  0
  -21.6844   -6.0719   22.5278 C   0  0  0  0  0  0
  -21.4008   -6.5629   23.8208 C   0  0  0  0  0  0
  -21.3657   -5.6785   24.9173 C   0  0  0  0  0  0
  -21.6045   -4.3047   24.7231 C   0  0  0  0  0  0
  -21.8825   -3.8136   23.4352 C   0  0  0  0  0  0
  -21.9191   -4.6947   22.3402 C   0  0  0  0  0  0
  -22.7857  -13.5232   21.1858 C   0  0  0  0  0  0
  -22.1664   -4.2131   21.0982 F   0  0  0  0  0  0
  -21.5629   -3.4531   25.7747 F   0  0  0  0  0  0
  -30.0171  -13.3510   20.4146 N   0  0  0  0  0  0
  -26.2943  -12.9191   20.3226 N   0  0  0  0  0  0
  -25.9246  -11.6395   20.5750 N   0  0  0  0  0  0
  -22.0492  -12.8229   22.0423 N   0  0  0  0  0  0
  -25.4294  -15.1789   20.3966 N   0  0  0  0  0  0
  -31.8559  -14.6738   20.1683 O   0  0  0  0  0  0
  -21.6625   -6.8854   21.4238 O   0  0  0  0  0  0
  -22.3557  -14.5548   20.6716 O   0  0  0  0  0  0
  -24.6167  -31.8675   23.2116 C   0  0  0  0  0  0
  -25.9070  -32.4825   23.8411 C   0  0  1  0  0  0
  -27.2329  -27.3849   20.1382 C   0  0  0  0  0  0
  -25.5945  -33.8614   24.2382 N   0  0  0  0  0  0
  -23.4067  -30.4923   21.5511 C   0  0  2  0  0  0
  -24.8521  -28.9490   20.1270 C   0  0  0  0  0  0
  -22.7421  -29.4665   22.4989 C   0  0  0  0  0  0
  -18.0309  -28.1346   22.8484 C   0  0  0  0  0  0
  -24.1503  -36.7297   23.2637 C   0  0  0  0  0  0
  -25.9368  -30.8227   21.3705 C   0  0  0  0  0  0
  -26.0113  -29.4473   20.7308 C   0  0  0  0  0  0
  -27.1974  -28.6727   20.7332 C   0  0  0  0  0  0
  -26.0513  -26.9209   19.5113 C   0  0  0  0  0  0
  -24.8688  -27.6850   19.5159 C   0  0  0  0  0  0
  -23.6204  -29.8253   20.1663 C   0  0  0  0  0  0
  -25.4101  -36.3111   24.0368 C   0  0  1  0  0  0
  -20.5892  -28.3665   23.1295 C   0  0  2  0  0  0
  -20.6834  -26.9409   22.5388 C   0  0  0  0  0  0
  -19.5817  -26.6368   21.5186 C   0  0  0  0  0  0
  -18.1983  -26.7904   22.1581 C   0  0  0  0  0  0
  -19.1543  -28.8816   23.2894 C   0  0  0  0  0  0
  -18.9454  -30.1409   23.8919 C   0  0  0  0  0  0
  -17.6453  -30.6555   24.0528 C   0  0  0  0  0  0
  -25.9007  -34.9466   23.5157 C   0  0  0  0  0  0
  -16.5361  -29.9043   23.6281 C   0  0  0  0  0  0
  -16.7291  -28.6453   23.0333 C   0  0  0  0  0  0
  -26.4505  -31.6572   25.0714 C   0  0  0  0  0  0
  -25.3755  -31.3646   26.1445 C   0  0  0  0  0  0
  -27.0347  -30.3035   24.6037 C   0  0  0  0  0  0
  -27.6126  -32.4260   25.7463 C   0  0  0  0  0  0
  -27.5597  -37.1789   24.8468 C   0  0  0  0  0  0
  -21.4158  -29.3036   22.3695 N   0  0  0  0  0  0
  -26.4305  -37.3779   23.9415 N   0  0  0  0  0  0
  -24.6731  -31.0760   22.1030 N   0  0  0  0  0  0
  -23.4164  -28.8228   23.3074 O   0  0  0  0  0  0
  -28.4506  -26.7153   20.1142 O   0  0  0  0  0  0
  -26.5525  -34.8904   22.4686 O   0  0  0  0  0  0
  -23.5346  -32.1454   23.7450 O   0  0  0  0  0  0
  -29.4368  -23.2558   21.6207 C   0  0  0  0  0  0
  -28.3605  -22.8759   19.3842 C   0  0  0  0  0  0
  -27.8600  -19.4915   24.1851 C   0  0  0  0  0  0
  -28.4178  -20.8908   24.1433 C   0  0  0  0  0  0
  -28.8788  -24.7166   21.6377 C   0  0  0  0  0  0
  -27.7723  -24.3032   19.4116 C   0  0  0  0  0  0
  -30.3944  -17.7666   22.3626 C   0  0  0  0  0  0
  -29.1561  -17.8584   20.2454 C   0  0  0  0  0  0
  -30.3621  -16.2107   22.3634 C   0  0  0  0  0  0
  -29.0378  -16.3149   20.2270 C   0  0  0  0  0  0
  -28.5507  -22.2741   20.8017 C   0  0  1  0  0  0
  -27.9260  -20.2414   22.8611 C   0  0  0  0  0  0
  -29.1487  -18.3924   21.6939 C   0  0  0  0  0  0
  -28.6650  -25.2748   20.2059 C   0  0  1  0  0  0
  -29.0490  -20.7748   20.6884 C   0  0  0  0  0  0
  -30.0008  -15.5803   21.0762 N   0  0  0  0  0  0
  -29.0328  -19.8939   21.9153 N   0  3  1  0  0  0
  -31.4675  -12.4583   19.1111 H   0  0  0  0  0  0
  -30.3621  -11.3420   19.8605 H   0  0  0  0  0  0
  -29.7514  -11.7187   17.4563 H   0  0  0  0  0  0
  -29.6242  -13.4396   17.7279 H   0  0  0  0  0  0
  -27.8814  -11.2408   18.8970 H   0  0  0  0  0  0
  -27.3532  -12.4822   17.7934 H   0  0  0  0  0  0
  -27.6551  -14.1958   19.4635 H   0  0  0  0  0  0
  -28.6920  -12.0277   21.3753 H   0  0  0  0  0  0
  -28.4380  -13.6918   21.8156 H   0  0  0  0  0  0
  -25.2718   -9.5676   22.4769 H   0  0  0  0  0  0
  -23.9977   -7.4616   22.7468 H   0  0  0  0  0  0
  -21.0812   -8.8735   19.8951 H   0  0  0  0  0  0
  -22.3642  -10.9651   19.6174 H   0  0  0  0  0  0
  -21.2003   -7.6138   23.9707 H   0  0  0  0  0  0
  -21.1475   -6.0516   25.9075 H   0  0  0  0  0  0
  -22.0613   -2.7597   23.2859 H   0  0  0  0  0  0
  -22.4088  -11.9860   22.4772 H   0  0  0  0  0  0
  -21.1128  -13.1285   22.2665 H   0  0  0  0  0  0
  -24.6602  -15.8323   20.4881 H   0  0  0  0  0  0
  -26.2701  -15.6046   20.0313 H   0  0  0  0  0  0
  -26.7122  -32.5561   23.1165 H   0  0  0  0  0  0
  -25.0268  -33.9782   25.0652 H   0  0  0  0  0  0
  -22.6978  -31.3094   21.4067 H   0  0  0  0  0  0
  -23.3771  -35.9621   23.3301 H   0  0  0  0  0  0
  -24.3640  -36.8899   22.2052 H   0  0  0  0  0  0
  -23.7219  -37.6498   23.6624 H   0  0  0  0  0  0
  -26.0380  -31.5779   20.5915 H   0  0  0  0  0  0
  -26.8275  -30.8912   21.9818 H   0  0  0  0  0  0
  -28.0952  -29.0566   21.1989 H   0  0  0  0  0  0
  -26.0037  -25.9934   18.9709 H   0  0  0  0  0  0
  -23.9802  -27.3067   19.0281 H   0  0  0  0  0  0
  -23.7405  -30.6020   19.4107 H   0  0  0  0  0  0
  -22.7409  -29.2574   19.8585 H   0  0  0  0  0  0
  -25.1248  -36.2024   25.0858 H   0  0  0  0  0  0
  -20.9958  -28.3257   24.1420 H   0  0  0  0  0  0
  -20.5822  -26.2251   23.3571 H   0  0  0  0  0  0
  -21.6703  -26.7524   22.1128 H   0  0  0  0  0  0
  -19.7016  -25.6269   21.1245 H   0  0  0  0  0  0
  -19.6780  -27.3145   20.6696 H   0  0  0  0  0  0
  -17.4266  -26.6649   21.3976 H   0  0  0  0  0  0
  -18.0397  -26.0003   22.8933 H   0  0  0  0  0  0
  -19.7931  -30.7188   24.2350 H   0  0  0  0  0  0
  -17.5011  -31.6251   24.5093 H   0  0  0  0  0  0
  -15.5357  -30.2937   23.7572 H   0  0  0  0  0  0
  -15.8716  -28.0746   22.7044 H   0  0  0  0  0  0
  -24.5975  -30.6946   25.7774 H   0  0  0  0  0  0
  -24.8845  -32.2749   26.4857 H   0  0  0  0  0  0
  -25.8062  -30.8846   27.0233 H   0  0  0  0  0  0
  -26.2857  -29.6770   24.1164 H   0  0  0  0  0  0
  -27.4271  -29.7297   25.4450 H   0  0  0  0  0  0
  -27.8636  -30.4429   23.9097 H   0  0  0  0  0  0
  -27.2828  -33.3597   26.2016 H   0  0  0  0  0  0
  -28.3915  -32.6728   25.0242 H   0  0  0  0  0  0
  -28.0794  -31.8356   26.5361 H   0  0  0  0  0  0
  -28.2567  -38.0132   24.7529 H   0  0  0  0  0  0
  -28.1143  -36.2644   24.6278 H   0  0  0  0  0  0
  -27.2321  -37.1418   25.8878 H   0  0  0  0  0  0
  -20.9349  -29.8694   21.6844 H   0  0  0  0  0  0
  -26.0230  -38.2878   24.1386 H   0  0  0  0  0  0
  -29.5509  -22.9000   22.6444 H   0  0  0  0  0  0
  -30.4445  -23.2675   21.2002 H   0  0  0  0  0  0
  -29.3136  -22.8885   18.8520 H   0  0  0  0  0  0
  -27.6916  -22.2437   18.7985 H   0  0  0  0  0  0
  -26.8756  -19.3683   24.6349 H   0  0  0  0  0  0
  -28.5502  -18.6776   24.3920 H   0  0  0  0  0  0
  -29.4903  -20.9884   24.3124 H   0  0  0  0  0  0
  -27.8092  -21.6741   24.5909 H   0  0  0  0  0  0
  -29.5790  -25.3559   22.1787 H   0  0  0  0  0  0
  -27.9445  -24.7502   22.1996 H   0  0  0  0  0  0
  -26.7841  -24.2451   19.8685 H   0  0  0  0  0  0
  -27.6546  -24.6560   18.3870 H   0  0  0  0  0  0
  -31.2967  -18.1072   21.8514 H   0  0  0  0  0  0
  -30.4946  -18.1084   23.3931 H   0  0  0  0  0  0
  -28.3082  -18.2400   19.6789 H   0  0  0  0  0  0
  -30.0588  -18.1738   19.7187 H   0  0  0  0  0  0
  -29.6211  -15.8792   23.0930 H   0  0  0  0  0  0
  -31.3193  -15.8268   22.7231 H   0  0  0  0  0  0
  -29.0932  -15.9712   19.1916 H   0  0  0  0  0  0
  -28.0430  -16.0611   20.5904 H   0  0  0  0  0  0
  -27.5570  -22.2782   21.2468 H   0  0  0  0  0  0
  -26.9742  -20.5073   22.4054 H   0  0  0  0  0  0
  -28.2715  -17.9359   22.1545 H   0  0  0  0  0  0
  -29.6454  -25.1959   19.7347 H   0  0  0  0  0  0
  -30.0497  -20.7421   20.2556 H   0  0  0  0  0  0
  -28.3885  -20.3239   19.9529 H   0  0  0  0  0  0
  -29.8797  -20.1430   22.4030 H   0  0  0  0  0  0
  1 25  1  0  0  0
  1 30  2  0  0  0
  1 86  1  0  0  0
  2  3  1  0  0  0
  2 25  1  0  0  0
  2 88  1  0  0  0
  2 89  1  0  0  0
  3  4  1  0  0  0
  3 90  1  0  0  0
  3 91  1  0  0  0
  4  5  1  0  0  0
  4 92  1  0  0  0
  4 93  1  0  0  0
  5  6  1  0  0  0
  5 26  1  0  0  0
  5 94  1  0  0  0
  6 25  1  0  0  0
  6 95  1  0  0  0
  6 96  1  0  0  0
  7  8  2  0  0  0
  7 26  1  0  0  0
  7 29  1  0  0  0
  8  9  1  0  0  0
  8 22  1  0  0  0
  9 10  1  0  0  0
  9 27  2  0  0  0
 10 11  2  0  0  0
 10 15  1  0  0  0
 11 12  1  0  0  0
 11 97  1  0  0  0
 12 13  2  0  0  0
 12 98  1  0  0  0
 13 14  1  0  0  0
 13 31  1  0  0  0
 14 15  2  0  0  0
 14 99  1  0  0  0
 15100  1  0  0  0
 16 17  2  0  0  0
 16 21  1  0  0  0
 16 31  1  0  0  0
 17 18  1  0  0  0
 17101  1  0  0  0
 18 19  2  0  0  0
 18102  1  0  0  0
 19 20  1  0  0  0
 19 24  1  0  0  0
 20 21  2  0  0  0
 20103  1  0  0  0
 21 23  1  0  0  0
 22 28  1  0  0  0
 22 32  2  0  0  0
 26 27  1  0  0  0
 28104  1  0  0  0
 28105  1  0  0  0
 29106  1  0  0  0
 29107  1  0  0  0
 33 34  1  0  0  0
 33 66  1  0  0  0
 33 70  2  0  0  0
 34 36  1  0  0  0
 34 59  1  0  0  0
 34108  1  0  0  0
 35 44  2  0  0  0
 35 45  1  0  0  0
 35 68  1  0  0  0
 36 56  1  0  0  0
 36109  1  0  0  0
 37 39  1  0  0  0
 37 47  1  0  0  0
 37 66  1  0  0  0
 37110  1  0  0  0
 38 43  2  0  0  0
 38 46  1  0  0  0
 38 47  1  0  0  0
 39 64  1  0  0  0
 39 67  2  0  0  0
 40 52  1  0  0  0
 40 53  2  0  0  0
 40 58  1  0  0  0
 41111  1  0  0  0
 41112  1  0  0  0
 41113  1  0  0  0
 41 48  1  0  0  0
 42 43  1  0  0  0
 42 66  1  0  0  0
 42114  1  0  0  0
 42115  1  0  0  0
 43 44  1  0  0  0
 44116  1  0  0  0
 45 46  2  0  0  0
 45117  1  0  0  0
 46118  1  0  0  0
 47119  1  0  0  0
 47120  1  0  0  0
 48 56  1  0  0  0
 48 65  1  0  0  0
 48121  1  0  0  0
 49 50  1  0  0  0
 49 53  1  0  0  0
 49 64  1  0  0  0
 49122  1  0  0  0
 50 51  1  0  0  0
 50123  1  0  0  0
 50124  1  0  0  0
 51 52  1  0  0  0
 51125  1  0  0  0
 51126  1  0  0  0
 52127  1  0  0  0
 52128  1  0  0  0
 53 54  1  0  0  0
 54 55  2  0  0  0
 54129  1  0  0  0
 55 57  1  0  0  0
 55130  1  0  0  0
 56 69  2  0  0  0
 57 58  2  0  0  0
 57131  1  0  0  0
 58132  1  0  0  0
 59 60  1  0  0  0
 59 61  1  0  0  0
 59 62  1  0  0  0
 60133  1  0  0  0
 60134  1  0  0  0
 60135  1  0  0  0
 61136  1  0  0  0
 61137  1  0  0  0
 61138  1  0  0  0
 62139  1  0  0  0
 62140  1  0  0  0
 62141  1  0  0  0
 63 65  1  0  0  0
 63142  1  0  0  0
 63143  1  0  0  0
 63144  1  0  0  0
 64145  1  0  0  0
 65146  1  0  0  0
 68 84  1  0  0  0
 71 75  1  0  0  0
 71 81  1  0  0  0
 71147  1  0  0  0
 71148  1  0  0  0
 72 76  1  0  0  0
 72 81  1  0  0  0
 72149  1  0  0  0
 72150  1  0  0  0
 73 74  1  0  0  0
 73151  1  0  0  0
 73152  1  0  0  0
 73 82  1  0  0  0
 74 82  1  0  0  0
 74153  1  0  0  0
 74154  1  0  0  0
 75 84  1  0  0  0
 75155  1  0  0  0
 75156  1  0  0  0
 76 84  1  0  0  0
 76157  1  0  0  0
 76158  1  0  0  0
 77 79  1  0  0  0
 77159  1  0  0  0
 77160  1  0  0  0
 77 83  1  0  0  0
 78 80  1  0  0  0
 78 83  1  0  0  0
 78161  1  0  0  0
 78162  1  0  0  0
 79 86  1  0  0  0
 79163  1  0  0  0
 79164  1  0  0  0
 80 86  1  0  0  0
 80165  1  0  0  0
 80166  1  0  0  0
 81 85  1  0  0  0
 81167  1  0  0  0
 82 87  1  0  0  0
 82168  1  0  0  0
 83 87  1  0  0  0
 83169  1  0  0  0
 84170  1  0  0  0
 85171  1  0  0  0
 85172  1  0  0  0
 85 87  1  0  0  0
 87173  1  0  0  0
M  CHG  1  87   1
M  ISO  4   1 100  68 101  84 101  86 100
M  END
> <chiral flag>
0

> <version>
0

> <s_m_source_file>
/data/baiqing/PycharmProjects/Reinvent-master-3.2/result/LINK_invent/BTK/process_docking_weight1_custom_sum_contain_oxygen_bond_distance_aromatic_linkinvent_7_9_3/rearranged_h_0162.sdf

> <i_m_source_file_index>
29

> <r_mmod_Potential_Energy-OPLS-2005>
298.990539550781

> <r_mmod_Stretch_Energy-OPLS-2005>
55.6159706115723

> <r_mmod_Bend_Energy-OPLS-2005>
177.334411621094

> <r_mmod_Torsional_Energy-OPLS-2005>
423.461975097656

> <r_mmod_Improper_Torsional_Energy-OPLS-2005>
3.49681282043457

> <r_mmod_Van_der_Waal_Energy-OPLS-2005>
143.242614746094

> <r_mmod_Electrostatic_Energy-OPLS-2005>
-103.55632019043

> <r_mmod_Solvation_Energy-OPLS-2005>
-423.188598632812

> <b_mmod_Minimization_Converged-OPLS-2005>
0

> <r_mmod_RMS_Derivative-OPLS-2005>
3.18013191223145

$$$$
29
                    3D
 Structure written by MMmdl.
183193  0  0  1  0            999 V2000
  -30.6292  -14.7566   20.3943 C   0  0  0  0  0  0
  -30.4267  -12.4519   19.4577 C   0  0  0  0  0  0
  -29.5074  -12.4857   18.2185 C   0  0  0  0  0  0
  -28.0331  -12.3220   18.6374 C   0  0  0  0  0  0
  -27.6392  -13.2273   19.8355 C   0  0  2  0  0  0
  -28.6911  -13.2041   20.9619 C   0  0  0  0  0  0
  -25.2565  -13.8032   20.5746 C   0  0  0  0  0  0
  -24.1797  -13.0372   20.9191 C   0  0  0  0  0  0
  -24.6367  -11.6858   20.8724 C   0  0  0  0  0  0
  -23.9030  -10.4276   21.0398 C   0  0  0  0  0  0
  -24.3598   -9.4208   21.9183 C   0  0  0  0  0  0
  -23.6280   -8.2243   22.0756 C   0  0  0  0  0  0
  -22.4260   -8.0280   21.3544 C   0  0  0  0  0  0
  -21.9886   -9.0255   20.4648 C   0  0  0  0  0  0
  -22.7207  -10.2129   20.3044 C   0  0  0  0  0  0
  -21.6860   -6.0719   22.5269 C   0  0  0  0  0  0
  -21.4029   -6.5629   23.8200 C   0  0  0  0  0  0
  -21.3657   -5.6778   24.9166 C   0  0  0  0  0  0
  -21.6031   -4.3041   24.7213 C   0  0  0  0  0  0
  -21.8832   -3.8135   23.4340 C   0  0  0  0  0  0
  -21.9202   -4.6952   22.3392 C   0  0  0  0  0  0
  -22.7836  -13.5243   21.1843 C   0  0  0  0  0  0
  -22.1664   -4.2139   21.0967 F   0  0  0  0  0  0
  -21.5638   -3.4521   25.7720 F   0  0  0  0  0  0
  -29.9820  -13.5418   20.3535 N   0  0  0  0  0  0
  -26.2959  -12.9270   20.3271 N   0  0  0  0  0  0
  -25.9312  -11.6429   20.5733 N   0  0  0  0  0  0
  -22.0437  -12.8280   22.0403 N   0  0  0  0  0  0
  -25.4477  -15.1646   20.4233 N   0  0  0  0  0  0
  -31.8452  -14.7819   20.1931 O   0  0  0  0  0  0
  -21.6643   -6.8869   21.4231 O   0  0  0  0  0  0
  -22.3545  -14.5541   20.6654 O   0  0  0  0  0  0
  -24.6334  -31.8559   23.1966 C   0  0  0  0  0  0
  -25.9156  -32.4759   23.8333 C   0  0  1  0  0  0
  -27.2450  -27.2796   20.1113 C   0  0  0  0  0  0
  -25.5954  -33.8555   24.2277 N   0  0  0  0  0  0
  -23.4293  -30.4760   21.5404 C   0  0  2  0  0  0
  -24.8800  -28.9163   20.1138 C   0  0  0  0  0  0
  -22.7508  -29.4613   22.4911 C   0  0  0  0  0  0
  -18.0298  -28.1376   22.8490 C   0  0  0  0  0  0
  -24.1470  -36.7269   23.2638 C   0  0  0  0  0  0
  -25.9710  -30.7724   21.3710 C   0  0  0  0  0  0
  -26.0507  -29.3931   20.7164 C   0  0  0  0  0  0
  -27.2335  -28.5889   20.7003 C   0  0  0  0  0  0
  -26.0470  -26.8599   19.4937 C   0  0  0  0  0  0
  -24.8826  -27.6558   19.4941 C   0  0  0  0  0  0
  -23.6499  -29.8040   20.1590 C   0  0  0  0  0  0
  -25.4096  -36.3070   24.0340 C   0  0  1  0  0  0
  -20.5910  -28.3713   23.1254 C   0  0  2  0  0  0
  -20.6786  -26.9417   22.5417 C   0  0  0  0  0  0
  -19.5749  -26.6326   21.5242 C   0  0  0  0  0  0
  -18.1934  -26.7913   22.1647 C   0  0  0  0  0  0
  -19.1557  -28.8854   23.2870 C   0  0  0  0  0  0
  -18.9465  -30.1437   23.8905 C   0  0  0  0  0  0
  -17.6461  -30.6560   24.0584 C   0  0  0  0  0  0
  -25.9045  -34.9446   23.5112 C   0  0  0  0  0  0
  -16.5357  -29.9067   23.6323 C   0  0  0  0  0  0
  -16.7285  -28.6491   23.0349 C   0  0  0  0  0  0
  -26.4522  -31.6578   25.0705 C   0  0  0  0  0  0
  -25.3735  -31.3716   26.1421 C   0  0  0  0  0  0
  -27.0370  -30.3007   24.6159 C   0  0  0  0  0  0
  -27.6090  -32.4303   25.7460 C   0  0  0  0  0  0
  -27.5570  -37.1793   24.8473 C   0  0  0  0  0  0
  -21.4218  -29.3062   22.3638 N   0  0  0  0  0  0
  -26.4268  -37.3778   23.9430 N   0  0  0  0  0  0
  -24.6975  -31.0530   22.0935 N   0  0  0  0  0  0
  -23.4206  -28.8163   23.3027 O   0  0  0  0  0  0
  -28.3783  -26.4329   20.1259 O   0  0  0  0  0  0
  -26.5612  -34.8930   22.4670 O   0  0  0  0  0  0
  -23.5502  -32.1377   23.7282 O   0  0  0  0  0  0
  -27.0800  -18.1599   20.0016 C   0  0  0  0  0  0
  -28.1944  -18.9906   20.2522 C   0  0  0  0  0  0
  -27.9131  -20.4214   20.5212 C   0  0  0  0  0  0
  -26.5736  -20.7227   20.9692 C   0  0  0  0  0  0
  -25.5023  -19.8230   20.7348 C   0  0  0  0  0  0
  -25.7591  -18.5917   20.1248 C   0  0  0  0  0  0
  -29.2441  -22.6679   21.3355 C   0  0  0  0  0  0
  -28.0976  -22.5725   19.0195 C   0  0  0  0  0  0
  -29.3147  -24.2454   21.1163 C   0  0  0  0  0  0
  -28.3697  -24.1254   18.8948 C   0  0  0  0  0  0
  -29.8036  -17.0219   21.3258 C   0  0  0  0  0  0
  -29.5334  -18.1332   20.2511 C   0  0  1  0  0  0
  -28.8019  -21.7089   20.1535 C   0  0  2  0  0  0
  -28.2361  -24.9400   20.2163 C   0  0  2  0  0  0
  -29.8407  -16.9829   19.2251 C   0  0  1  0  0  0
  -26.2368  -22.0231   21.7039 C   0  0  0  0  0  0
  -24.0628  -20.1591   21.1143 C   0  0  0  0  0  0
  -30.7810  -17.9509   17.0946 C   0  0  0  0  0  0
  -32.3517  -17.6386   19.0183 C   0  0  0  0  0  0
  -24.1450  -18.1274   18.4919 C   0  0  0  0  0  0
  -31.0921  -17.0802   18.3227 C   0  0  0  0  0  0
  -29.8732  -15.9300   20.3111 N   0  0  0  0  0  0
  -24.7409  -17.7652   19.7326 O   0  0  0  0  0  0
  -31.4703  -12.5556   19.1547 H   0  0  0  0  0  0
  -30.3545  -11.4897   19.9653 H   0  0  0  0  0  0
  -29.7825  -11.6931   17.5196 H   0  0  0  0  0  0
  -29.6437  -13.4279   17.6827 H   0  0  0  0  0  0
  -27.8832  -11.2741   18.9037 H   0  0  0  0  0  0
  -27.3759  -12.5173   17.7876 H   0  0  0  0  0  0
  -27.6248  -14.2428   19.4401 H   0  0  0  0  0  0
  -28.7302  -12.2271   21.4418 H   0  0  0  0  0  0
  -28.4339  -13.9241   21.7410 H   0  0  0  0  0  0
  -25.2729   -9.5709   22.4783 H   0  0  0  0  0  0
  -23.9982   -7.4632   22.7474 H   0  0  0  0  0  0
  -21.0820   -8.8776   19.8951 H   0  0  0  0  0  0
  -22.3658  -10.9683   19.6173 H   0  0  0  0  0  0
  -21.2029   -7.6134   23.9704 H   0  0  0  0  0  0
  -21.1454   -6.0500   25.9065 H   0  0  0  0  0  0
  -22.0611   -2.7598   23.2838 H   0  0  0  0  0  0
  -22.4013  -11.9938   22.4813 H   0  0  0  0  0  0
  -21.1068  -13.1384   22.2578 H   0  0  0  0  0  0
  -24.7070  -15.8593   20.4558 H   0  0  0  0  0  0
  -26.3209  -15.5603   20.1073 H   0  0  0  0  0  0
  -26.7209  -32.5423   23.1071 H   0  0  0  0  0  0
  -25.0128  -33.9667   25.0451 H   0  0  0  0  0  0
  -22.7271  -31.2973   21.3906 H   0  0  0  0  0  0
  -23.3742  -35.9595   23.3298 H   0  0  0  0  0  0
  -24.3548  -36.8888   22.2051 H   0  0  0  0  0  0
  -23.7210  -37.6464   23.6653 H   0  0  0  0  0  0
  -26.0996  -31.5298   20.5980 H   0  0  0  0  0  0
  -26.8504  -30.8303   22.0009 H   0  0  0  0  0  0
  -28.1329  -28.9534   21.1734 H   0  0  0  0  0  0
  -25.9978  -25.8994   19.0030 H   0  0  0  0  0  0
  -23.9879  -27.2845   19.0161 H   0  0  0  0  0  0
  -23.7822  -30.5771   19.4016 H   0  0  0  0  0  0
  -22.7665  -29.2437   19.8476 H   0  0  0  0  0  0
  -25.1270  -36.1922   25.0836 H   0  0  0  0  0  0
  -21.0013  -28.3289   24.1368 H   0  0  0  0  0  0
  -20.5703  -26.2322   23.3650 H   0  0  0  0  0  0
  -21.6645  -26.7424   22.1196 H   0  0  0  0  0  0
  -19.6882  -25.6202   21.1347 H   0  0  0  0  0  0
  -19.6674  -27.3065   20.6725 H   0  0  0  0  0  0
  -17.4203  -26.6677   21.4046 H   0  0  0  0  0  0
  -18.0298  -26.0046   22.9030 H   0  0  0  0  0  0
  -19.7928  -30.7252   24.2301 H   0  0  0  0  0  0
  -17.5004  -31.6220   24.5224 H   0  0  0  0  0  0
  -15.5358  -30.2970   23.7610 H   0  0  0  0  0  0
  -15.8693  -28.0788   22.7066 H   0  0  0  0  0  0
  -24.5924  -30.7060   25.7728 H   0  0  0  0  0  0
  -24.8903  -32.2875   26.4841 H   0  0  0  0  0  0
  -25.8043  -30.8892   27.0206 H   0  0  0  0  0  0
  -26.2947  -29.6727   24.1220 H   0  0  0  0  0  0
  -27.4110  -29.7301   25.4671 H   0  0  0  0  0  0
  -27.8800  -30.4286   23.9357 H   0  0  0  0  0  0
  -27.2746  -33.3633   26.2015 H   0  0  0  0  0  0
  -28.3912  -32.6822   25.0276 H   0  0  0  0  0  0
  -28.0755  -31.8436   26.5392 H   0  0  0  0  0  0
  -28.2608  -38.0073   24.7515 H   0  0  0  0  0  0
  -28.1046  -36.2612   24.6298 H   0  0  0  0  0  0
  -27.2291  -37.1445   25.8877 H   0  0  0  0  0  0
  -20.9427  -29.8800   21.6842 H   0  0  0  0  0  0
  -26.0151  -38.2852   24.1452 H   0  0  0  0  0  0
  -27.2255  -17.1366   19.6996 H   0  0  0  0  0  0
  -28.6498  -22.4867   22.2224 H   0  0  0  0  0  0
  -30.2294  -22.3327   21.6636 H   0  0  0  0  0  0
  -28.3091  -22.1002   18.0595 H   0  0  0  0  0  0
  -27.0169  -22.4759   19.1042 H   0  0  0  0  0  0
  -30.2935  -24.4687   20.6863 H   0  0  0  0  0  0
  -29.3237  -24.7327   22.0918 H   0  0  0  0  0  0
  -27.6941  -24.5402   18.1458 H   0  0  0  0  0  0
  -29.3728  -24.2730   18.4916 H   0  0  0  0  0  0
  -28.9854  -16.9070   22.0368 H   0  0  0  0  0  0
  -30.7432  -17.1710   21.8608 H   0  0  0  0  0  0
  -30.3534  -18.8485   20.2759 H   0  0  0  0  0  0
  -29.7236  -21.3269   19.7114 H   0  0  0  0  0  0
  -27.2567  -24.7656   20.6535 H   0  0  0  0  0  0
  -28.9774  -16.8014   18.5859 H   0  0  0  0  0  0
  -26.6245  -21.9845   22.7215 H   0  0  0  0  0  0
  -25.1804  -22.2553   21.7959 H   0  0  0  0  0  0
  -26.6443  -22.8893   21.2168 H   0  0  0  0  0  0
  -23.9962  -20.4705   22.1565 H   0  0  0  0  0  0
  -23.3914  -19.3060   21.0151 H   0  0  0  0  0  0
  -23.6819  -20.9603   20.4806 H   0  0  0  0  0  0
  -29.9616  -17.5342   16.5086 H   0  0  0  0  0  0
  -31.6404  -18.0306   16.4295 H   0  0  0  0  0  0
  -30.4887  -18.9599   17.3914 H   0  0  0  0  0  0
  -32.5277  -17.1867   19.9925 H   0  0  0  0  0  0
  -32.2894  -18.7160   19.1697 H   0  0  0  0  0  0
  -33.2385  -17.4525   18.4115 H   0  0  0  0  0  0
  -23.0723  -18.2626   18.6299 H   0  0  0  0  0  0
  -24.2903  -17.3267   17.7672 H   0  0  0  0  0  0
  -24.5524  -19.0435   18.0569 H   0  0  0  0  0  0
  -31.3353  -16.0863   17.9445 H   0  0  0  0  0  0
  1 25  1  0  0  0
  1 30  2  0  0  0
  1 92  1  0  0  0
  2  3  1  0  0  0
  2 25  1  0  0  0
  2 94  1  0  0  0
  2 95  1  0  0  0
  3  4  1  0  0  0
  3 96  1  0  0  0
  3 97  1  0  0  0
  4  5  1  0  0  0
  4 98  1  0  0  0
  4 99  1  0  0  0
  5  6  1  0  0  0
  5 26  1  0  0  0
  5100  1  0  0  0
  6 25  1  0  0  0
  6101  1  0  0  0
  6102  1  0  0  0
  7  8  2  0  0  0
  7 26  1  0  0  0
  7 29  1  0  0  0
  8  9  1  0  0  0
  8 22  1  0  0  0
  9 10  1  0  0  0
  9 27  2  0  0  0
 10 11  2  0  0  0
 10 15  1  0  0  0
 11 12  1  0  0  0
 11103  1  0  0  0
 12 13  2  0  0  0
 12104  1  0  0  0
 13 14  1  0  0  0
 13 31  1  0  0  0
 14 15  2  0  0  0
 14105  1  0  0  0
 15106  1  0  0  0
 16 17  2  0  0  0
 16 21  1  0  0  0
 16 31  1  0  0  0
 17 18  1  0  0  0
 17107  1  0  0  0
 18 19  2  0  0  0
 18108  1  0  0  0
 19 20  1  0  0  0
 19 24  1  0  0  0
 20 21  2  0  0  0
 20109  1  0  0  0
 21 23  1  0  0  0
 22 28  1  0  0  0
 22 32  2  0  0  0
 26 27  1  0  0  0
 28110  1  0  0  0
 28111  1  0  0  0
 29112  1  0  0  0
 29113  1  0  0  0
 33 34  1  0  0  0
 33 66  1  0  0  0
 33 70  2  0  0  0
 34 36  1  0  0  0
 34 59  1  0  0  0
 34114  1  0  0  0
 35 44  2  0  0  0
 35 45  1  0  0  0
 35 68  1  0  0  0
 36 56  1  0  0  0
 36115  1  0  0  0
 37 39  1  0  0  0
 37 47  1  0  0  0
 37 66  1  0  0  0
 37116  1  0  0  0
 38 43  2  0  0  0
 38 46  1  0  0  0
 38 47  1  0  0  0
 39 64  1  0  0  0
 39 67  2  0  0  0
 40 52  1  0  0  0
 40 53  2  0  0  0
 40 58  1  0  0  0
 41117  1  0  0  0
 41118  1  0  0  0
 41119  1  0  0  0
 41 48  1  0  0  0
 42 43  1  0  0  0
 42 66  1  0  0  0
 42120  1  0  0  0
 42121  1  0  0  0
 43 44  1  0  0  0
 44122  1  0  0  0
 45 46  2  0  0  0
 45123  1  0  0  0
 46124  1  0  0  0
 47125  1  0  0  0
 47126  1  0  0  0
 48 56  1  0  0  0
 48 65  1  0  0  0
 48127  1  0  0  0
 49 50  1  0  0  0
 49 53  1  0  0  0
 49 64  1  0  0  0
 49128  1  0  0  0
 50 51  1  0  0  0
 50129  1  0  0  0
 50130  1  0  0  0
 51 52  1  0  0  0
 51131  1  0  0  0
 51132  1  0  0  0
 52133  1  0  0  0
 52134  1  0  0  0
 53 54  1  0  0  0
 54 55  2  0  0  0
 54135  1  0  0  0
 55 57  1  0  0  0
 55136  1  0  0  0
 56 69  2  0  0  0
 57 58  2  0  0  0
 57137  1  0  0  0
 58138  1  0  0  0
 59 60  1  0  0  0
 59 61  1  0  0  0
 59 62  1  0  0  0
 60139  1  0  0  0
 60140  1  0  0  0
 60141  1  0  0  0
 61142  1  0  0  0
 61143  1  0  0  0
 61144  1  0  0  0
 62145  1  0  0  0
 62146  1  0  0  0
 62147  1  0  0  0
 63 65  1  0  0  0
 63148  1  0  0  0
 63149  1  0  0  0
 63150  1  0  0  0
 64151  1  0  0  0
 65152  1  0  0  0
 68 84  1  0  0  0
 71 72  2  0  0  0
 71 76  1  0  0  0
 71153  1  0  0  0
 72 73  1  0  0  0
 72 82  1  0  0  0
 73 74  2  0  0  0
 73 83  1  0  0  0
 74 75  1  0  0  0
 74 86  1  0  0  0
 75 76  2  0  0  0
 75 87  1  0  0  0
 76 93  1  0  0  0
 77 79  1  0  0  0
 77 83  1  0  0  0
 77154  1  0  0  0
 77155  1  0  0  0
 78 80  1  0  0  0
 78 83  1  0  0  0
 78156  1  0  0  0
 78157  1  0  0  0
 79 84  1  0  0  0
 79158  1  0  0  0
 79159  1  0  0  0
 80 84  1  0  0  0
 80160  1  0  0  0
 80161  1  0  0  0
 81 82  1  0  0  0
 81 92  1  0  0  0
 81162  1  0  0  0
 81163  1  0  0  0
 82 85  1  0  0  0
 82164  1  0  0  0
 83165  1  0  0  0
 84166  1  0  0  0
 85 91  1  0  0  0
 85 92  1  0  0  0
 85167  1  0  0  0
 86168  1  0  0  0
 86169  1  0  0  0
 86170  1  0  0  0
 87171  1  0  0  0
 87172  1  0  0  0
 87173  1  0  0  0
 88174  1  0  0  0
 88175  1  0  0  0
 88176  1  0  0  0
 88 91  1  0  0  0
 89 91  1  0  0  0
 89177  1  0  0  0
 89178  1  0  0  0
 89179  1  0  0  0
 90 93  1  0  0  0
 90180  1  0  0  0
 90181  1  0  0  0
 90182  1  0  0  0
 91183  1  0  0  0
M  ISO  4   1 100  68 101  84 101  92 100
M  END
> <chiral flag>
0

> <version>
0

> <s_m_source_file>
/data/baiqing/PycharmProjects/Reinvent-master-3.2/result/LINK_invent/BTK/process_docking_weight1_custom_sum_contain_oxygen_bond_distance_aromatic_linkinvent_7_9_3/rearranged_h_0162.sdf

> <i_m_source_file_index>
30

> <r_mmod_Potential_Energy-OPLS-2005>
506.294891357422

> <r_mmod_Stretch_Energy-OPLS-2005>
133.965576171875

> <r_mmod_Bend_Energy-OPLS-2005>
222.21598815918

> <r_mmod_Torsional_Energy-OPLS-2005>
465.288024902344

> <r_mmod_Improper_Torsional_Energy-OPLS-2005>
16.1229476928711

> <r_mmod_Van_der_Waal_Energy-OPLS-2005>
158.180038452148

> <r_mmod_Electrostatic_Energy-OPLS-2005>
-399.189910888672

> <r_mmod_Solvation_Energy-OPLS-2005>
-174.994674682617

> <b_mmod_Minimization_Converged-OPLS-2005>
0

> <r_mmod_RMS_Derivative-OPLS-2005>
3.53781962394714

$$$$
30
                    3D
 Structure written by MMmdl.
166175  0  0  1  0            999 V2000
  -30.5833  -15.0053   20.4132 C   0  0  0  0  0  0
  -30.4318  -12.6402   19.4885 C   0  0  0  0  0  0
  -29.5162  -12.5221   18.2500 C   0  0  0  0  0  0
  -28.0553  -12.3010   18.6816 C   0  0  0  0  0  0
  -27.6180  -13.2600   19.8200 C   0  0  2  0  0  0
  -28.6624  -13.3670   20.9484 C   0  0  0  0  0  0
  -25.2441  -13.8237   20.5757 C   0  0  0  0  0  0
  -24.1760  -13.0460   20.9245 C   0  0  0  0  0  0
  -24.6398  -11.6943   20.8752 C   0  0  0  0  0  0
  -23.9086  -10.4297   21.0403 C   0  0  0  0  0  0
  -24.3618   -9.4201   21.9169 C   0  0  0  0  0  0
  -23.6281   -8.2244   22.0742 C   0  0  0  0  0  0
  -22.4264   -8.0288   21.3542 C   0  0  0  0  0  0
  -21.9909   -9.0256   20.4645 C   0  0  0  0  0  0
  -22.7252  -10.2136   20.3057 C   0  0  0  0  0  0
  -21.6849   -6.0741   22.5286 C   0  0  0  0  0  0
  -21.4018   -6.5638   23.8223 C   0  0  0  0  0  0
  -21.3653   -5.6783   24.9177 C   0  0  0  0  0  0
  -21.6030   -4.3048   24.7211 C   0  0  0  0  0  0
  -21.8812   -3.8142   23.4334 C   0  0  0  0  0  0
  -21.9187   -4.6970   22.3394 C   0  0  0  0  0  0
  -22.7772  -13.5241   21.1873 C   0  0  0  0  0  0
  -22.1666   -4.2167   21.0966 F   0  0  0  0  0  0
  -21.5617   -3.4515   25.7714 F   0  0  0  0  0  0
  -29.9209  -13.7771   20.3142 N   0  0  0  0  0  0
  -26.2851  -12.9492   20.3209 N   0  0  0  0  0  0
  -25.9327  -11.6602   20.5703 N   0  0  0  0  0  0
  -22.0419  -12.8249   22.0441 N   0  0  0  0  0  0
  -25.4146  -15.1952   20.4250 N   0  0  0  0  0  0
  -31.8131  -14.9397   20.2819 O   0  0  0  0  0  0
  -21.6630   -6.8882   21.4249 O   0  0  0  0  0  0
  -22.3466  -14.5545   20.6698 O   0  0  0  0  0  0
  -24.6462  -31.8424   23.1855 C   0  0  0  0  0  0
  -25.9215  -32.4689   23.8268 C   0  0  1  0  0  0
  -27.2124  -27.1076   20.1537 C   0  0  0  0  0  0
  -25.5943  -33.8493   24.2180 N   0  0  0  0  0  0
  -23.4505  -30.4590   21.5337 C   0  0  2  0  0  0
  -24.8973  -28.8794   20.1108 C   0  0  0  0  0  0
  -22.7583  -29.4524   22.4867 C   0  0  0  0  0  0
  -18.0311  -28.1387   22.8475 C   0  0  0  0  0  0
  -24.1483  -36.7253   23.2642 C   0  0  0  0  0  0
  -26.0072  -30.7054   21.3865 C   0  0  0  0  0  0
  -26.0766  -29.3139   20.7289 C   0  0  0  0  0  0
  -27.2341  -28.4438   20.7322 C   0  0  0  0  0  0
  -26.0078  -26.7827   19.4918 C   0  0  0  0  0  0
  -24.8767  -27.6279   19.4777 C   0  0  0  0  0  0
  -23.6771  -29.7873   20.1536 C   0  0  0  0  0  0
  -25.4115  -36.3036   24.0319 C   0  0  1  0  0  0
  -20.5922  -28.3710   23.1239 C   0  0  2  0  0  0
  -20.6781  -26.9411   22.5405 C   0  0  0  0  0  0
  -19.5759  -26.6371   21.5210 C   0  0  0  0  0  0
  -18.1945  -26.7924   22.1618 C   0  0  0  0  0  0
  -19.1566  -28.8874   23.2844 C   0  0  0  0  0  0
  -18.9482  -30.1467   23.8873 C   0  0  0  0  0  0
  -17.6480  -30.6587   24.0562 C   0  0  0  0  0  0
  -25.9072  -34.9409   23.5061 C   0  0  0  0  0  0
  -16.5371  -29.9085   23.6332 C   0  0  0  0  0  0
  -16.7293  -28.6496   23.0362 C   0  0  0  0  0  0
  -26.4515  -31.6573   25.0728 C   0  0  0  0  0  0
  -25.3685  -31.3782   26.1423 C   0  0  0  0  0  0
  -27.0377  -30.2969   24.6311 C   0  0  0  0  0  0
  -27.6044  -32.4339   25.7511 C   0  0  0  0  0  0
  -27.5573  -37.1781   24.8464 C   0  0  0  0  0  0
  -21.4274  -29.3038   22.3618 N   0  0  0  0  0  0
  -26.4280  -37.3752   23.9419 N   0  0  0  0  0  0
  -24.7219  -31.0257   22.0895 N   0  0  0  0  0  0
  -23.4206  -28.8080   23.3036 O   0  0  0  0  0  0
  -28.2534  -26.1033   20.2437 O   0  0  0  0  0  0
  -26.5674  -34.8909   22.4657 O   0  0  0  0  0  0
  -23.5572  -32.1307   23.7051 O   0  0  0  0  0  0
  -26.9818  -20.1704   18.4063 C   0  0  0  0  0  0
  -28.5821  -20.3306   20.2293 C   0  0  0  0  0  0
  -27.3203  -19.8974   19.7500 C   0  0  0  0  0  0
  -27.8144  -20.9999   17.6264 C   0  0  0  0  0  0
  -28.8721  -21.7155   19.6929 C   0  0  0  0  0  0
  -28.7674  -21.8130   18.2831 C   0  0  0  0  0  0
  -29.8687  -18.4282   18.7989 C   0  0  0  0  0  0
  -30.4833  -17.0008   18.9357 C   0  0  0  0  0  0
  -29.4126  -17.4961   20.9133 C   0  0  0  0  0  0
  -29.6034  -19.0000   20.1976 C   0  0  2  0  0  0
  -26.4466  -18.9366   20.5286 C   0  0  0  0  0  0
  -27.5963  -21.0905   16.1255 C   0  0  0  0  0  0
  -29.5264  -22.8756   17.4928 C   0  0  0  0  0  0
  -28.9197  -23.2044   20.4345 C   0  0  0  0  0  0
  -28.0051  -24.5753   19.9737 C   0  0  0  0  0  0
  -29.9465  -16.2637   20.1030 N   0  0  0  0  0  0
  -31.4600  -12.7966   19.1610 H   0  0  0  0  0  0
  -30.4382  -11.7135   20.0676 H   0  0  0  0  0  0
  -29.8500  -11.7063   17.6072 H   0  0  0  0  0  0
  -29.5885  -13.4303   17.6481 H   0  0  0  0  0  0
  -27.9710  -11.2676   19.0200 H   0  0  0  0  0  0
  -27.3884  -12.3995   17.8252 H   0  0  0  0  0  0
  -27.5568  -14.2440   19.3546 H   0  0  0  0  0  0
  -28.7764  -12.4230   21.4844 H   0  0  0  0  0  0
  -28.3521  -14.1143   21.6814 H   0  0  0  0  0  0
  -25.2778   -9.5647   22.4733 H   0  0  0  0  0  0
  -23.9971   -7.4631   22.7463 H   0  0  0  0  0  0
  -21.0842   -8.8792   19.8960 H   0  0  0  0  0  0
  -22.3725  -10.9656   19.6155 H   0  0  0  0  0  0
  -21.2051   -7.6147   23.9734 H   0  0  0  0  0  0
  -21.1474   -6.0509   25.9078 H   0  0  0  0  0  0
  -22.0604   -2.7611   23.2826 H   0  0  0  0  0  0
  -22.4050  -11.9920   22.4839 H   0  0  0  0  0  0
  -21.1035  -13.1256   22.2642 H   0  0  0  0  0  0
  -24.6516  -15.8531   20.5362 H   0  0  0  0  0  0
  -26.2761  -15.6256   20.1122 H   0  0  0  0  0  0
  -26.7285  -32.5280   23.0996 H   0  0  0  0  0  0
  -25.0041  -33.9605   25.0292 H   0  0  0  0  0  0
  -22.7543  -31.2856   21.3788 H   0  0  0  0  0  0
  -23.3761  -35.9571   23.3284 H   0  0  0  0  0  0
  -24.3563  -36.8906   22.2061 H   0  0  0  0  0  0
  -23.7216  -37.6430   23.6696 H   0  0  0  0  0  0
  -26.1641  -31.4569   20.6118 H   0  0  0  0  0  0
  -26.8775  -30.7588   22.0279 H   0  0  0  0  0  0
  -28.1305  -28.7677   21.2416 H   0  0  0  0  0  0
  -25.9016  -25.8268   19.0014 H   0  0  0  0  0  0
  -23.9748  -27.2905   18.9860 H   0  0  0  0  0  0
  -23.8166  -30.5621   19.3986 H   0  0  0  0  0  0
  -22.7892  -29.2353   19.8421 H   0  0  0  0  0  0
  -25.1299  -36.1864   25.0811 H   0  0  0  0  0  0
  -21.0001  -28.3291   24.1363 H   0  0  0  0  0  0
  -20.5652  -26.2330   23.3625 H   0  0  0  0  0  0
  -21.6656  -26.7399   22.1227 H   0  0  0  0  0  0
  -19.6920  -25.6277   21.1260 H   0  0  0  0  0  0
  -19.6695  -27.3164   20.6729 H   0  0  0  0  0  0
  -17.4208  -26.6670   21.4030 H   0  0  0  0  0  0
  -18.0342  -26.0075   22.9020 H   0  0  0  0  0  0
  -19.7963  -30.7291   24.2221 H   0  0  0  0  0  0
  -17.5038  -31.6258   24.5172 H   0  0  0  0  0  0
  -15.5371  -30.2979   23.7671 H   0  0  0  0  0  0
  -15.8690  -28.0805   22.7098 H   0  0  0  0  0  0
  -24.5868  -30.7119   25.7757 H   0  0  0  0  0  0
  -24.8864  -32.2972   26.4770 H   0  0  0  0  0  0
  -25.7957  -30.9015   27.0253 H   0  0  0  0  0  0
  -26.2999  -29.6696   24.1293 H   0  0  0  0  0  0
  -27.3971  -29.7265   25.4883 H   0  0  0  0  0  0
  -27.8916  -30.4215   23.9647 H   0  0  0  0  0  0
  -27.2648  -33.3674   26.2007 H   0  0  0  0  0  0
  -28.3897  -32.6835   25.0367 H   0  0  0  0  0  0
  -28.0662  -31.8515   26.5487 H   0  0  0  0  0  0
  -28.2585  -38.0083   24.7529 H   0  0  0  0  0  0
  -28.1081  -36.2619   24.6275 H   0  0  0  0  0  0
  -27.2305  -37.1410   25.8870 H   0  0  0  0  0  0
  -20.9494  -29.8746   21.6791 H   0  0  0  0  0  0
  -26.0146  -38.2823   24.1431 H   0  0  0  0  0  0
  -26.1392  -19.6646   17.9539 H   0  0  0  0  0  0
  -28.9301  -18.3206   18.2595 H   0  0  0  0  0  0
  -30.4961  -19.0944   18.2066 H   0  0  0  0  0  0
  -31.5616  -17.1121   19.0564 H   0  0  0  0  0  0
  -30.3303  -16.4254   18.0211 H   0  0  0  0  0  0
  -28.3643  -17.2847   21.0980 H   0  0  0  0  0  0
  -29.8753  -17.5062   21.9001 H   0  0  0  0  0  0
  -30.5542  -19.3871   20.5720 H   0  0  0  0  0  0
  -25.4133  -19.2847   20.5190 H   0  0  0  0  0  0
  -26.7655  -18.8680   21.5683 H   0  0  0  0  0  0
  -26.4666  -17.9435   20.0794 H   0  0  0  0  0  0
  -26.8673  -20.3554   15.7836 H   0  0  0  0  0  0
  -28.5281  -20.8999   15.5905 H   0  0  0  0  0  0
  -27.2293  -22.0766   15.8402 H   0  0  0  0  0  0
  -28.8422  -23.5436   16.9675 H   0  0  0  0  0  0
  -30.1682  -22.4000   16.7502 H   0  0  0  0  0  0
  -30.1763  -23.4878   18.1163 H   0  0  0  0  0  0
  -29.9666  -23.5056   20.3867 H   0  0  0  0  0  0
  -28.7461  -23.0313   21.4976 H   0  0  0  0  0  0
  -27.0028  -24.3637   20.3487 H   0  0  0  0  0  0
  -27.8957  -24.5279   18.8931 H   0  0  0  0  0  0
  1 25  1  0  0  0
  1 30  2  0  0  0
  1 86  1  0  0  0
  2  3  1  0  0  0
  2 25  1  0  0  0
  2 87  1  0  0  0
  2 88  1  0  0  0
  3  4  1  0  0  0
  3 89  1  0  0  0
  3 90  1  0  0  0
  4  5  1  0  0  0
  4 91  1  0  0  0
  4 92  1  0  0  0
  5  6  1  0  0  0
  5 26  1  0  0  0
  5 93  1  0  0  0
  6 25  1  0  0  0
  6 94  1  0  0  0
  6 95  1  0  0  0
  7  8  2  0  0  0
  7 26  1  0  0  0
  7 29  1  0  0  0
  8  9  1  0  0  0
  8 22  1  0  0  0
  9 10  1  0  0  0
  9 27  2  0  0  0
 10 11  2  0  0  0
 10 15  1  0  0  0
 11 12  1  0  0  0
 11 96  1  0  0  0
 12 13  2  0  0  0
 12 97  1  0  0  0
 13 14  1  0  0  0
 13 31  1  0  0  0
 14 15  2  0  0  0
 14 98  1  0  0  0
 15 99  1  0  0  0
 16 17  2  0  0  0
 16 21  1  0  0  0
 16 31  1  0  0  0
 17 18  1  0  0  0
 17100  1  0  0  0
 18 19  2  0  0  0
 18101  1  0  0  0
 19 20  1  0  0  0
 19 24  1  0  0  0
 20 21  2  0  0  0
 20102  1  0  0  0
 21 23  1  0  0  0
 22 28  1  0  0  0
 22 32  2  0  0  0
 26 27  1  0  0  0
 28103  1  0  0  0
 28104  1  0  0  0
 29105  1  0  0  0
 29106  1  0  0  0
 33 34  1  0  0  0
 33 66  1  0  0  0
 33 70  2  0  0  0
 34 36  1  0  0  0
 34 59  1  0  0  0
 34107  1  0  0  0
 35 44  2  0  0  0
 35 45  1  0  0  0
 35 68  1  0  0  0
 36 56  1  0  0  0
 36108  1  0  0  0
 37 39  1  0  0  0
 37 47  1  0  0  0
 37 66  1  0  0  0
 37109  1  0  0  0
 38 43  2  0  0  0
 38 46  1  0  0  0
 38 47  1  0  0  0
 39 64  1  0  0  0
 39 67  2  0  0  0
 40 52  1  0  0  0
 40 53  2  0  0  0
 40 58  1  0  0  0
 41110  1  0  0  0
 41111  1  0  0  0
 41112  1  0  0  0
 41 48  1  0  0  0
 42 43  1  0  0  0
 42 66  1  0  0  0
 42113  1  0  0  0
 42114  1  0  0  0
 43 44  1  0  0  0
 44115  1  0  0  0
 45 46  2  0  0  0
 45116  1  0  0  0
 46117  1  0  0  0
 47118  1  0  0  0
 47119  1  0  0  0
 48 56  1  0  0  0
 48 65  1  0  0  0
 48120  1  0  0  0
 49 50  1  0  0  0
 49 53  1  0  0  0
 49 64  1  0  0  0
 49121  1  0  0  0
 50 51  1  0  0  0
 50122  1  0  0  0
 50123  1  0  0  0
 51 52  1  0  0  0
 51124  1  0  0  0
 51125  1  0  0  0
 52126  1  0  0  0
 52127  1  0  0  0
 53 54  1  0  0  0
 54 55  2  0  0  0
 54128  1  0  0  0
 55 57  1  0  0  0
 55129  1  0  0  0
 56 69  2  0  0  0
 57 58  2  0  0  0
 57130  1  0  0  0
 58131  1  0  0  0
 59 60  1  0  0  0
 59 61  1  0  0  0
 59 62  1  0  0  0
 60132  1  0  0  0
 60133  1  0  0  0
 60134  1  0  0  0
 61135  1  0  0  0
 61136  1  0  0  0
 61137  1  0  0  0
 62138  1  0  0  0
 62139  1  0  0  0
 62140  1  0  0  0
 63 65  1  0  0  0
 63141  1  0  0  0
 63142  1  0  0  0
 63143  1  0  0  0
 64144  1  0  0  0
 65145  1  0  0  0
 68 85  1  0  0  0
 71 73  2  0  0  0
 71 74  1  0  0  0
 71146  1  0  0  0
 72 73  1  0  0  0
 72 75  2  0  0  0
 72 80  1  0  0  0
 73 81  1  0  0  0
 74 76  2  0  0  0
 74 82  1  0  0  0
 75 76  1  0  0  0
 75 84  1  0  0  0
 76 83  1  0  0  0
 77 78  1  0  0  0
 77 80  1  0  0  0
 77147  1  0  0  0
 77148  1  0  0  0
 78 86  1  0  0  0
 78149  1  0  0  0
 78150  1  0  0  0
 79 80  1  0  0  0
 79 86  1  0  0  0
 79151  1  0  0  0
 79152  1  0  0  0
 80153  1  0  0  0
 81154  1  0  0  0
 81155  1  0  0  0
 81156  1  0  0  0
 82157  1  0  0  0
 82158  1  0  0  0
 82159  1  0  0  0
 83160  1  0  0  0
 83161  1  0  0  0
 83162  1  0  0  0
 84 85  1  0  0  0
 84163  1  0  0  0
 84164  1  0  0  0
 85165  1  0  0  0
 85166  1  0  0  0
M  ISO  4   1 100  68 101  85 101  86 100
M  END
> <chiral flag>
0

> <version>
0

> <s_m_source_file>
/data/baiqing/PycharmProjects/Reinvent-master-3.2/result/LINK_invent/BTK/process_docking_weight1_custom_sum_contain_oxygen_bond_distance_aromatic_linkinvent_7_9_3/rearranged_h_0162.sdf

> <i_m_source_file_index>
31

> <r_mmod_Potential_Energy-OPLS-2005>
1101.55737304688

> <r_mmod_Stretch_Energy-OPLS-2005>
306.878448486328

> <r_mmod_Bend_Energy-OPLS-2005>
339.027282714844

> <r_mmod_Torsional_Energy-OPLS-2005>
563.669921875

> <r_mmod_Improper_Torsional_Energy-OPLS-2005>
47.0734252929688

> <r_mmod_Van_der_Waal_Energy-OPLS-2005>
135.826690673828

> <r_mmod_Electrostatic_Energy-OPLS-2005>
-333.167205810547

> <r_mmod_Solvation_Energy-OPLS-2005>
-192.169021606445

> <b_mmod_Minimization_Converged-OPLS-2005>
0

> <r_mmod_RMS_Derivative-OPLS-2005>
3.70539808273315

$$$$
31
                    3D
 Structure written by MMmdl.
184193  0  0  1  0            999 V2000
  -30.6824  -14.5703   20.4669 C   0  0  0  0  0  0
  -30.4190  -12.3445   19.4380 C   0  0  0  0  0  0
  -29.4942  -12.4813   18.2120 C   0  0  0  0  0  0
  -28.0188  -12.3418   18.6319 C   0  0  0  0  0  0
  -27.6514  -13.2191   19.8582 C   0  0  2  0  0  0
  -28.6996  -13.0933   20.9844 C   0  0  0  0  0  0
  -25.2578  -13.8204   20.5690 C   0  0  0  0  0  0
  -24.1841  -13.0460   20.9192 C   0  0  0  0  0  0
  -24.6422  -11.6934   20.8760 C   0  0  0  0  0  0
  -23.9089  -10.4312   21.0422 C   0  0  0  0  0  0
  -24.3654   -9.4221   21.9183 C   0  0  0  0  0  0
  -23.6322   -8.2261   22.0752 C   0  0  0  0  0  0
  -22.4296   -8.0312   21.3548 C   0  0  0  0  0  0
  -21.9941   -9.0284   20.4647 C   0  0  0  0  0  0
  -22.7272  -10.2159   20.3060 C   0  0  0  0  0  0
  -21.6849   -6.0772   22.5288 C   0  0  0  0  0  0
  -21.4005   -6.5668   23.8226 C   0  0  0  0  0  0
  -21.3643   -5.6810   24.9184 C   0  0  0  0  0  0
  -21.6047   -4.3074   24.7222 C   0  0  0  0  0  0
  -21.8818   -3.8180   23.4338 C   0  0  0  0  0  0
  -21.9197   -4.7003   22.3406 C   0  0  0  0  0  0
  -22.7867  -13.5251   21.1868 C   0  0  0  0  0  0
  -22.1662   -4.2193   21.0977 F   0  0  0  0  0  0
  -21.5628   -3.4551   25.7729 F   0  0  0  0  0  0
  -30.0121  -13.3834   20.3989 N   0  0  0  0  0  0
  -26.2998  -12.9380   20.3345 N   0  0  0  0  0  0
  -25.9352  -11.6529   20.5799 N   0  0  0  0  0  0
  -22.0530  -12.8203   22.0428 N   0  0  0  0  0  0
  -25.4299  -15.1910   20.4082 N   0  0  0  0  0  0
  -31.8748  -14.6570   20.1600 O   0  0  0  0  0  0
  -21.6638   -6.8920   21.4249 O   0  0  0  0  0  0
  -22.3536  -14.5547   20.6733 O   0  0  0  0  0  0
  -24.6237  -31.8648   23.2070 C   0  0  0  0  0  0
  -25.9102  -32.4817   23.8371 C   0  0  1  0  0  0
  -27.2306  -27.3841   20.1018 C   0  0  0  0  0  0
  -25.5909  -33.8594   24.2283 N   0  0  0  0  0  0
  -23.4118  -30.4876   21.5535 C   0  0  2  0  0  0
  -24.8561  -28.9419   20.1179 C   0  0  0  0  0  0
  -22.7473  -29.4619   22.5010 C   0  0  0  0  0  0
  -18.0279  -28.1339   22.8486 C   0  0  0  0  0  0
  -24.1485  -36.7282   23.2646 C   0  0  0  0  0  0
  -25.9448  -30.8152   21.3652 C   0  0  0  0  0  0
  -26.0235  -29.4468   20.7066 C   0  0  0  0  0  0
  -27.2166  -28.6774   20.6901 C   0  0  0  0  0  0
  -26.0482  -26.9093   19.5000 C   0  0  0  0  0  0
  -24.8667  -27.6741   19.5102 C   0  0  0  0  0  0
  -23.6195  -29.8177   20.1667 C   0  0  0  0  0  0
  -25.4120  -36.3094   24.0325 C   0  0  1  0  0  0
  -20.5866  -28.3654   23.1293 C   0  0  2  0  0  0
  -20.6789  -26.9374   22.5412 C   0  0  0  0  0  0
  -19.5757  -26.6346   21.5209 C   0  0  0  0  0  0
  -18.1927  -26.7893   22.1601 C   0  0  0  0  0  0
  -19.1521  -28.8812   23.2892 C   0  0  0  0  0  0
  -18.9451  -30.1406   23.8901 C   0  0  0  0  0  0
  -17.6458  -30.6564   24.0525 C   0  0  0  0  0  0
  -25.9039  -34.9460   23.5108 C   0  0  0  0  0  0
  -16.5345  -29.9041   23.6330 C   0  0  0  0  0  0
  -16.7261  -28.6439   23.0370 C   0  0  0  0  0  0
  -26.4487  -31.6623   25.0723 C   0  0  0  0  0  0
  -25.3710  -31.3707   26.1446 C   0  0  0  0  0  0
  -27.0343  -30.3075   24.6125 C   0  0  0  0  0  0
  -27.6074  -32.4351   25.7447 C   0  0  0  0  0  0
  -27.5584  -37.1829   24.8466 C   0  0  0  0  0  0
  -21.4198  -29.2984   22.3703 N   0  0  0  0  0  0
  -26.4302  -37.3788   23.9380 N   0  0  0  0  0  0
  -24.6795  -31.0701   22.0999 N   0  0  0  0  0  0
  -23.4218  -28.8215   23.3121 O   0  0  0  0  0  0
  -28.3731  -26.5950   20.0896 O   0  0  0  0  0  0
  -26.5621  -34.8932   22.4682 O   0  0  0  0  0  0
  -23.5430  -32.1390   23.7457 O   0  0  0  0  0  0
  -28.2129  -21.1934   24.3212 C   0  0  0  0  0  0
  -26.8712  -20.9511   24.6595 C   0  0  0  0  0  0
  -28.7088  -20.9048   23.0383 C   0  0  0  0  0  0
  -25.9951  -20.3916   23.6991 C   0  0  0  0  0  0
  -26.4674  -20.1219   22.3833 C   0  0  0  0  0  0
  -27.8342  -20.3801   22.0411 C   0  0  0  0  0  0
  -28.8524  -17.7594   19.4371 C   0  0  0  0  0  0
  -29.3512  -17.8781   21.8100 C   0  0  0  0  0  0
  -29.7612  -16.4957   19.3259 C   0  0  0  0  0  0
  -30.2799  -16.6324   21.6817 C   0  0  0  0  0  0
  -29.2903  -18.7687   20.5331 C   0  0  0  0  0  0
  -26.4039  -21.2884   26.0650 C   0  0  0  0  0  0
  -30.1970  -21.1594   22.8130 C   0  0  0  0  0  0
  -24.5501  -20.0673   24.0814 C   0  0  0  0  0  0
  -25.5002  -19.5468   21.3404 C   0  0  0  0  0  0
  -29.9018  -21.3519   18.8727 C   0  0  0  0  0  0
  -28.4936  -24.0217   19.7834 C   0  0  0  0  0  0
  -28.2776  -25.2785   20.7093 C   0  0  0  0  0  0
  -28.3657  -20.0796   20.6178 C   0  0  2  0  0  0
  -28.6367  -21.4065   19.7525 C   0  0  1  0  0  0
  -29.9315  -15.7134   20.5781 N   0  0  0  0  0  0
  -28.5399  -22.7040   20.5265 N   0  3  0  0  0  0
  -31.4628  -12.4383   19.1309 H   0  0  0  0  0  0
  -30.3284  -11.3540   19.8876 H   0  0  0  0  0  0
  -29.7444  -11.7294   17.4637 H   0  0  0  0  0  0
  -29.6509  -13.4489   17.7344 H   0  0  0  0  0  0
  -27.8444  -11.2905   18.8621 H   0  0  0  0  0  0
  -27.3644  -12.5807   17.7937 H   0  0  0  0  0  0
  -27.6656  -14.2508   19.5110 H   0  0  0  0  0  0
  -28.6946  -12.0922   21.4171 H   0  0  0  0  0  0
  -28.4729  -13.7849   21.7991 H   0  0  0  0  0  0
  -25.2809   -9.5687   22.4742 H   0  0  0  0  0  0
  -24.0040   -7.4644   22.7461 H   0  0  0  0  0  0
  -21.0884   -8.8821   19.8941 H   0  0  0  0  0  0
  -22.3756  -10.9712   19.6177 H   0  0  0  0  0  0
  -21.1982   -7.6171   23.9743 H   0  0  0  0  0  0
  -21.1452   -6.0531   25.9085 H   0  0  0  0  0  0
  -22.0609   -2.7647   23.2825 H   0  0  0  0  0  0
  -22.4166  -11.9854   22.4754 H   0  0  0  0  0  0
  -21.1168  -13.1224   22.2690 H   0  0  0  0  0  0
  -24.6672  -15.8509   20.5135 H   0  0  0  0  0  0
  -26.3006  -15.6273   20.1304 H   0  0  0  0  0  0
  -26.7198  -32.5496   23.1152 H   0  0  0  0  0  0
  -25.0066  -33.9703   25.0451 H   0  0  0  0  0  0
  -22.7048  -31.3086   21.4180 H   0  0  0  0  0  0
  -23.3755  -35.9609   23.3312 H   0  0  0  0  0  0
  -24.3587  -36.8914   22.2063 H   0  0  0  0  0  0
  -23.7249  -37.6487   23.6678 H   0  0  0  0  0  0
  -26.0709  -31.5893   20.6064 H   0  0  0  0  0  0
  -26.8232  -30.8592   21.9980 H   0  0  0  0  0  0
  -28.1157  -29.0649   21.1491 H   0  0  0  0  0  0
  -26.0348  -25.9427   19.0151 H   0  0  0  0  0  0
  -23.9700  -27.2823   19.0479 H   0  0  0  0  0  0
  -23.7329  -30.5921   19.4071 H   0  0  0  0  0  0
  -22.7420  -29.2395   19.8752 H   0  0  0  0  0  0
  -25.1340  -36.1962   25.0830 H   0  0  0  0  0  0
  -20.9948  -28.3232   24.1413 H   0  0  0  0  0  0
  -20.5713  -26.2239   23.3615 H   0  0  0  0  0  0
  -21.6675  -26.7450   22.1197 H   0  0  0  0  0  0
  -19.6908  -25.6258   21.1227 H   0  0  0  0  0  0
  -19.6698  -27.3168   20.6748 H   0  0  0  0  0  0
  -17.4223  -26.6636   21.3963 H   0  0  0  0  0  0
  -18.0288  -25.9995   22.8944 H   0  0  0  0  0  0
  -19.7929  -30.7193   24.2283 H   0  0  0  0  0  0
  -17.5013  -31.6247   24.5122 H   0  0  0  0  0  0
  -15.5339  -30.2945   23.7643 H   0  0  0  0  0  0
  -15.8662  -28.0776   22.7101 H   0  0  0  0  0  0
  -24.5897  -30.7076   25.7723 H   0  0  0  0  0  0
  -24.8876  -32.2827   26.4936 H   0  0  0  0  0  0
  -25.8009  -30.8827   27.0190 H   0  0  0  0  0  0
  -26.2883  -29.6820   24.1221 H   0  0  0  0  0  0
  -27.4136  -29.7388   25.4622 H   0  0  0  0  0  0
  -27.8706  -30.4399   23.9263 H   0  0  0  0  0  0
  -27.2730  -33.3664   26.2029 H   0  0  0  0  0  0
  -28.3840  -32.6900   25.0222 H   0  0  0  0  0  0
  -28.0775  -31.8457   26.5349 H   0  0  0  0  0  0
  -28.2661  -38.0084   24.7530 H   0  0  0  0  0  0
  -28.1026  -36.2627   24.6296 H   0  0  0  0  0  0
  -27.2264  -37.1481   25.8861 H   0  0  0  0  0  0
  -20.9381  -29.8657   21.6880 H   0  0  0  0  0  0
  -26.0193  -38.2853   24.1394 H   0  0  0  0  0  0
  -28.8857  -21.5970   25.0660 H   0  0  0  0  0  0
  -27.8315  -17.4316   19.6366 H   0  0  0  0  0  0
  -28.8135  -18.2593   18.4676 H   0  0  0  0  0  0
  -29.7084  -18.4548   22.6598 H   0  0  0  0  0  0
  -28.3470  -17.5474   22.0789 H   0  0  0  0  0  0
  -30.7428  -16.8003   18.9579 H   0  0  0  0  0  0
  -29.3429  -15.8401   18.5617 H   0  0  0  0  0  0
  -30.2616  -16.0779   22.6202 H   0  0  0  0  0  0
  -31.3093  -16.9693   21.5486 H   0  0  0  0  0  0
  -30.3136  -19.0859   20.3266 H   0  0  0  0  0  0
  -27.2080  -21.7097   26.6708 H   0  0  0  0  0  0
  -26.0476  -20.3936   26.5753 H   0  0  0  0  0  0
  -25.5930  -22.0179   26.0383 H   0  0  0  0  0  0
  -30.7894  -20.4397   23.3807 H   0  0  0  0  0  0
  -30.4672  -22.1523   23.1773 H   0  0  0  0  0  0
  -30.5126  -21.0865   21.7741 H   0  0  0  0  0  0
  -24.3380  -20.1318   25.1458 H   0  0  0  0  0  0
  -24.3021  -19.0420   23.8049 H   0  0  0  0  0  0
  -23.8605  -20.7414   23.5723 H   0  0  0  0  0  0
  -24.4798  -19.4017   21.6822 H   0  0  0  0  0  0
  -25.8496  -18.5727   20.9964 H   0  0  0  0  0  0
  -25.4256  -20.2174   20.4837 H   0  0  0  0  0  0
  -29.9743  -20.4101   18.3280 H   0  0  0  0  0  0
  -30.8142  -21.4616   19.4554 H   0  0  0  0  0  0
  -29.8857  -22.1388   18.1169 H   0  0  0  0  0  0
  -29.4280  -24.1515   19.2393 H   0  0  0  0  0  0
  -27.6983  -23.9877   19.0392 H   0  0  0  0  0  0
  -29.0554  -25.2590   21.4731 H   0  0  0  0  0  0
  -27.3453  -25.1811   21.2657 H   0  0  0  0  0  0
  -27.5171  -19.7048   20.0617 H   0  0  0  0  0  0
  -27.8044  -21.4665   19.0492 H   0  0  0  0  0  0
  -27.6970  -22.6301   21.0780 H   0  0  0  0  0  0
  -29.2986  -22.7266   21.1913 H   0  0  0  0  0  0
  1 25  1  0  0  0
  1 30  2  0  0  0
  1 91  1  0  0  0
  2  3  1  0  0  0
  2 25  1  0  0  0
  2 93  1  0  0  0
  2 94  1  0  0  0
  3  4  1  0  0  0
  3 95  1  0  0  0
  3 96  1  0  0  0
  4  5  1  0  0  0
  4 97  1  0  0  0
  4 98  1  0  0  0
  5  6  1  0  0  0
  5 26  1  0  0  0
  5 99  1  0  0  0
  6 25  1  0  0  0
  6100  1  0  0  0
  6101  1  0  0  0
  7  8  2  0  0  0
  7 26  1  0  0  0
  7 29  1  0  0  0
  8  9  1  0  0  0
  8 22  1  0  0  0
  9 10  1  0  0  0
  9 27  2  0  0  0
 10 11  2  0  0  0
 10 15  1  0  0  0
 11 12  1  0  0  0
 11102  1  0  0  0
 12 13  2  0  0  0
 12103  1  0  0  0
 13 14  1  0  0  0
 13 31  1  0  0  0
 14 15  2  0  0  0
 14104  1  0  0  0
 15105  1  0  0  0
 16 17  2  0  0  0
 16 21  1  0  0  0
 16 31  1  0  0  0
 17 18  1  0  0  0
 17106  1  0  0  0
 18 19  2  0  0  0
 18107  1  0  0  0
 19 20  1  0  0  0
 19 24  1  0  0  0
 20 21  2  0  0  0
 20108  1  0  0  0
 21 23  1  0  0  0
 22 28  1  0  0  0
 22 32  2  0  0  0
 26 27  1  0  0  0
 28109  1  0  0  0
 28110  1  0  0  0
 29111  1  0  0  0
 29112  1  0  0  0
 33 34  1  0  0  0
 33 66  1  0  0  0
 33 70  2  0  0  0
 34 36  1  0  0  0
 34 59  1  0  0  0
 34113  1  0  0  0
 35 44  2  0  0  0
 35 45  1  0  0  0
 35 68  1  0  0  0
 36 56  1  0  0  0
 36114  1  0  0  0
 37 39  1  0  0  0
 37 47  1  0  0  0
 37 66  1  0  0  0
 37115  1  0  0  0
 38 43  2  0  0  0
 38 46  1  0  0  0
 38 47  1  0  0  0
 39 64  1  0  0  0
 39 67  2  0  0  0
 40 52  1  0  0  0
 40 53  2  0  0  0
 40 58  1  0  0  0
 41116  1  0  0  0
 41117  1  0  0  0
 41118  1  0  0  0
 41 48  1  0  0  0
 42 43  1  0  0  0
 42 66  1  0  0  0
 42119  1  0  0  0
 42120  1  0  0  0
 43 44  1  0  0  0
 44121  1  0  0  0
 45 46  2  0  0  0
 45122  1  0  0  0
 46123  1  0  0  0
 47124  1  0  0  0
 47125  1  0  0  0
 48 56  1  0  0  0
 48 65  1  0  0  0
 48126  1  0  0  0
 49 50  1  0  0  0
 49 53  1  0  0  0
 49 64  1  0  0  0
 49127  1  0  0  0
 50 51  1  0  0  0
 50128  1  0  0  0
 50129  1  0  0  0
 51 52  1  0  0  0
 51130  1  0  0  0
 51131  1  0  0  0
 52132  1  0  0  0
 52133  1  0  0  0
 53 54  1  0  0  0
 54 55  2  0  0  0
 54134  1  0  0  0
 55 57  1  0  0  0
 55135  1  0  0  0
 56 69  2  0  0  0
 57 58  2  0  0  0
 57136  1  0  0  0
 58137  1  0  0  0
 59 60  1  0  0  0
 59 61  1  0  0  0
 59 62  1  0  0  0
 60138  1  0  0  0
 60139  1  0  0  0
 60140  1  0  0  0
 61141  1  0  0  0
 61142  1  0  0  0
 61143  1  0  0  0
 62144  1  0  0  0
 62145  1  0  0  0
 62146  1  0  0  0
 63 65  1  0  0  0
 63147  1  0  0  0
 63148  1  0  0  0
 63149  1  0  0  0
 64150  1  0  0  0
 65151  1  0  0  0
 68 88  1  0  0  0
 71 72  2  0  0  0
 71 73  1  0  0  0
 71152  1  0  0  0
 72 74  1  0  0  0
 72 82  1  0  0  0
 73 76  2  0  0  0
 73 83  1  0  0  0
 74 75  2  0  0  0
 74 84  1  0  0  0
 75 76  1  0  0  0
 75 85  1  0  0  0
 76 89  1  0  0  0
 77 79  1  0  0  0
 77153  1  0  0  0
 77154  1  0  0  0
 77 81  1  0  0  0
 78 80  1  0  0  0
 78 81  1  0  0  0
 78155  1  0  0  0
 78156  1  0  0  0
 79 91  1  0  0  0
 79157  1  0  0  0
 79158  1  0  0  0
 80 91  1  0  0  0
 80159  1  0  0  0
 80160  1  0  0  0
 81 89  1  0  0  0
 81161  1  0  0  0
 82162  1  0  0  0
 82163  1  0  0  0
 82164  1  0  0  0
 83165  1  0  0  0
 83166  1  0  0  0
 83167  1  0  0  0
 84168  1  0  0  0
 84169  1  0  0  0
 84170  1  0  0  0
 85171  1  0  0  0
 85172  1  0  0  0
 85173  1  0  0  0
 86174  1  0  0  0
 86175  1  0  0  0
 86176  1  0  0  0
 86 90  1  0  0  0
 87 88  1  0  0  0
 87 92  1  0  0  0
 87177  1  0  0  0
 87178  1  0  0  0
 88179  1  0  0  0
 88180  1  0  0  0
 89 90  1  0  0  0
 89181  1  0  0  0
 90 92  1  0  0  0
 90182  1  0  0  0
 92183  1  0  0  0
 92184  1  0  0  0
M  CHG  1  92   1
M  ISO  4   1 100  68 101  88 101  91 100
M  END
> <chiral flag>
0

> <version>
0

> <s_m_source_file>
/data/baiqing/PycharmProjects/Reinvent-master-3.2/result/LINK_invent/BTK/process_docking_weight1_custom_sum_contain_oxygen_bond_distance_aromatic_linkinvent_7_9_3/rearranged_h_0162.sdf

> <i_m_source_file_index>
32

> <r_mmod_Potential_Energy-OPLS-2005>
181.677444458008

> <r_mmod_Stretch_Energy-OPLS-2005>
74.9113235473633

> <r_mmod_Bend_Energy-OPLS-2005>
162.293395996094

> <r_mmod_Torsional_Energy-OPLS-2005>
383.507385253906

> <r_mmod_Improper_Torsional_Energy-OPLS-2005>
12.1411056518555

> <r_mmod_Van_der_Waal_Energy-OPLS-2005>
164.066665649414

> <r_mmod_Electrostatic_Energy-OPLS-2005>
-249.044921875

> <r_mmod_Solvation_Energy-OPLS-2005>
-397.01611328125

> <b_mmod_Minimization_Converged-OPLS-2005>
0

> <r_mmod_RMS_Derivative-OPLS-2005>
4.33088636398315

$$$$
32
                    3D
 Structure written by MMmdl.
163172  0  0  1  0            999 V2000
  -30.4731  -15.3726   20.3715 C   0  0  0  0  0  0
  -30.4150  -12.9083   19.4932 C   0  0  0  0  0  0
  -29.5192  -12.5876   18.2742 C   0  0  0  0  0  0
  -28.0828  -12.2878   18.7278 C   0  0  0  0  0  0
  -27.5967  -13.2883   19.8050 C   0  0  2  0  0  0
  -28.6355  -13.5568   20.9157 C   0  0  0  0  0  0
  -25.2362  -13.8273   20.5799 C   0  0  0  0  0  0
  -24.1723  -13.0444   20.9285 C   0  0  0  0  0  0
  -24.6395  -11.6943   20.8776 C   0  0  0  0  0  0
  -23.9095  -10.4295   21.0405 C   0  0  0  0  0  0
  -24.3640   -9.4207   21.9181 C   0  0  0  0  0  0
  -23.6309   -8.2243   22.0752 C   0  0  0  0  0  0
  -22.4290   -8.0282   21.3542 C   0  0  0  0  0  0
  -21.9931   -9.0255   20.4642 C   0  0  0  0  0  0
  -22.7266  -10.2133   20.3051 C   0  0  0  0  0  0
  -21.6859   -6.0738   22.5277 C   0  0  0  0  0  0
  -21.4018   -6.5640   23.8211 C   0  0  0  0  0  0
  -21.3662   -5.6791   24.9173 C   0  0  0  0  0  0
  -21.6045   -4.3054   24.7221 C   0  0  0  0  0  0
  -21.8820   -3.8146   23.4343 C   0  0  0  0  0  0
  -21.9194   -4.6964   22.3400 C   0  0  0  0  0  0
  -22.7738  -13.5185   21.1914 C   0  0  0  0  0  0
  -22.1663   -4.2149   21.0978 F   0  0  0  0  0  0
  -21.5629   -3.4538   25.7735 F   0  0  0  0  0  0
  -29.8269  -14.0983   20.2335 N   0  0  0  0  0  0
  -26.2780  -12.9563   20.3236 N   0  0  0  0  0  0
  -25.9334  -11.6655   20.5731 N   0  0  0  0  0  0
  -22.0395  -12.8164   22.0464 N   0  0  0  0  0  0
  -25.4015  -15.2009   20.4258 N   0  0  0  0  0  0
  -31.7011  -15.1868   20.3200 O   0  0  0  0  0  0
  -21.6650   -6.8882   21.4239 O   0  0  0  0  0  0
  -22.3417  -14.5481   20.6747 O   0  0  0  0  0  0
  -24.6688  -31.8180   23.1656 C   0  0  0  0  0  0
  -25.9345  -32.4561   23.8140 C   0  0  1  0  0  0
  -27.2120  -26.8649   20.1985 C   0  0  0  0  0  0
  -25.5989  -33.8377   24.2043 N   0  0  0  0  0  0
  -23.4858  -30.4276   21.5175 C   0  0  2  0  0  0
  -24.9378  -28.8003   20.1197 C   0  0  0  0  0  0
  -22.7693  -29.4416   22.4777 C   0  0  0  0  0  0
  -18.0326  -28.1413   22.8466 C   0  0  0  0  0  0
  -24.1494  -36.7191   23.2647 C   0  0  0  0  0  0
  -26.0590  -30.6046   21.4045 C   0  0  0  0  0  0
  -26.1256  -29.1864   20.7535 C   0  0  0  0  0  0
  -27.2594  -28.2441   20.7602 C   0  0  0  0  0  0
  -25.9932  -26.6456   19.5178 C   0  0  0  0  0  0
  -24.9005  -27.5515   19.4795 C   0  0  0  0  0  0
  -23.7288  -29.7373   20.1472 C   0  0  0  0  0  0
  -25.4140  -36.2950   24.0293 C   0  0  1  0  0  0
  -20.5952  -28.3764   23.1179 C   0  0  2  0  0  0
  -20.6802  -26.9442   22.5404 C   0  0  0  0  0  0
  -19.5777  -26.6378   21.5216 C   0  0  0  0  0  0
  -18.1959  -26.7946   22.1622 C   0  0  0  0  0  0
  -19.1588  -28.8911   23.2807 C   0  0  0  0  0  0
  -18.9496  -30.1498   23.8847 C   0  0  0  0  0  0
  -17.6487  -30.6602   24.0554 C   0  0  0  0  0  0
  -25.9111  -34.9336   23.4994 C   0  0  0  0  0  0
  -16.5379  -29.9086   23.6346 C   0  0  0  0  0  0
  -16.7306  -28.6505   23.0368 C   0  0  0  0  0  0
  -26.4574  -31.6528   25.0694 C   0  0  0  0  0  0
  -25.3680  -31.3792   26.1335 C   0  0  0  0  0  0
  -27.0478  -30.2888   24.6467 C   0  0  0  0  0  0
  -27.6053  -32.4350   25.7503 C   0  0  0  0  0  0
  -27.5570  -37.1754   24.8466 C   0  0  0  0  0  0
  -21.4357  -29.3044   22.3523 N   0  0  0  0  0  0
  -26.4278  -37.3695   23.9409 N   0  0  0  0  0  0
  -24.7601  -30.9787   22.0825 N   0  0  0  0  0  0
  -23.4213  -28.7995   23.3047 O   0  0  0  0  0  0
  -28.2052  -25.7302   20.2033 O   0  0  0  0  0  0
  -26.5727  -34.8883   22.4595 O   0  0  0  0  0  0
  -23.5745  -32.1178   23.6715 O   0  0  0  0  0  0
  -29.5460  -19.8633   18.8023 C   0  0  0  0  0  0
  -29.1806  -19.7725   20.1538 C   0  0  0  0  0  0
  -29.5159  -21.1230   18.0977 C   0  0  0  0  0  0
  -28.7027  -21.1451   20.7058 C   0  0  0  0  0  0
  -29.1597  -22.3979   18.6922 C   0  0  0  0  0  0
  -28.6544  -22.5390   20.0191 C   0  0  0  0  0  0
  -29.9113  -18.5190   18.1161 C   0  0  0  0  0  0
  -29.3153  -18.1370   20.7798 C   0  0  0  0  0  0
  -30.7115  -17.4600   18.9597 C   0  0  1  0  0  0
  -29.8449  -21.0925   16.6031 C   0  0  0  0  0  0
  -28.1821  -21.1231   22.1285 C   0  0  0  0  0  0
  -29.2917  -23.6744   17.8639 C   0  0  0  0  0  0
  -32.0471  -18.0847   19.4458 C   0  0  0  0  0  0
  -27.9306  -24.1006   20.5048 C   0  0  0  0  0  0
  -29.9452  -16.7711   20.0496 N   0  0  0  0  0  0
  -31.4235  -13.1120   19.1309 H   0  0  0  0  0  0
  -30.5130  -12.0399   20.1469 H   0  0  0  0  0  0
  -29.9221  -11.7436   17.7128 H   0  0  0  0  0  0
  -29.5175  -13.4391   17.5919 H   0  0  0  0  0  0
  -28.0725  -11.2775   19.1385 H   0  0  0  0  0  0
  -27.4042  -12.2783   17.8738 H   0  0  0  0  0  0
  -27.4785  -14.2289   19.2647 H   0  0  0  0  0  0
  -28.8527  -12.6600   21.4977 H   0  0  0  0  0  0
  -28.2532  -14.3012   21.6162 H   0  0  0  0  0  0
  -25.2776   -9.5688   22.4770 H   0  0  0  0  0  0
  -24.0013   -7.4637   22.7476 H   0  0  0  0  0  0
  -21.0861   -8.8775   19.8950 H   0  0  0  0  0  0
  -22.3715  -10.9674   19.6168 H   0  0  0  0  0  0
  -21.2013   -7.6147   23.9716 H   0  0  0  0  0  0
  -21.1484   -6.0520   25.9077 H   0  0  0  0  0  0
  -22.0598   -2.7608   23.2842 H   0  0  0  0  0  0
  -22.4028  -11.9840   22.4863 H   0  0  0  0  0  0
  -21.1001  -13.1163   22.2654 H   0  0  0  0  0  0
  -24.6367  -15.8556   20.5481 H   0  0  0  0  0  0
  -26.2568  -15.6438   20.1151 H   0  0  0  0  0  0
  -26.7420  -32.5084   23.0855 H   0  0  0  0  0  0
  -25.0077  -33.9448   25.0155 H   0  0  0  0  0  0
  -22.8024  -31.2609   21.3417 H   0  0  0  0  0  0
  -23.3773  -35.9503   23.3270 H   0  0  0  0  0  0
  -24.3566  -36.8881   22.2069 H   0  0  0  0  0  0
  -23.7235  -37.6358   23.6734 H   0  0  0  0  0  0
  -26.2448  -31.3390   20.6197 H   0  0  0  0  0  0
  -26.9172  -30.6657   22.0617 H   0  0  0  0  0  0
  -28.1630  -28.5459   21.2709 H   0  0  0  0  0  0
  -25.8573  -25.6966   19.0190 H   0  0  0  0  0  0
  -24.0009  -27.2503   18.9608 H   0  0  0  0  0  0
  -23.8921  -30.5020   19.3871 H   0  0  0  0  0  0
  -22.8366  -29.1958   19.8281 H   0  0  0  0  0  0
  -25.1342  -36.1734   25.0784 H   0  0  0  0  0  0
  -21.0036  -28.3371   24.1303 H   0  0  0  0  0  0
  -20.5684  -26.2381   23.3648 H   0  0  0  0  0  0
  -21.6665  -26.7419   22.1208 H   0  0  0  0  0  0
  -19.6938  -25.6274   21.1281 H   0  0  0  0  0  0
  -19.6715  -27.3157   20.6722 H   0  0  0  0  0  0
  -17.4230  -26.6692   21.4023 H   0  0  0  0  0  0
  -18.0351  -26.0100   22.9030 H   0  0  0  0  0  0
  -19.7972  -30.7328   24.2195 H   0  0  0  0  0  0
  -17.5040  -31.6279   24.5163 H   0  0  0  0  0  0
  -15.5377  -30.2972   23.7703 H   0  0  0  0  0  0
  -15.8706  -28.0805   22.7118 H   0  0  0  0  0  0
  -24.5885  -30.7122   25.7636 H   0  0  0  0  0  0
  -24.8846  -32.2997   26.4617 H   0  0  0  0  0  0
  -25.7894  -30.9050   27.0208 H   0  0  0  0  0  0
  -26.3155  -29.6551   24.1453 H   0  0  0  0  0  0
  -27.3965  -29.7271   25.5145 H   0  0  0  0  0  0
  -27.9116  -30.4055   23.9919 H   0  0  0  0  0  0
  -27.2615  -33.3704   26.1930 H   0  0  0  0  0  0
  -28.3944  -32.6826   25.0390 H   0  0  0  0  0  0
  -28.0633  -31.8576   26.5545 H   0  0  0  0  0  0
  -28.2565  -38.0072   24.7522 H   0  0  0  0  0  0
  -28.1090  -36.2599   24.6285 H   0  0  0  0  0  0
  -27.2285  -37.1383   25.8867 H   0  0  0  0  0  0
  -20.9628  -29.8711   21.6622 H   0  0  0  0  0  0
  -26.0118  -38.2747   24.1423 H   0  0  0  0  0  0
  -30.5271  -18.7102   17.2390 H   0  0  0  0  0  0
  -28.9920  -18.0681   17.7397 H   0  0  0  0  0  0
  -28.3033  -17.8588   21.0734 H   0  0  0  0  0  0
  -29.8553  -18.2310   21.7222 H   0  0  0  0  0  0
  -30.9762  -16.6829   18.2386 H   0  0  0  0  0  0
  -29.4452  -20.2008   16.1220 H   0  0  0  0  0  0
  -30.9239  -21.1183   16.4469 H   0  0  0  0  0  0
  -29.3955  -21.9100   16.0422 H   0  0  0  0  0  0
  -28.2064  -20.1187   22.5509 H   0  0  0  0  0  0
  -27.1512  -21.4765   22.1621 H   0  0  0  0  0  0
  -28.7865  -21.7706   22.7645 H   0  0  0  0  0  0
  -30.1283  -23.6296   17.1675 H   0  0  0  0  0  0
  -29.5094  -24.5394   18.4858 H   0  0  0  0  0  0
  -28.3772  -23.8726   17.3043 H   0  0  0  0  0  0
  -31.8926  -18.8683   20.1872 H   0  0  0  0  0  0
  -32.5801  -18.5415   18.6113 H   0  0  0  0  0  0
  -32.7301  -17.3596   19.8838 H   0  0  0  0  0  0
  -27.9416  -24.0542   21.5935 H   0  0  0  0  0  0
  -26.8795  -23.9608   20.2543 H   0  0  0  0  0  0
  1 25  1  0  0  0
  1 30  2  0  0  0
  1 85  1  0  0  0
  2  3  1  0  0  0
  2 25  1  0  0  0
  2 86  1  0  0  0
  2 87  1  0  0  0
  3  4  1  0  0  0
  3 88  1  0  0  0
  3 89  1  0  0  0
  4  5  1  0  0  0
  4 90  1  0  0  0
  4 91  1  0  0  0
  5  6  1  0  0  0
  5 26  1  0  0  0
  5 92  1  0  0  0
  6 25  1  0  0  0
  6 93  1  0  0  0
  6 94  1  0  0  0
  7  8  2  0  0  0
  7 26  1  0  0  0
  7 29  1  0  0  0
  8  9  1  0  0  0
  8 22  1  0  0  0
  9 10  1  0  0  0
  9 27  2  0  0  0
 10 11  2  0  0  0
 10 15  1  0  0  0
 11 12  1  0  0  0
 11 95  1  0  0  0
 12 13  2  0  0  0
 12 96  1  0  0  0
 13 14  1  0  0  0
 13 31  1  0  0  0
 14 15  2  0  0  0
 14 97  1  0  0  0
 15 98  1  0  0  0
 16 17  2  0  0  0
 16 21  1  0  0  0
 16 31  1  0  0  0
 17 18  1  0  0  0
 17 99  1  0  0  0
 18 19  2  0  0  0
 18100  1  0  0  0
 19 20  1  0  0  0
 19 24  1  0  0  0
 20 21  2  0  0  0
 20101  1  0  0  0
 21 23  1  0  0  0
 22 28  1  0  0  0
 22 32  2  0  0  0
 26 27  1  0  0  0
 28102  1  0  0  0
 28103  1  0  0  0
 29104  1  0  0  0
 29105  1  0  0  0
 33 34  1  0  0  0
 33 66  1  0  0  0
 33 70  2  0  0  0
 34 36  1  0  0  0
 34 59  1  0  0  0
 34106  1  0  0  0
 35 44  2  0  0  0
 35 45  1  0  0  0
 35 68  1  0  0  0
 36 56  1  0  0  0
 36107  1  0  0  0
 37 39  1  0  0  0
 37 47  1  0  0  0
 37 66  1  0  0  0
 37108  1  0  0  0
 38 43  2  0  0  0
 38 46  1  0  0  0
 38 47  1  0  0  0
 39 64  1  0  0  0
 39 67  2  0  0  0
 40 52  1  0  0  0
 40 53  2  0  0  0
 40 58  1  0  0  0
 41109  1  0  0  0
 41110  1  0  0  0
 41111  1  0  0  0
 41 48  1  0  0  0
 42 43  1  0  0  0
 42 66  1  0  0  0
 42112  1  0  0  0
 42113  1  0  0  0
 43 44  1  0  0  0
 44114  1  0  0  0
 45 46  2  0  0  0
 45115  1  0  0  0
 46116  1  0  0  0
 47117  1  0  0  0
 47118  1  0  0  0
 48 56  1  0  0  0
 48 65  1  0  0  0
 48119  1  0  0  0
 49 50  1  0  0  0
 49 53  1  0  0  0
 49 64  1  0  0  0
 49120  1  0  0  0
 50 51  1  0  0  0
 50121  1  0  0  0
 50122  1  0  0  0
 51 52  1  0  0  0
 51123  1  0  0  0
 51124  1  0  0  0
 52125  1  0  0  0
 52126  1  0  0  0
 53 54  1  0  0  0
 54 55  2  0  0  0
 54127  1  0  0  0
 55 57  1  0  0  0
 55128  1  0  0  0
 56 69  2  0  0  0
 57 58  2  0  0  0
 57129  1  0  0  0
 58130  1  0  0  0
 59 60  1  0  0  0
 59 61  1  0  0  0
 59 62  1  0  0  0
 60131  1  0  0  0
 60132  1  0  0  0
 60133  1  0  0  0
 61134  1  0  0  0
 61135  1  0  0  0
 61136  1  0  0  0
 62137  1  0  0  0
 62138  1  0  0  0
 62139  1  0  0  0
 63 65  1  0  0  0
 63140  1  0  0  0
 63141  1  0  0  0
 63142  1  0  0  0
 64143  1  0  0  0
 65144  1  0  0  0
 68 84  1  0  0  0
 71 72  1  0  0  0
 71 73  2  0  0  0
 71 77  1  0  0  0
 72 74  2  0  0  0
 72 78  1  0  0  0
 73 75  1  0  0  0
 73 80  1  0  0  0
 74 76  1  0  0  0
 74 81  1  0  0  0
 75 76  2  0  0  0
 75 82  1  0  0  0
 76 84  1  0  0  0
 77 79  1  0  0  0
 77145  1  0  0  0
 77146  1  0  0  0
 78 85  1  0  0  0
 78147  1  0  0  0
 78148  1  0  0  0
 79 83  1  0  0  0
 79 85  1  0  0  0
 79149  1  0  0  0
 80150  1  0  0  0
 80151  1  0  0  0
 80152  1  0  0  0
 81153  1  0  0  0
 81154  1  0  0  0
 81155  1  0  0  0
 82156  1  0  0  0
 82157  1  0  0  0
 82158  1  0  0  0
 83159  1  0  0  0
 83160  1  0  0  0
 83161  1  0  0  0
 84162  1  0  0  0
 84163  1  0  0  0
M  ISO  4   1 100  68 101  84 101  85 100
M  END
> <chiral flag>
0

> <version>
0

> <s_m_source_file>
/data/baiqing/PycharmProjects/Reinvent-master-3.2/result/LINK_invent/BTK/process_docking_weight1_custom_sum_contain_oxygen_bond_distance_aromatic_linkinvent_7_9_3/rearranged_h_0162.sdf

> <i_m_source_file_index>
33

> <r_mmod_Potential_Energy-OPLS-2005>
1726.87463378906

> <r_mmod_Stretch_Energy-OPLS-2005>
674.104614257812

> <r_mmod_Bend_Energy-OPLS-2005>
477.027526855469

> <r_mmod_Torsional_Energy-OPLS-2005>
332.439331054688

> <r_mmod_Improper_Torsional_Energy-OPLS-2005>
24.2745456695557

> <r_mmod_Van_der_Waal_Energy-OPLS-2005>
153.167785644531

> <r_mmod_Electrostatic_Energy-OPLS-2005>
-305.335083007812

> <r_mmod_Solvation_Energy-OPLS-2005>
-193.27131652832

> <b_mmod_Minimization_Converged-OPLS-2005>
0

> <r_mmod_RMS_Derivative-OPLS-2005>
0.506057024002075

$$$$
33
                    3D
 Structure written by MMmdl.
173183  0  0  1  0            999 V2000
  -30.7311  -14.5356   20.5456 C   0  0  0  0  0  0
  -30.4188  -12.3470   19.4316 C   0  0  0  0  0  0
  -29.4912  -12.4883   18.2087 C   0  0  0  0  0  0
  -28.0175  -12.3132   18.6251 C   0  0  0  0  0  0
  -27.6408  -13.1814   19.8516 C   0  0  2  0  0  0
  -28.6968  -13.0723   20.9808 C   0  0  0  0  0  0
  -25.2532  -13.8078   20.5644 C   0  0  0  0  0  0
  -24.1770  -13.0400   20.9183 C   0  0  0  0  0  0
  -24.6287  -11.6865   20.8740 C   0  0  0  0  0  0
  -23.8954  -10.4276   21.0442 C   0  0  0  0  0  0
  -24.3544   -9.4214   21.9200 C   0  0  0  0  0  0
  -23.6263   -8.2229   22.0745 C   0  0  0  0  0  0
  -22.4255   -8.0232   21.3530 C   0  0  0  0  0  0
  -21.9862   -9.0208   20.4652 C   0  0  0  0  0  0
  -22.7146  -10.2110   20.3081 C   0  0  0  0  0  0
  -21.6839   -6.0710   22.5276 C   0  0  0  0  0  0
  -21.4002   -6.5619   23.8206 C   0  0  0  0  0  0
  -21.3657   -5.6770   24.9157 C   0  0  0  0  0  0
  -21.6060   -4.3040   24.7221 C   0  0  0  0  0  0
  -21.8817   -3.8123   23.4345 C   0  0  0  0  0  0
  -21.9189   -4.6935   22.3399 C   0  0  0  0  0  0
  -22.7809  -13.5233   21.1860 C   0  0  0  0  0  0
  -22.1659   -4.2132   21.0976 F   0  0  0  0  0  0
  -21.5647   -3.4522   25.7740 F   0  0  0  0  0  0
  -30.0199  -13.3744   20.4094 N   0  0  0  0  0  0
  -26.2906  -12.9169   20.3289 N   0  0  0  0  0  0
  -25.9204  -11.6371   20.5756 N   0  0  0  0  0  0
  -22.0421  -12.8269   22.0422 N   0  0  0  0  0  0
  -25.4291  -15.1788   20.3993 N   0  0  0  0  0  0
  -31.8986  -14.6326   20.1598 O   0  0  0  0  0  0
  -21.6623   -6.8841   21.4235 O   0  0  0  0  0  0
  -22.3527  -14.5551   20.6689 O   0  0  0  0  0  0
  -24.6180  -31.8658   23.2055 C   0  0  0  0  0  0
  -25.9070  -32.4797   23.8364 C   0  0  1  0  0  0
  -27.2417  -27.3967   20.1048 C   0  0  0  0  0  0
  -25.5923  -33.8603   24.2299 N   0  0  0  0  0  0
  -23.4087  -30.4879   21.5466 C   0  0  2  0  0  0
  -24.8570  -28.9464   20.1172 C   0  0  0  0  0  0
  -22.7434  -29.4653   22.4971 C   0  0  0  0  0  0
  -18.0273  -28.1377   22.8491 C   0  0  0  0  0  0
  -24.1497  -36.7303   23.2639 C   0  0  0  0  0  0
  -25.9423  -30.8191   21.3676 C   0  0  0  0  0  0
  -26.0189  -29.4514   20.7120 C   0  0  0  0  0  0
  -27.2126  -28.6879   20.6955 C   0  0  0  0  0  0
  -26.0519  -26.9122   19.5126 C   0  0  0  0  0  0
  -24.8703  -27.6779   19.5129 C   0  0  0  0  0  0
  -23.6208  -29.8168   20.1635 C   0  0  0  0  0  0
  -25.4117  -36.3093   24.0337 C   0  0  1  0  0  0
  -20.5867  -28.3680   23.1318 C   0  0  2  0  0  0
  -20.6758  -26.9412   22.5431 C   0  0  0  0  0  0
  -19.5745  -26.6383   21.5225 C   0  0  0  0  0  0
  -18.1915  -26.7931   22.1610 C   0  0  0  0  0  0
  -19.1523  -28.8845   23.2893 C   0  0  0  0  0  0
  -18.9447  -30.1453   23.8901 C   0  0  0  0  0  0
  -17.6447  -30.6586   24.0561 C   0  0  0  0  0  0
  -25.9053  -34.9465   23.5113 C   0  0  0  0  0  0
  -16.5341  -29.9088   23.6319 C   0  0  0  0  0  0
  -16.7261  -28.6501   23.0349 C   0  0  0  0  0  0
  -26.4491  -31.6583   25.0711 C   0  0  0  0  0  0
  -25.3744  -31.3735   26.1453 C   0  0  0  0  0  0
  -27.0316  -30.3006   24.6141 C   0  0  0  0  0  0
  -27.6066  -32.4319   25.7452 C   0  0  0  0  0  0
  -27.5597  -37.1792   24.8456 C   0  0  0  0  0  0
  -21.4159  -29.3043   22.3714 N   0  0  0  0  0  0
  -26.4293  -37.3786   23.9420 N   0  0  0  0  0  0
  -24.6745  -31.0731   22.0975 N   0  0  0  0  0  0
  -23.4194  -28.8208   23.3035 O   0  0  0  0  0  0
  -28.4198  -26.6626   20.1032 O   0  0  0  0  0  0
  -26.5611  -34.8922   22.4671 O   0  0  0  0  0  0
  -23.5361  -32.1428   23.7423 O   0  0  0  0  0  0
  -29.6527  -22.0481   19.3602 C   0  0  0  0  0  0
  -29.6630  -20.6591   19.6227 C   0  0  0  0  0  0
  -29.5102  -22.4883   21.7306 C   0  0  0  0  0  0
  -29.6043  -22.9910   20.4128 C   0  0  0  0  0  0
  -29.5884  -20.1455   20.9432 C   0  0  0  0  0  0
  -29.4912  -21.0938   22.0026 C   0  0  0  0  0  0
  -29.1650  -17.7620   19.9890 C   0  0  0  0  0  0
  -30.8782  -17.9946   21.7125 C   0  0  0  0  0  0
  -30.6759  -24.8595   18.9588 C   0  0  0  0  0  0
  -30.8361  -25.1819   21.0223 C   0  0  0  0  0  0
  -28.9844  -16.2659   20.3244 C   0  0  0  0  0  0
  -30.7360  -16.4880   22.0848 C   0  0  0  0  0  0
  -29.5573  -18.6095   21.2055 C   0  0  0  0  0  0
  -31.3901  -25.9193   19.7992 C   0  0  1  0  0  0
  -29.7495  -24.5125   20.1494 C   0  0  2  0  0  0
  -29.3595  -20.6529   23.4527 C   0  0  0  0  0  0
  -32.8956  -26.0982   19.6447 C   0  0  0  0  0  0
  -28.3532  -25.2118   20.1314 C   0  0  0  0  0  0
  -30.0948  -15.6292   21.0614 N   0  0  0  0  0  0
  -31.4633  -12.4419   19.1259 H   0  0  0  0  0  0
  -30.3257  -11.3544   19.8730 H   0  0  0  0  0  0
  -29.7583  -11.7514   17.4507 H   0  0  0  0  0  0
  -29.6309  -13.4676   17.7497 H   0  0  0  0  0  0
  -27.8553  -11.2587   18.8512 H   0  0  0  0  0  0
  -27.3618  -12.5458   17.7839 H   0  0  0  0  0  0
  -27.6201  -14.1894   19.4678 H   0  0  0  0  0  0
  -28.7016  -12.0683   21.4091 H   0  0  0  0  0  0
  -28.4469  -13.7486   21.7989 H   0  0  0  0  0  0
  -25.2711   -9.5715   22.4728 H   0  0  0  0  0  0
  -23.9998   -7.4621   22.7441 H   0  0  0  0  0  0
  -21.0804   -8.8708   19.8960 H   0  0  0  0  0  0
  -22.3612  -10.9619   19.6164 H   0  0  0  0  0  0
  -21.1991   -7.6133   23.9703 H   0  0  0  0  0  0
  -21.1483   -6.0500   25.9065 H   0  0  0  0  0  0
  -22.0612   -2.7589   23.2831 H   0  0  0  0  0  0
  -22.4013  -11.9942   22.4848 H   0  0  0  0  0  0
  -21.1035  -13.1328   22.2590 H   0  0  0  0  0  0
  -24.6708  -15.8429   20.5121 H   0  0  0  0  0  0
  -26.2872  -15.6063   20.0780 H   0  0  0  0  0  0
  -26.7138  -32.5506   23.1120 H   0  0  0  0  0  0
  -25.0073  -33.9760   25.0441 H   0  0  0  0  0  0
  -22.6976  -31.3042   21.4024 H   0  0  0  0  0  0
  -23.3768  -35.9623   23.3273 H   0  0  0  0  0  0
  -24.3596  -36.8948   22.2058 H   0  0  0  0  0  0
  -23.7224  -37.6489   23.6673 H   0  0  0  0  0  0
  -26.0651  -31.5862   20.6019 H   0  0  0  0  0  0
  -26.8248  -30.8654   21.9942 H   0  0  0  0  0  0
  -28.1114  -29.0783   21.1524 H   0  0  0  0  0  0
  -26.0151  -25.9456   19.0350 H   0  0  0  0  0  0
  -23.9774  -27.2839   19.0479 H   0  0  0  0  0  0
  -23.7303  -30.5878   19.4004 H   0  0  0  0  0  0
  -22.7462  -29.2353   19.8681 H   0  0  0  0  0  0
  -25.1286  -36.1942   25.0827 H   0  0  0  0  0  0
  -20.9960  -28.3250   24.1439 H   0  0  0  0  0  0
  -20.5677  -26.2293   23.3625 H   0  0  0  0  0  0
  -21.6628  -26.7451   22.1226 H   0  0  0  0  0  0
  -19.6914  -25.6296   21.1253 H   0  0  0  0  0  0
  -19.6708  -27.3201   20.6762 H   0  0  0  0  0  0
  -17.4219  -26.6725   21.3974 H   0  0  0  0  0  0
  -18.0274  -26.0052   22.8979 H   0  0  0  0  0  0
  -19.7934  -30.7250   24.2273 H   0  0  0  0  0  0
  -17.5016  -31.6272   24.5167 H   0  0  0  0  0  0
  -15.5337  -30.2991   23.7642 H   0  0  0  0  0  0
  -15.8670  -28.0827   22.7047 H   0  0  0  0  0  0
  -24.5915  -30.7080   25.7797 H   0  0  0  0  0  0
  -24.8938  -32.2911   26.4862 H   0  0  0  0  0  0
  -25.8087  -30.8928   27.0229 H   0  0  0  0  0  0
  -26.2865  -29.6750   24.1212 H   0  0  0  0  0  0
  -27.4058  -29.7267   25.4631 H   0  0  0  0  0  0
  -27.8722  -30.4271   23.9311 H   0  0  0  0  0  0
  -27.2679  -33.3598   26.2069 H   0  0  0  0  0  0
  -28.3839  -32.6921   25.0254 H   0  0  0  0  0  0
  -28.0790  -31.8433   26.5325 H   0  0  0  0  0  0
  -28.2599  -38.0106   24.7518 H   0  0  0  0  0  0
  -28.1094  -36.2633   24.6230 H   0  0  0  0  0  0
  -27.2333  -37.1390   25.8863 H   0  0  0  0  0  0
  -20.9321  -29.8748   21.6916 H   0  0  0  0  0  0
  -26.0182  -38.2860   24.1420 H   0  0  0  0  0  0
  -29.7182  -22.3815   18.3346 H   0  0  0  0  0  0
  -29.7273  -19.9942   18.7752 H   0  0  0  0  0  0
  -29.4714  -23.1938   22.5499 H   0  0  0  0  0  0
  -28.2393  -18.1373   19.5494 H   0  0  0  0  0  0
  -29.9322  -17.8442   19.2183 H   0  0  0  0  0  0
  -31.6502  -18.1089   20.9509 H   0  0  0  0  0  0
  -31.2424  -18.5367   22.5833 H   0  0  0  0  0  0
  -31.3606  -24.0536   18.6880 H   0  0  0  0  0  0
  -30.1592  -25.2425   18.0782 H   0  0  0  0  0  0
  -30.4470  -25.8262   21.8116 H   0  0  0  0  0  0
  -31.5610  -24.4703   21.4231 H   0  0  0  0  0  0
  -28.8642  -15.7885   19.3535 H   0  0  0  0  0  0
  -28.0685  -16.1194   20.8955 H   0  0  0  0  0  0
  -30.1312  -16.4018   22.9893 H   0  0  0  0  0  0
  -31.7199  -16.0979   22.3549 H   0  0  0  0  0  0
  -28.7896  -18.4381   21.9609 H   0  0  0  0  0  0
  -30.8741  -26.8738   19.6849 H   0  0  0  0  0  0
  -29.1895  -21.5055   24.1099 H   0  0  0  0  0  0
  -30.2636  -20.1544   23.7994 H   0  0  0  0  0  0
  -28.5113  -19.9808   23.5828 H   0  0  0  0  0  0
  -33.4284  -25.1583   19.7970 H   0  0  0  0  0  0
  -33.2866  -26.8169   20.3655 H   0  0  0  0  0  0
  -33.1526  -26.4613   18.6491 H   0  0  0  0  0  0
  -27.7861  -24.9233   21.0187 H   0  0  0  0  0  0
  -27.8016  -24.8388   19.2690 H   0  0  0  0  0  0
  1 25  1  0  0  0
  1 30  2  0  0  0
  1 89  1  0  0  0
  2  3  1  0  0  0
  2 25  1  0  0  0
  2 90  1  0  0  0
  2 91  1  0  0  0
  3  4  1  0  0  0
  3 92  1  0  0  0
  3 93  1  0  0  0
  4  5  1  0  0  0
  4 94  1  0  0  0
  4 95  1  0  0  0
  5  6  1  0  0  0
  5 26  1  0  0  0
  5 96  1  0  0  0
  6 25  1  0  0  0
  6 97  1  0  0  0
  6 98  1  0  0  0
  7  8  2  0  0  0
  7 26  1  0  0  0
  7 29  1  0  0  0
  8  9  1  0  0  0
  8 22  1  0  0  0
  9 10  1  0  0  0
  9 27  2  0  0  0
 10 11  2  0  0  0
 10 15  1  0  0  0
 11 12  1  0  0  0
 11 99  1  0  0  0
 12 13  2  0  0  0
 12100  1  0  0  0
 13 14  1  0  0  0
 13 31  1  0  0  0
 14 15  2  0  0  0
 14101  1  0  0  0
 15102  1  0  0  0
 16 17  2  0  0  0
 16 21  1  0  0  0
 16 31  1  0  0  0
 17 18  1  0  0  0
 17103  1  0  0  0
 18 19  2  0  0  0
 18104  1  0  0  0
 19 20  1  0  0  0
 19 24  1  0  0  0
 20 21  2  0  0  0
 20105  1  0  0  0
 21 23  1  0  0  0
 22 28  1  0  0  0
 22 32  2  0  0  0
 26 27  1  0  0  0
 28106  1  0  0  0
 28107  1  0  0  0
 29108  1  0  0  0
 29109  1  0  0  0
 33 34  1  0  0  0
 33 66  1  0  0  0
 33 70  2  0  0  0
 34 36  1  0  0  0
 34 59  1  0  0  0
 34110  1  0  0  0
 35 44  2  0  0  0
 35 45  1  0  0  0
 35 68  1  0  0  0
 36 56  1  0  0  0
 36111  1  0  0  0
 37 39  1  0  0  0
 37 47  1  0  0  0
 37 66  1  0  0  0
 37112  1  0  0  0
 38 43  2  0  0  0
 38 46  1  0  0  0
 38 47  1  0  0  0
 39 64  1  0  0  0
 39 67  2  0  0  0
 40 52  1  0  0  0
 40 53  2  0  0  0
 40 58  1  0  0  0
 41113  1  0  0  0
 41114  1  0  0  0
 41115  1  0  0  0
 41 48  1  0  0  0
 42 43  1  0  0  0
 42 66  1  0  0  0
 42116  1  0  0  0
 42117  1  0  0  0
 43 44  1  0  0  0
 44118  1  0  0  0
 45 46  2  0  0  0
 45119  1  0  0  0
 46120  1  0  0  0
 47121  1  0  0  0
 47122  1  0  0  0
 48 56  1  0  0  0
 48 65  1  0  0  0
 48123  1  0  0  0
 49 50  1  0  0  0
 49 53  1  0  0  0
 49 64  1  0  0  0
 49124  1  0  0  0
 50 51  1  0  0  0
 50125  1  0  0  0
 50126  1  0  0  0
 51 52  1  0  0  0
 51127  1  0  0  0
 51128  1  0  0  0
 52129  1  0  0  0
 52130  1  0  0  0
 53 54  1  0  0  0
 54 55  2  0  0  0
 54131  1  0  0  0
 55 57  1  0  0  0
 55132  1  0  0  0
 56 69  2  0  0  0
 57 58  2  0  0  0
 57133  1  0  0  0
 58134  1  0  0  0
 59 60  1  0  0  0
 59 61  1  0  0  0
 59 62  1  0  0  0
 60135  1  0  0  0
 60136  1  0  0  0
 60137  1  0  0  0
 61138  1  0  0  0
 61139  1  0  0  0
 61140  1  0  0  0
 62141  1  0  0  0
 62142  1  0  0  0
 62143  1  0  0  0
 63 65  1  0  0  0
 63144  1  0  0  0
 63145  1  0  0  0
 63146  1  0  0  0
 64147  1  0  0  0
 65148  1  0  0  0
 68 88  1  0  0  0
 71 72  2  0  0  0
 71 74  1  0  0  0
 71149  1  0  0  0
 72 75  1  0  0  0
 72150  1  0  0  0
 73 74  2  0  0  0
 73 76  1  0  0  0
 73151  1  0  0  0
 74 85  1  0  0  0
 75 76  2  0  0  0
 75 83  1  0  0  0
 76 86  1  0  0  0
 77 81  1  0  0  0
 77 83  1  0  0  0
 77152  1  0  0  0
 77153  1  0  0  0
 78 82  1  0  0  0
 78 83  1  0  0  0
 78154  1  0  0  0
 78155  1  0  0  0
 79 84  1  0  0  0
 79 85  1  0  0  0
 79156  1  0  0  0
 79157  1  0  0  0
 80 84  1  0  0  0
 80 85  1  0  0  0
 80158  1  0  0  0
 80159  1  0  0  0
 81 89  1  0  0  0
 81160  1  0  0  0
 81161  1  0  0  0
 82 89  1  0  0  0
 82162  1  0  0  0
 82163  1  0  0  0
 83164  1  0  0  0
 84 87  1  0  0  0
 84165  1  0  0  0
 85 88  1  0  0  0
 86166  1  0  0  0
 86167  1  0  0  0
 86168  1  0  0  0
 87169  1  0  0  0
 87170  1  0  0  0
 87171  1  0  0  0
 88172  1  0  0  0
 88173  1  0  0  0
M  ISO  4   1 100  68 101  88 101  89 100
M  END
> <chiral flag>
0

> <version>
0

> <s_m_source_file>
/data/baiqing/PycharmProjects/Reinvent-master-3.2/result/LINK_invent/BTK/process_docking_weight1_custom_sum_contain_oxygen_bond_distance_aromatic_linkinvent_7_9_3/rearranged_h_0162.sdf

> <i_m_source_file_index>
34

> <r_mmod_Potential_Energy-OPLS-2005>
268.276733398438

> <r_mmod_Stretch_Energy-OPLS-2005>
52.8710708618164

> <r_mmod_Bend_Energy-OPLS-2005>
131.163650512695

> <r_mmod_Torsional_Energy-OPLS-2005>
357.0068359375

> <r_mmod_Improper_Torsional_Energy-OPLS-2005>
3.17888283729553

> <r_mmod_Van_der_Waal_Energy-OPLS-2005>
159.732696533203

> <r_mmod_Electrostatic_Energy-OPLS-2005>
-273.823760986328

> <r_mmod_Solvation_Energy-OPLS-2005>
-186.69287109375

> <b_mmod_Minimization_Converged-OPLS-2005>
0

> <r_mmod_RMS_Derivative-OPLS-2005>
2.90566086769104

$$$$
34
                    3D
 Structure written by MMmdl.
167177  0  0  1  0            999 V2000
  -30.7025  -14.6982   20.4766 C   0  0  0  0  0  0
  -30.4124  -12.4395   19.4613 C   0  0  0  0  0  0
  -29.4955  -12.4999   18.2241 C   0  0  0  0  0  0
  -28.0233  -12.3375   18.6447 C   0  0  0  0  0  0
  -27.6381  -13.2409   19.8481 C   0  0  2  0  0  0
  -28.6901  -13.1849   20.9758 C   0  0  0  0  0  0
  -25.2501  -13.8232   20.5738 C   0  0  0  0  0  0
  -24.1794  -13.0456   20.9216 C   0  0  0  0  0  0
  -24.6398  -11.6938   20.8757 C   0  0  0  0  0  0
  -23.9083  -10.4303   21.0412 C   0  0  0  0  0  0
  -24.3632   -9.4212   21.9184 C   0  0  0  0  0  0
  -23.6304   -8.2248   22.0756 C   0  0  0  0  0  0
  -22.4283   -8.0288   21.3546 C   0  0  0  0  0  0
  -21.9923   -9.0262   20.4646 C   0  0  0  0  0  0
  -22.7257  -10.2141   20.3057 C   0  0  0  0  0  0
  -21.6854   -6.0740   22.5281 C   0  0  0  0  0  0
  -21.4014   -6.5644   23.8214 C   0  0  0  0  0  0
  -21.3660   -5.6796   24.9176 C   0  0  0  0  0  0
  -21.6045   -4.3057   24.7225 C   0  0  0  0  0  0
  -21.8818   -3.8150   23.4344 C   0  0  0  0  0  0
  -21.9193   -4.6968   22.3400 C   0  0  0  0  0  0
  -22.7810  -13.5223   21.1865 C   0  0  0  0  0  0
  -22.1661   -4.2155   21.0977 F   0  0  0  0  0  0
  -21.5628   -3.4539   25.7736 F   0  0  0  0  0  0
  -29.9821  -13.5280   20.3719 N   0  0  0  0  0  0
  -26.2934  -12.9457   20.3324 N   0  0  0  0  0  0
  -25.9336  -11.6586   20.5783 N   0  0  0  0  0  0
  -22.0464  -12.8204   22.0423 N   0  0  0  0  0  0
  -25.4205  -15.1957   20.4191 N   0  0  0  0  0  0
  -31.9093  -14.6540   20.2187 O   0  0  0  0  0  0
  -21.6644   -6.8886   21.4244 O   0  0  0  0  0  0
  -22.3484  -14.5523   20.6710 O   0  0  0  0  0  0
  -24.6334  -31.8590   23.2061 C   0  0  0  0  0  0
  -25.9167  -32.4771   23.8381 C   0  0  1  0  0  0
  -27.1947  -27.2548   20.1071 C   0  0  0  0  0  0
  -25.5966  -33.8573   24.2293 N   0  0  0  0  0  0
  -23.4278  -30.4909   21.5513 C   0  0  2  0  0  0
  -24.8695  -28.9586   20.1065 C   0  0  0  0  0  0
  -22.7512  -29.4633   22.4919 C   0  0  0  0  0  0
  -18.0296  -28.1389   22.8487 C   0  0  0  0  0  0
  -24.1492  -36.7285   23.2633 C   0  0  0  0  0  0
  -25.9809  -30.7653   21.3956 C   0  0  0  0  0  0
  -26.0471  -29.3935   20.7283 C   0  0  0  0  0  0
  -27.2115  -28.5520   20.7297 C   0  0  0  0  0  0
  -25.9954  -26.9308   19.4171 C   0  0  0  0  0  0
  -24.8499  -27.7333   19.4415 C   0  0  0  0  0  0
  -23.6444  -29.8455   20.1620 C   0  0  0  0  0  0
  -25.4117  -36.3077   24.0326 C   0  0  1  0  0  0
  -20.5905  -28.3706   23.1259 C   0  0  2  0  0  0
  -20.6788  -26.9423   22.5401 C   0  0  0  0  0  0
  -19.5757  -26.6386   21.5212 C   0  0  0  0  0  0
  -18.1939  -26.7931   22.1626 C   0  0  0  0  0  0
  -19.1552  -28.8864   23.2868 C   0  0  0  0  0  0
  -18.9469  -30.1464   23.8888 C   0  0  0  0  0  0
  -17.6466  -30.6588   24.0563 C   0  0  0  0  0  0
  -25.9065  -34.9446   23.5106 C   0  0  0  0  0  0
  -16.5358  -29.9084   23.6332 C   0  0  0  0  0  0
  -16.7283  -28.6501   23.0357 C   0  0  0  0  0  0
  -26.4516  -31.6588   25.0770 C   0  0  0  0  0  0
  -25.3726  -31.3744   26.1479 C   0  0  0  0  0  0
  -27.0365  -30.2995   24.6283 C   0  0  0  0  0  0
  -27.6069  -32.4330   25.7540 C   0  0  0  0  0  0
  -27.5586  -37.1797   24.8459 C   0  0  0  0  0  0
  -21.4220  -29.3059   22.3652 N   0  0  0  0  0  0
  -26.4290  -37.3779   23.9414 N   0  0  0  0  0  0
  -24.6999  -31.0552   22.1058 N   0  0  0  0  0  0
  -23.4215  -28.8145   23.2995 O   0  0  0  0  0  0
  -28.2347  -26.2818   20.1929 O   0  0  0  0  0  0
  -26.5621  -34.8912   22.4665 O   0  0  0  0  0  0
  -23.5482  -32.1423   23.7346 O   0  0  0  0  0  0
  -28.4580  -21.0240   19.4241 C   0  0  0  0  0  0
  -29.3805  -23.1008   21.0497 C   0  0  0  0  0  0
  -29.3371  -20.6457   20.4648 C   0  0  0  0  0  0
  -29.7905  -21.7359   21.2863 C   0  0  0  0  0  0
  -28.0458  -22.3712   19.1966 C   0  0  0  0  0  0
  -28.4979  -23.4720   19.9989 C   0  0  0  0  0  0
  -30.2715  -20.6968   23.6454 C   0  0  0  0  0  0
  -30.5831  -22.1683   23.7653 C   0  0  0  0  0  0
  -28.8917  -18.1171   21.3786 C   0  0  0  0  0  0
  -30.0929  -18.3637   19.3102 C   0  0  0  0  0  0
  -29.4706  -16.6445   21.5752 C   0  0  0  0  0  0
  -30.7555  -16.9575   19.5164 C   0  0  0  0  0  0
  -30.7284  -21.4707   22.4300 C   0  0  0  0  0  0
  -29.8143  -19.1259   20.6268 C   0  0  0  0  0  0
  -27.0553  -22.5928   18.0609 C   0  0  0  0  0  0
  -27.8273  -24.9000   19.7584 C   0  0  0  0  0  0
  -30.0738  -15.9494   20.3952 N   0  0  0  0  0  0
  -31.4547  -12.5264   19.1504 H   0  0  0  0  0  0
  -30.3330  -11.4702   19.9564 H   0  0  0  0  0  0
  -29.7689  -11.7220   17.5097 H   0  0  0  0  0  0
  -29.6301  -13.4525   17.7089 H   0  0  0  0  0  0
  -27.8736  -11.2899   18.9073 H   0  0  0  0  0  0
  -27.3639  -12.5343   17.7986 H   0  0  0  0  0  0
  -27.6298  -14.2626   19.4674 H   0  0  0  0  0  0
  -28.7273  -12.1905   21.4229 H   0  0  0  0  0  0
  -28.4339  -13.8674   21.7840 H   0  0  0  0  0  0
  -25.2778   -9.5684   22.4757 H   0  0  0  0  0  0
  -24.0013   -7.4639   22.7473 H   0  0  0  0  0  0
  -21.0856   -8.8783   19.8947 H   0  0  0  0  0  0
  -22.3718  -10.9680   19.6166 H   0  0  0  0  0  0
  -21.2008   -7.6153   23.9720 H   0  0  0  0  0  0
  -21.1481   -6.0525   25.9080 H   0  0  0  0  0  0
  -22.0595   -2.7612   23.2842 H   0  0  0  0  0  0
  -22.4095  -11.9875   22.4817 H   0  0  0  0  0  0
  -21.1075  -13.1210   22.2628 H   0  0  0  0  0  0
  -24.6598  -15.8546   20.5438 H   0  0  0  0  0  0
  -26.2850  -15.6367   20.1317 H   0  0  0  0  0  0
  -26.7232  -32.5412   23.1118 H   0  0  0  0  0  0
  -25.0120  -33.9716   25.0442 H   0  0  0  0  0  0
  -22.7241  -31.3150   21.4157 H   0  0  0  0  0  0
  -23.3765  -35.9608   23.3275 H   0  0  0  0  0  0
  -24.3587  -36.8928   22.2054 H   0  0  0  0  0  0
  -23.7233  -37.6474   23.6670 H   0  0  0  0  0  0
  -26.1316  -31.5302   20.6325 H   0  0  0  0  0  0
  -26.8546  -30.8023   22.0342 H   0  0  0  0  0  0
  -28.1016  -28.8722   21.2532 H   0  0  0  0  0  0
  -25.8648  -26.0234   18.8498 H   0  0  0  0  0  0
  -23.9561  -27.4031   18.9297 H   0  0  0  0  0  0
  -23.7725  -30.6315   19.4169 H   0  0  0  0  0  0
  -22.7604  -29.2868   19.8492 H   0  0  0  0  0  0
  -25.1295  -36.1924   25.0819 H   0  0  0  0  0  0
  -20.9996  -28.3284   24.1380 H   0  0  0  0  0  0
  -20.5698  -26.2315   23.3607 H   0  0  0  0  0  0
  -21.6652  -26.7454   22.1187 H   0  0  0  0  0  0
  -19.6918  -25.6295   21.1245 H   0  0  0  0  0  0
  -19.6687  -27.3190   20.6736 H   0  0  0  0  0  0
  -17.4208  -26.6680   21.4030 H   0  0  0  0  0  0
  -18.0340  -26.0075   22.9025 H   0  0  0  0  0  0
  -19.7943  -30.7288   24.2253 H   0  0  0  0  0  0
  -17.5018  -31.6266   24.5168 H   0  0  0  0  0  0
  -15.5357  -30.2982   23.7663 H   0  0  0  0  0  0
  -15.8683  -28.0815   22.7080 H   0  0  0  0  0  0
  -24.5914  -30.7077   25.7805 H   0  0  0  0  0  0
  -24.8901  -32.2914   26.4872 H   0  0  0  0  0  0
  -25.8035  -30.8945   27.0275 H   0  0  0  0  0  0
  -26.2964  -29.6742   24.1275 H   0  0  0  0  0  0
  -27.3986  -29.7261   25.4826 H   0  0  0  0  0  0
  -27.8875  -30.4247   23.9584 H   0  0  0  0  0  0
  -27.2678  -33.3636   26.2101 H   0  0  0  0  0  0
  -28.3888  -32.6879   25.0374 H   0  0  0  0  0  0
  -28.0727  -31.8465   26.5469 H   0  0  0  0  0  0
  -28.2580  -38.0118   24.7543 H   0  0  0  0  0  0
  -28.1108  -36.2652   24.6242 H   0  0  0  0  0  0
  -27.2307  -37.1392   25.8861 H   0  0  0  0  0  0
  -20.9401  -29.8802   21.6877 H   0  0  0  0  0  0
  -26.0166  -38.2848   24.1433 H   0  0  0  0  0  0
  -28.0771  -20.2500   18.7734 H   0  0  0  0  0  0
  -29.7336  -23.8805   21.7102 H   0  0  0  0  0  0
  -29.2235  -20.4101   23.7076 H   0  0  0  0  0  0
  -30.9758  -20.0024   24.0993 H   0  0  0  0  0  0
  -31.4915  -22.4337   24.3027 H   0  0  0  0  0  0
  -29.7393  -22.8392   23.9145 H   0  0  0  0  0  0
  -28.6434  -18.5237   22.3588 H   0  0  0  0  0  0
  -27.9409  -18.0509   20.8480 H   0  0  0  0  0  0
  -29.1714  -18.2418   18.7396 H   0  0  0  0  0  0
  -30.7524  -18.9682   18.6856 H   0  0  0  0  0  0
  -28.6754  -16.0256   21.9872 H   0  0  0  0  0  0
  -30.2396  -16.6848   22.3488 H   0  0  0  0  0  0
  -31.7561  -17.1369   19.9158 H   0  0  0  0  0  0
  -30.9056  -16.5098   18.5318 H   0  0  0  0  0  0
  -31.7400  -21.2932   22.0683 H   0  0  0  0  0  0
  -30.7603  -19.1610   21.1667 H   0  0  0  0  0  0
  -26.7217  -21.6505   17.6254 H   0  0  0  0  0  0
  -27.5105  -23.1765   17.2604 H   0  0  0  0  0  0
  -26.1642  -23.1135   18.4120 H   0  0  0  0  0  0
  -26.8415  -24.7049   20.1831 H   0  0  0  0  0  0
  -27.7312  -24.9900   18.6771 H   0  0  0  0  0  0
  1 25  1  0  0  0
  1 30  2  0  0  0
  1 87  1  0  0  0
  2  3  1  0  0  0
  2 25  1  0  0  0
  2 88  1  0  0  0
  2 89  1  0  0  0
  3  4  1  0  0  0
  3 90  1  0  0  0
  3 91  1  0  0  0
  4  5  1  0  0  0
  4 92  1  0  0  0
  4 93  1  0  0  0
  5  6  1  0  0  0
  5 26  1  0  0  0
  5 94  1  0  0  0
  6 25  1  0  0  0
  6 95  1  0  0  0
  6 96  1  0  0  0
  7  8  2  0  0  0
  7 26  1  0  0  0
  7 29  1  0  0  0
  8  9  1  0  0  0
  8 22  1  0  0  0
  9 10  1  0  0  0
  9 27  2  0  0  0
 10 11  2  0  0  0
 10 15  1  0  0  0
 11 12  1  0  0  0
 11 97  1  0  0  0
 12 13  2  0  0  0
 12 98  1  0  0  0
 13 14  1  0  0  0
 13 31  1  0  0  0
 14 15  2  0  0  0
 14 99  1  0  0  0
 15100  1  0  0  0
 16 17  2  0  0  0
 16 21  1  0  0  0
 16 31  1  0  0  0
 17 18  1  0  0  0
 17101  1  0  0  0
 18 19  2  0  0  0
 18102  1  0  0  0
 19 20  1  0  0  0
 19 24  1  0  0  0
 20 21  2  0  0  0
 20103  1  0  0  0
 21 23  1  0  0  0
 22 28  1  0  0  0
 22 32  2  0  0  0
 26 27  1  0  0  0
 28104  1  0  0  0
 28105  1  0  0  0
 29106  1  0  0  0
 29107  1  0  0  0
 33 34  1  0  0  0
 33 66  1  0  0  0
 33 70  2  0  0  0
 34 36  1  0  0  0
 34 59  1  0  0  0
 34108  1  0  0  0
 35 44  2  0  0  0
 35 45  1  0  0  0
 35 68  1  0  0  0
 36 56  1  0  0  0
 36109  1  0  0  0
 37 39  1  0  0  0
 37 47  1  0  0  0
 37 66  1  0  0  0
 37110  1  0  0  0
 38 43  2  0  0  0
 38 46  1  0  0  0
 38 47  1  0  0  0
 39 64  1  0  0  0
 39 67  2  0  0  0
 40 52  1  0  0  0
 40 53  2  0  0  0
 40 58  1  0  0  0
 41111  1  0  0  0
 41112  1  0  0  0
 41113  1  0  0  0
 41 48  1  0  0  0
 42 43  1  0  0  0
 42 66  1  0  0  0
 42114  1  0  0  0
 42115  1  0  0  0
 43 44  1  0  0  0
 44116  1  0  0  0
 45 46  2  0  0  0
 45117  1  0  0  0
 46118  1  0  0  0
 47119  1  0  0  0
 47120  1  0  0  0
 48 56  1  0  0  0
 48 65  1  0  0  0
 48121  1  0  0  0
 49 50  1  0  0  0
 49 53  1  0  0  0
 49 64  1  0  0  0
 49122  1  0  0  0
 50 51  1  0  0  0
 50123  1  0  0  0
 50124  1  0  0  0
 51 52  1  0  0  0
 51125  1  0  0  0
 51126  1  0  0  0
 52127  1  0  0  0
 52128  1  0  0  0
 53 54  1  0  0  0
 54 55  2  0  0  0
 54129  1  0  0  0
 55 57  1  0  0  0
 55130  1  0  0  0
 56 69  2  0  0  0
 57 58  2  0  0  0
 57131  1  0  0  0
 58132  1  0  0  0
 59 60  1  0  0  0
 59 61  1  0  0  0
 59 62  1  0  0  0
 60133  1  0  0  0
 60134  1  0  0  0
 60135  1  0  0  0
 61136  1  0  0  0
 61137  1  0  0  0
 61138  1  0  0  0
 62139  1  0  0  0
 62140  1  0  0  0
 62141  1  0  0  0
 63 65  1  0  0  0
 63142  1  0  0  0
 63143  1  0  0  0
 63144  1  0  0  0
 64145  1  0  0  0
 65146  1  0  0  0
 68 86  1  0  0  0
 71 73  2  0  0  0
 71 75  1  0  0  0
 71147  1  0  0  0
 72 74  2  0  0  0
 72 76  1  0  0  0
 72148  1  0  0  0
 73 74  1  0  0  0
 73 84  1  0  0  0
 74 83  1  0  0  0
 75 76  2  0  0  0
 75 85  1  0  0  0
 76 86  1  0  0  0
 77 78  1  0  0  0
 77 83  1  0  0  0
 77149  1  0  0  0
 77150  1  0  0  0
 78 83  1  0  0  0
 78151  1  0  0  0
 78152  1  0  0  0
 79 81  1  0  0  0
 79 84  1  0  0  0
 79153  1  0  0  0
 79154  1  0  0  0
 80 82  1  0  0  0
 80 84  1  0  0  0
 80155  1  0  0  0
 80156  1  0  0  0
 81 87  1  0  0  0
 81157  1  0  0  0
 81158  1  0  0  0
 82 87  1  0  0  0
 82159  1  0  0  0
 82160  1  0  0  0
 83161  1  0  0  0
 84162  1  0  0  0
 85163  1  0  0  0
 85164  1  0  0  0
 85165  1  0  0  0
 86166  1  0  0  0
 86167  1  0  0  0
M  ISO  4   1 100  68 101  86 101  87 100
M  END
> <chiral flag>
0

> <version>
0

> <s_m_source_file>
/data/baiqing/PycharmProjects/Reinvent-master-3.2/result/LINK_invent/BTK/process_docking_weight1_custom_sum_contain_oxygen_bond_distance_aromatic_linkinvent_7_9_3/rearranged_h_0162.sdf

> <i_m_source_file_index>
35

> <r_mmod_Potential_Energy-OPLS-2005>
482.095001220703

> <r_mmod_Stretch_Energy-OPLS-2005>
115.929901123047

> <r_mmod_Bend_Energy-OPLS-2005>
216.147445678711

> <r_mmod_Torsional_Energy-OPLS-2005>
348.5283203125

> <r_mmod_Improper_Torsional_Energy-OPLS-2005>
18.8619174957275

> <r_mmod_Van_der_Waal_Energy-OPLS-2005>
165.44807434082

> <r_mmod_Electrostatic_Energy-OPLS-2005>
-284.797393798828

> <r_mmod_Solvation_Energy-OPLS-2005>
-191.052886962891

> <b_mmod_Minimization_Converged-OPLS-2005>
0

> <r_mmod_RMS_Derivative-OPLS-2005>
0.435758531093597

$$$$
35
                    3D
 Structure written by MMmdl.
168178  0  0  1  0            999 V2000
  -30.7663  -14.7066   20.4475 C   0  0  0  0  0  0
  -30.4087  -12.4598   19.4522 C   0  0  0  0  0  0
  -29.4912  -12.4968   18.2187 C   0  0  0  0  0  0
  -28.0248  -12.3287   18.6497 C   0  0  0  0  0  0
  -27.6307  -13.2548   19.8336 C   0  0  2  0  0  0
  -28.6936  -13.2753   20.9550 C   0  0  0  0  0  0
  -25.2481  -13.8235   20.5809 C   0  0  0  0  0  0
  -24.1802  -13.0466   20.9289 C   0  0  0  0  0  0
  -24.6413  -11.6934   20.8795 C   0  0  0  0  0  0
  -23.9101  -10.4305   21.0408 C   0  0  0  0  0  0
  -24.3644   -9.4207   21.9173 C   0  0  0  0  0  0
  -23.6319   -8.2245   22.0729 C   0  0  0  0  0  0
  -22.4302   -8.0287   21.3515 C   0  0  0  0  0  0
  -21.9941   -9.0267   20.4629 C   0  0  0  0  0  0
  -22.7267  -10.2147   20.3059 C   0  0  0  0  0  0
  -21.6862   -6.0760   22.5281 C   0  0  0  0  0  0
  -21.4012   -6.5651   23.8222 C   0  0  0  0  0  0
  -21.3678   -5.6792   24.9178 C   0  0  0  0  0  0
  -21.6068   -4.3062   24.7217 C   0  0  0  0  0  0
  -21.8820   -3.8163   23.4337 C   0  0  0  0  0  0
  -21.9196   -4.6980   22.3400 C   0  0  0  0  0  0
  -22.7804  -13.5202   21.1958 C   0  0  0  0  0  0
  -22.1662   -4.2178   21.0963 F   0  0  0  0  0  0
  -21.5634   -3.4527   25.7725 F   0  0  0  0  0  0
  -29.9845  -13.5809   20.3204 N   0  0  0  0  0  0
  -26.2928  -12.9505   20.3332 N   0  0  0  0  0  0
  -25.9360  -11.6613   20.5804 N   0  0  0  0  0  0
  -22.0454  -12.8206   22.0517 N   0  0  0  0  0  0
  -25.4199  -15.1984   20.4222 N   0  0  0  0  0  0
  -31.9860  -14.5629   20.3693 O   0  0  0  0  0  0
  -21.6640   -6.8902   21.4239 O   0  0  0  0  0  0
  -22.3464  -14.5499   20.6781 O   0  0  0  0  0  0
  -24.6261  -31.8590   23.2010 C   0  0  0  0  0  0
  -25.9103  -32.4759   23.8351 C   0  0  1  0  0  0
  -27.2235  -27.3042   20.0830 C   0  0  0  0  0  0
  -25.5930  -33.8563   24.2297 N   0  0  0  0  0  0
  -23.4257  -30.4805   21.5435 C   0  0  2  0  0  0
  -24.8756  -28.9426   20.1104 C   0  0  0  0  0  0
  -22.7508  -29.4587   22.4929 C   0  0  0  0  0  0
  -18.0297  -28.1370   22.8527 C   0  0  0  0  0  0
  -24.1483  -36.7252   23.2656 C   0  0  0  0  0  0
  -25.9741  -30.7795   21.3842 C   0  0  0  0  0  0
  -26.0490  -29.4106   20.7169 C   0  0  0  0  0  0
  -27.2270  -28.5977   20.7011 C   0  0  0  0  0  0
  -26.0233  -26.9010   19.4546 C   0  0  0  0  0  0
  -24.8656  -27.6952   19.4741 C   0  0  0  0  0  0
  -23.6464  -29.8210   20.1605 C   0  0  0  0  0  0
  -25.4110  -36.3056   24.0336 C   0  0  1  0  0  0
  -20.5919  -28.3632   23.1337 C   0  0  2  0  0  0
  -20.6785  -26.9350   22.5439 C   0  0  0  0  0  0
  -19.5742  -26.6362   21.5252 C   0  0  0  0  0  0
  -18.1919  -26.7928   22.1653 C   0  0  0  0  0  0
  -19.1560  -28.8825   23.2926 C   0  0  0  0  0  0
  -18.9471  -30.1451   23.8893 C   0  0  0  0  0  0
  -17.6464  -30.6571   24.0572 C   0  0  0  0  0  0
  -25.9047  -34.9433   23.5114 C   0  0  0  0  0  0
  -16.5359  -29.9065   23.6345 C   0  0  0  0  0  0
  -16.7284  -28.6499   23.0357 C   0  0  0  0  0  0
  -26.4513  -31.6573   25.0720 C   0  0  0  0  0  0
  -25.3762  -31.3729   26.1459 C   0  0  0  0  0  0
  -27.0415  -30.3004   24.6199 C   0  0  0  0  0  0
  -27.6062  -32.4334   25.7486 C   0  0  0  0  0  0
  -27.5562  -37.1780   24.8477 C   0  0  0  0  0  0
  -21.4210  -29.2985   22.3720 N   0  0  0  0  0  0
  -26.4279  -37.3755   23.9418 N   0  0  0  0  0  0
  -24.6936  -31.0572   22.0986 N   0  0  0  0  0  0
  -23.4250  -28.8104   23.2977 O   0  0  0  0  0  0
  -28.3185  -26.4178   20.0932 O   0  0  0  0  0  0
  -26.5599  -34.8893   22.4671 O   0  0  0  0  0  0
  -23.5414  -32.1428   23.7288 O   0  0  0  0  0  0
  -28.4126  -21.0988   22.7236 C   0  0  0  0  0  0
  -28.9609  -22.3897   20.7097 C   0  0  0  0  0  0
  -29.2451  -19.8299   20.7977 C   0  0  0  0  0  0
  -28.5543  -22.3344   22.0681 C   0  0  0  0  0  0
  -29.3084  -21.1143   20.0938 C   0  0  0  0  0  0
  -28.7357  -19.8625   22.1193 C   0  0  0  0  0  0
  -31.1148  -18.2687   19.7676 C   0  0  0  0  0  0
  -28.3063  -24.2294   18.7853 C   0  0  0  0  0  0
  -31.1434  -16.8306   19.2146 C   0  0  0  0  0  0
  -29.4761  -16.9767   20.8318 C   0  0  0  0  0  0
  -29.0875  -23.8118   20.0259 C   0  0  1  0  0  0
  -29.6526  -18.4247   20.1506 C   0  0  2  0  0  0
  -28.0013  -24.9605   20.0691 C   0  0  2  0  0  0
  -28.3023  -23.5702   22.9294 C   0  0  0  0  0  0
  -29.7260  -21.1682   18.6299 C   0  0  0  0  0  0
  -27.5586  -18.5742   23.7655 C   0  0  0  0  0  0
  -30.2810  -15.9609   20.0649 N   0  0  0  0  0  0
  -28.6077  -18.6823   22.8129 O   0  0  0  0  0  0
  -31.4493  -12.5428   19.1324 H   0  0  0  0  0  0
  -30.3250  -11.5094   19.9795 H   0  0  0  0  0  0
  -29.7689  -11.7114   17.5164 H   0  0  0  0  0  0
  -29.6207  -13.4444   17.6927 H   0  0  0  0  0  0
  -27.8937  -11.2865   18.9376 H   0  0  0  0  0  0
  -27.3583  -12.4965   17.8031 H   0  0  0  0  0  0
  -27.5935  -14.2618   19.4153 H   0  0  0  0  0  0
  -28.7301  -12.3213   21.4801 H   0  0  0  0  0  0
  -28.4450  -14.0334   21.7009 H   0  0  0  0  0  0
  -25.2799   -9.5696   22.4737 H   0  0  0  0  0  0
  -24.0069   -7.4643   22.7444 H   0  0  0  0  0  0
  -21.0888   -8.8774   19.8931 H   0  0  0  0  0  0
  -22.3728  -10.9679   19.6170 H   0  0  0  0  0  0
  -21.1975   -7.6151   23.9725 H   0  0  0  0  0  0
  -21.1516   -6.0513   25.9079 H   0  0  0  0  0  0
  -22.0593   -2.7630   23.2816 H   0  0  0  0  0  0
  -22.4022  -11.9847   22.4938 H   0  0  0  0  0  0
  -21.1039  -13.1177   22.2640 H   0  0  0  0  0  0
  -24.6597  -15.8622   20.5115 H   0  0  0  0  0  0
  -26.2794  -15.6237   20.1014 H   0  0  0  0  0  0
  -26.7173  -32.5437   23.1106 H   0  0  0  0  0  0
  -25.0136  -33.9713   25.0485 H   0  0  0  0  0  0
  -22.7202  -31.2992   21.3912 H   0  0  0  0  0  0
  -23.3746  -35.9584   23.3341 H   0  0  0  0  0  0
  -24.3613  -36.8841   22.2071 H   0  0  0  0  0  0
  -23.7209  -37.6448   23.6674 H   0  0  0  0  0  0
  -26.1252  -31.5469   20.6252 H   0  0  0  0  0  0
  -26.8503  -30.8239   22.0198 H   0  0  0  0  0  0
  -28.1247  -28.9379   21.2000 H   0  0  0  0  0  0
  -25.9553  -25.9531   18.9413 H   0  0  0  0  0  0
  -23.9643  -27.3408   18.9917 H   0  0  0  0  0  0
  -23.7766  -30.5937   19.4013 H   0  0  0  0  0  0
  -22.7711  -29.2454   19.8515 H   0  0  0  0  0  0
  -25.1298  -36.1925   25.0824 H   0  0  0  0  0  0
  -21.0034  -28.3158   24.1457 H   0  0  0  0  0  0
  -20.5742  -26.2178   23.3612 H   0  0  0  0  0  0
  -21.6628  -26.7397   22.1182 H   0  0  0  0  0  0
  -19.6864  -25.6295   21.1216 H   0  0  0  0  0  0
  -19.6677  -27.3236   20.6849 H   0  0  0  0  0  0
  -17.4208  -26.6751   21.4019 H   0  0  0  0  0  0
  -18.0236  -26.0059   22.9028 H   0  0  0  0  0  0
  -19.7934  -30.7296   24.2222 H   0  0  0  0  0  0
  -17.5006  -31.6254   24.5150 H   0  0  0  0  0  0
  -15.5360  -30.2961   23.7645 H   0  0  0  0  0  0
  -15.8705  -28.0815   22.7050 H   0  0  0  0  0  0
  -24.5912  -30.7088   25.7821 H   0  0  0  0  0  0
  -24.8983  -32.2911   26.4887 H   0  0  0  0  0  0
  -25.8090  -30.8918   27.0237 H   0  0  0  0  0  0
  -26.3000  -29.6647   24.1327 H   0  0  0  0  0  0
  -27.4267  -29.7336   25.4693 H   0  0  0  0  0  0
  -27.8789  -30.4322   23.9335 H   0  0  0  0  0  0
  -27.2664  -33.3654   26.2006 H   0  0  0  0  0  0
  -28.3885  -32.6845   25.0320 H   0  0  0  0  0  0
  -28.0704  -31.8499   26.5449 H   0  0  0  0  0  0
  -28.2601  -38.0064   24.7546 H   0  0  0  0  0  0
  -28.1023  -36.2588   24.6288 H   0  0  0  0  0  0
  -27.2286  -37.1433   25.8886 H   0  0  0  0  0  0
  -20.9371  -29.8710   21.6967 H   0  0  0  0  0  0
  -26.0139  -38.2811   24.1470 H   0  0  0  0  0  0
  -28.0882  -21.1321   23.7505 H   0  0  0  0  0  0
  -31.4756  -18.9942   19.0411 H   0  0  0  0  0  0
  -31.7544  -18.3493   20.6507 H   0  0  0  0  0  0
  -27.5327  -23.5622   18.4087 H   0  0  0  0  0  0
  -28.8333  -24.7921   18.0196 H   0  0  0  0  0  0
  -32.1808  -16.5147   19.0917 H   0  0  0  0  0  0
  -30.7192  -16.8301   18.2109 H   0  0  0  0  0  0
  -28.4280  -16.6847   20.9136 H   0  0  0  0  0  0
  -29.8963  -16.9693   21.8414 H   0  0  0  0  0  0
  -30.1304  -24.1195   20.0551 H   0  0  0  0  0  0
  -29.0620  -18.3884   19.2348 H   0  0  0  0  0  0
  -27.0564  -24.7288   20.5596 H   0  0  0  0  0  0
  -28.1945  -24.5118   22.4105 H   0  0  0  0  0  0
  -29.1365  -23.7068   23.6154 H   0  0  0  0  0  0
  -27.3938  -23.4483   23.5194 H   0  0  0  0  0  0
  -29.9778  -20.2143   18.1731 H   0  0  0  0  0  0
  -28.9004  -21.5756   18.0493 H   0  0  0  0  0  0
  -30.5806  -21.8334   18.5097 H   0  0  0  0  0  0
  -26.6011  -18.8610   23.3291 H   0  0  0  0  0  0
  -27.7498  -19.1933   24.6412 H   0  0  0  0  0  0
  -27.4748  -17.5397   24.1053 H   0  0  0  0  0  0
  1 25  1  0  0  0
  1 30  2  0  0  0
  1 87  1  0  0  0
  2  3  1  0  0  0
  2 25  1  0  0  0
  2 89  1  0  0  0
  2 90  1  0  0  0
  3  4  1  0  0  0
  3 91  1  0  0  0
  3 92  1  0  0  0
  4  5  1  0  0  0
  4 93  1  0  0  0
  4 94  1  0  0  0
  5  6  1  0  0  0
  5 26  1  0  0  0
  5 95  1  0  0  0
  6 25  1  0  0  0
  6 96  1  0  0  0
  6 97  1  0  0  0
  7  8  2  0  0  0
  7 26  1  0  0  0
  7 29  1  0  0  0
  8  9  1  0  0  0
  8 22  1  0  0  0
  9 10  1  0  0  0
  9 27  2  0  0  0
 10 11  2  0  0  0
 10 15  1  0  0  0
 11 12  1  0  0  0
 11 98  1  0  0  0
 12 13  2  0  0  0
 12 99  1  0  0  0
 13 14  1  0  0  0
 13 31  1  0  0  0
 14 15  2  0  0  0
 14100  1  0  0  0
 15101  1  0  0  0
 16 17  2  0  0  0
 16 21  1  0  0  0
 16 31  1  0  0  0
 17 18  1  0  0  0
 17102  1  0  0  0
 18 19  2  0  0  0
 18103  1  0  0  0
 19 20  1  0  0  0
 19 24  1  0  0  0
 20 21  2  0  0  0
 20104  1  0  0  0
 21 23  1  0  0  0
 22 28  1  0  0  0
 22 32  2  0  0  0
 26 27  1  0  0  0
 28105  1  0  0  0
 28106  1  0  0  0
 29107  1  0  0  0
 29108  1  0  0  0
 33 34  1  0  0  0
 33 66  1  0  0  0
 33 70  2  0  0  0
 34 36  1  0  0  0
 34 59  1  0  0  0
 34109  1  0  0  0
 35 44  2  0  0  0
 35 45  1  0  0  0
 35 68  1  0  0  0
 36 56  1  0  0  0
 36110  1  0  0  0
 37 39  1  0  0  0
 37 47  1  0  0  0
 37 66  1  0  0  0
 37111  1  0  0  0
 38 43  2  0  0  0
 38 46  1  0  0  0
 38 47  1  0  0  0
 39 64  1  0  0  0
 39 67  2  0  0  0
 40 52  1  0  0  0
 40 53  2  0  0  0
 40 58  1  0  0  0
 41112  1  0  0  0
 41113  1  0  0  0
 41114  1  0  0  0
 41 48  1  0  0  0
 42 43  1  0  0  0
 42 66  1  0  0  0
 42115  1  0  0  0
 42116  1  0  0  0
 43 44  1  0  0  0
 44117  1  0  0  0
 45 46  2  0  0  0
 45118  1  0  0  0
 46119  1  0  0  0
 47120  1  0  0  0
 47121  1  0  0  0
 48 56  1  0  0  0
 48 65  1  0  0  0
 48122  1  0  0  0
 49 50  1  0  0  0
 49 53  1  0  0  0
 49 64  1  0  0  0
 49123  1  0  0  0
 50 51  1  0  0  0
 50124  1  0  0  0
 50125  1  0  0  0
 51 52  1  0  0  0
 51126  1  0  0  0
 51127  1  0  0  0
 52128  1  0  0  0
 52129  1  0  0  0
 53 54  1  0  0  0
 54 55  2  0  0  0
 54130  1  0  0  0
 55 57  1  0  0  0
 55131  1  0  0  0
 56 69  2  0  0  0
 57 58  2  0  0  0
 57132  1  0  0  0
 58133  1  0  0  0
 59 60  1  0  0  0
 59 61  1  0  0  0
 59 62  1  0  0  0
 60134  1  0  0  0
 60135  1  0  0  0
 60136  1  0  0  0
 61137  1  0  0  0
 61138  1  0  0  0
 61139  1  0  0  0
 62140  1  0  0  0
 62141  1  0  0  0
 62142  1  0  0  0
 63 65  1  0  0  0
 63143  1  0  0  0
 63144  1  0  0  0
 63145  1  0  0  0
 64146  1  0  0  0
 65147  1  0  0  0
 68 83  1  0  0  0
 71 74  2  0  0  0
 71 76  1  0  0  0
 71148  1  0  0  0
 72 74  1  0  0  0
 72 75  2  0  0  0
 72 81  1  0  0  0
 73 75  1  0  0  0
 73 76  2  0  0  0
 73 82  1  0  0  0
 74 84  1  0  0  0
 75 85  1  0  0  0
 76 88  1  0  0  0
 77 79  1  0  0  0
 77 82  1  0  0  0
 77149  1  0  0  0
 77150  1  0  0  0
 78 81  1  0  0  0
 78 83  1  0  0  0
 78151  1  0  0  0
 78152  1  0  0  0
 79 87  1  0  0  0
 79153  1  0  0  0
 79154  1  0  0  0
 80 82  1  0  0  0
 80 87  1  0  0  0
 80155  1  0  0  0
 80156  1  0  0  0
 81 83  1  0  0  0
 81157  1  0  0  0
 82158  1  0  0  0
 83159  1  0  0  0
 84160  1  0  0  0
 84161  1  0  0  0
 84162  1  0  0  0
 85163  1  0  0  0
 85164  1  0  0  0
 85165  1  0  0  0
 86 88  1  0  0  0
 86166  1  0  0  0
 86167  1  0  0  0
 86168  1  0  0  0
M  ISO  4   1 100  68 101  83 101  87 100
M  END
> <chiral flag>
0

> <version>
0

> <s_m_source_file>
/data/baiqing/PycharmProjects/Reinvent-master-3.2/result/LINK_invent/BTK/process_docking_weight1_custom_sum_contain_oxygen_bond_distance_aromatic_linkinvent_7_9_3/rearranged_h_0162.sdf

> <i_m_source_file_index>
36

> <r_mmod_Potential_Energy-OPLS-2005>
464.733367919922

> <r_mmod_Stretch_Energy-OPLS-2005>
117.545394897461

> <r_mmod_Bend_Energy-OPLS-2005>
226.261947631836

> <r_mmod_Torsional_Energy-OPLS-2005>
351.852325439453

> <r_mmod_Improper_Torsional_Energy-OPLS-2005>
24.9141902923584

> <r_mmod_Van_der_Waal_Energy-OPLS-2005>
166.399063110352

> <r_mmod_Electrostatic_Energy-OPLS-2005>
-318.091888427734

> <r_mmod_Solvation_Energy-OPLS-2005>
-199.264144897461

> <b_mmod_Minimization_Converged-OPLS-2005>
0

> <r_mmod_RMS_Derivative-OPLS-2005>
6.00751399993896

$$$$
36
                    3D
 Structure written by MMmdl.
169178  0  0  1  0            999 V2000
  -30.6117  -14.8643   20.5143 C   0  0  0  0  0  0
  -30.4287  -12.5494   19.5083 C   0  0  0  0  0  0
  -29.5173  -12.5293   18.2607 C   0  0  0  0  0  0
  -28.0504  -12.3210   18.6763 C   0  0  0  0  0  0
  -27.6341  -13.2405   19.8548 C   0  0  2  0  0  0
  -28.6742  -13.2274   20.9978 C   0  0  0  0  0  0
  -25.2446  -13.8183   20.5703 C   0  0  0  0  0  0
  -24.1747  -13.0412   20.9181 C   0  0  0  0  0  0
  -24.6328  -11.6896   20.8734 C   0  0  0  0  0  0
  -23.9022  -10.4261   21.0390 C   0  0  0  0  0  0
  -24.3559   -9.4183   21.9178 C   0  0  0  0  0  0
  -23.6259   -8.2208   22.0739 C   0  0  0  0  0  0
  -22.4251   -8.0217   21.3519 C   0  0  0  0  0  0
  -21.9859   -9.0184   20.4633 C   0  0  0  0  0  0
  -22.7175  -10.2072   20.3055 C   0  0  0  0  0  0
  -21.6845   -6.0691   22.5257 C   0  0  0  0  0  0
  -21.4027   -6.5613   23.8182 C   0  0  0  0  0  0
  -21.3667   -5.6765   24.9137 C   0  0  0  0  0  0
  -21.6035   -4.3031   24.7201 C   0  0  0  0  0  0
  -21.8824   -3.8116   23.4331 C   0  0  0  0  0  0
  -21.9210   -4.6929   22.3387 C   0  0  0  0  0  0
  -22.7775  -13.5223   21.1820 C   0  0  0  0  0  0
  -22.1697   -4.2116   21.0971 F   0  0  0  0  0  0
  -21.5614   -3.4524   25.7733 F   0  0  0  0  0  0
  -29.9505  -13.6443   20.4084 N   0  0  0  0  0  0
  -26.2874  -12.9416   20.3292 N   0  0  0  0  0  0
  -25.9270  -11.6543   20.5752 N   0  0  0  0  0  0
  -22.0435  -12.8224   22.0391 N   0  0  0  0  0  0
  -25.4119  -15.1902   20.4149 N   0  0  0  0  0  0
  -31.8035  -14.8613   20.1755 O   0  0  0  0  0  0
  -21.6617   -6.8811   21.4214 O   0  0  0  0  0  0
  -22.3488  -14.5534   20.6651 O   0  0  0  0  0  0
  -24.6376  -31.8492   23.1920 C   0  0  0  0  0  0
  -25.9210  -32.4701   23.8264 C   0  0  1  0  0  0
  -27.1998  -27.1796   20.1761 C   0  0  0  0  0  0
  -25.5991  -33.8499   24.2204 N   0  0  0  0  0  0
  -23.4333  -30.4737   21.5363 C   0  0  2  0  0  0
  -24.8802  -28.9078   20.1092 C   0  0  0  0  0  0
  -22.7543  -29.4580   22.4868 C   0  0  0  0  0  0
  -18.0316  -28.1402   22.8456 C   0  0  0  0  0  0
  -24.1493  -36.7255   23.2631 C   0  0  0  0  0  0
  -25.9863  -30.7362   21.3864 C   0  0  0  0  0  0
  -26.0547  -29.3531   20.7313 C   0  0  0  0  0  0
  -27.2169  -28.5075   20.7477 C   0  0  0  0  0  0
  -26.0062  -26.8276   19.5041 C   0  0  0  0  0  0
  -24.8681  -27.6567   19.4786 C   0  0  0  0  0  0
  -23.6563  -29.8079   20.1506 C   0  0  0  0  0  0
  -25.4121  -36.3034   24.0304 C   0  0  1  0  0  0
  -20.5920  -28.3717   23.1237 C   0  0  2  0  0  0
  -20.6802  -26.9428   22.5383 C   0  0  0  0  0  0
  -19.5783  -26.6388   21.5188 C   0  0  0  0  0  0
  -18.1965  -26.7940   22.1597 C   0  0  0  0  0  0
  -19.1563  -28.8885   23.2831 C   0  0  0  0  0  0
  -18.9485  -30.1497   23.8840 C   0  0  0  0  0  0
  -17.6475  -30.6589   24.0574 C   0  0  0  0  0  0
  -25.9073  -34.9400   23.5041 C   0  0  0  0  0  0
  -16.5365  -29.9084   23.6356 C   0  0  0  0  0  0
  -16.7300  -28.6515   23.0337 C   0  0  0  0  0  0
  -26.4540  -31.6555   25.0710 C   0  0  0  0  0  0
  -25.3740  -31.3738   26.1428 C   0  0  0  0  0  0
  -27.0398  -30.2951   24.6277 C   0  0  0  0  0  0
  -27.6091  -32.4300   25.7485 C   0  0  0  0  0  0
  -27.5577  -37.1783   24.8462 C   0  0  0  0  0  0
  -21.4246  -29.3033   22.3618 N   0  0  0  0  0  0
  -26.4281  -37.3756   23.9406 N   0  0  0  0  0  0
  -24.7052  -31.0418   22.0921 N   0  0  0  0  0  0
  -23.4224  -28.8136   23.3003 O   0  0  0  0  0  0
  -28.2499  -26.2170   20.2743 O   0  0  0  0  0  0
  -26.5637  -34.8894   22.4619 O   0  0  0  0  0  0
  -23.5536  -32.1330   23.7229 O   0  0  0  0  0  0
  -27.5718  -21.4951   23.3827 C   0  0  0  0  0  0
  -26.9994  -21.9464   21.0591 C   0  0  0  0  0  0
  -29.0915  -20.8938   21.6000 C   0  0  0  0  0  0
  -26.5955  -21.7555   22.3987 C   0  0  0  0  0  0
  -28.8668  -21.1029   22.9856 C   0  0  0  0  0  0
  -28.3855  -21.9136   20.7927 C   0  0  0  0  0  0
  -28.6824  -18.1715   21.9036 C   0  0  0  0  0  0
  -29.8022  -18.7620   19.8772 C   0  0  0  0  0  0
  -29.0931  -16.6127   21.7387 C   0  0  0  0  0  0
  -30.5355  -17.3302   19.8835 C   0  0  0  0  0  0
  -29.5505  -19.3442   21.2883 C   0  0  0  0  0  0
  -25.1479  -21.9245   22.8021 C   0  0  0  0  0  0
  -29.9036  -20.7566   24.0489 C   0  0  0  0  0  0
  -29.9310  -23.4369   19.4341 C   0  0  0  0  0  0
  -27.8954  -24.7265   20.4000 C   0  0  0  0  0  0
  -28.9313  -23.4389   20.5898 C   0  0  1  0  0  0
  -29.9489  -16.1303   20.6013 N   0  0  0  0  0  0
  -31.4657  -12.6758   19.2018 H   0  0  0  0  0  0
  -30.4007  -11.5883   20.0255 H   0  0  0  0  0  0
  -29.8303  -11.7446   17.5679 H   0  0  0  0  0  0
  -29.6193  -13.4692   17.7192 H   0  0  0  0  0  0
  -27.9425  -11.2804   18.9799 H   0  0  0  0  0  0
  -27.3882  -12.4552   17.8197 H   0  0  0  0  0  0
  -27.6146  -14.2520   19.4473 H   0  0  0  0  0  0
  -28.7563  -12.2370   21.4515 H   0  0  0  0  0  0
  -28.3828  -13.8923   21.8067 H   0  0  0  0  0  0
  -25.2661   -9.5694   22.4784 H   0  0  0  0  0  0
  -23.9948   -7.4619   22.7469 H   0  0  0  0  0  0
  -21.0771   -8.8673   19.8980 H   0  0  0  0  0  0
  -22.3563  -10.9591   19.6188 H   0  0  0  0  0  0
  -21.2042   -7.6126   23.9669 H   0  0  0  0  0  0
  -21.1498   -6.0506   25.9034 H   0  0  0  0  0  0
  -22.0614   -2.7581   23.2840 H   0  0  0  0  0  0
  -22.4059  -11.9927   22.4847 H   0  0  0  0  0  0
  -21.1058  -13.1251   22.2609 H   0  0  0  0  0  0
  -24.6456  -15.8430   20.5310 H   0  0  0  0  0  0
  -26.2636  -15.6286   20.0897 H   0  0  0  0  0  0
  -26.7280  -32.5342   23.0996 H   0  0  0  0  0  0
  -25.0189  -33.9561   25.0388 H   0  0  0  0  0  0
  -22.7309  -31.2978   21.3909 H   0  0  0  0  0  0
  -23.3749  -35.9592   23.3277 H   0  0  0  0  0  0
  -24.3587  -36.8900   22.2050 H   0  0  0  0  0  0
  -23.7236  -37.6444   23.6673 H   0  0  0  0  0  0
  -26.1458  -31.4901   20.6152 H   0  0  0  0  0  0
  -26.8564  -30.7820   22.0292 H   0  0  0  0  0  0
  -28.1088  -28.8377   21.2606 H   0  0  0  0  0  0
  -25.9110  -25.8765   19.0049 H   0  0  0  0  0  0
  -23.9756  -27.3108   18.9749 H   0  0  0  0  0  0
  -23.7919  -30.5832   19.3954 H   0  0  0  0  0  0
  -22.7706  -29.2474   19.8465 H   0  0  0  0  0  0
  -25.1316  -36.1848   25.0792 H   0  0  0  0  0  0
  -20.9998  -28.3308   24.1367 H   0  0  0  0  0  0
  -20.5702  -26.2325   23.3580 H   0  0  0  0  0  0
  -21.6680  -26.7444   22.1205 H   0  0  0  0  0  0
  -19.6930  -25.6292   21.1250 H   0  0  0  0  0  0
  -19.6739  -27.3166   20.6692 H   0  0  0  0  0  0
  -17.4227  -26.6679   21.4000 H   0  0  0  0  0  0
  -18.0392  -26.0082   22.9003 H   0  0  0  0  0  0
  -19.7958  -30.7362   24.2120 H   0  0  0  0  0  0
  -17.5030  -31.6257   24.5218 H   0  0  0  0  0  0
  -15.5369  -30.2974   23.7717 H   0  0  0  0  0  0
  -15.8698  -28.0855   22.7025 H   0  0  0  0  0  0
  -24.5900  -30.7104   25.7771 H   0  0  0  0  0  0
  -24.8945  -32.2915   26.4838 H   0  0  0  0  0  0
  -25.8042  -30.8928   27.0217 H   0  0  0  0  0  0
  -26.3005  -29.6680   24.1285 H   0  0  0  0  0  0
  -27.4028  -29.7260   25.4844 H   0  0  0  0  0  0
  -27.8920  -30.4192   23.9588 H   0  0  0  0  0  0
  -27.2702  -33.3614   26.2015 H   0  0  0  0  0  0
  -28.3921  -32.6803   25.0327 H   0  0  0  0  0  0
  -28.0731  -31.8444   26.5422 H   0  0  0  0  0  0
  -28.2597  -38.0086   24.7527 H   0  0  0  0  0  0
  -28.1069  -36.2609   24.6270 H   0  0  0  0  0  0
  -27.2298  -37.1433   25.8870 H   0  0  0  0  0  0
  -20.9446  -29.8731   21.6793 H   0  0  0  0  0  0
  -26.0145  -38.2823   24.1424 H   0  0  0  0  0  0
  -27.3061  -21.5099   24.4320 H   0  0  0  0  0  0
  -26.3130  -22.4483   20.3876 H   0  0  0  0  0  0
  -28.5459  -18.3585   22.9689 H   0  0  0  0  0  0
  -27.6781  -18.2775   21.4915 H   0  0  0  0  0  0
  -28.8599  -18.7035   19.3286 H   0  0  0  0  0  0
  -30.4256  -19.4662   19.3278 H   0  0  0  0  0  0
  -28.1550  -16.0573   21.6873 H   0  0  0  0  0  0
  -29.5722  -16.2878   22.6647 H   0  0  0  0  0  0
  -31.5313  -17.4842   20.3010 H   0  0  0  0  0  0
  -30.7076  -17.0439   18.8463 H   0  0  0  0  0  0
  -30.5318  -19.2919   21.7615 H   0  0  0  0  0  0
  -25.0009  -21.6080   23.8346 H   0  0  0  0  0  0
  -24.5139  -21.2996   22.1738 H   0  0  0  0  0  0
  -24.8272  -22.9598   22.7090 H   0  0  0  0  0  0
  -29.4832  -20.8061   25.0544 H   0  0  0  0  0  0
  -30.7224  -21.4790   24.0157 H   0  0  0  0  0  0
  -30.3200  -19.7589   23.9282 H   0  0  0  0  0  0
  -30.7125  -22.6936   19.5969 H   0  0  0  0  0  0
  -30.4073  -24.4116   19.3201 H   0  0  0  0  0  0
  -29.4247  -23.1947   18.4982 H   0  0  0  0  0  0
  -27.1927  -24.6910   21.2348 H   0  0  0  0  0  0
  -27.3174  -24.4566   19.5221 H   0  0  0  0  0  0
  -29.4970  -23.6558   21.4989 H   0  0  0  0  0  0
  1 25  1  0  0  0
  1 30  2  0  0  0
  1 87  1  0  0  0
  2  3  1  0  0  0
  2 25  1  0  0  0
  2 88  1  0  0  0
  2 89  1  0  0  0
  3  4  1  0  0  0
  3 90  1  0  0  0
  3 91  1  0  0  0
  4  5  1  0  0  0
  4 92  1  0  0  0
  4 93  1  0  0  0
  5  6  1  0  0  0
  5 26  1  0  0  0
  5 94  1  0  0  0
  6 25  1  0  0  0
  6 95  1  0  0  0
  6 96  1  0  0  0
  7  8  2  0  0  0
  7 26  1  0  0  0
  7 29  1  0  0  0
  8  9  1  0  0  0
  8 22  1  0  0  0
  9 10  1  0  0  0
  9 27  2  0  0  0
 10 11  2  0  0  0
 10 15  1  0  0  0
 11 12  1  0  0  0
 11 97  1  0  0  0
 12 13  2  0  0  0
 12 98  1  0  0  0
 13 14  1  0  0  0
 13 31  1  0  0  0
 14 15  2  0  0  0
 14 99  1  0  0  0
 15100  1  0  0  0
 16 17  2  0  0  0
 16 21  1  0  0  0
 16 31  1  0  0  0
 17 18  1  0  0  0
 17101  1  0  0  0
 18 19  2  0  0  0
 18102  1  0  0  0
 19 20  1  0  0  0
 19 24  1  0  0  0
 20 21  2  0  0  0
 20103  1  0  0  0
 21 23  1  0  0  0
 22 28  1  0  0  0
 22 32  2  0  0  0
 26 27  1  0  0  0
 28104  1  0  0  0
 28105  1  0  0  0
 29106  1  0  0  0
 29107  1  0  0  0
 33 34  1  0  0  0
 33 66  1  0  0  0
 33 70  2  0  0  0
 34 36  1  0  0  0
 34 59  1  0  0  0
 34108  1  0  0  0
 35 44  2  0  0  0
 35 45  1  0  0  0
 35 68  1  0  0  0
 36 56  1  0  0  0
 36109  1  0  0  0
 37 39  1  0  0  0
 37 47  1  0  0  0
 37 66  1  0  0  0
 37110  1  0  0  0
 38 43  2  0  0  0
 38 46  1  0  0  0
 38 47  1  0  0  0
 39 64  1  0  0  0
 39 67  2  0  0  0
 40 52  1  0  0  0
 40 53  2  0  0  0
 40 58  1  0  0  0
 41111  1  0  0  0
 41112  1  0  0  0
 41113  1  0  0  0
 41 48  1  0  0  0
 42 43  1  0  0  0
 42 66  1  0  0  0
 42114  1  0  0  0
 42115  1  0  0  0
 43 44  1  0  0  0
 44116  1  0  0  0
 45 46  2  0  0  0
 45117  1  0  0  0
 46118  1  0  0  0
 47119  1  0  0  0
 47120  1  0  0  0
 48 56  1  0  0  0
 48 65  1  0  0  0
 48121  1  0  0  0
 49 50  1  0  0  0
 49 53  1  0  0  0
 49 64  1  0  0  0
 49122  1  0  0  0
 50 51  1  0  0  0
 50123  1  0  0  0
 50124  1  0  0  0
 51 52  1  0  0  0
 51125  1  0  0  0
 51126  1  0  0  0
 52127  1  0  0  0
 52128  1  0  0  0
 53 54  1  0  0  0
 54 55  2  0  0  0
 54129  1  0  0  0
 55 57  1  0  0  0
 55130  1  0  0  0
 56 69  2  0  0  0
 57 58  2  0  0  0
 57131  1  0  0  0
 58132  1  0  0  0
 59 60  1  0  0  0
 59 61  1  0  0  0
 59 62  1  0  0  0
 60133  1  0  0  0
 60134  1  0  0  0
 60135  1  0  0  0
 61136  1  0  0  0
 61137  1  0  0  0
 61138  1  0  0  0
 62139  1  0  0  0
 62140  1  0  0  0
 62141  1  0  0  0
 63 65  1  0  0  0
 63142  1  0  0  0
 63143  1  0  0  0
 63144  1  0  0  0
 64145  1  0  0  0
 65146  1  0  0  0
 68 85  1  0  0  0
 71 74  2  0  0  0
 71 75  1  0  0  0
 71147  1  0  0  0
 72 74  1  0  0  0
 72 76  2  0  0  0
 72148  1  0  0  0
 73 75  2  0  0  0
 73 76  1  0  0  0
 73 81  1  0  0  0
 74 82  1  0  0  0
 75 83  1  0  0  0
 76 86  1  0  0  0
 77 79  1  0  0  0
 77 81  1  0  0  0
 77149  1  0  0  0
 77150  1  0  0  0
 78 80  1  0  0  0
 78 81  1  0  0  0
 78151  1  0  0  0
 78152  1  0  0  0
 79 87  1  0  0  0
 79153  1  0  0  0
 79154  1  0  0  0
 80 87  1  0  0  0
 80155  1  0  0  0
 80156  1  0  0  0
 81157  1  0  0  0
 82158  1  0  0  0
 82159  1  0  0  0
 82160  1  0  0  0
 83161  1  0  0  0
 83162  1  0  0  0
 83163  1  0  0  0
 84164  1  0  0  0
 84165  1  0  0  0
 84166  1  0  0  0
 84 86  1  0  0  0
 85 86  1  0  0  0
 85167  1  0  0  0
 85168  1  0  0  0
 86169  1  0  0  0
M  ISO  4   1 100  68 101  85 101  87 100
M  END
> <chiral flag>
0

> <version>
0

> <s_m_source_file>
/data/baiqing/PycharmProjects/Reinvent-master-3.2/result/LINK_invent/BTK/process_docking_weight1_custom_sum_contain_oxygen_bond_distance_aromatic_linkinvent_7_9_3/rearranged_h_0162.sdf

> <i_m_source_file_index>
37

> <r_mmod_Potential_Energy-OPLS-2005>
880.572143554688

> <r_mmod_Stretch_Energy-OPLS-2005>
204.534469604492

> <r_mmod_Bend_Energy-OPLS-2005>
288.917205810547

> <r_mmod_Torsional_Energy-OPLS-2005>
551.872314453125

> <r_mmod_Improper_Torsional_Energy-OPLS-2005>
38.3583908081055

> <r_mmod_Van_der_Waal_Energy-OPLS-2005>
143.914611816406

> <r_mmod_Electrostatic_Energy-OPLS-2005>
-304.645385742188

> <r_mmod_Solvation_Energy-OPLS-2005>
-188.735458374023

> <b_mmod_Minimization_Converged-OPLS-2005>
0

> <r_mmod_RMS_Derivative-OPLS-2005>
5.14611053466797

$$$$
37
                    3D
 Structure written by MMmdl.
166175  0  0  1  0            999 V2000
  -30.6937  -14.4541   20.5662 C   0  0  0  0  0  0
  -30.4204  -12.2881   19.4156 C   0  0  0  0  0  0
  -29.4831  -12.5167   18.2092 C   0  0  0  0  0  0
  -28.0069  -12.3820   18.6262 C   0  0  0  0  0  0
  -27.6671  -13.2010   19.8957 C   0  0  2  0  0  0
  -28.7155  -12.9604   21.0117 C   0  0  0  0  0  0
  -25.2607  -13.8111   20.5706 C   0  0  0  0  0  0
  -24.1849  -13.0398   20.9196 C   0  0  0  0  0  0
  -24.6392  -11.6872   20.8787 C   0  0  0  0  0  0
  -23.9062  -10.4247   21.0413 C   0  0  0  0  0  0
  -24.3620   -9.4163   21.9181 C   0  0  0  0  0  0
  -23.6273   -8.2212   22.0745 C   0  0  0  0  0  0
  -22.4246   -8.0244   21.3547 C   0  0  0  0  0  0
  -21.9902   -9.0217   20.4648 C   0  0  0  0  0  0
  -22.7241  -10.2096   20.3047 C   0  0  0  0  0  0
  -21.6851   -6.0708   22.5277 C   0  0  0  0  0  0
  -21.4030   -6.5620   23.8208 C   0  0  0  0  0  0
  -21.3662   -5.6785   24.9177 C   0  0  0  0  0  0
  -21.6045   -4.3042   24.7256 C   0  0  0  0  0  0
  -21.8814   -3.8123   23.4384 C   0  0  0  0  0  0
  -21.9201   -4.6934   22.3425 C   0  0  0  0  0  0
  -22.7884  -13.5199   21.1827 C   0  0  0  0  0  0
  -22.1646   -4.2112   21.1016 F   0  0  0  0  0  0
  -21.5640   -3.4541   25.7779 F   0  0  0  0  0  0
  -30.0512  -13.2562   20.4634 N   0  0  0  0  0  0
  -26.3051  -12.9290   20.3484 N   0  0  0  0  0  0
  -25.9339  -11.6452   20.5865 N   0  0  0  0  0  0
  -22.0551  -12.8177   22.0418 N   0  0  0  0  0  0
  -25.4323  -15.1833   20.4045 N   0  0  0  0  0  0
  -31.7913  -14.6814   20.0545 O   0  0  0  0  0  0
  -21.6634   -6.8831   21.4224 O   0  0  0  0  0  0
  -22.3547  -14.5484   20.6650 O   0  0  0  0  0  0
  -24.6185  -31.8645   23.2082 C   0  0  0  0  0  0
  -25.9077  -32.4800   23.8378 C   0  0  1  0  0  0
  -27.2489  -27.4144   20.0935 C   0  0  0  0  0  0
  -25.5920  -33.8596   24.2305 N   0  0  0  0  0  0
  -23.4080  -30.4856   21.5508 C   0  0  2  0  0  0
  -24.8585  -28.9533   20.1087 C   0  0  0  0  0  0
  -22.7422  -29.4641   22.5009 C   0  0  0  0  0  0
  -18.0274  -28.1360   22.8503 C   0  0  0  0  0  0
  -24.1485  -36.7302   23.2639 C   0  0  0  0  0  0
  -25.9403  -30.8205   21.3705 C   0  0  0  0  0  0
  -26.0185  -29.4569   20.7093 C   0  0  0  0  0  0
  -27.2140  -28.6973   20.6948 C   0  0  0  0  0  0
  -26.0721  -26.9436   19.4646 C   0  0  0  0  0  0
  -24.8839  -27.6969   19.4772 C   0  0  0  0  0  0
  -23.6180  -29.8197   20.1648 C   0  0  0  0  0  0
  -25.4107  -36.3100   24.0336 C   0  0  1  0  0  0
  -20.5870  -28.3650   23.1322 C   0  0  2  0  0  0
  -20.6762  -26.9391   22.5412 C   0  0  0  0  0  0
  -19.5736  -26.6383   21.5209 C   0  0  0  0  0  0
  -18.1915  -26.7910   22.1617 C   0  0  0  0  0  0
  -19.1524  -28.8822   23.2909 C   0  0  0  0  0  0
  -18.9453  -30.1435   23.8916 C   0  0  0  0  0  0
  -17.6451  -30.6566   24.0571 C   0  0  0  0  0  0
  -25.9043  -34.9467   23.5120 C   0  0  0  0  0  0
  -16.5344  -29.9069   23.6327 C   0  0  0  0  0  0
  -16.7264  -28.6482   23.0358 C   0  0  0  0  0  0
  -26.4493  -31.6585   25.0718 C   0  0  0  0  0  0
  -25.3772  -31.3693   26.1472 C   0  0  0  0  0  0
  -27.0320  -30.3016   24.6122 C   0  0  0  0  0  0
  -27.6048  -32.4331   25.7477 C   0  0  0  0  0  0
  -27.5594  -37.1792   24.8459 C   0  0  0  0  0  0
  -21.4152  -29.3018   22.3734 N   0  0  0  0  0  0
  -26.4281  -37.3797   23.9432 N   0  0  0  0  0  0
  -24.6738  -31.0715   22.1012 N   0  0  0  0  0  0
  -23.4170  -28.8207   23.3094 O   0  0  0  0  0  0
  -28.4133  -26.6593   20.1413 O   0  0  0  0  0  0
  -26.5599  -34.8932   22.4678 O   0  0  0  0  0  0
  -23.5369  -32.1444   23.7442 O   0  0  0  0  0  0
  -28.7589  -22.2352   19.3832 C   0  0  0  0  0  0
  -29.7263  -20.6367   21.4564 C   0  0  0  0  0  0
  -28.7686  -20.8270   19.2565 C   0  0  0  0  0  0
  -29.2916  -22.8717   20.5244 C   0  0  0  0  0  0
  -29.2866  -19.9851   20.2788 C   0  0  0  0  0  0
  -29.7758  -22.0555   21.5778 C   0  0  0  0  0  0
  -30.6176  -17.8528   20.3650 C   0  0  0  0  0  0
  -28.6298  -17.6188   20.8266 C   0  0  0  0  0  0
  -29.6731  -16.6432   20.2513 C   0  0  0  0  0  0
  -28.2432  -20.2209   17.9612 C   0  0  0  0  0  0
  -30.8481  -24.7725   20.0194 C   0  0  0  0  0  0
  -31.1266  -21.9304   23.5620 C   0  0  0  0  0  0
  -28.3186  -25.2322   19.9083 C   0  0  0  0  0  0
  -29.4608  -24.4101   20.5808 C   0  0  1  0  0  0
  -29.3881  -18.5812   20.0304 N   0  0  0  0  0  0
  -29.9374  -15.4472   21.0604 N   0  0  0  0  0  0
  -30.3276  -22.6944   22.6685 O   0  0  0  0  0  0
  -31.4608  -12.3892   19.1031 H   0  0  0  0  0  0
  -30.3162  -11.2661   19.7841 H   0  0  0  0  0  0
  -29.7092  -11.8087   17.4115 H   0  0  0  0  0  0
  -29.6516  -13.5099   17.7923 H   0  0  0  0  0  0
  -27.8111  -11.3248   18.7974 H   0  0  0  0  0  0
  -27.3497  -12.6814   17.8080 H   0  0  0  0  0  0
  -27.7118  -14.2542   19.6205 H   0  0  0  0  0  0
  -28.6829  -11.9243   21.3487 H   0  0  0  0  0  0
  -28.4877  -13.5588   21.8954 H   0  0  0  0  0  0
  -25.2775   -9.5621   22.4751 H   0  0  0  0  0  0
  -23.9988   -7.4616   22.7459 H   0  0  0  0  0  0
  -21.0836   -8.8730   19.8968 H   0  0  0  0  0  0
  -22.3685  -10.9628   19.6158 H   0  0  0  0  0  0
  -21.2003   -7.6133   23.9711 H   0  0  0  0  0  0
  -21.1498   -6.0527   25.9079 H   0  0  0  0  0  0
  -22.0595   -2.7590   23.2923 H   0  0  0  0  0  0
  -22.4208  -11.9833   22.4777 H   0  0  0  0  0  0
  -21.1188  -13.1174   22.2665 H   0  0  0  0  0  0
  -24.6559  -15.8296   20.4913 H   0  0  0  0  0  0
  -26.2703  -15.6194   20.0464 H   0  0  0  0  0  0
  -26.7147  -32.5498   23.1131 H   0  0  0  0  0  0
  -25.0090  -33.9747   25.0463 H   0  0  0  0  0  0
  -22.6999  -31.3048   21.4122 H   0  0  0  0  0  0
  -23.3757  -35.9628   23.3270 H   0  0  0  0  0  0
  -24.3600  -36.8940   22.2061 H   0  0  0  0  0  0
  -23.7213  -37.6484   23.6675 H   0  0  0  0  0  0
  -26.0694  -31.5957   20.6137 H   0  0  0  0  0  0
  -26.8203  -30.8597   22.0017 H   0  0  0  0  0  0
  -28.1089  -29.0899   21.1576 H   0  0  0  0  0  0
  -26.0605  -25.9955   18.9470 H   0  0  0  0  0  0
  -24.0024  -27.3082   18.9867 H   0  0  0  0  0  0
  -23.7243  -30.6001   19.4104 H   0  0  0  0  0  0
  -22.7419  -29.2404   19.8677 H   0  0  0  0  0  0
  -25.1278  -36.1946   25.0829 H   0  0  0  0  0  0
  -20.9949  -28.3205   24.1449 H   0  0  0  0  0  0
  -20.5666  -26.2262   23.3601 H   0  0  0  0  0  0
  -21.6640  -26.7443   22.1197 H   0  0  0  0  0  0
  -19.6902  -25.6306   21.1215 H   0  0  0  0  0  0
  -19.6666  -27.3225   20.6763 H   0  0  0  0  0  0
  -17.4199  -26.6699   21.4007 H   0  0  0  0  0  0
  -18.0295  -26.0026   22.8980 H   0  0  0  0  0  0
  -19.7935  -30.7255   24.2285 H   0  0  0  0  0  0
  -17.5004  -31.6252   24.5153 H   0  0  0  0  0  0
  -15.5341  -30.2974   23.7633 H   0  0  0  0  0  0
  -15.8667  -28.0799   22.7064 H   0  0  0  0  0  0
  -24.5945  -30.7026   25.7836 H   0  0  0  0  0  0
  -24.8973  -32.2843   26.4946 H   0  0  0  0  0  0
  -25.8144  -30.8859   27.0219 H   0  0  0  0  0  0
  -26.2859  -29.6748   24.1216 H   0  0  0  0  0  0
  -27.4109  -29.7268   25.4583 H   0  0  0  0  0  0
  -27.8697  -30.4302   23.9268 H   0  0  0  0  0  0
  -27.2635  -33.3614   26.2073 H   0  0  0  0  0  0
  -28.3839  -32.6916   25.0298 H   0  0  0  0  0  0
  -28.0747  -31.8461   26.5376 H   0  0  0  0  0  0
  -28.2567  -38.0130   24.7566 H   0  0  0  0  0  0
  -28.1122  -36.2661   24.6190 H   0  0  0  0  0  0
  -27.2333  -37.1334   25.8863 H   0  0  0  0  0  0
  -20.9320  -29.8741   21.6950 H   0  0  0  0  0  0
  -26.0155  -38.2867   24.1458 H   0  0  0  0  0  0
  -28.3816  -22.8275   18.5625 H   0  0  0  0  0  0
  -30.0769  -20.0093   22.2624 H   0  0  0  0  0  0
  -31.3891  -17.9012   19.5950 H   0  0  0  0  0  0
  -31.0090  -18.0515   21.3673 H   0  0  0  0  0  0
  -28.6949  -17.7768   21.9086 H   0  0  0  0  0  0
  -27.6084  -17.4428   20.4864 H   0  0  0  0  0  0
  -29.4686  -16.3859   19.2047 H   0  0  0  0  0  0
  -28.1378  -20.9750   17.1835 H   0  0  0  0  0  0
  -27.2653  -19.7589   18.1159 H   0  0  0  0  0  0
  -28.9207  -19.4571   17.5752 H   0  0  0  0  0  0
  -31.6393  -24.3133   20.6150 H   0  0  0  0  0  0
  -31.0253  -25.8466   20.0303 H   0  0  0  0  0  0
  -30.9677  -24.4179   18.9939 H   0  0  0  0  0  0
  -31.6851  -22.6115   24.2022 H   0  0  0  0  0  0
  -31.8598  -21.3095   23.0424 H   0  0  0  0  0  0
  -30.5077  -21.3030   24.2028 H   0  0  0  0  0  0
  -27.3795  -24.8508   20.3117 H   0  0  0  0  0  0
  -28.3096  -25.0572   18.8326 H   0  0  0  0  0  0
  -29.4519  -24.7007   21.6320 H   0  0  0  0  0  0
  -29.1404  -15.1219   21.5867 H   0  0  0  0  0  0
  1 25  1  0  0  0
  1 30  2  0  0  0
  1 86  1  0  0  0
  2  3  1  0  0  0
  2 25  1  0  0  0
  2 88  1  0  0  0
  2 89  1  0  0  0
  3  4  1  0  0  0
  3 90  1  0  0  0
  3 91  1  0  0  0
  4  5  1  0  0  0
  4 92  1  0  0  0
  4 93  1  0  0  0
  5  6  1  0  0  0
  5 26  1  0  0  0
  5 94  1  0  0  0
  6 25  1  0  0  0
  6 95  1  0  0  0
  6 96  1  0  0  0
  7  8  2  0  0  0
  7 26  1  0  0  0
  7 29  1  0  0  0
  8  9  1  0  0  0
  8 22  1  0  0  0
  9 10  1  0  0  0
  9 27  2  0  0  0
 10 11  2  0  0  0
 10 15  1  0  0  0
 11 12  1  0  0  0
 11 97  1  0  0  0
 12 13  2  0  0  0
 12 98  1  0  0  0
 13 14  1  0  0  0
 13 31  1  0  0  0
 14 15  2  0  0  0
 14 99  1  0  0  0
 15100  1  0  0  0
 16 17  2  0  0  0
 16 21  1  0  0  0
 16 31  1  0  0  0
 17 18  1  0  0  0
 17101  1  0  0  0
 18 19  2  0  0  0
 18102  1  0  0  0
 19 20  1  0  0  0
 19 24  1  0  0  0
 20 21  2  0  0  0
 20103  1  0  0  0
 21 23  1  0  0  0
 22 28  1  0  0  0
 22 32  2  0  0  0
 26 27  1  0  0  0
 28104  1  0  0  0
 28105  1  0  0  0
 29106  1  0  0  0
 29107  1  0  0  0
 33 34  1  0  0  0
 33 66  1  0  0  0
 33 70  2  0  0  0
 34 36  1  0  0  0
 34 59  1  0  0  0
 34108  1  0  0  0
 35 44  2  0  0  0
 35 45  1  0  0  0
 35 68  1  0  0  0
 36 56  1  0  0  0
 36109  1  0  0  0
 37 39  1  0  0  0
 37 47  1  0  0  0
 37 66  1  0  0  0
 37110  1  0  0  0
 38 43  2  0  0  0
 38 46  1  0  0  0
 38 47  1  0  0  0
 39 64  1  0  0  0
 39 67  2  0  0  0
 40 52  1  0  0  0
 40 53  2  0  0  0
 40 58  1  0  0  0
 41111  1  0  0  0
 41112  1  0  0  0
 41113  1  0  0  0
 41 48  1  0  0  0
 42 43  1  0  0  0
 42 66  1  0  0  0
 42114  1  0  0  0
 42115  1  0  0  0
 43 44  1  0  0  0
 44116  1  0  0  0
 45 46  2  0  0  0
 45117  1  0  0  0
 46118  1  0  0  0
 47119  1  0  0  0
 47120  1  0  0  0
 48 56  1  0  0  0
 48 65  1  0  0  0
 48121  1  0  0  0
 49 50  1  0  0  0
 49 53  1  0  0  0
 49 64  1  0  0  0
 49122  1  0  0  0
 50 51  1  0  0  0
 50123  1  0  0  0
 50124  1  0  0  0
 51 52  1  0  0  0
 51125  1  0  0  0
 51126  1  0  0  0
 52127  1  0  0  0
 52128  1  0  0  0
 53 54  1  0  0  0
 54 55  2  0  0  0
 54129  1  0  0  0
 55 57  1  0  0  0
 55130  1  0  0  0
 56 69  2  0  0  0
 57 58  2  0  0  0
 57131  1  0  0  0
 58132  1  0  0  0
 59 60  1  0  0  0
 59 61  1  0  0  0
 59 62  1  0  0  0
 60133  1  0  0  0
 60134  1  0  0  0
 60135  1  0  0  0
 61136  1  0  0  0
 61137  1  0  0  0
 61138  1  0  0  0
 62139  1  0  0  0
 62140  1  0  0  0
 62141  1  0  0  0
 63 65  1  0  0  0
 63142  1  0  0  0
 63143  1  0  0  0
 63144  1  0  0  0
 64145  1  0  0  0
 65146  1  0  0  0
 68 83  1  0  0  0
 71 73  2  0  0  0
 71 74  1  0  0  0
 71147  1  0  0  0
 72 75  2  0  0  0
 72 76  1  0  0  0
 72148  1  0  0  0
 73 75  1  0  0  0
 73 80  1  0  0  0
 74 76  2  0  0  0
 74 84  1  0  0  0
 75 85  1  0  0  0
 76 87  1  0  0  0
 77 79  1  0  0  0
 77 85  1  0  0  0
 77149  1  0  0  0
 77150  1  0  0  0
 78 79  1  0  0  0
 78 85  1  0  0  0
 78151  1  0  0  0
 78152  1  0  0  0
 79 86  1  0  0  0
 79153  1  0  0  0
 80154  1  0  0  0
 80155  1  0  0  0
 80156  1  0  0  0
 81157  1  0  0  0
 81158  1  0  0  0
 81159  1  0  0  0
 81 84  1  0  0  0
 82 87  1  0  0  0
 82160  1  0  0  0
 82161  1  0  0  0
 82162  1  0  0  0
 83 84  1  0  0  0
 83163  1  0  0  0
 83164  1  0  0  0
 84165  1  0  0  0
 86166  1  0  0  0
M  ISO  4   1 100  68 101  83 101  86 100
M  END
> <chiral flag>
0

> <version>
0

> <s_m_source_file>
/data/baiqing/PycharmProjects/Reinvent-master-3.2/result/LINK_invent/BTK/process_docking_weight1_custom_sum_contain_oxygen_bond_distance_aromatic_linkinvent_7_9_3/rearranged_h_0162.sdf

> <i_m_source_file_index>
38

> <r_mmod_Potential_Energy-OPLS-2005>
23.9951000213623

> <r_mmod_Stretch_Energy-OPLS-2005>
44.0732612609863

> <r_mmod_Bend_Energy-OPLS-2005>
167.005477905273

> <r_mmod_Torsional_Energy-OPLS-2005>
270.147766113281

> <r_mmod_Improper_Torsional_Energy-OPLS-2005>
17.2537746429443

> <r_mmod_Van_der_Waal_Energy-OPLS-2005>
164.219635009766

> <r_mmod_Electrostatic_Energy-OPLS-2005>
-428.158569335938

> <r_mmod_Solvation_Energy-OPLS-2005>
-224.155090332031

> <b_mmod_Minimization_Converged-OPLS-2005>
0

> <r_mmod_RMS_Derivative-OPLS-2005>
4.11726760864258

$$$$
38
                    3D
 Structure written by MMmdl.
168178  0  0  1  0            999 V2000
  -30.5767  -14.8982   20.4094 C   0  0  0  0  0  0
  -30.4336  -12.5459   19.5084 C   0  0  0  0  0  0
  -29.5238  -12.5298   18.2580 C   0  0  0  0  0  0
  -28.0494  -12.3380   18.6622 C   0  0  0  0  0  0
  -27.6348  -13.2540   19.8435 C   0  0  2  0  0  0
  -28.6756  -13.2595   20.9850 C   0  0  0  0  0  0
  -25.2465  -13.8249   20.5677 C   0  0  0  0  0  0
  -24.1788  -13.0462   20.9195 C   0  0  0  0  0  0
  -24.6411  -11.6951   20.8732 C   0  0  0  0  0  0
  -23.9098  -10.4307   21.0381 C   0  0  0  0  0  0
  -24.3646   -9.4216   21.9156 C   0  0  0  0  0  0
  -23.6321   -8.2251   22.0730 C   0  0  0  0  0  0
  -22.4298   -8.0284   21.3533 C   0  0  0  0  0  0
  -21.9938   -9.0257   20.4634 C   0  0  0  0  0  0
  -22.7261  -10.2140   20.3040 C   0  0  0  0  0  0
  -21.6866   -6.0743   22.5272 C   0  0  0  0  0  0
  -21.4017   -6.5641   23.8205 C   0  0  0  0  0  0
  -21.3660   -5.6790   24.9163 C   0  0  0  0  0  0
  -21.6058   -4.3055   24.7201 C   0  0  0  0  0  0
  -21.8814   -3.8145   23.4323 C   0  0  0  0  0  0
  -21.9191   -4.6973   22.3385 C   0  0  0  0  0  0
  -22.7797  -13.5217   21.1848 C   0  0  0  0  0  0
  -22.1658   -4.2156   21.0963 F   0  0  0  0  0  0
  -21.5633   -3.4529   25.7714 F   0  0  0  0  0  0
  -29.9677  -13.6455   20.4020 N   0  0  0  0  0  0
  -26.2902  -12.9493   20.3242 N   0  0  0  0  0  0
  -25.9346  -11.6617   20.5737 N   0  0  0  0  0  0
  -22.0461  -12.8207   22.0421 N   0  0  0  0  0  0
  -25.4155  -15.1971   20.4082 N   0  0  0  0  0  0
  -31.7593  -14.9279   20.0740 O   0  0  0  0  0  0
  -21.6657   -6.8893   21.4233 O   0  0  0  0  0  0
  -22.3460  -14.5494   20.6662 O   0  0  0  0  0  0
  -24.6394  -31.8472   23.1900 C   0  0  0  0  0  0
  -25.9181  -32.4714   23.8277 C   0  0  1  0  0  0
  -27.2212  -27.1740   20.1500 C   0  0  0  0  0  0
  -25.5946  -33.8519   24.2204 N   0  0  0  0  0  0
  -23.4414  -30.4641   21.5363 C   0  0  2  0  0  0
  -24.8917  -28.8952   20.1118 C   0  0  0  0  0  0
  -22.7553  -29.4534   22.4891 C   0  0  0  0  0  0
  -18.0294  -28.1374   22.8480 C   0  0  0  0  0  0
  -24.1490  -36.7252   23.2643 C   0  0  0  0  0  0
  -25.9945  -30.7321   21.3846 C   0  0  0  0  0  0
  -26.0672  -29.3466   20.7259 C   0  0  0  0  0  0
  -27.2353  -28.5018   20.7265 C   0  0  0  0  0  0
  -26.0253  -26.8176   19.4912 C   0  0  0  0  0  0
  -24.8816  -27.6425   19.4780 C   0  0  0  0  0  0
  -23.6660  -29.7917   20.1556 C   0  0  0  0  0  0
  -25.4126  -36.3043   24.0319 C   0  0  1  0  0  0
  -20.5907  -28.3685   23.1259 C   0  0  2  0  0  0
  -20.6770  -26.9396   22.5407 C   0  0  0  0  0  0
  -19.5753  -26.6364   21.5206 C   0  0  0  0  0  0
  -18.1933  -26.7915   22.1615 C   0  0  0  0  0  0
  -19.1554  -28.8855   23.2855 C   0  0  0  0  0  0
  -18.9465  -30.1452   23.8876 C   0  0  0  0  0  0
  -17.6464  -30.6575   24.0549 C   0  0  0  0  0  0
  -25.9075  -34.9417   23.5073 C   0  0  0  0  0  0
  -16.5355  -29.9061   23.6334 C   0  0  0  0  0  0
  -16.7281  -28.6476   23.0364 C   0  0  0  0  0  0
  -26.4515  -31.6571   25.0709 C   0  0  0  0  0  0
  -25.3709  -31.3749   26.1410 C   0  0  0  0  0  0
  -27.0373  -30.2969   24.6268 C   0  0  0  0  0  0
  -27.6060  -32.4330   25.7484 C   0  0  0  0  0  0
  -27.5577  -37.1789   24.8468 C   0  0  0  0  0  0
  -21.4250  -29.3011   22.3638 N   0  0  0  0  0  0
  -26.4295  -37.3749   23.9406 N   0  0  0  0  0  0
  -24.7109  -31.0351   22.0920 N   0  0  0  0  0  0
  -23.4216  -28.8096   23.3041 O   0  0  0  0  0  0
  -28.2872  -26.2169   20.2078 O   0  0  0  0  0  0
  -26.5654  -34.8909   22.4647 O   0  0  0  0  0  0
  -23.5520  -32.1332   23.7137 O   0  0  0  0  0  0
  -32.8945  -19.5191   20.6971 C   0  0  0  0  0  0
  -31.9048  -18.7207   20.1082 C   0  0  0  0  0  0
  -30.5296  -18.8716   20.4306 C   0  0  0  0  0  0
  -32.5319  -20.5201   21.6024 C   0  0  0  0  0  0
  -31.1681  -20.8619   21.7301 C   0  0  0  0  0  0
  -30.1721  -20.2630   20.8937 C   0  0  0  0  0  0
  -32.3580  -17.7642   19.0144 C   0  0  0  0  0  0
  -31.2657  -17.3675   17.9876 C   0  0  0  0  0  0
  -29.8024  -17.4552   18.4769 C   0  0  0  0  0  0
  -28.4702  -23.5717   19.3172 C   0  0  0  0  0  0
  -28.7614  -23.7991   21.3863 C   0  0  0  0  0  0
  -29.6849  -17.5502   20.0038 C   0  0  1  0  0  0
  -28.0042  -24.7025   20.3352 C   0  0  1  0  0  0
  -29.2583  -22.6789   20.3691 C   0  0  1  0  0  0
  -33.6228  -21.2881   22.3335 C   0  0  0  0  0  0
  -30.8025  -21.8712   22.8081 C   0  0  0  0  0  0
  -29.8102  -16.0770   20.5981 N   0  0  0  0  0  0
  -29.0665  -21.1427   20.5460 O   0  0  0  0  0  0
  -31.4740  -12.6704   19.2044 H   0  0  0  0  0  0
  -30.3914  -11.5876   20.0290 H   0  0  0  0  0  0
  -29.8332  -11.7368   17.5754 H   0  0  0  0  0  0
  -29.6327  -13.4684   17.7111 H   0  0  0  0  0  0
  -27.9159  -11.2930   18.9419 H   0  0  0  0  0  0
  -27.3971  -12.5106   17.8052 H   0  0  0  0  0  0
  -27.6081  -14.2638   19.4341 H   0  0  0  0  0  0
  -28.7373  -12.2803   21.4608 H   0  0  0  0  0  0
  -28.3829  -13.9633   21.7663 H   0  0  0  0  0  0
  -25.2807   -9.5689   22.4711 H   0  0  0  0  0  0
  -24.0032   -7.4649   22.7456 H   0  0  0  0  0  0
  -21.0854   -8.8787   19.8957 H   0  0  0  0  0  0
  -22.3723  -10.9669   19.6141 H   0  0  0  0  0  0
  -21.2022   -7.6152   23.9704 H   0  0  0  0  0  0
  -21.1490   -6.0519   25.9066 H   0  0  0  0  0  0
  -22.0599   -2.7604   23.2811 H   0  0  0  0  0  0
  -22.4118  -11.9934   22.4895 H   0  0  0  0  0  0
  -21.1044  -13.1181   22.2570 H   0  0  0  0  0  0
  -24.6475  -15.8522   20.5116 H   0  0  0  0  0  0
  -26.2587  -15.6273   20.0531 H   0  0  0  0  0  0
  -26.7254  -32.5328   23.1015 H   0  0  0  0  0  0
  -25.0100  -33.9635   25.0353 H   0  0  0  0  0  0
  -22.7411  -31.2880   21.3828 H   0  0  0  0  0  0
  -23.3759  -35.9575   23.3302 H   0  0  0  0  0  0
  -24.3575  -36.8878   22.2057 H   0  0  0  0  0  0
  -23.7235  -37.6447   23.6672 H   0  0  0  0  0  0
  -26.1483  -31.4884   20.6137 H   0  0  0  0  0  0
  -26.8660  -30.7794   22.0266 H   0  0  0  0  0  0
  -28.1325  -28.8399   21.2256 H   0  0  0  0  0  0
  -25.9525  -25.8617   18.9935 H   0  0  0  0  0  0
  -23.9867  -27.2948   18.9811 H   0  0  0  0  0  0
  -23.8000  -30.5643   19.3982 H   0  0  0  0  0  0
  -22.7836  -29.2296   19.8462 H   0  0  0  0  0  0
  -25.1314  -36.1873   25.0812 H   0  0  0  0  0  0
  -20.9995  -28.3253   24.1388 H   0  0  0  0  0  0
  -20.5640  -26.2300   23.3614 H   0  0  0  0  0  0
  -21.6638  -26.7392   22.1226 H   0  0  0  0  0  0
  -19.6908  -25.6270   21.1243 H   0  0  0  0  0  0
  -19.6692  -27.3167   20.6732 H   0  0  0  0  0  0
  -17.4205  -26.6670   21.4008 H   0  0  0  0  0  0
  -18.0328  -26.0051   22.9010 H   0  0  0  0  0  0
  -19.7940  -30.7266   24.2244 H   0  0  0  0  0  0
  -17.5013  -31.6259   24.5137 H   0  0  0  0  0  0
  -15.5351  -30.2951   23.7665 H   0  0  0  0  0  0
  -15.8680  -28.0772   22.7114 H   0  0  0  0  0  0
  -24.5917  -30.7057   25.7737 H   0  0  0  0  0  0
  -24.8859  -32.2918   26.4765 H   0  0  0  0  0  0
  -25.8008  -30.8987   27.0227 H   0  0  0  0  0  0
  -26.2979  -29.6702   24.1269 H   0  0  0  0  0  0
  -27.3984  -29.7262   25.4830 H   0  0  0  0  0  0
  -27.8884  -30.4211   23.9573 H   0  0  0  0  0  0
  -27.2671  -33.3653   26.2007 H   0  0  0  0  0  0
  -28.3891  -32.6847   25.0323 H   0  0  0  0  0  0
  -28.0697  -31.8485   26.5438 H   0  0  0  0  0  0
  -28.2604  -38.0080   24.7511 H   0  0  0  0  0  0
  -28.1068  -36.2610   24.6302 H   0  0  0  0  0  0
  -27.2297  -37.1446   25.8874 H   0  0  0  0  0  0
  -20.9463  -29.8747   21.6831 H   0  0  0  0  0  0
  -26.0161  -38.2818   24.1401 H   0  0  0  0  0  0
  -33.9365  -19.3286   20.4795 H   0  0  0  0  0  0
  -32.8339  -16.9055   19.4748 H   0  0  0  0  0  0
  -33.1699  -18.2405   18.4620 H   0  0  0  0  0  0
  -31.4794  -16.3723   17.5991 H   0  0  0  0  0  0
  -31.3546  -18.0302   17.1251 H   0  0  0  0  0  0
  -29.2091  -16.6294   18.0827 H   0  0  0  0  0  0
  -29.3594  -18.3591   18.0530 H   0  0  0  0  0  0
  -29.1160  -23.9537   18.5261 H   0  0  0  0  0  0
  -27.6236  -23.0429   18.8804 H   0  0  0  0  0  0
  -28.0856  -23.4108   22.1480 H   0  0  0  0  0  0
  -29.5806  -24.3406   21.8592 H   0  0  0  0  0  0
  -28.6496  -17.8217   20.2196 H   0  0  0  0  0  0
  -26.9400  -24.5627   20.5289 H   0  0  0  0  0  0
  -30.3166  -22.8485   20.1663 H   0  0  0  0  0  0
  -34.6168  -20.9375   22.0522 H   0  0  0  0  0  0
  -33.5285  -21.1810   23.4144 H   0  0  0  0  0  0
  -33.5705  -22.3505   22.0858 H   0  0  0  0  0  0
  -31.2404  -21.5747   23.7611 H   0  0  0  0  0  0
  -29.7272  -21.9090   22.9760 H   0  0  0  0  0  0
  -31.1815  -22.8642   22.5672 H   0  0  0  0  0  0
  -28.9398  -15.8293   21.0441 H   0  0  0  0  0  0
  1 25  1  0  0  0
  1 30  2  0  0  0
  1 87  1  0  0  0
  2  3  1  0  0  0
  2 25  1  0  0  0
  2 89  1  0  0  0
  2 90  1  0  0  0
  3  4  1  0  0  0
  3 91  1  0  0  0
  3 92  1  0  0  0
  4  5  1  0  0  0
  4 93  1  0  0  0
  4 94  1  0  0  0
  5  6  1  0  0  0
  5 26  1  0  0  0
  5 95  1  0  0  0
  6 25  1  0  0  0
  6 96  1  0  0  0
  6 97  1  0  0  0
  7  8  2  0  0  0
  7 26  1  0  0  0
  7 29  1  0  0  0
  8  9  1  0  0  0
  8 22  1  0  0  0
  9 10  1  0  0  0
  9 27  2  0  0  0
 10 11  2  0  0  0
 10 15  1  0  0  0
 11 12  1  0  0  0
 11 98  1  0  0  0
 12 13  2  0  0  0
 12 99  1  0  0  0
 13 14  1  0  0  0
 13 31  1  0  0  0
 14 15  2  0  0  0
 14100  1  0  0  0
 15101  1  0  0  0
 16 17  2  0  0  0
 16 21  1  0  0  0
 16 31  1  0  0  0
 17 18  1  0  0  0
 17102  1  0  0  0
 18 19  2  0  0  0
 18103  1  0  0  0
 19 20  1  0  0  0
 19 24  1  0  0  0
 20 21  2  0  0  0
 20104  1  0  0  0
 21 23  1  0  0  0
 22 28  1  0  0  0
 22 32  2  0  0  0
 26 27  1  0  0  0
 28105  1  0  0  0
 28106  1  0  0  0
 29107  1  0  0  0
 29108  1  0  0  0
 33 34  1  0  0  0
 33 66  1  0  0  0
 33 70  2  0  0  0
 34 36  1  0  0  0
 34 59  1  0  0  0
 34109  1  0  0  0
 35 44  2  0  0  0
 35 45  1  0  0  0
 35 68  1  0  0  0
 36 56  1  0  0  0
 36110  1  0  0  0
 37 39  1  0  0  0
 37 47  1  0  0  0
 37 66  1  0  0  0
 37111  1  0  0  0
 38 43  2  0  0  0
 38 46  1  0  0  0
 38 47  1  0  0  0
 39 64  1  0  0  0
 39 67  2  0  0  0
 40 52  1  0  0  0
 40 53  2  0  0  0
 40 58  1  0  0  0
 41112  1  0  0  0
 41113  1  0  0  0
 41114  1  0  0  0
 41 48  1  0  0  0
 42 43  1  0  0  0
 42 66  1  0  0  0
 42115  1  0  0  0
 42116  1  0  0  0
 43 44  1  0  0  0
 44117  1  0  0  0
 45 46  2  0  0  0
 45118  1  0  0  0
 46119  1  0  0  0
 47120  1  0  0  0
 47121  1  0  0  0
 48 56  1  0  0  0
 48 65  1  0  0  0
 48122  1  0  0  0
 49 50  1  0  0  0
 49 53  1  0  0  0
 49 64  1  0  0  0
 49123  1  0  0  0
 50 51  1  0  0  0
 50124  1  0  0  0
 50125  1  0  0  0
 51 52  1  0  0  0
 51126  1  0  0  0
 51127  1  0  0  0
 52128  1  0  0  0
 52129  1  0  0  0
 53 54  1  0  0  0
 54 55  2  0  0  0
 54130  1  0  0  0
 55 57  1  0  0  0
 55131  1  0  0  0
 56 69  2  0  0  0
 57 58  2  0  0  0
 57132  1  0  0  0
 58133  1  0  0  0
 59 60  1  0  0  0
 59 61  1  0  0  0
 59 62  1  0  0  0
 60134  1  0  0  0
 60135  1  0  0  0
 60136  1  0  0  0
 61137  1  0  0  0
 61138  1  0  0  0
 61139  1  0  0  0
 62140  1  0  0  0
 62141  1  0  0  0
 62142  1  0  0  0
 63 65  1  0  0  0
 63143  1  0  0  0
 63144  1  0  0  0
 63145  1  0  0  0
 64146  1  0  0  0
 65147  1  0  0  0
 68 83  1  0  0  0
 71 72  2  0  0  0
 71 74  1  0  0  0
 71148  1  0  0  0
 72 73  1  0  0  0
 72 77  1  0  0  0
 73 76  2  0  0  0
 73 82  1  0  0  0
 74 75  2  0  0  0
 74 85  1  0  0  0
 75 76  1  0  0  0
 75 86  1  0  0  0
 76 88  1  0  0  0
 77 78  1  0  0  0
 77149  1  0  0  0
 77150  1  0  0  0
 78 79  1  0  0  0
 78151  1  0  0  0
 78152  1  0  0  0
 79 82  1  0  0  0
 79153  1  0  0  0
 79154  1  0  0  0
 80 83  1  0  0  0
 80 84  1  0  0  0
 80155  1  0  0  0
 80156  1  0  0  0
 81 83  1  0  0  0
 81 84  1  0  0  0
 81157  1  0  0  0
 81158  1  0  0  0
 82 87  1  0  0  0
 82159  1  0  0  0
 83160  1  0  0  0
 84 88  1  0  0  0
 84161  1  0  0  0
 85162  1  0  0  0
 85163  1  0  0  0
 85164  1  0  0  0
 86165  1  0  0  0
 86166  1  0  0  0
 86167  1  0  0  0
 87168  1  0  0  0
M  ISO  4   1 100  68 101  83 101  87 100
M  END
> <chiral flag>
0

> <version>
0

> <s_m_source_file>
/data/baiqing/PycharmProjects/Reinvent-master-3.2/result/LINK_invent/BTK/process_docking_weight1_custom_sum_contain_oxygen_bond_distance_aromatic_linkinvent_7_9_3/rearranged_h_0162.sdf

> <i_m_source_file_index>
39

> <r_mmod_Potential_Energy-OPLS-2005>
621.633422851562

> <r_mmod_Stretch_Energy-OPLS-2005>
231.248962402344

> <r_mmod_Bend_Energy-OPLS-2005>
324.056549072266

> <r_mmod_Torsional_Energy-OPLS-2005>
396.233489990234

> <r_mmod_Improper_Torsional_Energy-OPLS-2005>
7.69978380203247

> <r_mmod_Van_der_Waal_Energy-OPLS-2005>
152.94010925293

> <r_mmod_Electrostatic_Energy-OPLS-2005>
-426.054443359375

> <r_mmod_Solvation_Energy-OPLS-2005>
-220.345596313477

> <b_mmod_Minimization_Converged-OPLS-2005>
0

> <r_mmod_RMS_Derivative-OPLS-2005>
2.47154521942139

$$$$
39
                    3D
 Structure written by MMmdl.
167176  0  0  1  0            999 V2000
  -30.6783  -14.7115   20.4515 C   0  0  0  0  0  0
  -30.4286  -12.4459   19.4643 C   0  0  0  0  0  0
  -29.5007  -12.4398   18.2330 C   0  0  0  0  0  0
  -28.0230  -12.3020   18.6471 C   0  0  0  0  0  0
  -27.6315  -13.2034   19.8520 C   0  0  2  0  0  0
  -28.6871  -13.1854   20.9780 C   0  0  0  0  0  0
  -25.2452  -13.8017   20.5689 C   0  0  0  0  0  0
  -24.1742  -13.0313   20.9237 C   0  0  0  0  0  0
  -24.6322  -11.6794   20.8769 C   0  0  0  0  0  0
  -23.8989  -10.4229   21.0450 C   0  0  0  0  0  0
  -24.3548   -9.4154   21.9224 C   0  0  0  0  0  0
  -23.6225   -8.2183   22.0781 C   0  0  0  0  0  0
  -22.4195   -8.0235   21.3575 C   0  0  0  0  0  0
  -21.9832   -9.0214   20.4671 C   0  0  0  0  0  0
  -22.7166  -10.2092   20.3097 C   0  0  0  0  0  0
  -21.6841   -6.0680   22.5254 C   0  0  0  0  0  0
  -21.4030   -6.5615   23.8180 C   0  0  0  0  0  0
  -21.3630   -5.6787   24.9155 C   0  0  0  0  0  0
  -21.6024   -4.3044   24.7216 C   0  0  0  0  0  0
  -21.8834   -3.8115   23.4342 C   0  0  0  0  0  0
  -21.9207   -4.6917   22.3388 C   0  0  0  0  0  0
  -22.7796  -13.5188   21.1844 C   0  0  0  0  0  0
  -22.1672   -4.2099   21.0957 F   0  0  0  0  0  0
  -21.5603   -3.4522   25.7725 F   0  0  0  0  0  0
  -29.9804  -13.5297   20.3709 N   0  0  0  0  0  0
  -26.2883  -12.9204   20.3366 N   0  0  0  0  0  0
  -25.9279  -11.6383   20.5842 N   0  0  0  0  0  0
  -22.0422  -12.8240   22.0410 N   0  0  0  0  0  0
  -25.4036  -15.1679   20.3962 N   0  0  0  0  0  0
  -31.8696  -14.7248   20.1310 O   0  0  0  0  0  0
  -21.6595   -6.8813   21.4224 O   0  0  0  0  0  0
  -22.3562  -14.5531   20.6715 O   0  0  0  0  0  0
  -24.6317  -31.8569   23.1976 C   0  0  0  0  0  0
  -25.9129  -32.4799   23.8303 C   0  0  1  0  0  0
  -27.2335  -27.3174   20.1020 C   0  0  0  0  0  0
  -25.5909  -33.8598   24.2267 N   0  0  0  0  0  0
  -23.4280  -30.4762   21.5424 C   0  0  2  0  0  0
  -24.8704  -28.9085   20.1248 C   0  0  0  0  0  0
  -22.7471  -29.4665   22.4963 C   0  0  0  0  0  0
  -18.0289  -28.1438   22.8440 C   0  0  0  0  0  0
  -24.1550  -36.7448   23.2618 C   0  0  0  0  0  0
  -25.9566  -30.7918   21.3412 C   0  0  0  0  0  0
  -26.0403  -29.4030   20.7132 C   0  0  0  0  0  0
  -27.2285  -28.6165   20.6914 C   0  0  0  0  0  0
  -26.0421  -26.8567   19.5039 C   0  0  0  0  0  0
  -24.8708  -27.6404   19.5155 C   0  0  0  0  0  0
  -23.6410  -29.7911   20.1645 C   0  0  0  0  0  0
  -25.4125  -36.3137   24.0330 C   0  0  1  0  0  0
  -20.5890  -28.3786   23.1282 C   0  0  2  0  0  0
  -20.6846  -26.9514   22.5407 C   0  0  0  0  0  0
  -19.5844  -26.6457   21.5173 C   0  0  0  0  0  0
  -18.2006  -26.7989   22.1566 C   0  0  0  0  0  0
  -19.1518  -28.8908   23.2899 C   0  0  0  0  0  0
  -18.9413  -30.1485   23.8989 C   0  0  0  0  0  0
  -17.6394  -30.6625   24.0575 C   0  0  0  0  0  0
  -25.9002  -34.9493   23.5104 C   0  0  0  0  0  0
  -16.5315  -29.9127   23.6274 C   0  0  0  0  0  0
  -16.7260  -28.6548   23.0302 C   0  0  0  0  0  0
  -26.4506  -31.6573   25.0636 C   0  0  0  0  0  0
  -25.3831  -31.3548   26.1404 C   0  0  0  0  0  0
  -27.0130  -30.3010   24.5833 C   0  0  0  0  0  0
  -27.6095  -32.4212   25.7441 C   0  0  0  0  0  0
  -27.5618  -37.1881   24.8413 C   0  0  0  0  0  0
  -21.4179  -29.3157   22.3686 N   0  0  0  0  0  0
  -26.4335  -37.3808   23.9364 N   0  0  0  0  0  0
  -24.6967  -31.0565   22.0901 N   0  0  0  0  0  0
  -23.4168  -28.8184   23.3075 O   0  0  0  0  0  0
  -28.3755  -26.5200   20.0285 O   0  0  0  0  0  0
  -26.5544  -34.8940   22.4661 O   0  0  0  0  0  0
  -23.5481  -32.1297   23.7306 O   0  0  0  0  0  0
  -30.0069  -20.3869   20.8816 C   0  0  0  0  0  0
  -27.6146  -20.3543   20.5586 C   0  0  0  0  0  0
  -30.0397  -18.9596   20.7556 C   0  0  0  0  0  0
  -28.8698  -18.2172   20.4702 C   0  0  0  0  0  0
  -28.7858  -21.1222   20.7809 C   0  0  0  0  0  0
  -27.6439  -18.9332   20.4215 C   0  0  0  0  0  0
  -31.2892  -18.1402   21.0503 C   0  0  0  0  0  0
  -30.8937  -16.8006   21.7363 C   0  0  0  0  0  0
  -28.9433  -16.6599   20.2203 C   0  0  2  0  0  0
  -29.7488  -17.2177   17.7725 C   0  0  0  0  0  0
  -25.4983  -18.5290   21.2915 C   0  0  0  0  0  0
  -28.6780  -22.6365   21.1863 C   0  0  0  0  0  0
  -28.8092  -16.4033   18.6807 C   0  0  0  0  0  0
  -28.4531  -23.8218   20.1474 C   0  0  0  0  0  0
  -28.4420  -25.2768   20.8117 C   0  0  0  0  0  0
  -30.0856  -15.9022   20.8701 N   0  0  0  0  0  0
  -26.4799  -18.2130   20.3104 O   0  0  0  0  0  0
  -31.4562  -12.5802   19.1237 H   0  0  0  0  0  0
  -30.4160  -11.4906   19.9909 H   0  0  0  0  0  0
  -29.7741  -11.6053   17.5852 H   0  0  0  0  0  0
  -29.6476  -13.3388   17.6298 H   0  0  0  0  0  0
  -27.8583  -11.2522   18.8988 H   0  0  0  0  0  0
  -27.3769  -12.5160   17.7937 H   0  0  0  0  0  0
  -27.5801  -14.2116   19.4659 H   0  0  0  0  0  0
  -28.7320  -12.2021   21.4529 H   0  0  0  0  0  0
  -28.4165  -13.8918   21.7633 H   0  0  0  0  0  0
  -25.2728   -9.5582   22.4764 H   0  0  0  0  0  0
  -23.9922   -7.4558   22.7468 H   0  0  0  0  0  0
  -21.0797   -8.8731   19.8957 H   0  0  0  0  0  0
  -22.3669  -10.9623   19.6159 H   0  0  0  0  0  0
  -21.2049   -7.6123   23.9659 H   0  0  0  0  0  0
  -21.1438   -6.0522   25.9042 H   0  0  0  0  0  0
  -22.0648   -2.7575   23.2862 H   0  0  0  0  0  0
  -22.4101  -11.9975   22.4898 H   0  0  0  0  0  0
  -21.0999  -13.1250   22.2483 H   0  0  0  0  0  0
  -24.6258  -15.8054   20.5188 H   0  0  0  0  0  0
  -26.2317  -15.6231   20.0432 H   0  0  0  0  0  0
  -26.7205  -32.5469   23.1056 H   0  0  0  0  0  0
  -25.0084  -33.9749   25.0435 H   0  0  0  0  0  0
  -22.7297  -31.3003   21.3892 H   0  0  0  0  0  0
  -23.3720  -35.9870   23.3196 H   0  0  0  0  0  0
  -24.3641  -36.9122   22.2035 H   0  0  0  0  0  0
  -23.7376  -37.6688   23.6647 H   0  0  0  0  0  0
  -26.0148  -31.5129   20.5246 H   0  0  0  0  0  0
  -26.8732  -30.9125   21.9106 H   0  0  0  0  0  0
  -28.1469  -28.9951   21.1275 H   0  0  0  0  0  0
  -26.0176  -25.8908   19.0186 H   0  0  0  0  0  0
  -23.9714  -27.2545   19.0576 H   0  0  0  0  0  0
  -23.7634  -30.5540   19.3944 H   0  0  0  0  0  0
  -22.7590  -29.2185   19.8689 H   0  0  0  0  0  0
  -25.1298  -36.2021   25.0815 H   0  0  0  0  0  0
  -20.9955  -28.3369   24.1410 H   0  0  0  0  0  0
  -20.5800  -26.2350   23.3586 H   0  0  0  0  0  0
  -21.6711  -26.7651   22.1142 H   0  0  0  0  0  0
  -19.7055  -25.6345   21.1266 H   0  0  0  0  0  0
  -19.6833  -27.3223   20.6661 H   0  0  0  0  0  0
  -17.4280  -26.6679   21.3979 H   0  0  0  0  0  0
  -18.0479  -26.0151   22.8994 H   0  0  0  0  0  0
  -19.7863  -30.7267   24.2503 H   0  0  0  0  0  0
  -17.4931  -31.6289   24.5187 H   0  0  0  0  0  0
  -15.5333  -30.3052   23.7553 H   0  0  0  0  0  0
  -15.8668  -28.0886   22.6994 H   0  0  0  0  0  0
  -24.6151  -30.6716   25.7729 H   0  0  0  0  0  0
  -24.8879  -32.2620   26.4882 H   0  0  0  0  0  0
  -25.8327  -30.8763   27.0124 H   0  0  0  0  0  0
  -26.2483  -29.6980   24.0920 H   0  0  0  0  0  0
  -27.3884  -29.7006   25.4112 H   0  0  0  0  0  0
  -27.8384  -30.4248   23.8810 H   0  0  0  0  0  0
  -27.2742  -33.3496   26.2072 H   0  0  0  0  0  0
  -28.3950  -32.6780   25.0320 H   0  0  0  0  0  0
  -28.0725  -31.8279   26.5342 H   0  0  0  0  0  0
  -28.2568  -38.0241   24.7425 H   0  0  0  0  0  0
  -28.1189  -36.2741   24.6263 H   0  0  0  0  0  0
  -27.2323  -37.1557   25.8818 H   0  0  0  0  0  0
  -20.9373  -29.8769   21.6779 H   0  0  0  0  0  0
  -26.0217  -38.2907   24.1277 H   0  0  0  0  0  0
  -30.9232  -20.9124   21.1261 H   0  0  0  0  0  0
  -26.6623  -20.8696   20.5451 H   0  0  0  0  0  0
  -31.9531  -18.7102   21.7043 H   0  0  0  0  0  0
  -31.8458  -17.9622   20.1309 H   0  0  0  0  0  0
  -30.3050  -17.0363   22.6258 H   0  0  0  0  0  0
  -31.7831  -16.3003   22.1219 H   0  0  0  0  0  0
  -28.0612  -16.2377   20.7031 H   0  0  0  0  0  0
  -29.6412  -16.9123   16.7292 H   0  0  0  0  0  0
  -30.7824  -17.0550   18.0678 H   0  0  0  0  0  0
  -29.5401  -18.2876   17.8090 H   0  0  0  0  0  0
  -24.9111  -17.6440   21.5295 H   0  0  0  0  0  0
  -24.8261  -19.3085   20.9239 H   0  0  0  0  0  0
  -25.9369  -18.8588   22.2344 H   0  0  0  0  0  0
  -29.5553  -22.8764   21.7863 H   0  0  0  0  0  0
  -27.8426  -22.6780   21.8915 H   0  0  0  0  0  0
  -27.7820  -16.6276   18.3817 H   0  0  0  0  0  0
  -28.9517  -15.3593   18.4197 H   0  0  0  0  0  0
  -27.5053  -23.6514   19.6309 H   0  0  0  0  0  0
  -29.2279  -23.7867   19.3782 H   0  0  0  0  0  0
  -29.3963  -25.3634   21.3353 H   0  0  0  0  0  0
  -27.6946  -25.3158   21.6052 H   0  0  0  0  0  0
  1 25  1  0  0  0
  1 30  2  0  0  0
  1 86  1  0  0  0
  2  3  1  0  0  0
  2 25  1  0  0  0
  2 88  1  0  0  0
  2 89  1  0  0  0
  3  4  1  0  0  0
  3 90  1  0  0  0
  3 91  1  0  0  0
  4  5  1  0  0  0
  4 92  1  0  0  0
  4 93  1  0  0  0
  5  6  1  0  0  0
  5 26  1  0  0  0
  5 94  1  0  0  0
  6 25  1  0  0  0
  6 95  1  0  0  0
  6 96  1  0  0  0
  7  8  2  0  0  0
  7 26  1  0  0  0
  7 29  1  0  0  0
  8  9  1  0  0  0
  8 22  1  0  0  0
  9 10  1  0  0  0
  9 27  2  0  0  0
 10 11  2  0  0  0
 10 15  1  0  0  0
 11 12  1  0  0  0
 11 97  1  0  0  0
 12 13  2  0  0  0
 12 98  1  0  0  0
 13 14  1  0  0  0
 13 31  1  0  0  0
 14 15  2  0  0  0
 14 99  1  0  0  0
 15100  1  0  0  0
 16 17  2  0  0  0
 16 21  1  0  0  0
 16 31  1  0  0  0
 17 18  1  0  0  0
 17101  1  0  0  0
 18 19  2  0  0  0
 18102  1  0  0  0
 19 20  1  0  0  0
 19 24  1  0  0  0
 20 21  2  0  0  0
 20103  1  0  0  0
 21 23  1  0  0  0
 22 28  1  0  0  0
 22 32  2  0  0  0
 26 27  1  0  0  0
 28104  1  0  0  0
 28105  1  0  0  0
 29106  1  0  0  0
 29107  1  0  0  0
 33 34  1  0  0  0
 33 66  1  0  0  0
 33 70  2  0  0  0
 34 36  1  0  0  0
 34 59  1  0  0  0
 34108  1  0  0  0
 35 44  2  0  0  0
 35 45  1  0  0  0
 35 68  1  0  0  0
 36 56  1  0  0  0
 36109  1  0  0  0
 37 39  1  0  0  0
 37 47  1  0  0  0
 37 66  1  0  0  0
 37110  1  0  0  0
 38 43  2  0  0  0
 38 46  1  0  0  0
 38 47  1  0  0  0
 39 64  1  0  0  0
 39 67  2  0  0  0
 40 52  1  0  0  0
 40 53  2  0  0  0
 40 58  1  0  0  0
 41111  1  0  0  0
 41112  1  0  0  0
 41113  1  0  0  0
 41 48  1  0  0  0
 42 43  1  0  0  0
 42 66  1  0  0  0
 42114  1  0  0  0
 42115  1  0  0  0
 43 44  1  0  0  0
 44116  1  0  0  0
 45 46  2  0  0  0
 45117  1  0  0  0
 46118  1  0  0  0
 47119  1  0  0  0
 47120  1  0  0  0
 48 56  1  0  0  0
 48 65  1  0  0  0
 48121  1  0  0  0
 49 50  1  0  0  0
 49 53  1  0  0  0
 49 64  1  0  0  0
 49122  1  0  0  0
 50 51  1  0  0  0
 50123  1  0  0  0
 50124  1  0  0  0
 51 52  1  0  0  0
 51125  1  0  0  0
 51126  1  0  0  0
 52127  1  0  0  0
 52128  1  0  0  0
 53 54  1  0  0  0
 54 55  2  0  0  0
 54129  1  0  0  0
 55 57  1  0  0  0
 55130  1  0  0  0
 56 69  2  0  0  0
 57 58  2  0  0  0
 57131  1  0  0  0
 58132  1  0  0  0
 59 60  1  0  0  0
 59 61  1  0  0  0
 59 62  1  0  0  0
 60133  1  0  0  0
 60134  1  0  0  0
 60135  1  0  0  0
 61136  1  0  0  0
 61137  1  0  0  0
 61138  1  0  0  0
 62139  1  0  0  0
 62140  1  0  0  0
 62141  1  0  0  0
 63 65  1  0  0  0
 63142  1  0  0  0
 63143  1  0  0  0
 63144  1  0  0  0
 64145  1  0  0  0
 65146  1  0  0  0
 68 85  1  0  0  0
 71 73  2  0  0  0
 71 75  1  0  0  0
 71147  1  0  0  0
 72 75  2  0  0  0
 72 76  1  0  0  0
 72148  1  0  0  0
 73 74  1  0  0  0
 73 77  1  0  0  0
 74 76  2  0  0  0
 74 79  1  0  0  0
 75 82  1  0  0  0
 76 87  1  0  0  0
 77 78  1  0  0  0
 77149  1  0  0  0
 77150  1  0  0  0
 78 86  1  0  0  0
 78151  1  0  0  0
 78152  1  0  0  0
 79 83  1  0  0  0
 79 86  1  0  0  0
 79153  1  0  0  0
 80 83  1  0  0  0
 80154  1  0  0  0
 80155  1  0  0  0
 80156  1  0  0  0
 81 87  1  0  0  0
 81157  1  0  0  0
 81158  1  0  0  0
 81159  1  0  0  0
 82 84  1  0  0  0
 82160  1  0  0  0
 82161  1  0  0  0
 83162  1  0  0  0
 83163  1  0  0  0
 84 85  1  0  0  0
 84164  1  0  0  0
 84165  1  0  0  0
 85166  1  0  0  0
 85167  1  0  0  0
M  ISO  4   1 100  68 101  85 101  86 100
M  END
> <chiral flag>
0

> <version>
0

> <s_m_source_file>
/data/baiqing/PycharmProjects/Reinvent-master-3.2/result/LINK_invent/BTK/process_docking_weight1_custom_sum_contain_oxygen_bond_distance_aromatic_linkinvent_7_9_3/rearranged_h_0162.sdf

> <i_m_source_file_index>
40

> <r_mmod_Potential_Energy-OPLS-2005>
317.132263183594

> <r_mmod_Stretch_Energy-OPLS-2005>
89.3586120605469

> <r_mmod_Bend_Energy-OPLS-2005>
165.331802368164

> <r_mmod_Torsional_Energy-OPLS-2005>
354.369232177734

> <r_mmod_Improper_Torsional_Energy-OPLS-2005>
5.23575353622437

> <r_mmod_Van_der_Waal_Energy-OPLS-2005>
139.269897460938

> <r_mmod_Electrostatic_Energy-OPLS-2005>
-313.661895751953

> <r_mmod_Solvation_Energy-OPLS-2005>
-187.621047973633

> <b_mmod_Minimization_Converged-OPLS-2005>
0

> <r_mmod_RMS_Derivative-OPLS-2005>
8.05464553833008

$$$$
40
                    3D
 Structure written by MMmdl.
169178  0  0  1  0            999 V2000
  -30.7098  -14.4682   20.6141 C   0  0  0  0  0  0
  -30.4224  -12.3213   19.4221 C   0  0  0  0  0  0
  -29.4916  -12.5192   18.2096 C   0  0  0  0  0  0
  -28.0157  -12.3623   18.6251 C   0  0  0  0  0  0
  -27.6593  -13.2079   19.8767 C   0  0  2  0  0  0
  -28.6984  -12.9926   20.9981 C   0  0  0  0  0  0
  -25.2576  -13.8165   20.5677 C   0  0  0  0  0  0
  -24.1832  -13.0438   20.9179 C   0  0  0  0  0  0
  -24.6395  -11.6911   20.8755 C   0  0  0  0  0  0
  -23.9067  -10.4294   21.0418 C   0  0  0  0  0  0
  -24.3611   -9.4204   21.9191 C   0  0  0  0  0  0
  -23.6281   -8.2244   22.0765 C   0  0  0  0  0  0
  -22.4270   -8.0279   21.3547 C   0  0  0  0  0  0
  -21.9904   -9.0261   20.4654 C   0  0  0  0  0  0
  -22.7238  -10.2135   20.3064 C   0  0  0  0  0  0
  -21.6844   -6.0745   22.5296 C   0  0  0  0  0  0
  -21.4007   -6.5650   23.8230 C   0  0  0  0  0  0
  -21.3660   -5.6803   24.9189 C   0  0  0  0  0  0
  -21.6041   -4.3065   24.7237 C   0  0  0  0  0  0
  -21.8811   -3.8159   23.4358 C   0  0  0  0  0  0
  -21.9185   -4.6976   22.3414 C   0  0  0  0  0  0
  -22.7860  -13.5239   21.1854 C   0  0  0  0  0  0
  -22.1654   -4.2159   21.0989 F   0  0  0  0  0  0
  -21.5626   -3.4548   25.7748 F   0  0  0  0  0  0
  -30.0292  -13.3011   20.4460 N   0  0  0  0  0  0
  -26.3018  -12.9335   20.3381 N   0  0  0  0  0  0
  -25.9315  -11.6498   20.5792 N   0  0  0  0  0  0
  -22.0490  -12.8240   22.0398 N   0  0  0  0  0  0
  -25.4276  -15.1885   20.4077 N   0  0  0  0  0  0
  -31.8187  -14.6761   20.1144 O   0  0  0  0  0  0
  -21.6623   -6.8881   21.4251 O   0  0  0  0  0  0
  -22.3552  -14.5548   20.6713 O   0  0  0  0  0  0
  -24.6143  -31.8692   23.2077 C   0  0  0  0  0  0
  -25.9038  -32.4821   23.8377 C   0  0  1  0  0  0
  -27.2425  -27.4388   20.0954 C   0  0  0  0  0  0
  -25.5888  -33.8620   24.2318 N   0  0  0  0  0  0
  -23.4023  -30.4905   21.5474 C   0  0  2  0  0  0
  -24.8511  -28.9511   20.1197 C   0  0  0  0  0  0
  -22.7393  -29.4672   22.4970 C   0  0  0  0  0  0
  -18.0278  -28.1374   22.8488 C   0  0  0  0  0  0
  -24.1494  -36.7327   23.2637 C   0  0  0  0  0  0
  -25.9281  -30.8355   21.3610 C   0  0  0  0  0  0
  -26.0098  -29.4664   20.7148 C   0  0  0  0  0  0
  -27.2106  -28.7195   20.6956 C   0  0  0  0  0  0
  -26.0657  -26.9328   19.5062 C   0  0  0  0  0  0
  -24.8734  -27.6809   19.5155 C   0  0  0  0  0  0
  -23.6135  -29.8185   20.1642 C   0  0  0  0  0  0
  -25.4107  -36.3112   24.0342 C   0  0  1  0  0  0
  -20.5864  -28.3680   23.1317 C   0  0  2  0  0  0
  -20.6770  -26.9420   22.5425 C   0  0  0  0  0  0
  -19.5748  -26.6392   21.5225 C   0  0  0  0  0  0
  -18.1926  -26.7923   22.1629 C   0  0  0  0  0  0
  -19.1522  -28.8842   23.2905 C   0  0  0  0  0  0
  -18.9448  -30.1442   23.8920 C   0  0  0  0  0  0
  -17.6447  -30.6581   24.0577 C   0  0  0  0  0  0
  -25.9033  -34.9479   23.5127 C   0  0  0  0  0  0
  -16.5341  -29.9090   23.6316 C   0  0  0  0  0  0
  -16.7269  -28.6511   23.0336 C   0  0  0  0  0  0
  -26.4476  -31.6579   25.0688 C   0  0  0  0  0  0
  -25.3752  -31.3696   26.1444 C   0  0  0  0  0  0
  -27.0314  -30.3012   24.6065 C   0  0  0  0  0  0
  -27.6042  -32.4301   25.7459 C   0  0  0  0  0  0
  -27.5585  -37.1814   24.8462 C   0  0  0  0  0  0
  -21.4128  -29.3051   22.3718 N   0  0  0  0  0  0
  -26.4300  -37.3786   23.9408 N   0  0  0  0  0  0
  -24.6655  -31.0798   22.0961 N   0  0  0  0  0  0
  -23.4167  -28.8229   23.3028 O   0  0  0  0  0  0
  -28.4199  -26.7245   20.0454 O   0  0  0  0  0  0
  -26.5597  -34.8937   22.4687 O   0  0  0  0  0  0
  -23.5338  -32.1429   23.7469 O   0  0  0  0  0  0
  -29.0606  -18.7120   21.4507 C   0  0  0  0  0  0
  -30.8955  -18.4240   19.9094 C   0  0  0  0  0  0
  -29.5237  -20.4816   19.7856 C   0  0  0  0  0  0
  -30.1604  -17.9522   21.0103 C   0  0  0  0  0  0
  -28.7332  -19.9555   20.8552 C   0  0  0  0  0  0
  -30.5899  -19.6633   19.3000 C   0  0  0  0  0  0
  -27.8850  -22.1497   18.5697 C   0  0  0  0  0  0
  -27.4561  -23.5569   19.0163 C   0  0  0  0  0  0
  -29.2783  -21.8934   19.1707 C   0  0  1  0  0  0
  -28.7092  -24.2671   19.5554 C   0  0  2  0  0  0
  -29.5860  -23.1055   20.0930 C   0  0  2  0  0  0
  -27.5072  -20.6621   21.4182 C   0  0  0  0  0  0
  -31.4590  -20.0844   18.1257 C   0  0  0  0  0  0
  -31.0826  -23.4603   20.1333 C   0  0  0  0  0  0
  -30.6169  -16.7001   21.7706 C   0  0  0  0  0  0
  -28.4138  -25.3943   20.5912 C   0  0  0  0  0  0
  -30.0656  -15.4182   21.3143 N   0  0  0  0  0  0
  -31.4655  -12.4297   19.1193 H   0  0  0  0  0  0
  -30.3296  -11.3088   19.8194 H   0  0  0  0  0  0
  -29.7374  -11.8066   17.4231 H   0  0  0  0  0  0
  -29.6504  -13.5118   17.7841 H   0  0  0  0  0  0
  -27.8446  -11.3060   18.8330 H   0  0  0  0  0  0
  -27.3573  -12.6174   17.7952 H   0  0  0  0  0  0
  -27.7014  -14.2544   19.5752 H   0  0  0  0  0  0
  -28.6750  -11.9586   21.3449 H   0  0  0  0  0  0
  -28.4506  -13.5926   21.8753 H   0  0  0  0  0  0
  -25.2748   -9.5680   22.4772 H   0  0  0  0  0  0
  -23.9989   -7.4637   22.7492 H   0  0  0  0  0  0
  -21.0835   -8.8787   19.8961 H   0  0  0  0  0  0
  -22.3703  -10.9677   19.6184 H   0  0  0  0  0  0
  -21.1995   -7.6156   23.9734 H   0  0  0  0  0  0
  -21.1489   -6.0535   25.9092 H   0  0  0  0  0  0
  -22.0584   -2.7620   23.2862 H   0  0  0  0  0  0
  -22.4076  -11.9879   22.4776 H   0  0  0  0  0  0
  -21.1125  -13.1314   22.2618 H   0  0  0  0  0  0
  -24.6627  -15.8437   20.5215 H   0  0  0  0  0  0
  -26.2836  -15.6296   20.0946 H   0  0  0  0  0  0
  -26.7099  -32.5547   23.1147 H   0  0  0  0  0  0
  -25.0065  -33.9768   25.0480 H   0  0  0  0  0  0
  -22.6918  -31.3079   21.4064 H   0  0  0  0  0  0
  -23.3748  -35.9666   23.3306 H   0  0  0  0  0  0
  -24.3590  -36.8929   22.2048 H   0  0  0  0  0  0
  -23.7270  -37.6545   23.6653 H   0  0  0  0  0  0
  -26.0371  -31.5979   20.5885 H   0  0  0  0  0  0
  -26.8162  -30.8935   21.9784 H   0  0  0  0  0  0
  -28.1076  -29.1193   21.1473 H   0  0  0  0  0  0
  -26.0746  -25.9683   19.0235 H   0  0  0  0  0  0
  -23.9819  -27.2765   19.0549 H   0  0  0  0  0  0
  -23.7245  -30.5923   19.4025 H   0  0  0  0  0  0
  -22.7381  -29.2374   19.8695 H   0  0  0  0  0  0
  -25.1290  -36.1968   25.0836 H   0  0  0  0  0  0
  -20.9963  -28.3261   24.1435 H   0  0  0  0  0  0
  -20.5683  -26.2301   23.3619 H   0  0  0  0  0  0
  -21.6640  -26.7466   22.1216 H   0  0  0  0  0  0
  -19.6915  -25.6313   21.1236 H   0  0  0  0  0  0
  -19.6671  -27.3223   20.6775 H   0  0  0  0  0  0
  -17.4199  -26.6680   21.4026 H   0  0  0  0  0  0
  -18.0311  -26.0052   22.9013 H   0  0  0  0  0  0
  -19.7928  -30.7254   24.2293 H   0  0  0  0  0  0
  -17.5012  -31.6256   24.5191 H   0  0  0  0  0  0
  -15.5348  -30.3011   23.7617 H   0  0  0  0  0  0
  -15.8669  -28.0853   22.7019 H   0  0  0  0  0  0
  -24.5901  -30.7069   25.7792 H   0  0  0  0  0  0
  -24.8977  -32.2866   26.4905 H   0  0  0  0  0  0
  -25.8091  -30.8846   27.0196 H   0  0  0  0  0  0
  -26.2857  -29.6753   24.1137 H   0  0  0  0  0  0
  -27.4122  -29.7258   25.4522 H   0  0  0  0  0  0
  -27.8685  -30.4339   23.9197 H   0  0  0  0  0  0
  -27.2639  -33.3578   26.2086 H   0  0  0  0  0  0
  -28.3828  -32.6891   25.0268 H   0  0  0  0  0  0
  -28.0754  -31.8398   26.5336 H   0  0  0  0  0  0
  -28.2604  -38.0110   24.7495 H   0  0  0  0  0  0
  -28.1078  -36.2636   24.6297 H   0  0  0  0  0  0
  -27.2307  -37.1483   25.8867 H   0  0  0  0  0  0
  -20.9280  -29.8781   21.6945 H   0  0  0  0  0  0
  -26.0191  -38.2873   24.1371 H   0  0  0  0  0  0
  -28.4746  -18.3501   22.2842 H   0  0  0  0  0  0
  -31.7341  -17.8378   19.5565 H   0  0  0  0  0  0
  -27.9419  -22.0985   17.4808 H   0  0  0  0  0  0
  -27.1411  -21.4114   18.8627 H   0  0  0  0  0  0
  -26.7028  -23.4641   19.7986 H   0  0  0  0  0  0
  -26.9951  -24.1086   18.1960 H   0  0  0  0  0  0
  -29.9340  -22.0239   18.3143 H   0  0  0  0  0  0
  -29.2355  -24.7061   18.7061 H   0  0  0  0  0  0
  -29.2765  -22.8875   21.1126 H   0  0  0  0  0  0
  -26.6059  -20.3004   20.9240 H   0  0  0  0  0  0
  -27.5220  -21.7403   21.3069 H   0  0  0  0  0  0
  -27.3993  -20.4557   22.4839 H   0  0  0  0  0  0
  -32.0347  -20.9756   18.3781 H   0  0  0  0  0  0
  -32.1613  -19.2979   17.8433 H   0  0  0  0  0  0
  -30.8496  -20.2919   17.2455 H   0  0  0  0  0  0
  -31.6763  -22.6194   20.4931 H   0  0  0  0  0  0
  -31.2709  -24.2989   20.8036 H   0  0  0  0  0  0
  -31.4662  -23.7361   19.1507 H   0  0  0  0  0  0
  -31.7074  -16.6728   21.7726 H   0  0  0  0  0  0
  -30.3438  -16.8226   22.8191 H   0  0  0  0  0  0
  -29.2146  -25.3980   21.3299 H   0  0  0  0  0  0
  -27.5071  -25.1809   21.1627 H   0  0  0  0  0  0
  -29.1456  -15.1780   21.6493 H   0  0  0  0  0  0
  1 25  1  0  0  0
  1 30  2  0  0  0
  1 87  1  0  0  0
  2  3  1  0  0  0
  2 25  1  0  0  0
  2 88  1  0  0  0
  2 89  1  0  0  0
  3  4  1  0  0  0
  3 90  1  0  0  0
  3 91  1  0  0  0
  4  5  1  0  0  0
  4 92  1  0  0  0
  4 93  1  0  0  0
  5  6  1  0  0  0
  5 26  1  0  0  0
  5 94  1  0  0  0
  6 25  1  0  0  0
  6 95  1  0  0  0
  6 96  1  0  0  0
  7  8  2  0  0  0
  7 26  1  0  0  0
  7 29  1  0  0  0
  8  9  1  0  0  0
  8 22  1  0  0  0
  9 10  1  0  0  0
  9 27  2  0  0  0
 10 11  2  0  0  0
 10 15  1  0  0  0
 11 12  1  0  0  0
 11 97  1  0  0  0
 12 13  2  0  0  0
 12 98  1  0  0  0
 13 14  1  0  0  0
 13 31  1  0  0  0
 14 15  2  0  0  0
 14 99  1  0  0  0
 15100  1  0  0  0
 16 17  2  0  0  0
 16 21  1  0  0  0
 16 31  1  0  0  0
 17 18  1  0  0  0
 17101  1  0  0  0
 18 19  2  0  0  0
 18102  1  0  0  0
 19 20  1  0  0  0
 19 24  1  0  0  0
 20 21  2  0  0  0
 20103  1  0  0  0
 21 23  1  0  0  0
 22 28  1  0  0  0
 22 32  2  0  0  0
 26 27  1  0  0  0
 28104  1  0  0  0
 28105  1  0  0  0
 29106  1  0  0  0
 29107  1  0  0  0
 33 34  1  0  0  0
 33 66  1  0  0  0
 33 70  2  0  0  0
 34 36  1  0  0  0
 34 59  1  0  0  0
 34108  1  0  0  0
 35 44  2  0  0  0
 35 45  1  0  0  0
 35 68  1  0  0  0
 36 56  1  0  0  0
 36109  1  0  0  0
 37 39  1  0  0  0
 37 47  1  0  0  0
 37 66  1  0  0  0
 37110  1  0  0  0
 38 43  2  0  0  0
 38 46  1  0  0  0
 38 47  1  0  0  0
 39 64  1  0  0  0
 39 67  2  0  0  0
 40 52  1  0  0  0
 40 53  2  0  0  0
 40 58  1  0  0  0
 41111  1  0  0  0
 41112  1  0  0  0
 41113  1  0  0  0
 41 48  1  0  0  0
 42 43  1  0  0  0
 42 66  1  0  0  0
 42114  1  0  0  0
 42115  1  0  0  0
 43 44  1  0  0  0
 44116  1  0  0  0
 45 46  2  0  0  0
 45117  1  0  0  0
 46118  1  0  0  0
 47119  1  0  0  0
 47120  1  0  0  0
 48 56  1  0  0  0
 48 65  1  0  0  0
 48121  1  0  0  0
 49 50  1  0  0  0
 49 53  1  0  0  0
 49 64  1  0  0  0
 49122  1  0  0  0
 50 51  1  0  0  0
 50123  1  0  0  0
 50124  1  0  0  0
 51 52  1  0  0  0
 51125  1  0  0  0
 51126  1  0  0  0
 52127  1  0  0  0
 52128  1  0  0  0
 53 54  1  0  0  0
 54 55  2  0  0  0
 54129  1  0  0  0
 55 57  1  0  0  0
 55130  1  0  0  0
 56 69  2  0  0  0
 57 58  2  0  0  0
 57131  1  0  0  0
 58132  1  0  0  0
 59 60  1  0  0  0
 59 61  1  0  0  0
 59 62  1  0  0  0
 60133  1  0  0  0
 60134  1  0  0  0
 60135  1  0  0  0
 61136  1  0  0  0
 61137  1  0  0  0
 61138  1  0  0  0
 62139  1  0  0  0
 62140  1  0  0  0
 62141  1  0  0  0
 63 65  1  0  0  0
 63142  1  0  0  0
 63143  1  0  0  0
 63144  1  0  0  0
 64145  1  0  0  0
 65146  1  0  0  0
 68 86  1  0  0  0
 71 74  2  0  0  0
 71 75  1  0  0  0
 71147  1  0  0  0
 72 74  1  0  0  0
 72 76  2  0  0  0
 72148  1  0  0  0
 73 75  2  0  0  0
 73 76  1  0  0  0
 73 79  1  0  0  0
 74 85  1  0  0  0
 75 82  1  0  0  0
 76 83  1  0  0  0
 77 78  1  0  0  0
 77 79  1  0  0  0
 77149  1  0  0  0
 77150  1  0  0  0
 78 80  1  0  0  0
 78151  1  0  0  0
 78152  1  0  0  0
 79 81  1  0  0  0
 79153  1  0  0  0
 80 81  1  0  0  0
 80 86  1  0  0  0
 80154  1  0  0  0
 81 84  1  0  0  0
 81155  1  0  0  0
 82156  1  0  0  0
 82157  1  0  0  0
 82158  1  0  0  0
 83159  1  0  0  0
 83160  1  0  0  0
 83161  1  0  0  0
 84162  1  0  0  0
 84163  1  0  0  0
 84164  1  0  0  0
 85 87  1  0  0  0
 85165  1  0  0  0
 85166  1  0  0  0
 86167  1  0  0  0
 86168  1  0  0  0
 87169  1  0  0  0
M  ISO  4   1 100  68 101  86 101  87 100
M  END
> <chiral flag>
0

> <version>
0

> <s_m_source_file>
/data/baiqing/PycharmProjects/Reinvent-master-3.2/result/LINK_invent/BTK/process_docking_weight1_custom_sum_contain_oxygen_bond_distance_aromatic_linkinvent_7_9_3/rearranged_h_0162.sdf

> <i_m_source_file_index>
41

> <r_mmod_Potential_Energy-OPLS-2005>
-4.65950775146484

> <r_mmod_Stretch_Energy-OPLS-2005>
42.5892295837402

> <r_mmod_Bend_Energy-OPLS-2005>
126.069999694824

> <r_mmod_Torsional_Energy-OPLS-2005>
283.028900146484

> <r_mmod_Improper_Torsional_Energy-OPLS-2005>
2.37368631362915

> <r_mmod_Van_der_Waal_Energy-OPLS-2005>
149.77668762207

> <r_mmod_Electrostatic_Energy-OPLS-2005>
-421.52783203125

> <r_mmod_Solvation_Energy-OPLS-2005>
-197.916900634766

> <b_mmod_Minimization_Converged-OPLS-2005>
0

> <r_mmod_RMS_Derivative-OPLS-2005>
2.89038801193237

$$$$
41
                    3D
 Structure written by MMmdl.
175184  0  0  1  0            999 V2000
  -30.6472  -14.5083   20.5529 C   0  0  0  0  0  0
  -30.4488  -12.3231   19.4169 C   0  0  0  0  0  0
  -29.5067  -12.5062   18.2074 C   0  0  0  0  0  0
  -28.0277  -12.3533   18.6154 C   0  0  0  0  0  0
  -27.6674  -13.1934   19.8699 C   0  0  2  0  0  0
  -28.7103  -12.9601   20.9876 C   0  0  0  0  0  0
  -25.2627  -13.8125   20.5629 C   0  0  0  0  0  0
  -24.1878  -13.0409   20.9140 C   0  0  0  0  0  0
  -24.6411  -11.6872   20.8682 C   0  0  0  0  0  0
  -23.9060  -10.4268   21.0367 C   0  0  0  0  0  0
  -24.3622   -9.4195   21.9154 C   0  0  0  0  0  0
  -23.6298   -8.2235   22.0738 C   0  0  0  0  0  0
  -22.4270   -8.0266   21.3525 C   0  0  0  0  0  0
  -21.9894   -9.0245   20.4633 C   0  0  0  0  0  0
  -22.7219  -10.2125   20.3030 C   0  0  0  0  0  0
  -21.6852   -6.0711   22.5271 C   0  0  0  0  0  0
  -21.4034   -6.5625   23.8204 C   0  0  0  0  0  0
  -21.3653   -5.6770   24.9157 C   0  0  0  0  0  0
  -21.6051   -4.3036   24.7206 C   0  0  0  0  0  0
  -21.8831   -3.8123   23.4330 C   0  0  0  0  0  0
  -21.9208   -4.6942   22.3387 C   0  0  0  0  0  0
  -22.7898  -13.5229   21.1784 C   0  0  0  0  0  0
  -22.1657   -4.2144   21.0950 F   0  0  0  0  0  0
  -21.5633   -3.4508   25.7712 F   0  0  0  0  0  0
  -30.0429  -13.2923   20.4460 N   0  0  0  0  0  0
  -26.3061  -12.9260   20.3311 N   0  0  0  0  0  0
  -25.9342  -11.6434   20.5731 N   0  0  0  0  0  0
  -22.0528  -12.8278   22.0363 N   0  0  0  0  0  0
  -25.4356  -15.1846   20.4017 N   0  0  0  0  0  0
  -31.7758  -14.7459   20.1110 O   0  0  0  0  0  0
  -21.6628   -6.8857   21.4224 O   0  0  0  0  0  0
  -22.3576  -14.5507   20.6577 O   0  0  0  0  0  0
  -24.6150  -31.8672   23.2109 C   0  0  0  0  0  0
  -25.9032  -32.4820   23.8400 C   0  0  1  0  0  0
  -27.2619  -27.4339   20.0994 C   0  0  0  0  0  0
  -25.5878  -33.8615   24.2321 N   0  0  0  0  0  0
  -23.4092  -30.4892   21.5479 C   0  0  2  0  0  0
  -24.8656  -28.9515   20.1239 C   0  0  0  0  0  0
  -22.7430  -29.4649   22.4958 C   0  0  0  0  0  0
  -18.0276  -28.1451   22.8459 C   0  0  0  0  0  0
  -24.1485  -36.7324   23.2647 C   0  0  0  0  0  0
  -25.9382  -30.8283   21.3722 C   0  0  0  0  0  0
  -26.0229  -29.4590   20.7290 C   0  0  0  0  0  0
  -27.2242  -28.7058   20.7276 C   0  0  0  0  0  0
  -26.0872  -26.9501   19.4885 C   0  0  0  0  0  0
  -24.8913  -27.6922   19.5059 C   0  0  0  0  0  0
  -23.6275  -29.8206   20.1644 C   0  0  0  0  0  0
  -25.4112  -36.3111   24.0329 C   0  0  1  0  0  0
  -20.5865  -28.3716   23.1321 C   0  0  2  0  0  0
  -20.6768  -26.9437   22.5445 C   0  0  0  0  0  0
  -19.5768  -26.6425   21.5221 C   0  0  0  0  0  0
  -18.1930  -26.7989   22.1599 C   0  0  0  0  0  0
  -19.1525  -28.8894   23.2901 C   0  0  0  0  0  0
  -18.9446  -30.1486   23.8937 C   0  0  0  0  0  0
  -17.6457  -30.6620   24.0578 C   0  0  0  0  0  0
  -25.9032  -34.9461   23.5123 C   0  0  0  0  0  0
  -16.5343  -29.9125   23.6326 C   0  0  0  0  0  0
  -16.7261  -28.6573   23.0310 C   0  0  0  0  0  0
  -26.4470  -31.6600   25.0721 C   0  0  0  0  0  0
  -25.3750  -31.3732   26.1483 C   0  0  0  0  0  0
  -27.0276  -30.3022   24.6126 C   0  0  0  0  0  0
  -27.6059  -32.4318   25.7468 C   0  0  0  0  0  0
  -27.5592  -37.1800   24.8455 C   0  0  0  0  0  0
  -21.4150  -29.3059   22.3703 N   0  0  0  0  0  0
  -26.4295  -37.3796   23.9406 N   0  0  0  0  0  0
  -24.6712  -31.0768   22.1025 N   0  0  0  0  0  0
  -23.4183  -28.8175   23.3003 O   0  0  0  0  0  0
  -28.3721  -26.6157   19.9893 O   0  0  0  0  0  0
  -26.5594  -34.8900   22.4687 O   0  0  0  0  0  0
  -23.5332  -32.1411   23.7500 O   0  0  0  0  0  0
  -30.5197  -17.7147   21.9974 C   0  0  0  0  0  0
  -30.2280  -17.5307   19.5052 C   0  0  0  0  0  0
  -29.3249  -22.0050   20.5635 C   0  0  0  0  0  0
  -30.2334  -19.2405   21.8972 C   0  0  0  0  0  0
  -29.9576  -19.0609   19.4520 C   0  0  0  0  0  0
  -29.4586  -23.4996   20.1937 C   0  0  0  0  0  0
  -31.6866  -21.9881   21.3731 C   0  0  2  0  0  0
  -29.8039  -16.9501   20.8701 C   0  0  1  0  0  0
  -30.6804  -21.2920   20.4159 C   0  0  1  0  0  0
  -31.7649  -23.5541   21.1820 C   0  0  2  0  0  0
  -33.0792  -21.3160   21.2353 C   0  0  0  0  0  0
  -32.5745  -24.1573   22.3648 C   0  0  0  0  0  0
  -30.5652  -25.6807   20.5492 C   0  0  0  0  0  0
  -29.4331  -26.6816   20.9419 C   0  0  0  0  0  0
  -29.8183  -15.4746   20.9962 N   0  0  0  0  0  0
  -30.6381  -19.7869   20.5666 N   0  3  1  0  0  0
  -30.4309  -24.2544   21.0377 N   0  3  1  0  0  0
  -31.4895  -12.4515   19.1093 H   0  0  0  0  0  0
  -30.3721  -11.3065   19.8070 H   0  0  0  0  0  0
  -29.7519  -11.7850   17.4274 H   0  0  0  0  0  0
  -29.6640  -13.4908   17.7652 H   0  0  0  0  0  0
  -27.8475  -11.2953   18.8135 H   0  0  0  0  0  0
  -27.3763  -12.6183   17.7814 H   0  0  0  0  0  0
  -27.7106  -14.2400   19.5683 H   0  0  0  0  0  0
  -28.6944  -11.9146   21.2971 H   0  0  0  0  0  0
  -28.4620  -13.5319   21.8834 H   0  0  0  0  0  0
  -25.2786   -9.5676   22.4705 H   0  0  0  0  0  0
  -23.9996   -7.4637   22.7482 H   0  0  0  0  0  0
  -21.0806   -8.8761   19.8978 H   0  0  0  0  0  0
  -22.3656  -10.9650   19.6144 H   0  0  0  0  0  0
  -21.2015   -7.6131   23.9704 H   0  0  0  0  0  0
  -21.1471   -6.0487   25.9064 H   0  0  0  0  0  0
  -22.0617   -2.7586   23.2820 H   0  0  0  0  0  0
  -22.4130  -11.9982   22.4839 H   0  0  0  0  0  0
  -21.1149  -13.1344   22.2496 H   0  0  0  0  0  0
  -24.6653  -15.8367   20.5016 H   0  0  0  0  0  0
  -26.2815  -15.6234   20.0629 H   0  0  0  0  0  0
  -26.7098  -32.5554   23.1173 H   0  0  0  0  0  0
  -24.9950  -33.9752   25.0405 H   0  0  0  0  0  0
  -22.6986  -31.3071   21.4037 H   0  0  0  0  0  0
  -23.3719  -35.9685   23.3315 H   0  0  0  0  0  0
  -24.3601  -36.8942   22.2069 H   0  0  0  0  0  0
  -23.7239  -37.6531   23.6653 H   0  0  0  0  0  0
  -26.0515  -31.5916   20.6008 H   0  0  0  0  0  0
  -26.8238  -30.8919   21.9928 H   0  0  0  0  0  0
  -28.1065  -29.1192   21.1951 H   0  0  0  0  0  0
  -26.1020  -25.9868   19.0013 H   0  0  0  0  0  0
  -24.0046  -27.2898   19.0351 H   0  0  0  0  0  0
  -23.7521  -30.5968   19.4098 H   0  0  0  0  0  0
  -22.7510  -29.2482   19.8563 H   0  0  0  0  0  0
  -25.1291  -36.1981   25.0823 H   0  0  0  0  0  0
  -20.9967  -28.3288   24.1441 H   0  0  0  0  0  0
  -20.5669  -26.2308   23.3637 H   0  0  0  0  0  0
  -21.6639  -26.7469   22.1241 H   0  0  0  0  0  0
  -19.6923  -25.6331   21.1264 H   0  0  0  0  0  0
  -19.6764  -27.3222   20.6750 H   0  0  0  0  0  0
  -17.4219  -26.6747   21.3979 H   0  0  0  0  0  0
  -18.0295  -26.0141   22.9010 H   0  0  0  0  0  0
  -19.7925  -30.7294   24.2330 H   0  0  0  0  0  0
  -17.5008  -31.6291   24.5200 H   0  0  0  0  0  0
  -15.5350  -30.3052   23.7665 H   0  0  0  0  0  0
  -15.8652  -28.0935   22.6974 H   0  0  0  0  0  0
  -24.5936  -30.7057   25.7836 H   0  0  0  0  0  0
  -24.8931  -32.2901   26.4884 H   0  0  0  0  0  0
  -25.8120  -30.8948   27.0261 H   0  0  0  0  0  0
  -26.2811  -29.6796   24.1188 H   0  0  0  0  0  0
  -27.4007  -29.7260   25.4603 H   0  0  0  0  0  0
  -27.8675  -30.4285   23.9298 H   0  0  0  0  0  0
  -27.2680  -33.3586   26.2113 H   0  0  0  0  0  0
  -28.3833  -32.6935   25.0278 H   0  0  0  0  0  0
  -28.0777  -31.8411   26.5329 H   0  0  0  0  0  0
  -28.2588  -38.0107   24.7482 H   0  0  0  0  0  0
  -28.1094  -36.2624   24.6293 H   0  0  0  0  0  0
  -27.2317  -37.1502   25.8861 H   0  0  0  0  0  0
  -20.9320  -29.8762   21.6901 H   0  0  0  0  0  0
  -26.0181  -38.2869   24.1431 H   0  0  0  0  0  0
  -30.1842  -17.3495   22.9683 H   0  0  0  0  0  0
  -31.5929  -17.5291   21.9562 H   0  0  0  0  0  0
  -31.2842  -17.3342   19.3144 H   0  0  0  0  0  0
  -29.6747  -17.0378   18.7047 H   0  0  0  0  0  0
  -28.5849  -21.5564   19.8990 H   0  0  0  0  0  0
  -28.9341  -21.9011   21.5767 H   0  0  0  0  0  0
  -30.7657  -19.7373   22.7051 H   0  0  0  0  0  0
  -29.1736  -19.4386   22.0677 H   0  0  0  0  0  0
  -28.8816  -19.2404   19.5053 H   0  0  0  0  0  0
  -30.2861  -19.4514   18.4884 H   0  0  0  0  0  0
  -28.4777  -23.9723   20.2607 H   0  0  0  0  0  0
  -29.7628  -23.5775   19.1491 H   0  0  0  0  0  0
  -31.3465  -21.8227   22.3959 H   0  0  0  0  0  0
  -28.7417  -17.1833   20.9801 H   0  0  0  0  0  0
  -31.0353  -21.4762   19.4004 H   0  0  0  0  0  0
  -32.3190  -23.7407   20.2592 H   0  0  0  0  0  0
  -33.5305  -21.5257   20.2661 H   0  0  0  0  0  0
  -33.0389  -20.2333   21.3458 H   0  0  0  0  0  0
  -33.7800  -21.6407   22.0005 H   0  0  0  0  0  0
  -32.0491  -24.0279   23.3123 H   0  0  0  0  0  0
  -32.7953  -25.2166   22.2568 H   0  0  0  0  0  0
  -33.5508  -23.6899   22.4777 H   0  0  0  0  0  0
  -31.4769  -26.1214   20.9412 H   0  0  0  0  0  0
  -30.7132  -25.6977   19.4688 H   0  0  0  0  0  0
  -29.8524  -27.6890   20.9121 H   0  0  0  0  0  0
  -29.0751  -26.5104   21.9575 H   0  0  0  0  0  0
  -28.9501  -15.0913   21.3402 H   0  0  0  0  0  0
  -31.6115  -19.5326   20.4709 H   0  0  0  0  0  0
  -30.0341  -24.2964   21.9663 H   0  0  0  0  0  0
  1 25  1  0  0  0
  1 30  2  0  0  0
  1 85  1  0  0  0
  2  3  1  0  0  0
  2 25  1  0  0  0
  2 88  1  0  0  0
  2 89  1  0  0  0
  3  4  1  0  0  0
  3 90  1  0  0  0
  3 91  1  0  0  0
  4  5  1  0  0  0
  4 92  1  0  0  0
  4 93  1  0  0  0
  5  6  1  0  0  0
  5 26  1  0  0  0
  5 94  1  0  0  0
  6 25  1  0  0  0
  6 95  1  0  0  0
  6 96  1  0  0  0
  7  8  2  0  0  0
  7 26  1  0  0  0
  7 29  1  0  0  0
  8  9  1  0  0  0
  8 22  1  0  0  0
  9 10  1  0  0  0
  9 27  2  0  0  0
 10 11  2  0  0  0
 10 15  1  0  0  0
 11 12  1  0  0  0
 11 97  1  0  0  0
 12 13  2  0  0  0
 12 98  1  0  0  0
 13 14  1  0  0  0
 13 31  1  0  0  0
 14 15  2  0  0  0
 14 99  1  0  0  0
 15100  1  0  0  0
 16 17  2  0  0  0
 16 21  1  0  0  0
 16 31  1  0  0  0
 17 18  1  0  0  0
 17101  1  0  0  0
 18 19  2  0  0  0
 18102  1  0  0  0
 19 20  1  0  0  0
 19 24  1  0  0  0
 20 21  2  0  0  0
 20103  1  0  0  0
 21 23  1  0  0  0
 22 28  1  0  0  0
 22 32  2  0  0  0
 26 27  1  0  0  0
 28104  1  0  0  0
 28105  1  0  0  0
 29106  1  0  0  0
 29107  1  0  0  0
 33 34  1  0  0  0
 33 66  1  0  0  0
 33 70  2  0  0  0
 34 36  1  0  0  0
 34 59  1  0  0  0
 34108  1  0  0  0
 35 44  2  0  0  0
 35 45  1  0  0  0
 35 68  1  0  0  0
 36 56  1  0  0  0
 36109  1  0  0  0
 37 39  1  0  0  0
 37 47  1  0  0  0
 37 66  1  0  0  0
 37110  1  0  0  0
 38 43  2  0  0  0
 38 46  1  0  0  0
 38 47  1  0  0  0
 39 64  1  0  0  0
 39 67  2  0  0  0
 40 52  1  0  0  0
 40 53  2  0  0  0
 40 58  1  0  0  0
 41111  1  0  0  0
 41112  1  0  0  0
 41113  1  0  0  0
 41 48  1  0  0  0
 42 43  1  0  0  0
 42 66  1  0  0  0
 42114  1  0  0  0
 42115  1  0  0  0
 43 44  1  0  0  0
 44116  1  0  0  0
 45 46  2  0  0  0
 45117  1  0  0  0
 46118  1  0  0  0
 47119  1  0  0  0
 47120  1  0  0  0
 48 56  1  0  0  0
 48 65  1  0  0  0
 48121  1  0  0  0
 49 50  1  0  0  0
 49 53  1  0  0  0
 49 64  1  0  0  0
 49122  1  0  0  0
 50 51  1  0  0  0
 50123  1  0  0  0
 50124  1  0  0  0
 51 52  1  0  0  0
 51125  1  0  0  0
 51126  1  0  0  0
 52127  1  0  0  0
 52128  1  0  0  0
 53 54  1  0  0  0
 54 55  2  0  0  0
 54129  1  0  0  0
 55 57  1  0  0  0
 55130  1  0  0  0
 56 69  2  0  0  0
 57 58  2  0  0  0
 57131  1  0  0  0
 58132  1  0  0  0
 59 60  1  0  0  0
 59 61  1  0  0  0
 59 62  1  0  0  0
 60133  1  0  0  0
 60134  1  0  0  0
 60135  1  0  0  0
 61136  1  0  0  0
 61137  1  0  0  0
 61138  1  0  0  0
 62139  1  0  0  0
 62140  1  0  0  0
 62141  1  0  0  0
 63 65  1  0  0  0
 63142  1  0  0  0
 63143  1  0  0  0
 63144  1  0  0  0
 64145  1  0  0  0
 65146  1  0  0  0
 68 84  1  0  0  0
 71 74  1  0  0  0
 71 78  1  0  0  0
 71147  1  0  0  0
 71148  1  0  0  0
 72 75  1  0  0  0
 72 78  1  0  0  0
 72149  1  0  0  0
 72150  1  0  0  0
 73 76  1  0  0  0
 73151  1  0  0  0
 73152  1  0  0  0
 73 79  1  0  0  0
 74153  1  0  0  0
 74154  1  0  0  0
 74 86  1  0  0  0
 75 86  1  0  0  0
 75155  1  0  0  0
 75156  1  0  0  0
 76 87  1  0  0  0
 76157  1  0  0  0
 76158  1  0  0  0
 77 79  1  0  0  0
 77 80  1  0  0  0
 77 81  1  0  0  0
 77159  1  0  0  0
 78 85  1  0  0  0
 78160  1  0  0  0
 79 86  1  0  0  0
 79161  1  0  0  0
 80 82  1  0  0  0
 80 87  1  0  0  0
 80162  1  0  0  0
 81163  1  0  0  0
 81164  1  0  0  0
 81165  1  0  0  0
 82166  1  0  0  0
 82167  1  0  0  0
 82168  1  0  0  0
 83 84  1  0  0  0
 83169  1  0  0  0
 83170  1  0  0  0
 83 87  1  0  0  0
 84171  1  0  0  0
 84172  1  0  0  0
 85173  1  0  0  0
 86174  1  0  0  0
 87175  1  0  0  0
M  CHG  2  86   1  87   1
M  ISO  4   1 100  68 101  84 101  85 100
M  END
> <chiral flag>
0

> <version>
0

> <s_m_source_file>
/data/baiqing/PycharmProjects/Reinvent-master-3.2/result/LINK_invent/BTK/process_docking_weight1_custom_sum_contain_oxygen_bond_distance_aromatic_linkinvent_7_9_3/rearranged_h_0162.sdf

> <i_m_source_file_index>
42

> <r_mmod_Potential_Energy-OPLS-2005>
-126.684921264648

> <r_mmod_Stretch_Energy-OPLS-2005>
52.2115325927734

> <r_mmod_Bend_Energy-OPLS-2005>
147.696533203125

> <r_mmod_Torsional_Energy-OPLS-2005>
290.295867919922

> <r_mmod_Improper_Torsional_Energy-OPLS-2005>
5.24051666259766

> <r_mmod_Van_der_Waal_Energy-OPLS-2005>
141.943801879883

> <r_mmod_Electrostatic_Energy-OPLS-2005>
121.951881408691

> <r_mmod_Solvation_Energy-OPLS-2005>
-902.497253417969

> <b_mmod_Minimization_Converged-OPLS-2005>
0

> <r_mmod_RMS_Derivative-OPLS-2005>
3.61666250228882

$$$$
42
                    3D
 Structure written by MMmdl.
169178  0  0  1  0            999 V2000
  -30.6864  -14.6943   20.4676 C   0  0  0  0  0  0
  -30.4130  -12.4294   19.4691 C   0  0  0  0  0  0
  -29.4969  -12.4983   18.2311 C   0  0  0  0  0  0
  -28.0254  -12.3274   18.6498 C   0  0  0  0  0  0
  -27.6361  -13.2310   19.8502 C   0  0  2  0  0  0
  -28.6853  -13.1913   20.9831 C   0  0  0  0  0  0
  -25.2501  -13.8205   20.5730 C   0  0  0  0  0  0
  -24.1785  -13.0449   20.9214 C   0  0  0  0  0  0
  -24.6376  -11.6922   20.8753 C   0  0  0  0  0  0
  -23.9062  -10.4296   21.0407 C   0  0  0  0  0  0
  -24.3618   -9.4210   21.9180 C   0  0  0  0  0  0
  -23.6299   -8.2245   22.0746 C   0  0  0  0  0  0
  -22.4280   -8.0280   21.3540 C   0  0  0  0  0  0
  -21.9913   -9.0252   20.4640 C   0  0  0  0  0  0
  -22.7236  -10.2137   20.3050 C   0  0  0  0  0  0
  -21.6854   -6.0735   22.5278 C   0  0  0  0  0  0
  -21.4016   -6.5641   23.8212 C   0  0  0  0  0  0
  -21.3661   -5.6793   24.9175 C   0  0  0  0  0  0
  -21.6042   -4.3055   24.7223 C   0  0  0  0  0  0
  -21.8822   -3.8148   23.4344 C   0  0  0  0  0  0
  -21.9195   -4.6964   22.3401 C   0  0  0  0  0  0
  -22.7810  -13.5230   21.1873 C   0  0  0  0  0  0
  -22.1661   -4.2153   21.0977 F   0  0  0  0  0  0
  -21.5631   -3.4537   25.7736 F   0  0  0  0  0  0
  -29.9888  -13.5102   20.3888 N   0  0  0  0  0  0
  -26.2916  -12.9397   20.3330 N   0  0  0  0  0  0
  -25.9307  -11.6539   20.5784 N   0  0  0  0  0  0
  -22.0465  -12.8207   22.0425 N   0  0  0  0  0  0
  -25.4233  -15.1929   20.4166 N   0  0  0  0  0  0
  -31.8833  -14.7081   20.1655 O   0  0  0  0  0  0
  -21.6643   -6.8876   21.4238 O   0  0  0  0  0  0
  -22.3497  -14.5542   20.6733 O   0  0  0  0  0  0
  -24.6325  -31.8587   23.2048 C   0  0  0  0  0  0
  -25.9160  -32.4776   23.8372 C   0  0  1  0  0  0
  -27.2016  -27.2639   20.1145 C   0  0  0  0  0  0
  -25.5964  -33.8579   24.2290 N   0  0  0  0  0  0
  -23.4271  -30.4887   21.5487 C   0  0  2  0  0  0
  -24.8704  -28.9531   20.1063 C   0  0  0  0  0  0
  -22.7507  -29.4628   22.4912 C   0  0  0  0  0  0
  -18.0297  -28.1398   22.8479 C   0  0  0  0  0  0
  -24.1491  -36.7278   23.2633 C   0  0  0  0  0  0
  -25.9776  -30.7703   21.3897 C   0  0  0  0  0  0
  -26.0458  -29.3971   20.7259 C   0  0  0  0  0  0
  -27.2139  -28.5642   20.7269 C   0  0  0  0  0  0
  -26.0047  -26.9186   19.4342 C   0  0  0  0  0  0
  -24.8553  -27.7201   19.4504 C   0  0  0  0  0  0
  -23.6435  -29.8394   20.1597 C   0  0  0  0  0  0
  -25.4118  -36.3082   24.0327 C   0  0  1  0  0  0
  -20.5903  -28.3709   23.1260 C   0  0  2  0  0  0
  -20.6791  -26.9427   22.5402 C   0  0  0  0  0  0
  -19.5763  -26.6392   21.5211 C   0  0  0  0  0  0
  -18.1943  -26.7936   22.1625 C   0  0  0  0  0  0
  -19.1550  -28.8870   23.2863 C   0  0  0  0  0  0
  -18.9467  -30.1469   23.8886 C   0  0  0  0  0  0
  -17.6466  -30.6593   24.0567 C   0  0  0  0  0  0
  -25.9064  -34.9452   23.5103 C   0  0  0  0  0  0
  -16.5359  -29.9091   23.6338 C   0  0  0  0  0  0
  -16.7281  -28.6513   23.0350 C   0  0  0  0  0  0
  -26.4519  -31.6585   25.0748 C   0  0  0  0  0  0
  -25.3731  -31.3738   26.1457 C   0  0  0  0  0  0
  -27.0354  -30.2996   24.6235 C   0  0  0  0  0  0
  -27.6074  -32.4318   25.7523 C   0  0  0  0  0  0
  -27.5579  -37.1805   24.8467 C   0  0  0  0  0  0
  -21.4210  -29.3060   22.3650 N   0  0  0  0  0  0
  -26.4298  -37.3778   23.9404 N   0  0  0  0  0  0
  -24.6979  -31.0562   22.1031 N   0  0  0  0  0  0
  -23.4207  -28.8140   23.2987 O   0  0  0  0  0  0
  -28.2544  -26.3125   20.2047 O   0  0  0  0  0  0
  -26.5615  -34.8923   22.4661 O   0  0  0  0  0  0
  -23.5479  -32.1409   23.7344 O   0  0  0  0  0  0
  -29.3775  -20.6497   20.4125 C   0  0  0  0  0  0
  -29.8391  -21.5071   19.3525 C   0  0  0  0  0  0
  -28.5662  -21.3112   21.3963 C   0  0  0  0  0  0
  -29.5102  -22.9122   19.2783 C   0  0  0  0  0  0
  -28.2598  -22.7245   21.3291 C   0  0  0  0  0  0
  -28.6571  -23.5467   20.2278 C   0  0  0  0  0  0
  -30.0885  -18.3236   21.7704 C   0  0  0  0  0  0
  -28.8921  -18.0725   19.6782 C   0  0  0  0  0  0
  -30.7440  -16.9011   21.5628 C   0  0  0  0  0  0
  -29.5385  -16.6401   19.4809 C   0  0  0  0  0  0
  -29.7919  -19.0831   20.4424 C   0  0  0  0  0  0
  -30.6770  -20.9011   18.2230 C   0  0  0  0  0  0
  -27.9473  -20.4788   22.5146 C   0  0  0  0  0  0
  -30.0500  -23.7602   18.1286 C   0  0  0  0  0  0
  -27.4497  -23.3751   22.4487 C   0  0  0  0  0  0
  -27.8746  -24.8968   19.8718 C   0  0  0  0  0  0
  -30.0358  -15.9092   20.6885 N   0  0  0  0  0  0
  -31.4573  -12.5175   19.1646 H   0  0  0  0  0  0
  -30.3290  -11.4573   19.9582 H   0  0  0  0  0  0
  -29.6295  -13.4549   17.7223 H   0  0  0  0  0  0
  -29.7736  -11.7260   17.5121 H   0  0  0  0  0  0
  -27.8803  -11.2795   18.9148 H   0  0  0  0  0  0
  -27.3657  -12.5184   17.8024 H   0  0  0  0  0  0
  -27.6161  -14.2459   19.4609 H   0  0  0  0  0  0
  -28.7108  -12.2098   21.4595 H   0  0  0  0  0  0
  -28.4316  -13.9109   21.7638 H   0  0  0  0  0  0
  -25.2758   -9.5693   22.4759 H   0  0  0  0  0  0
  -24.0014   -7.4634   22.7460 H   0  0  0  0  0  0
  -21.0847   -8.8758   19.8945 H   0  0  0  0  0  0
  -22.3682  -10.9673   19.6162 H   0  0  0  0  0  0
  -21.2003   -7.6148   23.9716 H   0  0  0  0  0  0
  -21.1480   -6.0520   25.9079 H   0  0  0  0  0  0
  -22.0600   -2.7609   23.2839 H   0  0  0  0  0  0
  -22.4091  -11.9864   22.4795 H   0  0  0  0  0  0
  -21.1082  -13.1209   22.2646 H   0  0  0  0  0  0
  -24.6650  -15.8550   20.5388 H   0  0  0  0  0  0
  -26.2931  -15.6318   20.1418 H   0  0  0  0  0  0
  -26.7217  -32.5423   23.1103 H   0  0  0  0  0  0
  -25.0140  -33.9719   25.0456 H   0  0  0  0  0  0
  -22.7235  -31.3123   21.4119 H   0  0  0  0  0  0
  -23.3767  -35.9599   23.3301 H   0  0  0  0  0  0
  -24.3577  -36.8889   22.2045 H   0  0  0  0  0  0
  -23.7238  -37.6481   23.6648 H   0  0  0  0  0  0
  -26.1234  -31.5340   20.6244 H   0  0  0  0  0  0
  -26.8544  -30.8119   22.0243 H   0  0  0  0  0  0
  -28.1054  -28.8931   21.2421 H   0  0  0  0  0  0
  -25.8917  -25.9977   18.8853 H   0  0  0  0  0  0
  -23.9613  -27.3802   18.9454 H   0  0  0  0  0  0
  -23.7707  -30.6251   19.4139 H   0  0  0  0  0  0
  -22.7599  -29.2794   19.8482 H   0  0  0  0  0  0
  -25.1305  -36.1932   25.0822 H   0  0  0  0  0  0
  -21.0001  -28.3296   24.1380 H   0  0  0  0  0  0
  -20.5705  -26.2320   23.3609 H   0  0  0  0  0  0
  -21.6653  -26.7461   22.1187 H   0  0  0  0  0  0
  -19.6925  -25.6299   21.1249 H   0  0  0  0  0  0
  -19.6703  -27.3195   20.6734 H   0  0  0  0  0  0
  -17.4211  -26.6679   21.4029 H   0  0  0  0  0  0
  -18.0343  -26.0086   22.9029 H   0  0  0  0  0  0
  -19.7942  -30.7289   24.2253 H   0  0  0  0  0  0
  -17.5023  -31.6273   24.5168 H   0  0  0  0  0  0
  -15.5359  -30.2994   23.7669 H   0  0  0  0  0  0
  -15.8680  -28.0836   22.7066 H   0  0  0  0  0  0
  -24.5929  -30.7058   25.7787 H   0  0  0  0  0  0
  -24.8893  -32.2904   26.4845 H   0  0  0  0  0  0
  -25.8045  -30.8951   27.0257 H   0  0  0  0  0  0
  -26.2936  -29.6762   24.1227 H   0  0  0  0  0  0
  -27.3990  -29.7248   25.4762 H   0  0  0  0  0  0
  -27.8848  -30.4260   23.9517 H   0  0  0  0  0  0
  -27.2687  -33.3627   26.2086 H   0  0  0  0  0  0
  -28.3903  -32.6859   25.0360 H   0  0  0  0  0  0
  -28.0725  -31.8444   26.5452 H   0  0  0  0  0  0
  -28.2612  -38.0088   24.7508 H   0  0  0  0  0  0
  -28.1066  -36.2622   24.6313 H   0  0  0  0  0  0
  -27.2290  -37.1475   25.8869 H   0  0  0  0  0  0
  -20.9389  -29.8796   21.6871 H   0  0  0  0  0  0
  -26.0176  -38.2855   24.1403 H   0  0  0  0  0  0
  -30.7529  -18.9313   22.3862 H   0  0  0  0  0  0
  -29.1856  -18.1707   22.3560 H   0  0  0  0  0  0
  -27.9337  -17.9768   20.1891 H   0  0  0  0  0  0
  -28.6543  -18.4759   18.6938 H   0  0  0  0  0  0
  -30.8926  -16.4430   22.5420 H   0  0  0  0  0  0
  -31.7472  -17.0617   21.1628 H   0  0  0  0  0  0
  -30.3789  -16.7453   18.7911 H   0  0  0  0  0  0
  -28.8220  -16.0117   18.9549 H   0  0  0  0  0  0
  -30.7656  -19.0569   19.9565 H   0  0  0  0  0  0
  -30.3773  -19.8826   17.9861 H   0  0  0  0  0  0
  -31.7330  -20.8945   18.4932 H   0  0  0  0  0  0
  -30.5724  -21.4318   17.2789 H   0  0  0  0  0  0
  -28.6860  -20.2603   23.2856 H   0  0  0  0  0  0
  -27.5503  -19.5481   22.1130 H   0  0  0  0  0  0
  -27.0947  -20.9480   23.0000 H   0  0  0  0  0  0
  -31.0952  -23.5298   17.9222 H   0  0  0  0  0  0
  -30.0256  -24.8256   18.3563 H   0  0  0  0  0  0
  -29.4692  -23.5933   17.2211 H   0  0  0  0  0  0
  -27.7899  -23.0341   23.4268 H   0  0  0  0  0  0
  -26.3895  -23.1440   22.3464 H   0  0  0  0  0  0
  -27.5636  -24.4591   22.4624 H   0  0  0  0  0  0
  -26.8819  -24.7107   20.2813 H   0  0  0  0  0  0
  -27.7293  -24.8694   18.7917 H   0  0  0  0  0  0
  1 25  1  0  0  0
  1 30  2  0  0  0
  1 87  1  0  0  0
  2  3  1  0  0  0
  2 25  1  0  0  0
  2 88  1  0  0  0
  2 89  1  0  0  0
  3  4  1  0  0  0
  3 90  1  0  0  0
  3 91  1  0  0  0
  4  5  1  0  0  0
  4 92  1  0  0  0
  4 93  1  0  0  0
  5  6  1  0  0  0
  5 26  1  0  0  0
  5 94  1  0  0  0
  6 25  1  0  0  0
  6 95  1  0  0  0
  6 96  1  0  0  0
  7  8  2  0  0  0
  7 26  1  0  0  0
  7 29  1  0  0  0
  8  9  1  0  0  0
  8 22  1  0  0  0
  9 10  1  0  0  0
  9 27  2  0  0  0
 10 11  2  0  0  0
 10 15  1  0  0  0
 11 12  1  0  0  0
 11 97  1  0  0  0
 12 13  2  0  0  0
 12 98  1  0  0  0
 13 14  1  0  0  0
 13 31  1  0  0  0
 14 15  2  0  0  0
 14 99  1  0  0  0
 15100  1  0  0  0
 16 17  2  0  0  0
 16 21  1  0  0  0
 16 31  1  0  0  0
 17 18  1  0  0  0
 17101  1  0  0  0
 18 19  2  0  0  0
 18102  1  0  0  0
 19 20  1  0  0  0
 19 24  1  0  0  0
 20 21  2  0  0  0
 20103  1  0  0  0
 21 23  1  0  0  0
 22 28  1  0  0  0
 22 32  2  0  0  0
 26 27  1  0  0  0
 28104  1  0  0  0
 28105  1  0  0  0
 29106  1  0  0  0
 29107  1  0  0  0
 33 34  1  0  0  0
 33 66  1  0  0  0
 33 70  2  0  0  0
 34 36  1  0  0  0
 34 59  1  0  0  0
 34108  1  0  0  0
 35 44  2  0  0  0
 35 45  1  0  0  0
 35 68  1  0  0  0
 36 56  1  0  0  0
 36109  1  0  0  0
 37 39  1  0  0  0
 37 47  1  0  0  0
 37 66  1  0  0  0
 37110  1  0  0  0
 38 43  2  0  0  0
 38 46  1  0  0  0
 38 47  1  0  0  0
 39 64  1  0  0  0
 39 67  2  0  0  0
 40 52  1  0  0  0
 40 53  2  0  0  0
 40 58  1  0  0  0
 41111  1  0  0  0
 41112  1  0  0  0
 41113  1  0  0  0
 41 48  1  0  0  0
 42 43  1  0  0  0
 42 66  1  0  0  0
 42114  1  0  0  0
 42115  1  0  0  0
 43 44  1  0  0  0
 44116  1  0  0  0
 45 46  2  0  0  0
 45117  1  0  0  0
 46118  1  0  0  0
 47119  1  0  0  0
 47120  1  0  0  0
 48 56  1  0  0  0
 48 65  1  0  0  0
 48121  1  0  0  0
 49 50  1  0  0  0
 49 53  1  0  0  0
 49 64  1  0  0  0
 49122  1  0  0  0
 50 51  1  0  0  0
 50123  1  0  0  0
 50124  1  0  0  0
 51 52  1  0  0  0
 51125  1  0  0  0
 51126  1  0  0  0
 52127  1  0  0  0
 52128  1  0  0  0
 53 54  1  0  0  0
 54 55  2  0  0  0
 54129  1  0  0  0
 55 57  1  0  0  0
 55130  1  0  0  0
 56 69  2  0  0  0
 57 58  2  0  0  0
 57131  1  0  0  0
 58132  1  0  0  0
 59 60  1  0  0  0
 59 61  1  0  0  0
 59 62  1  0  0  0
 60133  1  0  0  0
 60134  1  0  0  0
 60135  1  0  0  0
 61136  1  0  0  0
 61137  1  0  0  0
 61138  1  0  0  0
 62139  1  0  0  0
 62140  1  0  0  0
 62141  1  0  0  0
 63 65  1  0  0  0
 63142  1  0  0  0
 63143  1  0  0  0
 63144  1  0  0  0
 64145  1  0  0  0
 65146  1  0  0  0
 68 86  1  0  0  0
 71 72  2  0  0  0
 71 73  1  0  0  0
 71 81  1  0  0  0
 72 74  1  0  0  0
 72 82  1  0  0  0
 73 75  2  0  0  0
 73 83  1  0  0  0
 74 76  2  0  0  0
 74 84  1  0  0  0
 75 76  1  0  0  0
 75 85  1  0  0  0
 76 86  1  0  0  0
 77 79  1  0  0  0
 77 81  1  0  0  0
 77147  1  0  0  0
 77148  1  0  0  0
 78 80  1  0  0  0
 78 81  1  0  0  0
 78149  1  0  0  0
 78150  1  0  0  0
 79 87  1  0  0  0
 79151  1  0  0  0
 79152  1  0  0  0
 80 87  1  0  0  0
 80153  1  0  0  0
 80154  1  0  0  0
 81155  1  0  0  0
 82156  1  0  0  0
 82157  1  0  0  0
 82158  1  0  0  0
 83159  1  0  0  0
 83160  1  0  0  0
 83161  1  0  0  0
 84162  1  0  0  0
 84163  1  0  0  0
 84164  1  0  0  0
 85165  1  0  0  0
 85166  1  0  0  0
 85167  1  0  0  0
 86168  1  0  0  0
 86169  1  0  0  0
M  ISO  4   1 100  68 101  86 101  87 100
M  END
> <chiral flag>
0

> <version>
0

> <s_m_source_file>
/data/baiqing/PycharmProjects/Reinvent-master-3.2/result/LINK_invent/BTK/process_docking_weight1_custom_sum_contain_oxygen_bond_distance_aromatic_linkinvent_7_9_3/rearranged_h_0162.sdf

> <i_m_source_file_index>
43

> <r_mmod_Potential_Energy-OPLS-2005>
458.2353515625

> <r_mmod_Stretch_Energy-OPLS-2005>
124.084083557129

> <r_mmod_Bend_Energy-OPLS-2005>
201.642578125

> <r_mmod_Torsional_Energy-OPLS-2005>
349.277923583984

> <r_mmod_Improper_Torsional_Energy-OPLS-2005>
12.2771148681641

> <r_mmod_Van_der_Waal_Energy-OPLS-2005>
183.091903686523

> <r_mmod_Electrostatic_Energy-OPLS-2005>
-305.520660400391

> <r_mmod_Solvation_Energy-OPLS-2005>
-191.748992919922

> <b_mmod_Minimization_Converged-OPLS-2005>
0

> <r_mmod_RMS_Derivative-OPLS-2005>
1.12328016757965

$$$$
43
                    3D
 Structure written by MMmdl.
166175  0  0  1  0            999 V2000
  -30.5949  -14.7233   20.4551 C   0  0  0  0  0  0
  -30.4416  -12.4373   19.4738 C   0  0  0  0  0  0
  -29.5186  -12.5131   18.2356 C   0  0  0  0  0  0
  -28.0383  -12.3535   18.6363 C   0  0  0  0  0  0
  -27.6496  -13.2305   19.8585 C   0  0  2  0  0  0
  -28.6939  -13.1220   20.9946 C   0  0  0  0  0  0
  -25.2522  -13.8193   20.5675 C   0  0  0  0  0  0
  -24.1804  -13.0446   20.9184 C   0  0  0  0  0  0
  -24.6386  -11.6922   20.8711 C   0  0  0  0  0  0
  -23.9065  -10.4289   21.0368 C   0  0  0  0  0  0
  -24.3605   -9.4204   21.9166 C   0  0  0  0  0  0
  -23.6272   -8.2241   22.0738 C   0  0  0  0  0  0
  -22.4251   -8.0266   21.3536 C   0  0  0  0  0  0
  -21.9892   -9.0249   20.4646 C   0  0  0  0  0  0
  -22.7228  -10.2120   20.3038 C   0  0  0  0  0  0
  -21.6865   -6.0713   22.5277 C   0  0  0  0  0  0
  -21.4020   -6.5611   23.8204 C   0  0  0  0  0  0
  -21.3666   -5.6763   24.9167 C   0  0  0  0  0  0
  -21.6042   -4.3034   24.7216 C   0  0  0  0  0  0
  -21.8820   -3.8124   23.4348 C   0  0  0  0  0  0
  -21.9196   -4.6948   22.3396 C   0  0  0  0  0  0
  -22.7826  -13.5241   21.1847 C   0  0  0  0  0  0
  -22.1666   -4.2138   21.0976 F   0  0  0  0  0  0
  -21.5625   -3.4514   25.7737 F   0  0  0  0  0  0
  -30.0033  -13.4807   20.4299 N   0  0  0  0  0  0
  -26.2967  -12.9402   20.3284 N   0  0  0  0  0  0
  -25.9313  -11.6550   20.5701 N   0  0  0  0  0  0
  -22.0448  -12.8247   22.0402 N   0  0  0  0  0  0
  -25.4204  -15.1915   20.4087 N   0  0  0  0  0  0
  -31.7495  -14.8737   20.0459 O   0  0  0  0  0  0
  -21.6628   -6.8857   21.4232 O   0  0  0  0  0  0
  -22.3511  -14.5556   20.6696 O   0  0  0  0  0  0
  -24.6334  -31.8528   23.1994 C   0  0  0  0  0  0
  -25.9164  -32.4725   23.8335 C   0  0  1  0  0  0
  -27.2130  -27.2365   20.1217 C   0  0  0  0  0  0
  -25.5968  -33.8532   24.2279 N   0  0  0  0  0  0
  -23.4303  -30.4779   21.5444 C   0  0  2  0  0  0
  -24.8778  -28.9255   20.1090 C   0  0  0  0  0  0
  -22.7513  -29.4589   22.4910 C   0  0  0  0  0  0
  -18.0292  -28.1350   22.8470 C   0  0  0  0  0  0
  -24.1498  -36.7270   23.2635 C   0  0  0  0  0  0
  -25.9813  -30.7559   21.3870 C   0  0  0  0  0  0
  -26.0504  -29.3770   20.7267 C   0  0  0  0  0  0
  -27.2220  -28.5443   20.7250 C   0  0  0  0  0  0
  -26.0222  -26.8737   19.4559 C   0  0  0  0  0  0
  -24.8705  -27.6824   19.4633 C   0  0  0  0  0  0
  -23.6490  -29.8159   20.1587 C   0  0  0  0  0  0
  -25.4110  -36.3040   24.0333 C   0  0  1  0  0  0
  -20.5903  -28.3671   23.1253 C   0  0  2  0  0  0
  -20.6783  -26.9378   22.5407 C   0  0  0  0  0  0
  -19.5770  -26.6357   21.5190 C   0  0  0  0  0  0
  -18.1939  -26.7904   22.1594 C   0  0  0  0  0  0
  -19.1547  -28.8829   23.2858 C   0  0  0  0  0  0
  -18.9463  -30.1431   23.8857 C   0  0  0  0  0  0
  -17.6463  -30.6562   24.0535 C   0  0  0  0  0  0
  -25.9052  -34.9409   23.5098 C   0  0  0  0  0  0
  -16.5352  -29.9046   23.6330 C   0  0  0  0  0  0
  -16.7278  -28.6471   23.0342 C   0  0  0  0  0  0
  -26.4529  -31.6536   25.0724 C   0  0  0  0  0  0
  -25.3770  -31.3690   26.1464 C   0  0  0  0  0  0
  -27.0355  -30.2936   24.6227 C   0  0  0  0  0  0
  -27.6093  -32.4258   25.7494 C   0  0  0  0  0  0
  -27.5574  -37.1779   24.8454 C   0  0  0  0  0  0
  -21.4223  -29.3026   22.3656 N   0  0  0  0  0  0
  -26.4279  -37.3744   23.9403 N   0  0  0  0  0  0
  -24.7004  -31.0473   22.0992 N   0  0  0  0  0  0
  -23.4212  -28.8101   23.3000 O   0  0  0  0  0  0
  -28.2869  -26.3053   20.1448 O   0  0  0  0  0  0
  -26.5606  -34.8892   22.4659 O   0  0  0  0  0  0
  -23.5481  -32.1361   23.7275 O   0  0  0  0  0  0
  -30.8638  -21.5292   19.4237 C   0  0  0  0  0  0
  -29.9997  -23.8432   19.1805 C   0  0  0  0  0  0
  -29.8446  -21.2509   20.3469 C   0  0  0  0  0  0
  -28.8731  -22.2646   20.6256 C   0  0  0  0  0  0
  -30.9053  -22.8083   18.8118 C   0  0  0  0  0  0
  -28.9591  -23.6373   20.1170 C   0  0  0  0  0  0
  -28.2019  -20.0889   21.5885 C   0  0  0  0  0  0
  -27.7797  -21.6060   21.4680 C   0  0  1  0  0  0
  -29.7113  -19.9763   21.2534 C   0  0  2  0  0  0
  -31.9295  -23.0803   17.7281 C   0  0  0  0  0  0
  -27.5317  -22.2513   22.8401 C   0  0  0  0  0  0
  -30.5171  -20.3620   22.5222 C   0  0  0  0  0  0
  -27.9662  -24.8503   20.4461 C   0  0  0  0  0  0
  -30.3331  -18.4792   20.9341 C   0  0  0  0  0  0
  -29.6949  -17.2272   20.1547 C   0  0  0  0  0  0
  -29.7800  -15.8063   20.7328 N   0  0  0  0  0  0
  -31.4851  -12.5590   19.1764 H   0  0  0  0  0  0
  -30.3811  -11.4521   19.9370 H   0  0  0  0  0  0
  -29.7935  -11.7436   17.5129 H   0  0  0  0  0  0
  -29.6603  -13.4711   17.7297 H   0  0  0  0  0  0
  -27.8645  -11.3012   18.8651 H   0  0  0  0  0  0
  -27.3934  -12.5872   17.7877 H   0  0  0  0  0  0
  -27.6550  -14.2615   19.5022 H   0  0  0  0  0  0
  -28.7168  -12.1089   21.3981 H   0  0  0  0  0  0
  -28.4291  -13.7687   21.8312 H   0  0  0  0  0  0
  -25.2747   -9.5691   22.4748 H   0  0  0  0  0  0
  -23.9993   -7.4624   22.7450 H   0  0  0  0  0  0
  -21.0825   -8.8785   19.8942 H   0  0  0  0  0  0
  -22.3707  -10.9652   19.6138 H   0  0  0  0  0  0
  -21.2030   -7.6122   23.9706 H   0  0  0  0  0  0
  -21.1487   -6.0494   25.9070 H   0  0  0  0  0  0
  -22.0608   -2.7591   23.2843 H   0  0  0  0  0  0
  -22.4039  -11.9932   22.4854 H   0  0  0  0  0  0
  -21.1057  -13.1296   22.2563 H   0  0  0  0  0  0
  -24.6516  -15.8432   20.5156 H   0  0  0  0  0  0
  -26.2599  -15.6284   20.0503 H   0  0  0  0  0  0
  -26.7231  -32.5367   23.1063 H   0  0  0  0  0  0
  -25.0143  -33.9672   25.0444 H   0  0  0  0  0  0
  -22.7270  -31.3006   21.4016 H   0  0  0  0  0  0
  -23.3748  -35.9616   23.3287 H   0  0  0  0  0  0
  -24.3599  -36.8902   22.2055 H   0  0  0  0  0  0
  -23.7284  -37.6485   23.6664 H   0  0  0  0  0  0
  -26.1296  -31.5176   20.6197 H   0  0  0  0  0  0
  -26.8539  -30.7978   22.0267 H   0  0  0  0  0  0
  -28.1171  -28.8816   21.2277 H   0  0  0  0  0  0
  -25.9549  -25.9430   18.9128 H   0  0  0  0  0  0
  -23.9809  -27.3376   18.9545 H   0  0  0  0  0  0
  -23.7736  -30.5955   19.4076 H   0  0  0  0  0  0
  -22.7651  -29.2555   19.8497 H   0  0  0  0  0  0
  -25.1291  -36.1865   25.0826 H   0  0  0  0  0  0
  -20.9990  -28.3236   24.1374 H   0  0  0  0  0  0
  -20.5643  -26.2266   23.3605 H   0  0  0  0  0  0
  -21.6656  -26.7378   22.1215 H   0  0  0  0  0  0
  -19.6932  -25.6261   21.1231 H   0  0  0  0  0  0
  -19.6716  -27.3148   20.6707 H   0  0  0  0  0  0
  -17.4210  -26.6623   21.3995 H   0  0  0  0  0  0
  -18.0349  -26.0045   22.8994 H   0  0  0  0  0  0
  -19.7937  -30.7252   24.2213 H   0  0  0  0  0  0
  -17.5011  -31.6241   24.5133 H   0  0  0  0  0  0
  -15.5348  -30.2911   23.7688 H   0  0  0  0  0  0
  -15.8685  -28.0771   22.7065 H   0  0  0  0  0  0
  -24.5984  -30.6975   25.7837 H   0  0  0  0  0  0
  -24.8920  -32.2848   26.4846 H   0  0  0  0  0  0
  -25.8133  -30.8941   27.0262 H   0  0  0  0  0  0
  -26.2928  -29.6677   24.1281 H   0  0  0  0  0  0
  -27.4041  -29.7206   25.4742 H   0  0  0  0  0  0
  -27.8812  -30.4167   23.9463 H   0  0  0  0  0  0
  -27.2730  -33.3581   26.2030 H   0  0  0  0  0  0
  -28.3932  -32.6756   25.0336 H   0  0  0  0  0  0
  -28.0720  -31.8395   26.5443 H   0  0  0  0  0  0
  -28.2564  -38.0098   24.7500 H   0  0  0  0  0  0
  -28.1095  -36.2629   24.6251 H   0  0  0  0  0  0
  -27.2301  -37.1401   25.8860 H   0  0  0  0  0  0
  -20.9384  -29.8769   21.6885 H   0  0  0  0  0  0
  -26.0146  -38.2813   24.1411 H   0  0  0  0  0  0
  -31.6015  -20.7742   19.1869 H   0  0  0  0  0  0
  -30.0878  -24.8119   18.7076 H   0  0  0  0  0  0
  -27.6554  -19.5335   20.8254 H   0  0  0  0  0  0
  -27.9300  -19.6301   22.5413 H   0  0  0  0  0  0
  -26.8481  -21.6560   20.9008 H   0  0  0  0  0  0
  -32.6893  -22.2991   17.6836 H   0  0  0  0  0  0
  -32.4339  -24.0322   17.8882 H   0  0  0  0  0  0
  -31.4359  -23.1174   16.7563 H   0  0  0  0  0  0
  -28.4470  -22.3756   23.4157 H   0  0  0  0  0  0
  -26.8568  -21.6333   23.4348 H   0  0  0  0  0  0
  -27.0547  -23.2250   22.7590 H   0  0  0  0  0  0
  -30.3217  -21.3746   22.8683 H   0  0  0  0  0  0
  -31.5898  -20.3127   22.3277 H   0  0  0  0  0  0
  -30.3101  -19.6966   23.3614 H   0  0  0  0  0  0
  -27.8021  -24.8263   21.5191 H   0  0  0  0  0  0
  -27.0180  -24.5470   20.0144 H   0  0  0  0  0  0
  -30.5008  -18.0321   21.9139 H   0  0  0  0  0  0
  -31.3487  -18.6184   20.5571 H   0  0  0  0  0  0
  -30.1254  -17.1924   19.1525 H   0  0  0  0  0  0
  -28.6324  -17.4217   19.9984 H   0  0  0  0  0  0
  -28.9195  -15.5123   21.1703 H   0  0  0  0  0  0
  1 25  1  0  0  0
  1 30  2  0  0  0
  1 86  1  0  0  0
  2  3  1  0  0  0
  2 25  1  0  0  0
  2 87  1  0  0  0
  2 88  1  0  0  0
  3  4  1  0  0  0
  3 89  1  0  0  0
  3 90  1  0  0  0
  4  5  1  0  0  0
  4 91  1  0  0  0
  4 92  1  0  0  0
  5  6  1  0  0  0
  5 26  1  0  0  0
  5 93  1  0  0  0
  6 25  1  0  0  0
  6 94  1  0  0  0
  6 95  1  0  0  0
  7  8  2  0  0  0
  7 26  1  0  0  0
  7 29  1  0  0  0
  8  9  1  0  0  0
  8 22  1  0  0  0
  9 10  1  0  0  0
  9 27  2  0  0  0
 10 11  2  0  0  0
 10 15  1  0  0  0
 11 12  1  0  0  0
 11 96  1  0  0  0
 12 13  2  0  0  0
 12 97  1  0  0  0
 13 14  1  0  0  0
 13 31  1  0  0  0
 14 15  2  0  0  0
 14 98  1  0  0  0
 15 99  1  0  0  0
 16 17  2  0  0  0
 16 21  1  0  0  0
 16 31  1  0  0  0
 17 18  1  0  0  0
 17100  1  0  0  0
 18 19  2  0  0  0
 18101  1  0  0  0
 19 20  1  0  0  0
 19 24  1  0  0  0
 20 21  2  0  0  0
 20102  1  0  0  0
 21 23  1  0  0  0
 22 28  1  0  0  0
 22 32  2  0  0  0
 26 27  1  0  0  0
 28103  1  0  0  0
 28104  1  0  0  0
 29105  1  0  0  0
 29106  1  0  0  0
 33 34  1  0  0  0
 33 66  1  0  0  0
 33 70  2  0  0  0
 34 36  1  0  0  0
 34 59  1  0  0  0
 34107  1  0  0  0
 35 44  2  0  0  0
 35 45  1  0  0  0
 35 68  1  0  0  0
 36 56  1  0  0  0
 36108  1  0  0  0
 37 39  1  0  0  0
 37 47  1  0  0  0
 37 66  1  0  0  0
 37109  1  0  0  0
 38 43  2  0  0  0
 38 46  1  0  0  0
 38 47  1  0  0  0
 39 64  1  0  0  0
 39 67  2  0  0  0
 40 52  1  0  0  0
 40 53  2  0  0  0
 40 58  1  0  0  0
 41110  1  0  0  0
 41111  1  0  0  0
 41112  1  0  0  0
 41 48  1  0  0  0
 42 43  1  0  0  0
 42 66  1  0  0  0
 42113  1  0  0  0
 42114  1  0  0  0
 43 44  1  0  0  0
 44115  1  0  0  0
 45 46  2  0  0  0
 45116  1  0  0  0
 46117  1  0  0  0
 47118  1  0  0  0
 47119  1  0  0  0
 48 56  1  0  0  0
 48 65  1  0  0  0
 48120  1  0  0  0
 49 50  1  0  0  0
 49 53  1  0  0  0
 49 64  1  0  0  0
 49121  1  0  0  0
 50 51  1  0  0  0
 50122  1  0  0  0
 50123  1  0  0  0
 51 52  1  0  0  0
 51124  1  0  0  0
 51125  1  0  0  0
 52126  1  0  0  0
 52127  1  0  0  0
 53 54  1  0  0  0
 54 55  2  0  0  0
 54128  1  0  0  0
 55 57  1  0  0  0
 55129  1  0  0  0
 56 69  2  0  0  0
 57 58  2  0  0  0
 57130  1  0  0  0
 58131  1  0  0  0
 59 60  1  0  0  0
 59 61  1  0  0  0
 59 62  1  0  0  0
 60132  1  0  0  0
 60133  1  0  0  0
 60134  1  0  0  0
 61135  1  0  0  0
 61136  1  0  0  0
 61137  1  0  0  0
 62138  1  0  0  0
 62139  1  0  0  0
 62140  1  0  0  0
 63 65  1  0  0  0
 63141  1  0  0  0
 63142  1  0  0  0
 63143  1  0  0  0
 64144  1  0  0  0
 65145  1  0  0  0
 68 83  1  0  0  0
 71 73  2  0  0  0
 71 75  1  0  0  0
 71146  1  0  0  0
 72 75  2  0  0  0
 72 76  1  0  0  0
 72147  1  0  0  0
 73 74  1  0  0  0
 73 79  1  0  0  0
 74 76  2  0  0  0
 74 78  1  0  0  0
 75 80  1  0  0  0
 76 83  1  0  0  0
 77 78  1  0  0  0
 77 79  1  0  0  0
 77148  1  0  0  0
 77149  1  0  0  0
 78 81  1  0  0  0
 78150  1  0  0  0
 79 82  1  0  0  0
 79 84  1  0  0  0
 80151  1  0  0  0
 80152  1  0  0  0
 80153  1  0  0  0
 81154  1  0  0  0
 81155  1  0  0  0
 81156  1  0  0  0
 82157  1  0  0  0
 82158  1  0  0  0
 82159  1  0  0  0
 83160  1  0  0  0
 83161  1  0  0  0
 84 85  1  0  0  0
 84162  1  0  0  0
 84163  1  0  0  0
 85 86  1  0  0  0
 85164  1  0  0  0
 85165  1  0  0  0
 86166  1  0  0  0
M  ISO  4   1 100  68 101  83 101  86 100
M  END
> <chiral flag>
0

> <version>
0

> <s_m_source_file>
/data/baiqing/PycharmProjects/Reinvent-master-3.2/result/LINK_invent/BTK/process_docking_weight1_custom_sum_contain_oxygen_bond_distance_aromatic_linkinvent_7_9_3/rearranged_h_0162.sdf

> <i_m_source_file_index>
44

> <r_mmod_Potential_Energy-OPLS-2005>
334.417816162109

> <r_mmod_Stretch_Energy-OPLS-2005>
135.096908569336

> <r_mmod_Bend_Energy-OPLS-2005>
274.238983154297

> <r_mmod_Torsional_Energy-OPLS-2005>
276.270812988281

> <r_mmod_Improper_Torsional_Energy-OPLS-2005>
7.23351287841797

> <r_mmod_Van_der_Waal_Energy-OPLS-2005>
136.035278320312

> <r_mmod_Electrostatic_Energy-OPLS-2005>
-377.241119384766

> <r_mmod_Solvation_Energy-OPLS-2005>
-204.993438720703

> <b_mmod_Minimization_Converged-OPLS-2005>
0

> <r_mmod_RMS_Derivative-OPLS-2005>
3.53010106086731

$$$$
44
                    3D
 Structure written by MMmdl.
167176  0  0  1  0            999 V2000
  -30.6943  -14.5817   20.4714 C   0  0  0  0  0  0
  -30.4113  -12.3532   19.4468 C   0  0  0  0  0  0
  -29.4939  -12.4793   18.2136 C   0  0  0  0  0  0
  -28.0162  -12.3430   18.6290 C   0  0  0  0  0  0
  -27.6459  -13.2257   19.8528 C   0  0  2  0  0  0
  -28.6927  -13.1133   20.9815 C   0  0  0  0  0  0
  -25.2535  -13.8196   20.5702 C   0  0  0  0  0  0
  -24.1806  -13.0456   20.9206 C   0  0  0  0  0  0
  -24.6388  -11.6928   20.8755 C   0  0  0  0  0  0
  -23.9059  -10.4304   21.0405 C   0  0  0  0  0  0
  -24.3617   -9.4217   21.9180 C   0  0  0  0  0  0
  -23.6304   -8.2242   22.0743 C   0  0  0  0  0  0
  -22.4285   -8.0279   21.3530 C   0  0  0  0  0  0
  -21.9918   -9.0256   20.4638 C   0  0  0  0  0  0
  -22.7234  -10.2139   20.3054 C   0  0  0  0  0  0
  -21.6859   -6.0738   22.5273 C   0  0  0  0  0  0
  -21.4020   -6.5639   23.8208 C   0  0  0  0  0  0
  -21.3669   -5.6784   24.9165 C   0  0  0  0  0  0
  -21.6051   -4.3051   24.7218 C   0  0  0  0  0  0
  -21.8819   -3.8147   23.4338 C   0  0  0  0  0  0
  -21.9196   -4.6965   22.3396 C   0  0  0  0  0  0
  -22.7828  -13.5252   21.1866 C   0  0  0  0  0  0
  -22.1659   -4.2152   21.0973 F   0  0  0  0  0  0
  -21.5634   -3.4538   25.7735 F   0  0  0  0  0  0
  -30.0027  -13.4076   20.3921 N   0  0  0  0  0  0
  -26.2957  -12.9400   20.3313 N   0  0  0  0  0  0
  -25.9320  -11.6548   20.5782 N   0  0  0  0  0  0
  -22.0469  -12.8241   22.0418 N   0  0  0  0  0  0
  -25.4267  -15.1911   20.4119 N   0  0  0  0  0  0
  -31.9003  -14.6164   20.2080 O   0  0  0  0  0  0
  -21.6644   -6.8879   21.4235 O   0  0  0  0  0  0
  -22.3524  -14.5564   20.6722 O   0  0  0  0  0  0
  -24.6224  -31.8640   23.2071 C   0  0  0  0  0  0
  -25.9087  -32.4799   23.8378 C   0  0  1  0  0  0
  -27.2165  -27.3555   20.0848 C   0  0  0  0  0  0
  -25.5927  -33.8600   24.2302 N   0  0  0  0  0  0
  -23.4118  -30.4911   21.5509 C   0  0  2  0  0  0
  -24.8525  -28.9544   20.1121 C   0  0  0  0  0  0
  -22.7444  -29.4646   22.4967 C   0  0  0  0  0  0
  -18.0281  -28.1368   22.8489 C   0  0  0  0  0  0
  -24.1487  -36.7293   23.2637 C   0  0  0  0  0  0
  -25.9523  -30.8039   21.3736 C   0  0  0  0  0  0
  -26.0230  -29.4369   20.7101 C   0  0  0  0  0  0
  -27.2054  -28.6453   20.6937 C   0  0  0  0  0  0
  -26.0098  -26.9057   19.5028 C   0  0  0  0  0  0
  -24.8448  -27.6903   19.5075 C   0  0  0  0  0  0
  -23.6212  -29.8311   20.1646 C   0  0  0  0  0  0
  -25.4115  -36.3095   24.0329 C   0  0  1  0  0  0
  -20.5876  -28.3668   23.1300 C   0  0  2  0  0  0
  -20.6772  -26.9398   22.5414 C   0  0  0  0  0  0
  -19.5752  -26.6374   21.5208 C   0  0  0  0  0  0
  -18.1929  -26.7917   22.1619 C   0  0  0  0  0  0
  -19.1532  -28.8836   23.2894 C   0  0  0  0  0  0
  -18.9458  -30.1438   23.8904 C   0  0  0  0  0  0
  -17.6459  -30.6578   24.0558 C   0  0  0  0  0  0
  -25.9049  -34.9463   23.5115 C   0  0  0  0  0  0
  -16.5351  -29.9072   23.6327 C   0  0  0  0  0  0
  -16.7269  -28.6490   23.0354 C   0  0  0  0  0  0
  -26.4481  -31.6599   25.0736 C   0  0  0  0  0  0
  -25.3720  -31.3733   26.1468 C   0  0  0  0  0  0
  -27.0322  -30.3030   24.6169 C   0  0  0  0  0  0
  -27.6053  -32.4325   25.7501 C   0  0  0  0  0  0
  -27.5581  -37.1801   24.8465 C   0  0  0  0  0  0
  -21.4169  -29.3035   22.3699 N   0  0  0  0  0  0
  -26.4298  -37.3784   23.9405 N   0  0  0  0  0  0
  -24.6808  -31.0685   22.1004 N   0  0  0  0  0  0
  -23.4196  -28.8187   23.3024 O   0  0  0  0  0  0
  -28.3550  -26.5467   20.1268 O   0  0  0  0  0  0
  -26.5611  -34.8919   22.4672 O   0  0  0  0  0  0
  -23.5398  -32.1428   23.7425 O   0  0  0  0  0  0
  -27.3983  -20.0979   19.5490 C   0  0  0  0  0  0
  -28.7106  -20.1622   20.0386 C   0  0  0  0  0  0
  -29.2652  -21.4802   20.2042 C   0  0  0  0  0  0
  -28.5633  -22.6543   19.7109 C   0  0  0  0  0  0
  -27.2495  -22.3895   19.2318 C   0  0  0  0  0  0
  -28.9390  -17.9018   21.4145 C   0  0  0  0  0  0
  -29.4788  -17.8974   19.0360 C   0  0  0  0  0  0
  -29.7534  -16.5697   21.6031 C   0  0  0  0  0  0
  -30.3344  -16.6189   19.2271 C   0  0  0  0  0  0
  -29.4748  -18.8114   20.2798 C   0  0  0  0  0  0
  -30.6015  -21.5937   20.9319 C   0  0  0  0  0  0
  -30.5464  -23.9915   18.7907 C   0  0  0  0  0  0
  -28.5273  -25.4354   19.1908 C   0  0  0  0  0  0
  -29.2662  -24.0882   19.6620 C   0  0  1  0  0  0
  -26.6840  -21.1764   19.1888 N   0  0  0  0  0  0
  -29.9718  -15.7526   20.3810 N   0  0  0  0  0  0
  -26.3735  -23.3385   18.7481 N   0  0  0  0  0  0
  -31.4579  -12.4343   19.1485 H   0  0  0  0  0  0
  -30.3075  -11.3709   19.9086 H   0  0  0  0  0  0
  -29.7489  -11.7151   17.4784 H   0  0  0  0  0  0
  -29.6527  -13.4424   17.7242 H   0  0  0  0  0  0
  -27.8392  -11.2927   18.8645 H   0  0  0  0  0  0
  -27.3648  -12.5768   17.7865 H   0  0  0  0  0  0
  -27.6594  -14.2570   19.4995 H   0  0  0  0  0  0
  -28.6881  -12.1146   21.4211 H   0  0  0  0  0  0
  -28.4624  -13.8076   21.7904 H   0  0  0  0  0  0
  -25.2755   -9.5719   22.4754 H   0  0  0  0  0  0
  -24.0024   -7.4651   22.7476 H   0  0  0  0  0  0
  -21.0840   -8.8781   19.8955 H   0  0  0  0  0  0
  -22.3686  -10.9682   19.6170 H   0  0  0  0  0  0
  -21.2001   -7.6146   23.9720 H   0  0  0  0  0  0
  -21.1497   -6.0503   25.9070 H   0  0  0  0  0  0
  -22.0593   -2.7612   23.2828 H   0  0  0  0  0  0
  -22.4088  -11.9910   22.4810 H   0  0  0  0  0  0
  -21.1082  -13.1276   22.2615 H   0  0  0  0  0  0
  -24.6699  -15.8527   20.5400 H   0  0  0  0  0  0
  -26.2921  -15.6270   20.1191 H   0  0  0  0  0  0
  -26.7152  -32.5474   23.1123 H   0  0  0  0  0  0
  -25.0078  -33.9757   25.0452 H   0  0  0  0  0  0
  -22.7031  -31.3105   21.4142 H   0  0  0  0  0  0
  -23.3756  -35.9621   23.3312 H   0  0  0  0  0  0
  -24.3579  -36.8899   22.2050 H   0  0  0  0  0  0
  -23.7233  -37.6495   23.6650 H   0  0  0  0  0  0
  -26.0847  -31.5737   20.6123 H   0  0  0  0  0  0
  -26.8331  -30.8456   22.0032 H   0  0  0  0  0  0
  -28.1060  -29.0145   21.1637 H   0  0  0  0  0  0
  -25.9078  -25.9244   19.0741 H   0  0  0  0  0  0
  -23.9382  -27.3033   19.0630 H   0  0  0  0  0  0
  -23.7372  -30.6100   19.4104 H   0  0  0  0  0  0
  -22.7411  -29.2599   19.8633 H   0  0  0  0  0  0
  -25.1293  -36.1953   25.0823 H   0  0  0  0  0  0
  -20.9974  -28.3232   24.1419 H   0  0  0  0  0  0
  -20.5680  -26.2266   23.3601 H   0  0  0  0  0  0
  -21.6641  -26.7438   22.1202 H   0  0  0  0  0  0
  -19.6917  -25.6288   21.1228 H   0  0  0  0  0  0
  -19.6696  -27.3187   20.6741 H   0  0  0  0  0  0
  -17.4203  -26.6668   21.4016 H   0  0  0  0  0  0
  -18.0334  -26.0054   22.9012 H   0  0  0  0  0  0
  -19.7935  -30.7247   24.2283 H   0  0  0  0  0  0
  -17.5017  -31.6262   24.5151 H   0  0  0  0  0  0
  -15.5351  -30.2976   23.7655 H   0  0  0  0  0  0
  -15.8669  -28.0808   22.7073 H   0  0  0  0  0  0
  -24.5885  -30.7092   25.7796 H   0  0  0  0  0  0
  -24.8917  -32.2901   26.4902 H   0  0  0  0  0  0
  -25.8045  -30.8902   27.0237 H   0  0  0  0  0  0
  -26.2891  -29.6786   24.1193 H   0  0  0  0  0  0
  -27.4034  -29.7277   25.4660 H   0  0  0  0  0  0
  -27.8754  -30.4330   23.9380 H   0  0  0  0  0  0
  -27.2669  -33.3613   26.2104 H   0  0  0  0  0  0
  -28.3847  -32.6902   25.0319 H   0  0  0  0  0  0
  -28.0737  -31.8432   26.5393 H   0  0  0  0  0  0
  -28.2605  -38.0091   24.7511 H   0  0  0  0  0  0
  -28.1068  -36.2623   24.6294 H   0  0  0  0  0  0
  -27.2297  -37.1456   25.8867 H   0  0  0  0  0  0
  -20.9329  -29.8750   21.6916 H   0  0  0  0  0  0
  -26.0182  -38.2860   24.1409 H   0  0  0  0  0  0
  -26.9020  -19.1488   19.4152 H   0  0  0  0  0  0
  -28.9430  -18.4569   22.3546 H   0  0  0  0  0  0
  -27.8961  -17.6497   21.2191 H   0  0  0  0  0  0
  -28.4649  -17.5972   18.7696 H   0  0  0  0  0  0
  -29.8646  -18.4527   18.1800 H   0  0  0  0  0  0
  -29.2549  -15.9600   22.3575 H   0  0  0  0  0  0
  -30.7314  -16.8176   22.0199 H   0  0  0  0  0  0
  -31.3791  -16.9260   19.3155 H   0  0  0  0  0  0
  -30.2693  -16.0252   18.3126 H   0  0  0  0  0  0
  -30.5157  -19.0394   20.5059 H   0  0  0  0  0  0
  -30.6026  -20.9567   21.8166 H   0  0  0  0  0  0
  -30.8139  -22.5969   21.2953 H   0  0  0  0  0  0
  -31.4239  -21.2774   20.2903 H   0  0  0  0  0  0
  -31.2330  -23.2057   19.0852 H   0  0  0  0  0  0
  -31.1282  -24.9134   18.8292 H   0  0  0  0  0  0
  -30.2904  -23.8075   17.7461 H   0  0  0  0  0  0
  -27.7427  -25.2850   18.4658 H   0  0  0  0  0  0
  -29.2184  -25.9366   18.5138 H   0  0  0  0  0  0
  -29.5801  -24.2944   20.6847 H   0  0  0  0  0  0
  -26.7630  -24.1791   18.3484 H   0  0  0  0  0  0
  -25.5616  -22.9951   18.2506 H   0  0  0  0  0  0
  1 25  1  0  0  0
  1 30  2  0  0  0
  1 86  1  0  0  0
  2  3  1  0  0  0
  2 25  1  0  0  0
  2 88  1  0  0  0
  2 89  1  0  0  0
  3  4  1  0  0  0
  3 90  1  0  0  0
  3 91  1  0  0  0
  4  5  1  0  0  0
  4 92  1  0  0  0
  4 93  1  0  0  0
  5  6  1  0  0  0
  5 26  1  0  0  0
  5 94  1  0  0  0
  6 25  1  0  0  0
  6 95  1  0  0  0
  6 96  1  0  0  0
  7  8  2  0  0  0
  7 26  1  0  0  0
  7 29  1  0  0  0
  8  9  1  0  0  0
  8 22  1  0  0  0
  9 10  1  0  0  0
  9 27  2  0  0  0
 10 11  2  0  0  0
 10 15  1  0  0  0
 11 12  1  0  0  0
 11 97  1  0  0  0
 12 13  2  0  0  0
 12 98  1  0  0  0
 13 14  1  0  0  0
 13 31  1  0  0  0
 14 15  2  0  0  0
 14 99  1  0  0  0
 15100  1  0  0  0
 16 17  2  0  0  0
 16 21  1  0  0  0
 16 31  1  0  0  0
 17 18  1  0  0  0
 17101  1  0  0  0
 18 19  2  0  0  0
 18102  1  0  0  0
 19 20  1  0  0  0
 19 24  1  0  0  0
 20 21  2  0  0  0
 20103  1  0  0  0
 21 23  1  0  0  0
 22 28  1  0  0  0
 22 32  2  0  0  0
 26 27  1  0  0  0
 28104  1  0  0  0
 28105  1  0  0  0
 29106  1  0  0  0
 29107  1  0  0  0
 33 34  1  0  0  0
 33 66  1  0  0  0
 33 70  2  0  0  0
 34 36  1  0  0  0
 34 59  1  0  0  0
 34108  1  0  0  0
 35 44  2  0  0  0
 35 45  1  0  0  0
 35 68  1  0  0  0
 36 56  1  0  0  0
 36109  1  0  0  0
 37 39  1  0  0  0
 37 47  1  0  0  0
 37 66  1  0  0  0
 37110  1  0  0  0
 38 43  2  0  0  0
 38 46  1  0  0  0
 38 47  1  0  0  0
 39 64  1  0  0  0
 39 67  2  0  0  0
 40 52  1  0  0  0
 40 53  2  0  0  0
 40 58  1  0  0  0
 41111  1  0  0  0
 41112  1  0  0  0
 41113  1  0  0  0
 41 48  1  0  0  0
 42 43  1  0  0  0
 42 66  1  0  0  0
 42114  1  0  0  0
 42115  1  0  0  0
 43 44  1  0  0  0
 44116  1  0  0  0
 45 46  2  0  0  0
 45117  1  0  0  0
 46118  1  0  0  0
 47119  1  0  0  0
 47120  1  0  0  0
 48 56  1  0  0  0
 48 65  1  0  0  0
 48121  1  0  0  0
 49 50  1  0  0  0
 49 53  1  0  0  0
 49 64  1  0  0  0
 49122  1  0  0  0
 50 51  1  0  0  0
 50123  1  0  0  0
 50124  1  0  0  0
 51 52  1  0  0  0
 51125  1  0  0  0
 51126  1  0  0  0
 52127  1  0  0  0
 52128  1  0  0  0
 53 54  1  0  0  0
 54 55  2  0  0  0
 54129  1  0  0  0
 55 57  1  0  0  0
 55130  1  0  0  0
 56 69  2  0  0  0
 57 58  2  0  0  0
 57131  1  0  0  0
 58132  1  0  0  0
 59 60  1  0  0  0
 59 61  1  0  0  0
 59 62  1  0  0  0
 60133  1  0  0  0
 60134  1  0  0  0
 60135  1  0  0  0
 61136  1  0  0  0
 61137  1  0  0  0
 61138  1  0  0  0
 62139  1  0  0  0
 62140  1  0  0  0
 62141  1  0  0  0
 63 65  1  0  0  0
 63142  1  0  0  0
 63143  1  0  0  0
 63144  1  0  0  0
 64145  1  0  0  0
 65146  1  0  0  0
 68 83  1  0  0  0
 71 72  2  0  0  0
 71 85  1  0  0  0
 71147  1  0  0  0
 72 73  1  0  0  0
 72 80  1  0  0  0
 73 74  2  0  0  0
 73 81  1  0  0  0
 74 75  1  0  0  0
 74 84  1  0  0  0
 75 85  2  0  0  0
 75 87  1  0  0  0
 76 78  1  0  0  0
 76 80  1  0  0  0
 76148  1  0  0  0
 76149  1  0  0  0
 77 79  1  0  0  0
 77 80  1  0  0  0
 77150  1  0  0  0
 77151  1  0  0  0
 78 86  1  0  0  0
 78152  1  0  0  0
 78153  1  0  0  0
 79 86  1  0  0  0
 79154  1  0  0  0
 79155  1  0  0  0
 80156  1  0  0  0
 81157  1  0  0  0
 81158  1  0  0  0
 81159  1  0  0  0
 82160  1  0  0  0
 82161  1  0  0  0
 82162  1  0  0  0
 82 84  1  0  0  0
 83 84  1  0  0  0
 83163  1  0  0  0
 83164  1  0  0  0
 84165  1  0  0  0
 87166  1  0  0  0
 87167  1  0  0  0
M  ISO  4   1 100  68 101  83 101  86 100
M  END
> <chiral flag>
0

> <version>
0

> <s_m_source_file>
/data/baiqing/PycharmProjects/Reinvent-master-3.2/result/LINK_invent/BTK/process_docking_weight1_custom_sum_contain_oxygen_bond_distance_aromatic_linkinvent_7_9_3/rearranged_h_0162.sdf

> <i_m_source_file_index>
45

> <r_mmod_Potential_Energy-OPLS-2005>
99.0809478759766

> <r_mmod_Stretch_Energy-OPLS-2005>
82.277946472168

> <r_mmod_Bend_Energy-OPLS-2005>
184.532958984375

> <r_mmod_Torsional_Energy-OPLS-2005>
346.68701171875

> <r_mmod_Improper_Torsional_Energy-OPLS-2005>
21.749719619751

> <r_mmod_Van_der_Waal_Energy-OPLS-2005>
172.048965454102

> <r_mmod_Electrostatic_Energy-OPLS-2005>
-534.771301269531

> <r_mmod_Solvation_Energy-OPLS-2005>
-213.783203125

> <b_mmod_Minimization_Converged-OPLS-2005>
0

> <r_mmod_RMS_Derivative-OPLS-2005>
1.560999751091

$$$$
45
                    3D
 Structure written by MMmdl.
173182  0  0  1  0            999 V2000
  -30.6661  -14.6076   20.5022 C   0  0  0  0  0  0
  -30.4200  -12.3777   19.4501 C   0  0  0  0  0  0
  -29.4988  -12.5012   18.2182 C   0  0  0  0  0  0
  -28.0213  -12.3511   18.6303 C   0  0  0  0  0  0
  -27.6484  -13.2218   19.8607 C   0  0  2  0  0  0
  -28.6921  -13.0846   20.9904 C   0  0  0  0  0  0
  -25.2562  -13.8191   20.5718 C   0  0  0  0  0  0
  -24.1818  -13.0456   20.9197 C   0  0  0  0  0  0
  -24.6386  -11.6926   20.8740 C   0  0  0  0  0  0
  -23.9065  -10.4301   21.0410 C   0  0  0  0  0  0
  -24.3625   -9.4213   21.9181 C   0  0  0  0  0  0
  -23.6298   -8.2248   22.0755 C   0  0  0  0  0  0
  -22.4279   -8.0288   21.3552 C   0  0  0  0  0  0
  -21.9919   -9.0262   20.4653 C   0  0  0  0  0  0
  -22.7248  -10.2140   20.3055 C   0  0  0  0  0  0
  -21.6859   -6.0742   22.5287 C   0  0  0  0  0  0
  -21.4014   -6.5637   23.8220 C   0  0  0  0  0  0
  -21.3660   -5.6788   24.9180 C   0  0  0  0  0  0
  -21.6040   -4.3051   24.7228 C   0  0  0  0  0  0
  -21.8818   -3.8149   23.4351 C   0  0  0  0  0  0
  -21.9191   -4.6964   22.3406 C   0  0  0  0  0  0
  -22.7854  -13.5273   21.1855 C   0  0  0  0  0  0
  -22.1671   -4.2153   21.0983 F   0  0  0  0  0  0
  -21.5626   -3.4527   25.7739 F   0  0  0  0  0  0
  -30.0014  -13.4140   20.4159 N   0  0  0  0  0  0
  -26.2966  -12.9374   20.3313 N   0  0  0  0  0  0
  -25.9306  -11.6518   20.5731 N   0  0  0  0  0  0
  -22.0483  -12.8268   22.0405 N   0  0  0  0  0  0
  -25.4315  -15.1894   20.4216 N   0  0  0  0  0  0
  -31.8454  -14.6889   20.1402 O   0  0  0  0  0  0
  -21.6641   -6.8887   21.4250 O   0  0  0  0  0  0
  -22.3538  -14.5575   20.6697 O   0  0  0  0  0  0
  -24.6221  -31.8608   23.2024 C   0  0  0  0  0  0
  -25.9091  -32.4780   23.8337 C   0  0  1  0  0  0
  -27.2255  -27.3558   20.1254 C   0  0  0  0  0  0
  -25.5913  -33.8579   24.2269 N   0  0  0  0  0  0
  -23.4124  -30.4839   21.5429 C   0  0  2  0  0  0
  -24.8619  -28.9367   20.1122 C   0  0  0  0  0  0
  -22.7433  -29.4633   22.4941 C   0  0  0  0  0  0
  -18.0271  -28.1368   22.8495 C   0  0  0  0  0  0
  -24.1492  -36.7302   23.2636 C   0  0  0  0  0  0
  -25.9474  -30.8063   21.3634 C   0  0  0  0  0  0
  -26.0263  -29.4338   20.7124 C   0  0  0  0  0  0
  -27.2160  -28.6550   20.7052 C   0  0  0  0  0  0
  -26.0446  -26.8906   19.5129 C   0  0  0  0  0  0
  -24.8707  -27.6698   19.5031 C   0  0  0  0  0  0
  -23.6270  -29.8130   20.1585 C   0  0  0  0  0  0
  -25.4109  -36.3080   24.0325 C   0  0  1  0  0  0
  -20.5862  -28.3679   23.1293 C   0  0  2  0  0  0
  -20.6766  -26.9404   22.5403 C   0  0  0  0  0  0
  -19.5731  -26.6352   21.5223 C   0  0  0  0  0  0
  -18.1914  -26.7907   22.1642 C   0  0  0  0  0  0
  -19.1519  -28.8840   23.2891 C   0  0  0  0  0  0
  -18.9437  -30.1442   23.8903 C   0  0  0  0  0  0
  -17.6438  -30.6576   24.0555 C   0  0  0  0  0  0
  -25.9034  -34.9449   23.5094 C   0  0  0  0  0  0
  -16.5332  -29.9078   23.6306 C   0  0  0  0  0  0
  -16.7261  -28.6490   23.0339 C   0  0  0  0  0  0
  -26.4488  -31.6582   25.0692 C   0  0  0  0  0  0
  -25.3734  -31.3713   26.1423 C   0  0  0  0  0  0
  -27.0314  -30.3011   24.6108 C   0  0  0  0  0  0
  -27.6055  -32.4307   25.7467 C   0  0  0  0  0  0
  -27.5576  -37.1807   24.8460 C   0  0  0  0  0  0
  -21.4150  -29.3059   22.3711 N   0  0  0  0  0  0
  -26.4289  -37.3770   23.9401 N   0  0  0  0  0  0
  -24.6792  -31.0653   22.0952 N   0  0  0  0  0  0
  -23.4181  -28.8156   23.2985 O   0  0  0  0  0  0
  -28.3574  -26.5487   20.1268 O   0  0  0  0  0  0
  -26.5609  -34.8920   22.4662 O   0  0  0  0  0  0
  -23.5404  -32.1385   23.7397 O   0  0  0  0  0  0
  -26.2482  -18.6536   20.1674 C   0  0  0  0  0  0
  -26.7513  -18.9823   22.5087 C   0  0  0  0  0  0
  -27.2220  -18.7678   21.1908 C   0  0  0  0  0  0
  -24.8669  -18.6288   20.4594 C   0  0  0  0  0  0
  -24.4225  -18.7614   21.7972 C   0  0  0  0  0  0
  -25.3789  -18.9722   22.8169 C   0  0  0  0  0  0
  -28.7061  -21.3971   20.1167 C   0  0  0  0  0  0
  -29.0941  -17.9721   19.5542 C   0  0  0  0  0  0
  -29.4699  -17.8389   21.9916 C   0  0  0  0  0  0
  -30.2007  -16.8643   19.6033 C   0  0  0  0  0  0
  -29.3273  -16.2855   21.8155 C   0  0  0  0  0  0
  -28.7478  -18.7228   20.9020 C   0  0  0  0  0  0
  -23.8796  -18.4489   19.3179 C   0  0  0  0  0  0
  -22.9359  -18.7050   22.1307 C   0  0  0  0  0  0
  -29.2984  -20.2258   20.9881 C   0  0  0  0  0  0
  -28.4367  -23.9447   19.8535 C   0  0  0  0  0  0
  -28.2472  -25.2277   20.7552 C   0  0  0  0  0  0
  -29.9099  -15.7609   20.5574 N   0  0  0  0  0  0
  -28.7611  -22.6778   20.5887 N   0  0  0  0  0  0
  -28.2513  -21.1604   18.9973 O   0  0  0  0  0  0
  -24.9078  -19.2274   24.4611 Cl  0  0  0  0  0  0
  -31.4626  -12.4782   19.1446 H   0  0  0  0  0  0
  -30.3371  -11.3861   19.8974 H   0  0  0  0  0  0
  -29.7581  -11.7453   17.4756 H   0  0  0  0  0  0
  -29.6504  -13.4683   17.7366 H   0  0  0  0  0  0
  -27.8497  -11.2977   18.8556 H   0  0  0  0  0  0
  -27.3693  -12.5903   17.7894 H   0  0  0  0  0  0
  -27.6659  -14.2573   19.5185 H   0  0  0  0  0  0
  -28.7027  -12.0688   21.3878 H   0  0  0  0  0  0
  -28.4430  -13.7270   21.8339 H   0  0  0  0  0  0
  -25.2775   -9.5688   22.4747 H   0  0  0  0  0  0
  -24.0002   -7.4642   22.7483 H   0  0  0  0  0  0
  -21.0844   -8.8782   19.8977 H   0  0  0  0  0  0
  -22.3708  -10.9670   19.6157 H   0  0  0  0  0  0
  -21.2010   -7.6144   23.9727 H   0  0  0  0  0  0
  -21.1489   -6.0519   25.9083 H   0  0  0  0  0  0
  -22.0597   -2.7611   23.2844 H   0  0  0  0  0  0
  -22.4076  -11.9928   22.4803 H   0  0  0  0  0  0
  -21.1098  -13.1309   22.2569 H   0  0  0  0  0  0
  -24.6864  -15.8562   20.5848 H   0  0  0  0  0  0
  -26.3030  -15.6361   20.1678 H   0  0  0  0  0  0
  -26.7165  -32.5466   23.1097 H   0  0  0  0  0  0
  -25.0094  -33.9715   25.0435 H   0  0  0  0  0  0
  -22.7045  -31.3032   21.3993 H   0  0  0  0  0  0
  -23.3741  -35.9651   23.3297 H   0  0  0  0  0  0
  -24.3596  -36.8917   22.2052 H   0  0  0  0  0  0
  -23.7262  -37.6512   23.6656 H   0  0  0  0  0  0
  -26.0651  -31.5688   20.5922 H   0  0  0  0  0  0
  -26.8330  -30.8632   21.9849 H   0  0  0  0  0  0
  -28.1160  -29.0347   21.1699 H   0  0  0  0  0  0
  -26.0319  -25.9175   19.0431 H   0  0  0  0  0  0
  -23.9787  -27.2853   19.0283 H   0  0  0  0  0  0
  -23.7452  -30.5842   19.3960 H   0  0  0  0  0  0
  -22.7488  -29.2381   19.8589 H   0  0  0  0  0  0
  -25.1300  -36.1930   25.0822 H   0  0  0  0  0  0
  -20.9956  -28.3232   24.1409 H   0  0  0  0  0  0
  -20.5674  -26.2275   23.3590 H   0  0  0  0  0  0
  -21.6632  -26.7434   22.1187 H   0  0  0  0  0  0
  -19.6883  -25.6248   21.1277 H   0  0  0  0  0  0
  -19.6672  -27.3154   20.6748 H   0  0  0  0  0  0
  -17.4185  -26.6656   21.4049 H   0  0  0  0  0  0
  -18.0308  -26.0057   22.9042 H   0  0  0  0  0  0
  -19.7904  -30.7265   24.2287 H   0  0  0  0  0  0
  -17.4985  -31.6263   24.5136 H   0  0  0  0  0  0
  -15.5325  -30.2989   23.7597 H   0  0  0  0  0  0
  -15.8677  -28.0792   22.7036 H   0  0  0  0  0  0
  -24.5920  -30.7048   25.7747 H   0  0  0  0  0  0
  -24.8912  -32.2877   26.4842 H   0  0  0  0  0  0
  -25.8074  -30.8897   27.0194 H   0  0  0  0  0  0
  -26.2862  -29.6775   24.1152 H   0  0  0  0  0  0
  -27.4045  -29.7257   25.4590 H   0  0  0  0  0  0
  -27.8722  -30.4297   23.9287 H   0  0  0  0  0  0
  -27.2671  -33.3605   26.2055 H   0  0  0  0  0  0
  -28.3869  -32.6867   25.0297 H   0  0  0  0  0  0
  -28.0715  -31.8415   26.5374 H   0  0  0  0  0  0
  -28.2594  -38.0104   24.7499 H   0  0  0  0  0  0
  -28.1072  -36.2633   24.6297 H   0  0  0  0  0  0
  -27.2296  -37.1474   25.8865 H   0  0  0  0  0  0
  -20.9327  -29.8829   21.6959 H   0  0  0  0  0  0
  -26.0169  -38.2846   24.1404 H   0  0  0  0  0  0
  -26.5438  -18.5821   19.1313 H   0  0  0  0  0  0
  -27.4358  -19.1663   23.3209 H   0  0  0  0  0  0
  -28.2365  -17.4127   19.1902 H   0  0  0  0  0  0
  -29.3202  -18.6928   18.7690 H   0  0  0  0  0  0
  -30.5362  -18.0707   21.9744 H   0  0  0  0  0  0
  -29.1851  -18.1075   23.0054 H   0  0  0  0  0  0
  -31.1684  -17.3105   19.8400 H   0  0  0  0  0  0
  -30.3098  -16.4395   18.6033 H   0  0  0  0  0  0
  -28.2699  -16.0196   21.8494 H   0  0  0  0  0  0
  -29.7956  -15.7892   22.6670 H   0  0  0  0  0  0
  -24.3666  -18.5479   18.3476 H   0  0  0  0  0  0
  -23.0884  -19.1975   19.3663 H   0  0  0  0  0  0
  -23.4240  -17.4588   19.3609 H   0  0  0  0  0  0
  -22.4080  -17.9954   21.4936 H   0  0  0  0  0  0
  -22.4831  -19.6883   22.0021 H   0  0  0  0  0  0
  -22.7571  -18.3812   23.1550 H   0  0  0  0  0  0
  -29.2191  -20.5502   22.0268 H   0  0  0  0  0  0
  -30.3684  -20.2068   20.7800 H   0  0  0  0  0  0
  -29.2508  -24.1299   19.1522 H   0  0  0  0  0  0
  -27.5438  -23.7990   19.2443 H   0  0  0  0  0  0
  -29.0232  -25.2116   21.5218 H   0  0  0  0  0  0
  -27.3075  -25.1416   21.3036 H   0  0  0  0  0  0
  -29.1396  -22.7972   21.5195 H   0  0  0  0  0  0
  1 25  1  0  0  0
  1 30  2  0  0  0
  1 88  1  0  0  0
  2  3  1  0  0  0
  2 25  1  0  0  0
  2 92  1  0  0  0
  2 93  1  0  0  0
  3  4  1  0  0  0
  3 94  1  0  0  0
  3 95  1  0  0  0
  4  5  1  0  0  0
  4 96  1  0  0  0
  4 97  1  0  0  0
  5  6  1  0  0  0
  5 26  1  0  0  0
  5 98  1  0  0  0
  6 25  1  0  0  0
  6 99  1  0  0  0
  6100  1  0  0  0
  7  8  2  0  0  0
  7 26  1  0  0  0
  7 29  1  0  0  0
  8  9  1  0  0  0
  8 22  1  0  0  0
  9 10  1  0  0  0
  9 27  2  0  0  0
 10 11  2  0  0  0
 10 15  1  0  0  0
 11 12  1  0  0  0
 11101  1  0  0  0
 12 13  2  0  0  0
 12102  1  0  0  0
 13 14  1  0  0  0
 13 31  1  0  0  0
 14 15  2  0  0  0
 14103  1  0  0  0
 15104  1  0  0  0
 16 17  2  0  0  0
 16 21  1  0  0  0
 16 31  1  0  0  0
 17 18  1  0  0  0
 17105  1  0  0  0
 18 19  2  0  0  0
 18106  1  0  0  0
 19 20  1  0  0  0
 19 24  1  0  0  0
 20 21  2  0  0  0
 20107  1  0  0  0
 21 23  1  0  0  0
 22 28  1  0  0  0
 22 32  2  0  0  0
 26 27  1  0  0  0
 28108  1  0  0  0
 28109  1  0  0  0
 29110  1  0  0  0
 29111  1  0  0  0
 33 34  1  0  0  0
 33 66  1  0  0  0
 33 70  2  0  0  0
 34 36  1  0  0  0
 34 59  1  0  0  0
 34112  1  0  0  0
 35 44  2  0  0  0
 35 45  1  0  0  0
 35 68  1  0  0  0
 36 56  1  0  0  0
 36113  1  0  0  0
 37 39  1  0  0  0
 37 47  1  0  0  0
 37 66  1  0  0  0
 37114  1  0  0  0
 38 43  2  0  0  0
 38 46  1  0  0  0
 38 47  1  0  0  0
 39 64  1  0  0  0
 39 67  2  0  0  0
 40 52  1  0  0  0
 40 53  2  0  0  0
 40 58  1  0  0  0
 41115  1  0  0  0
 41116  1  0  0  0
 41117  1  0  0  0
 41 48  1  0  0  0
 42 43  1  0  0  0
 42 66  1  0  0  0
 42118  1  0  0  0
 42119  1  0  0  0
 43 44  1  0  0  0
 44120  1  0  0  0
 45 46  2  0  0  0
 45121  1  0  0  0
 46122  1  0  0  0
 47123  1  0  0  0
 47124  1  0  0  0
 48 56  1  0  0  0
 48 65  1  0  0  0
 48125  1  0  0  0
 49 50  1  0  0  0
 49 53  1  0  0  0
 49 64  1  0  0  0
 49126  1  0  0  0
 50 51  1  0  0  0
 50127  1  0  0  0
 50128  1  0  0  0
 51 52  1  0  0  0
 51129  1  0  0  0
 51130  1  0  0  0
 52131  1  0  0  0
 52132  1  0  0  0
 53 54  1  0  0  0
 54 55  2  0  0  0
 54133  1  0  0  0
 55 57  1  0  0  0
 55134  1  0  0  0
 56 69  2  0  0  0
 57 58  2  0  0  0
 57135  1  0  0  0
 58136  1  0  0  0
 59 60  1  0  0  0
 59 61  1  0  0  0
 59 62  1  0  0  0
 60137  1  0  0  0
 60138  1  0  0  0
 60139  1  0  0  0
 61140  1  0  0  0
 61141  1  0  0  0
 61142  1  0  0  0
 62143  1  0  0  0
 62144  1  0  0  0
 62145  1  0  0  0
 63 65  1  0  0  0
 63146  1  0  0  0
 63147  1  0  0  0
 63148  1  0  0  0
 64149  1  0  0  0
 65150  1  0  0  0
 68 87  1  0  0  0
 71 73  2  0  0  0
 71 74  1  0  0  0
 71151  1  0  0  0
 72 73  1  0  0  0
 72 76  2  0  0  0
 72152  1  0  0  0
 73 82  1  0  0  0
 74 75  2  0  0  0
 74 83  1  0  0  0
 75 76  1  0  0  0
 75 84  1  0  0  0
 76 91  1  0  0  0
 77 85  1  0  0  0
 77 89  1  0  0  0
 77 90  2  0  0  0
 78 80  1  0  0  0
 78 82  1  0  0  0
 78153  1  0  0  0
 78154  1  0  0  0
 79 81  1  0  0  0
 79 82  1  0  0  0
 79155  1  0  0  0
 79156  1  0  0  0
 80 88  1  0  0  0
 80157  1  0  0  0
 80158  1  0  0  0
 81 88  1  0  0  0
 81159  1  0  0  0
 81160  1  0  0  0
 82 85  1  0  0  0
 83161  1  0  0  0
 83162  1  0  0  0
 83163  1  0  0  0
 84164  1  0  0  0
 84165  1  0  0  0
 84166  1  0  0  0
 85167  1  0  0  0
 85168  1  0  0  0
 86 87  1  0  0  0
 86 89  1  0  0  0
 86169  1  0  0  0
 86170  1  0  0  0
 87171  1  0  0  0
 87172  1  0  0  0
 89173  1  0  0  0
M  ISO  4   1 100  68 101  87 101  88 100
M  END
> <chiral flag>
0

> <version>
0

> <s_m_source_file>
/data/baiqing/PycharmProjects/Reinvent-master-3.2/result/LINK_invent/BTK/process_docking_weight1_custom_sum_contain_oxygen_bond_distance_aromatic_linkinvent_7_9_3/rearranged_h_0162.sdf

> <i_m_source_file_index>
46

> <r_mmod_Potential_Energy-OPLS-2005>
208.826232910156

> <r_mmod_Stretch_Energy-OPLS-2005>
78.6615371704102

> <r_mmod_Bend_Energy-OPLS-2005>
145.678771972656

> <r_mmod_Torsional_Energy-OPLS-2005>
348.985992431641

> <r_mmod_Improper_Torsional_Energy-OPLS-2005>
15.6154956817627

> <r_mmod_Van_der_Waal_Energy-OPLS-2005>
151.448089599609

> <r_mmod_Electrostatic_Energy-OPLS-2005>
-357.251007080078

> <r_mmod_Solvation_Energy-OPLS-2005>
-210.818862915039

> <b_mmod_Minimization_Converged-OPLS-2005>
0

> <r_mmod_RMS_Derivative-OPLS-2005>
1.61326420307159

$$$$
46
                    3D
 Structure written by MMmdl.
177186  0  0  1  0            999 V2000
  -30.6909  -14.3829   20.7004 C   0  0  0  0  0  0
  -30.4427  -12.2902   19.3981 C   0  0  0  0  0  0
  -29.5029  -12.5009   18.1931 C   0  0  0  0  0  0
  -28.0165  -12.3940   18.5962 C   0  0  0  0  0  0
  -27.6737  -13.1885   19.8861 C   0  0  2  0  0  0
  -28.7026  -12.8682   20.9882 C   0  0  0  0  0  0
  -25.2650  -13.8104   20.5611 C   0  0  0  0  0  0
  -24.1859  -13.0422   20.9122 C   0  0  0  0  0  0
  -24.6380  -11.6879   20.8694 C   0  0  0  0  0  0
  -23.9017  -10.4292   21.0404 C   0  0  0  0  0  0
  -24.3569   -9.4215   21.9182 C   0  0  0  0  0  0
  -23.6258   -8.2241   22.0743 C   0  0  0  0  0  0
  -22.4254   -8.0269   21.3519 C   0  0  0  0  0  0
  -21.9876   -9.0245   20.4629 C   0  0  0  0  0  0
  -22.7183  -10.2132   20.3053 C   0  0  0  0  0  0
  -21.6863   -6.0690   22.5263 C   0  0  0  0  0  0
  -21.4020   -6.5595   23.8188 C   0  0  0  0  0  0
  -21.3674   -5.6756   24.9152 C   0  0  0  0  0  0
  -21.6074   -4.3027   24.7225 C   0  0  0  0  0  0
  -21.8825   -3.8097   23.4334 C   0  0  0  0  0  0
  -21.9188   -4.6904   22.3379 C   0  0  0  0  0  0
  -22.7890  -13.5278   21.1773 C   0  0  0  0  0  0
  -22.1655   -4.2074   21.0971 F   0  0  0  0  0  0
  -21.5641   -3.4536   25.7743 F   0  0  0  0  0  0
  -30.0407  -13.2119   20.4683 N   0  0  0  0  0  0
  -26.3088  -12.9233   20.3374 N   0  0  0  0  0  0
  -25.9312  -11.6404   20.5724 N   0  0  0  0  0  0
  -22.0498  -12.8338   22.0354 N   0  0  0  0  0  0
  -25.4408  -15.1811   20.3930 N   0  0  0  0  0  0
  -31.7512  -14.6957   20.1492 O   0  0  0  0  0  0
  -21.6647   -6.8836   21.4213 O   0  0  0  0  0  0
  -22.3581  -14.5568   20.6583 O   0  0  0  0  0  0
  -24.6117  -31.8708   23.2145 C   0  0  0  0  0  0
  -25.9020  -32.4849   23.8434 C   0  0  1  0  0  0
  -27.2463  -27.4885   20.0846 C   0  0  0  0  0  0
  -25.5930  -33.8656   24.2382 N   0  0  0  0  0  0
  -23.4003  -30.4975   21.5531 C   0  0  2  0  0  0
  -24.8478  -28.9714   20.1148 C   0  0  0  0  0  0
  -22.7423  -29.4674   22.4985 C   0  0  0  0  0  0
  -18.0282  -28.1357   22.8488 C   0  0  0  0  0  0
  -24.1481  -36.7355   23.2624 C   0  0  0  0  0  0
  -25.9231  -30.8593   21.3535 C   0  0  0  0  0  0
  -26.0065  -29.4961   20.7027 C   0  0  0  0  0  0
  -27.2089  -28.7654   20.6789 C   0  0  0  0  0  0
  -26.0742  -26.9649   19.4925 C   0  0  0  0  0  0
  -24.8735  -27.7022   19.5103 C   0  0  0  0  0  0
  -23.6097  -29.8346   20.1637 C   0  0  0  0  0  0
  -25.4095  -36.3144   24.0328 C   0  0  1  0  0  0
  -20.5886  -28.3646   23.1341 C   0  0  2  0  0  0
  -20.6789  -26.9394   22.5427 C   0  0  0  0  0  0
  -19.5754  -26.6378   21.5225 C   0  0  0  0  0  0
  -18.1925  -26.7915   22.1624 C   0  0  0  0  0  0
  -19.1530  -28.8819   23.2905 C   0  0  0  0  0  0
  -18.9463  -30.1432   23.8892 C   0  0  0  0  0  0
  -17.6465  -30.6551   24.0569 C   0  0  0  0  0  0
  -25.9021  -34.9496   23.5150 C   0  0  0  0  0  0
  -16.5353  -29.9074   23.6297 C   0  0  0  0  0  0
  -16.7285  -28.6507   23.0303 C   0  0  0  0  0  0
  -26.4461  -31.6596   25.0733 C   0  0  0  0  0  0
  -25.3767  -31.3702   26.1522 C   0  0  0  0  0  0
  -27.0277  -30.3042   24.6045 C   0  0  0  0  0  0
  -27.6050  -32.4289   25.7522 C   0  0  0  0  0  0
  -27.5584  -37.1843   24.8453 C   0  0  0  0  0  0
  -21.4158  -29.3031   22.3747 N   0  0  0  0  0  0
  -26.4288  -37.3822   23.9399 N   0  0  0  0  0  0
  -24.6642  -31.0867   22.1021 N   0  0  0  0  0  0
  -23.4231  -28.8165   23.2958 O   0  0  0  0  0  0
  -28.4138  -26.7670   20.0866 O   0  0  0  0  0  0
  -26.5548  -34.8940   22.4675 O   0  0  0  0  0  0
  -23.5316  -32.1439   23.7575 O   0  0  0  0  0  0
  -30.3865  -21.1203   24.2901 C   0  0  0  0  0  0
  -31.0430  -20.0201   24.8731 C   0  0  0  0  0  0
  -30.6377  -18.7005   24.5506 C   0  0  0  0  0  0
  -29.6403  -18.4824   23.5543 C   0  0  0  0  0  0
  -28.9217  -19.6090   23.0479 C   0  0  0  0  0  0
  -29.2917  -20.9265   23.4333 C   0  0  0  0  0  0
  -28.4213  -24.4805   23.0814 C   0  0  0  0  0  0
  -29.0218  -23.1571   20.9428 C   0  0  0  0  0  0
  -28.6849  -25.7797   22.3011 C   0  0  0  0  0  0
  -29.2803  -24.4989   20.2461 C   0  0  0  0  0  0
  -29.1271  -23.2327   22.4837 C   0  0  2  0  0  0
  -28.3322  -25.5525   20.8256 C   0  0  1  0  0  0
  -32.1667  -20.2870   25.8609 C   0  0  0  0  0  0
  -31.2368  -17.5190   25.3104 C   0  0  0  0  0  0
  -27.7199  -19.4484   22.1164 C   0  0  0  0  0  0
  -29.9910  -17.4551   20.5749 C   0  0  0  0  0  0
  -29.3720  -17.0444   23.0505 C   0  0  0  0  0  0
  -30.2566  -16.6114   21.8395 C   0  0  1  0  0  0
  -28.5164  -22.0236   23.0308 N   0  0  0  0  0  0
  -30.0251  -15.1979   21.5361 N   0  0  0  0  0  0
  -31.4795  -12.4420   19.0924 H   0  0  0  0  0  0
  -30.3846  -11.2616   19.7580 H   0  0  0  0  0  0
  -29.7304  -11.7664   17.4193 H   0  0  0  0  0  0
  -29.6896  -13.4783   17.7484 H   0  0  0  0  0  0
  -27.8049  -11.3370   18.7528 H   0  0  0  0  0  0
  -27.3792  -12.7147   17.7699 H   0  0  0  0  0  0
  -27.7520  -14.2518   19.6628 H   0  0  0  0  0  0
  -28.6727  -11.8031   21.2361 H   0  0  0  0  0  0
  -28.4376  -13.3643   21.9193 H   0  0  0  0  0  0
  -25.2723   -9.5718   22.4725 H   0  0  0  0  0  0
  -23.9957   -7.4677   22.7512 H   0  0  0  0  0  0
  -21.0784   -8.8784   19.8974 H   0  0  0  0  0  0
  -22.3653  -10.9650   19.6144 H   0  0  0  0  0  0
  -21.2018   -7.6105   23.9666 H   0  0  0  0  0  0
  -21.1499   -6.0491   25.9052 H   0  0  0  0  0  0
  -22.0589   -2.7555   23.2875 H   0  0  0  0  0  0
  -22.4080  -12.0046   22.4822 H   0  0  0  0  0  0
  -21.1094  -13.1384   22.2450 H   0  0  0  0  0  0
  -24.6847  -15.8481   20.5047 H   0  0  0  0  0  0
  -26.2924  -15.6061   20.0524 H   0  0  0  0  0  0
  -26.7139  -32.5576   23.1253 H   0  0  0  0  0  0
  -25.0217  -33.9831   25.0629 H   0  0  0  0  0  0
  -22.6865  -31.3132   21.4191 H   0  0  0  0  0  0
  -23.3730  -35.9704   23.3288 H   0  0  0  0  0  0
  -24.3591  -36.8936   22.2041 H   0  0  0  0  0  0
  -23.7242  -37.6565   23.6635 H   0  0  0  0  0  0
  -26.0226  -31.6261   20.5821 H   0  0  0  0  0  0
  -26.8196  -30.9268   21.9609 H   0  0  0  0  0  0
  -28.1075  -29.1726   21.1232 H   0  0  0  0  0  0
  -26.0850  -25.9901   19.0266 H   0  0  0  0  0  0
  -23.9803  -27.2963   19.0585 H   0  0  0  0  0  0
  -23.7268  -30.6183   19.4143 H   0  0  0  0  0  0
  -22.7322  -29.2657   19.8518 H   0  0  0  0  0  0
  -25.1273  -36.2037   25.0822 H   0  0  0  0  0  0
  -20.9994  -28.3197   24.1454 H   0  0  0  0  0  0
  -20.5710  -26.2243   23.3599 H   0  0  0  0  0  0
  -21.6648  -26.7416   22.1187 H   0  0  0  0  0  0
  -19.6890  -25.6305   21.1206 H   0  0  0  0  0  0
  -19.6671  -27.3217   20.6778 H   0  0  0  0  0  0
  -17.4211  -26.6682   21.4004 H   0  0  0  0  0  0
  -18.0277  -26.0046   22.9009 H   0  0  0  0  0  0
  -19.7938  -30.7257   24.2231 H   0  0  0  0  0  0
  -17.5011  -31.6219   24.5207 H   0  0  0  0  0  0
  -15.5348  -30.2967   23.7612 H   0  0  0  0  0  0
  -15.8697  -28.0839   22.6960 H   0  0  0  0  0  0
  -24.5956  -30.7001   25.7926 H   0  0  0  0  0  0
  -24.8951  -32.2863   26.4956 H   0  0  0  0  0  0
  -25.8171  -30.8944   27.0294 H   0  0  0  0  0  0
  -26.2815  -29.6848   24.1066 H   0  0  0  0  0  0
  -27.4045  -29.7219   25.4462 H   0  0  0  0  0  0
  -27.8648  -30.4364   23.9184 H   0  0  0  0  0  0
  -27.2661  -33.3576   26.2120 H   0  0  0  0  0  0
  -28.3885  -32.6826   25.0378 H   0  0  0  0  0  0
  -28.0694  -31.8397   26.5435 H   0  0  0  0  0  0
  -28.2614  -38.0138   24.7500 H   0  0  0  0  0  0
  -28.1078  -36.2675   24.6285 H   0  0  0  0  0  0
  -27.2317  -37.1483   25.8860 H   0  0  0  0  0  0
  -20.9323  -29.8833   21.7053 H   0  0  0  0  0  0
  -26.0191  -38.2898   24.1414 H   0  0  0  0  0  0
  -30.6759  -22.1229   24.5746 H   0  0  0  0  0  0
  -27.3404  -24.3347   23.0974 H   0  0  0  0  0  0
  -28.7168  -24.6132   24.1240 H   0  0  0  0  0  0
  -29.7228  -22.4133   20.5648 H   0  0  0  0  0  0
  -28.0248  -22.8158   20.6491 H   0  0  0  0  0  0
  -29.7259  -26.0961   22.4008 H   0  0  0  0  0  0
  -28.0794  -26.5894   22.7118 H   0  0  0  0  0  0
  -29.1224  -24.3888   19.1740 H   0  0  0  0  0  0
  -30.3195  -24.7971   20.3841 H   0  0  0  0  0  0
  -30.1871  -23.2964   22.7450 H   0  0  0  0  0  0
  -27.3218  -25.1444   20.7816 H   0  0  0  0  0  0
  -32.4244  -21.3456   25.9121 H   0  0  0  0  0  0
  -33.0641  -19.7427   25.5610 H   0  0  0  0  0  0
  -31.8796  -19.9719   26.8658 H   0  0  0  0  0  0
  -30.4387  -16.9104   25.7340 H   0  0  0  0  0  0
  -31.8530  -17.7953   26.1635 H   0  0  0  0  0  0
  -31.8439  -16.8982   24.6539 H   0  0  0  0  0  0
  -26.8108  -19.6783   22.6721 H   0  0  0  0  0  0
  -27.5934  -18.4646   21.6793 H   0  0  0  0  0  0
  -27.7894  -20.1335   21.2723 H   0  0  0  0  0  0
  -30.6459  -17.1670   19.7540 H   0  0  0  0  0  0
  -30.1589  -18.5164   20.7569 H   0  0  0  0  0  0
  -28.9702  -17.3263   20.2168 H   0  0  0  0  0  0
  -28.3181  -16.9008   22.8213 H   0  0  0  0  0  0
  -29.5289  -16.3327   23.8603 H   0  0  0  0  0  0
  -31.3089  -16.7139   22.1160 H   0  0  0  0  0  0
  -27.6507  -21.7653   22.5678 H   0  0  0  0  0  0
  -29.1871  -14.7892   21.9201 H   0  0  0  0  0  0
  1 25  1  0  0  0
  1 30  2  0  0  0
  1 90  1  0  0  0
  2  3  1  0  0  0
  2 25  1  0  0  0
  2 91  1  0  0  0
  2 92  1  0  0  0
  3  4  1  0  0  0
  3 93  1  0  0  0
  3 94  1  0  0  0
  4  5  1  0  0  0
  4 95  1  0  0  0
  4 96  1  0  0  0
  5  6  1  0  0  0
  5 26  1  0  0  0
  5 97  1  0  0  0
  6 25  1  0  0  0
  6 98  1  0  0  0
  6 99  1  0  0  0
  7  8  2  0  0  0
  7 26  1  0  0  0
  7 29  1  0  0  0
  8  9  1  0  0  0
  8 22  1  0  0  0
  9 10  1  0  0  0
  9 27  2  0  0  0
 10 11  2  0  0  0
 10 15  1  0  0  0
 11 12  1  0  0  0
 11100  1  0  0  0
 12 13  2  0  0  0
 12101  1  0  0  0
 13 14  1  0  0  0
 13 31  1  0  0  0
 14 15  2  0  0  0
 14102  1  0  0  0
 15103  1  0  0  0
 16 17  2  0  0  0
 16 21  1  0  0  0
 16 31  1  0  0  0
 17 18  1  0  0  0
 17104  1  0  0  0
 18 19  2  0  0  0
 18105  1  0  0  0
 19 20  1  0  0  0
 19 24  1  0  0  0
 20 21  2  0  0  0
 20106  1  0  0  0
 21 23  1  0  0  0
 22 28  1  0  0  0
 22 32  2  0  0  0
 26 27  1  0  0  0
 28107  1  0  0  0
 28108  1  0  0  0
 29109  1  0  0  0
 29110  1  0  0  0
 33 34  1  0  0  0
 33 66  1  0  0  0
 33 70  2  0  0  0
 34 36  1  0  0  0
 34 59  1  0  0  0
 34111  1  0  0  0
 35 44  2  0  0  0
 35 45  1  0  0  0
 35 68  1  0  0  0
 36 56  1  0  0  0
 36112  1  0  0  0
 37 39  1  0  0  0
 37 47  1  0  0  0
 37 66  1  0  0  0
 37113  1  0  0  0
 38 43  2  0  0  0
 38 46  1  0  0  0
 38 47  1  0  0  0
 39 64  1  0  0  0
 39 67  2  0  0  0
 40 52  1  0  0  0
 40 53  2  0  0  0
 40 58  1  0  0  0
 41114  1  0  0  0
 41115  1  0  0  0
 41116  1  0  0  0
 41 48  1  0  0  0
 42 43  1  0  0  0
 42 66  1  0  0  0
 42117  1  0  0  0
 42118  1  0  0  0
 43 44  1  0  0  0
 44119  1  0  0  0
 45 46  2  0  0  0
 45120  1  0  0  0
 46121  1  0  0  0
 47122  1  0  0  0
 47123  1  0  0  0
 48 56  1  0  0  0
 48 65  1  0  0  0
 48124  1  0  0  0
 49 50  1  0  0  0
 49 53  1  0  0  0
 49 64  1  0  0  0
 49125  1  0  0  0
 50 51  1  0  0  0
 50126  1  0  0  0
 50127  1  0  0  0
 51 52  1  0  0  0
 51128  1  0  0  0
 51129  1  0  0  0
 52130  1  0  0  0
 52131  1  0  0  0
 53 54  1  0  0  0
 54 55  2  0  0  0
 54132  1  0  0  0
 55 57  1  0  0  0
 55133  1  0  0  0
 56 69  2  0  0  0
 57 58  2  0  0  0
 57134  1  0  0  0
 58135  1  0  0  0
 59 60  1  0  0  0
 59 61  1  0  0  0
 59 62  1  0  0  0
 60136  1  0  0  0
 60137  1  0  0  0
 60138  1  0  0  0
 61139  1  0  0  0
 61140  1  0  0  0
 61141  1  0  0  0
 62142  1  0  0  0
 62143  1  0  0  0
 62144  1  0  0  0
 63 65  1  0  0  0
 63145  1  0  0  0
 63146  1  0  0  0
 63147  1  0  0  0
 64148  1  0  0  0
 65149  1  0  0  0
 68 82  1  0  0  0
 71 72  2  0  0  0
 71 76  1  0  0  0
 71150  1  0  0  0
 72 73  1  0  0  0
 72 83  1  0  0  0
 73 74  2  0  0  0
 73 84  1  0  0  0
 74 75  1  0  0  0
 74 87  1  0  0  0
 75 76  2  0  0  0
 75 85  1  0  0  0
 76 89  1  0  0  0
 77 79  1  0  0  0
 77 81  1  0  0  0
 77151  1  0  0  0
 77152  1  0  0  0
 78 80  1  0  0  0
 78 81  1  0  0  0
 78153  1  0  0  0
 78154  1  0  0  0
 79 82  1  0  0  0
 79155  1  0  0  0
 79156  1  0  0  0
 80 82  1  0  0  0
 80157  1  0  0  0
 80158  1  0  0  0
 81 89  1  0  0  0
 81159  1  0  0  0
 82160  1  0  0  0
 83161  1  0  0  0
 83162  1  0  0  0
 83163  1  0  0  0
 84164  1  0  0  0
 84165  1  0  0  0
 84166  1  0  0  0
 85167  1  0  0  0
 85168  1  0  0  0
 85169  1  0  0  0
 86170  1  0  0  0
 86171  1  0  0  0
 86172  1  0  0  0
 86 88  1  0  0  0
 87 88  1  0  0  0
 87173  1  0  0  0
 87174  1  0  0  0
 88 90  1  0  0  0
 88175  1  0  0  0
 89176  1  0  0  0
 90177  1  0  0  0
M  ISO  4   1 100  68 101  82 101  90 100
M  END
> <chiral flag>
0

> <version>
0

> <s_m_source_file>
/data/baiqing/PycharmProjects/Reinvent-master-3.2/result/LINK_invent/BTK/process_docking_weight1_custom_sum_contain_oxygen_bond_distance_aromatic_linkinvent_7_9_3/rearranged_h_0162.sdf

> <i_m_source_file_index>
47

> <r_mmod_Potential_Energy-OPLS-2005>
-89.5476150512695

> <r_mmod_Stretch_Energy-OPLS-2005>
40.3630104064941

> <r_mmod_Bend_Energy-OPLS-2005>
109.083831787109

> <r_mmod_Torsional_Energy-OPLS-2005>
247.714126586914

> <r_mmod_Improper_Torsional_Energy-OPLS-2005>
5.93836259841919

> <r_mmod_Van_der_Waal_Energy-OPLS-2005>
170.370666503906

> <r_mmod_Electrostatic_Energy-OPLS-2005>
-465.550872802734

> <r_mmod_Solvation_Energy-OPLS-2005>
-207.238845825195

> <b_mmod_Minimization_Converged-OPLS-2005>
0

> <r_mmod_RMS_Derivative-OPLS-2005>
5.6753191947937

$$$$
47
                    3D
 Structure written by MMmdl.
174184  0  0  1  0            999 V2000
  -30.7177  -14.4276   20.5609 C   0  0  0  0  0  0
  -30.4042  -12.2729   19.4185 C   0  0  0  0  0  0
  -29.4918  -12.4992   18.1981 C   0  0  0  0  0  0
  -28.0105  -12.3697   18.6088 C   0  0  0  0  0  0
  -27.6593  -13.2099   19.8654 C   0  0  2  0  0  0
  -28.6971  -12.9827   20.9878 C   0  0  0  0  0  0
  -25.2577  -13.8171   20.5694 C   0  0  0  0  0  0
  -24.1833  -13.0454   20.9177 C   0  0  0  0  0  0
  -24.6375  -11.6898   20.8704 C   0  0  0  0  0  0
  -23.9045  -10.4279   21.0356 C   0  0  0  0  0  0
  -24.3591   -9.4198   21.9127 C   0  0  0  0  0  0
  -23.6268   -8.2252   22.0730 C   0  0  0  0  0  0
  -22.4249   -8.0270   21.3541 C   0  0  0  0  0  0
  -21.9877   -9.0233   20.4640 C   0  0  0  0  0  0
  -22.7213  -10.2100   20.3020 C   0  0  0  0  0  0
  -21.6853   -6.0717   22.5274 C   0  0  0  0  0  0
  -21.4019   -6.5612   23.8209 C   0  0  0  0  0  0
  -21.3671   -5.6749   24.9160 C   0  0  0  0  0  0
  -21.6061   -4.3018   24.7210 C   0  0  0  0  0  0
  -21.8818   -3.8120   23.4325 C   0  0  0  0  0  0
  -21.9187   -4.6945   22.3383 C   0  0  0  0  0  0
  -22.7839  -13.5232   21.1802 C   0  0  0  0  0  0
  -22.1657   -4.2133   21.0964 F   0  0  0  0  0  0
  -21.5615   -3.4503   25.7725 F   0  0  0  0  0  0
  -30.0315  -13.2633   20.4388 N   0  0  0  0  0  0
  -26.3000  -12.9360   20.3314 N   0  0  0  0  0  0
  -25.9302  -11.6504   20.5719 N   0  0  0  0  0  0
  -22.0487  -12.8266   22.0392 N   0  0  0  0  0  0
  -25.4292  -15.1885   20.4102 N   0  0  0  0  0  0
  -31.8415  -14.5926   20.0784 O   0  0  0  0  0  0
  -21.6625   -6.8869   21.4248 O   0  0  0  0  0  0
  -22.3535  -14.5507   20.6567 O   0  0  0  0  0  0
  -24.6059  -31.8704   23.2127 C   0  0  0  0  0  0
  -25.8986  -32.4820   23.8414 C   0  0  1  0  0  0
  -27.2348  -27.4660   20.1199 C   0  0  0  0  0  0
  -25.5877  -33.8619   24.2358 N   0  0  0  0  0  0
  -23.3951  -30.4895   21.5522 C   0  0  2  0  0  0
  -24.8444  -28.9656   20.1028 C   0  0  0  0  0  0
  -22.7393  -29.4612   22.5017 C   0  0  0  0  0  0
  -18.0243  -28.1354   22.8505 C   0  0  0  0  0  0
  -24.1477  -36.7293   23.2647 C   0  0  0  0  0  0
  -25.9157  -30.8513   21.3583 C   0  0  0  0  0  0
  -25.9951  -29.4896   20.7026 C   0  0  0  0  0  0
  -27.1865  -28.7453   20.7054 C   0  0  0  0  0  0
  -26.0750  -26.9410   19.5074 C   0  0  0  0  0  0
  -24.8809  -27.6956   19.4960 C   0  0  0  0  0  0
  -23.6019  -29.8236   20.1628 C   0  0  0  0  0  0
  -25.4102  -36.3116   24.0355 C   0  0  1  0  0  0
  -20.5845  -28.3620   23.1360 C   0  0  2  0  0  0
  -20.6726  -26.9354   22.5458 C   0  0  0  0  0  0
  -19.5720  -26.6374   21.5230 C   0  0  0  0  0  0
  -18.1895  -26.7908   22.1630 C   0  0  0  0  0  0
  -19.1500  -28.8813   23.2913 C   0  0  0  0  0  0
  -18.9415  -30.1419   23.8926 C   0  0  0  0  0  0
  -17.6423  -30.6568   24.0560 C   0  0  0  0  0  0
  -25.9028  -34.9481   23.5159 C   0  0  0  0  0  0
  -16.5307  -29.9079   23.6313 C   0  0  0  0  0  0
  -16.7240  -28.6487   23.0349 C   0  0  0  0  0  0
  -26.4448  -31.6549   25.0708 C   0  0  0  0  0  0
  -25.3757  -31.3609   26.1485 C   0  0  0  0  0  0
  -27.0265  -30.3010   24.6023 C   0  0  0  0  0  0
  -27.6070  -32.4226   25.7438 C   0  0  0  0  0  0
  -27.5578  -37.1795   24.8471 C   0  0  0  0  0  0
  -21.4130  -29.2969   22.3767 N   0  0  0  0  0  0
  -26.4286  -37.3809   23.9431 N   0  0  0  0  0  0
  -24.6571  -31.0840   22.1003 N   0  0  0  0  0  0
  -23.4182  -28.8151   23.3030 O   0  0  0  0  0  0
  -28.4285  -26.8009   20.2411 O   0  0  0  0  0  0
  -26.5596  -34.8938   22.4718 O   0  0  0  0  0  0
  -23.5275  -32.1418   23.7569 O   0  0  0  0  0  0
  -29.4263  -23.4390   20.2152 C   0  0  0  0  0  0
  -30.1966  -23.4153   19.0113 C   0  0  0  0  0  0
  -29.4568  -25.5398   18.4820 C   0  0  0  0  0  0
  -28.7216  -25.5886   19.6813 C   0  0  0  0  0  0
  -27.3356  -20.7171   21.1439 C   0  0  0  0  0  0
  -30.2632  -17.6514   22.3388 C   0  0  0  0  0  0
  -29.5961  -17.8441   20.3403 C   0  0  0  0  0  0
  -27.7385  -19.6227   22.1316 C   0  0  0  0  0  0
  -30.5250  -16.8448   21.0574 C   0  0  2  0  0  0
  -30.0751  -18.8636   21.4032 C   0  0  1  0  0  0
  -28.8247  -21.0016   20.9045 C   0  0  1  0  0  0
  -29.6232  -26.7688   17.6162 C   0  0  0  0  0  0
  -29.1205  -22.8487   22.7034 C   0  0  0  0  0  0
  -30.8914  -21.6502   17.3100 C   0  0  0  0  0  0
  -29.5147  -22.3370   21.2938 C   0  0  2  0  0  0
  -31.2080  -22.3294   18.6485 C   0  0  1  0  0  0
  -30.1711  -24.4507   18.1336 N   0  0  0  0  0  0
  -28.6547  -24.5224   20.5158 N   0  0  0  0  0  0
  -30.0415  -15.4607   21.0901 N   0  0  0  0  0  0
  -29.1444  -19.9348   21.8729 N   0  3  1  0  0  0
  -32.4145  -22.8930   18.5562 F   0  0  0  0  0  0
  -31.4529  -12.3305   19.1206 H   0  0  0  0  0  0
  -30.2650  -11.2637   19.8087 H   0  0  0  0  0  0
  -29.7299  -11.7755   17.4178 H   0  0  0  0  0  0
  -29.6770  -13.4881   17.7719 H   0  0  0  0  0  0
  -27.8215  -11.3133   18.8065 H   0  0  0  0  0  0
  -27.3604  -12.6478   17.7792 H   0  0  0  0  0  0
  -27.7068  -14.2594   19.5690 H   0  0  0  0  0  0
  -28.6611  -11.9488   21.3336 H   0  0  0  0  0  0
  -28.4662  -13.5953   21.8585 H   0  0  0  0  0  0
  -25.2757   -9.5664   22.4660 H   0  0  0  0  0  0
  -23.9971   -7.4643   22.7435 H   0  0  0  0  0  0
  -21.0810   -8.8740   19.8953 H   0  0  0  0  0  0
  -22.3675  -10.9603   19.6082 H   0  0  0  0  0  0
  -21.2028   -7.6110   23.9729 H   0  0  0  0  0  0
  -21.1495   -6.0459   25.9068 H   0  0  0  0  0  0
  -22.0596   -2.7589   23.2814 H   0  0  0  0  0  0
  -22.4092  -11.9982   22.4898 H   0  0  0  0  0  0
  -21.1089  -13.1281   22.2512 H   0  0  0  0  0  0
  -24.6504  -15.8333   20.5040 H   0  0  0  0  0  0
  -26.2661  -15.6316   20.0544 H   0  0  0  0  0  0
  -26.7049  -32.5608   23.1183 H   0  0  0  0  0  0
  -25.0011  -33.9771   25.0501 H   0  0  0  0  0  0
  -22.6819  -31.3049   21.4176 H   0  0  0  0  0  0
  -23.3763  -35.9599   23.3316 H   0  0  0  0  0  0
  -24.3564  -36.8901   22.2055 H   0  0  0  0  0  0
  -23.7183  -37.6493   23.6640 H   0  0  0  0  0  0
  -26.0237  -31.6258   20.5977 H   0  0  0  0  0  0
  -26.8041  -30.9021   21.9756 H   0  0  0  0  0  0
  -28.0738  -29.1436   21.1787 H   0  0  0  0  0  0
  -26.0769  -25.9571   19.0631 H   0  0  0  0  0  0
  -23.9919  -27.2901   19.0329 H   0  0  0  0  0  0
  -23.6974  -30.6019   19.4060 H   0  0  0  0  0  0
  -22.7306  -29.2348   19.8712 H   0  0  0  0  0  0
  -25.1254  -36.2007   25.0843 H   0  0  0  0  0  0
  -20.9891  -28.3157   24.1497 H   0  0  0  0  0  0
  -20.5627  -26.2190   23.3618 H   0  0  0  0  0  0
  -21.6597  -26.7400   22.1243 H   0  0  0  0  0  0
  -19.6868  -25.6300   21.1217 H   0  0  0  0  0  0
  -19.6682  -27.3225   20.6797 H   0  0  0  0  0  0
  -17.4166  -26.6680   21.4017 H   0  0  0  0  0  0
  -18.0263  -26.0039   22.9012 H   0  0  0  0  0  0
  -19.7897  -30.7222   24.2320 H   0  0  0  0  0  0
  -17.4976  -31.6267   24.5143 H   0  0  0  0  0  0
  -15.5307  -30.2979   23.7638 H   0  0  0  0  0  0
  -15.8631  -28.0818   22.7046 H   0  0  0  0  0  0
  -24.5974  -30.6883   25.7837 H   0  0  0  0  0  0
  -24.8873  -32.2729   26.4939 H   0  0  0  0  0  0
  -25.8173  -30.8813   27.0236 H   0  0  0  0  0  0
  -26.2766  -29.6761   24.1166 H   0  0  0  0  0  0
  -27.4129  -29.7242   25.4430 H   0  0  0  0  0  0
  -27.8554  -30.4326   23.9068 H   0  0  0  0  0  0
  -27.2752  -33.3532   26.2036 H   0  0  0  0  0  0
  -28.3851  -32.6742   25.0230 H   0  0  0  0  0  0
  -28.0753  -31.8335   26.5324 H   0  0  0  0  0  0
  -28.2611  -38.0085   24.7527 H   0  0  0  0  0  0
  -28.1050  -36.2611   24.6273 H   0  0  0  0  0  0
  -27.2288  -37.1428   25.8876 H   0  0  0  0  0  0
  -20.9284  -29.8682   21.6989 H   0  0  0  0  0  0
  -26.0184  -38.2889   24.1478 H   0  0  0  0  0  0
  -26.7639  -21.5380   21.5782 H   0  0  0  0  0  0
  -26.8360  -20.3207   20.2580 H   0  0  0  0  0  0
  -31.1247  -17.7060   23.0044 H   0  0  0  0  0  0
  -29.3584  -17.3583   22.8749 H   0  0  0  0  0  0
  -28.5451  -17.5596   20.3855 H   0  0  0  0  0  0
  -29.9007  -18.0763   19.3206 H   0  0  0  0  0  0
  -27.4090  -18.6233   21.8565 H   0  0  0  0  0  0
  -27.4696  -19.8445   23.1655 H   0  0  0  0  0  0
  -31.5597  -16.9621   20.7193 H   0  0  0  0  0  0
  -31.0352  -19.3065   21.1259 H   0  0  0  0  0  0
  -29.0931  -20.6666   19.9015 H   0  0  0  0  0  0
  -28.6464  -27.1414   17.3080 H   0  0  0  0  0  0
  -30.2180  -26.5559   16.7286 H   0  0  0  0  0  0
  -30.1229  -27.5464   18.1937 H   0  0  0  0  0  0
  -29.6665  -23.7557   22.9638 H   0  0  0  0  0  0
  -29.3645  -22.1222   23.4760 H   0  0  0  0  0  0
  -28.0576  -23.0854   22.7809 H   0  0  0  0  0  0
  -29.9253  -21.1445   17.3291 H   0  0  0  0  0  0
  -31.6607  -20.9160   17.0728 H   0  0  0  0  0  0
  -30.8722  -22.3777   16.4973 H   0  0  0  0  0  0
  -30.5846  -22.1508   21.3882 H   0  0  0  0  0  0
  -31.3131  -21.5708   19.4223 H   0  0  0  0  0  0
  -29.1127  -15.2774   21.4425 H   0  0  0  0  0  0
  -29.5338  -20.3661   22.6994 H   0  0  0  0  0  0
  1 25  1  0  0  0
  1 30  2  0  0  0
  1 89  1  0  0  0
  2  3  1  0  0  0
  2 25  1  0  0  0
  2 92  1  0  0  0
  2 93  1  0  0  0
  3  4  1  0  0  0
  3 94  1  0  0  0
  3 95  1  0  0  0
  4  5  1  0  0  0
  4 96  1  0  0  0
  4 97  1  0  0  0
  5  6  1  0  0  0
  5 26  1  0  0  0
  5 98  1  0  0  0
  6 25  1  0  0  0
  6 99  1  0  0  0
  6100  1  0  0  0
  7  8  2  0  0  0
  7 26  1  0  0  0
  7 29  1  0  0  0
  8  9  1  0  0  0
  8 22  1  0  0  0
  9 10  1  0  0  0
  9 27  2  0  0  0
 10 11  2  0  0  0
 10 15  1  0  0  0
 11 12  1  0  0  0
 11101  1  0  0  0
 12 13  2  0  0  0
 12102  1  0  0  0
 13 14  1  0  0  0
 13 31  1  0  0  0
 14 15  2  0  0  0
 14103  1  0  0  0
 15104  1  0  0  0
 16 17  2  0  0  0
 16 21  1  0  0  0
 16 31  1  0  0  0
 17 18  1  0  0  0
 17105  1  0  0  0
 18 19  2  0  0  0
 18106  1  0  0  0
 19 20  1  0  0  0
 19 24  1  0  0  0
 20 21  2  0  0  0
 20107  1  0  0  0
 21 23  1  0  0  0
 22 28  1  0  0  0
 22 32  2  0  0  0
 26 27  1  0  0  0
 28108  1  0  0  0
 28109  1  0  0  0
 29110  1  0  0  0
 29111  1  0  0  0
 33 34  1  0  0  0
 33 66  1  0  0  0
 33 70  2  0  0  0
 34 36  1  0  0  0
 34 59  1  0  0  0
 34112  1  0  0  0
 35 44  2  0  0  0
 35 45  1  0  0  0
 35 68  1  0  0  0
 36 56  1  0  0  0
 36113  1  0  0  0
 37 39  1  0  0  0
 37 47  1  0  0  0
 37 66  1  0  0  0
 37114  1  0  0  0
 38 43  2  0  0  0
 38 46  1  0  0  0
 38 47  1  0  0  0
 39 64  1  0  0  0
 39 67  2  0  0  0
 40 52  1  0  0  0
 40 53  2  0  0  0
 40 58  1  0  0  0
 41115  1  0  0  0
 41116  1  0  0  0
 41117  1  0  0  0
 41 48  1  0  0  0
 42 43  1  0  0  0
 42 66  1  0  0  0
 42118  1  0  0  0
 42119  1  0  0  0
 43 44  1  0  0  0
 44120  1  0  0  0
 45 46  2  0  0  0
 45121  1  0  0  0
 46122  1  0  0  0
 47123  1  0  0  0
 47124  1  0  0  0
 48 56  1  0  0  0
 48 65  1  0  0  0
 48125  1  0  0  0
 49 50  1  0  0  0
 49 53  1  0  0  0
 49 64  1  0  0  0
 49126  1  0  0  0
 50 51  1  0  0  0
 50127  1  0  0  0
 50128  1  0  0  0
 51 52  1  0  0  0
 51129  1  0  0  0
 51130  1  0  0  0
 52131  1  0  0  0
 52132  1  0  0  0
 53 54  1  0  0  0
 54 55  2  0  0  0
 54133  1  0  0  0
 55 57  1  0  0  0
 55134  1  0  0  0
 56 69  2  0  0  0
 57 58  2  0  0  0
 57135  1  0  0  0
 58136  1  0  0  0
 59 60  1  0  0  0
 59 61  1  0  0  0
 59 62  1  0  0  0
 60137  1  0  0  0
 60138  1  0  0  0
 60139  1  0  0  0
 61140  1  0  0  0
 61141  1  0  0  0
 61142  1  0  0  0
 62143  1  0  0  0
 62144  1  0  0  0
 62145  1  0  0  0
 63 65  1  0  0  0
 63146  1  0  0  0
 63147  1  0  0  0
 63148  1  0  0  0
 64149  1  0  0  0
 65150  1  0  0  0
 68 74  1  0  0  0
 71 72  2  0  0  0
 71 85  1  0  0  0
 71 88  1  0  0  0
 72 86  1  0  0  0
 72 87  1  0  0  0
 73 74  1  0  0  0
 73 82  1  0  0  0
 73 87  2  0  0  0
 74 88  2  0  0  0
 75 78  1  0  0  0
 75151  1  0  0  0
 75152  1  0  0  0
 75 81  1  0  0  0
 76 79  1  0  0  0
 76153  1  0  0  0
 76154  1  0  0  0
 76 80  1  0  0  0
 77 79  1  0  0  0
 77 80  1  0  0  0
 77155  1  0  0  0
 77156  1  0  0  0
 78157  1  0  0  0
 78158  1  0  0  0
 78 90  1  0  0  0
 79 89  1  0  0  0
 79159  1  0  0  0
 80 90  1  0  0  0
 80160  1  0  0  0
 81 85  1  0  0  0
 81 90  1  0  0  0
 81161  1  0  0  0
 82162  1  0  0  0
 82163  1  0  0  0
 82164  1  0  0  0
 83165  1  0  0  0
 83166  1  0  0  0
 83167  1  0  0  0
 83 85  1  0  0  0
 84168  1  0  0  0
 84169  1  0  0  0
 84170  1  0  0  0
 84 86  1  0  0  0
 85171  1  0  0  0
 86 91  1  0  0  0
 86172  1  0  0  0
 89173  1  0  0  0
 90174  1  0  0  0
M  CHG  1  90   1
M  ISO  4   1 100  68 101  74 101  89 100
M  END
> <chiral flag>
0

> <version>
0

> <s_m_source_file>
/data/baiqing/PycharmProjects/Reinvent-master-3.2/result/LINK_invent/BTK/process_docking_weight1_custom_sum_contain_oxygen_bond_distance_aromatic_linkinvent_7_9_3/rearranged_h_0162.sdf

> <i_m_source_file_index>
48

> <r_mmod_Potential_Energy-OPLS-2005>
31.7947559356689

> <r_mmod_Stretch_Energy-OPLS-2005>
40.3341865539551

> <r_mmod_Bend_Energy-OPLS-2005>
157.5341796875

> <r_mmod_Torsional_Energy-OPLS-2005>
302.566040039062

> <r_mmod_Improper_Torsional_Energy-OPLS-2005>
9.39238357543945

> <r_mmod_Van_der_Waal_Energy-OPLS-2005>
154.505264282227

> <r_mmod_Electrostatic_Energy-OPLS-2005>
-166.470657348633

> <r_mmod_Solvation_Energy-OPLS-2005>
-481.230194091797

> <b_mmod_Minimization_Converged-OPLS-2005>
0

> <r_mmod_RMS_Derivative-OPLS-2005>
4.78061866760254

$$$$
48
                    3D
 Structure written by MMmdl.
173183  0  0  1  0            999 V2000
  -30.6322  -14.7211   20.3277 C   0  0  0  0  0  0
  -30.4472  -12.3933   19.4706 C   0  0  0  0  0  0
  -29.5142  -12.3085   18.2413 C   0  0  0  0  0  0
  -28.0229  -12.2539   18.6526 C   0  0  0  0  0  0
  -27.6310  -13.1811   19.8379 C   0  0  2  0  0  0
  -28.6986  -13.1912   20.9520 C   0  0  0  0  0  0
  -25.2557  -13.8061   20.5764 C   0  0  0  0  0  0
  -24.1788  -13.0386   20.9257 C   0  0  0  0  0  0
  -24.6319  -11.6845   20.8832 C   0  0  0  0  0  0
  -23.8992  -10.4258   21.0464 C   0  0  0  0  0  0
  -24.3568   -9.4172   21.9219 C   0  0  0  0  0  0
  -23.6260   -8.2203   22.0759 C   0  0  0  0  0  0
  -22.4248   -8.0254   21.3542 C   0  0  0  0  0  0
  -21.9875   -9.0231   20.4650 C   0  0  0  0  0  0
  -22.7189  -10.2118   20.3083 C   0  0  0  0  0  0
  -21.6838   -6.0719   22.5278 C   0  0  0  0  0  0
  -21.4002   -6.5628   23.8211 C   0  0  0  0  0  0
  -21.3653   -5.6785   24.9176 C   0  0  0  0  0  0
  -21.6044   -4.3048   24.7230 C   0  0  0  0  0  0
  -21.8823   -3.8139   23.4352 C   0  0  0  0  0  0
  -21.9190   -4.6949   22.3405 C   0  0  0  0  0  0
  -22.7823  -13.5222   21.1882 C   0  0  0  0  0  0
  -22.1661   -4.2136   21.0983 F   0  0  0  0  0  0
  -21.5633   -3.4533   25.7744 F   0  0  0  0  0  0
  -29.9901  -13.5045   20.3248 N   0  0  0  0  0  0
  -26.2910  -12.9136   20.3380 N   0  0  0  0  0  0
  -25.9233  -11.6352   20.5901 N   0  0  0  0  0  0
  -22.0438  -12.8238   22.0433 N   0  0  0  0  0  0
  -25.4326  -15.1782   20.4174 N   0  0  0  0  0  0
  -31.8623  -14.7731   20.2923 O   0  0  0  0  0  0
  -21.6617   -6.8853   21.4237 O   0  0  0  0  0  0
  -22.3542  -14.5531   20.6706 O   0  0  0  0  0  0
  -24.6226  -31.8617   23.2040 C   0  0  0  0  0  0
  -25.9086  -32.4789   23.8363 C   0  0  1  0  0  0
  -27.2339  -27.3488   20.1243 C   0  0  0  0  0  0
  -25.5915  -33.8588   24.2292 N   0  0  0  0  0  0
  -23.4156  -30.4841   21.5450 C   0  0  2  0  0  0
  -24.8649  -28.9422   20.1105 C   0  0  0  0  0  0
  -22.7458  -29.4628   22.4944 C   0  0  0  0  0  0
  -18.0282  -28.1382   22.8488 C   0  0  0  0  0  0
  -24.1489  -36.7299   23.2640 C   0  0  0  0  0  0
  -25.9526  -30.8031   21.3701 C   0  0  0  0  0  0
  -26.0294  -29.4322   20.7145 C   0  0  0  0  0  0
  -27.2154  -28.6469   20.7112 C   0  0  0  0  0  0
  -26.0508  -26.9070   19.4871 C   0  0  0  0  0  0
  -24.8763  -27.6840   19.4870 C   0  0  0  0  0  0
  -23.6296  -29.8168   20.1601 C   0  0  0  0  0  0
  -25.4112  -36.3090   24.0333 C   0  0  1  0  0  0
  -20.5880  -28.3680   23.1294 C   0  0  2  0  0  0
  -20.6769  -26.9407   22.5413 C   0  0  0  0  0  0
  -19.5748  -26.6384   21.5211 C   0  0  0  0  0  0
  -18.1928  -26.7927   22.1624 C   0  0  0  0  0  0
  -19.1533  -28.8847   23.2888 C   0  0  0  0  0  0
  -18.9457  -30.1450   23.8903 C   0  0  0  0  0  0
  -17.6458  -30.6586   24.0561 C   0  0  0  0  0  0
  -25.9044  -34.9458   23.5112 C   0  0  0  0  0  0
  -16.5349  -29.9086   23.6327 C   0  0  0  0  0  0
  -16.7270  -28.6501   23.0352 C   0  0  0  0  0  0
  -26.4485  -31.6589   25.0720 C   0  0  0  0  0  0
  -25.3732  -31.3723   26.1459 C   0  0  0  0  0  0
  -27.0314  -30.3015   24.6149 C   0  0  0  0  0  0
  -27.6056  -32.4314   25.7484 C   0  0  0  0  0  0
  -27.5579  -37.1807   24.8467 C   0  0  0  0  0  0
  -21.4174  -29.3037   22.3690 N   0  0  0  0  0  0
  -26.4295  -37.3779   23.9404 N   0  0  0  0  0  0
  -24.6820  -31.0657   22.0973 N   0  0  0  0  0  0
  -23.4193  -28.8172   23.3017 O   0  0  0  0  0  0
  -28.3717  -26.5372   20.1933 O   0  0  0  0  0  0
  -26.5608  -34.8920   22.4675 O   0  0  0  0  0  0
  -23.5397  -32.1398   23.7387 O   0  0  0  0  0  0
  -29.1024  -22.9820   19.1601 C   0  0  0  0  0  0
  -28.5462  -24.4033   18.8588 C   0  0  0  0  0  0
  -28.8437  -18.1669   20.3216 C   0  0  0  0  0  0
  -31.3634  -17.8063   19.5179 C   0  0  0  0  0  0
  -28.8944  -19.5468   21.0560 C   0  0  0  0  0  0
  -31.3171  -18.0103   20.9940 C   0  0  1  0  0  0
  -29.0429  -22.7657   20.6852 C   0  0  2  0  0  0
  -29.1021  -24.2547   21.1898 C   0  0  1  0  0  0
  -28.2118  -25.0730   20.2037 C   0  0  1  0  0  0
  -31.2878  -19.4951   21.4516 C   0  0  1  0  0  0
  -30.1406  -17.3139   20.2949 C   0  0  1  0  0  0
  -28.6634  -24.4295   22.6514 C   0  0  0  0  0  0
  -32.6802  -20.1219   21.2277 C   0  0  0  0  0  0
  -29.1867  -15.8638   18.7347 C   0  0  0  0  0  0
  -30.1177  -21.7634   21.2963 C   0  0  0  0  0  0
  -29.8694  -15.8567   20.0498 N   0  0  0  0  0  0
  -30.1592  -20.3060   20.8450 N   0  3  2  0  0  0
  -31.4814  -12.5238   19.1465 H   0  0  0  0  0  0
  -30.4232  -11.4601   20.0352 H   0  0  0  0  0  0
  -29.7509  -11.3975   17.6899 H   0  0  0  0  0  0
  -29.7186  -13.0961   17.5219 H   0  0  0  0  0  0
  -27.8265  -11.2193   18.9353 H   0  0  0  0  0  0
  -27.3839  -12.4483   17.7904 H   0  0  0  0  0  0
  -27.5582  -14.1705   19.4222 H   0  0  0  0  0  0
  -28.7426  -12.2275   21.4615 H   0  0  0  0  0  0
  -28.4519  -13.9373   21.7094 H   0  0  0  0  0  0
  -25.2711   -9.5647   22.4796 H   0  0  0  0  0  0
  -23.9974   -7.4583   22.7461 H   0  0  0  0  0  0
  -21.0813   -8.8749   19.8947 H   0  0  0  0  0  0
  -22.3655  -10.9667   19.6199 H   0  0  0  0  0  0
  -21.1990   -7.6137   23.9708 H   0  0  0  0  0  0
  -21.1472   -6.0517   25.9076 H   0  0  0  0  0  0
  -22.0610   -2.7601   23.2856 H   0  0  0  0  0  0
  -22.4025  -11.9892   22.4836 H   0  0  0  0  0  0
  -21.1058  -13.1281   22.2622 H   0  0  0  0  0  0
  -24.6739  -15.8405   20.5375 H   0  0  0  0  0  0
  -26.3003  -15.6134   20.1327 H   0  0  0  0  0  0
  -26.7156  -32.5473   23.1118 H   0  0  0  0  0  0
  -25.0068  -33.9739   25.0440 H   0  0  0  0  0  0
  -22.7077  -31.3031   21.4019 H   0  0  0  0  0  0
  -23.3744  -35.9642   23.3324 H   0  0  0  0  0  0
  -24.3578  -36.8892   22.2051 H   0  0  0  0  0  0
  -23.7255  -37.6516   23.6640 H   0  0  0  0  0  0
  -26.0782  -31.5672   20.6018 H   0  0  0  0  0  0
  -26.8353  -30.8538   21.9960 H   0  0  0  0  0  0
  -28.1087  -29.0180   21.1939 H   0  0  0  0  0  0
  -26.0141  -25.9492   18.9899 H   0  0  0  0  0  0
  -23.9854  -27.3047   19.0054 H   0  0  0  0  0  0
  -23.7439  -30.5921   19.4016 H   0  0  0  0  0  0
  -22.7520  -29.2412   19.8606 H   0  0  0  0  0  0
  -25.1294  -36.1951   25.0828 H   0  0  0  0  0  0
  -20.9974  -28.3252   24.1414 H   0  0  0  0  0  0
  -20.5666  -26.2290   23.3609 H   0  0  0  0  0  0
  -21.6639  -26.7438   22.1210 H   0  0  0  0  0  0
  -19.6909  -25.6296   21.1239 H   0  0  0  0  0  0
  -19.6691  -27.3194   20.6741 H   0  0  0  0  0  0
  -17.4200  -26.6674   21.4025 H   0  0  0  0  0  0
  -18.0330  -26.0068   22.9019 H   0  0  0  0  0  0
  -19.7935  -30.7259   24.2281 H   0  0  0  0  0  0
  -17.5016  -31.6270   24.5158 H   0  0  0  0  0  0
  -15.5350  -30.2988   23.7650 H   0  0  0  0  0  0
  -15.8671  -28.0820   22.7067 H   0  0  0  0  0  0
  -24.5905  -30.7070   25.7796 H   0  0  0  0  0  0
  -24.8924  -32.2887   26.4891 H   0  0  0  0  0  0
  -25.8071  -30.8902   27.0228 H   0  0  0  0  0  0
  -26.2871  -29.6779   24.1182 H   0  0  0  0  0  0
  -27.4029  -29.7257   25.4636 H   0  0  0  0  0  0
  -27.8736  -30.4305   23.9347 H   0  0  0  0  0  0
  -27.2677  -33.3612   26.2071 H   0  0  0  0  0  0
  -28.3861  -32.6875   25.0307 H   0  0  0  0  0  0
  -28.0729  -31.8431   26.5391 H   0  0  0  0  0  0
  -28.2614  -38.0086   24.7490 H   0  0  0  0  0  0
  -28.1056  -36.2617   24.6322 H   0  0  0  0  0  0
  -27.2295  -37.1496   25.8871 H   0  0  0  0  0  0
  -20.9345  -29.8762   21.6906 H   0  0  0  0  0  0
  -26.0183  -38.2861   24.1388 H   0  0  0  0  0  0
  -30.1344  -22.9234   18.8107 H   0  0  0  0  0  0
  -28.5426  -22.2113   18.6284 H   0  0  0  0  0  0
  -27.6704  -24.3647   18.2103 H   0  0  0  0  0  0
  -29.3047  -24.9840   18.3323 H   0  0  0  0  0  0
  -28.5464  -18.3660   19.2913 H   0  0  0  0  0  0
  -28.0368  -17.5795   20.7622 H   0  0  0  0  0  0
  -32.0894  -17.0837   19.1517 H   0  0  0  0  0  0
  -31.2181  -18.6589   18.8578 H   0  0  0  0  0  0
  -28.7480  -19.3975   22.1269 H   0  0  0  0  0  0
  -28.0427  -20.1372   20.7203 H   0  0  0  0  0  0
  -31.9687  -17.3741   21.5904 H   0  0  0  0  0  0
  -28.0476  -22.3922   20.9286 H   0  0  0  0  0  0
  -30.1287  -24.6128   21.0917 H   0  0  0  0  0  0
  -27.1870  -24.8098   20.4695 H   0  0  0  0  0  0
  -31.1177  -19.4728   22.5297 H   0  0  0  0  0  0
  -27.6493  -24.0623   22.8122 H   0  0  0  0  0  0
  -28.6816  -25.4820   22.9365 H   0  0  0  0  0  0
  -29.3252  -23.8959   23.3334 H   0  0  0  0  0  0
  -32.8713  -20.3187   20.1725 H   0  0  0  0  0  0
  -33.4645  -19.4505   21.5787 H   0  0  0  0  0  0
  -32.8115  -21.0521   21.7791 H   0  0  0  0  0  0
  -29.6355  -16.5684   18.0330 H   0  0  0  0  0  0
  -28.1355  -16.1362   18.8240 H   0  0  0  0  0  0
  -29.2209  -14.9280   18.2033 H   0  0  0  0  0  0
  -30.0120  -21.7633   22.3816 H   0  0  0  0  0  0
  -31.0877  -22.2153   21.0971 H   0  0  0  0  0  0
  -30.3128  -20.3368   19.8483 H   0  0  0  0  0  0
  1 25  1  0  0  0
  1 30  2  0  0  0
  1 86  1  0  0  0
  2  3  1  0  0  0
  2 25  1  0  0  0
  2 88  1  0  0  0
  2 89  1  0  0  0
  3  4  1  0  0  0
  3 90  1  0  0  0
  3 91  1  0  0  0
  4  5  1  0  0  0
  4 92  1  0  0  0
  4 93  1  0  0  0
  5  6  1  0  0  0
  5 26  1  0  0  0
  5 94  1  0  0  0
  6 25  1  0  0  0
  6 95  1  0  0  0
  6 96  1  0  0  0
  7  8  2  0  0  0
  7 26  1  0  0  0
  7 29  1  0  0  0
  8  9  1  0  0  0
  8 22  1  0  0  0
  9 10  1  0  0  0
  9 27  2  0  0  0
 10 11  2  0  0  0
 10 15  1  0  0  0
 11 12  1  0  0  0
 11 97  1  0  0  0
 12 13  2  0  0  0
 12 98  1  0  0  0
 13 14  1  0  0  0
 13 31  1  0  0  0
 14 15  2  0  0  0
 14 99  1  0  0  0
 15100  1  0  0  0
 16 17  2  0  0  0
 16 21  1  0  0  0
 16 31  1  0  0  0
 17 18  1  0  0  0
 17101  1  0  0  0
 18 19  2  0  0  0
 18102  1  0  0  0
 19 20  1  0  0  0
 19 24  1  0  0  0
 20 21  2  0  0  0
 20103  1  0  0  0
 21 23  1  0  0  0
 22 28  1  0  0  0
 22 32  2  0  0  0
 26 27  1  0  0  0
 28104  1  0  0  0
 28105  1  0  0  0
 29106  1  0  0  0
 29107  1  0  0  0
 33 34  1  0  0  0
 33 66  1  0  0  0
 33 70  2  0  0  0
 34 36  1  0  0  0
 34 59  1  0  0  0
 34108  1  0  0  0
 35 44  2  0  0  0
 35 45  1  0  0  0
 35 68  1  0  0  0
 36 56  1  0  0  0
 36109  1  0  0  0
 37 39  1  0  0  0
 37 47  1  0  0  0
 37 66  1  0  0  0
 37110  1  0  0  0
 38 43  2  0  0  0
 38 46  1  0  0  0
 38 47  1  0  0  0
 39 64  1  0  0  0
 39 67  2  0  0  0
 40 52  1  0  0  0
 40 53  2  0  0  0
 40 58  1  0  0  0
 41111  1  0  0  0
 41112  1  0  0  0
 41113  1  0  0  0
 41 48  1  0  0  0
 42 43  1  0  0  0
 42 66  1  0  0  0
 42114  1  0  0  0
 42115  1  0  0  0
 43 44  1  0  0  0
 44116  1  0  0  0
 45 46  2  0  0  0
 45117  1  0  0  0
 46118  1  0  0  0
 47119  1  0  0  0
 47120  1  0  0  0
 48 56  1  0  0  0
 48 65  1  0  0  0
 48121  1  0  0  0
 49 50  1  0  0  0
 49 53  1  0  0  0
 49 64  1  0  0  0
 49122  1  0  0  0
 50 51  1  0  0  0
 50123  1  0  0  0
 50124  1  0  0  0
 51 52  1  0  0  0
 51125  1  0  0  0
 51126  1  0  0  0
 52127  1  0  0  0
 52128  1  0  0  0
 53 54  1  0  0  0
 54 55  2  0  0  0
 54129  1  0  0  0
 55 57  1  0  0  0
 55130  1  0  0  0
 56 69  2  0  0  0
 57 58  2  0  0  0
 57131  1  0  0  0
 58132  1  0  0  0
 59 60  1  0  0  0
 59 61  1  0  0  0
 59 62  1  0  0  0
 60133  1  0  0  0
 60134  1  0  0  0
 60135  1  0  0  0
 61136  1  0  0  0
 61137  1  0  0  0
 61138  1  0  0  0
 62139  1  0  0  0
 62140  1  0  0  0
 62141  1  0  0  0
 63 65  1  0  0  0
 63142  1  0  0  0
 63143  1  0  0  0
 63144  1  0  0  0
 64145  1  0  0  0
 65146  1  0  0  0
 68 79  1  0  0  0
 71 72  1  0  0  0
 71 77  1  0  0  0
 71147  1  0  0  0
 71148  1  0  0  0
 72 79  1  0  0  0
 72149  1  0  0  0
 72150  1  0  0  0
 73 75  1  0  0  0
 73 81  1  0  0  0
 73151  1  0  0  0
 73152  1  0  0  0
 74 81  1  0  0  0
 74153  1  0  0  0
 74154  1  0  0  0
 74 76  1  0  0  0
 75 87  1  0  0  0
 75155  1  0  0  0
 75156  1  0  0  0
 76 80  1  0  0  0
 76 81  1  0  0  0
 76157  1  0  0  0
 77 78  1  0  0  0
 77 85  1  0  0  0
 77158  1  0  0  0
 78 79  1  0  0  0
 78 82  1  0  0  0
 78159  1  0  0  0
 79160  1  0  0  0
 80 83  1  0  0  0
 80 87  1  0  0  0
 80161  1  0  0  0
 81 86  1  0  0  0
 82162  1  0  0  0
 82163  1  0  0  0
 82164  1  0  0  0
 83165  1  0  0  0
 83166  1  0  0  0
 83167  1  0  0  0
 84 86  1  0  0  0
 84168  1  0  0  0
 84169  1  0  0  0
 84170  1  0  0  0
 85171  1  0  0  0
 85172  1  0  0  0
 85 87  1  0  0  0
 87173  1  0  0  0
M  CHG  1  87   1
M  ISO  4   1 100  68 101  79 101  86 100
M  END
> <chiral flag>
0

> <version>
0

> <s_m_source_file>
/data/baiqing/PycharmProjects/Reinvent-master-3.2/result/LINK_invent/BTK/process_docking_weight1_custom_sum_contain_oxygen_bond_distance_aromatic_linkinvent_7_9_3/rearranged_h_0162.sdf

> <i_m_source_file_index>
49

> <r_mmod_Potential_Energy-OPLS-2005>
475.619842529297

> <r_mmod_Stretch_Energy-OPLS-2005>
85.1048965454102

> <r_mmod_Bend_Energy-OPLS-2005>
208.007049560547

> <r_mmod_Torsional_Energy-OPLS-2005>
526.919006347656

> <r_mmod_Improper_Torsional_Energy-OPLS-2005>
11.0424194335938

> <r_mmod_Van_der_Waal_Energy-OPLS-2005>
148.754196166992

> <r_mmod_Electrostatic_Energy-OPLS-2005>
-166.539276123047

> <r_mmod_Solvation_Energy-OPLS-2005>
-418.585021972656

> <b_mmod_Minimization_Converged-OPLS-2005>
0

> <r_mmod_RMS_Derivative-OPLS-2005>
0.404644131660461

$$$$
49
                    3D
 Structure written by MMmdl.
167176  0  0  1  0            999 V2000
  -30.6907  -14.5019   20.4952 C   0  0  0  0  0  0
  -30.4190  -12.3089   19.4162 C   0  0  0  0  0  0
  -29.4928  -12.4977   18.1968 C   0  0  0  0  0  0
  -28.0116  -12.3711   18.6058 C   0  0  0  0  0  0
  -27.6560  -13.2099   19.8652 C   0  0  2  0  0  0
  -28.7079  -13.0217   20.9846 C   0  0  0  0  0  0
  -25.2578  -13.8156   20.5711 C   0  0  0  0  0  0
  -24.1822  -13.0434   20.9170 C   0  0  0  0  0  0
  -24.6380  -11.6895   20.8704 C   0  0  0  0  0  0
  -23.9045  -10.4288   21.0388 C   0  0  0  0  0  0
  -24.3616   -9.4208   21.9163 C   0  0  0  0  0  0
  -23.6308   -8.2240   22.0744 C   0  0  0  0  0  0
  -22.4276   -8.0288   21.3543 C   0  0  0  0  0  0
  -21.9902   -9.0253   20.4639 C   0  0  0  0  0  0
  -22.7222  -10.2134   20.3034 C   0  0  0  0  0  0
  -21.6860   -6.0723   22.5272 C   0  0  0  0  0  0
  -21.4019   -6.5619   23.8208 C   0  0  0  0  0  0
  -21.3675   -5.6773   24.9168 C   0  0  0  0  0  0
  -21.6057   -4.3038   24.7212 C   0  0  0  0  0  0
  -21.8831   -3.8132   23.4335 C   0  0  0  0  0  0
  -21.9195   -4.6947   22.3389 C   0  0  0  0  0  0
  -22.7854  -13.5259   21.1829 C   0  0  0  0  0  0
  -22.1665   -4.2125   21.0970 F   0  0  0  0  0  0
  -21.5629   -3.4535   25.7734 F   0  0  0  0  0  0
  -30.0312  -13.3141   20.4145 N   0  0  0  0  0  0
  -26.3006  -12.9330   20.3346 N   0  0  0  0  0  0
  -25.9299  -11.6472   20.5705 N   0  0  0  0  0  0
  -22.0488  -12.8271   22.0405 N   0  0  0  0  0  0
  -25.4303  -15.1889   20.4168 N   0  0  0  0  0  0
  -31.8586  -14.6452   20.1198 O   0  0  0  0  0  0
  -21.6654   -6.8877   21.4239 O   0  0  0  0  0  0
  -22.3529  -14.5558   20.6671 O   0  0  0  0  0  0
  -24.6134  -31.8660   23.2088 C   0  0  0  0  0  0
  -25.9013  -32.4831   23.8381 C   0  0  1  0  0  0
  -27.2420  -27.4230   20.1168 C   0  0  0  0  0  0
  -25.5859  -33.8621   24.2316 N   0  0  0  0  0  0
  -23.4054  -30.4864   21.5485 C   0  0  2  0  0  0
  -24.8570  -28.9479   20.1187 C   0  0  0  0  0  0
  -22.7413  -29.4639   22.4987 C   0  0  0  0  0  0
  -18.0279  -28.1372   22.8502 C   0  0  0  0  0  0
  -24.1489  -36.7324   23.2643 C   0  0  0  0  0  0
  -25.9319  -30.8294   21.3630 C   0  0  0  0  0  0
  -26.0143  -29.4606   20.7176 C   0  0  0  0  0  0
  -27.2118  -28.7054   20.7121 C   0  0  0  0  0  0
  -26.0700  -26.9284   19.5044 C   0  0  0  0  0  0
  -24.8797  -27.6823   19.5073 C   0  0  0  0  0  0
  -23.6165  -29.8119   20.1654 C   0  0  0  0  0  0
  -25.4111  -36.3121   24.0342 C   0  0  1  0  0  0
  -20.5870  -28.3649   23.1334 C   0  0  2  0  0  0
  -20.6758  -26.9380   22.5427 C   0  0  0  0  0  0
  -19.5736  -26.6373   21.5218 C   0  0  0  0  0  0
  -18.1919  -26.7923   22.1634 C   0  0  0  0  0  0
  -19.1528  -28.8825   23.2923 C   0  0  0  0  0  0
  -18.9452  -30.1434   23.8921 C   0  0  0  0  0  0
  -17.6451  -30.6582   24.0566 C   0  0  0  0  0  0
  -25.9011  -34.9483   23.5139 C   0  0  0  0  0  0
  -16.5344  -29.9074   23.6334 C   0  0  0  0  0  0
  -16.7267  -28.6497   23.0352 C   0  0  0  0  0  0
  -26.4428  -31.6616   25.0707 C   0  0  0  0  0  0
  -25.3676  -31.3739   26.1453 C   0  0  0  0  0  0
  -27.0273  -30.3067   24.6080 C   0  0  0  0  0  0
  -27.6021  -32.4321   25.7462 C   0  0  0  0  0  0
  -27.5590  -37.1825   24.8458 C   0  0  0  0  0  0
  -21.4138  -29.3029   22.3740 N   0  0  0  0  0  0
  -26.4311  -37.3795   23.9393 N   0  0  0  0  0  0
  -24.6686  -31.0739   22.1000 N   0  0  0  0  0  0
  -23.4180  -28.8174   23.3017 O   0  0  0  0  0  0
  -28.4062  -26.6795   20.1031 O   0  0  0  0  0  0
  -26.5583  -34.8931   22.4701 O   0  0  0  0  0  0
  -23.5318  -32.1402   23.7489 O   0  0  0  0  0  0
  -29.4376  -23.2237   22.6828 C   0  0  0  0  0  0
  -30.1969  -20.9335   22.8232 C   0  0  0  0  0  0
  -29.7062  -22.0829   23.4620 C   0  0  0  0  0  0
  -29.6573  -23.1827   21.2864 C   0  0  0  0  0  0
  -30.3710  -20.9403   21.4306 C   0  0  0  0  0  0
  -30.4689  -17.6168   21.9437 C   0  0  0  0  0  0
  -30.3849  -17.7862   19.4625 C   0  0  0  0  0  0
  -29.6729  -16.2893   21.8719 C   0  0  0  0  0  0
  -29.6137  -16.4459   19.4283 C   0  0  0  0  0  0
  -30.1309  -18.5695   20.7669 C   0  0  0  0  0  0
  -29.5011  -22.0943   24.9641 C   0  0  0  0  0  0
  -29.5834  -24.1932   18.9136 C   0  0  0  0  0  0
  -28.3411  -25.4012   20.7714 C   0  0  0  0  0  0
  -29.5533  -24.4748   20.4296 C   0  0  1  0  0  0
  -30.1119  -22.0423   20.6845 N   0  0  0  0  0  0
  -29.8862  -15.5892   20.5993 N   0  0  0  0  0  0
  -30.9041  -19.8226   20.7682 N   0  0  0  0  0  0
  -31.4627  -12.4004   19.1097 H   0  0  0  0  0  0
  -30.3124  -11.3044   19.8297 H   0  0  0  0  0  0
  -29.7318  -11.7609   17.4285 H   0  0  0  0  0  0
  -29.6702  -13.4756   17.7459 H   0  0  0  0  0  0
  -27.8085  -11.3167   18.7937 H   0  0  0  0  0  0
  -27.3716  -12.6538   17.7674 H   0  0  0  0  0  0
  -27.6832  -14.2533   19.5556 H   0  0  0  0  0  0
  -28.6846  -12.0028   21.3706 H   0  0  0  0  0  0
  -28.4842  -13.6698   21.8329 H   0  0  0  0  0  0
  -25.2771   -9.5687   22.4716 H   0  0  0  0  0  0
  -24.0014   -7.4635   22.7469 H   0  0  0  0  0  0
  -21.0834   -8.8782   19.8954 H   0  0  0  0  0  0
  -22.3700  -10.9668   19.6132 H   0  0  0  0  0  0
  -21.2012   -7.6126   23.9705 H   0  0  0  0  0  0
  -21.1487   -6.0495   25.9074 H   0  0  0  0  0  0
  -22.0592   -2.7591   23.2832 H   0  0  0  0  0  0
  -22.4144  -11.9971   22.4824 H   0  0  0  0  0  0
  -21.1082  -13.1274   22.2559 H   0  0  0  0  0  0
  -24.6704  -15.8491   20.5369 H   0  0  0  0  0  0
  -26.2960  -15.6313   20.1369 H   0  0  0  0  0  0
  -26.7073  -32.5543   23.1135 H   0  0  0  0  0  0
  -24.9977  -33.9761   25.0442 H   0  0  0  0  0  0
  -22.6962  -31.3043   21.4062 H   0  0  0  0  0  0
  -23.3748  -35.9666   23.3332 H   0  0  0  0  0  0
  -24.3569  -36.8904   22.2048 H   0  0  0  0  0  0
  -23.7253  -37.6542   23.6634 H   0  0  0  0  0  0
  -26.0324  -31.5907   20.5878 H   0  0  0  0  0  0
  -26.8229  -30.8921   21.9765 H   0  0  0  0  0  0
  -28.1041  -29.0986   21.1783 H   0  0  0  0  0  0
  -26.0777  -25.9618   19.0200 H   0  0  0  0  0  0
  -23.9905  -27.2876   19.0359 H   0  0  0  0  0  0
  -23.7216  -30.5811   19.3990 H   0  0  0  0  0  0
  -22.7440  -29.2237   19.8747 H   0  0  0  0  0  0
  -25.1302  -36.1998   25.0842 H   0  0  0  0  0  0
  -20.9975  -28.3192   24.1450 H   0  0  0  0  0  0
  -20.5650  -26.2232   23.3602 H   0  0  0  0  0  0
  -21.6625  -26.7406   22.1225 H   0  0  0  0  0  0
  -19.6880  -25.6289   21.1223 H   0  0  0  0  0  0
  -19.6686  -27.3208   20.6770 H   0  0  0  0  0  0
  -17.4189  -26.6705   21.4027 H   0  0  0  0  0  0
  -18.0315  -26.0053   22.9016 H   0  0  0  0  0  0
  -19.7914  -30.7257   24.2299 H   0  0  0  0  0  0
  -17.4996  -31.6265   24.5156 H   0  0  0  0  0  0
  -15.5345  -30.2975   23.7642 H   0  0  0  0  0  0
  -15.8678  -28.0817   22.7055 H   0  0  0  0  0  0
  -24.5815  -30.7143   25.7752 H   0  0  0  0  0  0
  -24.8894  -32.2912   26.4900 H   0  0  0  0  0  0
  -25.7975  -30.8859   27.0205 H   0  0  0  0  0  0
  -26.2834  -29.6837   24.1099 H   0  0  0  0  0  0
  -27.4026  -29.7291   25.4529 H   0  0  0  0  0  0
  -27.8658  -30.4409   23.9249 H   0  0  0  0  0  0
  -27.2660  -33.3610   26.2079 H   0  0  0  0  0  0
  -28.3796  -32.6901   25.0260 H   0  0  0  0  0  0
  -28.0723  -31.8412   26.5326 H   0  0  0  0  0  0
  -28.2627  -38.0104   24.7495 H   0  0  0  0  0  0
  -28.1075  -36.2637   24.6322 H   0  0  0  0  0  0
  -27.2291  -37.1515   25.8856 H   0  0  0  0  0  0
  -20.9299  -29.8734   21.6957 H   0  0  0  0  0  0
  -26.0214  -38.2883   24.1380 H   0  0  0  0  0  0
  -29.1141  -24.1288   23.1754 H   0  0  0  0  0  0
  -30.4611  -20.0755   23.4203 H   0  0  0  0  0  0
  -31.5388  -17.3977   21.9539 H   0  0  0  0  0  0
  -30.2462  -18.0728   22.9049 H   0  0  0  0  0  0
  -30.1047  -18.3921   18.5994 H   0  0  0  0  0  0
  -31.4501  -17.5791   19.3533 H   0  0  0  0  0  0
  -28.6054  -16.4928   21.9732 H   0  0  0  0  0  0
  -29.9402  -15.6497   22.7154 H   0  0  0  0  0  0
  -29.8547  -15.9186   18.5025 H   0  0  0  0  0  0
  -28.5407  -16.6395   19.3849 H   0  0  0  0  0  0
  -29.0707  -18.8263   20.8131 H   0  0  0  0  0  0
  -29.9893  -22.9578   25.4153 H   0  0  0  0  0  0
  -29.9132  -21.1977   25.4296 H   0  0  0  0  0  0
  -28.4387  -22.1340   25.2023 H   0  0  0  0  0  0
  -30.5148  -23.7055   18.6235 H   0  0  0  0  0  0
  -29.5207  -25.1182   18.3403 H   0  0  0  0  0  0
  -28.7625  -23.5456   18.6096 H   0  0  0  0  0  0
  -28.3285  -25.6313   21.8362 H   0  0  0  0  0  0
  -27.4130  -24.8684   20.5639 H   0  0  0  0  0  0
  -30.4533  -25.0438   20.6638 H   0  0  0  0  0  0
  -31.8657  -19.6539   21.0382 H   0  0  0  0  0  0
  1 25  1  0  0  0
  1 30  2  0  0  0
  1 86  1  0  0  0
  2  3  1  0  0  0
  2 25  1  0  0  0
  2 88  1  0  0  0
  2 89  1  0  0  0
  3  4  1  0  0  0
  3 90  1  0  0  0
  3 91  1  0  0  0
  4  5  1  0  0  0
  4 92  1  0  0  0
  4 93  1  0  0  0
  5  6  1  0  0  0
  5 26  1  0  0  0
  5 94  1  0  0  0
  6 25  1  0  0  0
  6 95  1  0  0  0
  6 96  1  0  0  0
  7  8  2  0  0  0
  7 26  1  0  0  0
  7 29  1  0  0  0
  8  9  1  0  0  0
  8 22  1  0  0  0
  9 10  1  0  0  0
  9 27  2  0  0  0
 10 11  2  0  0  0
 10 15  1  0  0  0
 11 12  1  0  0  0
 11 97  1  0  0  0
 12 13  2  0  0  0
 12 98  1  0  0  0
 13 14  1  0  0  0
 13 31  1  0  0  0
 14 15  2  0  0  0
 14 99  1  0  0  0
 15100  1  0  0  0
 16 17  2  0  0  0
 16 21  1  0  0  0
 16 31  1  0  0  0
 17 18  1  0  0  0
 17101  1  0  0  0
 18 19  2  0  0  0
 18102  1  0  0  0
 19 20  1  0  0  0
 19 24  1  0  0  0
 20 21  2  0  0  0
 20103  1  0  0  0
 21 23  1  0  0  0
 22 28  1  0  0  0
 22 32  2  0  0  0
 26 27  1  0  0  0
 28104  1  0  0  0
 28105  1  0  0  0
 29106  1  0  0  0
 29107  1  0  0  0
 33 34  1  0  0  0
 33 66  1  0  0  0
 33 70  2  0  0  0
 34 36  1  0  0  0
 34 59  1  0  0  0
 34108  1  0  0  0
 35 44  2  0  0  0
 35 45  1  0  0  0
 35 68  1  0  0  0
 36 56  1  0  0  0
 36109  1  0  0  0
 37 39  1  0  0  0
 37 47  1  0  0  0
 37 66  1  0  0  0
 37110  1  0  0  0
 38 43  2  0  0  0
 38 46  1  0  0  0
 38 47  1  0  0  0
 39 64  1  0  0  0
 39 67  2  0  0  0
 40 52  1  0  0  0
 40 53  2  0  0  0
 40 58  1  0  0  0
 41111  1  0  0  0
 41112  1  0  0  0
 41113  1  0  0  0
 41 48  1  0  0  0
 42 43  1  0  0  0
 42 66  1  0  0  0
 42114  1  0  0  0
 42115  1  0  0  0
 43 44  1  0  0  0
 44116  1  0  0  0
 45 46  2  0  0  0
 45117  1  0  0  0
 46118  1  0  0  0
 47119  1  0  0  0
 47120  1  0  0  0
 48 56  1  0  0  0
 48 65  1  0  0  0
 48121  1  0  0  0
 49 50  1  0  0  0
 49 53  1  0  0  0
 49 64  1  0  0  0
 49122  1  0  0  0
 50 51  1  0  0  0
 50123  1  0  0  0
 50124  1  0  0  0
 51 52  1  0  0  0
 51125  1  0  0  0
 51126  1  0  0  0
 52127  1  0  0  0
 52128  1  0  0  0
 53 54  1  0  0  0
 54 55  2  0  0  0
 54129  1  0  0  0
 55 57  1  0  0  0
 55130  1  0  0  0
 56 69  2  0  0  0
 57 58  2  0  0  0
 57131  1  0  0  0
 58132  1  0  0  0
 59 60  1  0  0  0
 59 61  1  0  0  0
 59 62  1  0  0  0
 60133  1  0  0  0
 60134  1  0  0  0
 60135  1  0  0  0
 61136  1  0  0  0
 61137  1  0  0  0
 61138  1  0  0  0
 62139  1  0  0  0
 62140  1  0  0  0
 62141  1  0  0  0
 63 65  1  0  0  0
 63142  1  0  0  0
 63143  1  0  0  0
 63144  1  0  0  0
 64145  1  0  0  0
 65146  1  0  0  0
 68 83  1  0  0  0
 71 73  2  0  0  0
 71 74  1  0  0  0
 71147  1  0  0  0
 72 73  1  0  0  0
 72 75  2  0  0  0
 72148  1  0  0  0
 73 81  1  0  0  0
 74 84  1  0  0  0
 74 85  2  0  0  0
 75 85  1  0  0  0
 75 87  1  0  0  0
 76 78  1  0  0  0
 76 80  1  0  0  0
 76149  1  0  0  0
 76150  1  0  0  0
 77 79  1  0  0  0
 77 80  1  0  0  0
 77151  1  0  0  0
 77152  1  0  0  0
 78 86  1  0  0  0
 78153  1  0  0  0
 78154  1  0  0  0
 79 86  1  0  0  0
 79155  1  0  0  0
 79156  1  0  0  0
 80 87  1  0  0  0
 80157  1  0  0  0
 81158  1  0  0  0
 81159  1  0  0  0
 81160  1  0  0  0
 82161  1  0  0  0
 82162  1  0  0  0
 82163  1  0  0  0
 82 84  1  0  0  0
 83 84  1  0  0  0
 83164  1  0  0  0
 83165  1  0  0  0
 84166  1  0  0  0
 87167  1  0  0  0
M  ISO  4   1 100  68 101  83 101  86 100
M  END
> <chiral flag>
0

> <version>
0

> <s_m_source_file>
/data/baiqing/PycharmProjects/Reinvent-master-3.2/result/LINK_invent/BTK/process_docking_weight1_custom_sum_contain_oxygen_bond_distance_aromatic_linkinvent_7_9_3/rearranged_h_0162.sdf

> <i_m_source_file_index>
50

> <r_mmod_Potential_Energy-OPLS-2005>
12.6204967498779

> <r_mmod_Stretch_Energy-OPLS-2005>
43.50390625

> <r_mmod_Bend_Energy-OPLS-2005>
101.752494812012

> <r_mmod_Torsional_Energy-OPLS-2005>
382.056457519531

> <r_mmod_Improper_Torsional_Energy-OPLS-2005>
18.7824859619141

> <r_mmod_Van_der_Waal_Energy-OPLS-2005>
151.056793212891

> <r_mmod_Electrostatic_Energy-OPLS-2005>
-483.691009521484

> <r_mmod_Solvation_Energy-OPLS-2005>
-218.224807739258

> <b_mmod_Minimization_Converged-OPLS-2005>
0

> <r_mmod_RMS_Derivative-OPLS-2005>
3.28867101669312

$$$$
50
                    3D
 Structure written by MMmdl.
160169  0  0  1  0            999 V2000
  -30.5984  -14.8801   20.3966 C   0  0  0  0  0  0
  -30.4372  -12.5381   19.4835 C   0  0  0  0  0  0
  -29.5174  -12.4961   18.2449 C   0  0  0  0  0  0
  -28.0499  -12.2976   18.6701 C   0  0  0  0  0  0
  -27.6301  -13.2370   19.8319 C   0  0  2  0  0  0
  -28.6806  -13.2758   20.9615 C   0  0  0  0  0  0
  -25.2500  -13.8203   20.5723 C   0  0  0  0  0  0
  -24.1794  -13.0444   20.9235 C   0  0  0  0  0  0
  -24.6396  -11.6926   20.8776 C   0  0  0  0  0  0
  -23.9084  -10.4303   21.0415 C   0  0  0  0  0  0
  -24.3635   -9.4210   21.9179 C   0  0  0  0  0  0
  -23.6307   -8.2250   22.0750 C   0  0  0  0  0  0
  -22.4294   -8.0278   21.3531 C   0  0  0  0  0  0
  -21.9933   -9.0264   20.4640 C   0  0  0  0  0  0
  -22.7263  -10.2142   20.3050 C   0  0  0  0  0  0
  -21.6861   -6.0725   22.5278 C   0  0  0  0  0  0
  -21.4017   -6.5630   23.8212 C   0  0  0  0  0  0
  -21.3681   -5.6790   24.9180 C   0  0  0  0  0  0
  -21.6055   -4.3051   24.7227 C   0  0  0  0  0  0
  -21.8809   -3.8133   23.4351 C   0  0  0  0  0  0
  -21.9188   -4.6948   22.3405 C   0  0  0  0  0  0
  -22.7814  -13.5222   21.1872 C   0  0  0  0  0  0
  -22.1648   -4.2141   21.0981 F   0  0  0  0  0  0
  -21.5652   -3.4524   25.7734 F   0  0  0  0  0  0
  -29.9613  -13.6473   20.3461 N   0  0  0  0  0  0
  -26.2904  -12.9406   20.3248 N   0  0  0  0  0  0
  -25.9325  -11.6551   20.5763 N   0  0  0  0  0  0
  -22.0465  -12.8239   22.0445 N   0  0  0  0  0  0
  -25.4235  -15.1923   20.4189 N   0  0  0  0  0  0
  -31.8250  -14.9046   20.2553 O   0  0  0  0  0  0
  -21.6659   -6.8865   21.4232 O   0  0  0  0  0  0
  -22.3504  -14.5512   20.6686 O   0  0  0  0  0  0
  -24.6428  -31.8482   23.1949 C   0  0  0  0  0  0
  -25.9209  -32.4714   23.8321 C   0  0  1  0  0  0
  -27.2050  -27.1647   20.1329 C   0  0  0  0  0  0
  -25.5974  -33.8520   24.2235 N   0  0  0  0  0  0
  -23.4438  -30.4747   21.5405 C   0  0  2  0  0  0
  -24.8910  -28.9197   20.1074 C   0  0  0  0  0  0
  -22.7558  -29.4581   22.4869 C   0  0  0  0  0  0
  -18.0302  -28.1399   22.8467 C   0  0  0  0  0  0
  -24.1504  -36.7278   23.2633 C   0  0  0  0  0  0
  -26.0015  -30.7282   21.3945 C   0  0  0  0  0  0
  -26.0702  -29.3457   20.7322 C   0  0  0  0  0  0
  -27.2288  -28.4825   20.7378 C   0  0  0  0  0  0
  -26.0023  -26.8589   19.4463 C   0  0  0  0  0  0
  -24.8692  -27.6878   19.4494 C   0  0  0  0  0  0
  -23.6676  -29.8157   20.1566 C   0  0  0  0  0  0
  -25.4127  -36.3045   24.0316 C   0  0  1  0  0  0
  -20.5915  -28.3721   23.1227 C   0  0  2  0  0  0
  -20.6798  -26.9430   22.5387 C   0  0  0  0  0  0
  -19.5770  -26.6384   21.5198 C   0  0  0  0  0  0
  -18.1952  -26.7936   22.1614 C   0  0  0  0  0  0
  -19.1560  -28.8876   23.2839 C   0  0  0  0  0  0
  -18.9476  -30.1475   23.8866 C   0  0  0  0  0  0
  -17.6471  -30.6583   24.0555 C   0  0  0  0  0  0
  -25.9071  -34.9416   23.5071 C   0  0  0  0  0  0
  -16.5359  -29.9077   23.6342 C   0  0  0  0  0  0
  -16.7287  -28.6500   23.0352 C   0  0  0  0  0  0
  -26.4533  -31.6563   25.0748 C   0  0  0  0  0  0
  -25.3728  -31.3763   26.1451 C   0  0  0  0  0  0
  -27.0376  -30.2950   24.6320 C   0  0  0  0  0  0
  -27.6084  -32.4313   25.7517 C   0  0  0  0  0  0
  -27.5591  -37.1786   24.8449 C   0  0  0  0  0  0
  -21.4256  -29.3059   22.3609 N   0  0  0  0  0  0
  -26.4289  -37.3760   23.9409 N   0  0  0  0  0  0
  -24.7158  -31.0374   22.0979 N   0  0  0  0  0  0
  -23.4206  -28.8097   23.2980 O   0  0  0  0  0  0
  -28.2257  -26.1481   20.2233 O   0  0  0  0  0  0
  -26.5637  -34.8894   22.4638 O   0  0  0  0  0  0
  -23.5548  -32.1349   23.7178 O   0  0  0  0  0  0
  -28.1868  -20.7812   19.4452 C   0  0  0  0  0  0
  -27.8078  -22.1626   19.4211 C   0  0  0  0  0  0
  -29.3058  -20.2609   20.1579 C   0  0  0  0  0  0
  -28.4697  -23.2212   20.1110 C   0  0  0  0  0  0
  -29.9840  -21.3063   20.8981 C   0  0  0  0  0  0
  -29.5687  -22.7237   20.9007 C   0  0  0  0  0  0
  -29.0461  -17.9432   18.8224 C   0  0  0  0  0  0
  -29.5306  -16.4698   18.8653 C   0  0  0  0  0  0
  -29.9866  -17.4658   20.9265 C   0  0  0  0  0  0
  -29.8178  -18.7140   19.8944 C   0  0  2  0  0  0
  -31.2299  -20.8916   21.6693 C   0  0  0  0  0  0
  -30.3091  -23.7276   21.7709 C   0  0  0  0  0  0
  -27.7736  -24.6997   19.9553 C   0  0  0  0  0  0
  -29.8526  -16.0762   20.2506 N   0  0  0  0  0  0
  -31.4739  -12.6757   19.1753 H   0  0  0  0  0  0
  -30.4062  -11.5908   20.0233 H   0  0  0  0  0  0
  -29.8261  -11.6904   17.5773 H   0  0  0  0  0  0
  -29.6140  -13.4198   17.6732 H   0  0  0  0  0  0
  -27.9458  -11.2593   18.9884 H   0  0  0  0  0  0
  -27.3839  -12.4187   17.8155 H   0  0  0  0  0  0
  -27.5842  -14.2348   19.4023 H   0  0  0  0  0  0
  -28.7531  -12.3155   21.4747 H   0  0  0  0  0  0
  -28.3964  -14.0142   21.7130 H   0  0  0  0  0  0
  -25.2764   -9.5700   22.4774 H   0  0  0  0  0  0
  -24.0006   -7.4656   22.7480 H   0  0  0  0  0  0
  -21.0860   -8.8798   19.8959 H   0  0  0  0  0  0
  -22.3705  -10.9695   19.6185 H   0  0  0  0  0  0
  -21.1995   -7.6138   23.9716 H   0  0  0  0  0  0
  -21.1525   -6.0517   25.9092 H   0  0  0  0  0  0
  -22.0566   -2.7587   23.2859 H   0  0  0  0  0  0
  -22.4089  -11.9916   22.4855 H   0  0  0  0  0  0
  -21.1082  -13.1275   22.2631 H   0  0  0  0  0  0
  -24.6655  -15.8542   20.5488 H   0  0  0  0  0  0
  -26.2896  -15.6282   20.1295 H   0  0  0  0  0  0
  -26.7274  -32.5330   23.1053 H   0  0  0  0  0  0
  -25.0141  -33.9648   25.0392 H   0  0  0  0  0  0
  -22.7455  -31.3007   21.3921 H   0  0  0  0  0  0
  -23.3763  -35.9612   23.3262 H   0  0  0  0  0  0
  -24.3604  -36.8940   22.2055 H   0  0  0  0  0  0
  -23.7246  -37.6460   23.6687 H   0  0  0  0  0  0
  -26.1575  -31.4844   20.6235 H   0  0  0  0  0  0
  -26.8722  -30.7732   22.0368 H   0  0  0  0  0  0
  -28.1185  -28.7967   21.2650 H   0  0  0  0  0  0
  -25.8716  -25.9354   18.9061 H   0  0  0  0  0  0
  -23.9740  -27.3627   18.9368 H   0  0  0  0  0  0
  -23.7997  -30.5929   19.4034 H   0  0  0  0  0  0
  -22.7838  -29.2569   19.8453 H   0  0  0  0  0  0
  -25.1306  -36.1887   25.0807 H   0  0  0  0  0  0
  -21.0012  -28.3310   24.1345 H   0  0  0  0  0  0
  -20.5696  -26.2337   23.3603 H   0  0  0  0  0  0
  -21.6663  -26.7448   22.1177 H   0  0  0  0  0  0
  -19.6938  -25.6288   21.1247 H   0  0  0  0  0  0
  -19.6710  -27.3174   20.6714 H   0  0  0  0  0  0
  -17.4224  -26.6667   21.4021 H   0  0  0  0  0  0
  -18.0361  -26.0080   22.9013 H   0  0  0  0  0  0
  -19.7952  -30.7300   24.2220 H   0  0  0  0  0  0
  -17.5021  -31.6258   24.5167 H   0  0  0  0  0  0
  -15.5362  -30.2962   23.7687 H   0  0  0  0  0  0
  -15.8688  -28.0807   22.7083 H   0  0  0  0  0  0
  -24.5902  -30.7112   25.7782 H   0  0  0  0  0  0
  -24.8926  -32.2952   26.4826 H   0  0  0  0  0  0
  -25.8017  -30.8970   27.0260 H   0  0  0  0  0  0
  -26.2983  -29.6679   24.1326 H   0  0  0  0  0  0
  -27.3967  -29.7245   25.4893 H   0  0  0  0  0  0
  -27.8912  -30.4158   23.9650 H   0  0  0  0  0  0
  -27.2687  -33.3610   26.2091 H   0  0  0  0  0  0
  -28.3896  -32.6874   25.0349 H   0  0  0  0  0  0
  -28.0755  -31.8445   26.5434 H   0  0  0  0  0  0
  -28.2572  -38.0119   24.7528 H   0  0  0  0  0  0
  -28.1124  -36.2648   24.6229 H   0  0  0  0  0  0
  -27.2318  -37.1369   25.8851 H   0  0  0  0  0  0
  -20.9467  -29.8793   21.6810 H   0  0  0  0  0  0
  -26.0163  -38.2827   24.1421 H   0  0  0  0  0  0
  -27.5954  -20.1172   18.8337 H   0  0  0  0  0  0
  -26.9410  -22.4181   18.8268 H   0  0  0  0  0  0
  -27.9818  -17.9564   19.0545 H   0  0  0  0  0  0
  -29.1702  -18.3849   17.8333 H   0  0  0  0  0  0
  -30.4306  -16.3787   18.2530 H   0  0  0  0  0  0
  -28.7875  -15.8113   18.4186 H   0  0  0  0  0  0
  -29.2114  -17.5263   21.6901 H   0  0  0  0  0  0
  -30.9400  -17.5326   21.4500 H   0  0  0  0  0  0
  -30.8174  -18.8634   19.4796 H   0  0  0  0  0  0
  -31.1798  -19.8464   21.9678 H   0  0  0  0  0  0
  -31.3736  -21.4601   22.5865 H   0  0  0  0  0  0
  -32.1152  -21.0169   21.0451 H   0  0  0  0  0  0
  -29.8643  -24.7205   21.7141 H   0  0  0  0  0  0
  -31.3510  -23.8170   21.4636 H   0  0  0  0  0  0
  -30.2766  -23.4269   22.8185 H   0  0  0  0  0  0
  -26.8201  -24.5730   20.4699 H   0  0  0  0  0  0
  -27.5558  -24.7034   18.8871 H   0  0  0  0  0  0
  1 25  1  0  0  0
  1 30  2  0  0  0
  1 84  1  0  0  0
  2  3  1  0  0  0
  2 25  1  0  0  0
  2 85  1  0  0  0
  2 86  1  0  0  0
  3  4  1  0  0  0
  3 87  1  0  0  0
  3 88  1  0  0  0
  4  5  1  0  0  0
  4 89  1  0  0  0
  4 90  1  0  0  0
  5  6  1  0  0  0
  5 26  1  0  0  0
  5 91  1  0  0  0
  6 25  1  0  0  0
  6 92  1  0  0  0
  6 93  1  0  0  0
  7  8  2  0  0  0
  7 26  1  0  0  0
  7 29  1  0  0  0
  8  9  1  0  0  0
  8 22  1  0  0  0
  9 10  1  0  0  0
  9 27  2  0  0  0
 10 11  2  0  0  0
 10 15  1  0  0  0
 11 12  1  0  0  0
 11 94  1  0  0  0
 12 13  2  0  0  0
 12 95  1  0  0  0
 13 14  1  0  0  0
 13 31  1  0  0  0
 14 15  2  0  0  0
 14 96  1  0  0  0
 15 97  1  0  0  0
 16 17  2  0  0  0
 16 21  1  0  0  0
 16 31  1  0  0  0
 17 18  1  0  0  0
 17 98  1  0  0  0
 18 19  2  0  0  0
 18 99  1  0  0  0
 19 20  1  0  0  0
 19 24  1  0  0  0
 20 21  2  0  0  0
 20100  1  0  0  0
 21 23  1  0  0  0
 22 28  1  0  0  0
 22 32  2  0  0  0
 26 27  1  0  0  0
 28101  1  0  0  0
 28102  1  0  0  0
 29103  1  0  0  0
 29104  1  0  0  0
 33 34  1  0  0  0
 33 66  1  0  0  0
 33 70  2  0  0  0
 34 36  1  0  0  0
 34 59  1  0  0  0
 34105  1  0  0  0
 35 44  2  0  0  0
 35 45  1  0  0  0
 35 68  1  0  0  0
 36 56  1  0  0  0
 36106  1  0  0  0
 37 39  1  0  0  0
 37 47  1  0  0  0
 37 66  1  0  0  0
 37107  1  0  0  0
 38 43  2  0  0  0
 38 46  1  0  0  0
 38 47  1  0  0  0
 39 64  1  0  0  0
 39 67  2  0  0  0
 40 52  1  0  0  0
 40 53  2  0  0  0
 40 58  1  0  0  0
 41108  1  0  0  0
 41109  1  0  0  0
 41110  1  0  0  0
 41 48  1  0  0  0
 42 43  1  0  0  0
 42 66  1  0  0  0
 42111  1  0  0  0
 42112  1  0  0  0
 43 44  1  0  0  0
 44113  1  0  0  0
 45 46  2  0  0  0
 45114  1  0  0  0
 46115  1  0  0  0
 47116  1  0  0  0
 47117  1  0  0  0
 48 56  1  0  0  0
 48 65  1  0  0  0
 48118  1  0  0  0
 49 50  1  0  0  0
 49 53  1  0  0  0
 49 64  1  0  0  0
 49119  1  0  0  0
 50 51  1  0  0  0
 50120  1  0  0  0
 50121  1  0  0  0
 51 52  1  0  0  0
 51122  1  0  0  0
 51123  1  0  0  0
 52124  1  0  0  0
 52125  1  0  0  0
 53 54  1  0  0  0
 54 55  2  0  0  0
 54126  1  0  0  0
 55 57  1  0  0  0
 55127  1  0  0  0
 56 69  2  0  0  0
 57 58  2  0  0  0
 57128  1  0  0  0
 58129  1  0  0  0
 59 60  1  0  0  0
 59 61  1  0  0  0
 59 62  1  0  0  0
 60130  1  0  0  0
 60131  1  0  0  0
 60132  1  0  0  0
 61133  1  0  0  0
 61134  1  0  0  0
 61135  1  0  0  0
 62136  1  0  0  0
 62137  1  0  0  0
 62138  1  0  0  0
 63 65  1  0  0  0
 63139  1  0  0  0
 63140  1  0  0  0
 63141  1  0  0  0
 64142  1  0  0  0
 65143  1  0  0  0
 68 83  1  0  0  0
 71 72  2  0  0  0
 71 73  1  0  0  0
 71144  1  0  0  0
 72 74  1  0  0  0
 72145  1  0  0  0
 73 75  2  0  0  0
 73 80  1  0  0  0
 74 76  2  0  0  0
 74 83  1  0  0  0
 75 76  1  0  0  0
 75 81  1  0  0  0
 76 82  1  0  0  0
 77 78  1  0  0  0
 77 80  1  0  0  0
 77146  1  0  0  0
 77147  1  0  0  0
 78 84  1  0  0  0
 78148  1  0  0  0
 78149  1  0  0  0
 79 80  1  0  0  0
 79 84  1  0  0  0
 79150  1  0  0  0
 79151  1  0  0  0
 80152  1  0  0  0
 81153  1  0  0  0
 81154  1  0  0  0
 81155  1  0  0  0
 82156  1  0  0  0
 82157  1  0  0  0
 82158  1  0  0  0
 83159  1  0  0  0
 83160  1  0  0  0
M  ISO  4   1 100  68 101  83 101  84 100
M  END
> <chiral flag>
0

> <version>
0

> <s_m_source_file>
/data/baiqing/PycharmProjects/Reinvent-master-3.2/result/LINK_invent/BTK/process_docking_weight1_custom_sum_contain_oxygen_bond_distance_aromatic_linkinvent_7_9_3/rearranged_h_0162.sdf

> <i_m_source_file_index>
51

> <r_mmod_Potential_Energy-OPLS-2005>
682.250427246094

> <r_mmod_Stretch_Energy-OPLS-2005>
195.950271606445

> <r_mmod_Bend_Energy-OPLS-2005>
304.924713134766

> <r_mmod_Torsional_Energy-OPLS-2005>
349.522552490234

> <r_mmod_Improper_Torsional_Energy-OPLS-2005>
14.7107648849487

> <r_mmod_Van_der_Waal_Energy-OPLS-2005>
142.968856811523

> <r_mmod_Electrostatic_Energy-OPLS-2005>
-301.193695068359

> <r_mmod_Solvation_Energy-OPLS-2005>
-195.155319213867

> <b_mmod_Minimization_Converged-OPLS-2005>
0

> <r_mmod_RMS_Derivative-OPLS-2005>
2.42085385322571

$$$$
51
                    3D
 Structure written by MMmdl.
170180  0  0  1  0            999 V2000
  -30.6901  -14.6232   20.4997 C   0  0  0  0  0  0
  -30.4247  -12.3838   19.4553 C   0  0  0  0  0  0
  -29.5050  -12.4927   18.2209 C   0  0  0  0  0  0
  -28.0269  -12.3500   18.6329 C   0  0  0  0  0  0
  -27.6514  -13.2268   19.8586 C   0  0  2  0  0  0
  -28.6986  -13.1064   20.9873 C   0  0  0  0  0  0
  -25.2567  -13.8191   20.5704 C   0  0  0  0  0  0
  -24.1854  -13.0451   20.9205 C   0  0  0  0  0  0
  -24.6432  -11.6921   20.8764 C   0  0  0  0  0  0
  -23.9115  -10.4305   21.0430 C   0  0  0  0  0  0
  -24.3647   -9.4201   21.9203 C   0  0  0  0  0  0
  -23.6301   -8.2239   22.0763 C   0  0  0  0  0  0
  -22.4279   -8.0294   21.3557 C   0  0  0  0  0  0
  -21.9936   -9.0285   20.4651 C   0  0  0  0  0  0
  -22.7289  -10.2151   20.3069 C   0  0  0  0  0  0
  -21.6845   -6.0743   22.5288 C   0  0  0  0  0  0
  -21.3997   -6.5639   23.8215 C   0  0  0  0  0  0
  -21.3676   -5.6791   24.9186 C   0  0  0  0  0  0
  -21.6047   -4.3053   24.7230 C   0  0  0  0  0  0
  -21.8811   -3.8151   23.4347 C   0  0  0  0  0  0
  -21.9190   -4.6972   22.3409 C   0  0  0  0  0  0
  -22.7860  -13.5221   21.1869 C   0  0  0  0  0  0
  -22.1658   -4.2155   21.0983 F   0  0  0  0  0  0
  -21.5655   -3.4544   25.7746 F   0  0  0  0  0  0
  -30.0069  -13.4351   20.4059 N   0  0  0  0  0  0
  -26.3004  -12.9389   20.3324 N   0  0  0  0  0  0
  -25.9365  -11.6532   20.5759 N   0  0  0  0  0  0
  -22.0524  -12.8205   22.0399 N   0  0  0  0  0  0
  -25.4266  -15.1915   20.4101 N   0  0  0  0  0  0
  -31.8883  -14.6670   20.2017 O   0  0  0  0  0  0
  -21.6629   -6.8899   21.4245 O   0  0  0  0  0  0
  -22.3550  -14.5552   20.6733 O   0  0  0  0  0  0
  -24.6232  -31.8625   23.1991 C   0  0  0  0  0  0
  -25.9123  -32.4770   23.8305 C   0  0  1  0  0  0
  -27.2141  -27.3242   20.1209 C   0  0  0  0  0  0
  -25.5948  -33.8566   24.2258 N   0  0  0  0  0  0
  -23.4141  -30.4861   21.5388 C   0  0  2  0  0  0
  -24.8581  -28.9324   20.1142 C   0  0  0  0  0  0
  -22.7450  -29.4635   22.4879 C   0  0  0  0  0  0
  -18.0292  -28.1371   22.8439 C   0  0  0  0  0  0
  -24.1486  -36.7300   23.2633 C   0  0  0  0  0  0
  -25.9516  -30.7932   21.3635 C   0  0  0  0  0  0
  -26.0265  -29.4167   20.7162 C   0  0  0  0  0  0
  -27.2107  -28.6257   20.7070 C   0  0  0  0  0  0
  -26.0212  -26.8781   19.5170 C   0  0  0  0  0  0
  -24.8551  -27.6665   19.5095 C   0  0  0  0  0  0
  -23.6292  -29.8184   20.1541 C   0  0  0  0  0  0
  -25.4106  -36.3064   24.0307 C   0  0  1  0  0  0
  -20.5871  -28.3683   23.1244 C   0  0  2  0  0  0
  -20.6769  -26.9404   22.5389 C   0  0  0  0  0  0
  -19.5763  -26.6366   21.5165 C   0  0  0  0  0  0
  -18.1946  -26.7902   22.1590 C   0  0  0  0  0  0
  -19.1543  -28.8845   23.2838 C   0  0  0  0  0  0
  -18.9498  -30.1445   23.8864 C   0  0  0  0  0  0
  -17.6505  -30.6573   24.0557 C   0  0  0  0  0  0
  -25.9062  -34.9439   23.5074 C   0  0  0  0  0  0
  -16.5387  -29.9074   23.6325 C   0  0  0  0  0  0
  -16.7291  -28.6495   23.0326 C   0  0  0  0  0  0
  -26.4502  -31.6567   25.0691 C   0  0  0  0  0  0
  -25.3775  -31.3705   26.1452 C   0  0  0  0  0  0
  -27.0306  -30.2975   24.6116 C   0  0  0  0  0  0
  -27.6037  -32.4289   25.7510 C   0  0  0  0  0  0
  -27.5564  -37.1799   24.8466 C   0  0  0  0  0  0
  -21.4167  -29.3070   22.3664 N   0  0  0  0  0  0
  -26.4280  -37.3764   23.9406 N   0  0  0  0  0  0
  -24.6816  -31.0632   22.0924 N   0  0  0  0  0  0
  -23.4200  -28.8161   23.2942 O   0  0  0  0  0  0
  -28.3447  -26.5012   20.1006 O   0  0  0  0  0  0
  -26.5614  -34.8895   22.4631 O   0  0  0  0  0  0
  -23.5396  -32.1453   23.7327 O   0  0  0  0  0  0
  -30.5785  -22.9534   21.2195 C   0  0  0  0  0  0
  -31.3585  -21.9289   21.7852 C   0  0  0  0  0  0
  -29.1304  -21.2720   20.2368 C   0  0  0  0  0  0
  -29.4507  -22.6710   20.4243 C   0  0  0  0  0  0
  -29.9170  -20.1956   20.7941 C   0  0  0  0  0  0
  -31.0635  -20.5605   21.5627 C   0  0  0  0  0  0
  -27.3745  -24.3163   17.5030 C   0  0  0  0  0  0
  -28.0952  -23.0080   17.3066 C   0  0  0  0  0  0
  -30.6330  -18.1511   19.6819 C   0  0  0  0  0  0
  -29.3441  -17.9455   21.7070 C   0  0  0  0  0  0
  -30.2041  -16.7218   19.2538 C   0  0  0  0  0  0
  -29.0874  -16.4151   21.4017 C   0  0  0  0  0  0
  -27.7066  -23.4567   18.7032 C   0  0  0  0  0  0
  -33.2678  -19.8310   22.1717 C   0  0  0  0  0  0
  -28.2246  -25.1134   20.6001 C   0  0  0  0  0  0
  -28.7638  -23.9030   19.7036 C   0  0  1  0  0  0
  -29.6295  -18.8056   20.5327 N   0  0  0  0  0  0
  -29.9627  -15.7890   20.3793 N   0  0  0  0  0  0
  -31.8733  -19.5653   22.0729 O   0  0  0  0  0  0
  -31.4681  -12.4822   19.1542 H   0  0  0  0  0  0
  -30.3375  -11.3967   19.9127 H   0  0  0  0  0  0
  -29.7613  -11.7236   17.4916 H   0  0  0  0  0  0
  -29.6665  -13.4497   17.7223 H   0  0  0  0  0  0
  -27.8551  -11.2981   18.8672 H   0  0  0  0  0  0
  -27.3747  -12.5872   17.7912 H   0  0  0  0  0  0
  -27.6620  -14.2618   19.5134 H   0  0  0  0  0  0
  -28.7065  -12.0952   21.3975 H   0  0  0  0  0  0
  -28.4525  -13.7682   21.8162 H   0  0  0  0  0  0
  -25.2802   -9.5651   22.4777 H   0  0  0  0  0  0
  -24.0021   -7.4614   22.7456 H   0  0  0  0  0  0
  -21.0883   -8.8808   19.8940 H   0  0  0  0  0  0
  -22.3778  -10.9693   19.6171 H   0  0  0  0  0  0
  -21.1950   -7.6137   23.9715 H   0  0  0  0  0  0
  -21.1521   -6.0525   25.9085 H   0  0  0  0  0  0
  -22.0575   -2.7612   23.2842 H   0  0  0  0  0  0
  -22.4143  -11.9858   22.4774 H   0  0  0  0  0  0
  -21.1139  -13.1224   22.2608 H   0  0  0  0  0  0
  -24.6639  -15.8492   20.5253 H   0  0  0  0  0  0
  -26.2746  -15.6262   20.0717 H   0  0  0  0  0  0
  -26.7151  -32.5452   23.0992 H   0  0  0  0  0  0
  -25.0080  -33.9714   25.0398 H   0  0  0  0  0  0
  -22.7087  -31.3083   21.3946 H   0  0  0  0  0  0
  -23.3725  -35.9663   23.3301 H   0  0  0  0  0  0
  -24.3570  -36.8949   22.2057 H   0  0  0  0  0  0
  -23.7299  -37.6523   23.6660 H   0  0  0  0  0  0
  -26.0745  -31.5507   20.5861 H   0  0  0  0  0  0
  -26.8318  -30.8494   21.9922 H   0  0  0  0  0  0
  -28.1097  -29.0015   21.1740 H   0  0  0  0  0  0
  -25.9729  -25.9052   19.0542 H   0  0  0  0  0  0
  -23.9574  -27.2829   19.0474 H   0  0  0  0  0  0
  -23.7553  -30.5982   19.4004 H   0  0  0  0  0  0
  -22.7477  -29.2522   19.8501 H   0  0  0  0  0  0
  -25.1283  -36.1870   25.0804 H   0  0  0  0  0  0
  -20.9957  -28.3264   24.1366 H   0  0  0  0  0  0
  -20.5635  -26.2323   23.3607 H   0  0  0  0  0  0
  -21.6651  -26.7419   22.1239 H   0  0  0  0  0  0
  -19.6954  -25.6269   21.1227 H   0  0  0  0  0  0
  -19.6704  -27.3152   20.6664 H   0  0  0  0  0  0
  -17.4227  -26.6615   21.3999 H   0  0  0  0  0  0
  -18.0398  -26.0040   22.8996 H   0  0  0  0  0  0
  -19.8007  -30.7241   24.2211 H   0  0  0  0  0  0
  -17.5097  -31.6245   24.5181 H   0  0  0  0  0  0
  -15.5408  -30.2998   23.7655 H   0  0  0  0  0  0
  -15.8680  -28.0830   22.7020 H   0  0  0  0  0  0
  -24.5964  -30.7006   25.7841 H   0  0  0  0  0  0
  -24.8930  -32.2884   26.4813 H   0  0  0  0  0  0
  -25.8149  -30.8985   27.0267 H   0  0  0  0  0  0
  -26.2869  -29.6778   24.1109 H   0  0  0  0  0  0
  -27.4002  -29.7144   25.4558 H   0  0  0  0  0  0
  -27.8711  -30.4248   23.9292 H   0  0  0  0  0  0
  -27.2612  -33.3597   26.2024 H   0  0  0  0  0  0
  -28.3894  -32.6870   25.0410 H   0  0  0  0  0  0
  -28.0640  -31.8494   26.5523 H   0  0  0  0  0  0
  -28.2549  -38.0114   24.7468 H   0  0  0  0  0  0
  -28.1071  -36.2642   24.6289 H   0  0  0  0  0  0
  -27.2282  -37.1444   25.8870 H   0  0  0  0  0  0
  -20.9340  -29.8879   21.6934 H   0  0  0  0  0  0
  -26.0140  -38.2818   24.1436 H   0  0  0  0  0  0
  -30.8843  -23.9796   21.3625 H   0  0  0  0  0  0
  -32.2143  -22.2264   22.3728 H   0  0  0  0  0  0
  -28.2942  -21.0099   19.6041 H   0  0  0  0  0  0
  -26.3352  -24.3636   17.1829 H   0  0  0  0  0  0
  -27.9413  -25.2388   17.3814 H   0  0  0  0  0  0
  -29.1469  -23.0546   17.0260 H   0  0  0  0  0  0
  -27.5361  -22.1898   16.8573 H   0  0  0  0  0  0
  -30.8031  -18.7485   18.7840 H   0  0  0  0  0  0
  -31.5976  -18.0980   20.1917 H   0  0  0  0  0  0
  -30.1646  -18.0056   22.4216 H   0  0  0  0  0  0
  -28.4803  -18.3480   22.2397 H   0  0  0  0  0  0
  -30.9522  -16.3242   18.5640 H   0  0  0  0  0  0
  -29.2842  -16.7753   18.6711 H   0  0  0  0  0  0
  -28.0650  -16.2948   21.0457 H   0  0  0  0  0  0
  -29.1466  -15.8584   22.3392 H   0  0  0  0  0  0
  -26.8651  -22.9403   19.1614 H   0  0  0  0  0  0
  -33.6603  -20.2236   21.2310 H   0  0  0  0  0  0
  -33.7999  -18.9026   22.3884 H   0  0  0  0  0  0
  -33.4960  -20.5289   22.9777 H   0  0  0  0  0  0
  -27.2065  -24.8935   20.9301 H   0  0  0  0  0  0
  -28.8074  -25.1290   21.5200 H   0  0  0  0  0  0
  -29.5757  -24.3314   19.1122 H   0  0  0  0  0  0
  1 25  1  0  0  0
  1 30  2  0  0  0
  1 88  1  0  0  0
  2  3  1  0  0  0
  2 25  1  0  0  0
  2 90  1  0  0  0
  2 91  1  0  0  0
  3  4  1  0  0  0
  3 92  1  0  0  0
  3 93  1  0  0  0
  4  5  1  0  0  0
  4 94  1  0  0  0
  4 95  1  0  0  0
  5  6  1  0  0  0
  5 26  1  0  0  0
  5 96  1  0  0  0
  6 25  1  0  0  0
  6 97  1  0  0  0
  6 98  1  0  0  0
  7  8  2  0  0  0
  7 26  1  0  0  0
  7 29  1  0  0  0
  8  9  1  0  0  0
  8 22  1  0  0  0
  9 10  1  0  0  0
  9 27  2  0  0  0
 10 11  2  0  0  0
 10 15  1  0  0  0
 11 12  1  0  0  0
 11 99  1  0  0  0
 12 13  2  0  0  0
 12100  1  0  0  0
 13 14  1  0  0  0
 13 31  1  0  0  0
 14 15  2  0  0  0
 14101  1  0  0  0
 15102  1  0  0  0
 16 17  2  0  0  0
 16 21  1  0  0  0
 16 31  1  0  0  0
 17 18  1  0  0  0
 17103  1  0  0  0
 18 19  2  0  0  0
 18104  1  0  0  0
 19 20  1  0  0  0
 19 24  1  0  0  0
 20 21  2  0  0  0
 20105  1  0  0  0
 21 23  1  0  0  0
 22 28  1  0  0  0
 22 32  2  0  0  0
 26 27  1  0  0  0
 28106  1  0  0  0
 28107  1  0  0  0
 29108  1  0  0  0
 29109  1  0  0  0
 33 34  1  0  0  0
 33 66  1  0  0  0
 33 70  2  0  0  0
 34 36  1  0  0  0
 34 59  1  0  0  0
 34110  1  0  0  0
 35 44  2  0  0  0
 35 45  1  0  0  0
 35 68  1  0  0  0
 36 56  1  0  0  0
 36111  1  0  0  0
 37 39  1  0  0  0
 37 47  1  0  0  0
 37 66  1  0  0  0
 37112  1  0  0  0
 38 43  2  0  0  0
 38 46  1  0  0  0
 38 47  1  0  0  0
 39 64  1  0  0  0
 39 67  2  0  0  0
 40 52  1  0  0  0
 40 53  2  0  0  0
 40 58  1  0  0  0
 41113  1  0  0  0
 41114  1  0  0  0
 41115  1  0  0  0
 41 48  1  0  0  0
 42 43  1  0  0  0
 42 66  1  0  0  0
 42116  1  0  0  0
 42117  1  0  0  0
 43 44  1  0  0  0
 44118  1  0  0  0
 45 46  2  0  0  0
 45119  1  0  0  0
 46120  1  0  0  0
 47121  1  0  0  0
 47122  1  0  0  0
 48 56  1  0  0  0
 48 65  1  0  0  0
 48123  1  0  0  0
 49 50  1  0  0  0
 49 53  1  0  0  0
 49 64  1  0  0  0
 49124  1  0  0  0
 50 51  1  0  0  0
 50125  1  0  0  0
 50126  1  0  0  0
 51 52  1  0  0  0
 51127  1  0  0  0
 51128  1  0  0  0
 52129  1  0  0  0
 52130  1  0  0  0
 53 54  1  0  0  0
 54 55  2  0  0  0
 54131  1  0  0  0
 55 57  1  0  0  0
 55132  1  0  0  0
 56 69  2  0  0  0
 57 58  2  0  0  0
 57133  1  0  0  0
 58134  1  0  0  0
 59 60  1  0  0  0
 59 61  1  0  0  0
 59 62  1  0  0  0
 60135  1  0  0  0
 60136  1  0  0  0
 60137  1  0  0  0
 61138  1  0  0  0
 61139  1  0  0  0
 61140  1  0  0  0
 62141  1  0  0  0
 62142  1  0  0  0
 62143  1  0  0  0
 63 65  1  0  0  0
 63144  1  0  0  0
 63145  1  0  0  0
 63146  1  0  0  0
 64147  1  0  0  0
 65148  1  0  0  0
 68 85  1  0  0  0
 71 72  2  0  0  0
 71 74  1  0  0  0
 71149  1  0  0  0
 72 76  1  0  0  0
 72150  1  0  0  0
 73 74  2  0  0  0
 73 75  1  0  0  0
 73151  1  0  0  0
 74 86  1  0  0  0
 75 76  2  0  0  0
 75 87  1  0  0  0
 76 89  1  0  0  0
 77 78  1  0  0  0
 77152  1  0  0  0
 77153  1  0  0  0
 77 83  1  0  0  0
 78 83  1  0  0  0
 78154  1  0  0  0
 78155  1  0  0  0
 79 81  1  0  0  0
 79 87  1  0  0  0
 79156  1  0  0  0
 79157  1  0  0  0
 80 82  1  0  0  0
 80 87  1  0  0  0
 80158  1  0  0  0
 80159  1  0  0  0
 81 88  1  0  0  0
 81160  1  0  0  0
 81161  1  0  0  0
 82 88  1  0  0  0
 82162  1  0  0  0
 82163  1  0  0  0
 83 86  1  0  0  0
 83164  1  0  0  0
 84 89  1  0  0  0
 84165  1  0  0  0
 84166  1  0  0  0
 84167  1  0  0  0
 85168  1  0  0  0
 85169  1  0  0  0
 85 86  1  0  0  0
 86170  1  0  0  0
M  ISO  4   1 100  68 101  85 101  88 100
M  END
> <chiral flag>
0

> <version>
0

> <s_m_source_file>
/data/baiqing/PycharmProjects/Reinvent-master-3.2/result/LINK_invent/BTK/process_docking_weight1_custom_sum_contain_oxygen_bond_distance_aromatic_linkinvent_7_9_3/rearranged_h_0162.sdf

> <i_m_source_file_index>
52

> <r_mmod_Potential_Energy-OPLS-2005>
367.8134765625

> <r_mmod_Stretch_Energy-OPLS-2005>
87.0831527709961

> <r_mmod_Bend_Energy-OPLS-2005>
144.925689697266

> <r_mmod_Torsional_Energy-OPLS-2005>
437.557067871094

> <r_mmod_Improper_Torsional_Energy-OPLS-2005>
24.306360244751

> <r_mmod_Van_der_Waal_Energy-OPLS-2005>
146.016799926758

> <r_mmod_Electrostatic_Energy-OPLS-2005>
-307.740936279297

> <r_mmod_Solvation_Energy-OPLS-2005>
-210.280120849609

> <b_mmod_Minimization_Converged-OPLS-2005>
0

> <r_mmod_RMS_Derivative-OPLS-2005>
4.44703149795532

$$$$
52
                    3D
 Structure written by MMmdl.
162171  0  0  1  0            999 V2000
  -30.6607  -14.6467   20.4421 C   0  0  0  0  0  0
  -30.4217  -12.3910   19.4512 C   0  0  0  0  0  0
  -29.4967  -12.4797   18.2206 C   0  0  0  0  0  0
  -28.0260  -12.3171   18.6485 C   0  0  0  0  0  0
  -27.6435  -13.2237   19.8496 C   0  0  2  0  0  0
  -28.6918  -13.1508   20.9807 C   0  0  0  0  0  0
  -25.2545  -13.8203   20.5709 C   0  0  0  0  0  0
  -24.1811  -13.0459   20.9195 C   0  0  0  0  0  0
  -24.6394  -11.6932   20.8764 C   0  0  0  0  0  0
  -23.9066  -10.4307   21.0415 C   0  0  0  0  0  0
  -24.3617   -9.4222   21.9194 C   0  0  0  0  0  0
  -23.6286   -8.2255   22.0764 C   0  0  0  0  0  0
  -22.4269   -8.0291   21.3545 C   0  0  0  0  0  0
  -21.9910   -9.0271   20.4641 C   0  0  0  0  0  0
  -22.7246  -10.2148   20.3051 C   0  0  0  0  0  0
  -21.6854   -6.0732   22.5277 C   0  0  0  0  0  0
  -21.4012   -6.5633   23.8211 C   0  0  0  0  0  0
  -21.3656   -5.6790   24.9175 C   0  0  0  0  0  0
  -21.6047   -4.3049   24.7223 C   0  0  0  0  0  0
  -21.8823   -3.8139   23.4343 C   0  0  0  0  0  0
  -21.9193   -4.6958   22.3401 C   0  0  0  0  0  0
  -22.7839  -13.5247   21.1844 C   0  0  0  0  0  0
  -22.1663   -4.2145   21.0977 F   0  0  0  0  0  0
  -21.5629   -3.4534   25.7732 F   0  0  0  0  0  0
  -29.9976  -13.4518   20.3844 N   0  0  0  0  0  0
  -26.2956  -12.9391   20.3311 N   0  0  0  0  0  0
  -25.9323  -11.6542   20.5788 N   0  0  0  0  0  0
  -22.0469  -12.8237   22.0385 N   0  0  0  0  0  0
  -25.4276  -15.1927   20.4146 N   0  0  0  0  0  0
  -31.8694  -14.7066   20.1952 O   0  0  0  0  0  0
  -21.6645   -6.8882   21.4235 O   0  0  0  0  0  0
  -22.3539  -14.5563   20.6700 O   0  0  0  0  0  0
  -24.6247  -31.8597   23.2003 C   0  0  0  0  0  0
  -25.9088  -32.4784   23.8335 C   0  0  1  0  0  0
  -27.2285  -27.3112   20.1108 C   0  0  0  0  0  0
  -25.5904  -33.8583   24.2284 N   0  0  0  0  0  0
  -23.4169  -30.4796   21.5454 C   0  0  2  0  0  0
  -24.8635  -28.9287   20.1095 C   0  0  0  0  0  0
  -22.7463  -29.4607   22.4963 C   0  0  0  0  0  0
  -18.0283  -28.1382   22.8497 C   0  0  0  0  0  0
  -24.1476  -36.7289   23.2637 C   0  0  0  0  0  0
  -25.9544  -30.7908   21.3636 C   0  0  0  0  0  0
  -26.0304  -29.4118   20.7134 C   0  0  0  0  0  0
  -27.2104  -28.6110   20.7075 C   0  0  0  0  0  0
  -26.0333  -26.8733   19.4966 C   0  0  0  0  0  0
  -24.8668  -27.6654   19.4950 C   0  0  0  0  0  0
  -23.6299  -29.8087   20.1616 C   0  0  0  0  0  0
  -25.4106  -36.3089   24.0323 C   0  0  1  0  0  0
  -20.5874  -28.3667   23.1308 C   0  0  2  0  0  0
  -20.6764  -26.9394   22.5407 C   0  0  0  0  0  0
  -19.5741  -26.6383   21.5209 C   0  0  0  0  0  0
  -18.1921  -26.7931   22.1624 C   0  0  0  0  0  0
  -19.1528  -28.8846   23.2900 C   0  0  0  0  0  0
  -18.9453  -30.1454   23.8905 C   0  0  0  0  0  0
  -17.6453  -30.6585   24.0563 C   0  0  0  0  0  0
  -25.9039  -34.9452   23.5110 C   0  0  0  0  0  0
  -16.5347  -29.9079   23.6322 C   0  0  0  0  0  0
  -16.7270  -28.6497   23.0353 C   0  0  0  0  0  0
  -26.4489  -31.6577   25.0681 C   0  0  0  0  0  0
  -25.3744  -31.3638   26.1411 C   0  0  0  0  0  0
  -27.0335  -30.3029   24.6050 C   0  0  0  0  0  0
  -27.6059  -32.4302   25.7457 C   0  0  0  0  0  0
  -27.5573  -37.1812   24.8475 C   0  0  0  0  0  0
  -21.4169  -29.3024   22.3712 N   0  0  0  0  0  0
  -26.4294  -37.3779   23.9407 N   0  0  0  0  0  0
  -24.6855  -31.0592   22.0962 N   0  0  0  0  0  0
  -23.4201  -28.8147   23.3031 O   0  0  0  0  0  0
  -28.3740  -26.5013   20.1801 O   0  0  0  0  0  0
  -26.5620  -34.8922   22.4683 O   0  0  0  0  0  0
  -23.5410  -32.1384   23.7348 O   0  0  0  0  0  0
  -29.0174  -20.1158   19.6346 C   0  0  0  0  0  0
  -28.4512  -23.8893   20.4393 C   0  0  0  0  0  0
  -30.9083  -22.3518   22.3997 C   0  0  0  0  0  0
  -30.7456  -20.8978   22.7429 C   0  0  0  0  0  0
  -28.9580  -17.6943   18.9593 C   0  0  0  0  0  0
  -29.1182  -18.1234   21.3078 C   0  0  0  0  0  0
  -30.0074  -16.5562   19.1066 C   0  0  0  0  0  0
  -30.0171  -16.8249   21.4546 C   0  0  0  0  0  0
  -30.5383  -21.3631   21.3120 C   0  0  0  0  0  0
  -28.4950  -25.1784   19.5164 C   0  0  0  0  0  0
  -29.1456  -21.3455   20.6311 C   0  0  1  0  0  0
  -29.1106  -18.7672   19.9724 N   0  0  0  0  0  0
  -29.9066  -15.8044   20.3768 N   0  0  0  0  0  0
  -28.9323  -22.6931   19.9640 N   0  0  0  0  0  0
  -28.8434  -20.4314   18.4508 O   0  0  0  0  0  0
  -27.9912  -23.9785   21.5790 O   0  0  0  0  0  0
  -31.4638  -12.4955   19.1449 H   0  0  0  0  0  0
  -30.3437  -11.4132   19.9291 H   0  0  0  0  0  0
  -29.7621  -11.7099   17.4948 H   0  0  0  0  0  0
  -29.6307  -13.4382   17.7161 H   0  0  0  0  0  0
  -27.8837  -11.2698   18.9195 H   0  0  0  0  0  0
  -27.3606  -12.5022   17.8043 H   0  0  0  0  0  0
  -27.6432  -14.2453   19.4681 H   0  0  0  0  0  0
  -28.7055  -12.1652   21.4481 H   0  0  0  0  0  0
  -28.4547  -13.8685   21.7685 H   0  0  0  0  0  0
  -25.2749   -9.5714   22.4787 H   0  0  0  0  0  0
  -23.9994   -7.4657   22.7496 H   0  0  0  0  0  0
  -21.0842   -8.8791   19.8944 H   0  0  0  0  0  0
  -22.3698  -10.9694   19.6163 H   0  0  0  0  0  0
  -21.2004   -7.6143   23.9714 H   0  0  0  0  0  0
  -21.1470   -6.0514   25.9084 H   0  0  0  0  0  0
  -22.0599   -2.7600   23.2846 H   0  0  0  0  0  0
  -22.4061  -11.9871   22.4748 H   0  0  0  0  0  0
  -21.1093  -13.1275   22.2585 H   0  0  0  0  0  0
  -24.6674  -15.8522   20.5371 H   0  0  0  0  0  0
  -26.2947  -15.6318   20.1325 H   0  0  0  0  0  0
  -26.7153  -32.5469   23.1083 H   0  0  0  0  0  0
  -25.0045  -33.9718   25.0425 H   0  0  0  0  0  0
  -22.7080  -31.2986   21.4031 H   0  0  0  0  0  0
  -23.3740  -35.9616   23.3283 H   0  0  0  0  0  0
  -24.3558  -36.8937   22.2055 H   0  0  0  0  0  0
  -23.7217  -37.6476   23.6679 H   0  0  0  0  0  0
  -26.0616  -31.5476   20.5853 H   0  0  0  0  0  0
  -26.8467  -30.8612   21.9744 H   0  0  0  0  0  0
  -28.1078  -28.9751   21.1881 H   0  0  0  0  0  0
  -25.9558  -25.9000   19.0387 H   0  0  0  0  0  0
  -23.9689  -27.2833   19.0273 H   0  0  0  0  0  0
  -23.7464  -30.5841   19.4043 H   0  0  0  0  0  0
  -22.7494  -29.2372   19.8644 H   0  0  0  0  0  0
  -25.1289  -36.1947   25.0816 H   0  0  0  0  0  0
  -20.9969  -28.3242   24.1430 H   0  0  0  0  0  0
  -20.5661  -26.2270   23.3591 H   0  0  0  0  0  0
  -21.6640  -26.7439   22.1211 H   0  0  0  0  0  0
  -19.6888  -25.6293   21.1235 H   0  0  0  0  0  0
  -19.6688  -27.3195   20.6740 H   0  0  0  0  0  0
  -17.4197  -26.6697   21.4018 H   0  0  0  0  0  0
  -18.0305  -26.0056   22.9004 H   0  0  0  0  0  0
  -19.7929  -30.7267   24.2275 H   0  0  0  0  0  0
  -17.5007  -31.6258   24.5176 H   0  0  0  0  0  0
  -15.5343  -30.2992   23.7619 H   0  0  0  0  0  0
  -15.8672  -28.0811   22.7075 H   0  0  0  0  0  0
  -24.5980  -30.6926   25.7719 H   0  0  0  0  0  0
  -24.8841  -32.2755   26.4838 H   0  0  0  0  0  0
  -25.8107  -30.8834   27.0180 H   0  0  0  0  0  0
  -26.2877  -29.6753   24.1154 H   0  0  0  0  0  0
  -27.4183  -29.7299   25.4493 H   0  0  0  0  0  0
  -27.8669  -30.4357   23.9147 H   0  0  0  0  0  0
  -27.2728  -33.3680   26.1915 H   0  0  0  0  0  0
  -28.3933  -32.6716   25.0307 H   0  0  0  0  0  0
  -28.0622  -31.8469   26.5464 H   0  0  0  0  0  0
  -28.2599  -38.0100   24.7522 H   0  0  0  0  0  0
  -28.1071  -36.2635   24.6335 H   0  0  0  0  0  0
  -27.2287  -37.1509   25.8877 H   0  0  0  0  0  0
  -20.9340  -29.8752   21.6932 H   0  0  0  0  0  0
  -26.0169  -38.2854   24.1408 H   0  0  0  0  0  0
  -31.9190  -22.7535   22.3841 H   0  0  0  0  0  0
  -30.1459  -23.0323   22.7715 H   0  0  0  0  0  0
  -29.8762  -20.6417   23.3451 H   0  0  0  0  0  0
  -31.6425  -20.3158   22.9515 H   0  0  0  0  0  0
  -27.9485  -17.2836   19.0239 H   0  0  0  0  0  0
  -29.0546  -18.0831   17.9449 H   0  0  0  0  0  0
  -29.3935  -18.8339   22.0784 H   0  0  0  0  0  0
  -28.0867  -17.8512   21.5345 H   0  0  0  0  0  0
  -31.0121  -16.9728   19.0008 H   0  0  0  0  0  0
  -29.8845  -15.8643   18.2701 H   0  0  0  0  0  0
  -29.7830  -16.3451   22.4069 H   0  0  0  0  0  0
  -31.0629  -17.1312   21.5296 H   0  0  0  0  0  0
  -31.3471  -21.1260   20.6224 H   0  0  0  0  0  0
  -27.8278  -25.0568   18.6666 H   0  0  0  0  0  0
  -29.4916  -25.1799   19.0723 H   0  0  0  0  0  0
  -28.3699  -21.2237   21.3882 H   0  0  0  0  0  0
  -29.2298  -22.6967   18.9972 H   0  0  0  0  0  0
  1 25  1  0  0  0
  1 30  2  0  0  0
  1 83  1  0  0  0
  2  3  1  0  0  0
  2 25  1  0  0  0
  2 87  1  0  0  0
  2 88  1  0  0  0
  3  4  1  0  0  0
  3 89  1  0  0  0
  3 90  1  0  0  0
  4  5  1  0  0  0
  4 91  1  0  0  0
  4 92  1  0  0  0
  5  6  1  0  0  0
  5 26  1  0  0  0
  5 93  1  0  0  0
  6 25  1  0  0  0
  6 94  1  0  0  0
  6 95  1  0  0  0
  7  8  2  0  0  0
  7 26  1  0  0  0
  7 29  1  0  0  0
  8  9  1  0  0  0
  8 22  1  0  0  0
  9 10  1  0  0  0
  9 27  2  0  0  0
 10 11  2  0  0  0
 10 15  1  0  0  0
 11 12  1  0  0  0
 11 96  1  0  0  0
 12 13  2  0  0  0
 12 97  1  0  0  0
 13 14  1  0  0  0
 13 31  1  0  0  0
 14 15  2  0  0  0
 14 98  1  0  0  0
 15 99  1  0  0  0
 16 17  2  0  0  0
 16 21  1  0  0  0
 16 31  1  0  0  0
 17 18  1  0  0  0
 17100  1  0  0  0
 18 19  2  0  0  0
 18101  1  0  0  0
 19 20  1  0  0  0
 19 24  1  0  0  0
 20 21  2  0  0  0
 20102  1  0  0  0
 21 23  1  0  0  0
 22 28  1  0  0  0
 22 32  2  0  0  0
 26 27  1  0  0  0
 28103  1  0  0  0
 28104  1  0  0  0
 29105  1  0  0  0
 29106  1  0  0  0
 33 34  1  0  0  0
 33 66  1  0  0  0
 33 70  2  0  0  0
 34 36  1  0  0  0
 34 59  1  0  0  0
 34107  1  0  0  0
 35 44  2  0  0  0
 35 45  1  0  0  0
 35 68  1  0  0  0
 36 56  1  0  0  0
 36108  1  0  0  0
 37 39  1  0  0  0
 37 47  1  0  0  0
 37 66  1  0  0  0
 37109  1  0  0  0
 38 43  2  0  0  0
 38 46  1  0  0  0
 38 47  1  0  0  0
 39 64  1  0  0  0
 39 67  2  0  0  0
 40 52  1  0  0  0
 40 53  2  0  0  0
 40 58  1  0  0  0
 41110  1  0  0  0
 41111  1  0  0  0
 41112  1  0  0  0
 41 48  1  0  0  0
 42 43  1  0  0  0
 42 66  1  0  0  0
 42113  1  0  0  0
 42114  1  0  0  0
 43 44  1  0  0  0
 44115  1  0  0  0
 45 46  2  0  0  0
 45116  1  0  0  0
 46117  1  0  0  0
 47118  1  0  0  0
 47119  1  0  0  0
 48 56  1  0  0  0
 48 65  1  0  0  0
 48120  1  0  0  0
 49 50  1  0  0  0
 49 53  1  0  0  0
 49 64  1  0  0  0
 49121  1  0  0  0
 50 51  1  0  0  0
 50122  1  0  0  0
 50123  1  0  0  0
 51 52  1  0  0  0
 51124  1  0  0  0
 51125  1  0  0  0
 52126  1  0  0  0
 52127  1  0  0  0
 53 54  1  0  0  0
 54 55  2  0  0  0
 54128  1  0  0  0
 55 57  1  0  0  0
 55129  1  0  0  0
 56 69  2  0  0  0
 57 58  2  0  0  0
 57130  1  0  0  0
 58131  1  0  0  0
 59 60  1  0  0  0
 59 61  1  0  0  0
 59 62  1  0  0  0
 60132  1  0  0  0
 60133  1  0  0  0
 60134  1  0  0  0
 61135  1  0  0  0
 61136  1  0  0  0
 61137  1  0  0  0
 62138  1  0  0  0
 62139  1  0  0  0
 62140  1  0  0  0
 63 65  1  0  0  0
 63141  1  0  0  0
 63142  1  0  0  0
 63143  1  0  0  0
 64144  1  0  0  0
 65145  1  0  0  0
 68 80  1  0  0  0
 71 81  1  0  0  0
 71 82  1  0  0  0
 71 85  2  0  0  0
 72 80  1  0  0  0
 72 84  1  0  0  0
 72 86  2  0  0  0
 73 74  1  0  0  0
 73146  1  0  0  0
 73147  1  0  0  0
 73 79  1  0  0  0
 74 79  1  0  0  0
 74148  1  0  0  0
 74149  1  0  0  0
 75 77  1  0  0  0
 75 82  1  0  0  0
 75150  1  0  0  0
 75151  1  0  0  0
 76 78  1  0  0  0
 76 82  1  0  0  0
 76152  1  0  0  0
 76153  1  0  0  0
 77 83  1  0  0  0
 77154  1  0  0  0
 77155  1  0  0  0
 78 83  1  0  0  0
 78156  1  0  0  0
 78157  1  0  0  0
 79 81  1  0  0  0
 79158  1  0  0  0
 80159  1  0  0  0
 80160  1  0  0  0
 81 84  1  0  0  0
 81161  1  0  0  0
 84162  1  0  0  0
M  ISO  4   1 100  68 101  80 101  83 100
M  END
> <chiral flag>
0

> <version>
0

> <s_m_source_file>
/data/baiqing/PycharmProjects/Reinvent-master-3.2/result/LINK_invent/BTK/process_docking_weight1_custom_sum_contain_oxygen_bond_distance_aromatic_linkinvent_7_9_3/rearranged_h_0162.sdf

> <i_m_source_file_index>
53

> <r_mmod_Potential_Energy-OPLS-2005>
310.505310058594

> <r_mmod_Stretch_Energy-OPLS-2005>
89.7455596923828

> <r_mmod_Bend_Energy-OPLS-2005>
174.615188598633

> <r_mmod_Torsional_Energy-OPLS-2005>
419.042083740234

> <r_mmod_Improper_Torsional_Energy-OPLS-2005>
16.4790287017822

> <r_mmod_Van_der_Waal_Energy-OPLS-2005>
127.649299621582

> <r_mmod_Electrostatic_Energy-OPLS-2005>
-327.73828125

> <r_mmod_Solvation_Energy-OPLS-2005>
-244.970840454102

> <b_mmod_Minimization_Converged-OPLS-2005>
0

> <r_mmod_RMS_Derivative-OPLS-2005>
2.17170333862305

$$$$
53
                    3D
 Structure written by MMmdl.
166176  0  0  1  0            999 V2000
  -30.6341  -14.8609   20.4361 C   0  0  0  0  0  0
  -30.4202  -12.5408   19.4789 C   0  0  0  0  0  0
  -29.5025  -12.5093   18.2395 C   0  0  0  0  0  0
  -28.0385  -12.3021   18.6667 C   0  0  0  0  0  0
  -27.6226  -13.2358   19.8329 C   0  0  2  0  0  0
  -28.6726  -13.2819   20.9638 C   0  0  0  0  0  0
  -25.2448  -13.8181   20.5732 C   0  0  0  0  0  0
  -24.1760  -13.0418   20.9245 C   0  0  0  0  0  0
  -24.6370  -11.6902   20.8783 C   0  0  0  0  0  0
  -23.9058  -10.4277   21.0426 C   0  0  0  0  0  0
  -24.3613   -9.4191   21.9196 C   0  0  0  0  0  0
  -23.6287   -8.2228   22.0758 C   0  0  0  0  0  0
  -22.4270   -8.0272   21.3545 C   0  0  0  0  0  0
  -21.9908   -9.0246   20.4647 C   0  0  0  0  0  0
  -22.7238  -10.2124   20.3063 C   0  0  0  0  0  0
  -21.6850   -6.0732   22.5281 C   0  0  0  0  0  0
  -21.4013   -6.5639   23.8213 C   0  0  0  0  0  0
  -21.3660   -5.6792   24.9177 C   0  0  0  0  0  0
  -21.6043   -4.3054   24.7229 C   0  0  0  0  0  0
  -21.8819   -3.8145   23.4351 C   0  0  0  0  0  0
  -21.9192   -4.6961   22.3406 C   0  0  0  0  0  0
  -22.7785  -13.5201   21.1890 C   0  0  0  0  0  0
  -22.1662   -4.2146   21.0983 F   0  0  0  0  0  0
  -21.5627   -3.4538   25.7742 F   0  0  0  0  0  0
  -29.9527  -13.6535   20.3500 N   0  0  0  0  0  0
  -26.2856  -12.9386   20.3272 N   0  0  0  0  0  0
  -25.9297  -11.6531   20.5782 N   0  0  0  0  0  0
  -22.0432  -12.8189   22.0443 N   0  0  0  0  0  0
  -25.4109  -15.1905   20.4140 N   0  0  0  0  0  0
  -31.8486  -14.8354   20.2118 O   0  0  0  0  0  0
  -21.6634   -6.8873   21.4241 O   0  0  0  0  0  0
  -22.3476  -14.5506   20.6733 O   0  0  0  0  0  0
  -24.6375  -31.8496   23.1938 C   0  0  0  0  0  0
  -25.9173  -32.4727   23.8304 C   0  0  1  0  0  0
  -27.2123  -27.1957   20.1490 C   0  0  0  0  0  0
  -25.5942  -33.8531   24.2220 N   0  0  0  0  0  0
  -23.4377  -30.4707   21.5385 C   0  0  2  0  0  0
  -24.8858  -28.9067   20.1126 C   0  0  0  0  0  0
  -22.7535  -29.4576   22.4890 C   0  0  0  0  0  0
  -18.0299  -28.1396   22.8484 C   0  0  0  0  0  0
  -24.1488  -36.7270   23.2642 C   0  0  0  0  0  0
  -25.9889  -30.7427   21.3833 C   0  0  0  0  0  0
  -26.0615  -29.3587   20.7269 C   0  0  0  0  0  0
  -27.2304  -28.5188   20.7282 C   0  0  0  0  0  0
  -26.0177  -26.8329   19.4922 C   0  0  0  0  0  0
  -24.8729  -27.6544   19.4806 C   0  0  0  0  0  0
  -23.6603  -29.8024   20.1566 C   0  0  0  0  0  0
  -25.4119  -36.3052   24.0318 C   0  0  1  0  0  0
  -20.5907  -28.3714   23.1256 C   0  0  2  0  0  0
  -20.6785  -26.9424   22.5408 C   0  0  0  0  0  0
  -19.5758  -26.6385   21.5219 C   0  0  0  0  0  0
  -18.1939  -26.7936   22.1629 C   0  0  0  0  0  0
  -19.1555  -28.8873   23.2861 C   0  0  0  0  0  0
  -18.9472  -30.1473   23.8881 C   0  0  0  0  0  0
  -17.6469  -30.6593   24.0565 C   0  0  0  0  0  0
  -25.9065  -34.9425   23.5075 C   0  0  0  0  0  0
  -16.5360  -29.9089   23.6338 C   0  0  0  0  0  0
  -16.7285  -28.6508   23.0357 C   0  0  0  0  0  0
  -26.4515  -31.6577   25.0723 C   0  0  0  0  0  0
  -25.3714  -31.3748   26.1427 C   0  0  0  0  0  0
  -27.0380  -30.2984   24.6264 C   0  0  0  0  0  0
  -27.6048  -32.4338   25.7508 C   0  0  0  0  0  0
  -27.5576  -37.1792   24.8466 C   0  0  0  0  0  0
  -21.4235  -29.3048   22.3634 N   0  0  0  0  0  0
  -26.4289  -37.3759   23.9407 N   0  0  0  0  0  0
  -24.7076  -31.0402   22.0947 N   0  0  0  0  0  0
  -23.4204  -28.8121   23.3018 O   0  0  0  0  0  0
  -28.2733  -26.2414   20.1722 O   0  0  0  0  0  0
  -26.5648  -34.8915   22.4651 O   0  0  0  0  0  0
  -23.5509  -32.1346   23.7193 O   0  0  0  0  0  0
  -29.9645  -21.1766   18.9082 C   0  0  0  0  0  0
  -29.2761  -20.9095   20.1047 C   0  0  0  0  0  0
  -28.6675  -22.1131   20.7072 C   0  0  0  0  0  0
  -28.7402  -23.4541   20.0811 C   0  0  0  0  0  0
  -29.4643  -23.4779   18.8677 C   0  0  0  0  0  0
  -28.3244  -22.7552   23.2374 C   0  0  0  0  0  0
  -28.5284  -21.2663   23.2039 C   0  0  0  0  0  0
  -28.7683  -18.2436   19.6044 C   0  0  0  0  0  0
  -30.6347  -18.7186   21.0180 C   0  0  0  0  0  0
  -28.7883  -16.6935   20.0444 C   0  0  0  0  0  0
  -30.6580  -17.1960   21.5126 C   0  0  0  0  0  0
  -29.2570  -19.3522   20.6158 C   0  0  0  0  0  0
  -27.9219  -21.9692   22.0059 C   0  0  0  0  0  0
  -29.6142  -24.7449   18.0467 C   0  0  0  0  0  0
  -27.9802  -24.8007   20.6105 C   0  0  0  0  0  0
  -30.0582  -22.3908   18.3229 N   0  0  0  0  0  0
  -30.0109  -16.1130   20.6915 N   0  0  0  0  0  0
  -31.4577  -12.6621   19.1633 H   0  0  0  0  0  0
  -30.3825  -11.5915   20.0158 H   0  0  0  0  0  0
  -29.8099  -11.7148   17.5583 H   0  0  0  0  0  0
  -29.5972  -13.4447   17.6853 H   0  0  0  0  0  0
  -27.9315  -11.2610   18.9739 H   0  0  0  0  0  0
  -27.3710  -12.4379   17.8148 H   0  0  0  0  0  0
  -27.5689  -14.2255   19.3899 H   0  0  0  0  0  0
  -28.7481  -12.3197   21.4723 H   0  0  0  0  0  0
  -28.3871  -14.0147   21.7202 H   0  0  0  0  0  0
  -25.2757   -9.5665   22.4773 H   0  0  0  0  0  0
  -23.9993   -7.4618   22.7476 H   0  0  0  0  0  0
  -21.0841   -8.8769   19.8950 H   0  0  0  0  0  0
  -22.3702  -10.9667   19.6175 H   0  0  0  0  0  0
  -21.2007   -7.6148   23.9716 H   0  0  0  0  0  0
  -21.1483   -6.0524   25.9078 H   0  0  0  0  0  0
  -22.0598   -2.7607   23.2853 H   0  0  0  0  0  0
  -22.4051  -11.9851   22.4829 H   0  0  0  0  0  0
  -21.1051  -13.1214   22.2651 H   0  0  0  0  0  0
  -24.6426  -15.8424   20.5290 H   0  0  0  0  0  0
  -26.2596  -15.6319   20.0877 H   0  0  0  0  0  0
  -26.7239  -32.5354   23.1039 H   0  0  0  0  0  0
  -25.0074  -33.9662   25.0355 H   0  0  0  0  0  0
  -22.7375  -31.2949   21.3884 H   0  0  0  0  0  0
  -23.3758  -35.9596   23.3296 H   0  0  0  0  0  0
  -24.3571  -36.8911   22.2059 H   0  0  0  0  0  0
  -23.7239  -37.6462   23.6683 H   0  0  0  0  0  0
  -26.1347  -31.4998   20.6117 H   0  0  0  0  0  0
  -26.8633  -30.7934   22.0206 H   0  0  0  0  0  0
  -28.1297  -28.8606   21.2209 H   0  0  0  0  0  0
  -25.9521  -25.8782   18.9900 H   0  0  0  0  0  0
  -23.9772  -27.3057   18.9852 H   0  0  0  0  0  0
  -23.7916  -30.5778   19.4010 H   0  0  0  0  0  0
  -22.7765  -29.2407   19.8486 H   0  0  0  0  0  0
  -25.1306  -36.1888   25.0811 H   0  0  0  0  0  0
  -20.9997  -28.3300   24.1378 H   0  0  0  0  0  0
  -20.5693  -26.2326   23.3620 H   0  0  0  0  0  0
  -21.6650  -26.7446   22.1199 H   0  0  0  0  0  0
  -19.6918  -25.6294   21.1257 H   0  0  0  0  0  0
  -19.6693  -27.3189   20.6743 H   0  0  0  0  0  0
  -17.4207  -26.6690   21.4030 H   0  0  0  0  0  0
  -18.0331  -26.0082   22.9029 H   0  0  0  0  0  0
  -19.7948  -30.7297   24.2236 H   0  0  0  0  0  0
  -17.5024  -31.6271   24.5172 H   0  0  0  0  0  0
  -15.5359  -30.2985   23.7672 H   0  0  0  0  0  0
  -15.8687  -28.0823   22.7077 H   0  0  0  0  0  0
  -24.5894  -30.7096   25.7746 H   0  0  0  0  0  0
  -24.8904  -32.2928   26.4813 H   0  0  0  0  0  0
  -25.8008  -30.8944   27.0229 H   0  0  0  0  0  0
  -26.2992  -29.6712   24.1263 H   0  0  0  0  0  0
  -27.4012  -29.7269   25.4816 H   0  0  0  0  0  0
  -27.8887  -30.4240   23.9562 H   0  0  0  0  0  0
  -27.2638  -33.3651   26.2042 H   0  0  0  0  0  0
  -28.3882  -32.6879   25.0355 H   0  0  0  0  0  0
  -28.0692  -31.8496   26.5464 H   0  0  0  0  0  0
  -28.2586  -38.0096   24.7513 H   0  0  0  0  0  0
  -28.1081  -36.2624   24.6293 H   0  0  0  0  0  0
  -27.2292  -37.1438   25.8869 H   0  0  0  0  0  0
  -20.9432  -29.8761   21.6822 H   0  0  0  0  0  0
  -26.0159  -38.2827   24.1421 H   0  0  0  0  0  0
  -30.4625  -20.3770   18.3804 H   0  0  0  0  0  0
  -29.2215  -23.3699   23.1890 H   0  0  0  0  0  0
  -27.5312  -23.1321   23.8799 H   0  0  0  0  0  0
  -27.8691  -20.6635   23.8251 H   0  0  0  0  0  0
  -29.5551  -20.9134   23.1292 H   0  0  0  0  0  0
  -27.7539  -18.4924   19.2901 H   0  0  0  0  0  0
  -29.3681  -18.3211   18.6971 H   0  0  0  0  0  0
  -31.3181  -18.8024   20.1719 H   0  0  0  0  0  0
  -31.0786  -19.3349   21.8009 H   0  0  0  0  0  0
  -28.5734  -16.1115   19.1493 H   0  0  0  0  0  0
  -27.9618  -16.5194   20.7332 H   0  0  0  0  0  0
  -30.1725  -17.1590   22.4885 H   0  0  0  0  0  0
  -31.6967  -16.9270   21.7109 H   0  0  0  0  0  0
  -28.5946  -19.2972   21.4777 H   0  0  0  0  0  0
  -26.8580  -21.8263   21.8248 H   0  0  0  0  0  0
  -30.1923  -25.4884   18.5951 H   0  0  0  0  0  0
  -28.6373  -25.1663   17.8093 H   0  0  0  0  0  0
  -30.1266  -24.5584   17.1024 H   0  0  0  0  0  0
  -28.1278  -24.8365   21.6867 H   0  0  0  0  0  0
  -26.9181  -24.5885   20.4987 H   0  0  0  0  0  0
  1 25  1  0  0  0
  1 30  2  0  0  0
  1 87  1  0  0  0
  2  3  1  0  0  0
  2 25  1  0  0  0
  2 88  1  0  0  0
  2 89  1  0  0  0
  3  4  1  0  0  0
  3 90  1  0  0  0
  3 91  1  0  0  0
  4  5  1  0  0  0
  4 92  1  0  0  0
  4 93  1  0  0  0
  5  6  1  0  0  0
  5 26  1  0  0  0
  5 94  1  0  0  0
  6 25  1  0  0  0
  6 95  1  0  0  0
  6 96  1  0  0  0
  7  8  2  0  0  0
  7 26  1  0  0  0
  7 29  1  0  0  0
  8  9  1  0  0  0
  8 22  1  0  0  0
  9 10  1  0  0  0
  9 27  2  0  0  0
 10 11  2  0  0  0
 10 15  1  0  0  0
 11 12  1  0  0  0
 11 97  1  0  0  0
 12 13  2  0  0  0
 12 98  1  0  0  0
 13 14  1  0  0  0
 13 31  1  0  0  0
 14 15  2  0  0  0
 14 99  1  0  0  0
 15100  1  0  0  0
 16 17  2  0  0  0
 16 21  1  0  0  0
 16 31  1  0  0  0
 17 18  1  0  0  0
 17101  1  0  0  0
 18 19  2  0  0  0
 18102  1  0  0  0
 19 20  1  0  0  0
 19 24  1  0  0  0
 20 21  2  0  0  0
 20103  1  0  0  0
 21 23  1  0  0  0
 22 28  1  0  0  0
 22 32  2  0  0  0
 26 27  1  0  0  0
 28104  1  0  0  0
 28105  1  0  0  0
 29106  1  0  0  0
 29107  1  0  0  0
 33 34  1  0  0  0
 33 66  1  0  0  0
 33 70  2  0  0  0
 34 36  1  0  0  0
 34 59  1  0  0  0
 34108  1  0  0  0
 35 44  2  0  0  0
 35 45  1  0  0  0
 35 68  1  0  0  0
 36 56  1  0  0  0
 36109  1  0  0  0
 37 39  1  0  0  0
 37 47  1  0  0  0
 37 66  1  0  0  0
 37110  1  0  0  0
 38 43  2  0  0  0
 38 46  1  0  0  0
 38 47  1  0  0  0
 39 64  1  0  0  0
 39 67  2  0  0  0
 40 52  1  0  0  0
 40 53  2  0  0  0
 40 58  1  0  0  0
 41111  1  0  0  0
 41112  1  0  0  0
 41113  1  0  0  0
 41 48  1  0  0  0
 42 43  1  0  0  0
 42 66  1  0  0  0
 42114  1  0  0  0
 42115  1  0  0  0
 43 44  1  0  0  0
 44116  1  0  0  0
 45 46  2  0  0  0
 45117  1  0  0  0
 46118  1  0  0  0
 47119  1  0  0  0
 47120  1  0  0  0
 48 56  1  0  0  0
 48 65  1  0  0  0
 48121  1  0  0  0
 49 50  1  0  0  0
 49 53  1  0  0  0
 49 64  1  0  0  0
 49122  1  0  0  0
 50 51  1  0  0  0
 50123  1  0  0  0
 50124  1  0  0  0
 51 52  1  0  0  0
 51125  1  0  0  0
 51126  1  0  0  0
 52127  1  0  0  0
 52128  1  0  0  0
 53 54  1  0  0  0
 54 55  2  0  0  0
 54129  1  0  0  0
 55 57  1  0  0  0
 55130  1  0  0  0
 56 69  2  0  0  0
 57 58  2  0  0  0
 57131  1  0  0  0
 58132  1  0  0  0
 59 60  1  0  0  0
 59 61  1  0  0  0
 59 62  1  0  0  0
 60133  1  0  0  0
 60134  1  0  0  0
 60135  1  0  0  0
 61136  1  0  0  0
 61137  1  0  0  0
 61138  1  0  0  0
 62139  1  0  0  0
 62140  1  0  0  0
 62141  1  0  0  0
 63 65  1  0  0  0
 63142  1  0  0  0
 63143  1  0  0  0
 63144  1  0  0  0
 64145  1  0  0  0
 65146  1  0  0  0
 68 85  1  0  0  0
 71 72  2  0  0  0
 71 86  1  0  0  0
 71147  1  0  0  0
 72 73  1  0  0  0
 72 82  1  0  0  0
 73 74  2  0  0  0
 73 83  1  0  0  0
 74 75  1  0  0  0
 74 85  1  0  0  0
 75 84  1  0  0  0
 75 86  2  0  0  0
 76 77  1  0  0  0
 76 83  1  0  0  0
 76148  1  0  0  0
 76149  1  0  0  0
 77 83  1  0  0  0
 77150  1  0  0  0
 77151  1  0  0  0
 78 80  1  0  0  0
 78 82  1  0  0  0
 78152  1  0  0  0
 78153  1  0  0  0
 79 81  1  0  0  0
 79 82  1  0  0  0
 79154  1  0  0  0
 79155  1  0  0  0
 80 87  1  0  0  0
 80156  1  0  0  0
 80157  1  0  0  0
 81 87  1  0  0  0
 81158  1  0  0  0
 81159  1  0  0  0
 82160  1  0  0  0
 83161  1  0  0  0
 84162  1  0  0  0
 84163  1  0  0  0
 84164  1  0  0  0
 85165  1  0  0  0
 85166  1  0  0  0
M  ISO  4   1 100  68 101  85 101  87 100
M  END
> <chiral flag>
0

> <version>
0

> <s_m_source_file>
/data/baiqing/PycharmProjects/Reinvent-master-3.2/result/LINK_invent/BTK/process_docking_weight1_custom_sum_contain_oxygen_bond_distance_aromatic_linkinvent_7_9_3/rearranged_h_0162.sdf

> <i_m_source_file_index>
54

> <r_mmod_Potential_Energy-OPLS-2005>
439.827850341797

> <r_mmod_Stretch_Energy-OPLS-2005>
182.357360839844

> <r_mmod_Bend_Energy-OPLS-2005>
228.572296142578

> <r_mmod_Torsional_Energy-OPLS-2005>
372.565887451172

> <r_mmod_Improper_Torsional_Energy-OPLS-2005>
2.31894469261169

> <r_mmod_Van_der_Waal_Energy-OPLS-2005>
134.583389282227

> <r_mmod_Electrostatic_Energy-OPLS-2005>
-411.584289550781

> <r_mmod_Solvation_Energy-OPLS-2005>
-211.819915771484

> <b_mmod_Minimization_Converged-OPLS-2005>
0

> <r_mmod_RMS_Derivative-OPLS-2005>
0.443088591098785

$$$$
54
                    3D
 Structure written by MMmdl.
170179  0  0  1  0            999 V2000
  -30.6904  -14.5371   20.5665 C   0  0  0  0  0  0
  -30.4376  -12.3487   19.4317 C   0  0  0  0  0  0
  -29.5034  -12.5111   18.2126 C   0  0  0  0  0  0
  -28.0238  -12.3627   18.6237 C   0  0  0  0  0  0
  -27.6631  -13.2091   19.8736 C   0  0  2  0  0  0
  -28.7110  -13.0189   20.9965 C   0  0  0  0  0  0
  -25.2603  -13.8173   20.5674 C   0  0  0  0  0  0
  -24.1857  -13.0445   20.9173 C   0  0  0  0  0  0
  -24.6403  -11.6916   20.8742 C   0  0  0  0  0  0
  -23.9064  -10.4303   21.0400 C   0  0  0  0  0  0
  -24.3617   -9.4218   21.9176 C   0  0  0  0  0  0
  -23.6303   -8.2248   22.0750 C   0  0  0  0  0  0
  -22.4285   -8.0280   21.3547 C   0  0  0  0  0  0
  -21.9920   -9.0251   20.4642 C   0  0  0  0  0  0
  -22.7242  -10.2132   20.3044 C   0  0  0  0  0  0
  -21.6852   -6.0735   22.5281 C   0  0  0  0  0  0
  -21.4012   -6.5637   23.8218 C   0  0  0  0  0  0
  -21.3655   -5.6786   24.9176 C   0  0  0  0  0  0
  -21.6046   -4.3054   24.7228 C   0  0  0  0  0  0
  -21.8824   -3.8147   23.4353 C   0  0  0  0  0  0
  -21.9194   -4.6966   22.3408 C   0  0  0  0  0  0
  -22.7874  -13.5249   21.1834 C   0  0  0  0  0  0
  -22.1659   -4.2150   21.0992 F   0  0  0  0  0  0
  -21.5642   -3.4541   25.7742 F   0  0  0  0  0  0
  -30.0359  -13.3453   20.4384 N   0  0  0  0  0  0
  -26.3049  -12.9326   20.3372 N   0  0  0  0  0  0
  -25.9344  -11.6493   20.5794 N   0  0  0  0  0  0
  -22.0495  -12.8246   22.0372 N   0  0  0  0  0  0
  -25.4366  -15.1884   20.4051 N   0  0  0  0  0  0
  -31.8163  -14.7217   20.1014 O   0  0  0  0  0  0
  -21.6654   -6.8874   21.4242 O   0  0  0  0  0  0
  -22.3566  -14.5548   20.6669 O   0  0  0  0  0  0
  -24.6193  -31.8640   23.2056 C   0  0  0  0  0  0
  -25.9071  -32.4785   23.8376 C   0  0  1  0  0  0
  -27.2392  -27.3860   20.1106 C   0  0  0  0  0  0
  -25.5908  -33.8589   24.2308 N   0  0  0  0  0  0
  -23.4103  -30.4843   21.5484 C   0  0  2  0  0  0
  -24.8592  -28.9425   20.1175 C   0  0  0  0  0  0
  -22.7437  -29.4639   22.4991 C   0  0  0  0  0  0
  -18.0272  -28.1373   22.8493 C   0  0  0  0  0  0
  -24.1486  -36.7299   23.2641 C   0  0  0  0  0  0
  -25.9442  -30.8122   21.3696 C   0  0  0  0  0  0
  -26.0225  -29.4435   20.7160 C   0  0  0  0  0  0
  -27.2166  -28.6766   20.7030 C   0  0  0  0  0  0
  -26.0587  -26.9191   19.4902 C   0  0  0  0  0  0
  -24.8750  -27.6816   19.4988 C   0  0  0  0  0  0
  -23.6203  -29.8106   20.1662 C   0  0  0  0  0  0
  -25.4115  -36.3085   24.0329 C   0  0  1  0  0  0
  -20.5867  -28.3668   23.1304 C   0  0  2  0  0  0
  -20.6765  -26.9402   22.5417 C   0  0  0  0  0  0
  -19.5742  -26.6378   21.5214 C   0  0  0  0  0  0
  -18.1915  -26.7929   22.1616 C   0  0  0  0  0  0
  -19.1522  -28.8841   23.2892 C   0  0  0  0  0  0
  -18.9450  -30.1447   23.8902 C   0  0  0  0  0  0
  -17.6448  -30.6584   24.0548 C   0  0  0  0  0  0
  -25.9041  -34.9448   23.5118 C   0  0  0  0  0  0
  -16.5338  -29.9077   23.6329 C   0  0  0  0  0  0
  -16.7260  -28.6487   23.0367 C   0  0  0  0  0  0
  -26.4492  -31.6577   25.0718 C   0  0  0  0  0  0
  -25.3747  -31.3679   26.1451 C   0  0  0  0  0  0
  -27.0343  -30.3014   24.6136 C   0  0  0  0  0  0
  -27.6051  -32.4316   25.7489 C   0  0  0  0  0  0
  -27.5574  -37.1807   24.8461 C   0  0  0  0  0  0
  -21.4159  -29.3029   22.3713 N   0  0  0  0  0  0
  -26.4298  -37.3773   23.9386 N   0  0  0  0  0  0
  -24.6757  -31.0705   22.0976 N   0  0  0  0  0  0
  -23.4192  -28.8193   23.3059 O   0  0  0  0  0  0
  -28.3926  -26.6112   20.0965 O   0  0  0  0  0  0
  -26.5602  -34.8904   22.4674 O   0  0  0  0  0  0
  -23.5373  -32.1411   23.7422 O   0  0  0  0  0  0
  -31.7132  -23.7265   19.5367 C   0  0  0  0  0  0
  -30.7223  -24.6589   19.8992 C   0  0  0  0  0  0
  -29.1600  -22.7974   20.2050 C   0  0  0  0  0  0
  -29.4074  -24.2192   20.2057 C   0  0  0  0  0  0
  -30.1626  -21.8504   19.7964 C   0  0  0  0  0  0
  -31.4468  -22.3405   19.4467 C   0  0  0  0  0  0
  -31.6402  -17.5670   21.2388 C   0  0  0  0  0  0
  -31.4329  -19.0998   21.1282 C   0  0  0  0  0  0
  -29.4614  -17.9848   20.4080 C   0  0  0  0  0  0
  -30.2167  -17.0023   21.3362 C   0  0  1  0  0  0
  -31.1303  -26.1246   19.9441 C   0  0  0  0  0  0
  -27.7901  -22.2724   20.6212 C   0  0  0  0  0  0
  -33.6481  -21.9268   18.5425 C   0  0  0  0  0  0
  -29.8519  -20.3347   19.5486 C   0  0  0  0  0  0
  -28.2805  -25.2382   20.5765 C   0  0  0  0  0  0
  -29.9637  -15.5431   21.1130 N   0  0  0  0  0  0
  -30.0405  -19.3417   20.6655 N   0  3  2  0  0  0
  -32.3901  -21.4374   19.0004 O   0  0  0  0  0  0
  -31.4804  -12.4621   19.1281 H   0  0  0  0  0  0
  -30.3618  -11.3421   19.8457 H   0  0  0  0  0  0
  -29.7573  -11.7760   17.4473 H   0  0  0  0  0  0
  -29.6596  -13.4916   17.7574 H   0  0  0  0  0  0
  -27.8400  -11.3064   18.8239 H   0  0  0  0  0  0
  -27.3728  -12.6301   17.7902 H   0  0  0  0  0  0
  -27.6996  -14.2537   19.5638 H   0  0  0  0  0  0
  -28.7091  -11.9881   21.3527 H   0  0  0  0  0  0
  -28.4653  -13.6268   21.8691 H   0  0  0  0  0  0
  -25.2766   -9.5713   22.4739 H   0  0  0  0  0  0
  -24.0029   -7.4646   22.7465 H   0  0  0  0  0  0
  -21.0857   -8.8763   19.8935 H   0  0  0  0  0  0
  -22.3704  -10.9667   19.6149 H   0  0  0  0  0  0
  -21.1986   -7.6138   23.9729 H   0  0  0  0  0  0
  -21.1475   -6.0509   25.9081 H   0  0  0  0  0  0
  -22.0604   -2.7609   23.2859 H   0  0  0  0  0  0
  -22.4081  -11.9909   22.4790 H   0  0  0  0  0  0
  -21.1089  -13.1255   22.2514 H   0  0  0  0  0  0
  -24.6760  -15.8508   20.5078 H   0  0  0  0  0  0
  -26.2880  -15.6164   20.0671 H   0  0  0  0  0  0
  -26.7146  -32.5495   23.1134 H   0  0  0  0  0  0
  -25.0051  -33.9746   25.0448 H   0  0  0  0  0  0
  -22.6999  -31.3004   21.4046 H   0  0  0  0  0  0
  -23.3735  -35.9647   23.3328 H   0  0  0  0  0  0
  -24.3580  -36.8896   22.2052 H   0  0  0  0  0  0
  -23.7257  -37.6515   23.6653 H   0  0  0  0  0  0
  -26.0724  -31.5774   20.6030 H   0  0  0  0  0  0
  -26.8263  -30.8598   21.9962 H   0  0  0  0  0  0
  -28.1150  -29.0615   21.1664 H   0  0  0  0  0  0
  -26.0462  -25.9660   18.9819 H   0  0  0  0  0  0
  -23.9870  -27.2940   19.0192 H   0  0  0  0  0  0
  -23.7207  -30.5792   19.3994 H   0  0  0  0  0  0
  -22.7470  -29.2229   19.8789 H   0  0  0  0  0  0
  -25.1302  -36.1947   25.0829 H   0  0  0  0  0  0
  -20.9955  -28.3239   24.1425 H   0  0  0  0  0  0
  -20.5671  -26.2279   23.3611 H   0  0  0  0  0  0
  -21.6632  -26.7443   22.1191 H   0  0  0  0  0  0
  -19.6891  -25.6292   21.1235 H   0  0  0  0  0  0
  -19.6678  -27.3192   20.6754 H   0  0  0  0  0  0
  -17.4196  -26.6699   21.4004 H   0  0  0  0  0  0
  -18.0283  -26.0062   22.8995 H   0  0  0  0  0  0
  -19.7928  -30.7253   24.2278 H   0  0  0  0  0  0
  -17.5005  -31.6274   24.5128 H   0  0  0  0  0  0
  -15.5337  -30.2971   23.7661 H   0  0  0  0  0  0
  -15.8659  -28.0788   22.7110 H   0  0  0  0  0  0
  -24.5931  -30.7021   25.7771 H   0  0  0  0  0  0
  -24.8930  -32.2831   26.4909 H   0  0  0  0  0  0
  -25.8091  -30.8834   27.0203 H   0  0  0  0  0  0
  -26.2906  -29.6745   24.1203 H   0  0  0  0  0  0
  -27.4114  -29.7279   25.4612 H   0  0  0  0  0  0
  -27.8741  -30.4316   23.9303 H   0  0  0  0  0  0
  -27.2654  -33.3607   26.2078 H   0  0  0  0  0  0
  -28.3857  -32.6896   25.0316 H   0  0  0  0  0  0
  -28.0725  -31.8442   26.5399 H   0  0  0  0  0  0
  -28.2604  -38.0089   24.7485 H   0  0  0  0  0  0
  -28.1065  -36.2627   24.6326 H   0  0  0  0  0  0
  -27.2288  -37.1480   25.8862 H   0  0  0  0  0  0
  -20.9337  -29.8734   21.6901 H   0  0  0  0  0  0
  -26.0186  -38.2857   24.1361 H   0  0  0  0  0  0
  -32.6917  -24.1166   19.2990 H   0  0  0  0  0  0
  -32.2685  -17.2927   22.0880 H   0  0  0  0  0  0
  -32.1375  -17.2220   20.3314 H   0  0  0  0  0  0
  -32.1840  -19.5338   20.4717 H   0  0  0  0  0  0
  -31.5497  -19.5719   22.1048 H   0  0  0  0  0  0
  -28.3848  -17.9761   20.5822 H   0  0  0  0  0  0
  -29.6298  -17.7032   19.3660 H   0  0  0  0  0  0
  -29.8731  -17.1914   22.3550 H   0  0  0  0  0  0
  -32.2097  -26.2473   19.8514 H   0  0  0  0  0  0
  -30.8349  -26.5851   20.8866 H   0  0  0  0  0  0
  -30.6741  -26.6761   19.1218 H   0  0  0  0  0  0
  -27.3170  -22.9065   21.3691 H   0  0  0  0  0  0
  -27.8533  -21.2873   21.0803 H   0  0  0  0  0  0
  -27.1325  -22.2067   19.7544 H   0  0  0  0  0  0
  -34.2601  -21.0950   18.1953 H   0  0  0  0  0  0
  -34.2022  -22.4263   19.3387 H   0  0  0  0  0  0
  -33.5280  -22.6145   17.7041 H   0  0  0  0  0  0
  -30.4291  -19.9879   18.6909 H   0  0  0  0  0  0
  -28.8194  -20.2603   19.2080 H   0  0  0  0  0  0
  -28.2382  -25.2801   21.6644 H   0  0  0  0  0  0
  -27.3347  -24.8138   20.2512 H   0  0  0  0  0  0
  -29.0644  -15.2263   21.4464 H   0  0  0  0  0  0
  -29.5439  -19.7112   21.4616 H   0  0  0  0  0  0
  1 25  1  0  0  0
  1 30  2  0  0  0
  1 86  1  0  0  0
  2  3  1  0  0  0
  2 25  1  0  0  0
  2 89  1  0  0  0
  2 90  1  0  0  0
  3  4  1  0  0  0
  3 91  1  0  0  0
  3 92  1  0  0  0
  4  5  1  0  0  0
  4 93  1  0  0  0
  4 94  1  0  0  0
  5  6  1  0  0  0
  5 26  1  0  0  0
  5 95  1  0  0  0
  6 25  1  0  0  0
  6 96  1  0  0  0
  6 97  1  0  0  0
  7  8  2  0  0  0
  7 26  1  0  0  0
  7 29  1  0  0  0
  8  9  1  0  0  0
  8 22  1  0  0  0
  9 10  1  0  0  0
  9 27  2  0  0  0
 10 11  2  0  0  0
 10 15  1  0  0  0
 11 12  1  0  0  0
 11 98  1  0  0  0
 12 13  2  0  0  0
 12 99  1  0  0  0
 13 14  1  0  0  0
 13 31  1  0  0  0
 14 15  2  0  0  0
 14100  1  0  0  0
 15101  1  0  0  0
 16 17  2  0  0  0
 16 21  1  0  0  0
 16 31  1  0  0  0
 17 18  1  0  0  0
 17102  1  0  0  0
 18 19  2  0  0  0
 18103  1  0  0  0
 19 20  1  0  0  0
 19 24  1  0  0  0
 20 21  2  0  0  0
 20104  1  0  0  0
 21 23  1  0  0  0
 22 28  1  0  0  0
 22 32  2  0  0  0
 26 27  1  0  0  0
 28105  1  0  0  0
 28106  1  0  0  0
 29107  1  0  0  0
 29108  1  0  0  0
 33 34  1  0  0  0
 33 66  1  0  0  0
 33 70  2  0  0  0
 34 36  1  0  0  0
 34 59  1  0  0  0
 34109  1  0  0  0
 35 44  2  0  0  0
 35 45  1  0  0  0
 35 68  1  0  0  0
 36 56  1  0  0  0
 36110  1  0  0  0
 37 39  1  0  0  0
 37 47  1  0  0  0
 37 66  1  0  0  0
 37111  1  0  0  0
 38 43  2  0  0  0
 38 46  1  0  0  0
 38 47  1  0  0  0
 39 64  1  0  0  0
 39 67  2  0  0  0
 40 52  1  0  0  0
 40 53  2  0  0  0
 40 58  1  0  0  0
 41112  1  0  0  0
 41113  1  0  0  0
 41114  1  0  0  0
 41 48  1  0  0  0
 42 43  1  0  0  0
 42 66  1  0  0  0
 42115  1  0  0  0
 42116  1  0  0  0
 43 44  1  0  0  0
 44117  1  0  0  0
 45 46  2  0  0  0
 45118  1  0  0  0
 46119  1  0  0  0
 47120  1  0  0  0
 47121  1  0  0  0
 48 56  1  0  0  0
 48 65  1  0  0  0
 48122  1  0  0  0
 49 50  1  0  0  0
 49 53  1  0  0  0
 49 64  1  0  0  0
 49123  1  0  0  0
 50 51  1  0  0  0
 50124  1  0  0  0
 50125  1  0  0  0
 51 52  1  0  0  0
 51126  1  0  0  0
 51127  1  0  0  0
 52128  1  0  0  0
 52129  1  0  0  0
 53 54  1  0  0  0
 54 55  2  0  0  0
 54130  1  0  0  0
 55 57  1  0  0  0
 55131  1  0  0  0
 56 69  2  0  0  0
 57 58  2  0  0  0
 57132  1  0  0  0
 58133  1  0  0  0
 59 60  1  0  0  0
 59 61  1  0  0  0
 59 62  1  0  0  0
 60134  1  0  0  0
 60135  1  0  0  0
 60136  1  0  0  0
 61137  1  0  0  0
 61138  1  0  0  0
 61139  1  0  0  0
 62140  1  0  0  0
 62141  1  0  0  0
 62142  1  0  0  0
 63 65  1  0  0  0
 63143  1  0  0  0
 63144  1  0  0  0
 63145  1  0  0  0
 64146  1  0  0  0
 65147  1  0  0  0
 68 85  1  0  0  0
 71 72  2  0  0  0
 71 76  1  0  0  0
 71148  1  0  0  0
 72 74  1  0  0  0
 72 81  1  0  0  0
 73 74  2  0  0  0
 73 75  1  0  0  0
 73 82  1  0  0  0
 74 85  1  0  0  0
 75 76  2  0  0  0
 75 84  1  0  0  0
 76 88  1  0  0  0
 77 78  1  0  0  0
 77 80  1  0  0  0
 77149  1  0  0  0
 77150  1  0  0  0
 78 87  1  0  0  0
 78151  1  0  0  0
 78152  1  0  0  0
 79 80  1  0  0  0
 79 87  1  0  0  0
 79153  1  0  0  0
 79154  1  0  0  0
 80 86  1  0  0  0
 80155  1  0  0  0
 81156  1  0  0  0
 81157  1  0  0  0
 81158  1  0  0  0
 82159  1  0  0  0
 82160  1  0  0  0
 82161  1  0  0  0
 83 88  1  0  0  0
 83162  1  0  0  0
 83163  1  0  0  0
 83164  1  0  0  0
 84165  1  0  0  0
 84166  1  0  0  0
 84 87  1  0  0  0
 85167  1  0  0  0
 85168  1  0  0  0
 86169  1  0  0  0
 87170  1  0  0  0
M  CHG  1  87   1
M  ISO  4   1 100  68 101  85 101  86 100
M  END
> <chiral flag>
0

> <version>
0

> <s_m_source_file>
/data/baiqing/PycharmProjects/Reinvent-master-3.2/result/LINK_invent/BTK/process_docking_weight1_custom_sum_contain_oxygen_bond_distance_aromatic_linkinvent_7_9_3/rearranged_h_0162.sdf

> <i_m_source_file_index>
55

> <r_mmod_Potential_Energy-OPLS-2005>
-63.6756553649902

> <r_mmod_Stretch_Energy-OPLS-2005>
62.4047927856445

> <r_mmod_Bend_Energy-OPLS-2005>
165.239028930664

> <r_mmod_Torsional_Energy-OPLS-2005>
263.717864990234

> <r_mmod_Improper_Torsional_Energy-OPLS-2005>
3.78231620788574

> <r_mmod_Van_der_Waal_Energy-OPLS-2005>
162.578628540039

> <r_mmod_Electrostatic_Energy-OPLS-2005>
-303.995635986328

> <r_mmod_Solvation_Energy-OPLS-2005>
-438.2060546875

> <b_mmod_Minimization_Converged-OPLS-2005>
0

> <r_mmod_RMS_Derivative-OPLS-2005>
2.30887722969055

$$$$
55
                    3D
 Structure written by MMmdl.
184193  0  0  1  0            999 V2000
  -30.5926  -14.9871   20.3854 C   0  0  0  0  0  0
  -30.4052  -12.5719   19.5373 C   0  0  0  0  0  0
  -29.5150  -12.5101   18.2746 C   0  0  0  0  0  0
  -28.0555  -12.2830   18.6984 C   0  0  0  0  0  0
  -27.6125  -13.2543   19.8209 C   0  0  2  0  0  0
  -28.6341  -13.3538   20.9688 C   0  0  0  0  0  0
  -25.2415  -13.8247   20.5697 C   0  0  0  0  0  0
  -24.1712  -13.0447   20.9255 C   0  0  0  0  0  0
  -24.6330  -11.6958   20.8746 C   0  0  0  0  0  0
  -23.8975  -10.4314   21.0414 C   0  0  0  0  0  0
  -24.3563   -9.4245   21.9179 C   0  0  0  0  0  0
  -23.6292   -8.2238   22.0746 C   0  0  0  0  0  0
  -22.4293   -8.0236   21.3522 C   0  0  0  0  0  0
  -21.9880   -9.0191   20.4620 C   0  0  0  0  0  0
  -22.7149  -10.2117   20.3048 C   0  0  0  0  0  0
  -21.6867   -6.0711   22.5270 C   0  0  0  0  0  0
  -21.4011   -6.5621   23.8201 C   0  0  0  0  0  0
  -21.3689   -5.6778   24.9160 C   0  0  0  0  0  0
  -21.6066   -4.3034   24.7237 C   0  0  0  0  0  0
  -21.8807   -3.8118   23.4356 C   0  0  0  0  0  0
  -21.9200   -4.6934   22.3400 C   0  0  0  0  0  0
  -22.7745  -13.5246   21.1928 C   0  0  0  0  0  0
  -22.1650   -4.2122   21.0984 F   0  0  0  0  0  0
  -21.5675   -3.4519   25.7759 F   0  0  0  0  0  0
  -29.9223  -13.7024   20.3805 N   0  0  0  0  0  0
  -26.2783  -12.9434   20.3146 N   0  0  0  0  0  0
  -25.9255  -11.6558   20.5720 N   0  0  0  0  0  0
  -22.0382  -12.8163   22.0458 N   0  0  0  0  0  0
  -25.4113  -15.1952   20.4267 N   0  0  0  0  0  0
  -31.7940  -14.9751   20.1278 O   0  0  0  0  0  0
  -21.6630   -6.8848   21.4245 O   0  0  0  0  0  0
  -22.3407  -14.5530   20.6799 O   0  0  0  0  0  0
  -24.6387  -31.8421   23.1963 C   0  0  0  0  0  0
  -25.9130  -32.4715   23.8398 C   0  0  1  0  0  0
  -27.2446  -27.1620   20.1494 C   0  0  0  0  0  0
  -25.5884  -33.8528   24.2263 N   0  0  0  0  0  0
  -23.4497  -30.4476   21.5441 C   0  0  2  0  0  0
  -24.9137  -28.8896   20.1189 C   0  0  0  0  0  0
  -22.7634  -29.4324   22.4959 C   0  0  0  0  0  0
  -18.0236  -28.1348   22.8382 C   0  0  0  0  0  0
  -24.1518  -36.7214   23.2639 C   0  0  0  0  0  0
  -26.0038  -30.7324   21.3914 C   0  0  0  0  0  0
  -26.0874  -29.3435   20.7326 C   0  0  0  0  0  0
  -27.2548  -28.4886   20.7337 C   0  0  0  0  0  0
  -26.0515  -26.8200   19.4786 C   0  0  0  0  0  0
  -24.9030  -27.6382   19.4864 C   0  0  0  0  0  0
  -23.6840  -29.7790   20.1649 C   0  0  0  0  0  0
  -25.4147  -36.3054   24.0339 C   0  0  1  0  0  0
  -20.5864  -28.3568   23.1293 C   0  0  2  0  0  0
  -20.6736  -26.9276   22.5449 C   0  0  0  0  0  0
  -19.5736  -26.6309   21.5235 C   0  0  0  0  0  0
  -18.1884  -26.7854   22.1592 C   0  0  0  0  0  0
  -19.1513  -28.8806   23.2767 C   0  0  0  0  0  0
  -18.9422  -30.1372   23.8818 C   0  0  0  0  0  0
  -17.6436  -30.6540   24.0483 C   0  0  0  0  0  0
  -25.9090  -34.9405   23.5134 C   0  0  0  0  0  0
  -16.5311  -29.9024   23.6314 C   0  0  0  0  0  0
  -16.7224  -28.6435   23.0344 C   0  0  0  0  0  0
  -26.4487  -31.6581   25.0811 C   0  0  0  0  0  0
  -25.3724  -31.3696   26.1534 C   0  0  0  0  0  0
  -27.0336  -30.3001   24.6298 C   0  0  0  0  0  0
  -27.6089  -32.4319   25.7535 C   0  0  0  0  0  0
  -27.5582  -37.1742   24.8438 C   0  0  0  0  0  0
  -21.4319  -29.2867   22.3760 N   0  0  0  0  0  0
  -26.4307  -37.3763   23.9419 N   0  0  0  0  0  0
  -24.7174  -31.0272   22.0995 N   0  0  0  0  0  0
  -23.4293  -28.7807   23.3046 O   0  0  0  0  0  0
  -28.3221  -26.2031   20.1485 O   0  0  0  0  0  0
  -26.5668  -34.8842   22.4707 O   0  0  0  0  0  0
  -23.5465  -32.1314   23.7106 O   0  0  0  0  0  0
  -32.3855  -17.5597   19.0837 C   0  0  0  0  0  0
  -31.7062  -17.9507   20.2728 C   0  0  0  0  0  0
  -32.5288  -18.2360   21.4163 C   0  0  0  0  0  0
  -33.9332  -17.9670   21.3731 C   0  0  0  0  0  0
  -34.5339  -17.4171   20.2091 C   0  0  0  0  0  0
  -33.7711  -17.2990   19.0315 C   0  0  0  0  0  0
  -29.5647  -18.3743   18.9076 C   0  0  0  0  0  0
  -29.3178  -19.0954   21.0292 C   0  0  0  0  0  0
  -29.6417  -19.9540   18.8740 C   0  0  1  0  0  0
  -30.1331  -17.8313   20.2781 C   0  0  1  0  0  0
  -31.9231  -18.8023   22.7024 C   0  0  0  0  0  0
  -34.8072  -18.2395   22.5981 C   0  0  0  0  0  0
  -35.9872  -16.9257   20.2271 C   0  0  0  0  0  0
  -28.8983  -20.5539   17.6569 C   0  0  0  0  0  0
  -35.2231  -17.8631   15.9122 C   0  0  0  0  0  0
  -26.9427  -24.5546   21.4967 C   0  0  0  0  0  0
  -28.6236  -23.2761   19.9308 C   0  0  0  0  0  0
  -29.1550  -21.8672   20.7142 C   0  0  0  0  0  0
  -33.9643  -17.3617   16.6355 C   0  0  0  0  0  0
  -28.2565  -24.7400   20.7030 C   0  0  1  0  0  0
  -29.0452  -20.3709   20.1656 N   0  3  2  0  0  0
  -34.3825  -16.8205   17.8895 O   0  0  0  0  0  0
  -29.7545  -16.3148   20.5516 O   0  0  0  0  0  0
  -31.4563  -12.6652   19.2718 H   0  0  0  0  0  0
  -30.3240  -11.6384   20.0958 H   0  0  0  0  0  0
  -29.8367  -11.7050   17.6134 H   0  0  0  0  0  0
  -29.6013  -13.4389   17.7051 H   0  0  0  0  0  0
  -27.9808  -11.2561   19.0569 H   0  0  0  0  0  0
  -27.3817  -12.3435   17.8448 H   0  0  0  0  0  0
  -27.5597  -14.2369   19.3510 H   0  0  0  0  0  0
  -28.7048  -12.4074   21.5057 H   0  0  0  0  0  0
  -28.3368  -14.1183   21.6875 H   0  0  0  0  0  0
  -25.2727   -9.5747   22.4757 H   0  0  0  0  0  0
  -24.0042   -7.4619   22.7465 H   0  0  0  0  0  0
  -21.0822   -8.8662   19.8906 H   0  0  0  0  0  0
  -22.3587  -10.9636   19.6146 H   0  0  0  0  0  0
  -21.1952   -7.6125   23.9703 H   0  0  0  0  0  0
  -21.1538   -6.0496   25.9074 H   0  0  0  0  0  0
  -22.0567   -2.7584   23.2856 H   0  0  0  0  0  0
  -22.4009  -11.9840   22.4829 H   0  0  0  0  0  0
  -21.1004  -13.1167   22.2728 H   0  0  0  0  0  0
  -24.6536  -15.8578   20.5680 H   0  0  0  0  0  0
  -26.2757  -15.6364   20.1449 H   0  0  0  0  0  0
  -26.7191  -32.5336   23.1154 H   0  0  0  0  0  0
  -25.0069  -33.9684   25.0443 H   0  0  0  0  0  0
  -22.7377  -31.2589   21.3781 H   0  0  0  0  0  0
  -23.3853  -35.9453   23.3279 H   0  0  0  0  0  0
  -24.3630  -36.8914   22.2052 H   0  0  0  0  0  0
  -23.7207  -37.6365   23.6716 H   0  0  0  0  0  0
  -26.1602  -31.4962   20.6281 H   0  0  0  0  0  0
  -26.8672  -30.7883   22.0386 H   0  0  0  0  0  0
  -28.1513  -28.8263   21.2307 H   0  0  0  0  0  0
  -26.0014  -25.8818   18.9512 H   0  0  0  0  0  0
  -24.0006  -27.2936   18.9992 H   0  0  0  0  0  0
  -23.8087  -30.5456   19.4017 H   0  0  0  0  0  0
  -22.8143  -29.2005   19.8532 H   0  0  0  0  0  0
  -25.1356  -36.1911   25.0832 H   0  0  0  0  0  0
  -20.9790  -28.3049   24.1481 H   0  0  0  0  0  0
  -20.5674  -26.2098   23.3599 H   0  0  0  0  0  0
  -21.6567  -26.7311   22.1206 H   0  0  0  0  0  0
  -19.6919  -25.6256   21.1187 H   0  0  0  0  0  0
  -19.6739  -27.3149   20.6795 H   0  0  0  0  0  0
  -17.4183  -26.6500   21.3978 H   0  0  0  0  0  0
  -18.0209  -26.0080   22.9054 H   0  0  0  0  0  0
  -19.7924  -30.7127   24.2204 H   0  0  0  0  0  0
  -17.5022  -31.6219   24.5059 H   0  0  0  0  0  0
  -15.5312  -30.2905   23.7747 H   0  0  0  0  0  0
  -15.8582  -28.0754   22.7180 H   0  0  0  0  0  0
  -24.5924  -30.7030   25.7842 H   0  0  0  0  0  0
  -24.8860  -32.2819   26.4949 H   0  0  0  0  0  0
  -25.8027  -30.8889   27.0346 H   0  0  0  0  0  0
  -26.2913  -29.6757   24.1301 H   0  0  0  0  0  0
  -27.4016  -29.7217   25.4794 H   0  0  0  0  0  0
  -27.8822  -30.4295   23.9593 H   0  0  0  0  0  0
  -27.2805  -33.3701   26.2000 H   0  0  0  0  0  0
  -28.3915  -32.6763   25.0353 H   0  0  0  0  0  0
  -28.0752  -31.8558   26.5527 H   0  0  0  0  0  0
  -28.2544  -38.0090   24.7609 H   0  0  0  0  0  0
  -28.1188  -36.2646   24.6216 H   0  0  0  0  0  0
  -27.2293  -37.1275   25.8830 H   0  0  0  0  0  0
  -20.9581  -29.8711   21.7044 H   0  0  0  0  0  0
  -26.0201  -38.2835   24.1500 H   0  0  0  0  0  0
  -31.8346  -17.2670   18.2083 H   0  0  0  0  0  0
  -29.9778  -17.9338   18.0052 H   0  0  0  0  0  0
  -28.5049  -18.1216   18.8465 H   0  0  0  0  0  0
  -29.5936  -19.3468   22.0433 H   0  0  0  0  0  0
  -28.3091  -18.7231   21.2041 H   0  0  0  0  0  0
  -30.6879  -20.2647   18.8478 H   0  0  0  0  0  0
  -31.5693  -19.8104   22.4841 H   0  0  0  0  0  0
  -32.5906  -18.9395   23.5519 H   0  0  0  0  0  0
  -31.1108  -18.1637   23.0581 H   0  0  0  0  0  0
  -34.5885  -17.5174   23.3891 H   0  0  0  0  0  0
  -34.6196  -19.2456   22.9792 H   0  0  0  0  0  0
  -35.8803  -18.2128   22.3963 H   0  0  0  0  0  0
  -36.6893  -17.7574   20.1811 H   0  0  0  0  0  0
  -36.2192  -16.2503   19.4014 H   0  0  0  0  0  0
  -36.1960  -16.3644   21.1438 H   0  0  0  0  0  0
  -27.8177  -20.4898   17.7818 H   0  0  0  0  0  0
  -29.1401  -20.0146   16.7407 H   0  0  0  0  0  0
  -29.1401  -21.6021   17.4803 H   0  0  0  0  0  0
  -34.9571  -18.3451   14.9687 H   0  0  0  0  0  0
  -35.9081  -17.0425   15.6925 H   0  0  0  0  0  0
  -35.7767  -18.5808   16.5194 H   0  0  0  0  0  0
  -26.9268  -23.6103   22.0394 H   0  0  0  0  0  0
  -26.0691  -24.5371   20.8447 H   0  0  0  0  0  0
  -26.8107  -25.3387   22.2451 H   0  0  0  0  0  0
  -27.7292  -23.0120   19.3694 H   0  0  0  0  0  0
  -29.3482  -23.4988   19.1493 H   0  0  0  0  0  0
  -28.6232  -21.8597   21.6667 H   0  0  0  0  0  0
  -30.1963  -22.0212   20.9992 H   0  0  0  0  0  0
  -33.4578  -16.5989   16.0422 H   0  0  0  0  0  0
  -33.2489  -18.1785   16.7337 H   0  0  0  0  0  0
  -29.0405  -24.8025   21.4585 H   0  0  0  0  0  0
  -28.0580  -20.2783   19.9880 H   0  0  0  0  0  0
  1 25  1  0  0  0
  1 30  2  0  0  0
  1 93  1  0  0  0
  2  3  1  0  0  0
  2 25  1  0  0  0
  2 94  1  0  0  0
  2 95  1  0  0  0
  3  4  1  0  0  0
  3 96  1  0  0  0
  3 97  1  0  0  0
  4  5  1  0  0  0
  4 98  1  0  0  0
  4 99  1  0  0  0
  5  6  1  0  0  0
  5 26  1  0  0  0
  5100  1  0  0  0
  6 25  1  0  0  0
  6101  1  0  0  0
  6102  1  0  0  0
  7  8  2  0  0  0
  7 26  1  0  0  0
  7 29  1  0  0  0
  8  9  1  0  0  0
  8 22  1  0  0  0
  9 10  1  0  0  0
  9 27  2  0  0  0
 10 11  2  0  0  0
 10 15  1  0  0  0
 11 12  1  0  0  0
 11103  1  0  0  0
 12 13  2  0  0  0
 12104  1  0  0  0
 13 14  1  0  0  0
 13 31  1  0  0  0
 14 15  2  0  0  0
 14105  1  0  0  0
 15106  1  0  0  0
 16 17  2  0  0  0
 16 21  1  0  0  0
 16 31  1  0  0  0
 17 18  1  0  0  0
 17107  1  0  0  0
 18 19  2  0  0  0
 18108  1  0  0  0
 19 20  1  0  0  0
 19 24  1  0  0  0
 20 21  2  0  0  0
 20109  1  0  0  0
 21 23  1  0  0  0
 22 28  1  0  0  0
 22 32  2  0  0  0
 26 27  1  0  0  0
 28110  1  0  0  0
 28111  1  0  0  0
 29112  1  0  0  0
 29113  1  0  0  0
 33 34  1  0  0  0
 33 66  1  0  0  0
 33 70  2  0  0  0
 34 36  1  0  0  0
 34 59  1  0  0  0
 34114  1  0  0  0
 35 44  2  0  0  0
 35 45  1  0  0  0
 35 68  1  0  0  0
 36 56  1  0  0  0
 36115  1  0  0  0
 37 39  1  0  0  0
 37 47  1  0  0  0
 37 66  1  0  0  0
 37116  1  0  0  0
 38 43  2  0  0  0
 38 46  1  0  0  0
 38 47  1  0  0  0
 39 64  1  0  0  0
 39 67  2  0  0  0
 40 52  1  0  0  0
 40 53  2  0  0  0
 40 58  1  0  0  0
 41117  1  0  0  0
 41118  1  0  0  0
 41119  1  0  0  0
 41 48  1  0  0  0
 42 43  1  0  0  0
 42 66  1  0  0  0
 42120  1  0  0  0
 42121  1  0  0  0
 43 44  1  0  0  0
 44122  1  0  0  0
 45 46  2  0  0  0
 45123  1  0  0  0
 46124  1  0  0  0
 47125  1  0  0  0
 47126  1  0  0  0
 48 56  1  0  0  0
 48 65  1  0  0  0
 48127  1  0  0  0
 49 50  1  0  0  0
 49 53  1  0  0  0
 49 64  1  0  0  0
 49128  1  0  0  0
 50 51  1  0  0  0
 50129  1  0  0  0
 50130  1  0  0  0
 51 52  1  0  0  0
 51131  1  0  0  0
 51132  1  0  0  0
 52133  1  0  0  0
 52134  1  0  0  0
 53 54  1  0  0  0
 54 55  2  0  0  0
 54135  1  0  0  0
 55 57  1  0  0  0
 55136  1  0  0  0
 56 69  2  0  0  0
 57 58  2  0  0  0
 57137  1  0  0  0
 58138  1  0  0  0
 59 60  1  0  0  0
 59 61  1  0  0  0
 59 62  1  0  0  0
 60139  1  0  0  0
 60140  1  0  0  0
 60141  1  0  0  0
 61142  1  0  0  0
 61143  1  0  0  0
 61144  1  0  0  0
 62145  1  0  0  0
 62146  1  0  0  0
 62147  1  0  0  0
 63 65  1  0  0  0
 63148  1  0  0  0
 63149  1  0  0  0
 63150  1  0  0  0
 64151  1  0  0  0
 65152  1  0  0  0
 68 90  1  0  0  0
 71 72  2  0  0  0
 71 76  1  0  0  0
 71153  1  0  0  0
 72 73  1  0  0  0
 72 80  1  0  0  0
 73 74  2  0  0  0
 73 81  1  0  0  0
 74 75  1  0  0  0
 74 82  1  0  0  0
 75 76  2  0  0  0
 75 83  1  0  0  0
 76 92  1  0  0  0
 77 79  1  0  0  0
 77 80  1  0  0  0
 77154  1  0  0  0
 77155  1  0  0  0
 78 80  1  0  0  0
 78 91  1  0  0  0
 78156  1  0  0  0
 78157  1  0  0  0
 79 84  1  0  0  0
 79 91  1  0  0  0
 79158  1  0  0  0
 80 93  1  0  0  0
 81159  1  0  0  0
 81160  1  0  0  0
 81161  1  0  0  0
 82162  1  0  0  0
 82163  1  0  0  0
 82164  1  0  0  0
 83165  1  0  0  0
 83166  1  0  0  0
 83167  1  0  0  0
 84168  1  0  0  0
 84169  1  0  0  0
 84170  1  0  0  0
 85 89  1  0  0  0
 85171  1  0  0  0
 85172  1  0  0  0
 85173  1  0  0  0
 86174  1  0  0  0
 86175  1  0  0  0
 86176  1  0  0  0
 86 90  1  0  0  0
 87 88  1  0  0  0
 87 90  1  0  0  0
 87177  1  0  0  0
 87178  1  0  0  0
 88179  1  0  0  0
 88180  1  0  0  0
 88 91  1  0  0  0
 89 92  1  0  0  0
 89181  1  0  0  0
 89182  1  0  0  0
 90183  1  0  0  0
 91184  1  0  0  0
M  CHG  1  91   1
M  ISO  4   1 100  68 101  90 101  93 100
M  END
> <chiral flag>
0

> <version>
0

> <s_m_source_file>
/data/baiqing/PycharmProjects/Reinvent-master-3.2/result/LINK_invent/BTK/process_docking_weight1_custom_sum_contain_oxygen_bond_distance_aromatic_linkinvent_7_9_3/rearranged_h_0162.sdf

> <i_m_source_file_index>
56

> <r_mmod_Potential_Energy-OPLS-2005>
693.270874023438

> <r_mmod_Stretch_Energy-OPLS-2005>
342.939636230469

> <r_mmod_Bend_Energy-OPLS-2005>
393.067504882812

> <r_mmod_Torsional_Energy-OPLS-2005>
304.107330322266

> <r_mmod_Improper_Torsional_Energy-OPLS-2005>
4.39277839660645

> <r_mmod_Van_der_Waal_Energy-OPLS-2005>
157.651428222656

> <r_mmod_Electrostatic_Energy-OPLS-2005>
-272.022033691406

> <r_mmod_Solvation_Energy-OPLS-2005>
-427.407531738281

> <b_mmod_Minimization_Converged-OPLS-2005>
0

> <r_mmod_RMS_Derivative-OPLS-2005>
8.98968505859375

$$$$
56
                    3D
 Structure written by MMmdl.
173183  0  0  1  0            999 V2000
  -30.7309  -14.4506   20.6532 C   0  0  0  0  0  0
  -30.4230  -12.3275   19.4118 C   0  0  0  0  0  0
  -29.4879  -12.5209   18.2010 C   0  0  0  0  0  0
  -28.0130  -12.3528   18.6146 C   0  0  0  0  0  0
  -27.6617  -13.1823   19.8746 C   0  0  2  0  0  0
  -28.7062  -12.9288   20.9916 C   0  0  0  0  0  0
  -25.2608  -13.8104   20.5656 C   0  0  0  0  0  0
  -24.1839  -13.0416   20.9177 C   0  0  0  0  0  0
  -24.6364  -11.6876   20.8747 C   0  0  0  0  0  0
  -23.9029  -10.4277   21.0420 C   0  0  0  0  0  0
  -24.3591   -9.4194   21.9192 C   0  0  0  0  0  0
  -23.6273   -8.2228   22.0756 C   0  0  0  0  0  0
  -22.4257   -8.0270   21.3545 C   0  0  0  0  0  0
  -21.9888   -9.0243   20.4648 C   0  0  0  0  0  0
  -22.7209  -10.2123   20.3062 C   0  0  0  0  0  0
  -21.6842   -6.0729   22.5280 C   0  0  0  0  0  0
  -21.4003   -6.5636   23.8213 C   0  0  0  0  0  0
  -21.3656   -5.6789   24.9176 C   0  0  0  0  0  0
  -21.6045   -4.3051   24.7225 C   0  0  0  0  0  0
  -21.8819   -3.8142   23.4346 C   0  0  0  0  0  0
  -21.9189   -4.6959   22.3404 C   0  0  0  0  0  0
  -22.7868  -13.5244   21.1845 C   0  0  0  0  0  0
  -22.1658   -4.2146   21.0980 F   0  0  0  0  0  0
  -21.5634   -3.4534   25.7737 F   0  0  0  0  0  0
  -30.0313  -13.2892   20.4616 N   0  0  0  0  0  0
  -26.3015  -12.9220   20.3351 N   0  0  0  0  0  0
  -25.9277  -11.6408   20.5768 N   0  0  0  0  0  0
  -22.0496  -12.8249   22.0399 N   0  0  0  0  0  0
  -25.4345  -15.1817   20.4031 N   0  0  0  0  0  0
  -31.7957  -14.6531   20.0563 O   0  0  0  0  0  0
  -21.6624   -6.8867   21.4240 O   0  0  0  0  0  0
  -22.3568  -14.5559   20.6699 O   0  0  0  0  0  0
  -24.6110  -31.8695   23.2116 C   0  0  0  0  0  0
  -25.9014  -32.4832   23.8406 C   0  0  1  0  0  0
  -27.2412  -27.4592   20.0990 C   0  0  0  0  0  0
  -25.5882  -33.8630   24.2338 N   0  0  0  0  0  0
  -23.3995  -30.4910   21.5507 C   0  0  2  0  0  0
  -24.8499  -28.9550   20.1196 C   0  0  0  0  0  0
  -22.7395  -29.4661   22.5002 C   0  0  0  0  0  0
  -18.0267  -28.1375   22.8495 C   0  0  0  0  0  0
  -24.1481  -36.7316   23.2640 C   0  0  0  0  0  0
  -25.9248  -30.8404   21.3634 C   0  0  0  0  0  0
  -26.0051  -29.4728   20.7201 C   0  0  0  0  0  0
  -27.2045  -28.7286   20.7155 C   0  0  0  0  0  0
  -26.0773  -26.9494   19.4914 C   0  0  0  0  0  0
  -24.8781  -27.6889   19.5061 C   0  0  0  0  0  0
  -23.6091  -29.8183   20.1666 C   0  0  0  0  0  0
  -25.4101  -36.3118   24.0343 C   0  0  1  0  0  0
  -20.5855  -28.3657   23.1329 C   0  0  2  0  0  0
  -20.6754  -26.9395   22.5427 C   0  0  0  0  0  0
  -19.5739  -26.6384   21.5215 C   0  0  0  0  0  0
  -18.1914  -26.7927   22.1617 C   0  0  0  0  0  0
  -19.1516  -28.8831   23.2911 C   0  0  0  0  0  0
  -18.9446  -30.1437   23.8922 C   0  0  0  0  0  0
  -17.6451  -30.6585   24.0566 C   0  0  0  0  0  0
  -25.9028  -34.9482   23.5138 C   0  0  0  0  0  0
  -16.5341  -29.9089   23.6324 C   0  0  0  0  0  0
  -16.7258  -28.6504   23.0350 C   0  0  0  0  0  0
  -26.4457  -31.6602   25.0721 C   0  0  0  0  0  0
  -25.3739  -31.3718   26.1489 C   0  0  0  0  0  0
  -27.0265  -30.3040   24.6075 C   0  0  0  0  0  0
  -27.6054  -32.4309   25.7464 C   0  0  0  0  0  0
  -27.5582  -37.1805   24.8461 C   0  0  0  0  0  0
  -21.4127  -29.3025   22.3736 N   0  0  0  0  0  0
  -26.4288  -37.3801   23.9416 N   0  0  0  0  0  0
  -24.6630  -31.0811   22.1009 N   0  0  0  0  0  0
  -23.4177  -28.8211   23.3042 O   0  0  0  0  0  0
  -28.3996  -26.7250   20.0400 O   0  0  0  0  0  0
  -26.5592  -34.8931   22.4701 O   0  0  0  0  0  0
  -23.5309  -32.1437   23.7523 O   0  0  0  0  0  0
  -30.1548  -20.0982   20.3313 C   0  0  0  0  0  0
  -30.0249  -19.7148   21.6803 C   0  0  0  0  0  0
  -30.0722  -21.4612   19.9811 C   0  0  0  0  0  0
  -29.8711  -22.4152   21.0064 C   0  0  0  0  0  0
  -29.8450  -20.7376   22.6361 C   0  0  0  0  0  0
  -30.8616  -24.7657   21.4045 C   0  0  0  0  0  0
  -30.3139  -26.2008   21.4070 C   0  0  0  0  0  0
  -29.0022  -17.4029   21.3076 C   0  0  0  0  0  0
  -31.4153  -17.5566   21.9532 C   0  0  0  0  0  0
  -28.4664  -24.5909   21.1979 C   0  0  0  0  0  0
  -29.0056  -15.9351   21.7720 C   0  0  0  0  0  0
  -31.3428  -16.0764   22.4072 C   0  0  0  0  0  0
  -30.0379  -18.2338   22.0815 C   0  0  0  0  0  0
  -29.7699  -23.9250   20.7358 C   0  0  2  0  0  0
  -28.7829  -26.0970   21.2635 C   0  0  2  0  0  0
  -30.1928  -21.8556   18.5176 C   0  0  0  0  0  0
  -29.5646  -21.4611   24.9188 C   0  0  0  0  0  0
  -29.7720  -22.0458   22.3011 N   0  0  0  0  0  0
  -30.3388  -15.3085   21.6413 N   0  0  0  0  0  0
  -29.7313  -20.4099   23.9712 O   0  0  0  0  0  0
  -31.4636  -12.4373   19.1020 H   0  0  0  0  0  0
  -30.3454  -11.3074   19.7917 H   0  0  0  0  0  0
  -29.7382  -11.8089   17.4134 H   0  0  0  0  0  0
  -29.6392  -13.5142   17.7753 H   0  0  0  0  0  0
  -27.8361  -11.2937   18.8072 H   0  0  0  0  0  0
  -27.3558  -12.6246   17.7877 H   0  0  0  0  0  0
  -27.7076  -14.2221   19.5569 H   0  0  0  0  0  0
  -28.7026  -11.8714   21.2604 H   0  0  0  0  0  0
  -28.4580  -13.4303   21.9249 H   0  0  0  0  0  0
  -25.2738   -9.5669   22.4765 H   0  0  0  0  0  0
  -23.9985   -7.4614   22.7469 H   0  0  0  0  0  0
  -21.0821   -8.8759   19.8952 H   0  0  0  0  0  0
  -22.3675  -10.9662   19.6168 H   0  0  0  0  0  0
  -21.1986   -7.6143   23.9716 H   0  0  0  0  0  0
  -21.1480   -6.0517   25.9080 H   0  0  0  0  0  0
  -22.0599   -2.7605   23.2844 H   0  0  0  0  0  0
  -22.4090  -11.9900   22.4787 H   0  0  0  0  0  0
  -21.1120  -13.1296   22.2606 H   0  0  0  0  0  0
  -24.6686  -15.8373   20.5129 H   0  0  0  0  0  0
  -26.2855  -15.6194   20.0749 H   0  0  0  0  0  0
  -26.7086  -32.5560   23.1178 H   0  0  0  0  0  0
  -25.0032  -33.9795   25.0481 H   0  0  0  0  0  0
  -22.6876  -31.3071   21.4098 H   0  0  0  0  0  0
  -23.3750  -35.9640   23.3297 H   0  0  0  0  0  0
  -24.3580  -36.8933   22.2055 H   0  0  0  0  0  0
  -23.7221  -37.6515   23.6654 H   0  0  0  0  0  0
  -26.0304  -31.6026   20.5900 H   0  0  0  0  0  0
  -26.8153  -30.9004   21.9770 H   0  0  0  0  0  0
  -28.0999  -29.1276   21.1716 H   0  0  0  0  0  0
  -26.1019  -25.9819   19.0097 H   0  0  0  0  0  0
  -23.9910  -27.2848   19.0387 H   0  0  0  0  0  0
  -23.7141  -30.5903   19.4035 H   0  0  0  0  0  0
  -22.7353  -29.2333   19.8736 H   0  0  0  0  0  0
  -25.1277  -36.1985   25.0836 H   0  0  0  0  0  0
  -20.9951  -28.3216   24.1449 H   0  0  0  0  0  0
  -20.5644  -26.2266   23.3610 H   0  0  0  0  0  0
  -21.6625  -26.7433   22.1227 H   0  0  0  0  0  0
  -19.6900  -25.6301   21.1231 H   0  0  0  0  0  0
  -19.6690  -27.3206   20.6757 H   0  0  0  0  0  0
  -17.4194  -26.6692   21.4006 H   0  0  0  0  0  0
  -18.0302  -26.0058   22.8997 H   0  0  0  0  0  0
  -19.7924  -30.7238   24.2306 H   0  0  0  0  0  0
  -17.5011  -31.6268   24.5162 H   0  0  0  0  0  0
  -15.5345  -30.3000   23.7638 H   0  0  0  0  0  0
  -15.8655  -28.0833   22.7053 H   0  0  0  0  0  0
  -24.5888  -30.7088   25.7837 H   0  0  0  0  0  0
  -24.8960  -32.2883   26.4964 H   0  0  0  0  0  0
  -25.8101  -30.8866   27.0229 H   0  0  0  0  0  0
  -26.2785  -29.6816   24.1148 H   0  0  0  0  0  0
  -27.4055  -29.7262   25.4514 H   0  0  0  0  0  0
  -27.8619  -30.4353   23.9194 H   0  0  0  0  0  0
  -27.2698  -33.3614   26.2056 H   0  0  0  0  0  0
  -28.3848  -32.6857   25.0270 H   0  0  0  0  0  0
  -28.0735  -31.8420   26.5360 H   0  0  0  0  0  0
  -28.2607  -38.0095   24.7509 H   0  0  0  0  0  0
  -28.1069  -36.2631   24.6277 H   0  0  0  0  0  0
  -27.2309  -37.1445   25.8867 H   0  0  0  0  0  0
  -20.9284  -29.8742   21.6956 H   0  0  0  0  0  0
  -26.0183  -38.2879   24.1427 H   0  0  0  0  0  0
  -30.3025  -19.3494   19.5663 H   0  0  0  0  0  0
  -31.0007  -24.4423   22.4369 H   0  0  0  0  0  0
  -31.8249  -24.6754   20.9019 H   0  0  0  0  0  0
  -30.7370  -26.7646   20.5744 H   0  0  0  0  0  0
  -30.5957  -26.7258   22.3205 H   0  0  0  0  0  0
  -28.0066  -17.8253   21.4516 H   0  0  0  0  0  0
  -29.1993  -17.4373   20.2355 H   0  0  0  0  0  0
  -31.7694  -17.6086   20.9227 H   0  0  0  0  0  0
  -32.1492  -18.0893   22.5595 H   0  0  0  0  0  0
  -28.2164  -24.2472   22.2022 H   0  0  0  0  0  0
  -27.6187  -24.3514   20.5556 H   0  0  0  0  0  0
  -28.2367  -15.4410   21.1966 H   0  0  0  0  0  0
  -28.6871  -15.8695   22.8134 H   0  0  0  0  0  0
  -31.0784  -16.0291   23.4645 H   0  0  0  0  0  0
  -32.3327  -15.6203   22.3398 H   0  0  0  0  0  0
  -29.7536  -18.1716   23.1323 H   0  0  0  0  0  0
  -29.8446  -24.1138   19.6659 H   0  0  0  0  0  0
  -28.2870  -26.5507   22.1248 H   0  0  0  0  0  0
  -30.3507  -20.9847   17.8804 H   0  0  0  0  0  0
  -31.0353  -22.5312   18.3670 H   0  0  0  0  0  0
  -29.2829  -22.3512   18.1772 H   0  0  0  0  0  0
  -29.5094  -21.0383   25.9215 H   0  0  0  0  0  0
  -28.6413  -22.0146   24.7423 H   0  0  0  0  0  0
  -30.4065  -22.1549   24.8997 H   0  0  0  0  0  0
  1 25  1  0  0  0
  1 30  2  0  0  0
  1 89  1  0  0  0
  2  3  1  0  0  0
  2 25  1  0  0  0
  2 91  1  0  0  0
  2 92  1  0  0  0
  3  4  1  0  0  0
  3 93  1  0  0  0
  3 94  1  0  0  0
  4  5  1  0  0  0
  4 95  1  0  0  0
  4 96  1  0  0  0
  5  6  1  0  0  0
  5 26  1  0  0  0
  5 97  1  0  0  0
  6 25  1  0  0  0
  6 98  1  0  0  0
  6 99  1  0  0  0
  7  8  2  0  0  0
  7 26  1  0  0  0
  7 29  1  0  0  0
  8  9  1  0  0  0
  8 22  1  0  0  0
  9 10  1  0  0  0
  9 27  2  0  0  0
 10 11  2  0  0  0
 10 15  1  0  0  0
 11 12  1  0  0  0
 11100  1  0  0  0
 12 13  2  0  0  0
 12101  1  0  0  0
 13 14  1  0  0  0
 13 31  1  0  0  0
 14 15  2  0  0  0
 14102  1  0  0  0
 15103  1  0  0  0
 16 17  2  0  0  0
 16 21  1  0  0  0
 16 31  1  0  0  0
 17 18  1  0  0  0
 17104  1  0  0  0
 18 19  2  0  0  0
 18105  1  0  0  0
 19 20  1  0  0  0
 19 24  1  0  0  0
 20 21  2  0  0  0
 20106  1  0  0  0
 21 23  1  0  0  0
 22 28  1  0  0  0
 22 32  2  0  0  0
 26 27  1  0  0  0
 28107  1  0  0  0
 28108  1  0  0  0
 29109  1  0  0  0
 29110  1  0  0  0
 33 34  1  0  0  0
 33 66  1  0  0  0
 33 70  2  0  0  0
 34 36  1  0  0  0
 34 59  1  0  0  0
 34111  1  0  0  0
 35 44  2  0  0  0
 35 45  1  0  0  0
 35 68  1  0  0  0
 36 56  1  0  0  0
 36112  1  0  0  0
 37 39  1  0  0  0
 37 47  1  0  0  0
 37 66  1  0  0  0
 37113  1  0  0  0
 38 43  2  0  0  0
 38 46  1  0  0  0
 38 47  1  0  0  0
 39 64  1  0  0  0
 39 67  2  0  0  0
 40 52  1  0  0  0
 40 53  2  0  0  0
 40 58  1  0  0  0
 41114  1  0  0  0
 41115  1  0  0  0
 41116  1  0  0  0
 41 48  1  0  0  0
 42 43  1  0  0  0
 42 66  1  0  0  0
 42117  1  0  0  0
 42118  1  0  0  0
 43 44  1  0  0  0
 44119  1  0  0  0
 45 46  2  0  0  0
 45120  1  0  0  0
 46121  1  0  0  0
 47122  1  0  0  0
 47123  1  0  0  0
 48 56  1  0  0  0
 48 65  1  0  0  0
 48124  1  0  0  0
 49 50  1  0  0  0
 49 53  1  0  0  0
 49 64  1  0  0  0
 49125  1  0  0  0
 50 51  1  0  0  0
 50126  1  0  0  0
 50127  1  0  0  0
 51 52  1  0  0  0
 51128  1  0  0  0
 51129  1  0  0  0
 52130  1  0  0  0
 52131  1  0  0  0
 53 54  1  0  0  0
 54 55  2  0  0  0
 54132  1  0  0  0
 55 57  1  0  0  0
 55133  1  0  0  0
 56 69  2  0  0  0
 57 58  2  0  0  0
 57134  1  0  0  0
 58135  1  0  0  0
 59 60  1  0  0  0
 59 61  1  0  0  0
 59 62  1  0  0  0
 60136  1  0  0  0
 60137  1  0  0  0
 60138  1  0  0  0
 61139  1  0  0  0
 61140  1  0  0  0
 61141  1  0  0  0
 62142  1  0  0  0
 62143  1  0  0  0
 62144  1  0  0  0
 63 65  1  0  0  0
 63145  1  0  0  0
 63146  1  0  0  0
 63147  1  0  0  0
 64148  1  0  0  0
 65149  1  0  0  0
 68 85  1  0  0  0
 71 72  2  0  0  0
 71 73  1  0  0  0
 71150  1  0  0  0
 72 75  1  0  0  0
 72 83  1  0  0  0
 73 74  2  0  0  0
 73 86  1  0  0  0
 74 88  1  0  0  0
 74 84  1  0  0  0
 75 88  2  0  0  0
 75 90  1  0  0  0
 76 77  1  0  0  0
 76 84  1  0  0  0
 76151  1  0  0  0
 76152  1  0  0  0
 77 85  1  0  0  0
 77153  1  0  0  0
 77154  1  0  0  0
 78 81  1  0  0  0
 78 83  1  0  0  0
 78155  1  0  0  0
 78156  1  0  0  0
 79 82  1  0  0  0
 79 83  1  0  0  0
 79157  1  0  0  0
 79158  1  0  0  0
 80 84  1  0  0  0
 80 85  1  0  0  0
 80159  1  0  0  0
 80160  1  0  0  0
 81 89  1  0  0  0
 81161  1  0  0  0
 81162  1  0  0  0
 82 89  1  0  0  0
 82163  1  0  0  0
 82164  1  0  0  0
 83165  1  0  0  0
 84166  1  0  0  0
 85167  1  0  0  0
 86168  1  0  0  0
 86169  1  0  0  0
 86170  1  0  0  0
 87 90  1  0  0  0
 87171  1  0  0  0
 87172  1  0  0  0
 87173  1  0  0  0
M  ISO  4   1 100  68 101  85 101  89 100
M  END
> <chiral flag>
0

> <version>
0

> <s_m_source_file>
/data/baiqing/PycharmProjects/Reinvent-master-3.2/result/LINK_invent/BTK/process_docking_weight1_custom_sum_contain_oxygen_bond_distance_aromatic_linkinvent_7_9_3/rearranged_h_0162.sdf

> <i_m_source_file_index>
57

> <r_mmod_Potential_Energy-OPLS-2005>
13.369083404541

> <r_mmod_Stretch_Energy-OPLS-2005>
40.5676422119141

> <r_mmod_Bend_Energy-OPLS-2005>
137.338165283203

> <r_mmod_Torsional_Energy-OPLS-2005>
347.174987792969

> <r_mmod_Improper_Torsional_Energy-OPLS-2005>
4.93568992614746

> <r_mmod_Van_der_Waal_Energy-OPLS-2005>
171.61296081543

> <r_mmod_Electrostatic_Energy-OPLS-2005>
-497.865020751953

> <r_mmod_Solvation_Energy-OPLS-2005>
-199.34211730957

> <b_mmod_Minimization_Converged-OPLS-2005>
0

> <r_mmod_RMS_Derivative-OPLS-2005>
0.455306619405746

$$$$
57
                    3D
 Structure written by MMmdl.
170179  0  0  1  0            999 V2000
  -30.5863  -14.7180   20.4162 C   0  0  0  0  0  0
  -30.4376  -12.4322   19.4380 C   0  0  0  0  0  0
  -29.4985  -12.4959   18.2107 C   0  0  0  0  0  0
  -28.0226  -12.3267   18.6311 C   0  0  0  0  0  0
  -27.6383  -13.2218   19.8403 C   0  0  2  0  0  0
  -28.6948  -13.1231   20.9641 C   0  0  0  0  0  0
  -25.2437  -13.8133   20.5572 C   0  0  0  0  0  0
  -24.1763  -13.0369   20.9181 C   0  0  0  0  0  0
  -24.6402  -11.6876   20.8807 C   0  0  0  0  0  0
  -23.9081  -10.4251   21.0466 C   0  0  0  0  0  0
  -24.3610   -9.4151   21.9234 C   0  0  0  0  0  0
  -23.6275   -8.2197   22.0781 C   0  0  0  0  0  0
  -22.4267   -8.0237   21.3550 C   0  0  0  0  0  0
  -21.9904   -9.0228   20.4669 C   0  0  0  0  0  0
  -22.7247  -10.2105   20.3111 C   0  0  0  0  0  0
  -21.6817   -6.0716   22.5281 C   0  0  0  0  0  0
  -21.3991   -6.5633   23.8204 C   0  0  0  0  0  0
  -21.3667   -5.6788   24.9180 C   0  0  0  0  0  0
  -21.6048   -4.3050   24.7223 C   0  0  0  0  0  0
  -21.8819   -3.8132   23.4346 C   0  0  0  0  0  0
  -21.9174   -4.6958   22.3391 C   0  0  0  0  0  0
  -22.7779  -13.5164   21.1814 C   0  0  0  0  0  0
  -22.1642   -4.2141   21.0971 F   0  0  0  0  0  0
  -21.5647   -3.4533   25.7741 F   0  0  0  0  0  0
  -29.9912  -13.4830   20.3762 N   0  0  0  0  0  0
  -26.2908  -12.9363   20.3231 N   0  0  0  0  0  0
  -25.9321  -11.6523   20.5783 N   0  0  0  0  0  0
  -22.0425  -12.8202   22.0434 N   0  0  0  0  0  0
  -25.3907  -15.1845   20.3799 N   0  0  0  0  0  0
  -31.7808  -14.8540   20.1446 O   0  0  0  0  0  0
  -21.6618   -6.8853   21.4231 O   0  0  0  0  0  0
  -22.3464  -14.5445   20.6627 O   0  0  0  0  0  0
  -24.6342  -31.8604   23.2072 C   0  0  0  0  0  0
  -25.9171  -32.4799   23.8407 C   0  0  1  0  0  0
  -27.2002  -27.2580   20.0900 C   0  0  0  0  0  0
  -25.5985  -33.8609   24.2332 N   0  0  0  0  0  0
  -23.4315  -30.4834   21.5596 C   0  0  2  0  0  0
  -24.8695  -28.9482   20.1046 C   0  0  0  0  0  0
  -22.7500  -29.4607   22.5044 C   0  0  0  0  0  0
  -18.0266  -28.1426   22.8497 C   0  0  0  0  0  0
  -24.1490  -36.7287   23.2636 C   0  0  0  0  0  0
  -25.9793  -30.7582   21.3976 C   0  0  0  0  0  0
  -26.0451  -29.3861   20.7300 C   0  0  0  0  0  0
  -27.2104  -28.5507   20.7207 C   0  0  0  0  0  0
  -26.0202  -26.9394   19.3727 C   0  0  0  0  0  0
  -24.8642  -27.7334   19.4145 C   0  0  0  0  0  0
  -23.6433  -29.8321   20.1707 C   0  0  0  0  0  0
  -25.4115  -36.3093   24.0335 C   0  0  1  0  0  0
  -20.5880  -28.3788   23.1387 C   0  0  2  0  0  0
  -20.6802  -26.9529   22.5465 C   0  0  0  0  0  0
  -19.5809  -26.6432   21.5261 C   0  0  0  0  0  0
  -18.1947  -26.8010   22.1594 C   0  0  0  0  0  0
  -19.1507  -28.8886   23.2949 C   0  0  0  0  0  0
  -18.9370  -30.1438   23.9061 C   0  0  0  0  0  0
  -17.6358  -30.6532   24.0754 C   0  0  0  0  0  0
  -25.9054  -34.9478   23.5101 C   0  0  0  0  0  0
  -16.5293  -29.9102   23.6302 C   0  0  0  0  0  0
  -16.7236  -28.6542   23.0300 C   0  0  0  0  0  0
  -26.4515  -31.6629   25.0809 C   0  0  0  0  0  0
  -25.3728  -31.3776   26.1519 C   0  0  0  0  0  0
  -27.0328  -30.3040   24.6299 C   0  0  0  0  0  0
  -27.6059  -32.4385   25.7559 C   0  0  0  0  0  0
  -27.5583  -37.1801   24.8468 C   0  0  0  0  0  0
  -21.4213  -29.3153   22.3843 N   0  0  0  0  0  0
  -26.4298  -37.3789   23.9406 N   0  0  0  0  0  0
  -24.7007  -31.0518   22.1100 N   0  0  0  0  0  0
  -23.4201  -28.8084   23.3113 O   0  0  0  0  0  0
  -28.2385  -26.2887   20.2016 O   0  0  0  0  0  0
  -26.5614  -34.8930   22.4672 O   0  0  0  0  0  0
  -23.5484  -32.1493   23.7331 O   0  0  0  0  0  0
  -28.0225  -20.7815   21.4989 C   0  0  0  0  0  0
  -27.1382  -20.1502   22.4578 C   0  0  0  0  0  0
  -28.9409  -19.8197   20.8577 C   0  0  0  0  0  0
  -27.3206  -18.8219   22.9138 C   0  0  0  0  0  0
  -28.1158  -17.9103   22.2007 C   0  0  0  0  0  0
  -28.9607  -18.3690   21.1474 C   0  0  0  0  0  0
  -26.7550  -24.6110   21.2179 C   0  0  0  0  0  0
  -26.5991  -23.1084   21.3647 C   0  0  0  0  0  0
  -28.6952  -23.4731   20.3806 C   0  0  0  0  0  0
  -27.8240  -24.8320   20.1656 C   0  0  1  0  0  0
  -28.0052  -22.4468   21.4377 C   0  0  2  0  0  0
  -25.8766  -20.8145   23.0185 C   0  0  0  0  0  0
  -29.9513  -20.3272   19.8370 C   0  0  0  0  0  0
  -26.6476  -18.3587   24.2195 C   0  0  0  0  0  0
  -27.9789  -16.4301   22.5690 C   0  0  0  0  0  0
  -29.9424  -17.3141   20.4283 C   0  0  0  0  0  0
  -29.7444  -15.8043   20.5260 N   0  0  0  0  0  0
  -28.5474  -22.8819   22.6728 O   0  0  0  0  0  0
  -31.4747  -12.5716   19.1208 H   0  0  0  0  0  0
  -30.3973  -11.4503   19.9112 H   0  0  0  0  0  0
  -29.7684  -11.7282   17.4818 H   0  0  0  0  0  0
  -29.6281  -13.4555   17.7068 H   0  0  0  0  0  0
  -27.8683  -11.2769   18.8835 H   0  0  0  0  0  0
  -27.3650  -12.5339   17.7850 H   0  0  0  0  0  0
  -27.6329  -14.2451   19.4639 H   0  0  0  0  0  0
  -28.7352  -12.1106   21.3681 H   0  0  0  0  0  0
  -28.4538  -13.7752   21.8019 H   0  0  0  0  0  0
  -25.2750   -9.5602   22.4833 H   0  0  0  0  0  0
  -23.9967   -7.4577   22.7500 H   0  0  0  0  0  0
  -21.0828   -8.8728   19.8976 H   0  0  0  0  0  0
  -22.3684  -10.9648   19.6236 H   0  0  0  0  0  0
  -21.1968   -7.6135   23.9707 H   0  0  0  0  0  0
  -21.1502   -6.0520   25.9077 H   0  0  0  0  0  0
  -22.0599   -2.7597   23.2835 H   0  0  0  0  0  0
  -22.4003  -11.9879   22.4868 H   0  0  0  0  0  0
  -21.1059  -13.1258   22.2654 H   0  0  0  0  0  0
  -24.5977  -15.8070   20.4937 H   0  0  0  0  0  0
  -26.1904  -15.6414   19.9613 H   0  0  0  0  0  0
  -26.7229  -32.5401   23.1124 H   0  0  0  0  0  0
  -25.0149  -33.9759   25.0489 H   0  0  0  0  0  0
  -22.7315  -31.3107   21.4243 H   0  0  0  0  0  0
  -23.3771  -35.9598   23.3302 H   0  0  0  0  0  0
  -24.3561  -36.8906   22.2041 H   0  0  0  0  0  0
  -23.7219  -37.6483   23.6651 H   0  0  0  0  0  0
  -26.1245  -31.5161   20.6283 H   0  0  0  0  0  0
  -26.8555  -30.7924   22.0326 H   0  0  0  0  0  0
  -28.1015  -28.8614   21.2459 H   0  0  0  0  0  0
  -25.9246  -26.0276   18.8007 H   0  0  0  0  0  0
  -23.9771  -27.4168   18.8808 H   0  0  0  0  0  0
  -23.7687  -30.6173   19.4256 H   0  0  0  0  0  0
  -22.7607  -29.2726   19.8588 H   0  0  0  0  0  0
  -25.1288  -36.1946   25.0829 H   0  0  0  0  0  0
  -20.9940  -28.3302   24.1527 H   0  0  0  0  0  0
  -20.5855  -26.2344   23.3620 H   0  0  0  0  0  0
  -21.6697  -26.7720   22.1207 H   0  0  0  0  0  0
  -19.6890  -25.6313   21.1385 H   0  0  0  0  0  0
  -19.6751  -27.3201   20.6721 H   0  0  0  0  0  0
  -17.4289  -26.6887   21.3904 H   0  0  0  0  0  0
  -18.0268  -26.0112   22.8946 H   0  0  0  0  0  0
  -19.7811  -30.7205   24.2624 H   0  0  0  0  0  0
  -17.4830  -31.6080   24.5582 H   0  0  0  0  0  0
  -15.5281  -30.3049   23.7599 H   0  0  0  0  0  0
  -15.8601  -28.0945   22.6971 H   0  0  0  0  0  0
  -24.5924  -30.7099   25.7859 H   0  0  0  0  0  0
  -24.8883  -32.2927   26.4934 H   0  0  0  0  0  0
  -25.8038  -30.8980   27.0313 H   0  0  0  0  0  0
  -26.2893  -29.6840   24.1274 H   0  0  0  0  0  0
  -27.3932  -29.7267   25.4817 H   0  0  0  0  0  0
  -27.8831  -30.4326   23.9600 H   0  0  0  0  0  0
  -27.2677  -33.3699   26.2120 H   0  0  0  0  0  0
  -28.3858  -32.6945   25.0378 H   0  0  0  0  0  0
  -28.0749  -31.8545   26.5490 H   0  0  0  0  0  0
  -28.2597  -38.0100   24.7524 H   0  0  0  0  0  0
  -28.1078  -36.2628   24.6284 H   0  0  0  0  0  0
  -27.2298  -37.1448   25.8872 H   0  0  0  0  0  0
  -20.9440  -29.9090   21.7192 H   0  0  0  0  0  0
  -26.0181  -38.2869   24.1401 H   0  0  0  0  0  0
  -27.0821  -25.0456   22.1593 H   0  0  0  0  0  0
  -25.7888  -25.0600   21.0003 H   0  0  0  0  0  0
  -26.0508  -22.7112   20.5072 H   0  0  0  0  0  0
  -25.9741  -23.0589   22.2393 H   0  0  0  0  0  0
  -29.7489  -23.6624   20.5971 H   0  0  0  0  0  0
  -28.6715  -23.0175   19.3952 H   0  0  0  0  0  0
  -27.4024  -24.6662   19.1730 H   0  0  0  0  0  0
  -25.2442  -21.1287   22.1916 H   0  0  0  0  0  0
  -26.1129  -21.6185   23.7086 H   0  0  0  0  0  0
  -25.1817  -20.1615   23.5402 H   0  0  0  0  0  0
  -30.0605  -19.6566   18.9851 H   0  0  0  0  0  0
  -29.6560  -21.2608   19.3937 H   0  0  0  0  0  0
  -30.9317  -20.4666   20.2948 H   0  0  0  0  0  0
  -26.4443  -19.1714   24.9171 H   0  0  0  0  0  0
  -27.2944  -17.6995   24.7987 H   0  0  0  0  0  0
  -25.7132  -17.8372   24.0114 H   0  0  0  0  0  0
  -28.9337  -16.0002   22.8675 H   0  0  0  0  0  0
  -27.5573  -15.9022   21.7184 H   0  0  0  0  0  0
  -27.2858  -16.1698   23.3643 H   0  0  0  0  0  0
  -30.9539  -17.5335   20.7738 H   0  0  0  0  0  0
  -29.9407  -17.5296   19.3571 H   0  0  0  0  0  0
  -28.7781  -15.5517   20.6533 H   0  0  0  0  0  0
  -28.4420  -23.8246   22.7215 H   0  0  0  0  0  0
  1 25  1  0  0  0
  1 30  2  0  0  0
  1 87  1  0  0  0
  2  3  1  0  0  0
  2 25  1  0  0  0
  2 89  1  0  0  0
  2 90  1  0  0  0
  3  4  1  0  0  0
  3 91  1  0  0  0
  3 92  1  0  0  0
  4  5  1  0  0  0
  4 93  1  0  0  0
  4 94  1  0  0  0
  5  6  1  0  0  0
  5 26  1  0  0  0
  5 95  1  0  0  0
  6 25  1  0  0  0
  6 96  1  0  0  0
  6 97  1  0  0  0
  7  8  2  0  0  0
  7 26  1  0  0  0
  7 29  1  0  0  0
  8  9  1  0  0  0
  8 22  1  0  0  0
  9 10  1  0  0  0
  9 27  2  0  0  0
 10 11  2  0  0  0
 10 15  1  0  0  0
 11 12  1  0  0  0
 11 98  1  0  0  0
 12 13  2  0  0  0
 12 99  1  0  0  0
 13 14  1  0  0  0
 13 31  1  0  0  0
 14 15  2  0  0  0
 14100  1  0  0  0
 15101  1  0  0  0
 16 17  2  0  0  0
 16 21  1  0  0  0
 16 31  1  0  0  0
 17 18  1  0  0  0
 17102  1  0  0  0
 18 19  2  0  0  0
 18103  1  0  0  0
 19 20  1  0  0  0
 19 24  1  0  0  0
 20 21  2  0  0  0
 20104  1  0  0  0
 21 23  1  0  0  0
 22 28  1  0  0  0
 22 32  2  0  0  0
 26 27  1  0  0  0
 28105  1  0  0  0
 28106  1  0  0  0
 29107  1  0  0  0
 29108  1  0  0  0
 33 34  1  0  0  0
 33 66  1  0  0  0
 33 70  2  0  0  0
 34 36  1  0  0  0
 34 59  1  0  0  0
 34109  1  0  0  0
 35 44  2  0  0  0
 35 45  1  0  0  0
 35 68  1  0  0  0
 36 56  1  0  0  0
 36110  1  0  0  0
 37 39  1  0  0  0
 37 47  1  0  0  0
 37 66  1  0  0  0
 37111  1  0  0  0
 38 43  2  0  0  0
 38 46  1  0  0  0
 38 47  1  0  0  0
 39 64  1  0  0  0
 39 67  2  0  0  0
 40 52  1  0  0  0
 40 53  2  0  0  0
 40 58  1  0  0  0
 41112  1  0  0  0
 41113  1  0  0  0
 41114  1  0  0  0
 41 48  1  0  0  0
 42 43  1  0  0  0
 42 66  1  0  0  0
 42115  1  0  0  0
 42116  1  0  0  0
 43 44  1  0  0  0
 44117  1  0  0  0
 45 46  2  0  0  0
 45118  1  0  0  0
 46119  1  0  0  0
 47120  1  0  0  0
 47121  1  0  0  0
 48 56  1  0  0  0
 48 65  1  0  0  0
 48122  1  0  0  0
 49 50  1  0  0  0
 49 53  1  0  0  0
 49 64  1  0  0  0
 49123  1  0  0  0
 50 51  1  0  0  0
 50124  1  0  0  0
 50125  1  0  0  0
 51 52  1  0  0  0
 51126  1  0  0  0
 51127  1  0  0  0
 52128  1  0  0  0
 52129  1  0  0  0
 53 54  1  0  0  0
 54 55  2  0  0  0
 54130  1  0  0  0
 55 57  1  0  0  0
 55131  1  0  0  0
 56 69  2  0  0  0
 57 58  2  0  0  0
 57132  1  0  0  0
 58133  1  0  0  0
 59 60  1  0  0  0
 59 61  1  0  0  0
 59 62  1  0  0  0
 60134  1  0  0  0
 60135  1  0  0  0
 60136  1  0  0  0
 61137  1  0  0  0
 61138  1  0  0  0
 61139  1  0  0  0
 62140  1  0  0  0
 62141  1  0  0  0
 62142  1  0  0  0
 63 65  1  0  0  0
 63143  1  0  0  0
 63144  1  0  0  0
 63145  1  0  0  0
 64146  1  0  0  0
 65147  1  0  0  0
 68 80  1  0  0  0
 71 72  2  0  0  0
 71 73  1  0  0  0
 71 81  1  0  0  0
 72 74  1  0  0  0
 72 82  1  0  0  0
 73 76  2  0  0  0
 73 83  1  0  0  0
 74 75  2  0  0  0
 74 84  1  0  0  0
 75 76  1  0  0  0
 75 85  1  0  0  0
 76 86  1  0  0  0
 77 78  1  0  0  0
 77 80  1  0  0  0
 77148  1  0  0  0
 77149  1  0  0  0
 78 81  1  0  0  0
 78150  1  0  0  0
 78151  1  0  0  0
 79 80  1  0  0  0
 79 81  1  0  0  0
 79152  1  0  0  0
 79153  1  0  0  0
 80154  1  0  0  0
 81 88  1  0  0  0
 82155  1  0  0  0
 82156  1  0  0  0
 82157  1  0  0  0
 83158  1  0  0  0
 83159  1  0  0  0
 83160  1  0  0  0
 84161  1  0  0  0
 84162  1  0  0  0
 84163  1  0  0  0
 85164  1  0  0  0
 85165  1  0  0  0
 85166  1  0  0  0
 86 87  1  0  0  0
 86167  1  0  0  0
 86168  1  0  0  0
 87169  1  0  0  0
 88170  1  0  0  0
M  ISO  4   1 100  68 101  80 101  87 100
M  END
> <chiral flag>
0

> <version>
0

> <s_m_source_file>
/data/baiqing/PycharmProjects/Reinvent-master-3.2/result/LINK_invent/BTK/process_docking_weight1_custom_sum_contain_oxygen_bond_distance_aromatic_linkinvent_7_9_3/rearranged_h_0162.sdf

> <i_m_source_file_index>
58

> <r_mmod_Potential_Energy-OPLS-2005>
387.893707275391

> <r_mmod_Stretch_Energy-OPLS-2005>
173.631805419922

> <r_mmod_Bend_Energy-OPLS-2005>
285.732269287109

> <r_mmod_Torsional_Energy-OPLS-2005>
292.021759033203

> <r_mmod_Improper_Torsional_Energy-OPLS-2005>
7.4534649848938

> <r_mmod_Van_der_Waal_Energy-OPLS-2005>
217.310470581055

> <r_mmod_Electrostatic_Energy-OPLS-2005>
-464.697662353516

> <r_mmod_Solvation_Energy-OPLS-2005>
-218.820831298828

> <b_mmod_Minimization_Converged-OPLS-2005>
0

> <r_mmod_RMS_Derivative-OPLS-2005>
7.01295185089111

$$$$
58
                    3D
 Structure written by MMmdl.
162171  0  0  1  0            999 V2000
  -30.6112  -14.7352   20.4598 C   0  0  0  0  0  0
  -30.4299  -12.4461   19.4693 C   0  0  0  0  0  0
  -29.5077  -12.5026   18.2321 C   0  0  0  0  0  0
  -28.0345  -12.3232   18.6479 C   0  0  0  0  0  0
  -27.6395  -13.2264   19.8469 C   0  0  2  0  0  0
  -28.6840  -13.1609   20.9817 C   0  0  0  0  0  0
  -25.2506  -13.8184   20.5677 C   0  0  0  0  0  0
  -24.1797  -13.0436   20.9204 C   0  0  0  0  0  0
  -24.6384  -11.6912   20.8744 C   0  0  0  0  0  0
  -23.9061  -10.4286   21.0405 C   0  0  0  0  0  0
  -24.3614   -9.4203   21.9185 C   0  0  0  0  0  0
  -23.6286   -8.2241   22.0761 C   0  0  0  0  0  0
  -22.4269   -8.0279   21.3547 C   0  0  0  0  0  0
  -21.9906   -9.0250   20.4646 C   0  0  0  0  0  0
  -22.7235  -10.2127   20.3052 C   0  0  0  0  0  0
  -21.6854   -6.0729   22.5276 C   0  0  0  0  0  0
  -21.4013   -6.5635   23.8205 C   0  0  0  0  0  0
  -21.3656   -5.6790   24.9169 C   0  0  0  0  0  0
  -21.6044   -4.3053   24.7222 C   0  0  0  0  0  0
  -21.8822   -3.8141   23.4346 C   0  0  0  0  0  0
  -21.9193   -4.6958   22.3397 C   0  0  0  0  0  0
  -22.7818  -13.5226   21.1857 C   0  0  0  0  0  0
  -22.1662   -4.2145   21.0976 F   0  0  0  0  0  0
  -21.5627   -3.4536   25.7736 F   0  0  0  0  0  0
  -29.9839  -13.5111   20.3971 N   0  0  0  0  0  0
  -26.2923  -12.9379   20.3259 N   0  0  0  0  0  0
  -25.9311  -11.6525   20.5747 N   0  0  0  0  0  0
  -22.0457  -12.8214   22.0407 N   0  0  0  0  0  0
  -25.4192  -15.1907   20.4061 N   0  0  0  0  0  0
  -31.8112  -14.8030   20.1670 O   0  0  0  0  0  0
  -21.6638   -6.8872   21.4238 O   0  0  0  0  0  0
  -22.3504  -14.5534   20.6703 O   0  0  0  0  0  0
  -24.6300  -31.8554   23.1963 C   0  0  0  0  0  0
  -25.9135  -32.4756   23.8302 C   0  0  1  0  0  0
  -27.2279  -27.2729   20.1409 C   0  0  0  0  0  0
  -25.5945  -33.8552   24.2253 N   0  0  0  0  0  0
  -23.4259  -30.4750   21.5393 C   0  0  2  0  0  0
  -24.8744  -28.9122   20.1171 C   0  0  0  0  0  0
  -22.7495  -29.4600   22.4919 C   0  0  0  0  0  0
  -18.0292  -28.1400   22.8478 C   0  0  0  0  0  0
  -24.1489  -36.7279   23.2640 C   0  0  0  0  0  0
  -25.9676  -30.7750   21.3668 C   0  0  0  0  0  0
  -26.0443  -29.3932   20.7191 C   0  0  0  0  0  0
  -27.2267  -28.5898   20.7106 C   0  0  0  0  0  0
  -26.0350  -26.8429   19.5254 C   0  0  0  0  0  0
  -24.8739  -27.6448   19.5087 C   0  0  0  0  0  0
  -23.6452  -29.8017   20.1576 C   0  0  0  0  0  0
  -25.4115  -36.3067   24.0334 C   0  0  1  0  0  0
  -20.5891  -28.3701   23.1284 C   0  0  2  0  0  0
  -20.6780  -26.9423   22.5412 C   0  0  0  0  0  0
  -19.5759  -26.6394   21.5216 C   0  0  0  0  0  0
  -18.1936  -26.7939   22.1622 C   0  0  0  0  0  0
  -19.1544  -28.8866   23.2865 C   0  0  0  0  0  0
  -18.9469  -30.1461   23.8890 C   0  0  0  0  0  0
  -17.6474  -30.6593   24.0565 C   0  0  0  0  0  0
  -25.9064  -34.9440   23.5095 C   0  0  0  0  0  0
  -16.5365  -29.9090   23.6333 C   0  0  0  0  0  0
  -16.7279  -28.6514   23.0342 C   0  0  0  0  0  0
  -26.4498  -31.6571   25.0684 C   0  0  0  0  0  0
  -25.3724  -31.3706   26.1411 C   0  0  0  0  0  0
  -27.0357  -30.3009   24.6121 C   0  0  0  0  0  0
  -27.6056  -32.4294   25.7471 C   0  0  0  0  0  0
  -27.5568  -37.1792   24.8461 C   0  0  0  0  0  0
  -21.4207  -29.3047   22.3682 N   0  0  0  0  0  0
  -26.4281  -37.3770   23.9417 N   0  0  0  0  0  0
  -24.6940  -31.0531   22.0918 N   0  0  0  0  0  0
  -23.4203  -28.8146   23.3018 O   0  0  0  0  0  0
  -28.3561  -26.4323   20.1081 O   0  0  0  0  0  0
  -26.5621  -34.8920   22.4655 O   0  0  0  0  0  0
  -23.5460  -32.1370   23.7282 O   0  0  0  0  0  0
  -29.2161  -18.3723   20.3940 C   0  0  0  0  0  0
  -29.5492  -19.7862   20.4983 C   0  0  0  0  0  0
  -30.8626  -20.0622   20.9388 C   0  0  0  0  0  0
  -31.7486  -18.9838   21.1797 C   0  0  0  0  0  0
  -30.1631  -17.3088   20.6746 C   0  0  0  0  0  0
  -31.3221  -21.5103   21.1213 C   0  0  0  0  0  0
  -30.1808  -22.5345   21.2993 C   0  0  0  0  0  0
  -28.5801  -21.0111   20.1506 C   0  0  2  0  0  0
  -33.1934  -19.2100   21.5860 C   0  0  0  0  0  0
  -27.9152  -20.7521   18.7847 C   0  0  0  0  0  0
  -28.3940  -23.7001   19.8056 C   0  0  0  0  0  0
  -28.3360  -25.0543   20.7050 C   0  0  0  0  0  0
  -31.4031  -17.6833   21.0572 N   0  0  0  0  0  0
  -29.8171  -15.8702   20.5928 N   0  0  0  0  0  0
  -29.2071  -22.4213   20.1904 N   0  3  1  0  0  0
  -31.4710  -12.5673   19.1663 H   0  0  0  0  0  0
  -30.3715  -11.4701   19.9529 H   0  0  0  0  0  0
  -29.7906  -11.7314   17.5139 H   0  0  0  0  0  0
  -29.6324  -13.4591   17.7208 H   0  0  0  0  0  0
  -27.8959  -11.2748   18.9155 H   0  0  0  0  0  0
  -27.3752  -12.5096   17.7991 H   0  0  0  0  0  0
  -27.6322  -14.2456   19.4621 H   0  0  0  0  0  0
  -28.7188  -12.1635   21.4216 H   0  0  0  0  0  0
  -28.4214  -13.8425   21.7921 H   0  0  0  0  0  0
  -25.2759   -9.5681   22.4764 H   0  0  0  0  0  0
  -23.9990   -7.4634   22.7488 H   0  0  0  0  0  0
  -21.0835   -8.8764   19.8951 H   0  0  0  0  0  0
  -22.3693  -10.9664   19.6157 H   0  0  0  0  0  0
  -21.2009   -7.6145   23.9708 H   0  0  0  0  0  0
  -21.1473   -6.0520   25.9072 H   0  0  0  0  0  0
  -22.0606   -2.7606   23.2845 H   0  0  0  0  0  0
  -22.4062  -11.9863   22.4784 H   0  0  0  0  0  0
  -21.1079  -13.1241   22.2613 H   0  0  0  0  0  0
  -24.6448  -15.8387   20.5014 H   0  0  0  0  0  0
  -26.2531  -15.6274   20.0368 H   0  0  0  0  0  0
  -26.7204  -32.5424   23.1047 H   0  0  0  0  0  0
  -25.0084  -33.9677   25.0392 H   0  0  0  0  0  0
  -22.7224  -31.2965   21.3900 H   0  0  0  0  0  0
  -23.3752  -35.9606   23.3296 H   0  0  0  0  0  0
  -24.3575  -36.8909   22.2052 H   0  0  0  0  0  0
  -23.7244  -37.6482   23.6670 H   0  0  0  0  0  0
  -26.0915  -31.5308   20.5904 H   0  0  0  0  0  0
  -26.8514  -30.8365   21.9904 H   0  0  0  0  0  0
  -28.1315  -28.9633   21.1694 H   0  0  0  0  0  0
  -26.0009  -25.8714   19.0517 H   0  0  0  0  0  0
  -23.9778  -27.2707   19.0323 H   0  0  0  0  0  0
  -23.7729  -30.5759   19.3996 H   0  0  0  0  0  0
  -22.7626  -29.2355   19.8527 H   0  0  0  0  0  0
  -25.1287  -36.1899   25.0826 H   0  0  0  0  0  0
  -20.9975  -28.3280   24.1407 H   0  0  0  0  0  0
  -20.5724  -26.2299   23.3608 H   0  0  0  0  0  0
  -21.6642  -26.7469   22.1185 H   0  0  0  0  0  0
  -19.6930  -25.6306   21.1235 H   0  0  0  0  0  0
  -19.6709  -27.3211   20.6754 H   0  0  0  0  0  0
  -17.4210  -26.6698   21.4016 H   0  0  0  0  0  0
  -18.0317  -26.0086   22.9019 H   0  0  0  0  0  0
  -19.7947  -30.7263   24.2271 H   0  0  0  0  0  0
  -17.5030  -31.6278   24.5158 H   0  0  0  0  0  0
  -15.5362  -30.2989   23.7666 H   0  0  0  0  0  0
  -15.8680  -28.0839   22.7052 H   0  0  0  0  0  0
  -24.5922  -30.7032   25.7729 H   0  0  0  0  0  0
  -24.8888  -32.2871   26.4799 H   0  0  0  0  0  0
  -25.8045  -30.8906   27.0204 H   0  0  0  0  0  0
  -26.2929  -29.6748   24.1168 H   0  0  0  0  0  0
  -27.4112  -29.7266   25.4600 H   0  0  0  0  0  0
  -27.8764  -30.4319   23.9308 H   0  0  0  0  0  0
  -27.2683  -33.3616   26.2003 H   0  0  0  0  0  0
  -28.3900  -32.6803   25.0322 H   0  0  0  0  0  0
  -28.0679  -31.8433   26.5424 H   0  0  0  0  0  0
  -28.2561  -38.0104   24.7514 H   0  0  0  0  0  0
  -28.1087  -36.2635   24.6276 H   0  0  0  0  0  0
  -27.2285  -37.1421   25.8861 H   0  0  0  0  0  0
  -20.9401  -29.8767   21.6880 H   0  0  0  0  0  0
  -26.0156  -38.2838   24.1433 H   0  0  0  0  0  0
  -28.2175  -18.1001   20.0815 H   0  0  0  0  0  0
  -31.9342  -21.7826   20.2599 H   0  0  0  0  0  0
  -31.9757  -21.5829   21.9910 H   0  0  0  0  0  0
  -30.6451  -23.5187   21.3166 H   0  0  0  0  0  0
  -29.6739  -22.3953   22.2552 H   0  0  0  0  0  0
  -27.8009  -21.0031   20.9134 H   0  0  0  0  0  0
  -33.2526  -19.5708   22.6121 H   0  0  0  0  0  0
  -33.6696  -19.9395   20.9313 H   0  0  0  0  0  0
  -33.7757  -18.2903   21.5228 H   0  0  0  0  0  0
  -28.6612  -20.6926   17.9921 H   0  0  0  0  0  0
  -27.1980  -21.5231   18.5112 H   0  0  0  0  0  0
  -27.3669  -19.8106   18.7880 H   0  0  0  0  0  0
  -28.8035  -23.9979   18.8402 H   0  0  0  0  0  0
  -27.3640  -23.4234   19.5901 H   0  0  0  0  0  0
  -29.1951  -25.0757   21.3697 H   0  0  0  0  0  0
  -27.4863  -24.9791   21.3851 H   0  0  0  0  0  0
  -28.8323  -15.6722   20.6430 H   0  0  0  0  0  0
  -29.8384  -22.3541   19.4072 H   0  0  0  0  0  0
  1 25  1  0  0  0
  1 30  2  0  0  0
  1 84  1  0  0  0
  2  3  1  0  0  0
  2 25  1  0  0  0
  2 86  1  0  0  0
  2 87  1  0  0  0
  3  4  1  0  0  0
  3 88  1  0  0  0
  3 89  1  0  0  0
  4  5  1  0  0  0
  4 90  1  0  0  0
  4 91  1  0  0  0
  5  6  1  0  0  0
  5 26  1  0  0  0
  5 92  1  0  0  0
  6 25  1  0  0  0
  6 93  1  0  0  0
  6 94  1  0  0  0
  7  8  2  0  0  0
  7 26  1  0  0  0
  7 29  1  0  0  0
  8  9  1  0  0  0
  8 22  1  0  0  0
  9 10  1  0  0  0
  9 27  2  0  0  0
 10 11  2  0  0  0
 10 15  1  0  0  0
 11 12  1  0  0  0
 11 95  1  0  0  0
 12 13  2  0  0  0
 12 96  1  0  0  0
 13 14  1  0  0  0
 13 31  1  0  0  0
 14 15  2  0  0  0
 14 97  1  0  0  0
 15 98  1  0  0  0
 16 17  2  0  0  0
 16 21  1  0  0  0
 16 31  1  0  0  0
 17 18  1  0  0  0
 17 99  1  0  0  0
 18 19  2  0  0  0
 18100  1  0  0  0
 19 20  1  0  0  0
 19 24  1  0  0  0
 20 21  2  0  0  0
 20101  1  0  0  0
 21 23  1  0  0  0
 22 28  1  0  0  0
 22 32  2  0  0  0
 26 27  1  0  0  0
 28102  1  0  0  0
 28103  1  0  0  0
 29104  1  0  0  0
 29105  1  0  0  0
 33 34  1  0  0  0
 33 66  1  0  0  0
 33 70  2  0  0  0
 34 36  1  0  0  0
 34 59  1  0  0  0
 34106  1  0  0  0
 35 44  2  0  0  0
 35 45  1  0  0  0
 35 68  1  0  0  0
 36 56  1  0  0  0
 36107  1  0  0  0
 37 39  1  0  0  0
 37 47  1  0  0  0
 37 66  1  0  0  0
 37108  1  0  0  0
 38 43  2  0  0  0
 38 46  1  0  0  0
 38 47  1  0  0  0
 39 64  1  0  0  0
 39 67  2  0  0  0
 40 52  1  0  0  0
 40 53  2  0  0  0
 40 58  1  0  0  0
 41109  1  0  0  0
 41110  1  0  0  0
 41111  1  0  0  0
 41 48  1  0  0  0
 42 43  1  0  0  0
 42 66  1  0  0  0
 42112  1  0  0  0
 42113  1  0  0  0
 43 44  1  0  0  0
 44114  1  0  0  0
 45 46  2  0  0  0
 45115  1  0  0  0
 46116  1  0  0  0
 47117  1  0  0  0
 47118  1  0  0  0
 48 56  1  0  0  0
 48 65  1  0  0  0
 48119  1  0  0  0
 49 50  1  0  0  0
 49 53  1  0  0  0
 49 64  1  0  0  0
 49120  1  0  0  0
 50 51  1  0  0  0
 50121  1  0  0  0
 50122  1  0  0  0
 51 52  1  0  0  0
 51123  1  0  0  0
 51124  1  0  0  0
 52125  1  0  0  0
 52126  1  0  0  0
 53 54  1  0  0  0
 54 55  2  0  0  0
 54127  1  0  0  0
 55 57  1  0  0  0
 55128  1  0  0  0
 56 69  2  0  0  0
 57 58  2  0  0  0
 57129  1  0  0  0
 58130  1  0  0  0
 59 60  1  0  0  0
 59 61  1  0  0  0
 59 62  1  0  0  0
 60131  1  0  0  0
 60132  1  0  0  0
 60133  1  0  0  0
 61134  1  0  0  0
 61135  1  0  0  0
 61136  1  0  0  0
 62137  1  0  0  0
 62138  1  0  0  0
 62139  1  0  0  0
 63 65  1  0  0  0
 63140  1  0  0  0
 63141  1  0  0  0
 63142  1  0  0  0
 64143  1  0  0  0
 65144  1  0  0  0
 68 82  1  0  0  0
 71 72  2  0  0  0
 71 75  1  0  0  0
 71145  1  0  0  0
 72 73  1  0  0  0
 72 78  1  0  0  0
 73 74  2  0  0  0
 73 76  1  0  0  0
 74 79  1  0  0  0
 74 83  1  0  0  0
 75 83  2  0  0  0
 75 84  1  0  0  0
 76 77  1  0  0  0
 76146  1  0  0  0
 76147  1  0  0  0
 77 85  1  0  0  0
 77148  1  0  0  0
 77149  1  0  0  0
 78 80  1  0  0  0
 78 85  1  0  0  0
 78150  1  0  0  0
 79151  1  0  0  0
 79152  1  0  0  0
 79153  1  0  0  0
 80154  1  0  0  0
 80155  1  0  0  0
 80156  1  0  0  0
 81 82  1  0  0  0
 81157  1  0  0  0
 81158  1  0  0  0
 81 85  1  0  0  0
 82159  1  0  0  0
 82160  1  0  0  0
 84161  1  0  0  0
 85162  1  0  0  0
M  CHG  1  85   1
M  ISO  4   1 100  68 101  82 101  84 100
M  END
> <chiral flag>
0

> <version>
0

> <s_m_source_file>
/data/baiqing/PycharmProjects/Reinvent-master-3.2/result/LINK_invent/BTK/process_docking_weight1_custom_sum_contain_oxygen_bond_distance_aromatic_linkinvent_7_9_3/rearranged_h_0162.sdf

> <i_m_source_file_index>
59

> <r_mmod_Potential_Energy-OPLS-2005>
-98.7321243286133

> <r_mmod_Stretch_Energy-OPLS-2005>
124.548942565918

> <r_mmod_Bend_Energy-OPLS-2005>
188.683517456055

> <r_mmod_Torsional_Energy-OPLS-2005>
262.132781982422

> <r_mmod_Improper_Torsional_Energy-OPLS-2005>
6.32362747192383

> <r_mmod_Van_der_Waal_Energy-OPLS-2005>
144.415100097656

> <r_mmod_Electrostatic_Energy-OPLS-2005>
-426.656036376953

> <r_mmod_Solvation_Energy-OPLS-2005>
-473.221099853516

> <b_mmod_Minimization_Converged-OPLS-2005>
0

> <r_mmod_RMS_Derivative-OPLS-2005>
1.55992639064789

$$$$
59
                    3D
 Structure written by MMmdl.
170179  0  0  1  0            999 V2000
  -30.7499  -14.6891   20.4627 C   0  0  0  0  0  0
  -30.4026  -12.4418   19.4532 C   0  0  0  0  0  0
  -29.4845  -12.4898   18.2182 C   0  0  0  0  0  0
  -28.0193  -12.3137   18.6506 C   0  0  0  0  0  0
  -27.6344  -13.2305   19.8438 C   0  0  2  0  0  0
  -28.6953  -13.1961   20.9690 C   0  0  0  0  0  0
  -25.2504  -13.8203   20.5744 C   0  0  0  0  0  0
  -24.1790  -13.0442   20.9224 C   0  0  0  0  0  0
  -24.6382  -11.6919   20.8772 C   0  0  0  0  0  0
  -23.9057  -10.4299   21.0418 C   0  0  0  0  0  0
  -24.3608   -9.4208   21.9189 C   0  0  0  0  0  0
  -23.6289   -8.2237   22.0744 C   0  0  0  0  0  0
  -22.4277   -8.0271   21.3528 C   0  0  0  0  0  0
  -21.9908   -9.0252   20.4640 C   0  0  0  0  0  0
  -22.7231  -10.2140   20.3059 C   0  0  0  0  0  0
  -21.6857   -6.0723   22.5271 C   0  0  0  0  0  0
  -21.4021   -6.5628   23.8206 C   0  0  0  0  0  0
  -21.3664   -5.6776   24.9166 C   0  0  0  0  0  0
  -21.6050   -4.3040   24.7219 C   0  0  0  0  0  0
  -21.8824   -3.8134   23.4341 C   0  0  0  0  0  0
  -21.9197   -4.6951   22.3399 C   0  0  0  0  0  0
  -22.7810  -13.5229   21.1851 C   0  0  0  0  0  0
  -22.1661   -4.2130   21.0976 F   0  0  0  0  0  0
  -21.5631   -3.4530   25.7739 F   0  0  0  0  0  0
  -29.9801  -13.5471   20.3518 N   0  0  0  0  0  0
  -26.2927  -12.9407   20.3343 N   0  0  0  0  0  0
  -25.9320  -11.6550   20.5814 N   0  0  0  0  0  0
  -22.0442  -12.8245   22.0419 N   0  0  0  0  0  0
  -25.4186  -15.1929   20.4159 N   0  0  0  0  0  0
  -31.9533  -14.5663   20.2280 O   0  0  0  0  0  0
  -21.6638   -6.8868   21.4230 O   0  0  0  0  0  0
  -22.3504  -14.5521   20.6661 O   0  0  0  0  0  0
  -24.6291  -31.8598   23.2030 C   0  0  0  0  0  0
  -25.9129  -32.4777   23.8362 C   0  0  1  0  0  0
  -27.2135  -27.2944   20.1168 C   0  0  0  0  0  0
  -25.5937  -33.8577   24.2285 N   0  0  0  0  0  0
  -23.4236  -30.4862   21.5461 C   0  0  2  0  0  0
  -24.8678  -28.9463   20.1090 C   0  0  0  0  0  0
  -22.7492  -29.4630   22.4920 C   0  0  0  0  0  0
  -18.0295  -28.1394   22.8486 C   0  0  0  0  0  0
  -24.1490  -36.7297   23.2638 C   0  0  0  0  0  0
  -25.9693  -30.7821   21.3804 C   0  0  0  0  0  0
  -26.0416  -29.4103   20.7181 C   0  0  0  0  0  0
  -27.2187  -28.5969   20.7124 C   0  0  0  0  0  0
  -26.0155  -26.9025   19.4704 C   0  0  0  0  0  0
  -24.8587  -27.6977   19.4759 C   0  0  0  0  0  0
  -23.6386  -29.8285   20.1598 C   0  0  0  0  0  0
  -25.4114  -36.3080   24.0329 C   0  0  1  0  0  0
  -20.5898  -28.3702   23.1276 C   0  0  2  0  0  0
  -20.6783  -26.9425   22.5407 C   0  0  0  0  0  0
  -19.5754  -26.6392   21.5214 C   0  0  0  0  0  0
  -18.1935  -26.7939   22.1625 C   0  0  0  0  0  0
  -19.1548  -28.8866   23.2878 C   0  0  0  0  0  0
  -18.9469  -30.1465   23.8897 C   0  0  0  0  0  0
  -17.6467  -30.6595   24.0567 C   0  0  0  0  0  0
  -25.9057  -34.9450   23.5105 C   0  0  0  0  0  0
  -16.5359  -29.9091   23.6334 C   0  0  0  0  0  0
  -16.7280  -28.6510   23.0356 C   0  0  0  0  0  0
  -26.4505  -31.6590   25.0738 C   0  0  0  0  0  0
  -25.3738  -31.3745   26.1470 C   0  0  0  0  0  0
  -27.0347  -30.3003   24.6217 C   0  0  0  0  0  0
  -27.6070  -32.4329   25.7498 C   0  0  0  0  0  0
  -27.5584  -37.1797   24.8464 C   0  0  0  0  0  0
  -21.4209  -29.3049   22.3661 N   0  0  0  0  0  0
  -26.4293  -37.3775   23.9413 N   0  0  0  0  0  0
  -24.6929  -31.0594   22.0989 N   0  0  0  0  0  0
  -23.4207  -28.8165   23.3006 O   0  0  0  0  0  0
  -28.2961  -26.3902   20.1867 O   0  0  0  0  0  0
  -26.5621  -34.8915   22.4671 O   0  0  0  0  0  0
  -23.5439  -32.1412   23.7332 O   0  0  0  0  0  0
  -30.1917  -23.7571   18.5524 C   0  0  0  0  0  0
  -30.3882  -21.0036   18.2197 C   0  0  0  0  0  0
  -30.8549  -23.2513   17.4230 C   0  0  0  0  0  0
  -29.5956  -22.9191   19.5247 C   0  0  0  0  0  0
  -30.9281  -21.8601   17.2420 C   0  0  0  0  0  0
  -29.7283  -21.4663   19.3948 C   0  0  0  0  0  0
  -30.9100  -18.5782   20.4167 C   0  0  0  0  0  0
  -28.6511  -18.0624   20.9943 C   0  0  0  0  0  0
  -31.1980  -17.0872   20.0516 C   0  0  0  0  0  0
  -28.8570  -16.5147   20.6914 C   0  0  0  0  0  0
  -29.4760  -19.0431   20.1145 C   0  0  0  0  0  0
  -31.4773  -24.2095   16.4205 C   0  0  0  0  0  0
  -31.5973  -21.2662   16.0119 C   0  0  0  0  0  0
  -29.8349  -24.1160   21.7694 C   0  0  0  0  0  0
  -27.9314  -24.9407   20.1964 C   0  0  0  0  0  0
  -28.8651  -23.7115   20.6507 C   0  0  1  0  0  0
  -30.2468  -16.0039   20.4886 N   0  0  0  0  0  0
  -29.2630  -20.5055   20.3308 O   0  0  0  0  0  0
  -31.4425  -12.5075   19.1298 H   0  0  0  0  0  0
  -30.3230  -11.4781   19.9591 H   0  0  0  0  0  0
  -29.7624  -11.7090   17.5085 H   0  0  0  0  0  0
  -29.6072  -13.4400   17.6954 H   0  0  0  0  0  0
  -27.8894  -11.2681   18.9350 H   0  0  0  0  0  0
  -27.3500  -12.4840   17.8061 H   0  0  0  0  0  0
  -27.6125  -14.2374   19.4345 H   0  0  0  0  0  0
  -28.7466  -12.2030   21.4176 H   0  0  0  0  0  0
  -28.4453  -13.8684   21.7867 H   0  0  0  0  0  0
  -25.2753   -9.5691   22.4758 H   0  0  0  0  0  0
  -23.9989   -7.4643   22.7481 H   0  0  0  0  0  0
  -21.0829   -8.8784   19.8973 H   0  0  0  0  0  0
  -22.3683  -10.9673   19.6169 H   0  0  0  0  0  0
  -21.2007   -7.6134   23.9701 H   0  0  0  0  0  0
  -21.1482   -6.0505   25.9064 H   0  0  0  0  0  0
  -22.0602   -2.7592   23.2846 H   0  0  0  0  0  0
  -22.4044  -11.9922   22.4858 H   0  0  0  0  0  0
  -21.1052  -13.1283   22.2588 H   0  0  0  0  0  0
  -24.6533  -15.8476   20.5338 H   0  0  0  0  0  0
  -26.2747  -15.6336   20.1075 H   0  0  0  0  0  0
  -26.7197  -32.5438   23.1107 H   0  0  0  0  0  0
  -25.0063  -33.9725   25.0412 H   0  0  0  0  0  0
  -22.7182  -31.3078   21.4060 H   0  0  0  0  0  0
  -23.3749  -35.9631   23.3298 H   0  0  0  0  0  0
  -24.3584  -36.8919   22.2053 H   0  0  0  0  0  0
  -23.7243  -37.6498   23.6663 H   0  0  0  0  0  0
  -26.1095  -31.5472   20.6152 H   0  0  0  0  0  0
  -26.8467  -30.8259   22.0142 H   0  0  0  0  0  0
  -28.1137  -28.9423   21.2103 H   0  0  0  0  0  0
  -25.9276  -25.9556   18.9620 H   0  0  0  0  0  0
  -23.9612  -27.3382   18.9915 H   0  0  0  0  0  0
  -23.7609  -30.6089   19.4076 H   0  0  0  0  0  0
  -22.7573  -29.2616   19.8542 H   0  0  0  0  0  0
  -25.1290  -36.1927   25.0820 H   0  0  0  0  0  0
  -20.9997  -28.3277   24.1395 H   0  0  0  0  0  0
  -20.5697  -26.2310   23.3607 H   0  0  0  0  0  0
  -21.6648  -26.7457   22.1195 H   0  0  0  0  0  0
  -19.6919  -25.6304   21.1243 H   0  0  0  0  0  0
  -19.6692  -27.3200   20.6744 H   0  0  0  0  0  0
  -17.4206  -26.6693   21.4023 H   0  0  0  0  0  0
  -18.0333  -26.0084   22.9024 H   0  0  0  0  0  0
  -19.7945  -30.7283   24.2263 H   0  0  0  0  0  0
  -17.5024  -31.6273   24.5173 H   0  0  0  0  0  0
  -15.5361  -30.2995   23.7664 H   0  0  0  0  0  0
  -15.8680  -28.0830   22.7072 H   0  0  0  0  0  0
  -24.5891  -30.7122   25.7795 H   0  0  0  0  0  0
  -24.8962  -32.2924   26.4908 H   0  0  0  0  0  0
  -25.8059  -30.8901   27.0236 H   0  0  0  0  0  0
  -26.2926  -29.6748   24.1241 H   0  0  0  0  0  0
  -27.4026  -29.7265   25.4731 H   0  0  0  0  0  0
  -27.8808  -30.4271   23.9463 H   0  0  0  0  0  0
  -27.2682  -33.3619   26.2097 H   0  0  0  0  0  0
  -28.3859  -32.6913   25.0315 H   0  0  0  0  0  0
  -28.0771  -31.8453   26.5390 H   0  0  0  0  0  0
  -28.2595  -38.0098   24.7512 H   0  0  0  0  0  0
  -28.1083  -36.2629   24.6280 H   0  0  0  0  0  0
  -27.2312  -37.1439   25.8869 H   0  0  0  0  0  0
  -20.9384  -29.8775   21.6876 H   0  0  0  0  0  0
  -26.0173  -38.2848   24.1417 H   0  0  0  0  0  0
  -30.1335  -24.8304   18.6749 H   0  0  0  0  0  0
  -30.5174  -19.9530   18.0211 H   0  0  0  0  0  0
  -31.6341  -19.2070   19.8995 H   0  0  0  0  0  0
  -31.1182  -18.7332   21.4760 H   0  0  0  0  0  0
  -28.8825  -18.2497   22.0443 H   0  0  0  0  0  0
  -27.5918  -18.3019   20.8925 H   0  0  0  0  0  0
  -32.2024  -16.9001   20.4369 H   0  0  0  0  0  0
  -31.2805  -17.0114   18.9662 H   0  0  0  0  0  0
  -28.3125  -16.2965   19.7745 H   0  0  0  0  0  0
  -28.3714  -15.9601   21.4914 H   0  0  0  0  0  0
  -29.1981  -18.7945   19.0904 H   0  0  0  0  0  0
  -31.4362  -25.2410   16.7703 H   0  0  0  0  0  0
  -30.9567  -24.1594   15.4635 H   0  0  0  0  0  0
  -32.5270  -23.9630   16.2548 H   0  0  0  0  0  0
  -31.3984  -20.1983   15.9193 H   0  0  0  0  0  0
  -32.6778  -21.4059   16.0589 H   0  0  0  0  0  0
  -31.2298  -21.7439   15.1028 H   0  0  0  0  0  0
  -30.3553  -23.2440   22.1679 H   0  0  0  0  0  0
  -29.3046  -24.5907   22.5953 H   0  0  0  0  0  0
  -30.5860  -24.8188   21.4078 H   0  0  0  0  0  0
  -27.0757  -24.8770   20.8708 H   0  0  0  0  0  0
  -27.5493  -24.6706   19.2129 H   0  0  0  0  0  0
  -28.1856  -22.9727   21.0789 H   0  0  0  0  0  0
  1 25  1  0  0  0
  1 30  2  0  0  0
  1 87  1  0  0  0
  2  3  1  0  0  0
  2 25  1  0  0  0
  2 89  1  0  0  0
  2 90  1  0  0  0
  3  4  1  0  0  0
  3 91  1  0  0  0
  3 92  1  0  0  0
  4  5  1  0  0  0
  4 93  1  0  0  0
  4 94  1  0  0  0
  5  6  1  0  0  0
  5 26  1  0  0  0
  5 95  1  0  0  0
  6 25  1  0  0  0
  6 96  1  0  0  0
  6 97  1  0  0  0
  7  8  2  0  0  0
  7 26  1  0  0  0
  7 29  1  0  0  0
  8  9  1  0  0  0
  8 22  1  0  0  0
  9 10  1  0  0  0
  9 27  2  0  0  0
 10 11  2  0  0  0
 10 15  1  0  0  0
 11 12  1  0  0  0
 11 98  1  0  0  0
 12 13  2  0  0  0
 12 99  1  0  0  0
 13 14  1  0  0  0
 13 31  1  0  0  0
 14 15  2  0  0  0
 14100  1  0  0  0
 15101  1  0  0  0
 16 17  2  0  0  0
 16 21  1  0  0  0
 16 31  1  0  0  0
 17 18  1  0  0  0
 17102  1  0  0  0
 18 19  2  0  0  0
 18103  1  0  0  0
 19 20  1  0  0  0
 19 24  1  0  0  0
 20 21  2  0  0  0
 20104  1  0  0  0
 21 23  1  0  0  0
 22 28  1  0  0  0
 22 32  2  0  0  0
 26 27  1  0  0  0
 28105  1  0  0  0
 28106  1  0  0  0
 29107  1  0  0  0
 29108  1  0  0  0
 33 34  1  0  0  0
 33 66  1  0  0  0
 33 70  2  0  0  0
 34 36  1  0  0  0
 34 59  1  0  0  0
 34109  1  0  0  0
 35 44  2  0  0  0
 35 45  1  0  0  0
 35 68  1  0  0  0
 36 56  1  0  0  0
 36110  1  0  0  0
 37 39  1  0  0  0
 37 47  1  0  0  0
 37 66  1  0  0  0
 37111  1  0  0  0
 38 43  2  0  0  0
 38 46  1  0  0  0
 38 47  1  0  0  0
 39 64  1  0  0  0
 39 67  2  0  0  0
 40 52  1  0  0  0
 40 53  2  0  0  0
 40 58  1  0  0  0
 41112  1  0  0  0
 41113  1  0  0  0
 41114  1  0  0  0
 41 48  1  0  0  0
 42 43  1  0  0  0
 42 66  1  0  0  0
 42115  1  0  0  0
 42116  1  0  0  0
 43 44  1  0  0  0
 44117  1  0  0  0
 45 46  2  0  0  0
 45118  1  0  0  0
 46119  1  0  0  0
 47120  1  0  0  0
 47121  1  0  0  0
 48 56  1  0  0  0
 48 65  1  0  0  0
 48122  1  0  0  0
 49 50  1  0  0  0
 49 53  1  0  0  0
 49 64  1  0  0  0
 49123  1  0  0  0
 50 51  1  0  0  0
 50124  1  0  0  0
 50125  1  0  0  0
 51 52  1  0  0  0
 51126  1  0  0  0
 51127  1  0  0  0
 52128  1  0  0  0
 52129  1  0  0  0
 53 54  1  0  0  0
 54 55  2  0  0  0
 54130  1  0  0  0
 55 57  1  0  0  0
 55131  1  0  0  0
 56 69  2  0  0  0
 57 58  2  0  0  0
 57132  1  0  0  0
 58133  1  0  0  0
 59 60  1  0  0  0
 59 61  1  0  0  0
 59 62  1  0  0  0
 60134  1  0  0  0
 60135  1  0  0  0
 60136  1  0  0  0
 61137  1  0  0  0
 61138  1  0  0  0
 61139  1  0  0  0
 62140  1  0  0  0
 62141  1  0  0  0
 62142  1  0  0  0
 63 65  1  0  0  0
 63143  1  0  0  0
 63144  1  0  0  0
 63145  1  0  0  0
 64146  1  0  0  0
 65147  1  0  0  0
 68 85  1  0  0  0
 71 73  2  0  0  0
 71 74  1  0  0  0
 71148  1  0  0  0
 72 75  2  0  0  0
 72 76  1  0  0  0
 72149  1  0  0  0
 73 75  1  0  0  0
 73 82  1  0  0  0
 74 76  2  0  0  0
 74 86  1  0  0  0
 75 83  1  0  0  0
 76 88  1  0  0  0
 77 79  1  0  0  0
 77 81  1  0  0  0
 77150  1  0  0  0
 77151  1  0  0  0
 78 80  1  0  0  0
 78 81  1  0  0  0
 78152  1  0  0  0
 78153  1  0  0  0
 79 87  1  0  0  0
 79154  1  0  0  0
 79155  1  0  0  0
 80 87  1  0  0  0
 80156  1  0  0  0
 80157  1  0  0  0
 81 88  1  0  0  0
 81158  1  0  0  0
 82159  1  0  0  0
 82160  1  0  0  0
 82161  1  0  0  0
 83162  1  0  0  0
 83163  1  0  0  0
 83164  1  0  0  0
 84165  1  0  0  0
 84166  1  0  0  0
 84167  1  0  0  0
 84 86  1  0  0  0
 85 86  1  0  0  0
 85168  1  0  0  0
 85169  1  0  0  0
 86170  1  0  0  0
M  ISO  4   1 100  68 101  85 101  87 100
M  END
> <chiral flag>
0

> <version>
0

> <s_m_source_file>
/data/baiqing/PycharmProjects/Reinvent-master-3.2/result/LINK_invent/BTK/process_docking_weight1_custom_sum_contain_oxygen_bond_distance_aromatic_linkinvent_7_9_3/rearranged_h_0162.sdf

> <i_m_source_file_index>
60

> <r_mmod_Potential_Energy-OPLS-2005>
397.604553222656

> <r_mmod_Stretch_Energy-OPLS-2005>
112.260787963867

> <r_mmod_Bend_Energy-OPLS-2005>
223.209457397461

> <r_mmod_Torsional_Energy-OPLS-2005>
307.756195068359

> <r_mmod_Improper_Torsional_Energy-OPLS-2005>
8.74581432342529

> <r_mmod_Van_der_Waal_Energy-OPLS-2005>
172.985702514648

> <r_mmod_Electrostatic_Energy-OPLS-2005>
-306.520690917969

> <r_mmod_Solvation_Energy-OPLS-2005>
-201.7998046875

> <b_mmod_Minimization_Converged-OPLS-2005>
0

> <r_mmod_RMS_Derivative-OPLS-2005>
1.74014317989349

$$$$
60
                    3D
 Structure written by MMmdl.
168177  0  0  1  0            999 V2000
  -30.6438  -14.5411   20.5261 C   0  0  0  0  0  0
  -30.4334  -12.3344   19.4284 C   0  0  0  0  0  0
  -29.4995  -12.5036   18.2101 C   0  0  0  0  0  0
  -28.0202  -12.3578   18.6240 C   0  0  0  0  0  0
  -27.6603  -13.2049   19.8737 C   0  0  2  0  0  0
  -28.7057  -13.0023   20.9954 C   0  0  0  0  0  0
  -25.2609  -13.8148   20.5673 C   0  0  0  0  0  0
  -24.1856  -13.0427   20.9168 C   0  0  0  0  0  0
  -24.6405  -11.6896   20.8742 C   0  0  0  0  0  0
  -23.9068  -10.4292   21.0414 C   0  0  0  0  0  0
  -24.3614   -9.4208   21.9196 C   0  0  0  0  0  0
  -23.6283   -8.2244   22.0766 C   0  0  0  0  0  0
  -22.4271   -8.0281   21.3546 C   0  0  0  0  0  0
  -21.9908   -9.0256   20.4647 C   0  0  0  0  0  0
  -22.7244  -10.2133   20.3058 C   0  0  0  0  0  0
  -21.6848   -6.0737   22.5276 C   0  0  0  0  0  0
  -21.4009   -6.5644   23.8213 C   0  0  0  0  0  0
  -21.3660   -5.6797   24.9173 C   0  0  0  0  0  0
  -21.6044   -4.3059   24.7228 C   0  0  0  0  0  0
  -21.8814   -3.8152   23.4343 C   0  0  0  0  0  0
  -21.9187   -4.6966   22.3404 C   0  0  0  0  0  0
  -22.7883  -13.5241   21.1837 C   0  0  0  0  0  0
  -22.1654   -4.2156   21.0976 F   0  0  0  0  0  0
  -21.5634   -3.4541   25.7738 F   0  0  0  0  0  0
  -30.0273  -13.3281   20.4353 N   0  0  0  0  0  0
  -26.3024  -12.9307   20.3366 N   0  0  0  0  0  0
  -25.9330  -11.6470   20.5771 N   0  0  0  0  0  0
  -22.0518  -12.8238   22.0391 N   0  0  0  0  0  0
  -25.4328  -15.1864   20.4077 N   0  0  0  0  0  0
  -31.7896  -14.7390   20.1143 O   0  0  0  0  0  0
  -21.6627   -6.8879   21.4240 O   0  0  0  0  0  0
  -22.3580  -14.5563   20.6709 O   0  0  0  0  0  0
  -24.6239  -31.8644   23.2063 C   0  0  0  0  0  0
  -25.9125  -32.4791   23.8378 C   0  0  1  0  0  0
  -27.2296  -27.3835   20.0841 C   0  0  0  0  0  0
  -25.5980  -33.8594   24.2317 N   0  0  0  0  0  0
  -23.4121  -30.4935   21.5444 C   0  0  2  0  0  0
  -24.8526  -28.9480   20.1127 C   0  0  0  0  0  0
  -22.7431  -29.4713   22.4925 C   0  0  0  0  0  0
  -18.0297  -28.1417   22.8496 C   0  0  0  0  0  0
  -24.1503  -36.7285   23.2642 C   0  0  0  0  0  0
  -25.9471  -30.8095   21.3693 C   0  0  0  0  0  0
  -26.0176  -29.4421   20.7110 C   0  0  0  0  0  0
  -27.2057  -28.6660   20.6962 C   0  0  0  0  0  0
  -26.0339  -26.9056   19.5045 C   0  0  0  0  0  0
  -24.8567  -27.6776   19.5120 C   0  0  0  0  0  0
  -23.6221  -29.8287   20.1584 C   0  0  0  0  0  0
  -25.4134  -36.3084   24.0329 C   0  0  1  0  0  0
  -20.5888  -28.3745   23.1245 C   0  0  2  0  0  0
  -20.6816  -26.9473   22.5392 C   0  0  0  0  0  0
  -19.5780  -26.6407   21.5216 C   0  0  0  0  0  0
  -18.1943  -26.7972   22.1600 C   0  0  0  0  0  0
  -19.1547  -28.8894   23.2874 C   0  0  0  0  0  0
  -18.9482  -30.1489   23.8900 C   0  0  0  0  0  0
  -17.6485  -30.6610   24.0591 C   0  0  0  0  0  0
  -25.9061  -34.9455   23.5104 C   0  0  0  0  0  0
  -16.5380  -29.9112   23.6360 C   0  0  0  0  0  0
  -16.7285  -28.6532   23.0377 C   0  0  0  0  0  0
  -26.4534  -31.6596   25.0735 C   0  0  0  0  0  0
  -25.3774  -31.3699   26.1452 C   0  0  0  0  0  0
  -27.0441  -30.3046   24.6192 C   0  0  0  0  0  0
  -27.6094  -32.4337   25.7503 C   0  0  0  0  0  0
  -27.5592  -37.1807   24.8476 C   0  0  0  0  0  0
  -21.4161  -29.3101   22.3627 N   0  0  0  0  0  0
  -26.4309  -37.3780   23.9414 N   0  0  0  0  0  0
  -24.6786  -31.0718   22.0971 N   0  0  0  0  0  0
  -23.4165  -28.8269   23.3015 O   0  0  0  0  0  0
  -28.3913  -26.6204   20.0988 O   0  0  0  0  0  0
  -26.5591  -34.8912   22.4647 O   0  0  0  0  0  0
  -23.5416  -32.1425   23.7426 O   0  0  0  0  0  0
  -29.2761  -22.1918   20.9478 C   0  0  0  0  0  0
  -29.1493  -23.5843   20.7008 C   0  0  0  0  0  0
  -27.9675  -23.0889   18.6342 C   0  0  0  0  0  0
  -28.5254  -24.0668   19.5180 C   0  0  0  0  0  0
  -28.0708  -21.6829   18.9117 C   0  0  0  0  0  0
  -28.7862  -21.2100   20.0524 C   0  0  0  0  0  0
  -29.8680  -17.6026   19.4159 C   0  0  0  0  0  0
  -29.0316  -17.7753   21.7477 C   0  0  0  0  0  0
  -29.9479  -19.1574   19.3609 C   0  0  0  0  0  0
  -29.1469  -19.3239   21.6597 C   0  0  0  0  0  0
  -30.0480  -17.0279   20.8449 C   0  0  0  0  0  0
  -29.7307  -24.5467   21.7214 C   0  0  0  0  0  0
  -27.2786  -23.5647   17.3527 C   0  0  0  0  0  0
  -27.3835  -20.6768   17.9842 C   0  0  0  0  0  0
  -28.6074  -25.5797   19.1070 C   0  0  0  0  0  0
  -29.0063  -19.8128   20.2818 N   0  0  0  0  0  0
  -29.8342  -15.5575   20.9116 N   0  0  0  0  0  0
  -31.4770  -12.4476   19.1274 H   0  0  0  0  0  0
  -30.3482  -11.3271   19.8392 H   0  0  0  0  0  0
  -29.7453  -11.7704   17.4413 H   0  0  0  0  0  0
  -29.6577  -13.4826   17.7560 H   0  0  0  0  0  0
  -27.8365  -11.3023   18.8282 H   0  0  0  0  0  0
  -27.3689  -12.6226   17.7906 H   0  0  0  0  0  0
  -27.6959  -14.2484   19.5626 H   0  0  0  0  0  0
  -28.6994  -11.9685   21.3445 H   0  0  0  0  0  0
  -28.4718  -13.6067   21.8737 H   0  0  0  0  0  0
  -25.2752   -9.5672   22.4779 H   0  0  0  0  0  0
  -23.9988   -7.4634   22.7498 H   0  0  0  0  0  0
  -21.0838   -8.8771   19.8956 H   0  0  0  0  0  0
  -22.3711  -10.9668   19.6167 H   0  0  0  0  0  0
  -21.2000   -7.6143   23.9712 H   0  0  0  0  0  0
  -21.1488   -6.0529   25.9074 H   0  0  0  0  0  0
  -22.0593   -2.7607   23.2842 H   0  0  0  0  0  0
  -22.4105  -11.9857   22.4722 H   0  0  0  0  0  0
  -21.1152  -13.1307   22.2637 H   0  0  0  0  0  0
  -24.6647  -15.8392   20.5148 H   0  0  0  0  0  0
  -26.2759  -15.6240   20.0570 H   0  0  0  0  0  0
  -26.7207  -32.5450   23.1139 H   0  0  0  0  0  0
  -25.0319  -33.9775   25.0590 H   0  0  0  0  0  0
  -22.7079  -31.3157   21.4028 H   0  0  0  0  0  0
  -23.3783  -35.9593   23.3281 H   0  0  0  0  0  0
  -24.3606  -36.8937   22.2064 H   0  0  0  0  0  0
  -23.7235  -37.6468   23.6684 H   0  0  0  0  0  0
  -26.0848  -31.5779   20.6068 H   0  0  0  0  0  0
  -26.8238  -30.8467   22.0031 H   0  0  0  0  0  0
  -28.1062  -29.0492   21.1554 H   0  0  0  0  0  0
  -25.9849  -25.9218   19.0660 H   0  0  0  0  0  0
  -23.9546  -27.2825   19.0646 H   0  0  0  0  0  0
  -23.7470  -30.6062   19.4033 H   0  0  0  0  0  0
  -22.7388  -29.2660   19.8510 H   0  0  0  0  0  0
  -25.1319  -36.1947   25.0822 H   0  0  0  0  0  0
  -21.0005  -28.3369   24.1354 H   0  0  0  0  0  0
  -20.5783  -26.2384   23.3621 H   0  0  0  0  0  0
  -21.6685  -26.7545   22.1157 H   0  0  0  0  0  0
  -19.6962  -25.6307   21.1276 H   0  0  0  0  0  0
  -19.6709  -27.3200   20.6732 H   0  0  0  0  0  0
  -17.4241  -26.6782   21.3963 H   0  0  0  0  0  0
  -18.0289  -26.0074   22.8940 H   0  0  0  0  0  0
  -19.7957  -30.7319   24.2253 H   0  0  0  0  0  0
  -17.5039  -31.6280   24.5212 H   0  0  0  0  0  0
  -15.5390  -30.3030   23.7669 H   0  0  0  0  0  0
  -15.8689  -28.0848   22.7111 H   0  0  0  0  0  0
  -24.6018  -30.6969   25.7775 H   0  0  0  0  0  0
  -24.8890  -32.2842   26.4830 H   0  0  0  0  0  0
  -25.8112  -30.8939   27.0254 H   0  0  0  0  0  0
  -26.3031  -29.6693   24.1326 H   0  0  0  0  0  0
  -27.4307  -29.7404   25.4693 H   0  0  0  0  0  0
  -27.8801  -30.4386   23.9323 H   0  0  0  0  0  0
  -27.2756  -33.3689   26.2010 H   0  0  0  0  0  0
  -28.3949  -32.6808   25.0348 H   0  0  0  0  0  0
  -28.0707  -31.8497   26.5478 H   0  0  0  0  0  0
  -28.2598  -38.0114   24.7556 H   0  0  0  0  0  0
  -28.1108  -36.2656   24.6277 H   0  0  0  0  0  0
  -27.2311  -37.1419   25.8876 H   0  0  0  0  0  0
  -20.9346  -29.8784   21.6796 H   0  0  0  0  0  0
  -26.0181  -38.2850   24.1406 H   0  0  0  0  0  0
  -29.7972  -21.8803   21.8414 H   0  0  0  0  0  0
  -30.6273  -17.1843   18.7537 H   0  0  0  0  0  0
  -28.9063  -17.2845   19.0094 H   0  0  0  0  0  0
  -28.0160  -17.4842   21.4715 H   0  0  0  0  0  0
  -29.1597  -17.4649   22.7853 H   0  0  0  0  0  0
  -29.7761  -19.4860   18.3356 H   0  0  0  0  0  0
  -30.9598  -19.4768   19.6147 H   0  0  0  0  0  0
  -30.1151  -19.6307   22.0584 H   0  0  0  0  0  0
  -28.3848  -19.7787   22.2948 H   0  0  0  0  0  0
  -31.0590  -17.2472   21.1935 H   0  0  0  0  0  0
  -30.2139  -24.0218   22.5459 H   0  0  0  0  0  0
  -28.9350  -25.1586   22.1472 H   0  0  0  0  0  0
  -30.4715  -25.2019   21.2630 H   0  0  0  0  0  0
  -28.0112  -23.9977   16.6698 H   0  0  0  0  0  0
  -26.5283  -24.3211   17.5788 H   0  0  0  0  0  0
  -26.7533  -22.7932   16.7964 H   0  0  0  0  0  0
  -26.3303  -20.9283   17.8610 H   0  0  0  0  0  0
  -27.3872  -19.6567   18.3655 H   0  0  0  0  0  0
  -27.8572  -20.6618   17.0024 H   0  0  0  0  0  0
  -28.0437  -25.8119   18.2063 H   0  0  0  0  0  0
  -29.6391  -25.7178   18.7818 H   0  0  0  0  0  0
  -28.9214  -15.2596   21.2208 H   0  0  0  0  0  0
  1 25  1  0  0  0
  1 30  2  0  0  0
  1 87  1  0  0  0
  2  3  1  0  0  0
  2 25  1  0  0  0
  2 88  1  0  0  0
  2 89  1  0  0  0
  3  4  1  0  0  0
  3 90  1  0  0  0
  3 91  1  0  0  0
  4  5  1  0  0  0
  4 92  1  0  0  0
  4 93  1  0  0  0
  5  6  1  0  0  0
  5 26  1  0  0  0
  5 94  1  0  0  0
  6 25  1  0  0  0
  6 95  1  0  0  0
  6 96  1  0  0  0
  7  8  2  0  0  0
  7 26  1  0  0  0
  7 29  1  0  0  0
  8  9  1  0  0  0
  8 22  1  0  0  0
  9 10  1  0  0  0
  9 27  2  0  0  0
 10 11  2  0  0  0
 10 15  1  0  0  0
 11 12  1  0  0  0
 11 97  1  0  0  0
 12 13  2  0  0  0
 12 98  1  0  0  0
 13 14  1  0  0  0
 13 31  1  0  0  0
 14 15  2  0  0  0
 14 99  1  0  0  0
 15100  1  0  0  0
 16 17  2  0  0  0
 16 21  1  0  0  0
 16 31  1  0  0  0
 17 18  1  0  0  0
 17101  1  0  0  0
 18 19  2  0  0  0
 18102  1  0  0  0
 19 20  1  0  0  0
 19 24  1  0  0  0
 20 21  2  0  0  0
 20103  1  0  0  0
 21 23  1  0  0  0
 22 28  1  0  0  0
 22 32  2  0  0  0
 26 27  1  0  0  0
 28104  1  0  0  0
 28105  1  0  0  0
 29106  1  0  0  0
 29107  1  0  0  0
 33 34  1  0  0  0
 33 66  1  0  0  0
 33 70  2  0  0  0
 34 36  1  0  0  0
 34 59  1  0  0  0
 34108  1  0  0  0
 35 44  2  0  0  0
 35 45  1  0  0  0
 35 68  1  0  0  0
 36 56  1  0  0  0
 36109  1  0  0  0
 37 39  1  0  0  0
 37 47  1  0  0  0
 37 66  1  0  0  0
 37110  1  0  0  0
 38 43  2  0  0  0
 38 46  1  0  0  0
 38 47  1  0  0  0
 39 64  1  0  0  0
 39 67  2  0  0  0
 40 52  1  0  0  0
 40 53  2  0  0  0
 40 58  1  0  0  0
 41111  1  0  0  0
 41112  1  0  0  0
 41113  1  0  0  0
 41 48  1  0  0  0
 42 43  1  0  0  0
 42 66  1  0  0  0
 42114  1  0  0  0
 42115  1  0  0  0
 43 44  1  0  0  0
 44116  1  0  0  0
 45 46  2  0  0  0
 45117  1  0  0  0
 46118  1  0  0  0
 47119  1  0  0  0
 47120  1  0  0  0
 48 56  1  0  0  0
 48 65  1  0  0  0
 48121  1  0  0  0
 49 50  1  0  0  0
 49 53  1  0  0  0
 49 64  1  0  0  0
 49122  1  0  0  0
 50 51  1  0  0  0
 50123  1  0  0  0
 50124  1  0  0  0
 51 52  1  0  0  0
 51125  1  0  0  0
 51126  1  0  0  0
 52127  1  0  0  0
 52128  1  0  0  0
 53 54  1  0  0  0
 54 55  2  0  0  0
 54129  1  0  0  0
 55 57  1  0  0  0
 55130  1  0  0  0
 56 69  2  0  0  0
 57 58  2  0  0  0
 57131  1  0  0  0
 58132  1  0  0  0
 59 60  1  0  0  0
 59 61  1  0  0  0
 59 62  1  0  0  0
 60133  1  0  0  0
 60134  1  0  0  0
 60135  1  0  0  0
 61136  1  0  0  0
 61137  1  0  0  0
 61138  1  0  0  0
 62139  1  0  0  0
 62140  1  0  0  0
 62141  1  0  0  0
 63 65  1  0  0  0
 63142  1  0  0  0
 63143  1  0  0  0
 63144  1  0  0  0
 64145  1  0  0  0
 65146  1  0  0  0
 68 85  1  0  0  0
 71 72  2  0  0  0
 71 76  1  0  0  0
 71147  1  0  0  0
 72 74  1  0  0  0
 72 82  1  0  0  0
 73 74  2  0  0  0
 73 75  1  0  0  0
 73 83  1  0  0  0
 74 85  1  0  0  0
 75 76  2  0  0  0
 75 84  1  0  0  0
 76 86  1  0  0  0
 77 79  1  0  0  0
 77 81  1  0  0  0
 77148  1  0  0  0
 77149  1  0  0  0
 78 80  1  0  0  0
 78 81  1  0  0  0
 78150  1  0  0  0
 78151  1  0  0  0
 79 86  1  0  0  0
 79152  1  0  0  0
 79153  1  0  0  0
 80 86  1  0  0  0
 80154  1  0  0  0
 80155  1  0  0  0
 81 87  1  0  0  0
 81156  1  0  0  0
 82157  1  0  0  0
 82158  1  0  0  0
 82159  1  0  0  0
 83160  1  0  0  0
 83161  1  0  0  0
 83162  1  0  0  0
 84163  1  0  0  0
 84164  1  0  0  0
 84165  1  0  0  0
 85166  1  0  0  0
 85167  1  0  0  0
 87168  1  0  0  0
M  ISO  4   1 100  68 101  85 101  87 100
M  END
> <chiral flag>
0

> <version>
0

> <s_m_source_file>
/data/baiqing/PycharmProjects/Reinvent-master-3.2/result/LINK_invent/BTK/process_docking_weight1_custom_sum_contain_oxygen_bond_distance_aromatic_linkinvent_7_9_3/rearranged_h_0162.sdf

> <i_m_source_file_index>
61

> <r_mmod_Potential_Energy-OPLS-2005>
43.0804061889648

> <r_mmod_Stretch_Energy-OPLS-2005>
59.3717880249023

> <r_mmod_Bend_Energy-OPLS-2005>
123.987693786621

> <r_mmod_Torsional_Energy-OPLS-2005>
247.579879760742

> <r_mmod_Improper_Torsional_Energy-OPLS-2005>
9.05451679229736

> <r_mmod_Van_der_Waal_Energy-OPLS-2005>
166.106369018555

> <r_mmod_Electrostatic_Energy-OPLS-2005>
-376.523620605469

> <r_mmod_Solvation_Energy-OPLS-2005>
-209.73876953125

> <b_mmod_Minimization_Converged-OPLS-2005>
0

> <r_mmod_RMS_Derivative-OPLS-2005>
2.19613552093506

$$$$
62
                    3D
 Structure written by MMmdl.
159168  0  0  1  0            999 V2000
  -30.4811  -15.1849   20.3818 C   0  0  0  0  0  0
  -30.4355  -12.7545   19.5163 C   0  0  0  0  0  0
  -29.5288  -12.5612   18.2768 C   0  0  0  0  0  0
  -28.0739  -12.3023   18.7049 C   0  0  0  0  0  0
  -27.6138  -13.2707   19.8239 C   0  0  2  0  0  0
  -28.6513  -13.4196   20.9568 C   0  0  0  0  0  0
  -25.2398  -13.8247   20.5745 C   0  0  0  0  0  0
  -24.1746  -13.0439   20.9255 C   0  0  0  0  0  0
  -24.6394  -11.6934   20.8763 C   0  0  0  0  0  0
  -23.9090  -10.4294   21.0407 C   0  0  0  0  0  0
  -24.3635   -9.4208   21.9185 C   0  0  0  0  0  0
  -23.6303   -8.2246   22.0754 C   0  0  0  0  0  0
  -22.4285   -8.0284   21.3544 C   0  0  0  0  0  0
  -21.9926   -9.0260   20.4646 C   0  0  0  0  0  0
  -22.7260  -10.2135   20.3055 C   0  0  0  0  0  0
  -21.6857   -6.0738   22.5279 C   0  0  0  0  0  0
  -21.4016   -6.5640   23.8212 C   0  0  0  0  0  0
  -21.3659   -5.6793   24.9172 C   0  0  0  0  0  0
  -21.6044   -4.3056   24.7222 C   0  0  0  0  0  0
  -21.8820   -3.8148   23.4344 C   0  0  0  0  0  0
  -21.9193   -4.6966   22.3401 C   0  0  0  0  0  0
  -22.7763  -13.5193   21.1902 C   0  0  0  0  0  0
  -22.1662   -4.2151   21.0980 F   0  0  0  0  0  0
  -21.5628   -3.4539   25.7734 F   0  0  0  0  0  0
  -29.8921  -13.8984   20.3297 N   0  0  0  0  0  0
  -26.2825  -12.9514   20.3227 N   0  0  0  0  0  0
  -25.9330  -11.6622   20.5729 N   0  0  0  0  0  0
  -22.0420  -12.8173   22.0455 N   0  0  0  0  0  0
  -25.4036  -15.1980   20.4179 N   0  0  0  0  0  0
  -31.7002  -15.1774   20.1731 O   0  0  0  0  0  0
  -21.6645   -6.8883   21.4241 O   0  0  0  0  0  0
  -22.3443  -14.5496   20.6745 O   0  0  0  0  0  0
  -24.6597  -31.8285   23.1754 C   0  0  0  0  0  0
  -25.9293  -32.4614   23.8200 C   0  0  1  0  0  0
  -27.2133  -26.9684   20.1739 C   0  0  0  0  0  0
  -25.5975  -33.8429   24.2103 N   0  0  0  0  0  0
  -23.4722  -30.4436   21.5244 C   0  0  2  0  0  0
  -24.9247  -28.8437   20.1117 C   0  0  0  0  0  0
  -22.7652  -29.4467   22.4798 C   0  0  0  0  0  0
  -18.0320  -28.1407   22.8468 C   0  0  0  0  0  0
  -24.1491  -36.7216   23.2647 C   0  0  0  0  0  0
  -26.0408  -30.6480   21.4013 C   0  0  0  0  0  0
  -26.1093  -29.2435   20.7430 C   0  0  0  0  0  0
  -27.2505  -28.3261   20.7525 C   0  0  0  0  0  0
  -25.9996  -26.7196   19.4909 C   0  0  0  0  0  0
  -24.8934  -27.6009   19.4655 C   0  0  0  0  0  0
  -23.7095  -29.7658   20.1485 C   0  0  0  0  0  0
  -25.4132  -36.2984   24.0303 C   0  0  1  0  0  0
  -20.5942  -28.3749   23.1195 C   0  0  2  0  0  0
  -20.6797  -26.9434   22.5401 C   0  0  0  0  0  0
  -19.5770  -26.6377   21.5215 C   0  0  0  0  0  0
  -18.1951  -26.7941   22.1623 C   0  0  0  0  0  0
  -19.1582  -28.8899   23.2819 C   0  0  0  0  0  0
  -18.9494  -30.1488   23.8854 C   0  0  0  0  0  0
  -17.6489  -30.6597   24.0554 C   0  0  0  0  0  0
  -25.9097  -34.9365   23.5022 C   0  0  0  0  0  0
  -16.5378  -29.9084   23.6346 C   0  0  0  0  0  0
  -16.7303  -28.6505   23.0364 C   0  0  0  0  0  0
  -26.4555  -31.6546   25.0713 C   0  0  0  0  0  0
  -25.3688  -31.3788   26.1372 C   0  0  0  0  0  0
  -27.0449  -30.2917   24.6425 C   0  0  0  0  0  0
  -27.6050  -32.4352   25.7513 C   0  0  0  0  0  0
  -27.5568  -37.1766   24.8467 C   0  0  0  0  0  0
  -21.4325  -29.3048   22.3548 N   0  0  0  0  0  0
  -26.4280  -37.3714   23.9409 N   0  0  0  0  0  0
  -24.7452  -30.9986   22.0873 N   0  0  0  0  0  0
  -23.4217  -28.8026   23.3018 O   0  0  0  0  0  0
  -28.2006  -25.8605   20.2524 O   0  0  0  0  0  0
  -26.5699  -34.8889   22.4613 O   0  0  0  0  0  0
  -23.5673  -32.1238   23.6867 O   0  0  0  0  0  0
  -29.0980  -22.0525   21.3526 C   0  0  0  0  0  0
  -28.8883  -20.2719   19.2733 C   0  0  0  0  0  0
  -29.5214  -20.6316   21.4656 C   0  0  0  0  0  0
  -29.4439  -19.5975   20.4323 C   0  0  0  0  0  0
  -28.5504  -22.7314   20.1919 C   0  0  0  0  0  0
  -28.4614  -21.7002   19.1534 C   0  0  0  0  0  0
  -30.1457  -20.2515   22.8018 C   0  0  0  0  0  0
  -30.5187  -18.7648   22.9614 C   0  0  0  0  0  0
  -30.2131  -18.0374   20.5231 C   0  0  1  0  0  0
  -31.1846  -18.1275   21.7307 C   0  0  1  0  0  0
  -27.6334  -21.2563   16.9219 C   0  0  0  0  0  0
  -27.7884  -24.2949   20.0856 C   0  0  0  0  0  0
  -29.7513  -16.4594   20.4730 N   0  0  0  0  0  0
  -32.3541  -18.8493   21.3840 O   0  0  0  0  0  0
  -27.9073  -22.1682   17.9785 O   0  0  0  0  0  0
  -31.4590  -12.9410   19.1886 H   0  0  0  0  0  0
  -30.4803  -11.8409   20.1113 H   0  0  0  0  0  0
  -29.8926  -11.7362   17.6626 H   0  0  0  0  0  0
  -29.5725  -13.4536   17.6503 H   0  0  0  0  0  0
  -28.0165  -11.2745   19.0651 H   0  0  0  0  0  0
  -27.4049  -12.3630   17.8455 H   0  0  0  0  0  0
  -27.5372  -14.2446   19.3387 H   0  0  0  0  0  0
  -28.8007  -12.4794   21.4893 H   0  0  0  0  0  0
  -28.3073  -14.1462   21.6948 H   0  0  0  0  0  0
  -25.2774   -9.5684   22.4766 H   0  0  0  0  0  0
  -24.0008   -7.4637   22.7475 H   0  0  0  0  0  0
  -21.0857   -8.8782   19.8950 H   0  0  0  0  0  0
  -22.3718  -10.9676   19.6167 H   0  0  0  0  0  0
  -21.2011   -7.6148   23.9715 H   0  0  0  0  0  0
  -21.1480   -6.0522   25.9075 H   0  0  0  0  0  0
  -22.0598   -2.7611   23.2843 H   0  0  0  0  0  0
  -22.4053  -11.9842   22.4843 H   0  0  0  0  0  0
  -21.1033  -13.1181   22.2662 H   0  0  0  0  0  0
  -24.6325  -15.8471   20.5306 H   0  0  0  0  0  0
  -26.2437  -15.6400   20.0694 H   0  0  0  0  0  0
  -26.7361  -32.5163   23.0915 H   0  0  0  0  0  0
  -25.0080  -33.9519   25.0224 H   0  0  0  0  0  0
  -22.7836  -31.2746   21.3575 H   0  0  0  0  0  0
  -23.3763  -35.9537   23.3291 H   0  0  0  0  0  0
  -24.3567  -36.8879   22.2065 H   0  0  0  0  0  0
  -23.7240  -37.6398   23.6712 H   0  0  0  0  0  0
  -26.2177  -31.3928   20.6244 H   0  0  0  0  0  0
  -26.9026  -30.7018   22.0547 H   0  0  0  0  0  0
  -28.1449  -28.6279   21.2789 H   0  0  0  0  0  0
  -25.8547  -25.7774   18.9869 H   0  0  0  0  0  0
  -23.9945  -27.2901   18.9511 H   0  0  0  0  0  0
  -23.8611  -30.5368   19.3922 H   0  0  0  0  0  0
  -22.8205  -29.2180   19.8311 H   0  0  0  0  0  0
  -25.1328  -36.1786   25.0794 H   0  0  0  0  0  0
  -21.0031  -28.3348   24.1319 H   0  0  0  0  0  0
  -20.5685  -26.2365   23.3637 H   0  0  0  0  0  0
  -21.6659  -26.7419   22.1201 H   0  0  0  0  0  0
  -19.6932  -25.6278   21.1270 H   0  0  0  0  0  0
  -19.6705  -27.3164   20.6725 H   0  0  0  0  0  0
  -17.4219  -26.6687   21.4025 H   0  0  0  0  0  0
  -18.0345  -26.0095   22.9033 H   0  0  0  0  0  0
  -19.7971  -30.7313   24.2202 H   0  0  0  0  0  0
  -17.5042  -31.6275   24.5160 H   0  0  0  0  0  0
  -15.5375  -30.2971   23.7698 H   0  0  0  0  0  0
  -15.8704  -28.0805   22.7110 H   0  0  0  0  0  0
  -24.5888  -30.7118   25.7680 H   0  0  0  0  0  0
  -24.8855  -32.2986   26.4679 H   0  0  0  0  0  0
  -25.7922  -30.9036   27.0229 H   0  0  0  0  0  0
  -26.3114  -29.6599   24.1403 H   0  0  0  0  0  0
  -27.3963  -29.7274   25.5074 H   0  0  0  0  0  0
  -27.9061  -30.4109   23.9846 H   0  0  0  0  0  0
  -27.2624  -33.3698   26.1968 H   0  0  0  0  0  0
  -28.3923  -32.6842   25.0384 H   0  0  0  0  0  0
  -28.0648  -31.8561   26.5532 H   0  0  0  0  0  0
  -28.2572  -38.0074   24.7505 H   0  0  0  0  0  0
  -28.1075  -36.2599   24.6306 H   0  0  0  0  0  0
  -27.2280  -37.1420   25.8869 H   0  0  0  0  0  0
  -20.9571  -29.8749   21.6691 H   0  0  0  0  0  0
  -26.0131  -38.2774   24.1415 H   0  0  0  0  0  0
  -29.1927  -22.6601   22.2419 H   0  0  0  0  0  0
  -28.8202  -19.6344   18.4054 H   0  0  0  0  0  0
  -29.4696  -20.5408   23.6075 H   0  0  0  0  0  0
  -31.0431  -20.8581   22.9309 H   0  0  0  0  0  0
  -29.6107  -18.1990   23.1761 H   0  0  0  0  0  0
  -31.1529  -18.6437   23.8406 H   0  0  0  0  0  0
  -30.8284  -18.0578   19.6216 H   0  0  0  0  0  0
  -31.5409  -17.1403   22.0227 H   0  0  0  0  0  0
  -27.1332  -21.7871   16.1118 H   0  0  0  0  0  0
  -26.9684  -20.4539   17.2446 H   0  0  0  0  0  0
  -28.5496  -20.8289   16.5126 H   0  0  0  0  0  0
  -26.9312  -24.1872   20.7508 H   0  0  0  0  0  0
  -27.3564  -24.2696   19.0881 H   0  0  0  0  0  0
  -28.7548  -16.3351   20.5659 H   0  0  0  0  0  0
  -32.0705  -19.6995   21.0612 H   0  0  0  0  0  0
  1 25  1  0  0  0
  1 30  2  0  0  0
  1 83  1  0  0  0
  2  3  1  0  0  0
  2 25  1  0  0  0
  2 86  1  0  0  0
  2 87  1  0  0  0
  3  4  1  0  0  0
  3 88  1  0  0  0
  3 89  1  0  0  0
  4  5  1  0  0  0
  4 90  1  0  0  0
  4 91  1  0  0  0
  5  6  1  0  0  0
  5 26  1  0  0  0
  5 92  1  0  0  0
  6 25  1  0  0  0
  6 93  1  0  0  0
  6 94  1  0  0  0
  7  8  2  0  0  0
  7 26  1  0  0  0
  7 29  1  0  0  0
  8  9  1  0  0  0
  8 22  1  0  0  0
  9 10  1  0  0  0
  9 27  2  0  0  0
 10 11  2  0  0  0
 10 15  1  0  0  0
 11 12  1  0  0  0
 11 95  1  0  0  0
 12 13  2  0  0  0
 12 96  1  0  0  0
 13 14  1  0  0  0
 13 31  1  0  0  0
 14 15  2  0  0  0
 14 97  1  0  0  0
 15 98  1  0  0  0
 16 17  2  0  0  0
 16 21  1  0  0  0
 16 31  1  0  0  0
 17 18  1  0  0  0
 17 99  1  0  0  0
 18 19  2  0  0  0
 18100  1  0  0  0
 19 20  1  0  0  0
 19 24  1  0  0  0
 20 21  2  0  0  0
 20101  1  0  0  0
 21 23  1  0  0  0
 22 28  1  0  0  0
 22 32  2  0  0  0
 26 27  1  0  0  0
 28102  1  0  0  0
 28103  1  0  0  0
 29104  1  0  0  0
 29105  1  0  0  0
 33 34  1  0  0  0
 33 66  1  0  0  0
 33 70  2  0  0  0
 34 36  1  0  0  0
 34 59  1  0  0  0
 34106  1  0  0  0
 35 44  2  0  0  0
 35 45  1  0  0  0
 35 68  1  0  0  0
 36 56  1  0  0  0
 36107  1  0  0  0
 37 39  1  0  0  0
 37 47  1  0  0  0
 37 66  1  0  0  0
 37108  1  0  0  0
 38 43  2  0  0  0
 38 46  1  0  0  0
 38 47  1  0  0  0
 39 64  1  0  0  0
 39 67  2  0  0  0
 40 52  1  0  0  0
 40 53  2  0  0  0
 40 58  1  0  0  0
 41109  1  0  0  0
 41110  1  0  0  0
 41111  1  0  0  0
 41 48  1  0  0  0
 42 43  1  0  0  0
 42 66  1  0  0  0
 42112  1  0  0  0
 42113  1  0  0  0
 43 44  1  0  0  0
 44114  1  0  0  0
 45 46  2  0  0  0
 45115  1  0  0  0
 46116  1  0  0  0
 47117  1  0  0  0
 47118  1  0  0  0
 48 56  1  0  0  0
 48 65  1  0  0  0
 48119  1  0  0  0
 49 50  1  0  0  0
 49 53  1  0  0  0
 49 64  1  0  0  0
 49120  1  0  0  0
 50 51  1  0  0  0
 50121  1  0  0  0
 50122  1  0  0  0
 51 52  1  0  0  0
 51123  1  0  0  0
 51124  1  0  0  0
 52125  1  0  0  0
 52126  1  0  0  0
 53 54  1  0  0  0
 54 55  2  0  0  0
 54127  1  0  0  0
 55 57  1  0  0  0
 55128  1  0  0  0
 56 69  2  0  0  0
 57 58  2  0  0  0
 57129  1  0  0  0
 58130  1  0  0  0
 59 60  1  0  0  0
 59 61  1  0  0  0
 59 62  1  0  0  0
 60131  1  0  0  0
 60132  1  0  0  0
 60133  1  0  0  0
 61134  1  0  0  0
 61135  1  0  0  0
 61136  1  0  0  0
 62137  1  0  0  0
 62138  1  0  0  0
 62139  1  0  0  0
 63 65  1  0  0  0
 63140  1  0  0  0
 63141  1  0  0  0
 63142  1  0  0  0
 64143  1  0  0  0
 65144  1  0  0  0
 68 82  1  0  0  0
 71 73  2  0  0  0
 71 75  1  0  0  0
 71145  1  0  0  0
 72 74  2  0  0  0
 72 76  1  0  0  0
 72146  1  0  0  0
 73 74  1  0  0  0
 73 77  1  0  0  0
 74 79  1  0  0  0
 75 76  2  0  0  0
 75 82  1  0  0  0
 76 85  1  0  0  0
 77 78  1  0  0  0
 77147  1  0  0  0
 77148  1  0  0  0
 78 80  1  0  0  0
 78149  1  0  0  0
 78150  1  0  0  0
 79 80  1  0  0  0
 79 83  1  0  0  0
 79151  1  0  0  0
 80 84  1  0  0  0
 80152  1  0  0  0
 81 85  1  0  0  0
 81153  1  0  0  0
 81154  1  0  0  0
 81155  1  0  0  0
 82156  1  0  0  0
 82157  1  0  0  0
 83158  1  0  0  0
 84159  1  0  0  0
M  ISO  4   1 100  68 101  82 101  83 100
M  END
> <chiral flag>
0

> <version>
0

> <s_m_source_file>
/data/baiqing/PycharmProjects/Reinvent-master-3.2/result/LINK_invent/BTK/process_docking_weight1_custom_sum_contain_oxygen_bond_distance_aromatic_linkinvent_7_9_3/rearranged_h_0162.sdf

> <i_m_source_file_index>
62

> <r_mmod_Potential_Energy-OPLS-2005>
977.422180175781

> <r_mmod_Stretch_Energy-OPLS-2005>
460.444702148438

> <r_mmod_Bend_Energy-OPLS-2005>
424.581024169922

> <r_mmod_Torsional_Energy-OPLS-2005>
225.373092651367

> <r_mmod_Improper_Torsional_Energy-OPLS-2005>
8.87120914459229

> <r_mmod_Van_der_Waal_Energy-OPLS-2005>
148.236694335938

> <r_mmod_Electrostatic_Energy-OPLS-2005>
-446.138916015625

> <r_mmod_Solvation_Energy-OPLS-2005>
-234.999710083008

> <b_mmod_Minimization_Converged-OPLS-2005>
0

> <r_mmod_RMS_Derivative-OPLS-2005>
0.498093068599701

$$$$
63
                    3D
 Structure written by MMmdl.
172182  0  0  1  0            999 V2000
  -30.7390  -14.3490   20.7186 C   0  0  0  0  0  0
  -30.4331  -12.3001   19.3706 C   0  0  0  0  0  0
  -29.4847  -12.5493   18.1826 C   0  0  0  0  0  0
  -28.0075  -12.3973   18.5995 C   0  0  0  0  0  0
  -27.6732  -13.1813   19.8951 C   0  0  2  0  0  0
  -28.7159  -12.8551   20.9897 C   0  0  0  0  0  0
  -25.2669  -13.8112   20.5662 C   0  0  0  0  0  0
  -24.1885  -13.0418   20.9165 C   0  0  0  0  0  0
  -24.6395  -11.6882   20.8740 C   0  0  0  0  0  0
  -23.9050  -10.4280   21.0421 C   0  0  0  0  0  0
  -24.3584   -9.4198   21.9213 C   0  0  0  0  0  0
  -23.6256   -8.2234   22.0773 C   0  0  0  0  0  0
  -22.4249   -8.0273   21.3549 C   0  0  0  0  0  0
  -21.9898   -9.0259   20.4657 C   0  0  0  0  0  0
  -22.7227  -10.2139   20.3072 C   0  0  0  0  0  0
  -21.6846   -6.0725   22.5268 C   0  0  0  0  0  0
  -21.4006   -6.5633   23.8204 C   0  0  0  0  0  0
  -21.3659   -5.6782   24.9169 C   0  0  0  0  0  0
  -21.6054   -4.3048   24.7223 C   0  0  0  0  0  0
  -21.8823   -3.8139   23.4338 C   0  0  0  0  0  0
  -21.9195   -4.6957   22.3390 C   0  0  0  0  0  0
  -22.7920  -13.5282   21.1788 C   0  0  0  0  0  0
  -22.1670   -4.2134   21.0976 F   0  0  0  0  0  0
  -21.5645   -3.4539   25.7745 F   0  0  0  0  0  0
  -30.0472  -13.2067   20.4611 N   0  0  0  0  0  0
  -26.3091  -12.9217   20.3457 N   0  0  0  0  0  0
  -25.9313  -11.6400   20.5784 N   0  0  0  0  0  0
  -22.0523  -12.8280   22.0336 N   0  0  0  0  0  0
  -25.4423  -15.1812   20.4021 N   0  0  0  0  0  0
  -31.7879  -14.6437   20.1292 O   0  0  0  0  0  0
  -21.6620   -6.8869   21.4235 O   0  0  0  0  0  0
  -22.3657  -14.5613   20.6678 O   0  0  0  0  0  0
  -24.6123  -31.8706   23.2129 C   0  0  0  0  0  0
  -25.9031  -32.4839   23.8411 C   0  0  1  0  0  0
  -27.2414  -27.4662   20.0491 C   0  0  0  0  0  0
  -25.5909  -33.8639   24.2353 N   0  0  0  0  0  0
  -23.3983  -30.4940   21.5547 C   0  0  2  0  0  0
  -24.8402  -28.9613   20.1137 C   0  0  0  0  0  0
  -22.7414  -29.4663   22.5031 C   0  0  0  0  0  0
  -18.0277  -28.1371   22.8536 C   0  0  0  0  0  0
  -24.1473  -36.7289   23.2647 C   0  0  0  0  0  0
  -25.9266  -30.8337   21.3690 C   0  0  0  0  0  0
  -25.9972  -29.4682   20.7168 C   0  0  0  0  0  0
  -27.1936  -28.7197   20.6976 C   0  0  0  0  0  0
  -26.0610  -26.9671   19.4497 C   0  0  0  0  0  0
  -24.8640  -27.7041   19.4887 C   0  0  0  0  0  0
  -23.6014  -29.8257   20.1680 C   0  0  0  0  0  0
  -25.4111  -36.3131   24.0367 C   0  0  1  0  0  0
  -20.5872  -28.3662   23.1356 C   0  0  2  0  0  0
  -20.6764  -26.9402   22.5440 C   0  0  0  0  0  0
  -19.5730  -26.6388   21.5239 C   0  0  0  0  0  0
  -18.1903  -26.7920   22.1647 C   0  0  0  0  0  0
  -19.1533  -28.8841   23.2926 C   0  0  0  0  0  0
  -18.9451  -30.1439   23.8937 C   0  0  0  0  0  0
  -17.6450  -30.6590   24.0557 C   0  0  0  0  0  0
  -25.9054  -34.9499   23.5157 C   0  0  0  0  0  0
  -16.5348  -29.9093   23.6306 C   0  0  0  0  0  0
  -16.7262  -28.6489   23.0390 C   0  0  0  0  0  0
  -26.4441  -31.6632   25.0746 C   0  0  0  0  0  0
  -25.3677  -31.3666   26.1448 C   0  0  0  0  0  0
  -27.0329  -30.3124   24.6111 C   0  0  0  0  0  0
  -27.6012  -32.4342   25.7506 C   0  0  0  0  0  0
  -27.5613  -37.1771   24.8453 C   0  0  0  0  0  0
  -21.4154  -29.3014   22.3754 N   0  0  0  0  0  0
  -26.4284  -37.3850   23.9468 N   0  0  0  0  0  0
  -24.6634  -31.0831   22.1022 N   0  0  0  0  0  0
  -23.4197  -28.8220   23.3081 O   0  0  0  0  0  0
  -28.4445  -26.7926   20.0208 O   0  0  0  0  0  0
  -26.5630  -34.8949   22.4727 O   0  0  0  0  0  0
  -23.5321  -32.1454   23.7553 O   0  0  0  0  0  0
  -30.3111  -21.5859   22.3589 C   0  0  0  0  0  0
  -29.9534  -20.0867   20.4985 C   0  0  0  0  0  0
  -29.6869  -22.5102   20.1650 C   0  0  0  0  0  0
  -30.0046  -22.6960   21.5453 C   0  0  0  0  0  0
  -29.6505  -21.1766   19.6561 C   0  0  0  0  0  0
  -30.2835  -20.2772   21.8555 C   0  0  0  0  0  0
  -29.0938  -17.3015   22.2041 C   0  0  0  0  0  0
  -31.2485  -16.9155   23.2939 C   0  0  0  0  0  0
  -27.9779  -24.4009   19.4906 C   0  0  0  0  0  0
  -29.9998  -25.0740   19.2246 C   0  0  0  0  0  0
  -29.0866  -15.9426   21.5020 C   0  0  0  0  0  0
  -31.1925  -15.4262   22.8707 C   0  0  0  0  0  0
  -29.3122  -23.6919   19.2499 C   0  0  1  0  0  0
  -30.5242  -17.8324   22.3100 C   0  0  0  0  0  0
  -28.6184  -25.7332   19.0776 C   0  0  2  0  0  0
  -30.0124  -24.0501   22.2442 C   0  0  0  0  0  0
  -29.2424  -20.8351   18.2245 C   0  0  0  0  0  0
  -30.2764  -15.0919   21.7522 N   0  0  0  0  0  0
  -30.5682  -19.2231   22.7386 N   0  0  0  0  0  0
  -31.4689  -12.4419   19.0566 H   0  0  0  0  0  0
  -30.3639  -11.2631   19.7028 H   0  0  0  0  0  0
  -29.7169  -11.8696   17.3622 H   0  0  0  0  0  0
  -29.6484  -13.5566   17.7970 H   0  0  0  0  0  0
  -27.8130  -11.3346   18.7494 H   0  0  0  0  0  0
  -27.3532  -12.7182   17.7890 H   0  0  0  0  0  0
  -27.7435  -14.2431   19.6633 H   0  0  0  0  0  0
  -28.6936  -11.7863   21.2156 H   0  0  0  0  0  0
  -28.4773  -13.3235   21.9433 H   0  0  0  0  0  0
  -25.2716   -9.5670   22.4804 H   0  0  0  0  0  0
  -23.9962   -7.4624   22.7491 H   0  0  0  0  0  0
  -21.0838   -8.8781   19.8956 H   0  0  0  0  0  0
  -22.3692  -10.9682   19.6192 H   0  0  0  0  0  0
  -21.1994   -7.6151   23.9702 H   0  0  0  0  0  0
  -21.1500   -6.0523   25.9068 H   0  0  0  0  0  0
  -22.0619   -2.7607   23.2847 H   0  0  0  0  0  0
  -22.4105  -11.9928   22.4719 H   0  0  0  0  0  0
  -21.1143  -13.1355   22.2494 H   0  0  0  0  0  0
  -24.6826  -15.8411   20.5272 H   0  0  0  0  0  0
  -26.2971  -15.6175   20.0820 H   0  0  0  0  0  0
  -26.7102  -32.5558   23.1175 H   0  0  0  0  0  0
  -24.9997  -33.9790   25.0447 H   0  0  0  0  0  0
  -22.6850  -31.3101   21.4195 H   0  0  0  0  0  0
  -23.3814  -35.9522   23.3182 H   0  0  0  0  0  0
  -24.3581  -36.9036   22.2086 H   0  0  0  0  0  0
  -23.7076  -37.6400   23.6719 H   0  0  0  0  0  0
  -26.0513  -31.6015   20.6031 H   0  0  0  0  0  0
  -26.8126  -30.8779   21.9911 H   0  0  0  0  0  0
  -28.0879  -29.1151   21.1589 H   0  0  0  0  0  0
  -26.0379  -26.0217   18.9324 H   0  0  0  0  0  0
  -23.9769  -27.3089   19.0153 H   0  0  0  0  0  0
  -23.7029  -30.5995   19.4060 H   0  0  0  0  0  0
  -22.7242  -29.2438   19.8784 H   0  0  0  0  0  0
  -25.1248  -36.2006   25.0857 H   0  0  0  0  0  0
  -20.9973  -28.3197   24.1484 H   0  0  0  0  0  0
  -20.5697  -26.2258   23.3610 H   0  0  0  0  0  0
  -21.6616  -26.7431   22.1215 H   0  0  0  0  0  0
  -19.6869  -25.6311   21.1236 H   0  0  0  0  0  0
  -19.6645  -27.3223   20.6786 H   0  0  0  0  0  0
  -17.4182  -26.6732   21.4033 H   0  0  0  0  0  0
  -18.0245  -26.0046   22.9021 H   0  0  0  0  0  0
  -19.7931  -30.7242   24.2336 H   0  0  0  0  0  0
  -17.5006  -31.6276   24.5146 H   0  0  0  0  0  0
  -15.5353  -30.3014   23.7579 H   0  0  0  0  0  0
  -15.8667  -28.0774   22.7147 H   0  0  0  0  0  0
  -24.5854  -30.7055   25.7689 H   0  0  0  0  0  0
  -24.8856  -32.2798   26.4957 H   0  0  0  0  0  0
  -25.8010  -30.8731   27.0154 H   0  0  0  0  0  0
  -26.2910  -29.6859   24.1153 H   0  0  0  0  0  0
  -27.4138  -29.7390   25.4566 H   0  0  0  0  0  0
  -27.8700  -30.4535   23.9266 H   0  0  0  0  0  0
  -27.2666  -33.3668   26.2057 H   0  0  0  0  0  0
  -28.3825  -32.6852   25.0320 H   0  0  0  0  0  0
  -28.0642  -31.8451   26.5431 H   0  0  0  0  0  0
  -28.2503  -38.0197   24.7776 H   0  0  0  0  0  0
  -28.1240  -36.2765   24.5958 H   0  0  0  0  0  0
  -27.2355  -37.1050   25.8841 H   0  0  0  0  0  0
  -20.9320  -29.8709   21.6946 H   0  0  0  0  0  0
  -26.0161  -38.2888   24.1608 H   0  0  0  0  0  0
  -30.5598  -21.7458   23.3995 H   0  0  0  0  0  0
  -29.9067  -19.0920   20.0819 H   0  0  0  0  0  0
  -28.6595  -17.1897   23.1996 H   0  0  0  0  0  0
  -28.4352  -17.9835   21.6645 H   0  0  0  0  0  0
  -32.2851  -17.2338   23.4206 H   0  0  0  0  0  0
  -30.7901  -17.0102   24.2811 H   0  0  0  0  0  0
  -27.6498  -24.3899   20.5283 H   0  0  0  0  0  0
  -27.1799  -24.0558   18.8362 H   0  0  0  0  0  0
  -30.6664  -25.2306   18.3743 H   0  0  0  0  0  0
  -30.5046  -25.3810   20.1354 H   0  0  0  0  0  0
  -28.9993  -16.1308   20.4298 H   0  0  0  0  0  0
  -28.1725  -15.4251   21.7918 H   0  0  0  0  0  0
  -30.8864  -14.8262   23.7285 H   0  0  0  0  0  0
  -32.2101  -15.0978   22.6506 H   0  0  0  0  0  0
  -29.3214  -23.3666   18.2111 H   0  0  0  0  0  0
  -31.0282  -17.7466   21.3453 H   0  0  0  0  0  0
  -28.4063  -26.0048   18.0411 H   0  0  0  0  0  0
  -29.7963  -23.9368   23.3066 H   0  0  0  0  0  0
  -29.2647  -24.7419   21.8676 H   0  0  0  0  0  0
  -30.9933  -24.5183   22.1577 H   0  0  0  0  0  0
  -29.4129  -19.7781   18.0010 H   0  0  0  0  0  0
  -29.8093  -21.3981   17.4844 H   0  0  0  0  0  0
  -28.1791  -21.0266   18.0778 H   0  0  0  0  0  0
  -30.7793  -19.4286   23.7121 H   0  0  0  0  0  0
  1 25  1  0  0  0
  1 30  2  0  0  0
  1 88  1  0  0  0
  2  3  1  0  0  0
  2 25  1  0  0  0
  2 90  1  0  0  0
  2 91  1  0  0  0
  3  4  1  0  0  0
  3 92  1  0  0  0
  3 93  1  0  0  0
  4  5  1  0  0  0
  4 94  1  0  0  0
  4 95  1  0  0  0
  5  6  1  0  0  0
  5 26  1  0  0  0
  5 96  1  0  0  0
  6 25  1  0  0  0
  6 97  1  0  0  0
  6 98  1  0  0  0
  7  8  2  0  0  0
  7 26  1  0  0  0
  7 29  1  0  0  0
  8  9  1  0  0  0
  8 22  1  0  0  0
  9 10  1  0  0  0
  9 27  2  0  0  0
 10 11  2  0  0  0
 10 15  1  0  0  0
 11 12  1  0  0  0
 11 99  1  0  0  0
 12 13  2  0  0  0
 12100  1  0  0  0
 13 14  1  0  0  0
 13 31  1  0  0  0
 14 15  2  0  0  0
 14101  1  0  0  0
 15102  1  0  0  0
 16 17  2  0  0  0
 16 21  1  0  0  0
 16 31  1  0  0  0
 17 18  1  0  0  0
 17103  1  0  0  0
 18 19  2  0  0  0
 18104  1  0  0  0
 19 20  1  0  0  0
 19 24  1  0  0  0
 20 21  2  0  0  0
 20105  1  0  0  0
 21 23  1  0  0  0
 22 28  1  0  0  0
 22 32  2  0  0  0
 26 27  1  0  0  0
 28106  1  0  0  0
 28107  1  0  0  0
 29108  1  0  0  0
 29109  1  0  0  0
 33 34  1  0  0  0
 33 66  1  0  0  0
 33 70  2  0  0  0
 34 36  1  0  0  0
 34 59  1  0  0  0
 34110  1  0  0  0
 35 44  2  0  0  0
 35 45  1  0  0  0
 35 68  1  0  0  0
 36 56  1  0  0  0
 36111  1  0  0  0
 37 39  1  0  0  0
 37 47  1  0  0  0
 37 66  1  0  0  0
 37112  1  0  0  0
 38 43  2  0  0  0
 38 46  1  0  0  0
 38 47  1  0  0  0
 39 64  1  0  0  0
 39 67  2  0  0  0
 40 52  1  0  0  0
 40 53  2  0  0  0
 40 58  1  0  0  0
 41113  1  0  0  0
 41114  1  0  0  0
 41115  1  0  0  0
 41 48  1  0  0  0
 42 43  1  0  0  0
 42 66  1  0  0  0
 42116  1  0  0  0
 42117  1  0  0  0
 43 44  1  0  0  0
 44118  1  0  0  0
 45 46  2  0  0  0
 45119  1  0  0  0
 46120  1  0  0  0
 47121  1  0  0  0
 47122  1  0  0  0
 48 56  1  0  0  0
 48 65  1  0  0  0
 48123  1  0  0  0
 49 50  1  0  0  0
 49 53  1  0  0  0
 49 64  1  0  0  0
 49124  1  0  0  0
 50 51  1  0  0  0
 50125  1  0  0  0
 50126  1  0  0  0
 51 52  1  0  0  0
 51127  1  0  0  0
 51128  1  0  0  0
 52129  1  0  0  0
 52130  1  0  0  0
 53 54  1  0  0  0
 54 55  2  0  0  0
 54131  1  0  0  0
 55 57  1  0  0  0
 55132  1  0  0  0
 56 69  2  0  0  0
 57 58  2  0  0  0
 57133  1  0  0  0
 58134  1  0  0  0
 59 60  1  0  0  0
 59 61  1  0  0  0
 59 62  1  0  0  0
 60135  1  0  0  0
 60136  1  0  0  0
 60137  1  0  0  0
 61138  1  0  0  0
 61139  1  0  0  0
 61140  1  0  0  0
 62141  1  0  0  0
 62142  1  0  0  0
 62143  1  0  0  0
 63 65  1  0  0  0
 63144  1  0  0  0
 63145  1  0  0  0
 63146  1  0  0  0
 64147  1  0  0  0
 65148  1  0  0  0
 68 85  1  0  0  0
 71 74  2  0  0  0
 71 76  1  0  0  0
 71149  1  0  0  0
 72 75  1  0  0  0
 72 76  2  0  0  0
 72150  1  0  0  0
 73 74  1  0  0  0
 73 75  2  0  0  0
 73 83  1  0  0  0
 74 86  1  0  0  0
 75 87  1  0  0  0
 76 89  1  0  0  0
 77 81  1  0  0  0
 77 84  1  0  0  0
 77151  1  0  0  0
 77152  1  0  0  0
 78 82  1  0  0  0
 78 84  1  0  0  0
 78153  1  0  0  0
 78154  1  0  0  0
 79 83  1  0  0  0
 79 85  1  0  0  0
 79155  1  0  0  0
 79156  1  0  0  0
 80 83  1  0  0  0
 80 85  1  0  0  0
 80157  1  0  0  0
 80158  1  0  0  0
 81 88  1  0  0  0
 81159  1  0  0  0
 81160  1  0  0  0
 82 88  1  0  0  0
 82161  1  0  0  0
 82162  1  0  0  0
 83163  1  0  0  0
 84 89  1  0  0  0
 84164  1  0  0  0
 85165  1  0  0  0
 86166  1  0  0  0
 86167  1  0  0  0
 86168  1  0  0  0
 87169  1  0  0  0
 87170  1  0  0  0
 87171  1  0  0  0
 89172  1  0  0  0
M  ISO  4   1 100  68 101  85 101  88 100
M  END
> <chiral flag>
0

> <version>
0

> <s_m_source_file>
/data/baiqing/PycharmProjects/Reinvent-master-3.2/result/LINK_invent/BTK/process_docking_weight1_custom_sum_contain_oxygen_bond_distance_aromatic_linkinvent_7_9_3/rearranged_h_0162.sdf

> <i_m_source_file_index>
63

> <r_mmod_Potential_Energy-OPLS-2005>
185.115707397461

> <r_mmod_Stretch_Energy-OPLS-2005>
40.8092803955078

> <r_mmod_Bend_Energy-OPLS-2005>
138.796966552734

> <r_mmod_Torsional_Energy-OPLS-2005>
342.984252929688

> <r_mmod_Improper_Torsional_Energy-OPLS-2005>
4.01868009567261

> <r_mmod_Van_der_Waal_Energy-OPLS-2005>
181.966186523438

> <r_mmod_Electrostatic_Energy-OPLS-2005>
-329.965179443359

> <r_mmod_Solvation_Energy-OPLS-2005>
-203.814697265625

> <b_mmod_Minimization_Converged-OPLS-2005>
0

> <r_mmod_RMS_Derivative-OPLS-2005>
3.89718127250671

$$$$
64
                    3D
 Structure written by MMmdl.
174183  0  0  1  0            999 V2000
  -30.6863  -14.7757   20.4684 C   0  0  0  0  0  0
  -30.4053  -12.4908   19.4768 C   0  0  0  0  0  0
  -29.4958  -12.5128   18.2331 C   0  0  0  0  0  0
  -28.0258  -12.3309   18.6507 C   0  0  0  0  0  0
  -27.6283  -13.2431   19.8417 C   0  0  2  0  0  0
  -28.6791  -13.2264   20.9750 C   0  0  0  0  0  0
  -25.2431  -13.8215   20.5709 C   0  0  0  0  0  0
  -24.1761  -13.0438   20.9250 C   0  0  0  0  0  0
  -24.6387  -11.6927   20.8797 C   0  0  0  0  0  0
  -23.9076  -10.4297   21.0437 C   0  0  0  0  0  0
  -24.3621   -9.4202   21.9200 C   0  0  0  0  0  0
  -23.6288   -8.2242   22.0765 C   0  0  0  0  0  0
  -22.4272   -8.0288   21.3556 C   0  0  0  0  0  0
  -21.9924   -9.0265   20.4654 C   0  0  0  0  0  0
  -22.7262  -10.2138   20.3068 C   0  0  0  0  0  0
  -21.6846   -6.0741   22.5289 C   0  0  0  0  0  0
  -21.4014   -6.5645   23.8223 C   0  0  0  0  0  0
  -21.3664   -5.6796   24.9184 C   0  0  0  0  0  0
  -21.6041   -4.3060   24.7228 C   0  0  0  0  0  0
  -21.8816   -3.8152   23.4350 C   0  0  0  0  0  0
  -21.9187   -4.6969   22.3408 C   0  0  0  0  0  0
  -22.7774  -13.5194   21.1887 C   0  0  0  0  0  0
  -22.1653   -4.2161   21.0982 F   0  0  0  0  0  0
  -21.5627   -3.4542   25.7737 F   0  0  0  0  0  0
  -29.9592  -13.5995   20.3651 N   0  0  0  0  0  0
  -26.2872  -12.9450   20.3296 N   0  0  0  0  0  0
  -25.9316  -11.6581   20.5797 N   0  0  0  0  0  0
  -22.0422  -12.8182   22.0435 N   0  0  0  0  0  0
  -25.4035  -15.1936   20.4042 N   0  0  0  0  0  0
  -31.8908  -14.6910   20.2108 O   0  0  0  0  0  0
  -21.6630   -6.8889   21.4254 O   0  0  0  0  0  0
  -22.3456  -14.5494   20.6730 O   0  0  0  0  0  0
  -24.6328  -31.8549   23.1973 C   0  0  0  0  0  0
  -25.9144  -32.4758   23.8328 C   0  0  1  0  0  0
  -27.2159  -27.2537   20.1410 C   0  0  0  0  0  0
  -25.5931  -33.8558   24.2256 N   0  0  0  0  0  0
  -23.4314  -30.4759   21.5411 C   0  0  2  0  0  0
  -24.8810  -28.9238   20.1080 C   0  0  0  0  0  0
  -22.7517  -29.4601   22.4907 C   0  0  0  0  0  0
  -18.0293  -28.1394   22.8491 C   0  0  0  0  0  0
  -24.1485  -36.7282   23.2643 C   0  0  0  0  0  0
  -25.9777  -30.7665   21.3789 C   0  0  0  0  0  0
  -26.0532  -29.3876   20.7222 C   0  0  0  0  0  0
  -27.2287  -28.5653   20.7276 C   0  0  0  0  0  0
  -26.0298  -26.8666   19.4837 C   0  0  0  0  0  0
  -24.8759  -27.6723   19.4742 C   0  0  0  0  0  0
  -23.6512  -29.8110   20.1570 C   0  0  0  0  0  0
  -25.4116  -36.3074   24.0329 C   0  0  1  0  0  0
  -20.5901  -28.3711   23.1268 C   0  0  2  0  0  0
  -20.6784  -26.9427   22.5412 C   0  0  0  0  0  0
  -19.5757  -26.6389   21.5219 C   0  0  0  0  0  0
  -18.1939  -26.7939   22.1627 C   0  0  0  0  0  0
  -19.1549  -28.8870   23.2869 C   0  0  0  0  0  0
  -18.9465  -30.1471   23.8887 C   0  0  0  0  0  0
  -17.6461  -30.6593   24.0564 C   0  0  0  0  0  0
  -25.9061  -34.9444   23.5099 C   0  0  0  0  0  0
  -16.5354  -29.9089   23.6332 C   0  0  0  0  0  0
  -16.7282  -28.6505   23.0360 C   0  0  0  0  0  0
  -26.4496  -31.6575   25.0718 C   0  0  0  0  0  0
  -25.3701  -31.3718   26.1418 C   0  0  0  0  0  0
  -27.0348  -30.2991   24.6209 C   0  0  0  0  0  0
  -27.6031  -32.4317   25.7519 C   0  0  0  0  0  0
  -27.5580  -37.1805   24.8466 C   0  0  0  0  0  0
  -21.4222  -29.3051   22.3651 N   0  0  0  0  0  0
  -26.4289  -37.3775   23.9408 N   0  0  0  0  0  0
  -24.7000  -31.0503   22.0955 N   0  0  0  0  0  0
  -23.4205  -28.8148   23.3019 O   0  0  0  0  0  0
  -28.2519  -26.2920   20.1991 O   0  0  0  0  0  0
  -26.5644  -34.8917   22.4676 O   0  0  0  0  0  0
  -23.5470  -32.1371   23.7256 O   0  0  0  0  0  0
  -28.2302  -22.5995   21.8836 C   0  0  0  0  0  0
  -28.9153  -22.9326   19.5965 C   0  0  0  0  0  0
  -28.4061  -23.5264   20.7970 C   0  0  0  0  0  0
  -28.5748  -21.1985   21.8009 C   0  0  0  0  0  0
  -29.2593  -21.5096   19.4995 C   0  0  0  0  0  0
  -29.0640  -20.5908   20.6033 C   0  0  0  0  0  0
  -30.7143  -18.6317   20.7118 C   0  0  0  0  0  0
  -28.3411  -18.0688   20.6141 C   0  0  0  0  0  0
  -30.9416  -17.2429   20.0022 C   0  0  0  0  0  0
  -28.8439  -16.6026   21.0577 C   0  0  0  0  0  0
  -27.6373  -23.1199   23.2006 C   0  0  0  0  0  0
  -29.0580  -23.8901   18.4165 C   0  0  0  0  0  0
  -28.4369  -20.3377   23.0605 C   0  0  0  0  0  0
  -31.1533  -21.5775   17.7124 C   0  0  0  0  0  0
  -28.7821  -20.6996   17.0981 C   0  0  0  0  0  0
  -27.9118  -25.0617   20.9975 C   0  0  0  0  0  0
  -29.8417  -20.9209   18.1930 C   0  0  0  0  0  0
  -29.3560  -19.1521   20.5359 N   0  0  0  0  0  0
  -30.1207  -16.0738   20.4769 N   0  0  0  0  0  0
  -31.4486  -12.5750   19.1691 H   0  0  0  0  0  0
  -30.3312  -11.5310   19.9900 H   0  0  0  0  0  0
  -29.7856  -11.7288   17.5321 H   0  0  0  0  0  0
  -29.6153  -13.4596   17.7038 H   0  0  0  0  0  0
  -27.8888  -11.2842   18.9237 H   0  0  0  0  0  0
  -27.3670  -12.5137   17.8010 H   0  0  0  0  0  0
  -27.6018  -14.2506   19.4274 H   0  0  0  0  0  0
  -28.7387  -12.2361   21.4288 H   0  0  0  0  0  0
  -28.4135  -13.9070   21.7829 H   0  0  0  0  0  0
  -25.2767   -9.5663   22.4772 H   0  0  0  0  0  0
  -23.9999   -7.4622   22.7474 H   0  0  0  0  0  0
  -21.0867   -8.8784   19.8939 H   0  0  0  0  0  0
  -22.3741  -10.9672   19.6165 H   0  0  0  0  0  0
  -21.2014   -7.6154   23.9730 H   0  0  0  0  0  0
  -21.1486   -6.0530   25.9089 H   0  0  0  0  0  0
  -22.0589   -2.7612   23.2850 H   0  0  0  0  0  0
  -22.4033  -11.9838   22.4821 H   0  0  0  0  0  0
  -21.1039  -13.1212   22.2628 H   0  0  0  0  0  0
  -24.6250  -15.8376   20.4952 H   0  0  0  0  0  0
  -26.2350  -15.6293   20.0310 H   0  0  0  0  0  0
  -26.7222  -32.5414   23.1080 H   0  0  0  0  0  0
  -25.0053  -33.9691   25.0386 H   0  0  0  0  0  0
  -22.7290  -31.2989   21.3948 H   0  0  0  0  0  0
  -23.3756  -35.9604   23.3303 H   0  0  0  0  0  0
  -24.3567  -36.8911   22.2057 H   0  0  0  0  0  0
  -23.7222  -37.6476   23.6673 H   0  0  0  0  0  0
  -26.1159  -31.5267   20.6089 H   0  0  0  0  0  0
  -26.8550  -30.8178   22.0118 H   0  0  0  0  0  0
  -28.1221  -28.9095   21.2290 H   0  0  0  0  0  0
  -25.9835  -25.8982   19.0048 H   0  0  0  0  0  0
  -23.9816  -27.3138   18.9828 H   0  0  0  0  0  0
  -23.7734  -30.5879   19.4012 H   0  0  0  0  0  0
  -22.7701  -29.2430   19.8529 H   0  0  0  0  0  0
  -25.1297  -36.1931   25.0822 H   0  0  0  0  0  0
  -20.9986  -28.3294   24.1388 H   0  0  0  0  0  0
  -20.5697  -26.2321   23.3619 H   0  0  0  0  0  0
  -21.6652  -26.7456   22.1202 H   0  0  0  0  0  0
  -19.6923  -25.6295   21.1261 H   0  0  0  0  0  0
  -19.6695  -27.3187   20.6745 H   0  0  0  0  0  0
  -17.4210  -26.6694   21.4026 H   0  0  0  0  0  0
  -18.0325  -26.0077   22.9018 H   0  0  0  0  0  0
  -19.7937  -30.7297   24.2244 H   0  0  0  0  0  0
  -17.5013  -31.6269   24.5169 H   0  0  0  0  0  0
  -15.5355  -30.2987   23.7658 H   0  0  0  0  0  0
  -15.8683  -28.0818   22.7084 H   0  0  0  0  0  0
  -24.5888  -30.7066   25.7726 H   0  0  0  0  0  0
  -24.8876  -32.2879   26.4829 H   0  0  0  0  0  0
  -25.7992  -30.8893   27.0208 H   0  0  0  0  0  0
  -26.2939  -29.6746   24.1204 H   0  0  0  0  0  0
  -27.3997  -29.7247   25.4737 H   0  0  0  0  0  0
  -27.8830  -30.4269   23.9479 H   0  0  0  0  0  0
  -27.2628  -33.3625   26.2071 H   0  0  0  0  0  0
  -28.3870  -32.6862   25.0374 H   0  0  0  0  0  0
  -28.0667  -31.8455   26.5466 H   0  0  0  0  0  0
  -28.2590  -38.0111   24.7518 H   0  0  0  0  0  0
  -28.1084  -36.2638   24.6289 H   0  0  0  0  0  0
  -27.2295  -37.1453   25.8868 H   0  0  0  0  0  0
  -20.9411  -29.8758   21.6836 H   0  0  0  0  0  0
  -26.0172  -38.2855   24.1397 H   0  0  0  0  0  0
  -31.4274  -19.3578   20.3185 H   0  0  0  0  0  0
  -30.9284  -18.5454   21.7786 H   0  0  0  0  0  0
  -27.5278  -18.3840   21.2694 H   0  0  0  0  0  0
  -27.8951  -17.9891   19.6211 H   0  0  0  0  0  0
  -32.0098  -17.0432   20.0927 H   0  0  0  0  0  0
  -30.7649  -17.3526   18.9320 H   0  0  0  0  0  0
  -28.0349  -15.9054   20.8655 H   0  0  0  0  0  0
  -28.9763  -16.6005   22.1401 H   0  0  0  0  0  0
  -26.9090  -23.9168   23.0614 H   0  0  0  0  0  0
  -28.4292  -23.4920   23.8512 H   0  0  0  0  0  0
  -27.0847  -22.3591   23.7481 H   0  0  0  0  0  0
  -28.2094  -24.5709   18.3660 H   0  0  0  0  0  0
  -29.0867  -23.4168   17.4429 H   0  0  0  0  0  0
  -29.9618  -24.4894   18.5305 H   0  0  0  0  0  0
  -28.8768  -20.8456   23.9181 H   0  0  0  0  0  0
  -28.9445  -19.3774   23.0012 H   0  0  0  0  0  0
  -27.3884  -20.1378   23.2756 H   0  0  0  0  0  0
  -31.8965  -21.5708   18.5108 H   0  0  0  0  0  0
  -31.0562  -22.6042   17.3743 H   0  0  0  0  0  0
  -31.5762  -21.0172   16.8779 H   0  0  0  0  0  0
  -28.0223  -20.0001   17.4496 H   0  0  0  0  0  0
  -29.2308  -20.2608   16.2067 H   0  0  0  0  0  0
  -28.2616  -21.6028   16.7920 H   0  0  0  0  0  0
  -28.2571  -25.3501   21.9898 H   0  0  0  0  0  0
  -26.8273  -24.9881   21.0871 H   0  0  0  0  0  0
  -30.1823  -19.9101   18.3933 H   0  0  0  0  0  0
  1 25  1  0  0  0
  1 30  2  0  0  0
  1 89  1  0  0  0
  2  3  1  0  0  0
  2 25  1  0  0  0
  2 90  1  0  0  0
  2 91  1  0  0  0
  3  4  1  0  0  0
  3 92  1  0  0  0
  3 93  1  0  0  0
  4  5  1  0  0  0
  4 94  1  0  0  0
  4 95  1  0  0  0
  5  6  1  0  0  0
  5 26  1  0  0  0
  5 96  1  0  0  0
  6 25  1  0  0  0
  6 97  1  0  0  0
  6 98  1  0  0  0
  7  8  2  0  0  0
  7 26  1  0  0  0
  7 29  1  0  0  0
  8  9  1  0  0  0
  8 22  1  0  0  0
  9 10  1  0  0  0
  9 27  2  0  0  0
 10 11  2  0  0  0
 10 15  1  0  0  0
 11 12  1  0  0  0
 11 99  1  0  0  0
 12 13  2  0  0  0
 12100  1  0  0  0
 13 14  1  0  0  0
 13 31  1  0  0  0
 14 15  2  0  0  0
 14101  1  0  0  0
 15102  1  0  0  0
 16 17  2  0  0  0
 16 21  1  0  0  0
 16 31  1  0  0  0
 17 18  1  0  0  0
 17103  1  0  0  0
 18 19  2  0  0  0
 18104  1  0  0  0
 19 20  1  0  0  0
 19 24  1  0  0  0
 20 21  2  0  0  0
 20105  1  0  0  0
 21 23  1  0  0  0
 22 28  1  0  0  0
 22 32  2  0  0  0
 26 27  1  0  0  0
 28106  1  0  0  0
 28107  1  0  0  0
 29108  1  0  0  0
 29109  1  0  0  0
 33 34  1  0  0  0
 33 66  1  0  0  0
 33 70  2  0  0  0
 34 36  1  0  0  0
 34 59  1  0  0  0
 34110  1  0  0  0
 35 44  2  0  0  0
 35 45  1  0  0  0
 35 68  1  0  0  0
 36 56  1  0  0  0
 36111  1  0  0  0
 37 39  1  0  0  0
 37 47  1  0  0  0
 37 66  1  0  0  0
 37112  1  0  0  0
 38 43  2  0  0  0
 38 46  1  0  0  0
 38 47  1  0  0  0
 39 64  1  0  0  0
 39 67  2  0  0  0
 40 52  1  0  0  0
 40 53  2  0  0  0
 40 58  1  0  0  0
 41113  1  0  0  0
 41114  1  0  0  0
 41115  1  0  0  0
 41 48  1  0  0  0
 42 43  1  0  0  0
 42 66  1  0  0  0
 42116  1  0  0  0
 42117  1  0  0  0
 43 44  1  0  0  0
 44118  1  0  0  0
 45 46  2  0  0  0
 45119  1  0  0  0
 46120  1  0  0  0
 47121  1  0  0  0
 47122  1  0  0  0
 48 56  1  0  0  0
 48 65  1  0  0  0
 48123  1  0  0  0
 49 50  1  0  0  0
 49 53  1  0  0  0
 49 64  1  0  0  0
 49124  1  0  0  0
 50 51  1  0  0  0
 50125  1  0  0  0
 50126  1  0  0  0
 51 52  1  0  0  0
 51127  1  0  0  0
 51128  1  0  0  0
 52129  1  0  0  0
 52130  1  0  0  0
 53 54  1  0  0  0
 54 55  2  0  0  0
 54131  1  0  0  0
 55 57  1  0  0  0
 55132  1  0  0  0
 56 69  2  0  0  0
 57 58  2  0  0  0
 57133  1  0  0  0
 58134  1  0  0  0
 59 60  1  0  0  0
 59 61  1  0  0  0
 59 62  1  0  0  0
 60135  1  0  0  0
 60136  1  0  0  0
 60137  1  0  0  0
 61138  1  0  0  0
 61139  1  0  0  0
 61140  1  0  0  0
 62141  1  0  0  0
 62142  1  0  0  0
 62143  1  0  0  0
 63 65  1  0  0  0
 63144  1  0  0  0
 63145  1  0  0  0
 63146  1  0  0  0
 64147  1  0  0  0
 65148  1  0  0  0
 68 86  1  0  0  0
 71 73  2  0  0  0
 71 74  1  0  0  0
 71 81  1  0  0  0
 72 73  1  0  0  0
 72 75  2  0  0  0
 72 82  1  0  0  0
 73 86  1  0  0  0
 74 76  2  0  0  0
 74 83  1  0  0  0
 75 76  1  0  0  0
 75 87  1  0  0  0
 76 88  1  0  0  0
 77 79  1  0  0  0
 77 88  1  0  0  0
 77149  1  0  0  0
 77150  1  0  0  0
 78 80  1  0  0  0
 78 88  1  0  0  0
 78151  1  0  0  0
 78152  1  0  0  0
 79 89  1  0  0  0
 79153  1  0  0  0
 79154  1  0  0  0
 80 89  1  0  0  0
 80155  1  0  0  0
 80156  1  0  0  0
 81157  1  0  0  0
 81158  1  0  0  0
 81159  1  0  0  0
 82160  1  0  0  0
 82161  1  0  0  0
 82162  1  0  0  0
 83163  1  0  0  0
 83164  1  0  0  0
 83165  1  0  0  0
 84166  1  0  0  0
 84167  1  0  0  0
 84168  1  0  0  0
 84 87  1  0  0  0
 85 87  1  0  0  0
 85169  1  0  0  0
 85170  1  0  0  0
 85171  1  0  0  0
 86172  1  0  0  0
 86173  1  0  0  0
 87174  1  0  0  0
M  ISO  4   1 100  68 101  86 101  89 100
M  END
> <chiral flag>
0

> <version>
0

> <s_m_source_file>
/data/baiqing/PycharmProjects/Reinvent-master-3.2/result/LINK_invent/BTK/process_docking_weight1_custom_sum_contain_oxygen_bond_distance_aromatic_linkinvent_7_9_3/rearranged_h_0162.sdf

> <i_m_source_file_index>
64

> <r_mmod_Potential_Energy-OPLS-2005>
535.3798828125

> <r_mmod_Stretch_Energy-OPLS-2005>
150.05403137207

> <r_mmod_Bend_Energy-OPLS-2005>
246.864685058594

> <r_mmod_Torsional_Energy-OPLS-2005>
388.011474609375

> <r_mmod_Improper_Torsional_Energy-OPLS-2005>
11.4779977798462

> <r_mmod_Van_der_Waal_Energy-OPLS-2005>
179.062225341797

> <r_mmod_Electrostatic_Energy-OPLS-2005>
-350.957824707031

> <r_mmod_Solvation_Energy-OPLS-2005>
-195.647888183594

> <b_mmod_Minimization_Converged-OPLS-2005>
0

> <r_mmod_RMS_Derivative-OPLS-2005>
1.4993793964386

$$$$
65
                    3D
 Structure written by MMmdl.
179188  0  0  1  0            999 V2000
  -30.7876  -14.3387   20.6437 C   0  0  0  0  0  0
  -30.4049  -12.2515   19.4249 C   0  0  0  0  0  0
  -29.4861  -12.5135   18.2150 C   0  0  0  0  0  0
  -28.0170  -12.3573   18.6360 C   0  0  0  0  0  0
  -27.6710  -13.1992   19.8916 C   0  0  2  0  0  0
  -28.7034  -12.9610   21.0201 C   0  0  0  0  0  0
  -25.2663  -13.8164   20.5689 C   0  0  0  0  0  0
  -24.1862  -13.0458   20.9150 C   0  0  0  0  0  0
  -24.6419  -11.6926   20.8780 C   0  0  0  0  0  0
  -23.9088  -10.4313   21.0453 C   0  0  0  0  0  0
  -24.3645   -9.4204   21.9213 C   0  0  0  0  0  0
  -23.6304   -8.2232   22.0782 C   0  0  0  0  0  0
  -22.4278   -8.0302   21.3556 C   0  0  0  0  0  0
  -21.9933   -9.0280   20.4653 C   0  0  0  0  0  0
  -22.7293  -10.2147   20.3069 C   0  0  0  0  0  0
  -21.6842   -6.0754   22.5279 C   0  0  0  0  0  0
  -21.3989   -6.5664   23.8207 C   0  0  0  0  0  0
  -21.3651   -5.6822   24.9175 C   0  0  0  0  0  0
  -21.6031   -4.3083   24.7237 C   0  0  0  0  0  0
  -21.8814   -3.8178   23.4355 C   0  0  0  0  0  0
  -21.9195   -4.6991   22.3414 C   0  0  0  0  0  0
  -22.7898  -13.5265   21.1823 C   0  0  0  0  0  0
  -22.1680   -4.2186   21.0993 F   0  0  0  0  0  0
  -21.5608   -3.4543   25.7720 F   0  0  0  0  0  0
  -30.0560  -13.2069   20.4878 N   0  0  0  0  0  0
  -26.3081  -12.9302   20.3441 N   0  0  0  0  0  0
  -25.9344  -11.6464   20.5821 N   0  0  0  0  0  0
  -22.0562  -12.8227   22.0368 N   0  0  0  0  0  0
  -25.4502  -15.1842   20.4114 N   0  0  0  0  0  0
  -31.8212  -14.5557   20.0034 O   0  0  0  0  0  0
  -21.6646   -6.8907   21.4241 O   0  0  0  0  0  0
  -22.3598  -14.5632   20.6777 O   0  0  0  0  0  0
  -24.6095  -31.8760   23.2176 C   0  0  0  0  0  0
  -25.9030  -32.4846   23.8438 C   0  0  1  0  0  0
  -27.2230  -27.4915   20.0810 C   0  0  0  0  0  0
  -25.5953  -33.8654   24.2358 N   0  0  0  0  0  0
  -23.3882  -30.5047   21.5578 C   0  0  2  0  0  0
  -24.8301  -28.9824   20.1112 C   0  0  0  0  0  0
  -22.7377  -29.4706   22.5047 C   0  0  0  0  0  0
  -18.0232  -28.1383   22.8503 C   0  0  0  0  0  0
  -24.1478  -36.7292   23.2647 C   0  0  0  0  0  0
  -25.9116  -30.8569   21.3611 C   0  0  0  0  0  0
  -25.9837  -29.4949   20.7133 C   0  0  0  0  0  0
  -27.1791  -28.7511   20.7082 C   0  0  0  0  0  0
  -26.0479  -26.9756   19.4864 C   0  0  0  0  0  0
  -24.8535  -27.7186   19.4985 C   0  0  0  0  0  0
  -23.5897  -29.8439   20.1685 C   0  0  0  0  0  0
  -25.4105  -36.3115   24.0353 C   0  0  1  0  0  0
  -20.5838  -28.3641   23.1379 C   0  0  2  0  0  0
  -20.6745  -26.9389   22.5456 C   0  0  0  0  0  0
  -19.5737  -26.6385   21.5242 C   0  0  0  0  0  0
  -18.1883  -26.7945   22.1599 C   0  0  0  0  0  0
  -19.1485  -28.8822   23.2937 C   0  0  0  0  0  0
  -18.9419  -30.1441   23.8929 C   0  0  0  0  0  0
  -17.6426  -30.6592   24.0547 C   0  0  0  0  0  0
  -25.9046  -34.9494   23.5125 C   0  0  0  0  0  0
  -16.5307  -29.9093   23.6349 C   0  0  0  0  0  0
  -16.7216  -28.6508   23.0357 C   0  0  0  0  0  0
  -26.4476  -31.6596   25.0745 C   0  0  0  0  0  0
  -25.3783  -31.3681   26.1519 C   0  0  0  0  0  0
  -27.0260  -30.3040   24.6068 C   0  0  0  0  0  0
  -27.6101  -32.4279   25.7467 C   0  0  0  0  0  0
  -27.5585  -37.1774   24.8450 C   0  0  0  0  0  0
  -21.4108  -29.3017   22.3789 N   0  0  0  0  0  0
  -26.4255  -37.3827   23.9463 N   0  0  0  0  0  0
  -24.6537  -31.0952   22.1036 N   0  0  0  0  0  0
  -23.4202  -28.8267   23.3053 O   0  0  0  0  0  0
  -28.4180  -26.8198   20.0962 O   0  0  0  0  0  0
  -26.5568  -34.8942   22.4653 O   0  0  0  0  0  0
  -23.5312  -32.1493   23.7633 O   0  0  0  0  0  0
  -29.9482  -24.0104   20.0263 C   0  0  0  0  0  0
  -32.3717  -23.8625   20.0024 C   0  0  0  0  0  0
  -31.1239  -23.3301   20.3847 C   0  0  0  0  0  0
  -30.0100  -25.2306   19.3298 C   0  0  0  0  0  0
  -31.2634  -25.7914   18.9852 C   0  0  0  0  0  0
  -32.4526  -25.0790   19.2788 C   0  0  0  0  0  0
  -29.4898  -17.6708   21.6845 C   0  0  0  0  0  0
  -31.9278  -17.2279   21.5321 C   0  0  0  0  0  0
  -29.6682  -18.9938   20.9110 C   0  0  0  0  0  0
  -32.1489  -18.5300   20.7406 C   0  0  0  0  0  0
  -30.5383  -16.6954   21.1484 C   0  0  1  0  0  0
  -31.3364  -27.1566   18.3065 C   0  0  0  0  0  0
  -31.8809  -22.0246   22.4264 C   0  0  0  0  0  0
  -30.5599  -20.8496   18.8652 C   0  0  0  0  0  0
  -34.7104  -24.6762   18.6128 C   0  0  0  0  0  0
  -28.7019  -25.9301   19.0335 C   0  0  0  0  0  0
  -31.0191  -22.0131   21.1437 C   0  0  2  0  0  0
  -31.3013  -20.7961   20.2293 C   0  0  1  0  0  0
  -30.2815  -15.2838   21.4463 N   0  0  0  0  0  0
  -31.0695  -19.5318   20.9883 N   0  3  1  0  0  0
  -33.6508  -25.5983   18.8445 O   0  0  0  0  0  0
  -31.4538  -12.3107   19.1233 H   0  0  0  0  0  0
  -30.2666  -11.2333   19.7892 H   0  0  0  0  0  0
  -29.7185  -11.8261   17.3999 H   0  0  0  0  0  0
  -29.6528  -13.5204   17.8292 H   0  0  0  0  0  0
  -27.8475  -11.3013   18.8478 H   0  0  0  0  0  0
  -27.3527  -12.6106   17.8117 H   0  0  0  0  0  0
  -27.7297  -14.2506   19.6085 H   0  0  0  0  0  0
  -28.6341  -11.9319   21.3743 H   0  0  0  0  0  0
  -28.4650  -13.5789   21.8867 H   0  0  0  0  0  0
  -25.2804   -9.5633   22.4785 H   0  0  0  0  0  0
  -23.9999   -7.4604   22.7499 H   0  0  0  0  0  0
  -21.0859   -8.8823   19.8947 H   0  0  0  0  0  0
  -22.3807  -10.9688   19.6156 H   0  0  0  0  0  0
  -21.1967   -7.6176   23.9709 H   0  0  0  0  0  0
  -21.1454   -6.0566   25.9078 H   0  0  0  0  0  0
  -22.0598   -2.7648   23.2844 H   0  0  0  0  0  0
  -22.4166  -11.9826   22.4639 H   0  0  0  0  0  0
  -21.1198  -13.1249   22.2654 H   0  0  0  0  0  0
  -24.7016  -15.8628   20.5068 H   0  0  0  0  0  0
  -26.3274  -15.6059   20.1328 H   0  0  0  0  0  0
  -26.7134  -32.5572   23.1229 H   0  0  0  0  0  0
  -25.0137  -33.9834   25.0534 H   0  0  0  0  0  0
  -22.6697  -31.3184   21.4328 H   0  0  0  0  0  0
  -23.3786  -35.9562   23.3223 H   0  0  0  0  0  0
  -24.3619  -36.8976   22.2080 H   0  0  0  0  0  0
  -23.7138  -37.6443   23.6695 H   0  0  0  0  0  0
  -26.0243  -31.6186   20.5878 H   0  0  0  0  0  0
  -26.8010  -30.9082   21.9760 H   0  0  0  0  0  0
  -28.0689  -29.1528   21.1725 H   0  0  0  0  0  0
  -26.0204  -26.0036   19.0205 H   0  0  0  0  0  0
  -23.9639  -27.3215   19.0309 H   0  0  0  0  0  0
  -23.6896  -30.6241   19.4134 H   0  0  0  0  0  0
  -22.7128  -29.2610   19.8753 H   0  0  0  0  0  0
  -25.1272  -36.1934   25.0837 H   0  0  0  0  0  0
  -20.9913  -28.3164   24.1511 H   0  0  0  0  0  0
  -20.5669  -26.2230   23.3624 H   0  0  0  0  0  0
  -21.6601  -26.7478   22.1197 H   0  0  0  0  0  0
  -19.6888  -25.6295   21.1258 H   0  0  0  0  0  0
  -19.6743  -27.3217   20.6800 H   0  0  0  0  0  0
  -17.4217  -26.6777   21.3919 H   0  0  0  0  0  0
  -18.0205  -26.0057   22.8943 H   0  0  0  0  0  0
  -19.7905  -30.7232   24.2321 H   0  0  0  0  0  0
  -17.4986  -31.6293   24.5124 H   0  0  0  0  0  0
  -15.5302  -30.2988   23.7698 H   0  0  0  0  0  0
  -15.8609  -28.0837   22.7075 H   0  0  0  0  0  0
  -24.5960  -30.7014   25.7859 H   0  0  0  0  0  0
  -24.8965  -32.2825   26.5007 H   0  0  0  0  0  0
  -25.8166  -30.8833   27.0261 H   0  0  0  0  0  0
  -26.2732  -29.6808   24.1226 H   0  0  0  0  0  0
  -27.4147  -29.7269   25.4472 H   0  0  0  0  0  0
  -27.8538  -30.4334   23.9093 H   0  0  0  0  0  0
  -27.2790  -33.3634   26.1989 H   0  0  0  0  0  0
  -28.3933  -32.6736   25.0280 H   0  0  0  0  0  0
  -28.0746  -31.8431   26.5416 H   0  0  0  0  0  0
  -28.2530  -38.0147   24.7633 H   0  0  0  0  0  0
  -28.1145  -36.2695   24.6065 H   0  0  0  0  0  0
  -27.2373  -37.1152   25.8864 H   0  0  0  0  0  0
  -20.9247  -29.8711   21.7009 H   0  0  0  0  0  0
  -26.0129  -38.2877   24.1560 H   0  0  0  0  0  0
  -28.9846  -23.6021   20.2940 H   0  0  0  0  0  0
  -33.2684  -23.3256   20.2706 H   0  0  0  0  0  0
  -28.4837  -17.2809   21.5259 H   0  0  0  0  0  0
  -29.5960  -17.8334   22.7591 H   0  0  0  0  0  0
  -32.0091  -17.4070   22.6065 H   0  0  0  0  0  0
  -32.7253  -16.5283   21.2819 H   0  0  0  0  0  0
  -28.9546  -19.7378   21.2677 H   0  0  0  0  0  0
  -29.3960  -18.7943   19.8748 H   0  0  0  0  0  0
  -32.1967  -18.3082   19.6720 H   0  0  0  0  0  0
  -33.1175  -18.9549   21.0129 H   0  0  0  0  0  0
  -30.4600  -16.7517   20.0583 H   0  0  0  0  0  0
  -30.6370  -27.8555   18.7673 H   0  0  0  0  0  0
  -31.0907  -27.0800   17.2474 H   0  0  0  0  0  0
  -32.3246  -27.6072   18.3947 H   0  0  0  0  0  0
  -31.5917  -22.8518   23.0764 H   0  0  0  0  0  0
  -32.9457  -22.1320   22.2169 H   0  0  0  0  0  0
  -31.7593  -21.1153   23.0146 H   0  0  0  0  0  0
  -30.9076  -21.6837   18.2563 H   0  0  0  0  0  0
  -29.4830  -20.9767   18.9847 H   0  0  0  0  0  0
  -30.7259  -19.9484   18.2730 H   0  0  0  0  0  0
  -35.4033  -25.1050   17.8902 H   0  0  0  0  0  0
  -34.3523  -23.7340   18.1933 H   0  0  0  0  0  0
  -35.2644  -24.4708   19.5287 H   0  0  0  0  0  0
  -27.9362  -25.1643   18.9231 H   0  0  0  0  0  0
  -28.7475  -26.4699   18.0852 H   0  0  0  0  0  0
  -29.9859  -21.9309   21.4790 H   0  0  0  0  0  0
  -32.3629  -20.8463   19.9795 H   0  0  0  0  0  0
  -29.4870  -15.0464   22.0218 H   0  0  0  0  0  0
  -31.2040  -19.8007   21.9538 H   0  0  0  0  0  0
  1 25  1  0  0  0
  1 30  2  0  0  0
  1 89  1  0  0  0
  2  3  1  0  0  0
  2 25  1  0  0  0
  2 92  1  0  0  0
  2 93  1  0  0  0
  3  4  1  0  0  0
  3 94  1  0  0  0
  3 95  1  0  0  0
  4  5  1  0  0  0
  4 96  1  0  0  0
  4 97  1  0  0  0
  5  6  1  0  0  0
  5 26  1  0  0  0
  5 98  1  0  0  0
  6 25  1  0  0  0
  6 99  1  0  0  0
  6100  1  0  0  0
  7  8  2  0  0  0
  7 26  1  0  0  0
  7 29  1  0  0  0
  8  9  1  0  0  0
  8 22  1  0  0  0
  9 10  1  0  0  0
  9 27  2  0  0  0
 10 11  2  0  0  0
 10 15  1  0  0  0
 11 12  1  0  0  0
 11101  1  0  0  0
 12 13  2  0  0  0
 12102  1  0  0  0
 13 14  1  0  0  0
 13 31  1  0  0  0
 14 15  2  0  0  0
 14103  1  0  0  0
 15104  1  0  0  0
 16 17  2  0  0  0
 16 21  1  0  0  0
 16 31  1  0  0  0
 17 18  1  0  0  0
 17105  1  0  0  0
 18 19  2  0  0  0
 18106  1  0  0  0
 19 20  1  0  0  0
 19 24  1  0  0  0
 20 21  2  0  0  0
 20107  1  0  0  0
 21 23  1  0  0  0
 22 28  1  0  0  0
 22 32  2  0  0  0
 26 27  1  0  0  0
 28108  1  0  0  0
 28109  1  0  0  0
 29110  1  0  0  0
 29111  1  0  0  0
 33 34  1  0  0  0
 33 66  1  0  0  0
 33 70  2  0  0  0
 34 36  1  0  0  0
 34 59  1  0  0  0
 34112  1  0  0  0
 35 44  2  0  0  0
 35 45  1  0  0  0
 35 68  1  0  0  0
 36 56  1  0  0  0
 36113  1  0  0  0
 37 39  1  0  0  0
 37 47  1  0  0  0
 37 66  1  0  0  0
 37114  1  0  0  0
 38 43  2  0  0  0
 38 46  1  0  0  0
 38 47  1  0  0  0
 39 64  1  0  0  0
 39 67  2  0  0  0
 40 52  1  0  0  0
 40 53  2  0  0  0
 40 58  1  0  0  0
 41115  1  0  0  0
 41116  1  0  0  0
 41117  1  0  0  0
 41 48  1  0  0  0
 42 43  1  0  0  0
 42 66  1  0  0  0
 42118  1  0  0  0
 42119  1  0  0  0
 43 44  1  0  0  0
 44120  1  0  0  0
 45 46  2  0  0  0
 45121  1  0  0  0
 46122  1  0  0  0
 47123  1  0  0  0
 47124  1  0  0  0
 48 56  1  0  0  0
 48 65  1  0  0  0
 48125  1  0  0  0
 49 50  1  0  0  0
 49 53  1  0  0  0
 49 64  1  0  0  0
 49126  1  0  0  0
 50 51  1  0  0  0
 50127  1  0  0  0
 50128  1  0  0  0
 51 52  1  0  0  0
 51129  1  0  0  0
 51130  1  0  0  0
 52131  1  0  0  0
 52132  1  0  0  0
 53 54  1  0  0  0
 54 55  2  0  0  0
 54133  1  0  0  0
 55 57  1  0  0  0
 55134  1  0  0  0
 56 69  2  0  0  0
 57 58  2  0  0  0
 57135  1  0  0  0
 58136  1  0  0  0
 59 60  1  0  0  0
 59 61  1  0  0  0
 59 62  1  0  0  0
 60137  1  0  0  0
 60138  1  0  0  0
 60139  1  0  0  0
 61140  1  0  0  0
 61141  1  0  0  0
 61142  1  0  0  0
 62143  1  0  0  0
 62144  1  0  0  0
 62145  1  0  0  0
 63 65  1  0  0  0
 63146  1  0  0  0
 63147  1  0  0  0
 63148  1  0  0  0
 64149  1  0  0  0
 65150  1  0  0  0
 68 86  1  0  0  0
 71 73  2  0  0  0
 71 74  1  0  0  0
 71151  1  0  0  0
 72 73  1  0  0  0
 72 76  2  0  0  0
 72152  1  0  0  0
 73 87  1  0  0  0
 74 75  2  0  0  0
 74 86  1  0  0  0
 75 76  1  0  0  0
 75 82  1  0  0  0
 76 91  1  0  0  0
 77 79  1  0  0  0
 77 81  1  0  0  0
 77153  1  0  0  0
 77154  1  0  0  0
 78 80  1  0  0  0
 78 81  1  0  0  0
 78155  1  0  0  0
 78156  1  0  0  0
 79157  1  0  0  0
 79158  1  0  0  0
 79 90  1  0  0  0
 80 90  1  0  0  0
 80159  1  0  0  0
 80160  1  0  0  0
 81 89  1  0  0  0
 81161  1  0  0  0
 82162  1  0  0  0
 82163  1  0  0  0
 82164  1  0  0  0
 83165  1  0  0  0
 83166  1  0  0  0
 83167  1  0  0  0
 83 87  1  0  0  0
 84168  1  0  0  0
 84169  1  0  0  0
 84170  1  0  0  0
 84 88  1  0  0  0
 85 91  1  0  0  0
 85171  1  0  0  0
 85172  1  0  0  0
 85173  1  0  0  0
 86174  1  0  0  0
 86175  1  0  0  0
 87 88  1  0  0  0
 87176  1  0  0  0
 88 90  1  0  0  0
 88177  1  0  0  0
 89178  1  0  0  0
 90179  1  0  0  0
M  CHG  1  90   1
M  ISO  4   1 100  68 101  86 101  89 100
M  END
> <chiral flag>
0

> <version>
0

> <s_m_source_file>
/data/baiqing/PycharmProjects/Reinvent-master-3.2/result/LINK_invent/BTK/process_docking_weight1_custom_sum_contain_oxygen_bond_distance_aromatic_linkinvent_7_9_3/rearranged_h_0162.sdf

> <i_m_source_file_index>
65

> <r_mmod_Potential_Energy-OPLS-2005>
-68.3592834472656

> <r_mmod_Stretch_Energy-OPLS-2005>
36.492733001709

> <r_mmod_Bend_Energy-OPLS-2005>
121.793144226074

> <r_mmod_Torsional_Energy-OPLS-2005>
267.744476318359

> <r_mmod_Improper_Torsional_Energy-OPLS-2005>
4.03032922744751

> <r_mmod_Van_der_Waal_Energy-OPLS-2005>
186.460266113281

> <r_mmod_Electrostatic_Energy-OPLS-2005>
-250.734329223633

> <r_mmod_Solvation_Energy-OPLS-2005>
-444.616516113281

> <b_mmod_Minimization_Converged-OPLS-2005>
0

> <r_mmod_RMS_Derivative-OPLS-2005>
4.94546365737915

$$$$
66
                    3D
 Structure written by MMmdl.
171180  0  0  1  0            999 V2000
  -30.6429  -14.7074   20.5552 C   0  0  0  0  0  0
  -30.4334  -12.4474   19.4880 C   0  0  0  0  0  0
  -29.5165  -12.5234   18.2464 C   0  0  0  0  0  0
  -28.0407  -12.3408   18.6460 C   0  0  0  0  0  0
  -27.6458  -13.2284   19.8525 C   0  0  2  0  0  0
  -28.6775  -13.1382   20.9922 C   0  0  0  0  0  0
  -25.2535  -13.8195   20.5694 C   0  0  0  0  0  0
  -24.1809  -13.0436   20.9187 C   0  0  0  0  0  0
  -24.6399  -11.6912   20.8727 C   0  0  0  0  0  0
  -23.9078  -10.4285   21.0405 C   0  0  0  0  0  0
  -24.3626   -9.4198   21.9183 C   0  0  0  0  0  0
  -23.6297   -8.2237   22.0766 C   0  0  0  0  0  0
  -22.4278   -8.0276   21.3563 C   0  0  0  0  0  0
  -21.9914   -9.0248   20.4661 C   0  0  0  0  0  0
  -22.7248  -10.2120   20.3062 C   0  0  0  0  0  0
  -21.6855   -6.0728   22.5283 C   0  0  0  0  0  0
  -21.4022   -6.5638   23.8215 C   0  0  0  0  0  0
  -21.3659   -5.6791   24.9181 C   0  0  0  0  0  0
  -21.6041   -4.3056   24.7233 C   0  0  0  0  0  0
  -21.8819   -3.8147   23.4354 C   0  0  0  0  0  0
  -21.9201   -4.6957   22.3407 C   0  0  0  0  0  0
  -22.7835  -13.5220   21.1867 C   0  0  0  0  0  0
  -22.1669   -4.2141   21.0986 F   0  0  0  0  0  0
  -21.5622   -3.4543   25.7748 F   0  0  0  0  0  0
  -29.9993  -13.4894   20.4526 N   0  0  0  0  0  0
  -26.2948  -12.9387   20.3256 N   0  0  0  0  0  0
  -25.9329  -11.6532   20.5727 N   0  0  0  0  0  0
  -22.0488  -12.8203   22.0422 N   0  0  0  0  0  0
  -25.4278  -15.1914   20.4177 N   0  0  0  0  0  0
  -31.7578  -14.8469   20.0425 O   0  0  0  0  0  0
  -21.6645   -6.8869   21.4248 O   0  0  0  0  0  0
  -22.3513  -14.5529   20.6732 O   0  0  0  0  0  0
  -24.6284  -31.8562   23.1974 C   0  0  0  0  0  0
  -25.9119  -32.4757   23.8317 C   0  0  1  0  0  0
  -27.2242  -27.2824   20.1453 C   0  0  0  0  0  0
  -25.5920  -33.8556   24.2245 N   0  0  0  0  0  0
  -23.4236  -30.4761   21.5405 C   0  0  2  0  0  0
  -24.8728  -28.9170   20.1174 C   0  0  0  0  0  0
  -22.7490  -29.4599   22.4923 C   0  0  0  0  0  0
  -18.0288  -28.1387   22.8480 C   0  0  0  0  0  0
  -24.1485  -36.7289   23.2636 C   0  0  0  0  0  0
  -25.9649  -30.7793   21.3689 C   0  0  0  0  0  0
  -26.0424  -29.3990   20.7206 C   0  0  0  0  0  0
  -27.2252  -28.5961   20.7163 C   0  0  0  0  0  0
  -26.0338  -26.8498   19.5275 C   0  0  0  0  0  0
  -24.8723  -27.6501   19.5091 C   0  0  0  0  0  0
  -23.6413  -29.8019   20.1594 C   0  0  0  0  0  0
  -25.4112  -36.3068   24.0317 C   0  0  1  0  0  0
  -20.5892  -28.3688   23.1277 C   0  0  2  0  0  0
  -20.6774  -26.9405   22.5410 C   0  0  0  0  0  0
  -19.5752  -26.6377   21.5211 C   0  0  0  0  0  0
  -18.1933  -26.7929   22.1623 C   0  0  0  0  0  0
  -19.1544  -28.8855   23.2869 C   0  0  0  0  0  0
  -18.9467  -30.1458   23.8883 C   0  0  0  0  0  0
  -17.6467  -30.6585   24.0560 C   0  0  0  0  0  0
  -25.9051  -34.9437   23.5084 C   0  0  0  0  0  0
  -16.5356  -29.9084   23.6327 C   0  0  0  0  0  0
  -16.7277  -28.6508   23.0342 C   0  0  0  0  0  0
  -26.4504  -31.6579   25.0697 C   0  0  0  0  0  0
  -25.3733  -31.3729   26.1424 C   0  0  0  0  0  0
  -27.0344  -30.2996   24.6155 C   0  0  0  0  0  0
  -27.6053  -32.4327   25.7475 C   0  0  0  0  0  0
  -27.5575  -37.1792   24.8463 C   0  0  0  0  0  0
  -21.4198  -29.3040   22.3672 N   0  0  0  0  0  0
  -26.4286  -37.3767   23.9409 N   0  0  0  0  0  0
  -24.6918  -31.0549   22.0933 N   0  0  0  0  0  0
  -23.4198  -28.8139   23.3011 O   0  0  0  0  0  0
  -28.3423  -26.4321   20.1079 O   0  0  0  0  0  0
  -26.5627  -34.8917   22.4652 O   0  0  0  0  0  0
  -23.5443  -32.1370   23.7294 O   0  0  0  0  0  0
  -29.8692  -17.2570   20.5762 C   0  0  0  0  0  0
  -29.0817  -17.0855   23.2102 C   0  0  0  0  0  0
  -30.0147  -15.9656   21.2412 C   0  0  0  0  0  0
  -29.3241  -18.4716   21.1805 C   0  0  0  0  0  0
  -29.6863  -15.9570   22.6245 C   0  0  0  0  0  0
  -28.8527  -18.2959   22.5182 C   0  0  0  0  0  0
  -30.5382  -22.4669   19.6047 C   0  0  0  0  0  0
  -28.9970  -21.2767   21.1568 C   0  0  0  0  0  0
  -30.4538  -21.1940   18.7488 C   0  0  0  0  0  0
  -29.1981  -19.8651   20.3641 C   0  0  2  0  0  0
  -29.9865  -14.7900   23.5627 C   0  0  0  0  0  0
  -28.0703  -19.3449   23.2926 C   0  0  0  0  0  0
  -27.9925  -19.6718   19.4257 C   0  0  0  0  0  0
  -29.5307  -25.2683   21.8095 C   0  0  0  0  0  0
  -28.3448  -23.6950   20.0911 C   0  0  0  0  0  0
  -28.3389  -25.1345   20.8514 C   0  0  2  0  0  0
  -29.3754  -22.6215   20.5131 N   0  3  2  0  0  0
  -30.3804  -20.0214   19.5692 O   0  0  0  0  0  0
  -31.4763  -12.5655   19.1889 H   0  0  0  0  0  0
  -30.3739  -11.4606   19.9493 H   0  0  0  0  0  0
  -29.8025  -11.7636   17.5174 H   0  0  0  0  0  0
  -29.6467  -13.4882   17.7538 H   0  0  0  0  0  0
  -27.8915  -11.2896   18.8957 H   0  0  0  0  0  0
  -27.3906  -12.5498   17.7960 H   0  0  0  0  0  0
  -27.6521  -14.2572   19.4911 H   0  0  0  0  0  0
  -28.6975  -12.1402   21.4322 H   0  0  0  0  0  0
  -28.3607  -13.8129   21.7808 H   0  0  0  0  0  0
  -25.2771   -9.5664   22.4758 H   0  0  0  0  0  0
  -24.0005   -7.4626   22.7483 H   0  0  0  0  0  0
  -21.0852   -8.8766   19.8960 H   0  0  0  0  0  0
  -22.3718  -10.9659   19.6170 H   0  0  0  0  0  0
  -21.2021   -7.6146   23.9719 H   0  0  0  0  0  0
  -21.1487   -6.0527   25.9081 H   0  0  0  0  0  0
  -22.0603   -2.7611   23.2867 H   0  0  0  0  0  0
  -22.4112  -11.9854   22.4784 H   0  0  0  0  0  0
  -21.1117  -13.1243   22.2658 H   0  0  0  0  0  0
  -24.6776  -15.8575   20.5645 H   0  0  0  0  0  0
  -26.3046  -15.6316   20.1670 H   0  0  0  0  0  0
  -26.7178  -32.5425   23.1060 H   0  0  0  0  0  0
  -25.0061  -33.9689   25.0387 H   0  0  0  0  0  0
  -22.7177  -31.2961   21.3907 H   0  0  0  0  0  0
  -23.3741  -35.9624   23.3295 H   0  0  0  0  0  0
  -24.3577  -36.8927   22.2053 H   0  0  0  0  0  0
  -23.7248  -37.6486   23.6678 H   0  0  0  0  0  0
  -26.0900  -31.5356   20.5934 H   0  0  0  0  0  0
  -26.8475  -30.8398   21.9939 H   0  0  0  0  0  0
  -28.1311  -28.9682   21.1757 H   0  0  0  0  0  0
  -25.9991  -25.8763   19.0587 H   0  0  0  0  0  0
  -23.9758  -27.2774   19.0322 H   0  0  0  0  0  0
  -23.7608  -30.5722   19.3972 H   0  0  0  0  0  0
  -22.7615  -29.2301   19.8596 H   0  0  0  0  0  0
  -25.1294  -36.1904   25.0808 H   0  0  0  0  0  0
  -20.9981  -28.3269   24.1399 H   0  0  0  0  0  0
  -20.5677  -26.2297   23.3610 H   0  0  0  0  0  0
  -21.6642  -26.7429   22.1204 H   0  0  0  0  0  0
  -19.6910  -25.6285   21.1245 H   0  0  0  0  0  0
  -19.6694  -27.3182   20.6734 H   0  0  0  0  0  0
  -17.4200  -26.6669   21.4027 H   0  0  0  0  0  0
  -18.0334  -26.0073   22.9021 H   0  0  0  0  0  0
  -19.7946  -30.7274   24.2250 H   0  0  0  0  0  0
  -17.5026  -31.6268   24.5164 H   0  0  0  0  0  0
  -15.5364  -30.2984   23.7663 H   0  0  0  0  0  0
  -15.8676  -28.0833   22.7051 H   0  0  0  0  0  0
  -24.5912  -30.7068   25.7767 H   0  0  0  0  0  0
  -24.8914  -32.2897   26.4825 H   0  0  0  0  0  0
  -25.8055  -30.8934   27.0214 H   0  0  0  0  0  0
  -26.2913  -29.6737   24.1197 H   0  0  0  0  0  0
  -27.4064  -29.7263   25.4657 H   0  0  0  0  0  0
  -27.8774  -30.4276   23.9359 H   0  0  0  0  0  0
  -27.2657  -33.3644   26.2011 H   0  0  0  0  0  0
  -28.3886  -32.6864   25.0321 H   0  0  0  0  0  0
  -28.0691  -31.8478   26.5426 H   0  0  0  0  0  0
  -28.2586  -38.0097   24.7507 H   0  0  0  0  0  0
  -28.1080  -36.2621   24.6293 H   0  0  0  0  0  0
  -27.2292  -37.1448   25.8869 H   0  0  0  0  0  0
  -20.9386  -29.8767   21.6880 H   0  0  0  0  0  0
  -26.0158  -38.2834   24.1429 H   0  0  0  0  0  0
  -30.1904  -17.3183   19.5464 H   0  0  0  0  0  0
  -28.7849  -17.0137   24.2485 H   0  0  0  0  0  0
  -30.6652  -23.3442   18.9693 H   0  0  0  0  0  0
  -31.4400  -22.4094   20.2150 H   0  0  0  0  0  0
  -29.6818  -21.2352   22.0026 H   0  0  0  0  0  0
  -27.9962  -21.3737   21.5704 H   0  0  0  0  0  0
  -31.3590  -21.1160   18.1461 H   0  0  0  0  0  0
  -29.6320  -21.2513   18.0367 H   0  0  0  0  0  0
  -29.0626  -14.3198   23.8998 H   0  0  0  0  0  0
  -30.5018  -15.1530   24.4526 H   0  0  0  0  0  0
  -30.6234  -14.0194   23.1324 H   0  0  0  0  0  0
  -27.6470  -18.9298   24.2077 H   0  0  0  0  0  0
  -27.2208  -19.7026   22.7125 H   0  0  0  0  0  0
  -28.7023  -20.1734   23.6055 H   0  0  0  0  0  0
  -27.1135  -19.3665   19.9942 H   0  0  0  0  0  0
  -28.1919  -18.8931   18.6890 H   0  0  0  0  0  0
  -27.7195  -20.5814   18.8925 H   0  0  0  0  0  0
  -29.5554  -24.4656   22.5456 H   0  0  0  0  0  0
  -29.4741  -26.2058   22.3637 H   0  0  0  0  0  0
  -30.4756  -25.2693   21.2657 H   0  0  0  0  0  0
  -28.4491  -23.8818   19.0222 H   0  0  0  0  0  0
  -27.3494  -23.2606   20.1905 H   0  0  0  0  0  0
  -27.4502  -25.1367   21.4867 H   0  0  0  0  0  0
  -29.7871  -23.1022   21.3020 H   0  0  0  0  0  0
  1 25  1  0  0  0
  1 30  2  0  0  0
  1 73  1  0  0  0
  2  3  1  0  0  0
  2 25  1  0  0  0
  2 89  1  0  0  0
  2 90  1  0  0  0
  3  4  1  0  0  0
  3 91  1  0  0  0
  3 92  1  0  0  0
  4  5  1  0  0  0
  4 93  1  0  0  0
  4 94  1  0  0  0
  5  6  1  0  0  0
  5 26  1  0  0  0
  5 95  1  0  0  0
  6 25  1  0  0  0
  6 96  1  0  0  0
  6 97  1  0  0  0
  7  8  2  0  0  0
  7 26  1  0  0  0
  7 29  1  0  0  0
  8  9  1  0  0  0
  8 22  1  0  0  0
  9 10  1  0  0  0
  9 27  2  0  0  0
 10 11  2  0  0  0
 10 15  1  0  0  0
 11 12  1  0  0  0
 11 98  1  0  0  0
 12 13  2  0  0  0
 12 99  1  0  0  0
 13 14  1  0  0  0
 13 31  1  0  0  0
 14 15  2  0  0  0
 14100  1  0  0  0
 15101  1  0  0  0
 16 17  2  0  0  0
 16 21  1  0  0  0
 16 31  1  0  0  0
 17 18  1  0  0  0
 17102  1  0  0  0
 18 19  2  0  0  0
 18103  1  0  0  0
 19 20  1  0  0  0
 19 24  1  0  0  0
 20 21  2  0  0  0
 20104  1  0  0  0
 21 23  1  0  0  0
 22 28  1  0  0  0
 22 32  2  0  0  0
 26 27  1  0  0  0
 28105  1  0  0  0
 28106  1  0  0  0
 29107  1  0  0  0
 29108  1  0  0  0
 33 34  1  0  0  0
 33 66  1  0  0  0
 33 70  2  0  0  0
 34 36  1  0  0  0
 34 59  1  0  0  0
 34109  1  0  0  0
 35 44  2  0  0  0
 35 45  1  0  0  0
 35 68  1  0  0  0
 36 56  1  0  0  0
 36110  1  0  0  0
 37 39  1  0  0  0
 37 47  1  0  0  0
 37 66  1  0  0  0
 37111  1  0  0  0
 38 43  2  0  0  0
 38 46  1  0  0  0
 38 47  1  0  0  0
 39 64  1  0  0  0
 39 67  2  0  0  0
 40 52  1  0  0  0
 40 53  2  0  0  0
 40 58  1  0  0  0
 41112  1  0  0  0
 41113  1  0  0  0
 41114  1  0  0  0
 41 48  1  0  0  0
 42 43  1  0  0  0
 42 66  1  0  0  0
 42115  1  0  0  0
 42116  1  0  0  0
 43 44  1  0  0  0
 44117  1  0  0  0
 45 46  2  0  0  0
 45118  1  0  0  0
 46119  1  0  0  0
 47120  1  0  0  0
 47121  1  0  0  0
 48 56  1  0  0  0
 48 65  1  0  0  0
 48122  1  0  0  0
 49 50  1  0  0  0
 49 53  1  0  0  0
 49 64  1  0  0  0
 49123  1  0  0  0
 50 51  1  0  0  0
 50124  1  0  0  0
 50125  1  0  0  0
 51 52  1  0  0  0
 51126  1  0  0  0
 51127  1  0  0  0
 52128  1  0  0  0
 52129  1  0  0  0
 53 54  1  0  0  0
 54 55  2  0  0  0
 54130  1  0  0  0
 55 57  1  0  0  0
 55131  1  0  0  0
 56 69  2  0  0  0
 57 58  2  0  0  0
 57132  1  0  0  0
 58133  1  0  0  0
 59 60  1  0  0  0
 59 61  1  0  0  0
 59 62  1  0  0  0
 60134  1  0  0  0
 60135  1  0  0  0
 60136  1  0  0  0
 61137  1  0  0  0
 61138  1  0  0  0
 61139  1  0  0  0
 62140  1  0  0  0
 62141  1  0  0  0
 62142  1  0  0  0
 63 65  1  0  0  0
 63143  1  0  0  0
 63144  1  0  0  0
 63145  1  0  0  0
 64146  1  0  0  0
 65147  1  0  0  0
 68 86  1  0  0  0
 71 73  2  0  0  0
 71 74  1  0  0  0
 71148  1  0  0  0
 72 75  2  0  0  0
 72 76  1  0  0  0
 72149  1  0  0  0
 73 75  1  0  0  0
 74 76  2  0  0  0
 74 80  1  0  0  0
 75 81  1  0  0  0
 76 82  1  0  0  0
 77 79  1  0  0  0
 77 87  1  0  0  0
 77150  1  0  0  0
 77151  1  0  0  0
 78 80  1  0  0  0
 78 87  1  0  0  0
 78152  1  0  0  0
 78153  1  0  0  0
 79 88  1  0  0  0
 79154  1  0  0  0
 79155  1  0  0  0
 80 83  1  0  0  0
 80 88  1  0  0  0
 81156  1  0  0  0
 81157  1  0  0  0
 81158  1  0  0  0
 82159  1  0  0  0
 82160  1  0  0  0
 82161  1  0  0  0
 83162  1  0  0  0
 83163  1  0  0  0
 83164  1  0  0  0
 84165  1  0  0  0
 84166  1  0  0  0
 84167  1  0  0  0
 84 86  1  0  0  0
 85 86  1  0  0  0
 85168  1  0  0  0
 85169  1  0  0  0
 85 87  1  0  0  0
 86170  1  0  0  0
 87171  1  0  0  0
M  CHG  1  87   1
M  ISO  4   1 100  68 101  73 100  86 101
M  END
> <chiral flag>
0

> <version>
0

> <s_m_source_file>
/data/baiqing/PycharmProjects/Reinvent-master-3.2/result/LINK_invent/BTK/process_docking_weight1_custom_sum_contain_oxygen_bond_distance_aromatic_linkinvent_7_9_3/rearranged_h_0162.sdf

> <i_m_source_file_index>
66

> <r_mmod_Potential_Energy-OPLS-2005>
341.679382324219

> <r_mmod_Stretch_Energy-OPLS-2005>
134.788116455078

> <r_mmod_Bend_Energy-OPLS-2005>
204.569931030273

> <r_mmod_Torsional_Energy-OPLS-2005>
309.296539306641

> <r_mmod_Improper_Torsional_Energy-OPLS-2005>
2.53860020637512

> <r_mmod_Van_der_Waal_Energy-OPLS-2005>
145.933929443359

> <r_mmod_Electrostatic_Energy-OPLS-2005>
-148.707748413086

> <r_mmod_Solvation_Energy-OPLS-2005>
-372.412414550781

> <b_mmod_Minimization_Converged-OPLS-2005>
0

> <r_mmod_RMS_Derivative-OPLS-2005>
1.64129602909088

$$$$
67
                    3D
 Structure written by MMmdl.
168178  0  0  1  0            999 V2000
  -30.7372  -14.4263   20.6070 C   0  0  0  0  0  0
  -30.4152  -12.2934   19.4113 C   0  0  0  0  0  0
  -29.4850  -12.5225   18.2031 C   0  0  0  0  0  0
  -28.0038  -12.4027   18.6129 C   0  0  0  0  0  0
  -27.6638  -13.2152   19.8929 C   0  0  2  0  0  0
  -28.7112  -12.9626   21.0002 C   0  0  0  0  0  0
  -25.2568  -13.8177   20.5761 C   0  0  0  0  0  0
  -24.1829  -13.0444   20.9226 C   0  0  0  0  0  0
  -24.6388  -11.6913   20.8752 C   0  0  0  0  0  0
  -23.9057  -10.4298   21.0396 C   0  0  0  0  0  0
  -24.3602   -9.4208   21.9179 C   0  0  0  0  0  0
  -23.6293   -8.2243   22.0757 C   0  0  0  0  0  0
  -22.4278   -8.0275   21.3554 C   0  0  0  0  0  0
  -21.9927   -9.0234   20.4646 C   0  0  0  0  0  0
  -22.7239  -10.2123   20.3051 C   0  0  0  0  0  0
  -21.6847   -6.0732   22.5283 C   0  0  0  0  0  0
  -21.3992   -6.5634   23.8210 C   0  0  0  0  0  0
  -21.3670   -5.6797   24.9177 C   0  0  0  0  0  0
  -21.6064   -4.3055   24.7227 C   0  0  0  0  0  0
  -21.8808   -3.8150   23.4346 C   0  0  0  0  0  0
  -21.9190   -4.6970   22.3404 C   0  0  0  0  0  0
  -22.7846  -13.5213   21.1886 C   0  0  0  0  0  0
  -22.1657   -4.2143   21.0978 F   0  0  0  0  0  0
  -21.5667   -3.4544   25.7738 F   0  0  0  0  0  0
  -30.0418  -13.2687   20.4447 N   0  0  0  0  0  0
  -26.3030  -12.9377   20.3496 N   0  0  0  0  0  0
  -25.9329  -11.6514   20.5840 N   0  0  0  0  0  0
  -22.0491  -12.8173   22.0412 N   0  0  0  0  0  0
  -25.4276  -15.1906   20.4155 N   0  0  0  0  0  0
  -31.8274  -14.6434   20.0716 O   0  0  0  0  0  0
  -21.6652   -6.8877   21.4242 O   0  0  0  0  0  0
  -22.3533  -14.5545   20.6777 O   0  0  0  0  0  0
  -24.6144  -31.8666   23.2068 C   0  0  0  0  0  0
  -25.9037  -32.4828   23.8385 C   0  0  1  0  0  0
  -27.2393  -27.4165   20.1034 C   0  0  0  0  0  0
  -25.5904  -33.8633   24.2325 N   0  0  0  0  0  0
  -23.4050  -30.4863   21.5491 C   0  0  2  0  0  0
  -24.8526  -28.9523   20.1127 C   0  0  0  0  0  0
  -22.7421  -29.4645   22.5006 C   0  0  0  0  0  0
  -18.0262  -28.1361   22.8495 C   0  0  0  0  0  0
  -24.1478  -36.7301   23.2619 C   0  0  0  0  0  0
  -25.9350  -30.8268   21.3634 C   0  0  0  0  0  0
  -26.0128  -29.4604   20.7091 C   0  0  0  0  0  0
  -27.2084  -28.7020   20.6956 C   0  0  0  0  0  0
  -26.0612  -26.9337   19.4872 C   0  0  0  0  0  0
  -24.8739  -27.6903   19.4940 C   0  0  0  0  0  0
  -23.6142  -29.8183   20.1643 C   0  0  0  0  0  0
  -25.4105  -36.3123   24.0334 C   0  0  1  0  0  0
  -20.5851  -28.3652   23.1329 C   0  0  2  0  0  0
  -20.6761  -26.9394   22.5424 C   0  0  0  0  0  0
  -19.5741  -26.6376   21.5226 C   0  0  0  0  0  0
  -18.1911  -26.7915   22.1619 C   0  0  0  0  0  0
  -19.1510  -28.8833   23.2895 C   0  0  0  0  0  0
  -18.9448  -30.1452   23.8887 C   0  0  0  0  0  0
  -17.6446  -30.6580   24.0567 C   0  0  0  0  0  0
  -25.9062  -34.9488   23.5131 C   0  0  0  0  0  0
  -16.5334  -29.9076   23.6339 C   0  0  0  0  0  0
  -16.7255  -28.6490   23.0360 C   0  0  0  0  0  0
  -26.4459  -31.6598   25.0712 C   0  0  0  0  0  0
  -25.3736  -31.3637   26.1456 C   0  0  0  0  0  0
  -27.0311  -30.3060   24.6085 C   0  0  0  0  0  0
  -27.6041  -32.4296   25.7499 C   0  0  0  0  0  0
  -27.5623  -37.1747   24.8416 C   0  0  0  0  0  0
  -21.4148  -29.3007   22.3742 N   0  0  0  0  0  0
  -26.4253  -37.3856   23.9487 N   0  0  0  0  0  0
  -24.6702  -31.0758   22.0979 N   0  0  0  0  0  0
  -23.4182  -28.8204   23.3073 O   0  0  0  0  0  0
  -28.4039  -26.6684   20.1501 O   0  0  0  0  0  0
  -26.5648  -34.8940   22.4703 O   0  0  0  0  0  0
  -23.5343  -32.1435   23.7449 O   0  0  0  0  0  0
  -28.7780  -22.4473   21.6393 C   0  0  0  0  0  0
  -30.7304  -20.7547   20.5539 C   0  0  0  0  0  0
  -29.6631  -22.9712   20.6666 C   0  0  0  0  0  0
  -28.8660  -21.1017   22.0781 C   0  0  0  0  0  0
  -30.6693  -22.1093   20.1559 C   0  0  0  0  0  0
  -29.8237  -20.2348   21.4991 C   0  0  0  0  0  0
  -27.0284  -19.4572   22.9174 C   0  0  0  0  0  0
  -26.4841  -20.8450   23.1440 C   0  0  0  0  0  0
  -28.9044  -24.6722   18.8480 C   0  0  0  0  0  0
  -29.5583  -24.4150   20.1893 C   0  0  1  0  0  0
  -28.2696  -25.2318   20.0951 C   0  0  1  0  0  0
  -27.9783  -20.6048   23.1876 C   0  0  0  0  0  0
  -31.7281  -22.6291   19.1966 C   0  0  0  0  0  0
  -28.7112  -20.6714   24.5144 C   0  0  0  0  0  0
  -30.6922  -16.6824   21.6997 C   0  0  0  0  0  0
  -29.9905  -17.8717   21.0057 C   0  0  0  0  0  0
  -30.1345  -15.3714   21.3419 N   0  0  0  0  0  0
  -29.9145  -18.9372   21.9577 O   0  0  0  0  0  0
  -31.4592  -12.3794   19.1063 H   0  0  0  0  0  0
  -30.2977  -11.2777   19.7957 H   0  0  0  0  0  0
  -29.7091  -11.8075   17.4091 H   0  0  0  0  0  0
  -29.6716  -13.5128   17.7841 H   0  0  0  0  0  0
  -27.7828  -11.3476   18.7714 H   0  0  0  0  0  0
  -27.3629  -12.7226   17.7906 H   0  0  0  0  0  0
  -27.7177  -14.2730   19.6313 H   0  0  0  0  0  0
  -28.6781  -11.9161   21.3092 H   0  0  0  0  0  0
  -28.4848  -13.5334   21.9014 H   0  0  0  0  0  0
  -25.2728   -9.5692   22.4775 H   0  0  0  0  0  0
  -24.0005   -7.4640   22.7470 H   0  0  0  0  0  0
  -21.0894   -8.8732   19.8933 H   0  0  0  0  0  0
  -22.3679  -10.9664   19.6177 H   0  0  0  0  0  0
  -21.1910   -7.6128   23.9691 H   0  0  0  0  0  0
  -21.1547   -6.0538   25.9080 H   0  0  0  0  0  0
  -22.0564   -2.7604   23.2857 H   0  0  0  0  0  0
  -22.4110  -11.9782   22.4739 H   0  0  0  0  0  0
  -21.1101  -13.1156   22.2633 H   0  0  0  0  0  0
  -24.6636  -15.8491   20.5276 H   0  0  0  0  0  0
  -26.2834  -15.6268   20.0977 H   0  0  0  0  0  0
  -26.7113  -32.5553   23.1151 H   0  0  0  0  0  0
  -25.0054  -33.9810   25.0466 H   0  0  0  0  0  0
  -22.6923  -31.3007   21.4087 H   0  0  0  0  0  0
  -23.3839  -35.9523   23.3096 H   0  0  0  0  0  0
  -24.3627  -36.9126   22.2081 H   0  0  0  0  0  0
  -23.7063  -37.6363   23.6777 H   0  0  0  0  0  0
  -26.0511  -31.5929   20.5958 H   0  0  0  0  0  0
  -26.8193  -30.8804   21.9871 H   0  0  0  0  0  0
  -28.1033  -29.0906   21.1607 H   0  0  0  0  0  0
  -26.0455  -25.9717   18.9956 H   0  0  0  0  0  0
  -23.9850  -27.2965   19.0197 H   0  0  0  0  0  0
  -23.7197  -30.5911   19.4022 H   0  0  0  0  0  0
  -22.7387  -29.2368   19.8717 H   0  0  0  0  0  0
  -25.1241  -36.1963   25.0815 H   0  0  0  0  0  0
  -20.9937  -28.3206   24.1451 H   0  0  0  0  0  0
  -20.5697  -26.2252   23.3598 H   0  0  0  0  0  0
  -21.6632  -26.7448   22.1213 H   0  0  0  0  0  0
  -19.6910  -25.6297   21.1230 H   0  0  0  0  0  0
  -19.6682  -27.3210   20.6778 H   0  0  0  0  0  0
  -17.4201  -26.6699   21.3995 H   0  0  0  0  0  0
  -18.0269  -26.0035   22.8987 H   0  0  0  0  0  0
  -19.7928  -30.7275   24.2237 H   0  0  0  0  0  0
  -17.5001  -31.6260   24.5163 H   0  0  0  0  0  0
  -15.5338  -30.2974   23.7670 H   0  0  0  0  0  0
  -15.8657  -28.0818   22.7070 H   0  0  0  0  0  0
  -24.5936  -30.6976   25.7745 H   0  0  0  0  0  0
  -24.8907  -32.2762   26.4961 H   0  0  0  0  0  0
  -25.8105  -30.8749   27.0174 H   0  0  0  0  0  0
  -26.2864  -29.6802   24.1164 H   0  0  0  0  0  0
  -27.4118  -29.7299   25.4523 H   0  0  0  0  0  0
  -27.8670  -30.4392   23.9217 H   0  0  0  0  0  0
  -27.2703  -33.3612   26.2075 H   0  0  0  0  0  0
  -28.3879  -32.6812   25.0339 H   0  0  0  0  0  0
  -28.0684  -31.8403   26.5418 H   0  0  0  0  0  0
  -28.2410  -38.0269   24.7868 H   0  0  0  0  0  0
  -28.1355  -36.2846   24.5749 H   0  0  0  0  0  0
  -27.2416  -37.0784   25.8805 H   0  0  0  0  0  0
  -20.9316  -29.8713   21.6947 H   0  0  0  0  0  0
  -26.0117  -38.2871   24.1736 H   0  0  0  0  0  0
  -28.0250  -23.0910   22.0748 H   0  0  0  0  0  0
  -31.5164  -20.1223   20.1642 H   0  0  0  0  0  0
  -26.9959  -19.0566   21.9056 H   0  0  0  0  0  0
  -26.8624  -18.7310   23.7115 H   0  0  0  0  0  0
  -25.9708  -21.0177   24.0882 H   0  0  0  0  0  0
  -26.0677  -21.3650   22.2829 H   0  0  0  0  0  0
  -28.3928  -23.8390   18.3720 H   0  0  0  0  0  0
  -29.3994  -25.3665   18.1727 H   0  0  0  0  0  0
  -30.4677  -24.9650   20.4247 H   0  0  0  0  0  0
  -27.3554  -24.8054   20.5047 H   0  0  0  0  0  0
  -32.4369  -21.8476   18.9206 H   0  0  0  0  0  0
  -32.2999  -23.4326   19.6625 H   0  0  0  0  0  0
  -31.2786  -23.0094   18.2803 H   0  0  0  0  0  0
  -29.5723  -20.0020   24.5052 H   0  0  0  0  0  0
  -28.0572  -20.3717   25.3326 H   0  0  0  0  0  0
  -29.0633  -21.6859   24.7053 H   0  0  0  0  0  0
  -30.5827  -16.7808   22.7784 H   0  0  0  0  0  0
  -31.7665  -16.7382   21.5135 H   0  0  0  0  0  0
  -28.9727  -17.6075   20.7121 H   0  0  0  0  0  0
  -30.5180  -18.1322   20.0881 H   0  0  0  0  0  0
  -29.2283  -15.1409   21.7167 H   0  0  0  0  0  0
  1 25  1  0  0  0
  1 30  2  0  0  0
  1 87  1  0  0  0
  2  3  1  0  0  0
  2 25  1  0  0  0
  2 89  1  0  0  0
  2 90  1  0  0  0
  3  4  1  0  0  0
  3 91  1  0  0  0
  3 92  1  0  0  0
  4  5  1  0  0  0
  4 93  1  0  0  0
  4 94  1  0  0  0
  5  6  1  0  0  0
  5 26  1  0  0  0
  5 95  1  0  0  0
  6 25  1  0  0  0
  6 96  1  0  0  0
  6 97  1  0  0  0
  7  8  2  0  0  0
  7 26  1  0  0  0
  7 29  1  0  0  0
  8  9  1  0  0  0
  8 22  1  0  0  0
  9 10  1  0  0  0
  9 27  2  0  0  0
 10 11  2  0  0  0
 10 15  1  0  0  0
 11 12  1  0  0  0
 11 98  1  0  0  0
 12 13  2  0  0  0
 12 99  1  0  0  0
 13 14  1  0  0  0
 13 31  1  0  0  0
 14 15  2  0  0  0
 14100  1  0  0  0
 15101  1  0  0  0
 16 17  2  0  0  0
 16 21  1  0  0  0
 16 31  1  0  0  0
 17 18  1  0  0  0
 17102  1  0  0  0
 18 19  2  0  0  0
 18103  1  0  0  0
 19 20  1  0  0  0
 19 24  1  0  0  0
 20 21  2  0  0  0
 20104  1  0  0  0
 21 23  1  0  0  0
 22 28  1  0  0  0
 22 32  2  0  0  0
 26 27  1  0  0  0
 28105  1  0  0  0
 28106  1  0  0  0
 29107  1  0  0  0
 29108  1  0  0  0
 33 34  1  0  0  0
 33 66  1  0  0  0
 33 70  2  0  0  0
 34 36  1  0  0  0
 34 59  1  0  0  0
 34109  1  0  0  0
 35 44  2  0  0  0
 35 45  1  0  0  0
 35 68  1  0  0  0
 36 56  1  0  0  0
 36110  1  0  0  0
 37 39  1  0  0  0
 37 47  1  0  0  0
 37 66  1  0  0  0
 37111  1  0  0  0
 38 43  2  0  0  0
 38 46  1  0  0  0
 38 47  1  0  0  0
 39 64  1  0  0  0
 39 67  2  0  0  0
 40 52  1  0  0  0
 40 53  2  0  0  0
 40 58  1  0  0  0
 41112  1  0  0  0
 41113  1  0  0  0
 41114  1  0  0  0
 41 48  1  0  0  0
 42 43  1  0  0  0
 42 66  1  0  0  0
 42115  1  0  0  0
 42116  1  0  0  0
 43 44  1  0  0  0
 44117  1  0  0  0
 45 46  2  0  0  0
 45118  1  0  0  0
 46119  1  0  0  0
 47120  1  0  0  0
 47121  1  0  0  0
 48 56  1  0  0  0
 48 65  1  0  0  0
 48122  1  0  0  0
 49 50  1  0  0  0
 49 53  1  0  0  0
 49 64  1  0  0  0
 49123  1  0  0  0
 50 51  1  0  0  0
 50124  1  0  0  0
 50125  1  0  0  0
 51 52  1  0  0  0
 51126  1  0  0  0
 51127  1  0  0  0
 52128  1  0  0  0
 52129  1  0  0  0
 53 54  1  0  0  0
 54 55  2  0  0  0
 54130  1  0  0  0
 55 57  1  0  0  0
 55131  1  0  0  0
 56 69  2  0  0  0
 57 58  2  0  0  0
 57132  1  0  0  0
 58133  1  0  0  0
 59 60  1  0  0  0
 59 61  1  0  0  0
 59 62  1  0  0  0
 60134  1  0  0  0
 60135  1  0  0  0
 60136  1  0  0  0
 61137  1  0  0  0
 61138  1  0  0  0
 61139  1  0  0  0
 62140  1  0  0  0
 62141  1  0  0  0
 62142  1  0  0  0
 63 65  1  0  0  0
 63143  1  0  0  0
 63144  1  0  0  0
 63145  1  0  0  0
 64146  1  0  0  0
 65147  1  0  0  0
 68 81  1  0  0  0
 71 73  2  0  0  0
 71 74  1  0  0  0
 71148  1  0  0  0
 72 75  2  0  0  0
 72 76  1  0  0  0
 72149  1  0  0  0
 73 75  1  0  0  0
 73 80  1  0  0  0
 74 76  2  0  0  0
 74 82  1  0  0  0
 75 83  1  0  0  0
 76 88  1  0  0  0
 77 78  1  0  0  0
 77 82  1  0  0  0
 77150  1  0  0  0
 77151  1  0  0  0
 78 82  1  0  0  0
 78152  1  0  0  0
 78153  1  0  0  0
 79 80  1  0  0  0
 79 81  1  0  0  0
 79154  1  0  0  0
 79155  1  0  0  0
 80 81  1  0  0  0
 80156  1  0  0  0
 81157  1  0  0  0
 82 84  1  0  0  0
 83158  1  0  0  0
 83159  1  0  0  0
 83160  1  0  0  0
 84161  1  0  0  0
 84162  1  0  0  0
 84163  1  0  0  0
 85 86  1  0  0  0
 85 87  1  0  0  0
 85164  1  0  0  0
 85165  1  0  0  0
 86 88  1  0  0  0
 86166  1  0  0  0
 86167  1  0  0  0
 87168  1  0  0  0
M  ISO  4   1 100  68 101  81 101  87 100
M  END
> <chiral flag>
0

> <version>
0

> <s_m_source_file>
/data/baiqing/PycharmProjects/Reinvent-master-3.2/result/LINK_invent/BTK/process_docking_weight1_custom_sum_contain_oxygen_bond_distance_aromatic_linkinvent_7_9_3/rearranged_h_0162.sdf

> <i_m_source_file_index>
67

> <r_mmod_Potential_Energy-OPLS-2005>
-39.4913749694824

> <r_mmod_Stretch_Energy-OPLS-2005>
39.2808380126953

> <r_mmod_Bend_Energy-OPLS-2005>
107.291633605957

> <r_mmod_Torsional_Energy-OPLS-2005>
286.361480712891

> <r_mmod_Improper_Torsional_Energy-OPLS-2005>
2.46863985061646

> <r_mmod_Van_der_Waal_Energy-OPLS-2005>
147.382019042969

> <r_mmod_Electrostatic_Energy-OPLS-2005>
-431.716217041016

> <r_mmod_Solvation_Energy-OPLS-2005>
-202.538955688477

> <b_mmod_Minimization_Converged-OPLS-2005>
0

> <r_mmod_RMS_Derivative-OPLS-2005>
3.71655249595642

$$$$
68
                    3D
 Structure written by MMmdl.
171180  0  0  1  0            999 V2000
  -30.7215  -14.4585   20.5280 C   0  0  0  0  0  0
  -30.4108  -12.2873   19.4254 C   0  0  0  0  0  0
  -29.4910  -12.4862   18.2043 C   0  0  0  0  0  0
  -28.0122  -12.3552   18.6188 C   0  0  0  0  0  0
  -27.6559  -13.2098   19.8652 C   0  0  2  0  0  0
  -28.6991  -13.0309   20.9909 C   0  0  0  0  0  0
  -25.2575  -13.8165   20.5699 C   0  0  0  0  0  0
  -24.1821  -13.0435   20.9182 C   0  0  0  0  0  0
  -24.6378  -11.6903   20.8738 C   0  0  0  0  0  0
  -23.9047  -10.4284   21.0399 C   0  0  0  0  0  0
  -24.3598   -9.4195   21.9178 C   0  0  0  0  0  0
  -23.6282   -8.2226   22.0747 C   0  0  0  0  0  0
  -22.4263   -8.0258   21.3533 C   0  0  0  0  0  0
  -21.9890   -9.0234   20.4641 C   0  0  0  0  0  0
  -22.7215  -10.2116   20.3053 C   0  0  0  0  0  0
  -21.6849   -6.0721   22.5275 C   0  0  0  0  0  0
  -21.4012   -6.5630   23.8206 C   0  0  0  0  0  0
  -21.3662   -5.6786   24.9170 C   0  0  0  0  0  0
  -21.6045   -4.3046   24.7230 C   0  0  0  0  0  0
  -21.8818   -3.8139   23.4349 C   0  0  0  0  0  0
  -21.9191   -4.6952   22.3405 C   0  0  0  0  0  0
  -22.7847  -13.5239   21.1851 C   0  0  0  0  0  0
  -22.1662   -4.2140   21.0985 F   0  0  0  0  0  0
  -21.5629   -3.4530   25.7741 F   0  0  0  0  0  0
  -30.0277  -13.2970   20.4211 N   0  0  0  0  0  0
  -26.2997  -12.9337   20.3337 N   0  0  0  0  0  0
  -25.9309  -11.6495   20.5765 N   0  0  0  0  0  0
  -22.0478  -12.8240   22.0403 N   0  0  0  0  0  0
  -25.4349  -15.1878   20.4145 N   0  0  0  0  0  0
  -31.9001  -14.5692   20.1732 O   0  0  0  0  0  0
  -21.6630   -6.8854   21.4230 O   0  0  0  0  0  0
  -22.3541  -14.5560   20.6720 O   0  0  0  0  0  0
  -24.6126  -31.8706   23.2128 C   0  0  0  0  0  0
  -25.9033  -32.4835   23.8405 C   0  0  1  0  0  0
  -27.2287  -27.4527   20.0681 C   0  0  0  0  0  0
  -25.5896  -33.8633   24.2337 N   0  0  0  0  0  0
  -23.3981  -30.4963   21.5549 C   0  0  2  0  0  0
  -24.8391  -28.9676   20.1140 C   0  0  0  0  0  0
  -22.7396  -29.4672   22.5014 C   0  0  0  0  0  0
  -18.0268  -28.1372   22.8497 C   0  0  0  0  0  0
  -24.1489  -36.7322   23.2635 C   0  0  0  0  0  0
  -25.9267  -30.8384   21.3644 C   0  0  0  0  0  0
  -26.0000  -29.4753   20.7085 C   0  0  0  0  0  0
  -27.1935  -28.7207   20.6907 C   0  0  0  0  0  0
  -26.0369  -26.9456   19.4977 C   0  0  0  0  0  0
  -24.8508  -27.6994   19.5123 C   0  0  0  0  0  0
  -23.6024  -29.8336   20.1675 C   0  0  0  0  0  0
  -25.4107  -36.3121   24.0338 C   0  0  1  0  0  0
  -20.5856  -28.3654   23.1333 C   0  0  2  0  0  0
  -20.6765  -26.9397   22.5420 C   0  0  0  0  0  0
  -19.5741  -26.6388   21.5216 C   0  0  0  0  0  0
  -18.1918  -26.7922   22.1627 C   0  0  0  0  0  0
  -19.1518  -28.8829   23.2913 C   0  0  0  0  0  0
  -18.9444  -30.1437   23.8918 C   0  0  0  0  0  0
  -17.6449  -30.6582   24.0566 C   0  0  0  0  0  0
  -25.9033  -34.9486   23.5131 C   0  0  0  0  0  0
  -16.5340  -29.9084   23.6325 C   0  0  0  0  0  0
  -16.7261  -28.6501   23.0348 C   0  0  0  0  0  0
  -26.4460  -31.6608   25.0727 C   0  0  0  0  0  0
  -25.3733  -31.3727   26.1487 C   0  0  0  0  0  0
  -27.0270  -30.3047   24.6091 C   0  0  0  0  0  0
  -27.6051  -32.4316   25.7476 C   0  0  0  0  0  0
  -27.5585  -37.1809   24.8460 C   0  0  0  0  0  0
  -21.4130  -29.3029   22.3748 N   0  0  0  0  0  0
  -26.4295  -37.3801   23.9408 N   0  0  0  0  0  0
  -24.6644  -31.0818   22.1020 N   0  0  0  0  0  0
  -23.4184  -28.8212   23.3044 O   0  0  0  0  0  0
  -28.4120  -26.7456   20.0896 O   0  0  0  0  0  0
  -26.5595  -34.8930   22.4695 O   0  0  0  0  0  0
  -23.5328  -32.1453   23.7531 O   0  0  0  0  0  0
  -31.0471  -22.4575   20.2282 C   0  0  0  0  0  0
  -29.7486  -22.1751   19.7604 C   0  0  0  0  0  0
  -28.9041  -23.2736   19.4381 C   0  0  0  0  0  0
  -31.4665  -23.7910   20.3452 C   0  0  0  0  0  0
  -29.4479  -24.5860   19.5149 C   0  0  0  0  0  0
  -29.0511  -17.6784   19.6013 C   0  0  0  0  0  0
  -29.3969  -17.6814   22.0292 C   0  0  0  0  0  0
  -29.8877  -16.3998   19.4596 C   0  0  0  0  0  0
  -30.1853  -16.3487   21.9317 C   0  0  0  0  0  0
  -29.5815  -18.5447   20.7589 C   0  0  0  0  0  0
  -27.4550  -23.0670   19.0037 C   0  0  0  0  0  0
  -32.8350  -24.1418   20.8879 C   0  0  0  0  0  0
  -29.0781  -20.6389   22.0622 C   0  0  0  0  0  0
  -29.3519  -20.7050   19.5598 C   0  0  0  0  0  0
  -28.7088  -25.8339   19.0256 C   0  0  0  0  0  0
  -30.6927  -24.8272   19.9788 N   0  0  0  0  0  0
  -29.9728  -15.5791   20.6874 N   0  0  0  0  0  0
  -28.9547  -19.9102   20.7711 N   0  3  1  0  0  0
  -31.4587  -12.3616   19.1278 H   0  0  0  0  0  0
  -30.2866  -11.2865   19.8416 H   0  0  0  0  0  0
  -29.7272  -11.7505   17.4349 H   0  0  0  0  0  0
  -29.6658  -13.4653   17.7551 H   0  0  0  0  0  0
  -27.8229  -11.3017   18.8279 H   0  0  0  0  0  0
  -27.3597  -12.6188   17.7856 H   0  0  0  0  0  0
  -27.6863  -14.2517   19.5462 H   0  0  0  0  0  0
  -28.6645  -12.0183   21.3935 H   0  0  0  0  0  0
  -28.4802  -13.6980   21.8260 H   0  0  0  0  0  0
  -25.2732   -9.5691   22.4764 H   0  0  0  0  0  0
  -23.9992   -7.4625   22.7476 H   0  0  0  0  0  0
  -21.0810   -8.8745   19.8965 H   0  0  0  0  0  0
  -22.3649  -10.9652   19.6172 H   0  0  0  0  0  0
  -21.2002   -7.6137   23.9703 H   0  0  0  0  0  0
  -21.1494   -6.0516   25.9071 H   0  0  0  0  0  0
  -22.0607   -2.7606   23.2848 H   0  0  0  0  0  0
  -22.4075  -11.9895   22.4799 H   0  0  0  0  0  0
  -21.1106  -13.1293   22.2613 H   0  0  0  0  0  0
  -24.6790  -15.8526   20.5347 H   0  0  0  0  0  0
  -26.3031  -15.6187   20.1261 H   0  0  0  0  0  0
  -26.7101  -32.5541   23.1167 H   0  0  0  0  0  0
  -25.0051  -33.9802   25.0482 H   0  0  0  0  0  0
  -22.6854  -31.3124   21.4209 H   0  0  0  0  0  0
  -23.3747  -35.9657   23.3308 H   0  0  0  0  0  0
  -24.3588  -36.8922   22.2047 H   0  0  0  0  0  0
  -23.7241  -37.6532   23.6639 H   0  0  0  0  0  0
  -26.0395  -31.6067   20.5980 H   0  0  0  0  0  0
  -26.8152  -30.8880   21.9822 H   0  0  0  0  0  0
  -28.0917  -29.1113   21.1484 H   0  0  0  0  0  0
  -25.9794  -25.9631   19.0578 H   0  0  0  0  0  0
  -23.9515  -27.2949   19.0686 H   0  0  0  0  0  0
  -23.7082  -30.6104   19.4094 H   0  0  0  0  0  0
  -22.7253  -29.2542   19.8734 H   0  0  0  0  0  0
  -25.1281  -36.1991   25.0830 H   0  0  0  0  0  0
  -20.9944  -28.3212   24.1454 H   0  0  0  0  0  0
  -20.5683  -26.2256   23.3598 H   0  0  0  0  0  0
  -21.6635  -26.7453   22.1202 H   0  0  0  0  0  0
  -19.6904  -25.6305   21.1232 H   0  0  0  0  0  0
  -19.6678  -27.3214   20.6758 H   0  0  0  0  0  0
  -17.4188  -26.6667   21.4028 H   0  0  0  0  0  0
  -18.0319  -26.0059   22.9020 H   0  0  0  0  0  0
  -19.7921  -30.7248   24.2295 H   0  0  0  0  0  0
  -17.5005  -31.6266   24.5161 H   0  0  0  0  0  0
  -15.5341  -30.2993   23.7637 H   0  0  0  0  0  0
  -15.8661  -28.0829   22.7050 H   0  0  0  0  0  0
  -24.5886  -30.7092   25.7834 H   0  0  0  0  0  0
  -24.8944  -32.2889   26.4951 H   0  0  0  0  0  0
  -25.8086  -30.8882   27.0235 H   0  0  0  0  0  0
  -26.2800  -29.6832   24.1137 H   0  0  0  0  0  0
  -27.4027  -29.7263   25.4541 H   0  0  0  0  0  0
  -27.8648  -30.4356   23.9238 H   0  0  0  0  0  0
  -27.2684  -33.3606   26.2086 H   0  0  0  0  0  0
  -28.3836  -32.6888   25.0282 H   0  0  0  0  0  0
  -28.0746  -31.8419   26.5359 H   0  0  0  0  0  0
  -28.2604  -38.0107   24.7519 H   0  0  0  0  0  0
  -28.1080  -36.2641   24.6267 H   0  0  0  0  0  0
  -27.2313  -37.1444   25.8866 H   0  0  0  0  0  0
  -20.9283  -29.8747   21.6972 H   0  0  0  0  0  0
  -26.0192  -38.2880   24.1414 H   0  0  0  0  0  0
  -31.7221  -21.6547   20.4951 H   0  0  0  0  0  0
  -28.0034  -17.4228   19.7662 H   0  0  0  0  0  0
  -29.0845  -18.2065   18.6484 H   0  0  0  0  0  0
  -29.7507  -18.2022   22.9196 H   0  0  0  0  0  0
  -28.3384  -17.4739   22.1930 H   0  0  0  0  0  0
  -30.8923  -16.6876   19.1391 H   0  0  0  0  0  0
  -29.4742  -15.7970   18.6481 H   0  0  0  0  0  0
  -29.9321  -15.7212   22.7888 H   0  0  0  0  0  0
  -31.2513  -16.5691   22.0262 H   0  0  0  0  0  0
  -30.6562  -18.6941   20.6347 H   0  0  0  0  0  0
  -27.0471  -22.1068   19.3150 H   0  0  0  0  0  0
  -27.3562  -23.1479   17.9205 H   0  0  0  0  0  0
  -26.8097  -23.8149   19.4638 H   0  0  0  0  0  0
  -33.4476  -23.2502   21.0228 H   0  0  0  0  0  0
  -32.7386  -24.6354   21.8552 H   0  0  0  0  0  0
  -33.3616  -24.8153   20.2111 H   0  0  0  0  0  0
  -28.5914  -20.1012   22.8750 H   0  0  0  0  0  0
  -28.5794  -21.6080   22.0218 H   0  0  0  0  0  0
  -30.1210  -20.7970   22.3378 H   0  0  0  0  0  0
  -30.2184  -20.2452   19.0814 H   0  0  0  0  0  0
  -28.5681  -20.6140   18.8102 H   0  0  0  0  0  0
  -27.8772  -25.5619   18.3837 H   0  0  0  0  0  0
  -29.3807  -26.3648   18.3501 H   0  0  0  0  0  0
  -27.9621  -19.7686   20.6664 H   0  0  0  0  0  0
  1 25  1  0  0  0
  1 30  2  0  0  0
  1 87  1  0  0  0
  2  3  1  0  0  0
  2 25  1  0  0  0
  2 89  1  0  0  0
  2 90  1  0  0  0
  3  4  1  0  0  0
  3 91  1  0  0  0
  3 92  1  0  0  0
  4  5  1  0  0  0
  4 93  1  0  0  0
  4 94  1  0  0  0
  5  6  1  0  0  0
  5 26  1  0  0  0
  5 95  1  0  0  0
  6 25  1  0  0  0
  6 96  1  0  0  0
  6 97  1  0  0  0
  7  8  2  0  0  0
  7 26  1  0  0  0
  7 29  1  0  0  0
  8  9  1  0  0  0
  8 22  1  0  0  0
  9 10  1  0  0  0
  9 27  2  0  0  0
 10 11  2  0  0  0
 10 15  1  0  0  0
 11 12  1  0  0  0
 11 98  1  0  0  0
 12 13  2  0  0  0
 12 99  1  0  0  0
 13 14  1  0  0  0
 13 31  1  0  0  0
 14 15  2  0  0  0
 14100  1  0  0  0
 15101  1  0  0  0
 16 17  2  0  0  0
 16 21  1  0  0  0
 16 31  1  0  0  0
 17 18  1  0  0  0
 17102  1  0  0  0
 18 19  2  0  0  0
 18103  1  0  0  0
 19 20  1  0  0  0
 19 24  1  0  0  0
 20 21  2  0  0  0
 20104  1  0  0  0
 21 23  1  0  0  0
 22 28  1  0  0  0
 22 32  2  0  0  0
 26 27  1  0  0  0
 28105  1  0  0  0
 28106  1  0  0  0
 29107  1  0  0  0
 29108  1  0  0  0
 33 34  1  0  0  0
 33 66  1  0  0  0
 33 70  2  0  0  0
 34 36  1  0  0  0
 34 59  1  0  0  0
 34109  1  0  0  0
 35 44  2  0  0  0
 35 45  1  0  0  0
 35 68  1  0  0  0
 36 56  1  0  0  0
 36110  1  0  0  0
 37 39  1  0  0  0
 37 47  1  0  0  0
 37 66  1  0  0  0
 37111  1  0  0  0
 38 43  2  0  0  0
 38 46  1  0  0  0
 38 47  1  0  0  0
 39 64  1  0  0  0
 39 67  2  0  0  0
 40 52  1  0  0  0
 40 53  2  0  0  0
 40 58  1  0  0  0
 41112  1  0  0  0
 41113  1  0  0  0
 41114  1  0  0  0
 41 48  1  0  0  0
 42 43  1  0  0  0
 42 66  1  0  0  0
 42115  1  0  0  0
 42116  1  0  0  0
 43 44  1  0  0  0
 44117  1  0  0  0
 45 46  2  0  0  0
 45118  1  0  0  0
 46119  1  0  0  0
 47120  1  0  0  0
 47121  1  0  0  0
 48 56  1  0  0  0
 48 65  1  0  0  0
 48122  1  0  0  0
 49 50  1  0  0  0
 49 53  1  0  0  0
 49 64  1  0  0  0
 49123  1  0  0  0
 50 51  1  0  0  0
 50124  1  0  0  0
 50125  1  0  0  0
 51 52  1  0  0  0
 51126  1  0  0  0
 51127  1  0  0  0
 52128  1  0  0  0
 52129  1  0  0  0
 53 54  1  0  0  0
 54 55  2  0  0  0
 54130  1  0  0  0
 55 57  1  0  0  0
 55131  1  0  0  0
 56 69  2  0  0  0
 57 58  2  0  0  0
 57132  1  0  0  0
 58133  1  0  0  0
 59 60  1  0  0  0
 59 61  1  0  0  0
 59 62  1  0  0  0
 60134  1  0  0  0
 60135  1  0  0  0
 60136  1  0  0  0
 61137  1  0  0  0
 61138  1  0  0  0
 61139  1  0  0  0
 62140  1  0  0  0
 62141  1  0  0  0
 62142  1  0  0  0
 63 65  1  0  0  0
 63143  1  0  0  0
 63144  1  0  0  0
 63145  1  0  0  0
 64146  1  0  0  0
 65147  1  0  0  0
 68 85  1  0  0  0
 71 72  2  0  0  0
 71 74  1  0  0  0
 71148  1  0  0  0
 72 73  1  0  0  0
 72 84  1  0  0  0
 73 75  2  0  0  0
 73 81  1  0  0  0
 74 82  1  0  0  0
 74 86  2  0  0  0
 75 85  1  0  0  0
 75 86  1  0  0  0
 76 78  1  0  0  0
 76149  1  0  0  0
 76150  1  0  0  0
 76 80  1  0  0  0
 77 79  1  0  0  0
 77 80  1  0  0  0
 77151  1  0  0  0
 77152  1  0  0  0
 78 87  1  0  0  0
 78153  1  0  0  0
 78154  1  0  0  0
 79 87  1  0  0  0
 79155  1  0  0  0
 79156  1  0  0  0
 80 88  1  0  0  0
 80157  1  0  0  0
 81158  1  0  0  0
 81159  1  0  0  0
 81160  1  0  0  0
 82161  1  0  0  0
 82162  1  0  0  0
 82163  1  0  0  0
 83164  1  0  0  0
 83165  1  0  0  0
 83166  1  0  0  0
 83 88  1  0  0  0
 84 88  1  0  0  0
 84167  1  0  0  0
 84168  1  0  0  0
 85169  1  0  0  0
 85170  1  0  0  0
 88171  1  0  0  0
M  CHG  1  88   1
M  ISO  4   1 100  68 101  85 101  87 100
M  END
> <chiral flag>
0

> <version>
0

> <s_m_source_file>
/data/baiqing/PycharmProjects/Reinvent-master-3.2/result/LINK_invent/BTK/process_docking_weight1_custom_sum_contain_oxygen_bond_distance_aromatic_linkinvent_7_9_3/rearranged_h_0162.sdf

> <i_m_source_file_index>
68

> <r_mmod_Potential_Energy-OPLS-2005>
-49.8444442749023

> <r_mmod_Stretch_Energy-OPLS-2005>
41.6044578552246

> <r_mmod_Bend_Energy-OPLS-2005>
128.96125793457

> <r_mmod_Torsional_Energy-OPLS-2005>
344.317260742188

> <r_mmod_Improper_Torsional_Energy-OPLS-2005>
13.581563949585

> <r_mmod_Van_der_Waal_Energy-OPLS-2005>
172.743377685547

> <r_mmod_Electrostatic_Energy-OPLS-2005>
-311.690582275391

> <r_mmod_Solvation_Energy-OPLS-2005>
-456.294403076172

> <b_mmod_Minimization_Converged-OPLS-2005>
0

> <r_mmod_RMS_Derivative-OPLS-2005>
1.3924720287323

$$$$
69
                    3D
 Structure written by MMmdl.
172181  0  0  1  0            999 V2000
  -30.7229  -14.4615   20.6009 C   0  0  0  0  0  0
  -30.4202  -12.3137   19.4198 C   0  0  0  0  0  0
  -29.4912  -12.5120   18.2052 C   0  0  0  0  0  0
  -28.0134  -12.3710   18.6179 C   0  0  0  0  0  0
  -27.6606  -13.2099   19.8753 C   0  0  2  0  0  0
  -28.7028  -12.9934   20.9957 C   0  0  0  0  0  0
  -25.2573  -13.8171   20.5681 C   0  0  0  0  0  0
  -24.1832  -13.0439   20.9170 C   0  0  0  0  0  0
  -24.6394  -11.6906   20.8721 C   0  0  0  0  0  0
  -23.9066  -10.4294   21.0398 C   0  0  0  0  0  0
  -24.3618   -9.4207   21.9175 C   0  0  0  0  0  0
  -23.6291   -8.2244   22.0747 C   0  0  0  0  0  0
  -22.4271   -8.0282   21.3544 C   0  0  0  0  0  0
  -21.9913   -9.0253   20.4639 C   0  0  0  0  0  0
  -22.7238  -10.2132   20.3045 C   0  0  0  0  0  0
  -21.6850   -6.0733   22.5277 C   0  0  0  0  0  0
  -21.4017   -6.5639   23.8211 C   0  0  0  0  0  0
  -21.3660   -5.6790   24.9171 C   0  0  0  0  0  0
  -21.6046   -4.3054   24.7227 C   0  0  0  0  0  0
  -21.8822   -3.8142   23.4346 C   0  0  0  0  0  0
  -21.9195   -4.6957   22.3398 C   0  0  0  0  0  0
  -22.7855  -13.5228   21.1840 C   0  0  0  0  0  0
  -22.1663   -4.2143   21.0974 F   0  0  0  0  0  0
  -21.5629   -3.4539   25.7745 F   0  0  0  0  0  0
  -30.0344  -13.2972   20.4451 N   0  0  0  0  0  0
  -26.3018  -12.9345   20.3369 N   0  0  0  0  0  0
  -25.9324  -11.6502   20.5763 N   0  0  0  0  0  0
  -22.0504  -12.8214   22.0398 N   0  0  0  0  0  0
  -25.4283  -15.1892   20.4095 N   0  0  0  0  0  0
  -31.8291  -14.6569   20.0902 O   0  0  0  0  0  0
  -21.6635   -6.8877   21.4240 O   0  0  0  0  0  0
  -22.3535  -14.5535   20.6694 O   0  0  0  0  0  0
  -24.6146  -31.8680   23.2112 C   0  0  0  0  0  0
  -25.9039  -32.4815   23.8407 C   0  0  1  0  0  0
  -27.2270  -27.4151   20.0985 C   0  0  0  0  0  0
  -25.5895  -33.8620   24.2332 N   0  0  0  0  0  0
  -23.4026  -30.4942   21.5524 C   0  0  2  0  0  0
  -24.8467  -28.9619   20.1139 C   0  0  0  0  0  0
  -22.7398  -29.4671   22.4987 C   0  0  0  0  0  0
  -18.0271  -28.1370   22.8487 C   0  0  0  0  0  0
  -24.1492  -36.7324   23.2643 C   0  0  0  0  0  0
  -25.9347  -30.8264   21.3689 C   0  0  0  0  0  0
  -26.0089  -29.4615   20.7126 C   0  0  0  0  0  0
  -27.1998  -28.6967   20.7014 C   0  0  0  0  0  0
  -26.0423  -26.9415   19.4822 C   0  0  0  0  0  0
  -24.8593  -27.7014   19.4958 C   0  0  0  0  0  0
  -23.6105  -29.8311   20.1659 C   0  0  0  0  0  0
  -25.4113  -36.3113   24.0341 C   0  0  1  0  0  0
  -20.5861  -28.3663   23.1307 C   0  0  2  0  0  0
  -20.6762  -26.9404   22.5408 C   0  0  0  0  0  0
  -19.5746  -26.6381   21.5203 C   0  0  0  0  0  0
  -18.1919  -26.7916   22.1610 C   0  0  0  0  0  0
  -19.1521  -28.8831   23.2895 C   0  0  0  0  0  0
  -18.9453  -30.1434   23.8910 C   0  0  0  0  0  0
  -17.6460  -30.6581   24.0561 C   0  0  0  0  0  0
  -25.9039  -34.9478   23.5137 C   0  0  0  0  0  0
  -16.5348  -29.9084   23.6330 C   0  0  0  0  0  0
  -16.7263  -28.6499   23.0357 C   0  0  0  0  0  0
  -26.4474  -31.6592   25.0729 C   0  0  0  0  0  0
  -25.3739  -31.3668   26.1470 C   0  0  0  0  0  0
  -27.0321  -30.3033   24.6117 C   0  0  0  0  0  0
  -27.6054  -32.4314   25.7479 C   0  0  0  0  0  0
  -27.5590  -37.1810   24.8466 C   0  0  0  0  0  0
  -21.4130  -29.3033   22.3713 N   0  0  0  0  0  0
  -26.4305  -37.3790   23.9409 N   0  0  0  0  0  0
  -24.6689  -31.0777   22.1014 N   0  0  0  0  0  0
  -23.4168  -28.8203   23.3021 O   0  0  0  0  0  0
  -28.3933  -26.6664   20.1410 O   0  0  0  0  0  0
  -26.5608  -34.8921   22.4702 O   0  0  0  0  0  0
  -23.5343  -32.1459   23.7494 O   0  0  0  0  0  0
  -29.7262  -19.1080   22.0991 C   0  0  0  0  0  0
  -28.5490  -18.1437   24.4457 C   0  0  0  0  0  0
  -29.0429  -20.0214   22.9498 C   0  0  0  0  0  0
  -29.8359  -17.7225   22.4132 C   0  0  0  0  0  0
  -28.4296  -19.5077   24.1241 C   0  0  0  0  0  0
  -29.2684  -17.2547   23.6280 C   0  0  0  0  0  0
  -30.1488  -22.3215   23.3516 C   0  0  0  0  0  0
  -30.1946  -23.6698   22.6099 C   0  0  0  0  0  0
  -29.0079  -21.5471   22.6858 C   0  0  1  0  0  0
  -29.0241  -22.1185   21.2519 C   0  0  1  0  0  0
  -27.6538  -20.3926   25.0905 C   0  0  0  0  0  0
  -29.4327  -15.8276   24.1292 C   0  0  0  0  0  0
  -27.7521  -21.8065   20.4455 C   0  0  0  0  0  0
  -30.6334  -16.7991   21.4727 C   0  0  0  0  0  0
  -29.5329  -24.4488   20.3161 C   0  0  0  0  0  0
  -28.3078  -25.2615   19.8227 C   0  0  0  0  0  0
  -30.0891  -15.4466   21.2626 N   0  0  0  0  0  0
  -29.2214  -23.5789   21.4932 N   0  3  2  0  0  0
  -31.4638  -12.4121   19.1150 H   0  0  0  0  0  0
  -30.3216  -11.3028   19.8175 H   0  0  0  0  0  0
  -29.7307  -11.7892   17.4238 H   0  0  0  0  0  0
  -29.6581  -13.4992   17.7702 H   0  0  0  0  0  0
  -27.8228  -11.3148   18.8114 H   0  0  0  0  0  0
  -27.3631  -12.6484   17.7876 H   0  0  0  0  0  0
  -27.7047  -14.2579   19.5781 H   0  0  0  0  0  0
  -28.6795  -11.9587   21.3403 H   0  0  0  0  0  0
  -28.4586  -13.5951   21.8708 H   0  0  0  0  0  0
  -25.2766   -9.5684   22.4742 H   0  0  0  0  0  0
  -24.0003   -7.4640   22.7469 H   0  0  0  0  0  0
  -21.0843   -8.8764   19.8945 H   0  0  0  0  0  0
  -22.3693  -10.9665   19.6148 H   0  0  0  0  0  0
  -21.2008   -7.6148   23.9715 H   0  0  0  0  0  0
  -21.1481   -6.0518   25.9076 H   0  0  0  0  0  0
  -22.0601   -2.7605   23.2847 H   0  0  0  0  0  0
  -22.4132  -11.9873   22.4772 H   0  0  0  0  0  0
  -21.1118  -13.1220   22.2609 H   0  0  0  0  0  0
  -24.6628  -15.8441   20.5230 H   0  0  0  0  0  0
  -26.2860  -15.6322   20.1049 H   0  0  0  0  0  0
  -26.7096  -32.5510   23.1159 H   0  0  0  0  0  0
  -25.0016  -33.9795   25.0454 H   0  0  0  0  0  0
  -22.6920  -31.3121   21.4161 H   0  0  0  0  0  0
  -23.3754  -35.9658   23.3301 H   0  0  0  0  0  0
  -24.3590  -36.8957   22.2061 H   0  0  0  0  0  0
  -23.7255  -37.6530   23.6664 H   0  0  0  0  0  0
  -26.0563  -31.5921   20.6011 H   0  0  0  0  0  0
  -26.8199  -30.8739   21.9925 H   0  0  0  0  0  0
  -28.0953  -29.0776   21.1736 H   0  0  0  0  0  0
  -26.0000  -25.9847   18.9828 H   0  0  0  0  0  0
  -23.9654  -27.3120   19.0282 H   0  0  0  0  0  0
  -23.7163  -30.6078   19.4068 H   0  0  0  0  0  0
  -22.7328  -29.2529   19.8714 H   0  0  0  0  0  0
  -25.1285  -36.1986   25.0834 H   0  0  0  0  0  0
  -20.9957  -28.3242   24.1427 H   0  0  0  0  0  0
  -20.5666  -26.2278   23.3598 H   0  0  0  0  0  0
  -21.6640  -26.7438   22.1221 H   0  0  0  0  0  0
  -19.6920  -25.6295   21.1226 H   0  0  0  0  0  0
  -19.6692  -27.3189   20.6736 H   0  0  0  0  0  0
  -17.4195  -26.6669   21.4001 H   0  0  0  0  0  0
  -18.0316  -26.0043   22.8992 H   0  0  0  0  0  0
  -19.7937  -30.7228   24.2300 H   0  0  0  0  0  0
  -17.5028  -31.6271   24.5149 H   0  0  0  0  0  0
  -15.5353  -30.2997   23.7652 H   0  0  0  0  0  0
  -15.8655  -28.0819   22.7084 H   0  0  0  0  0  0
  -24.5959  -30.6955   25.7809 H   0  0  0  0  0  0
  -24.8860  -32.2795   26.4897 H   0  0  0  0  0  0
  -25.8113  -30.8872   27.0237 H   0  0  0  0  0  0
  -26.2876  -29.6752   24.1206 H   0  0  0  0  0  0
  -27.4141  -29.7299   25.4577 H   0  0  0  0  0  0
  -27.8681  -30.4364   23.9246 H   0  0  0  0  0  0
  -27.2706  -33.3627   26.2064 H   0  0  0  0  0  0
  -28.3852  -32.6863   25.0283 H   0  0  0  0  0  0
  -28.0733  -31.8427   26.5383 H   0  0  0  0  0  0
  -28.2599  -38.0113   24.7523 H   0  0  0  0  0  0
  -28.1105  -36.2648   24.6287 H   0  0  0  0  0  0
  -27.2305  -37.1456   25.8868 H   0  0  0  0  0  0
  -20.9279  -29.8770   21.6951 H   0  0  0  0  0  0
  -26.0200  -38.2877   24.1392 H   0  0  0  0  0  0
  -30.2031  -19.4761   21.2015 H   0  0  0  0  0  0
  -28.1010  -17.7743   25.3589 H   0  0  0  0  0  0
  -30.0057  -22.4420   24.4257 H   0  0  0  0  0  0
  -31.0941  -21.7977   23.2050 H   0  0  0  0  0  0
  -31.2062  -23.8400   22.2383 H   0  0  0  0  0  0
  -29.9409  -24.5042   23.2648 H   0  0  0  0  0  0
  -28.0782  -21.9210   23.1130 H   0  0  0  0  0  0
  -29.8959  -21.7364   20.7178 H   0  0  0  0  0  0
  -27.3310  -19.8384   25.9724 H   0  0  0  0  0  0
  -26.7572  -20.7899   24.6139 H   0  0  0  0  0  0
  -28.2623  -21.2250   25.4423 H   0  0  0  0  0  0
  -29.3134  -15.7767   25.2120 H   0  0  0  0  0  0
  -30.4246  -15.4336   23.9066 H   0  0  0  0  0  0
  -28.6809  -15.1760   23.6857 H   0  0  0  0  0  0
  -26.8557  -22.1997   20.9249 H   0  0  0  0  0  0
  -27.6203  -20.7296   20.3376 H   0  0  0  0  0  0
  -27.8075  -22.2240   19.4396 H   0  0  0  0  0  0
  -31.6443  -16.7144   21.8768 H   0  0  0  0  0  0
  -30.7349  -17.2783   20.4980 H   0  0  0  0  0  0
  -30.3370  -25.1471   20.5524 H   0  0  0  0  0  0
  -29.9144  -23.8273   19.5050 H   0  0  0  0  0  0
  -27.4027  -24.8165   20.2391 H   0  0  0  0  0  0
  -28.2337  -25.1699   18.7382 H   0  0  0  0  0  0
  -29.1717  -15.2515   21.6304 H   0  0  0  0  0  0
  -28.3565  -23.9243   21.8850 H   0  0  0  0  0  0
  1 25  1  0  0  0
  1 30  2  0  0  0
  1 87  1  0  0  0
  2  3  1  0  0  0
  2 25  1  0  0  0
  2 89  1  0  0  0
  2 90  1  0  0  0
  3  4  1  0  0  0
  3 91  1  0  0  0
  3 92  1  0  0  0
  4  5  1  0  0  0
  4 93  1  0  0  0
  4 94  1  0  0  0
  5  6  1  0  0  0
  5 26  1  0  0  0
  5 95  1  0  0  0
  6 25  1  0  0  0
  6 96  1  0  0  0
  6 97  1  0  0  0
  7  8  2  0  0  0
  7 26  1  0  0  0
  7 29  1  0  0  0
  8  9  1  0  0  0
  8 22  1  0  0  0
  9 10  1  0  0  0
  9 27  2  0  0  0
 10 11  2  0  0  0
 10 15  1  0  0  0
 11 12  1  0  0  0
 11 98  1  0  0  0
 12 13  2  0  0  0
 12 99  1  0  0  0
 13 14  1  0  0  0
 13 31  1  0  0  0
 14 15  2  0  0  0
 14100  1  0  0  0
 15101  1  0  0  0
 16 17  2  0  0  0
 16 21  1  0  0  0
 16 31  1  0  0  0
 17 18  1  0  0  0
 17102  1  0  0  0
 18 19  2  0  0  0
 18103  1  0  0  0
 19 20  1  0  0  0
 19 24  1  0  0  0
 20 21  2  0  0  0
 20104  1  0  0  0
 21 23  1  0  0  0
 22 28  1  0  0  0
 22 32  2  0  0  0
 26 27  1  0  0  0
 28105  1  0  0  0
 28106  1  0  0  0
 29107  1  0  0  0
 29108  1  0  0  0
 33 34  1  0  0  0
 33 66  1  0  0  0
 33 70  2  0  0  0
 34 36  1  0  0  0
 34 59  1  0  0  0
 34109  1  0  0  0
 35 44  2  0  0  0
 35 45  1  0  0  0
 35 68  1  0  0  0
 36 56  1  0  0  0
 36110  1  0  0  0
 37 39  1  0  0  0
 37 47  1  0  0  0
 37 66  1  0  0  0
 37111  1  0  0  0
 38 43  2  0  0  0
 38 46  1  0  0  0
 38 47  1  0  0  0
 39 64  1  0  0  0
 39 67  2  0  0  0
 40 52  1  0  0  0
 40 53  2  0  0  0
 40 58  1  0  0  0
 41112  1  0  0  0
 41113  1  0  0  0
 41114  1  0  0  0
 41 48  1  0  0  0
 42 43  1  0  0  0
 42 66  1  0  0  0
 42115  1  0  0  0
 42116  1  0  0  0
 43 44  1  0  0  0
 44117  1  0  0  0
 45 46  2  0  0  0
 45118  1  0  0  0
 46119  1  0  0  0
 47120  1  0  0  0
 47121  1  0  0  0
 48 56  1  0  0  0
 48 65  1  0  0  0
 48122  1  0  0  0
 49 50  1  0  0  0
 49 53  1  0  0  0
 49 64  1  0  0  0
 49123  1  0  0  0
 50 51  1  0  0  0
 50124  1  0  0  0
 50125  1  0  0  0
 51 52  1  0  0  0
 51126  1  0  0  0
 51127  1  0  0  0
 52128  1  0  0  0
 52129  1  0  0  0
 53 54  1  0  0  0
 54 55  2  0  0  0
 54130  1  0  0  0
 55 57  1  0  0  0
 55131  1  0  0  0
 56 69  2  0  0  0
 57 58  2  0  0  0
 57132  1  0  0  0
 58133  1  0  0  0
 59 60  1  0  0  0
 59 61  1  0  0  0
 59 62  1  0  0  0
 60134  1  0  0  0
 60135  1  0  0  0
 60136  1  0  0  0
 61137  1  0  0  0
 61138  1  0  0  0
 61139  1  0  0  0
 62140  1  0  0  0
 62141  1  0  0  0
 62142  1  0  0  0
 63 65  1  0  0  0
 63143  1  0  0  0
 63144  1  0  0  0
 63145  1  0  0  0
 64146  1  0  0  0
 65147  1  0  0  0
 68 86  1  0  0  0
 71 73  2  0  0  0
 71 74  1  0  0  0
 71148  1  0  0  0
 72 75  2  0  0  0
 72 76  1  0  0  0
 72149  1  0  0  0
 73 75  1  0  0  0
 73 79  1  0  0  0
 74 76  2  0  0  0
 74 84  1  0  0  0
 75 81  1  0  0  0
 76 82  1  0  0  0
 77 78  1  0  0  0
 77 79  1  0  0  0
 77150  1  0  0  0
 77151  1  0  0  0
 78 88  1  0  0  0
 78152  1  0  0  0
 78153  1  0  0  0
 79 80  1  0  0  0
 79154  1  0  0  0
 80 83  1  0  0  0
 80 88  1  0  0  0
 80155  1  0  0  0
 81156  1  0  0  0
 81157  1  0  0  0
 81158  1  0  0  0
 82159  1  0  0  0
 82160  1  0  0  0
 82161  1  0  0  0
 83162  1  0  0  0
 83163  1  0  0  0
 83164  1  0  0  0
 84 87  1  0  0  0
 84165  1  0  0  0
 84166  1  0  0  0
 85 86  1  0  0  0
 85167  1  0  0  0
 85168  1  0  0  0
 85 88  1  0  0  0
 86169  1  0  0  0
 86170  1  0  0  0
 87171  1  0  0  0
 88172  1  0  0  0
M  CHG  1  88   1
M  ISO  4   1 100  68 101  86 101  87 100
M  END
> <chiral flag>
0

> <version>
0

> <s_m_source_file>
/data/baiqing/PycharmProjects/Reinvent-master-3.2/result/LINK_invent/BTK/process_docking_weight1_custom_sum_contain_oxygen_bond_distance_aromatic_linkinvent_7_9_3/rearranged_h_0162.sdf

> <i_m_source_file_index>
69

> <r_mmod_Potential_Energy-OPLS-2005>
-104.443702697754

> <r_mmod_Stretch_Energy-OPLS-2005>
43.76513671875

> <r_mmod_Bend_Energy-OPLS-2005>
140.318359375

> <r_mmod_Torsional_Energy-OPLS-2005>
271.735809326172

> <r_mmod_Improper_Torsional_Energy-OPLS-2005>
2.69694972038269

> <r_mmod_Van_der_Waal_Energy-OPLS-2005>
155.809753417969

> <r_mmod_Electrostatic_Energy-OPLS-2005>
-318.090972900391

> <r_mmod_Solvation_Energy-OPLS-2005>
-414.393920898438

> <b_mmod_Minimization_Converged-OPLS-2005>
0

> <r_mmod_RMS_Derivative-OPLS-2005>
1.40379130840302

$$$$
70
                    3D
 Structure written by MMmdl.
167176  0  0  1  0            999 V2000
  -30.6619  -14.5941   20.5062 C   0  0  0  0  0  0
  -30.4255  -12.3671   19.4477 C   0  0  0  0  0  0
  -29.5020  -12.5054   18.2182 C   0  0  0  0  0  0
  -28.0226  -12.3567   18.6270 C   0  0  0  0  0  0
  -27.6516  -13.2168   19.8649 C   0  0  2  0  0  0
  -28.6962  -13.0550   20.9905 C   0  0  0  0  0  0
  -25.2550  -13.8166   20.5684 C   0  0  0  0  0  0
  -24.1819  -13.0433   20.9185 C   0  0  0  0  0  0
  -24.6387  -11.6904   20.8736 C   0  0  0  0  0  0
  -23.9057  -10.4288   21.0401 C   0  0  0  0  0  0
  -24.3609   -9.4207   21.9181 C   0  0  0  0  0  0
  -23.6287   -8.2241   22.0752 C   0  0  0  0  0  0
  -22.4271   -8.0276   21.3542 C   0  0  0  0  0  0
  -21.9901   -9.0249   20.4647 C   0  0  0  0  0  0
  -22.7228  -10.2130   20.3052 C   0  0  0  0  0  0
  -21.6852   -6.0728   22.5276 C   0  0  0  0  0  0
  -21.4013   -6.5632   23.8209 C   0  0  0  0  0  0
  -21.3662   -5.6787   24.9170 C   0  0  0  0  0  0
  -21.6045   -4.3049   24.7223 C   0  0  0  0  0  0
  -21.8819   -3.8140   23.4346 C   0  0  0  0  0  0
  -21.9194   -4.6956   22.3401 C   0  0  0  0  0  0
  -22.7846  -13.5231   21.1847 C   0  0  0  0  0  0
  -22.1665   -4.2140   21.0980 F   0  0  0  0  0  0
  -21.5632   -3.4534   25.7739 F   0  0  0  0  0  0
  -30.0081  -13.3935   20.4226 N   0  0  0  0  0  0
  -26.2977  -12.9350   20.3328 N   0  0  0  0  0  0
  -25.9315  -11.6502   20.5754 N   0  0  0  0  0  0
  -22.0484  -12.8231   22.0407 N   0  0  0  0  0  0
  -25.4254  -15.1885   20.4102 N   0  0  0  0  0  0
  -31.8395  -14.6923   20.1438 O   0  0  0  0  0  0
  -21.6638   -6.8872   21.4238 O   0  0  0  0  0  0
  -22.3535  -14.5539   20.6696 O   0  0  0  0  0  0
  -24.6218  -31.8627   23.2057 C   0  0  0  0  0  0
  -25.9084  -32.4793   23.8373 C   0  0  1  0  0  0
  -27.2267  -27.3592   20.0964 C   0  0  0  0  0  0
  -25.5915  -33.8593   24.2299 N   0  0  0  0  0  0
  -23.4126  -30.4876   21.5481 C   0  0  2  0  0  0
  -24.8559  -28.9469   20.1118 C   0  0  0  0  0  0
  -22.7449  -29.4633   22.4956 C   0  0  0  0  0  0
  -18.0277  -28.1379   22.8490 C   0  0  0  0  0  0
  -24.1486  -36.7303   23.2639 C   0  0  0  0  0  0
  -25.9496  -30.8051   21.3696 C   0  0  0  0  0  0
  -26.0221  -29.4353   20.7117 C   0  0  0  0  0  0
  -27.2062  -28.6494   20.7003 C   0  0  0  0  0  0
  -26.0262  -26.8982   19.5061 C   0  0  0  0  0  0
  -24.8567  -27.6807   19.5066 C   0  0  0  0  0  0
  -23.6242  -29.8247   20.1616 C   0  0  0  0  0  0
  -25.4106  -36.3092   24.0334 C   0  0  1  0  0  0
  -20.5875  -28.3673   23.1302 C   0  0  2  0  0  0
  -20.6763  -26.9402   22.5416 C   0  0  0  0  0  0
  -19.5743  -26.6382   21.5214 C   0  0  0  0  0  0
  -18.1921  -26.7924   22.1625 C   0  0  0  0  0  0
  -19.1529  -28.8843   23.2892 C   0  0  0  0  0  0
  -18.9452  -30.1447   23.8904 C   0  0  0  0  0  0
  -17.6456  -30.6585   24.0562 C   0  0  0  0  0  0
  -25.9042  -34.9460   23.5117 C   0  0  0  0  0  0
  -16.5345  -29.9085   23.6325 C   0  0  0  0  0  0
  -16.7265  -28.6503   23.0348 C   0  0  0  0  0  0
  -26.4485  -31.6591   25.0729 C   0  0  0  0  0  0
  -25.3737  -31.3720   26.1473 C   0  0  0  0  0  0
  -27.0315  -30.3020   24.6151 C   0  0  0  0  0  0
  -27.6058  -32.4315   25.7491 C   0  0  0  0  0  0
  -27.5581  -37.1800   24.8459 C   0  0  0  0  0  0
  -21.4168  -29.3034   22.3704 N   0  0  0  0  0  0
  -26.4285  -37.3786   23.9417 N   0  0  0  0  0  0
  -24.6802  -31.0677   22.0985 N   0  0  0  0  0  0
  -23.4198  -28.8170   23.3015 O   0  0  0  0  0  0
  -28.3845  -26.5804   20.1479 O   0  0  0  0  0  0
  -26.5610  -34.8922   22.4682 O   0  0  0  0  0  0
  -23.5395  -32.1408   23.7412 O   0  0  0  0  0  0
  -29.7735  -23.8378   21.0535 C   0  0  0  0  0  0
  -28.8284  -23.9990   20.0048 C   0  0  0  0  0  0
  -30.0738  -22.5248   21.5369 C   0  0  0  0  0  0
  -28.2617  -22.7918   19.4949 C   0  0  0  0  0  0
  -29.4901  -21.3871   20.9183 C   0  0  0  0  0  0
  -29.4403  -17.7230   22.0354 C   0  0  0  0  0  0
  -30.2955  -18.1501   19.7623 C   0  0  0  0  0  0
  -29.1045  -16.2460   21.6506 C   0  0  0  0  0  0
  -29.9057  -16.6904   19.3767 C   0  0  0  0  0  0
  -29.4036  -18.7520   20.8706 C   0  0  0  0  0  0
  -30.4848  -25.0594   21.6295 C   0  0  0  0  0  0
  -31.0420  -22.3474   22.7085 C   0  0  0  0  0  0
  -27.2453  -22.8024   18.3677 C   0  0  0  0  0  0
  -28.5581  -25.3871   19.3198 C   0  0  0  0  0  0
  -28.5891  -21.5402   19.9293 N   0  0  0  0  0  0
  -29.8778  -15.7259   20.5042 N   0  0  0  0  0  0
  -29.8724  -20.0820   21.3316 N   0  0  0  0  0  0
  -31.4700  -12.4703   19.1476 H   0  0  0  0  0  0
  -30.3410  -11.3708   19.8845 H   0  0  0  0  0  0
  -29.7597  -11.7579   17.4668 H   0  0  0  0  0  0
  -29.6568  -13.4778   17.7479 H   0  0  0  0  0  0
  -27.8452  -11.3031   18.8442 H   0  0  0  0  0  0
  -27.3727  -12.6063   17.7876 H   0  0  0  0  0  0
  -27.6732  -14.2558   19.5371 H   0  0  0  0  0  0
  -28.7028  -12.0291   21.3616 H   0  0  0  0  0  0
  -28.4449  -13.6727   21.8501 H   0  0  0  0  0  0
  -25.2752   -9.5688   22.4755 H   0  0  0  0  0  0
  -23.9997   -7.4631   22.7468 H   0  0  0  0  0  0
  -21.0829   -8.8764   19.8957 H   0  0  0  0  0  0
  -22.3680  -10.9664   19.6163 H   0  0  0  0  0  0
  -21.2004   -7.6140   23.9709 H   0  0  0  0  0  0
  -21.1489   -6.0517   25.9074 H   0  0  0  0  0  0
  -22.0599   -2.7602   23.2845 H   0  0  0  0  0  0
  -22.4096  -11.9896   22.4806 H   0  0  0  0  0  0
  -21.1105  -13.1265   22.2605 H   0  0  0  0  0  0
  -24.6596  -15.8436   20.5230 H   0  0  0  0  0  0
  -26.2793  -15.6269   20.0908 H   0  0  0  0  0  0
  -26.7150  -32.5476   23.1123 H   0  0  0  0  0  0
  -25.0052  -33.9745   25.0437 H   0  0  0  0  0  0
  -22.7042  -31.3068   21.4088 H   0  0  0  0  0  0
  -23.3750  -35.9634   23.3289 H   0  0  0  0  0  0
  -24.3583  -36.8935   22.2056 H   0  0  0  0  0  0
  -23.7235  -37.6502   23.6665 H   0  0  0  0  0  0
  -26.0748  -31.5704   20.6024 H   0  0  0  0  0  0
  -26.8328  -30.8534   21.9951 H   0  0  0  0  0  0
  -28.1045  -29.0228   21.1719 H   0  0  0  0  0  0
  -25.9422  -25.9166   19.0678 H   0  0  0  0  0  0
  -23.9547  -27.2928   19.0534 H   0  0  0  0  0  0
  -23.7431  -30.6027   19.4066 H   0  0  0  0  0  0
  -22.7441  -29.2545   19.8589 H   0  0  0  0  0  0
  -25.1282  -36.1946   25.0826 H   0  0  0  0  0  0
  -20.9965  -28.3237   24.1425 H   0  0  0  0  0  0
  -20.5660  -26.2281   23.3609 H   0  0  0  0  0  0
  -21.6633  -26.7432   22.1215 H   0  0  0  0  0  0
  -19.6903  -25.6295   21.1237 H   0  0  0  0  0  0
  -19.6684  -27.3195   20.6747 H   0  0  0  0  0  0
  -17.4195  -26.6673   21.4025 H   0  0  0  0  0  0
  -18.0320  -26.0064   22.9019 H   0  0  0  0  0  0
  -19.7930  -30.7253   24.2283 H   0  0  0  0  0  0
  -17.5012  -31.6267   24.5162 H   0  0  0  0  0  0
  -15.5345  -30.2988   23.7646 H   0  0  0  0  0  0
  -15.8667  -28.0823   22.7055 H   0  0  0  0  0  0
  -24.5910  -30.7065   25.7815 H   0  0  0  0  0  0
  -24.8929  -32.2881   26.4914 H   0  0  0  0  0  0
  -25.8082  -30.8897   27.0238 H   0  0  0  0  0  0
  -26.2869  -29.6784   24.1188 H   0  0  0  0  0  0
  -27.4036  -29.7261   25.4635 H   0  0  0  0  0  0
  -27.8731  -30.4314   23.9342 H   0  0  0  0  0  0
  -27.2681  -33.3614   26.2079 H   0  0  0  0  0  0
  -28.3861  -32.6877   25.0313 H   0  0  0  0  0  0
  -28.0734  -31.8434   26.5398 H   0  0  0  0  0  0
  -28.2585  -38.0111   24.7525 H   0  0  0  0  0  0
  -28.1087  -36.2643   24.6249 H   0  0  0  0  0  0
  -27.2309  -37.1409   25.8864 H   0  0  0  0  0  0
  -20.9334  -29.8774   21.6937 H   0  0  0  0  0  0
  -26.0167  -38.2859   24.1434 H   0  0  0  0  0  0
  -30.4347  -17.7311   22.4847 H   0  0  0  0  0  0
  -28.7580  -18.0444   22.8239 H   0  0  0  0  0  0
  -30.2468  -18.7827   18.8750 H   0  0  0  0  0  0
  -31.3385  -18.1594   20.0827 H   0  0  0  0  0  0
  -28.0439  -16.1661   21.4103 H   0  0  0  0  0  0
  -29.2698  -15.6206   22.5289 H   0  0  0  0  0  0
  -30.5733  -16.3411   18.5867 H   0  0  0  0  0  0
  -28.9112  -16.6960   18.9285 H   0  0  0  0  0  0
  -28.3804  -18.8458   20.5033 H   0  0  0  0  0  0
  -30.6913  -25.8035   20.8618 H   0  0  0  0  0  0
  -31.4549  -24.8202   22.0621 H   0  0  0  0  0  0
  -29.8707  -25.5264   22.3997 H   0  0  0  0  0  0
  -30.9039  -23.1283   23.4564 H   0  0  0  0  0  0
  -32.0738  -22.3823   22.3582 H   0  0  0  0  0  0
  -30.8980  -21.4089   23.2426 H   0  0  0  0  0  0
  -26.3819  -23.4108   18.6365 H   0  0  0  0  0  0
  -26.8815  -21.7987   18.1446 H   0  0  0  0  0  0
  -27.6865  -23.2029   17.4551 H   0  0  0  0  0  0
  -27.8193  -25.3084   18.5296 H   0  0  0  0  0  0
  -29.4679  -25.5870   18.7532 H   0  0  0  0  0  0
  -30.5685  -20.0557   22.0660 H   0  0  0  0  0  0
  1 25  1  0  0  0
  1 30  2  0  0  0
  1 86  1  0  0  0
  2  3  1  0  0  0
  2 25  1  0  0  0
  2 88  1  0  0  0
  2 89  1  0  0  0
  3  4  1  0  0  0
  3 90  1  0  0  0
  3 91  1  0  0  0
  4  5  1  0  0  0
  4 92  1  0  0  0
  4 93  1  0  0  0
  5  6  1  0  0  0
  5 26  1  0  0  0
  5 94  1  0  0  0
  6 25  1  0  0  0
  6 95  1  0  0  0
  6 96  1  0  0  0
  7  8  2  0  0  0
  7 26  1  0  0  0
  7 29  1  0  0  0
  8  9  1  0  0  0
  8 22  1  0  0  0
  9 10  1  0  0  0
  9 27  2  0  0  0
 10 11  2  0  0  0
 10 15  1  0  0  0
 11 12  1  0  0  0
 11 97  1  0  0  0
 12 13  2  0  0  0
 12 98  1  0  0  0
 13 14  1  0  0  0
 13 31  1  0  0  0
 14 15  2  0  0  0
 14 99  1  0  0  0
 15100  1  0  0  0
 16 17  2  0  0  0
 16 21  1  0  0  0
 16 31  1  0  0  0
 17 18  1  0  0  0
 17101  1  0  0  0
 18 19  2  0  0  0
 18102  1  0  0  0
 19 20  1  0  0  0
 19 24  1  0  0  0
 20 21  2  0  0  0
 20103  1  0  0  0
 21 23  1  0  0  0
 22 28  1  0  0  0
 22 32  2  0  0  0
 26 27  1  0  0  0
 28104  1  0  0  0
 28105  1  0  0  0
 29106  1  0  0  0
 29107  1  0  0  0
 33 34  1  0  0  0
 33 66  1  0  0  0
 33 70  2  0  0  0
 34 36  1  0  0  0
 34 59  1  0  0  0
 34108  1  0  0  0
 35 44  2  0  0  0
 35 45  1  0  0  0
 35 68  1  0  0  0
 36 56  1  0  0  0
 36109  1  0  0  0
 37 39  1  0  0  0
 37 47  1  0  0  0
 37 66  1  0  0  0
 37110  1  0  0  0
 38 43  2  0  0  0
 38 46  1  0  0  0
 38 47  1  0  0  0
 39 64  1  0  0  0
 39 67  2  0  0  0
 40 52  1  0  0  0
 40 53  2  0  0  0
 40 58  1  0  0  0
 41111  1  0  0  0
 41112  1  0  0  0
 41113  1  0  0  0
 41 48  1  0  0  0
 42 43  1  0  0  0
 42 66  1  0  0  0
 42114  1  0  0  0
 42115  1  0  0  0
 43 44  1  0  0  0
 44116  1  0  0  0
 45 46  2  0  0  0
 45117  1  0  0  0
 46118  1  0  0  0
 47119  1  0  0  0
 47120  1  0  0  0
 48 56  1  0  0  0
 48 65  1  0  0  0
 48121  1  0  0  0
 49 50  1  0  0  0
 49 53  1  0  0  0
 49 64  1  0  0  0
 49122  1  0  0  0
 50 51  1  0  0  0
 50123  1  0  0  0
 50124  1  0  0  0
 51 52  1  0  0  0
 51125  1  0  0  0
 51126  1  0  0  0
 52127  1  0  0  0
 52128  1  0  0  0
 53 54  1  0  0  0
 54 55  2  0  0  0
 54129  1  0  0  0
 55 57  1  0  0  0
 55130  1  0  0  0
 56 69  2  0  0  0
 57 58  2  0  0  0
 57131  1  0  0  0
 58132  1  0  0  0
 59 60  1  0  0  0
 59 61  1  0  0  0
 59 62  1  0  0  0
 60133  1  0  0  0
 60134  1  0  0  0
 60135  1  0  0  0
 61136  1  0  0  0
 61137  1  0  0  0
 61138  1  0  0  0
 62139  1  0  0  0
 62140  1  0  0  0
 62141  1  0  0  0
 63 65  1  0  0  0
 63142  1  0  0  0
 63143  1  0  0  0
 63144  1  0  0  0
 64145  1  0  0  0
 65146  1  0  0  0
 68 84  1  0  0  0
 71 72  2  0  0  0
 71 73  1  0  0  0
 71 81  1  0  0  0
 72 74  1  0  0  0
 72 84  1  0  0  0
 73 75  2  0  0  0
 73 82  1  0  0  0
 74 83  1  0  0  0
 74 85  2  0  0  0
 75 85  1  0  0  0
 75 87  1  0  0  0
 76 78  1  0  0  0
 76 80  1  0  0  0
 76147  1  0  0  0
 76148  1  0  0  0
 77 79  1  0  0  0
 77 80  1  0  0  0
 77149  1  0  0  0
 77150  1  0  0  0
 78 86  1  0  0  0
 78151  1  0  0  0
 78152  1  0  0  0
 79 86  1  0  0  0
 79153  1  0  0  0
 79154  1  0  0  0
 80 87  1  0  0  0
 80155  1  0  0  0
 81156  1  0  0  0
 81157  1  0  0  0
 81158  1  0  0  0
 82159  1  0  0  0
 82160  1  0  0  0
 82161  1  0  0  0
 83162  1  0  0  0
 83163  1  0  0  0
 83164  1  0  0  0
 84165  1  0  0  0
 84166  1  0  0  0
 87167  1  0  0  0
M  ISO  4   1 100  68 101  84 101  86 100
M  END
> <chiral flag>
0

> <version>
0

> <s_m_source_file>
/data/baiqing/PycharmProjects/Reinvent-master-3.2/result/LINK_invent/BTK/process_docking_weight1_custom_sum_contain_oxygen_bond_distance_aromatic_linkinvent_7_9_3/rearranged_h_0162.sdf

> <i_m_source_file_index>
70

> <r_mmod_Potential_Energy-OPLS-2005>
28.2489013671875

> <r_mmod_Stretch_Energy-OPLS-2005>
64.1628265380859

> <r_mmod_Bend_Energy-OPLS-2005>
156.664657592773

> <r_mmod_Torsional_Energy-OPLS-2005>
319.868774414062

> <r_mmod_Improper_Torsional_Energy-OPLS-2005>
16.8150539398193

> <r_mmod_Van_der_Waal_Energy-OPLS-2005>
159.460647583008

> <r_mmod_Electrostatic_Energy-OPLS-2005>
-499.271728515625

> <r_mmod_Solvation_Energy-OPLS-2005>
-222.856796264648

> <b_mmod_Minimization_Converged-OPLS-2005>
0

> <r_mmod_RMS_Derivative-OPLS-2005>
0.630595982074738

$$$$
71
                    3D
 Structure written by MMmdl.
167176  0  0  1  0            999 V2000
  -30.6824  -14.5428   20.5490 C   0  0  0  0  0  0
  -30.4278  -12.3453   19.4442 C   0  0  0  0  0  0
  -29.5043  -12.5088   18.2185 C   0  0  0  0  0  0
  -28.0254  -12.3581   18.6274 C   0  0  0  0  0  0
  -27.6577  -13.2137   19.8683 C   0  0  2  0  0  0
  -28.6981  -13.0439   20.9988 C   0  0  0  0  0  0
  -25.2583  -13.8174   20.5692 C   0  0  0  0  0  0
  -24.1828  -13.0454   20.9179 C   0  0  0  0  0  0
  -24.6366  -11.6914   20.8716 C   0  0  0  0  0  0
  -23.9021  -10.4305   21.0403 C   0  0  0  0  0  0
  -24.3578   -9.4225   21.9175 C   0  0  0  0  0  0
  -23.6276   -8.2248   22.0750 C   0  0  0  0  0  0
  -22.4267   -8.0274   21.3539 C   0  0  0  0  0  0
  -21.9893   -9.0239   20.4648 C   0  0  0  0  0  0
  -22.7197  -10.2134   20.3056 C   0  0  0  0  0  0
  -21.6863   -6.0717   22.5271 C   0  0  0  0  0  0
  -21.4011   -6.5617   23.8204 C   0  0  0  0  0  0
  -21.3657   -5.6760   24.9159 C   0  0  0  0  0  0
  -21.6056   -4.3030   24.7209 C   0  0  0  0  0  0
  -21.8819   -3.8129   23.4323 C   0  0  0  0  0  0
  -21.9197   -4.6939   22.3384 C   0  0  0  0  0  0
  -22.7849  -13.5260   21.1813 C   0  0  0  0  0  0
  -22.1677   -4.2131   21.0957 F   0  0  0  0  0  0
  -21.5631   -3.4511   25.7716 F   0  0  0  0  0  0
  -30.0235  -13.3527   20.4411 N   0  0  0  0  0  0
  -26.3004  -12.9334   20.3330 N   0  0  0  0  0  0
  -25.9305  -11.6497   20.5727 N   0  0  0  0  0  0
  -22.0464  -12.8289   22.0367 N   0  0  0  0  0  0
  -25.4308  -15.1889   20.4105 N   0  0  0  0  0  0
  -31.8236  -14.7008   20.1118 O   0  0  0  0  0  0
  -21.6642   -6.8864   21.4243 O   0  0  0  0  0  0
  -22.3547  -14.5559   20.6625 O   0  0  0  0  0  0
  -24.6185  -31.8618   23.2076 C   0  0  0  0  0  0
  -25.9068  -32.4797   23.8373 C   0  0  1  0  0  0
  -27.2296  -27.3884   20.0969 C   0  0  0  0  0  0
  -25.5907  -33.8602   24.2317 N   0  0  0  0  0  0
  -23.4103  -30.4866   21.5429 C   0  0  2  0  0  0
  -24.8581  -28.9503   20.1016 C   0  0  0  0  0  0
  -22.7442  -29.4614   22.4897 C   0  0  0  0  0  0
  -18.0283  -28.1392   22.8457 C   0  0  0  0  0  0
  -24.1475  -36.7301   23.2641 C   0  0  0  0  0  0
  -25.9430  -30.8097   21.3710 C   0  0  0  0  0  0
  -26.0154  -29.4423   20.7146 C   0  0  0  0  0  0
  -27.1999  -28.6624   20.7217 C   0  0  0  0  0  0
  -26.0521  -26.9239   19.4710 C   0  0  0  0  0  0
  -24.8709  -27.6906   19.4774 C   0  0  0  0  0  0
  -23.6247  -29.8246   20.1544 C   0  0  0  0  0  0
  -25.4096  -36.3102   24.0349 C   0  0  1  0  0  0
  -20.5871  -28.3676   23.1261 C   0  0  2  0  0  0
  -20.6767  -26.9397   22.5395 C   0  0  0  0  0  0
  -19.5747  -26.6387   21.5189 C   0  0  0  0  0  0
  -18.1923  -26.7935   22.1602 C   0  0  0  0  0  0
  -19.1530  -28.8849   23.2861 C   0  0  0  0  0  0
  -18.9472  -30.1447   23.8879 C   0  0  0  0  0  0
  -17.6475  -30.6592   24.0547 C   0  0  0  0  0  0
  -25.9025  -34.9467   23.5131 C   0  0  0  0  0  0
  -16.5366  -29.9094   23.6313 C   0  0  0  0  0  0
  -16.7273  -28.6510   23.0336 C   0  0  0  0  0  0
  -26.4486  -31.6592   25.0717 C   0  0  0  0  0  0
  -25.3788  -31.3692   26.1492 C   0  0  0  0  0  0
  -27.0347  -30.3041   24.6126 C   0  0  0  0  0  0
  -27.6054  -32.4334   25.7470 C   0  0  0  0  0  0
  -27.5577  -37.1800   24.8465 C   0  0  0  0  0  0
  -21.4161  -29.3044   22.3666 N   0  0  0  0  0  0
  -26.4274  -37.3792   23.9428 N   0  0  0  0  0  0
  -24.6752  -31.0695   22.0982 N   0  0  0  0  0  0
  -23.4191  -28.8142   23.2950 O   0  0  0  0  0  0
  -28.3622  -26.5945   20.2019 O   0  0  0  0  0  0
  -26.5569  -34.8927   22.4681 O   0  0  0  0  0  0
  -23.5380  -32.1363   23.7466 O   0  0  0  0  0  0
  -27.3886  -22.1535   19.9046 C   0  0  0  0  0  0
  -28.4722  -23.0594   19.6949 C   0  0  0  0  0  0
  -27.6463  -20.8428   20.4152 C   0  0  0  0  0  0
  -29.7485  -22.6117   20.1282 C   0  0  0  0  0  0
  -28.9716  -20.4850   20.7680 C   0  0  0  0  0  0
  -30.5232  -17.5617   22.4856 C   0  0  0  0  0  0
  -30.3067  -19.0720   22.3212 C   0  0  0  0  0  0
  -29.4180  -18.0380   20.3853 C   0  0  0  0  0  0
  -30.3939  -17.0195   21.0547 C   0  0  2  0  0  0
  -25.9654  -22.5742   19.5347 C   0  0  0  0  0  0
  -26.5060  -19.8301   20.5627 C   0  0  0  0  0  0
  -30.9967  -23.4582   19.9801 C   0  0  0  0  0  0
  -28.2825  -24.3295   18.7927 C   0  0  0  0  0  0
  -28.8196  -25.7813   19.1027 C   0  0  0  0  0  0
  -29.9716  -21.3836   20.6606 N   0  0  0  0  0  0
  -29.2968  -19.1980   21.2822 N   0  0  0  0  0  0
  -29.9622  -15.5955   21.0115 N   0  0  0  0  0  0
  -31.4746  -12.4455   19.1482 H   0  0  0  0  0  0
  -30.3315  -11.3416   19.8636 H   0  0  0  0  0  0
  -29.7606  -11.7735   17.4550 H   0  0  0  0  0  0
  -29.6605  -13.4891   17.7633 H   0  0  0  0  0  0
  -27.8509  -11.3032   18.8449 H   0  0  0  0  0  0
  -27.3717  -12.6081   17.7892 H   0  0  0  0  0  0
  -27.6886  -14.2538   19.5422 H   0  0  0  0  0  0
  -28.6869  -12.0241   21.3866 H   0  0  0  0  0  0
  -28.4490  -13.6822   21.8472 H   0  0  0  0  0  0
  -25.2722   -9.5715   22.4739 H   0  0  0  0  0  0
  -23.9998   -7.4641   22.7469 H   0  0  0  0  0  0
  -21.0826   -8.8741   19.8955 H   0  0  0  0  0  0
  -22.3650  -10.9652   19.6151 H   0  0  0  0  0  0
  -21.2007   -7.6129   23.9693 H   0  0  0  0  0  0
  -21.1492   -6.0493   25.9057 H   0  0  0  0  0  0
  -22.0613   -2.7598   23.2806 H   0  0  0  0  0  0
  -22.4054  -11.9966   22.4808 H   0  0  0  0  0  0
  -21.1082  -13.1351   22.2509 H   0  0  0  0  0  0
  -24.6559  -15.8391   20.4868 H   0  0  0  0  0  0
  -26.2707  -15.6181   20.0454 H   0  0  0  0  0  0
  -26.7123  -32.5478   23.1118 H   0  0  0  0  0  0
  -25.0145  -33.9719   25.0521 H   0  0  0  0  0  0
  -22.7004  -31.3043   21.4039 H   0  0  0  0  0  0
  -23.3757  -35.9617   23.3306 H   0  0  0  0  0  0
  -24.3578  -36.8913   22.2059 H   0  0  0  0  0  0
  -23.7203  -37.6502   23.6640 H   0  0  0  0  0  0
  -26.0663  -31.5748   20.6028 H   0  0  0  0  0  0
  -26.8282  -30.8579   21.9938 H   0  0  0  0  0  0
  -28.0847  -29.0253   21.2268 H   0  0  0  0  0  0
  -26.0053  -25.9537   19.0088 H   0  0  0  0  0  0
  -23.9779  -27.3013   19.0065 H   0  0  0  0  0  0
  -23.7471  -30.6032   19.4003 H   0  0  0  0  0  0
  -22.7480  -29.2517   19.8491 H   0  0  0  0  0  0
  -25.1274  -36.1966   25.0843 H   0  0  0  0  0  0
  -20.9944  -28.3291   24.1386 H   0  0  0  0  0  0
  -20.5644  -26.2303   23.3606 H   0  0  0  0  0  0
  -21.6645  -26.7431   22.1203 H   0  0  0  0  0  0
  -19.6905  -25.6297   21.1220 H   0  0  0  0  0  0
  -19.6708  -27.3198   20.6718 H   0  0  0  0  0  0
  -17.4191  -26.6668   21.4005 H   0  0  0  0  0  0
  -18.0335  -26.0087   22.9013 H   0  0  0  0  0  0
  -19.7962  -30.7241   24.2250 H   0  0  0  0  0  0
  -17.5053  -31.6247   24.5204 H   0  0  0  0  0  0
  -15.5369  -30.3010   23.7628 H   0  0  0  0  0  0
  -15.8676  -28.0834   22.7055 H   0  0  0  0  0  0
  -24.5949  -30.7034   25.7853 H   0  0  0  0  0  0
  -24.8991  -32.2846   26.4975 H   0  0  0  0  0  0
  -25.8190  -30.8855   27.0226 H   0  0  0  0  0  0
  -26.2892  -29.6765   24.1230 H   0  0  0  0  0  0
  -27.4167  -29.7319   25.4591 H   0  0  0  0  0  0
  -27.8700  -30.4364   23.9253 H   0  0  0  0  0  0
  -27.2651  -33.3623   26.2057 H   0  0  0  0  0  0
  -28.3844  -32.6921   25.0286 H   0  0  0  0  0  0
  -28.0742  -31.8472   26.5380 H   0  0  0  0  0  0
  -28.2590  -38.0097   24.7539 H   0  0  0  0  0  0
  -28.1078  -36.2646   24.6263 H   0  0  0  0  0  0
  -27.2306  -37.1420   25.8863 H   0  0  0  0  0  0
  -20.9326  -29.8810   21.6921 H   0  0  0  0  0  0
  -26.0183  -38.2865   24.1479 H   0  0  0  0  0  0
  -29.7404  -17.1485   23.1246 H   0  0  0  0  0  0
  -31.4837  -17.3270   22.9454 H   0  0  0  0  0  0
  -31.2330  -19.5569   22.0023 H   0  0  0  0  0  0
  -29.9741  -19.5411   23.2486 H   0  0  0  0  0  0
  -28.4378  -17.5898   20.2257 H   0  0  0  0  0  0
  -29.7963  -18.3548   19.4124 H   0  0  0  0  0  0
  -31.3665  -17.1366   20.5720 H   0  0  0  0  0  0
  -25.8432  -22.6034   18.4521 H   0  0  0  0  0  0
  -25.7477  -23.5652   19.9354 H   0  0  0  0  0  0
  -25.1867  -21.9230   19.9245 H   0  0  0  0  0  0
  -26.0994  -19.5756   19.5823 H   0  0  0  0  0  0
  -25.7068  -20.2342   21.1820 H   0  0  0  0  0  0
  -26.7972  -18.9003   21.0466 H   0  0  0  0  0  0
  -31.0921  -23.8399   18.9640 H   0  0  0  0  0  0
  -31.8991  -22.8849   20.1969 H   0  0  0  0  0  0
  -30.9664  -24.2955   20.6783 H   0  0  0  0  0  0
  -27.2597  -24.4099   18.4490 H   0  0  0  0  0  0
  -28.7938  -24.0462   17.8720 H   0  0  0  0  0  0
  -28.6646  -26.3754   18.1991 H   0  0  0  0  0  0
  -29.9017  -25.7530   19.1990 H   0  0  0  0  0  0
  -29.0265  -15.3922   21.3245 H   0  0  0  0  0  0
  1 25  1  0  0  0
  1 30  2  0  0  0
  1 87  1  0  0  0
  2  3  1  0  0  0
  2 25  1  0  0  0
  2 88  1  0  0  0
  2 89  1  0  0  0
  3  4  1  0  0  0
  3 90  1  0  0  0
  3 91  1  0  0  0
  4  5  1  0  0  0
  4 92  1  0  0  0
  4 93  1  0  0  0
  5  6  1  0  0  0
  5 26  1  0  0  0
  5 94  1  0  0  0
  6 25  1  0  0  0
  6 95  1  0  0  0
  6 96  1  0  0  0
  7  8  2  0  0  0
  7 26  1  0  0  0
  7 29  1  0  0  0
  8  9  1  0  0  0
  8 22  1  0  0  0
  9 10  1  0  0  0
  9 27  2  0  0  0
 10 11  2  0  0  0
 10 15  1  0  0  0
 11 12  1  0  0  0
 11 97  1  0  0  0
 12 13  2  0  0  0
 12 98  1  0  0  0
 13 14  1  0  0  0
 13 31  1  0  0  0
 14 15  2  0  0  0
 14 99  1  0  0  0
 15100  1  0  0  0
 16 17  2  0  0  0
 16 21  1  0  0  0
 16 31  1  0  0  0
 17 18  1  0  0  0
 17101  1  0  0  0
 18 19  2  0  0  0
 18102  1  0  0  0
 19 20  1  0  0  0
 19 24  1  0  0  0
 20 21  2  0  0  0
 20103  1  0  0  0
 21 23  1  0  0  0
 22 28  1  0  0  0
 22 32  2  0  0  0
 26 27  1  0  0  0
 28104  1  0  0  0
 28105  1  0  0  0
 29106  1  0  0  0
 29107  1  0  0  0
 33 34  1  0  0  0
 33 66  1  0  0  0
 33 70  2  0  0  0
 34 36  1  0  0  0
 34 59  1  0  0  0
 34108  1  0  0  0
 35 44  2  0  0  0
 35 45  1  0  0  0
 35 68  1  0  0  0
 36 56  1  0  0  0
 36109  1  0  0  0
 37 39  1  0  0  0
 37 47  1  0  0  0
 37 66  1  0  0  0
 37110  1  0  0  0
 38 43  2  0  0  0
 38 46  1  0  0  0
 38 47  1  0  0  0
 39 64  1  0  0  0
 39 67  2  0  0  0
 40 52  1  0  0  0
 40 53  2  0  0  0
 40 58  1  0  0  0
 41111  1  0  0  0
 41112  1  0  0  0
 41113  1  0  0  0
 41 48  1  0  0  0
 42 43  1  0  0  0
 42 66  1  0  0  0
 42114  1  0  0  0
 42115  1  0  0  0
 43 44  1  0  0  0
 44116  1  0  0  0
 45 46  2  0  0  0
 45117  1  0  0  0
 46118  1  0  0  0
 47119  1  0  0  0
 47120  1  0  0  0
 48 56  1  0  0  0
 48 65  1  0  0  0
 48121  1  0  0  0
 49 50  1  0  0  0
 49 53  1  0  0  0
 49 64  1  0  0  0
 49122  1  0  0  0
 50 51  1  0  0  0
 50123  1  0  0  0
 50124  1  0  0  0
 51 52  1  0  0  0
 51125  1  0  0  0
 51126  1  0  0  0
 52127  1  0  0  0
 52128  1  0  0  0
 53 54  1  0  0  0
 54 55  2  0  0  0
 54129  1  0  0  0
 55 57  1  0  0  0
 55130  1  0  0  0
 56 69  2  0  0  0
 57 58  2  0  0  0
 57131  1  0  0  0
 58132  1  0  0  0
 59 60  1  0  0  0
 59 61  1  0  0  0
 59 62  1  0  0  0
 60133  1  0  0  0
 60134  1  0  0  0
 60135  1  0  0  0
 61136  1  0  0  0
 61137  1  0  0  0
 61138  1  0  0  0
 62139  1  0  0  0
 62140  1  0  0  0
 62141  1  0  0  0
 63 65  1  0  0  0
 63142  1  0  0  0
 63143  1  0  0  0
 63144  1  0  0  0
 64145  1  0  0  0
 65146  1  0  0  0
 68 84  1  0  0  0
 71 72  2  0  0  0
 71 73  1  0  0  0
 71 80  1  0  0  0
 72 74  1  0  0  0
 72 83  1  0  0  0
 73 75  2  0  0  0
 73 81  1  0  0  0
 74 82  1  0  0  0
 74 85  2  0  0  0
 75 85  1  0  0  0
 75 86  1  0  0  0
 76 77  1  0  0  0
 76 79  1  0  0  0
 76147  1  0  0  0
 76148  1  0  0  0
 77 86  1  0  0  0
 77149  1  0  0  0
 77150  1  0  0  0
 78 79  1  0  0  0
 78 86  1  0  0  0
 78151  1  0  0  0
 78152  1  0  0  0
 79 87  1  0  0  0
 79153  1  0  0  0
 80154  1  0  0  0
 80155  1  0  0  0
 80156  1  0  0  0
 81157  1  0  0  0
 81158  1  0  0  0
 81159  1  0  0  0
 82160  1  0  0  0
 82161  1  0  0  0
 82162  1  0  0  0
 83 84  1  0  0  0
 83163  1  0  0  0
 83164  1  0  0  0
 84165  1  0  0  0
 84166  1  0  0  0
 87167  1  0  0  0
M  ISO  4   1 100  68 101  84 101  87 100
M  END
> <chiral flag>
0

> <version>
0

> <s_m_source_file>
/data/baiqing/PycharmProjects/Reinvent-master-3.2/result/LINK_invent/BTK/process_docking_weight1_custom_sum_contain_oxygen_bond_distance_aromatic_linkinvent_7_9_3/rearranged_h_0162.sdf

> <i_m_source_file_index>
71

> <r_mmod_Potential_Energy-OPLS-2005>
-187.576293945312

> <r_mmod_Stretch_Energy-OPLS-2005>
54.7630844116211

> <r_mmod_Bend_Energy-OPLS-2005>
180.283782958984

> <r_mmod_Torsional_Energy-OPLS-2005>
270.500030517578

> <r_mmod_Improper_Torsional_Energy-OPLS-2005>
9.2687931060791

> <r_mmod_Van_der_Waal_Energy-OPLS-2005>
159.026489257812

> <r_mmod_Electrostatic_Energy-OPLS-2005>
-645.100708007812

> <r_mmod_Solvation_Energy-OPLS-2005>
-242.749816894531

> <b_mmod_Minimization_Converged-OPLS-2005>
0

> <r_mmod_RMS_Derivative-OPLS-2005>
3.45585060119629

$$$$
72
                    3D
 Structure written by MMmdl.
176186  0  0  1  0            999 V2000
  -30.7457  -14.4864   20.5529 C   0  0  0  0  0  0
  -30.4173  -12.3219   19.4147 C   0  0  0  0  0  0
  -29.4772  -12.4611   18.2014 C   0  0  0  0  0  0
  -28.0111  -12.2636   18.6325 C   0  0  0  0  0  0
  -27.6332  -13.1468   19.8444 C   0  0  2  0  0  0
  -28.6930  -13.0535   20.9734 C   0  0  0  0  0  0
  -25.2580  -13.7960   20.5694 C   0  0  0  0  0  0
  -24.1784  -13.0344   20.9224 C   0  0  0  0  0  0
  -24.6271  -11.6788   20.8826 C   0  0  0  0  0  0
  -23.8937  -10.4230   21.0489 C   0  0  0  0  0  0
  -24.3519   -9.4147   21.9249 C   0  0  0  0  0  0
  -23.6217   -8.2185   22.0787 C   0  0  0  0  0  0
  -22.4215   -8.0234   21.3548 C   0  0  0  0  0  0
  -21.9833   -9.0210   20.4668 C   0  0  0  0  0  0
  -22.7140  -10.2094   20.3109 C   0  0  0  0  0  0
  -21.6817   -6.0706   22.5276 C   0  0  0  0  0  0
  -21.3983   -6.5622   23.8213 C   0  0  0  0  0  0
  -21.3657   -5.6779   24.9178 C   0  0  0  0  0  0
  -21.6049   -4.3048   24.7233 C   0  0  0  0  0  0
  -21.8817   -3.8126   23.4360 C   0  0  0  0  0  0
  -21.9174   -4.6939   22.3410 C   0  0  0  0  0  0
  -22.7842  -13.5247   21.1864 C   0  0  0  0  0  0
  -22.1644   -4.2133   21.0983 F   0  0  0  0  0  0
  -21.5643   -3.4540   25.7752 F   0  0  0  0  0  0
  -30.0235  -13.3382   20.4038 N   0  0  0  0  0  0
  -26.2878  -12.8962   20.3312 N   0  0  0  0  0  0
  -25.9160  -11.6220   20.5836 N   0  0  0  0  0  0
  -22.0406  -12.8309   22.0402 N   0  0  0  0  0  0
  -25.4383  -15.1674   20.4063 N   0  0  0  0  0  0
  -31.9030  -14.6035   20.1404 O   0  0  0  0  0  0
  -21.6579   -6.8841   21.4241 O   0  0  0  0  0  0
  -22.3603  -14.5580   20.6701 O   0  0  0  0  0  0
  -24.6116  -31.8683   23.2103 C   0  0  0  0  0  0
  -25.9037  -32.4808   23.8397 C   0  0  1  0  0  0
  -27.2654  -27.4685   20.1097 C   0  0  0  0  0  0
  -25.5898  -33.8609   24.2332 N   0  0  0  0  0  0
  -23.3992  -30.4874   21.5479 C   0  0  2  0  0  0
  -24.8542  -28.9561   20.1112 C   0  0  0  0  0  0
  -22.7395  -29.4665   22.5013 C   0  0  0  0  0  0
  -18.0272  -28.1400   22.8492 C   0  0  0  0  0  0
  -24.1473  -36.7304   23.2638 C   0  0  0  0  0  0
  -25.9196  -30.8483   21.3557 C   0  0  0  0  0  0
  -26.0048  -29.4831   20.7102 C   0  0  0  0  0  0
  -27.2084  -28.7505   20.7092 C   0  0  0  0  0  0
  -26.1034  -26.9602   19.4914 C   0  0  0  0  0  0
  -24.8978  -27.6920   19.4952 C   0  0  0  0  0  0
  -23.6070  -29.8112   20.1635 C   0  0  0  0  0  0
  -25.4093  -36.3095   24.0338 C   0  0  1  0  0  0
  -20.5850  -28.3674   23.1338 C   0  0  2  0  0  0
  -20.6754  -26.9404   22.5461 C   0  0  0  0  0  0
  -19.5753  -26.6386   21.5230 C   0  0  0  0  0  0
  -18.1905  -26.7968   22.1580 C   0  0  0  0  0  0
  -19.1518  -28.8856   23.2913 C   0  0  0  0  0  0
  -18.9447  -30.1467   23.8915 C   0  0  0  0  0  0
  -17.6446  -30.6588   24.0596 C   0  0  0  0  0  0
  -25.9031  -34.9463   23.5131 C   0  0  0  0  0  0
  -16.5344  -29.9091   23.6347 C   0  0  0  0  0  0
  -16.7267  -28.6525   23.0343 C   0  0  0  0  0  0
  -26.4489  -31.6573   25.0714 C   0  0  0  0  0  0
  -25.3771  -31.3685   26.1470 C   0  0  0  0  0  0
  -27.0308  -30.3006   24.6079 C   0  0  0  0  0  0
  -27.6070  -32.4298   25.7457 C   0  0  0  0  0  0
  -27.5601  -37.1777   24.8446 C   0  0  0  0  0  0
  -21.4130  -29.3028   22.3740 N   0  0  0  0  0  0
  -26.4272  -37.3794   23.9444 N   0  0  0  0  0  0
  -24.6611  -31.0817   22.0973 N   0  0  0  0  0  0
  -23.4172  -28.8238   23.3079 O   0  0  0  0  0  0
  -28.3992  -26.6785   20.1084 O   0  0  0  0  0  0
  -26.5575  -34.8920   22.4688 O   0  0  0  0  0  0
  -23.5320  -32.1426   23.7525 O   0  0  0  0  0  0
  -31.9243  -23.5073   22.0976 C   0  0  0  0  0  0
  -31.9513  -24.6583   22.9025 C   0  0  0  0  0  0
  -30.2573  -24.5577   20.6658 C   0  0  0  0  0  0
  -31.0652  -23.4335   20.9789 C   0  0  0  0  0  0
  -31.1196  -25.7578   22.6091 C   0  0  0  0  0  0
  -30.2571  -25.7126   21.4831 C   0  0  0  0  0  0
  -31.2505  -17.7827   21.4835 C   0  0  0  0  0  0
  -29.4597  -17.5654   19.7726 C   0  0  0  0  0  0
  -29.7139  -21.9603   19.3601 C   0  0  0  0  0  0
  -30.7922  -16.4314   22.0951 C   0  0  0  0  0  0
  -29.0372  -16.2406   20.4081 C   0  0  0  0  0  0
  -29.5170  -20.4455   19.2418 C   0  0  0  0  0  0
  -31.0948  -20.8584   20.9540 C   0  0  0  0  0  0
  -30.1004  -18.5401   20.7745 C   0  0  0  0  0  0
  -31.0381  -22.1610   20.1172 C   0  0  2  0  0  0
  -31.1777  -26.9744   23.5193 C   0  0  0  0  0  0
  -32.2197  -22.2313   19.1235 C   0  0  0  0  0  0
  -29.3257  -26.8906   21.1815 C   0  0  0  0  0  0
  -30.1223  -15.5521   21.1203 N   0  0  0  0  0  0
  -30.5485  -19.7911   20.0859 N   0  3  1  0  0  0
  -31.4556  -12.4252   19.0931 H   0  0  0  0  0  0
  -30.3426  -11.3247   19.8505 H   0  0  0  0  0  0
  -29.7396  -11.7254   17.4397 H   0  0  0  0  0  0
  -29.6004  -13.4407   17.7359 H   0  0  0  0  0  0
  -27.8780  -11.2110   18.8862 H   0  0  0  0  0  0
  -27.3405  -12.4591   17.7946 H   0  0  0  0  0  0
  -27.5788  -14.1334   19.4202 H   0  0  0  0  0  0
  -28.6941  -12.0553   21.4115 H   0  0  0  0  0  0
  -28.4409  -13.7313   21.7898 H   0  0  0  0  0  0
  -25.2660   -9.5617   22.4833 H   0  0  0  0  0  0
  -23.9915   -7.4564   22.7502 H   0  0  0  0  0  0
  -21.0767   -8.8728   19.8973 H   0  0  0  0  0  0
  -22.3620  -10.9648   19.6229 H   0  0  0  0  0  0
  -21.1967   -7.6118   23.9717 H   0  0  0  0  0  0
  -21.1485   -6.0509   25.9081 H   0  0  0  0  0  0
  -22.0609   -2.7594   23.2865 H   0  0  0  0  0  0
  -22.3917  -11.9930   22.4796 H   0  0  0  0  0  0
  -21.1056  -13.1459   22.2589 H   0  0  0  0  0  0
  -24.6776  -15.8279   20.5194 H   0  0  0  0  0  0
  -26.2933  -15.6021   20.0853 H   0  0  0  0  0  0
  -26.7117  -32.5545   23.1182 H   0  0  0  0  0  0
  -25.0113  -33.9782   25.0525 H   0  0  0  0  0  0
  -22.6874  -31.3029   21.4035 H   0  0  0  0  0  0
  -23.3738  -35.9628   23.3263 H   0  0  0  0  0  0
  -24.3590  -36.8963   22.2064 H   0  0  0  0  0  0
  -23.7196  -37.6484   23.6684 H   0  0  0  0  0  0
  -26.0229  -31.6143   20.5856 H   0  0  0  0  0  0
  -26.8083  -30.9086   21.9711 H   0  0  0  0  0  0
  -28.0837  -29.1842   21.1700 H   0  0  0  0  0  0
  -26.1301  -25.9867   19.0214 H   0  0  0  0  0  0
  -24.0175  -27.2799   19.0209 H   0  0  0  0  0  0
  -23.7017  -30.5822   19.3974 H   0  0  0  0  0  0
  -22.7360  -29.2192   19.8751 H   0  0  0  0  0  0
  -25.1263  -36.1948   25.0831 H   0  0  0  0  0  0
  -20.9939  -28.3243   24.1460 H   0  0  0  0  0  0
  -20.5630  -26.2300   23.3657 H   0  0  0  0  0  0
  -21.6641  -26.7428   22.1283 H   0  0  0  0  0  0
  -19.6913  -25.6289   21.1287 H   0  0  0  0  0  0
  -19.6733  -27.3194   20.6766 H   0  0  0  0  0  0
  -17.4226  -26.6826   21.3912 H   0  0  0  0  0  0
  -18.0192  -26.0066   22.8899 H   0  0  0  0  0  0
  -19.7914  -30.7318   24.2264 H   0  0  0  0  0  0
  -17.4981  -31.6264   24.5201 H   0  0  0  0  0  0
  -15.5349  -30.3005   23.7658 H   0  0  0  0  0  0
  -15.8664  -28.0871   22.7013 H   0  0  0  0  0  0
  -24.6031  -30.6907   25.7866 H   0  0  0  0  0  0
  -24.8862  -32.2823   26.4831 H   0  0  0  0  0  0
  -25.8161  -30.8989   27.0281 H   0  0  0  0  0  0
  -26.2828  -29.6745   24.1203 H   0  0  0  0  0  0
  -27.4129  -29.7281   25.4541 H   0  0  0  0  0  0
  -27.8643  -30.4308   23.9178 H   0  0  0  0  0  0
  -27.2698  -33.3607   26.2043 H   0  0  0  0  0  0
  -28.3876  -32.6846   25.0274 H   0  0  0  0  0  0
  -28.0740  -31.8417   26.5369 H   0  0  0  0  0  0
  -28.2556  -38.0135   24.7566 H   0  0  0  0  0  0
  -28.1153  -36.2676   24.6129 H   0  0  0  0  0  0
  -27.2365  -37.1271   25.8857 H   0  0  0  0  0  0
  -20.9306  -29.8720   21.6927 H   0  0  0  0  0  0
  -26.0149  -38.2851   24.1516 H   0  0  0  0  0  0
  -32.5742  -22.6822   22.3531 H   0  0  0  0  0  0
  -32.6158  -24.6877   23.7555 H   0  0  0  0  0  0
  -29.6143  -24.5385   19.7979 H   0  0  0  0  0  0
  -32.0593  -17.5931   20.7764 H   0  0  0  0  0  0
  -31.6740  -18.3995   22.2760 H   0  0  0  0  0  0
  -28.5703  -17.9918   19.3096 H   0  0  0  0  0  0
  -30.1561  -17.3624   18.9570 H   0  0  0  0  0  0
  -28.8791  -22.3452   19.9477 H   0  0  0  0  0  0
  -29.6868  -22.4655   18.3934 H   0  0  0  0  0  0
  -30.0980  -16.6142   22.9163 H   0  0  0  0  0  0
  -31.6480  -15.9210   22.5422 H   0  0  0  0  0  0
  -28.7373  -15.6765   19.5396 H   0  0  0  0  0  0
  -28.1743  -16.3601   21.0649 H   0  0  0  0  0  0
  -29.6094  -20.1046   18.2095 H   0  0  0  0  0  0
  -28.5074  -20.2047   19.5778 H   0  0  0  0  0  0
  -30.4562  -20.9569   21.8334 H   0  0  0  0  0  0
  -32.1002  -20.6209   21.3027 H   0  0  0  0  0  0
  -29.3486  -18.8094   21.5191 H   0  0  0  0  0  0
  -31.7643  -26.7696   24.4149 H   0  0  0  0  0  0
  -30.1843  -27.2739   23.8520 H   0  0  0  0  0  0
  -31.6413  -27.8164   23.0045 H   0  0  0  0  0  0
  -32.1293  -23.0988   18.4682 H   0  0  0  0  0  0
  -32.2845  -21.3522   18.4821 H   0  0  0  0  0  0
  -33.1745  -22.3208   19.6444 H   0  0  0  0  0  0
  -29.9319  -27.7718   20.9691 H   0  0  0  0  0  0
  -28.7655  -27.0801   22.0988 H   0  0  0  0  0  0
  -31.2955  -19.5369   19.4571 H   0  0  0  0  0  0
  1 25  1  0  0  0
  1 30  2  0  0  0
  1 89  1  0  0  0
  2  3  1  0  0  0
  2 25  1  0  0  0
  2 91  1  0  0  0
  2 92  1  0  0  0
  3  4  1  0  0  0
  3 93  1  0  0  0
  3 94  1  0  0  0
  4  5  1  0  0  0
  4 95  1  0  0  0
  4 96  1  0  0  0
  5  6  1  0  0  0
  5 26  1  0  0  0
  5 97  1  0  0  0
  6 25  1  0  0  0
  6 98  1  0  0  0
  6 99  1  0  0  0
  7  8  2  0  0  0
  7 26  1  0  0  0
  7 29  1  0  0  0
  8  9  1  0  0  0
  8 22  1  0  0  0
  9 10  1  0  0  0
  9 27  2  0  0  0
 10 11  2  0  0  0
 10 15  1  0  0  0
 11 12  1  0  0  0
 11100  1  0  0  0
 12 13  2  0  0  0
 12101  1  0  0  0
 13 14  1  0  0  0
 13 31  1  0  0  0
 14 15  2  0  0  0
 14102  1  0  0  0
 15103  1  0  0  0
 16 17  2  0  0  0
 16 21  1  0  0  0
 16 31  1  0  0  0
 17 18  1  0  0  0
 17104  1  0  0  0
 18 19  2  0  0  0
 18105  1  0  0  0
 19 20  1  0  0  0
 19 24  1  0  0  0
 20 21  2  0  0  0
 20106  1  0  0  0
 21 23  1  0  0  0
 22 28  1  0  0  0
 22 32  2  0  0  0
 26 27  1  0  0  0
 28107  1  0  0  0
 28108  1  0  0  0
 29109  1  0  0  0
 29110  1  0  0  0
 33 34  1  0  0  0
 33 66  1  0  0  0
 33 70  2  0  0  0
 34 36  1  0  0  0
 34 59  1  0  0  0
 34111  1  0  0  0
 35 44  2  0  0  0
 35 45  1  0  0  0
 35 68  1  0  0  0
 36 56  1  0  0  0
 36112  1  0  0  0
 37 39  1  0  0  0
 37 47  1  0  0  0
 37 66  1  0  0  0
 37113  1  0  0  0
 38 43  2  0  0  0
 38 46  1  0  0  0
 38 47  1  0  0  0
 39 64  1  0  0  0
 39 67  2  0  0  0
 40 52  1  0  0  0
 40 53  2  0  0  0
 40 58  1  0  0  0
 41114  1  0  0  0
 41115  1  0  0  0
 41116  1  0  0  0
 41 48  1  0  0  0
 42 43  1  0  0  0
 42 66  1  0  0  0
 42117  1  0  0  0
 42118  1  0  0  0
 43 44  1  0  0  0
 44119  1  0  0  0
 45 46  2  0  0  0
 45120  1  0  0  0
 46121  1  0  0  0
 47122  1  0  0  0
 47123  1  0  0  0
 48 56  1  0  0  0
 48 65  1  0  0  0
 48124  1  0  0  0
 49 50  1  0  0  0
 49 53  1  0  0  0
 49 64  1  0  0  0
 49125  1  0  0  0
 50 51  1  0  0  0
 50126  1  0  0  0
 50127  1  0  0  0
 51 52  1  0  0  0
 51128  1  0  0  0
 51129  1  0  0  0
 52130  1  0  0  0
 52131  1  0  0  0
 53 54  1  0  0  0
 54 55  2  0  0  0
 54132  1  0  0  0
 55 57  1  0  0  0
 55133  1  0  0  0
 56 69  2  0  0  0
 57 58  2  0  0  0
 57134  1  0  0  0
 58135  1  0  0  0
 59 60  1  0  0  0
 59 61  1  0  0  0
 59 62  1  0  0  0
 60136  1  0  0  0
 60137  1  0  0  0
 60138  1  0  0  0
 61139  1  0  0  0
 61140  1  0  0  0
 61141  1  0  0  0
 62142  1  0  0  0
 62143  1  0  0  0
 62144  1  0  0  0
 63 65  1  0  0  0
 63145  1  0  0  0
 63146  1  0  0  0
 63147  1  0  0  0
 64148  1  0  0  0
 65149  1  0  0  0
 68 88  1  0  0  0
 71 72  2  0  0  0
 71 74  1  0  0  0
 71150  1  0  0  0
 72 75  1  0  0  0
 72151  1  0  0  0
 73 74  2  0  0  0
 73 76  1  0  0  0
 73152  1  0  0  0
 74 85  1  0  0  0
 75 76  2  0  0  0
 75 86  1  0  0  0
 76 88  1  0  0  0
 77 80  1  0  0  0
 77153  1  0  0  0
 77154  1  0  0  0
 77 84  1  0  0  0
 78 81  1  0  0  0
 78 84  1  0  0  0
 78155  1  0  0  0
 78156  1  0  0  0
 79 82  1  0  0  0
 79 85  1  0  0  0
 79157  1  0  0  0
 79158  1  0  0  0
 80 89  1  0  0  0
 80159  1  0  0  0
 80160  1  0  0  0
 81 89  1  0  0  0
 81161  1  0  0  0
 81162  1  0  0  0
 82163  1  0  0  0
 82164  1  0  0  0
 82 90  1  0  0  0
 83 85  1  0  0  0
 83 90  1  0  0  0
 83165  1  0  0  0
 83166  1  0  0  0
 84 90  1  0  0  0
 84167  1  0  0  0
 85 87  1  0  0  0
 86168  1  0  0  0
 86169  1  0  0  0
 86170  1  0  0  0
 87171  1  0  0  0
 87172  1  0  0  0
 87173  1  0  0  0
 88174  1  0  0  0
 88175  1  0  0  0
 90176  1  0  0  0
M  CHG  1  90   1
M  ISO  4   1 100  68 101  88 101  89 100
M  END
> <chiral flag>
0

> <version>
0

> <s_m_source_file>
/data/baiqing/PycharmProjects/Reinvent-master-3.2/result/LINK_invent/BTK/process_docking_weight1_custom_sum_contain_oxygen_bond_distance_aromatic_linkinvent_7_9_3/rearranged_h_0162.sdf

> <i_m_source_file_index>
72

> <r_mmod_Potential_Energy-OPLS-2005>
184.556732177734

> <r_mmod_Stretch_Energy-OPLS-2005>
40.9161262512207

> <r_mmod_Bend_Energy-OPLS-2005>
134.495025634766

> <r_mmod_Torsional_Energy-OPLS-2005>
401.607513427734

> <r_mmod_Improper_Torsional_Energy-OPLS-2005>
3.65048265457153

> <r_mmod_Van_der_Waal_Energy-OPLS-2005>
171.419357299805

> <r_mmod_Electrostatic_Energy-OPLS-2005>
-169.420257568359

> <r_mmod_Solvation_Energy-OPLS-2005>
-417.901672363281

> <b_mmod_Minimization_Converged-OPLS-2005>
0

> <r_mmod_RMS_Derivative-OPLS-2005>
2.15548753738403

$$$$
73
                    3D
 Structure written by MMmdl.
169178  0  0  1  0            999 V2000
  -30.7032  -14.4938   20.5850 C   0  0  0  0  0  0
  -30.4191  -12.3254   19.4279 C   0  0  0  0  0  0
  -29.4954  -12.5179   18.2089 C   0  0  0  0  0  0
  -28.0177  -12.3676   18.6206 C   0  0  0  0  0  0
  -27.6584  -13.2120   19.8735 C   0  0  2  0  0  0
  -28.6986  -13.0083   20.9976 C   0  0  0  0  0  0
  -25.2565  -13.8182   20.5694 C   0  0  0  0  0  0
  -24.1823  -13.0445   20.9185 C   0  0  0  0  0  0
  -24.6389  -11.6913   20.8728 C   0  0  0  0  0  0
  -23.9062  -10.4295   21.0394 C   0  0  0  0  0  0
  -24.3617   -9.4207   21.9171 C   0  0  0  0  0  0
  -23.6295   -8.2238   22.0745 C   0  0  0  0  0  0
  -22.4271   -8.0280   21.3543 C   0  0  0  0  0  0
  -21.9907   -9.0249   20.4640 C   0  0  0  0  0  0
  -22.7234  -10.2129   20.3045 C   0  0  0  0  0  0
  -21.6858   -6.0731   22.5276 C   0  0  0  0  0  0
  -21.4010   -6.5631   23.8208 C   0  0  0  0  0  0
  -21.3662   -5.6785   24.9172 C   0  0  0  0  0  0
  -21.6045   -4.3047   24.7221 C   0  0  0  0  0  0
  -21.8819   -3.8141   23.4342 C   0  0  0  0  0  0
  -21.9187   -4.6958   22.3399 C   0  0  0  0  0  0
  -22.7837  -13.5230   21.1836 C   0  0  0  0  0  0
  -22.1656   -4.2144   21.0977 F   0  0  0  0  0  0
  -21.5637   -3.4529   25.7736 F   0  0  0  0  0  0
  -30.0290  -13.3153   20.4465 N   0  0  0  0  0  0
  -26.3004  -12.9358   20.3356 N   0  0  0  0  0  0
  -25.9314  -11.6510   20.5748 N   0  0  0  0  0  0
  -22.0471  -12.8237   22.0402 N   0  0  0  0  0  0
  -25.4287  -15.1909   20.4147 N   0  0  0  0  0  0
  -31.8047  -14.6906   20.0604 O   0  0  0  0  0  0
  -21.6640   -6.8874   21.4240 O   0  0  0  0  0  0
  -22.3517  -14.5524   20.6669 O   0  0  0  0  0  0
  -24.6159  -31.8659   23.2099 C   0  0  0  0  0  0
  -25.9047  -32.4808   23.8403 C   0  0  1  0  0  0
  -27.2385  -27.4231   20.1029 C   0  0  0  0  0  0
  -25.5896  -33.8609   24.2331 N   0  0  0  0  0  0
  -23.4066  -30.4890   21.5484 C   0  0  2  0  0  0
  -24.8585  -28.9536   20.1145 C   0  0  0  0  0  0
  -22.7426  -29.4648   22.4974 C   0  0  0  0  0  0
  -18.0276  -28.1382   22.8488 C   0  0  0  0  0  0
  -24.1481  -36.7307   23.2643 C   0  0  0  0  0  0
  -25.9375  -30.8260   21.3694 C   0  0  0  0  0  0
  -26.0167  -29.4575   20.7221 C   0  0  0  0  0  0
  -27.2119  -28.6970   20.7217 C   0  0  0  0  0  0
  -26.0734  -26.9480   19.4712 C   0  0  0  0  0  0
  -24.8816  -27.6957   19.4870 C   0  0  0  0  0  0
  -23.6192  -29.8210   20.1631 C   0  0  0  0  0  0
  -25.4103  -36.3100   24.0340 C   0  0  1  0  0  0
  -20.5866  -28.3669   23.1308 C   0  0  2  0  0  0
  -20.6759  -26.9398   22.5421 C   0  0  0  0  0  0
  -19.5741  -26.6384   21.5208 C   0  0  0  0  0  0
  -18.1920  -26.7934   22.1613 C   0  0  0  0  0  0
  -19.1528  -28.8843   23.2895 C   0  0  0  0  0  0
  -18.9453  -30.1451   23.8909 C   0  0  0  0  0  0
  -17.6453  -30.6584   24.0571 C   0  0  0  0  0  0
  -25.9031  -34.9466   23.5128 C   0  0  0  0  0  0
  -16.5344  -29.9090   23.6323 C   0  0  0  0  0  0
  -16.7264  -28.6505   23.0341 C   0  0  0  0  0  0
  -26.4480  -31.6586   25.0729 C   0  0  0  0  0  0
  -25.3758  -31.3690   26.1486 C   0  0  0  0  0  0
  -27.0308  -30.3024   24.6109 C   0  0  0  0  0  0
  -27.6063  -32.4312   25.7474 C   0  0  0  0  0  0
  -27.5579  -37.1804   24.8465 C   0  0  0  0  0  0
  -21.4153  -29.3028   22.3707 N   0  0  0  0  0  0
  -26.4291  -37.3785   23.9413 N   0  0  0  0  0  0
  -24.6710  -31.0761   22.1003 N   0  0  0  0  0  0
  -23.4191  -28.8202   23.3030 O   0  0  0  0  0  0
  -28.3684  -26.6324   20.0634 O   0  0  0  0  0  0
  -26.5592  -34.8924   22.4693 O   0  0  0  0  0  0
  -23.5349  -32.1408   23.7480 O   0  0  0  0  0  0
  -27.2951  -23.7322   21.4488 C   0  0  0  0  0  0
  -27.2489  -22.3112   21.5168 C   0  0  0  0  0  0
  -28.5413  -24.3760   21.2171 C   0  0  0  0  0  0
  -28.4549  -21.5618   21.4237 C   0  0  0  0  0  0
  -29.6705  -23.5304   21.0437 C   0  0  0  0  0  0
  -30.4361  -17.3813   22.6806 C   0  0  0  0  0  0
  -30.4333  -15.8486   22.5869 C   0  0  0  0  0  0
  -29.6921  -16.7699   20.5318 C   0  0  0  0  0  0
  -29.4080  -17.8112   21.6383 C   0  0  2  0  0  0
  -26.0174  -24.5301   21.6964 C   0  0  0  0  0  0
  -25.9200  -21.5938   21.7736 C   0  0  0  0  0  0
  -31.0529  -24.0943   20.7641 C   0  0  0  0  0  0
  -28.7010  -20.0851   23.4229 C   0  0  0  0  0  0
  -28.6941  -25.9235   21.2725 C   0  0  0  0  0  0
  -28.5131  -20.0768   21.8937 C   0  0  2  0  0  0
  -29.6302  -22.1780   21.1635 N   0  0  0  0  0  0
  -30.0464  -15.5012   21.2146 N   0  0  0  0  0  0
  -29.4965  -19.2118   21.2619 O   0  0  0  0  0  0
  -31.4645  -12.4224   19.1284 H   0  0  0  0  0  0
  -30.3183  -11.3155   19.8283 H   0  0  0  0  0  0
  -29.7448  -11.7978   17.4279 H   0  0  0  0  0  0
  -29.6590  -13.5069   17.7772 H   0  0  0  0  0  0
  -27.8380  -11.3114   18.8227 H   0  0  0  0  0  0
  -27.3655  -12.6310   17.7871 H   0  0  0  0  0  0
  -27.6977  -14.2589   19.5725 H   0  0  0  0  0  0
  -28.6761  -11.9778   21.3539 H   0  0  0  0  0  0
  -28.4511  -13.6219   21.8650 H   0  0  0  0  0  0
  -25.2763   -9.5676   22.4743 H   0  0  0  0  0  0
  -24.0008   -7.4621   22.7455 H   0  0  0  0  0  0
  -21.0841   -8.8758   19.8945 H   0  0  0  0  0  0
  -22.3693  -10.9660   19.6147 H   0  0  0  0  0  0
  -21.2002   -7.6139   23.9714 H   0  0  0  0  0  0
  -21.1489   -6.0513   25.9077 H   0  0  0  0  0  0
  -22.0599   -2.7605   23.2841 H   0  0  0  0  0  0
  -22.4100  -11.9936   22.4849 H   0  0  0  0  0  0
  -21.1062  -13.1228   22.2543 H   0  0  0  0  0  0
  -24.6667  -15.8484   20.5384 H   0  0  0  0  0  0
  -26.2908  -15.6324   20.1212 H   0  0  0  0  0  0
  -26.7123  -32.5514   23.1173 H   0  0  0  0  0  0
  -25.0056  -33.9780   25.0482 H   0  0  0  0  0  0
  -22.6962  -31.3063   21.4079 H   0  0  0  0  0  0
  -23.3736  -35.9647   23.3311 H   0  0  0  0  0  0
  -24.3577  -36.8910   22.2056 H   0  0  0  0  0  0
  -23.7244  -37.6522   23.6651 H   0  0  0  0  0  0
  -26.0540  -31.5887   20.5980 H   0  0  0  0  0  0
  -26.8256  -30.8819   21.9881 H   0  0  0  0  0  0
  -28.1062  -29.0863   21.1890 H   0  0  0  0  0  0
  -26.0881  -25.9817   18.9865 H   0  0  0  0  0  0
  -23.9952  -27.3028   19.0087 H   0  0  0  0  0  0
  -23.7307  -30.5971   19.4047 H   0  0  0  0  0  0
  -22.7434  -29.2427   19.8639 H   0  0  0  0  0  0
  -25.1282  -36.1961   25.0833 H   0  0  0  0  0  0
  -20.9965  -28.3228   24.1424 H   0  0  0  0  0  0
  -20.5629  -26.2282   23.3612 H   0  0  0  0  0  0
  -21.6636  -26.7413   22.1235 H   0  0  0  0  0  0
  -19.6888  -25.6296   21.1229 H   0  0  0  0  0  0
  -19.6686  -27.3203   20.6745 H   0  0  0  0  0  0
  -17.4194  -26.6693   21.4007 H   0  0  0  0  0  0
  -18.0310  -26.0076   22.9006 H   0  0  0  0  0  0
  -19.7929  -30.7262   24.2286 H   0  0  0  0  0  0
  -17.5007  -31.6263   24.5175 H   0  0  0  0  0  0
  -15.5348  -30.2995   23.7638 H   0  0  0  0  0  0
  -15.8666  -28.0830   22.7046 H   0  0  0  0  0  0
  -24.5949  -30.7000   25.7842 H   0  0  0  0  0  0
  -24.8931  -32.2846   26.4920 H   0  0  0  0  0  0
  -25.8143  -30.8890   27.0244 H   0  0  0  0  0  0
  -26.2843  -29.6776   24.1193 H   0  0  0  0  0  0
  -27.4103  -29.7267   25.4559 H   0  0  0  0  0  0
  -27.8671  -30.4334   23.9240 H   0  0  0  0  0  0
  -27.2683  -33.3607   26.2072 H   0  0  0  0  0  0
  -28.3856  -32.6878   25.0283 H   0  0  0  0  0  0
  -28.0755  -31.8424   26.5368 H   0  0  0  0  0  0
  -28.2608  -38.0089   24.7507 H   0  0  0  0  0  0
  -28.1066  -36.2627   24.6293 H   0  0  0  0  0  0
  -27.2310  -37.1461   25.8872 H   0  0  0  0  0  0
  -20.9312  -29.8766   21.6945 H   0  0  0  0  0  0
  -26.0169  -38.2858   24.1424 H   0  0  0  0  0  0
  -31.4197  -17.7661   22.4054 H   0  0  0  0  0  0
  -30.2258  -17.7233   23.6926 H   0  0  0  0  0  0
  -29.6945  -15.4244   23.2691 H   0  0  0  0  0  0
  -31.4069  -15.4415   22.8692 H   0  0  0  0  0  0
  -30.5254  -17.0973   19.9074 H   0  0  0  0  0  0
  -28.8272  -16.6368   19.8803 H   0  0  0  0  0  0
  -28.4096  -17.5867   22.0204 H   0  0  0  0  0  0
  -25.3270  -24.3999   20.8626 H   0  0  0  0  0  0
  -26.1616  -25.5958   21.8338 H   0  0  0  0  0  0
  -25.5277  -24.1847   22.6067 H   0  0  0  0  0  0
  -25.0437  -22.2062   21.5704 H   0  0  0  0  0  0
  -25.8586  -21.2616   22.8100 H   0  0  0  0  0  0
  -25.8067  -20.7270   21.1231 H   0  0  0  0  0  0
  -31.0119  -24.8421   19.9715 H   0  0  0  0  0  0
  -31.7476  -23.3170   20.4448 H   0  0  0  0  0  0
  -31.4625  -24.5587   21.6617 H   0  0  0  0  0  0
  -27.9868  -20.7609   23.8933 H   0  0  0  0  0  0
  -29.6998  -20.4294   23.6919 H   0  0  0  0  0  0
  -28.5321  -19.1098   23.8723 H   0  0  0  0  0  0
  -29.7243  -26.1809   21.5125 H   0  0  0  0  0  0
  -28.1454  -26.3174   22.1285 H   0  0  0  0  0  0
  -27.5538  -19.6169   21.6706 H   0  0  0  0  0  0
  1 25  1  0  0  0
  1 30  2  0  0  0
  1 87  1  0  0  0
  2  3  1  0  0  0
  2 25  1  0  0  0
  2 89  1  0  0  0
  2 90  1  0  0  0
  3  4  1  0  0  0
  3 91  1  0  0  0
  3 92  1  0  0  0
  4  5  1  0  0  0
  4 93  1  0  0  0
  4 94  1  0  0  0
  5  6  1  0  0  0
  5 26  1  0  0  0
  5 95  1  0  0  0
  6 25  1  0  0  0
  6 96  1  0  0  0
  6 97  1  0  0  0
  7  8  2  0  0  0
  7 26  1  0  0  0
  7 29  1  0  0  0
  8  9  1  0  0  0
  8 22  1  0  0  0
  9 10  1  0  0  0
  9 27  2  0  0  0
 10 11  2  0  0  0
 10 15  1  0  0  0
 11 12  1  0  0  0
 11 98  1  0  0  0
 12 13  2  0  0  0
 12 99  1  0  0  0
 13 14  1  0  0  0
 13 31  1  0  0  0
 14 15  2  0  0  0
 14100  1  0  0  0
 15101  1  0  0  0
 16 17  2  0  0  0
 16 21  1  0  0  0
 16 31  1  0  0  0
 17 18  1  0  0  0
 17102  1  0  0  0
 18 19  2  0  0  0
 18103  1  0  0  0
 19 20  1  0  0  0
 19 24  1  0  0  0
 20 21  2  0  0  0
 20104  1  0  0  0
 21 23  1  0  0  0
 22 28  1  0  0  0
 22 32  2  0  0  0
 26 27  1  0  0  0
 28105  1  0  0  0
 28106  1  0  0  0
 29107  1  0  0  0
 29108  1  0  0  0
 33 34  1  0  0  0
 33 66  1  0  0  0
 33 70  2  0  0  0
 34 36  1  0  0  0
 34 59  1  0  0  0
 34109  1  0  0  0
 35 44  2  0  0  0
 35 45  1  0  0  0
 35 68  1  0  0  0
 36 56  1  0  0  0
 36110  1  0  0  0
 37 39  1  0  0  0
 37 47  1  0  0  0
 37 66  1  0  0  0
 37111  1  0  0  0
 38 43  2  0  0  0
 38 46  1  0  0  0
 38 47  1  0  0  0
 39 64  1  0  0  0
 39 67  2  0  0  0
 40 52  1  0  0  0
 40 53  2  0  0  0
 40 58  1  0  0  0
 41112  1  0  0  0
 41113  1  0  0  0
 41114  1  0  0  0
 41 48  1  0  0  0
 42 43  1  0  0  0
 42 66  1  0  0  0
 42115  1  0  0  0
 42116  1  0  0  0
 43 44  1  0  0  0
 44117  1  0  0  0
 45 46  2  0  0  0
 45118  1  0  0  0
 46119  1  0  0  0
 47120  1  0  0  0
 47121  1  0  0  0
 48 56  1  0  0  0
 48 65  1  0  0  0
 48122  1  0  0  0
 49 50  1  0  0  0
 49 53  1  0  0  0
 49 64  1  0  0  0
 49123  1  0  0  0
 50 51  1  0  0  0
 50124  1  0  0  0
 50125  1  0  0  0
 51 52  1  0  0  0
 51126  1  0  0  0
 51127  1  0  0  0
 52128  1  0  0  0
 52129  1  0  0  0
 53 54  1  0  0  0
 54 55  2  0  0  0
 54130  1  0  0  0
 55 57  1  0  0  0
 55131  1  0  0  0
 56 69  2  0  0  0
 57 58  2  0  0  0
 57132  1  0  0  0
 58133  1  0  0  0
 59 60  1  0  0  0
 59 61  1  0  0  0
 59 62  1  0  0  0
 60134  1  0  0  0
 60135  1  0  0  0
 60136  1  0  0  0
 61137  1  0  0  0
 61138  1  0  0  0
 61139  1  0  0  0
 62140  1  0  0  0
 62141  1  0  0  0
 62142  1  0  0  0
 63 65  1  0  0  0
 63143  1  0  0  0
 63144  1  0  0  0
 63145  1  0  0  0
 64146  1  0  0  0
 65147  1  0  0  0
 68 84  1  0  0  0
 71 72  2  0  0  0
 71 73  1  0  0  0
 71 80  1  0  0  0
 72 74  1  0  0  0
 72 81  1  0  0  0
 73 75  2  0  0  0
 73 84  1  0  0  0
 74 85  1  0  0  0
 74 86  2  0  0  0
 75 82  1  0  0  0
 75 86  1  0  0  0
 76 77  1  0  0  0
 76 79  1  0  0  0
 76148  1  0  0  0
 76149  1  0  0  0
 77 87  1  0  0  0
 77150  1  0  0  0
 77151  1  0  0  0
 78 79  1  0  0  0
 78 87  1  0  0  0
 78152  1  0  0  0
 78153  1  0  0  0
 79 88  1  0  0  0
 79154  1  0  0  0
 80155  1  0  0  0
 80156  1  0  0  0
 80157  1  0  0  0
 81158  1  0  0  0
 81159  1  0  0  0
 81160  1  0  0  0
 82161  1  0  0  0
 82162  1  0  0  0
 82163  1  0  0  0
 83164  1  0  0  0
 83165  1  0  0  0
 83166  1  0  0  0
 83 85  1  0  0  0
 84167  1  0  0  0
 84168  1  0  0  0
 85 88  1  0  0  0
 85169  1  0  0  0
M  ISO  4   1 100  68 101  84 101  87 100
M  END
> <chiral flag>
0

> <version>
0

> <s_m_source_file>
/data/baiqing/PycharmProjects/Reinvent-master-3.2/result/LINK_invent/BTK/process_docking_weight1_custom_sum_contain_oxygen_bond_distance_aromatic_linkinvent_7_9_3/rearranged_h_0162.sdf

> <i_m_source_file_index>
73

> <r_mmod_Potential_Energy-OPLS-2005>
72.0746688842773

> <r_mmod_Stretch_Energy-OPLS-2005>
52.655632019043

> <r_mmod_Bend_Energy-OPLS-2005>
138.511703491211

> <r_mmod_Torsional_Energy-OPLS-2005>
369.021911621094

> <r_mmod_Improper_Torsional_Energy-OPLS-2005>
8.71249389648438

> <r_mmod_Van_der_Waal_Energy-OPLS-2005>
156.476837158203

> <r_mmod_Electrostatic_Energy-OPLS-2005>
-447.541412353516

> <r_mmod_Solvation_Energy-OPLS-2005>
-220.061645507812

> <b_mmod_Minimization_Converged-OPLS-2005>
0

> <r_mmod_RMS_Derivative-OPLS-2005>
1.49042510986328

$$$$
74
                    3D
 Structure written by MMmdl.
176185  0  0  1  0            999 V2000
  -30.7435  -14.4284   20.6178 C   0  0  0  0  0  0
  -30.4149  -12.2972   19.4163 C   0  0  0  0  0  0
  -29.4865  -12.5083   18.2050 C   0  0  0  0  0  0
  -28.0107  -12.3752   18.6228 C   0  0  0  0  0  0
  -27.6650  -13.2085   19.8849 C   0  0  2  0  0  0
  -28.7075  -12.9830   21.0043 C   0  0  0  0  0  0
  -25.2593  -13.8167   20.5699 C   0  0  0  0  0  0
  -24.1838  -13.0429   20.9190 C   0  0  0  0  0  0
  -24.6394  -11.6909   20.8756 C   0  0  0  0  0  0
  -23.9074  -10.4289   21.0406 C   0  0  0  0  0  0
  -24.3615   -9.4207   21.9195 C   0  0  0  0  0  0
  -23.6288   -8.2246   22.0765 C   0  0  0  0  0  0
  -22.4274   -8.0277   21.3543 C   0  0  0  0  0  0
  -21.9915   -9.0254   20.4650 C   0  0  0  0  0  0
  -22.7239  -10.2133   20.3062 C   0  0  0  0  0  0
  -21.6850   -6.0734   22.5273 C   0  0  0  0  0  0
  -21.4008   -6.5635   23.8212 C   0  0  0  0  0  0
  -21.3662   -5.6793   24.9169 C   0  0  0  0  0  0
  -21.6045   -4.3060   24.7232 C   0  0  0  0  0  0
  -21.8824   -3.8145   23.4347 C   0  0  0  0  0  0
  -21.9190   -4.6961   22.3398 C   0  0  0  0  0  0
  -22.7862  -13.5239   21.1841 C   0  0  0  0  0  0
  -22.1664   -4.2147   21.0982 F   0  0  0  0  0  0
  -21.5635   -3.4546   25.7749 F   0  0  0  0  0  0
  -30.0399  -13.2759   20.4505 N   0  0  0  0  0  0
  -26.3039  -12.9349   20.3427 N   0  0  0  0  0  0
  -25.9329  -11.6502   20.5806 N   0  0  0  0  0  0
  -22.0502  -12.8217   22.0392 N   0  0  0  0  0  0
  -25.4311  -15.1874   20.4070 N   0  0  0  0  0  0
  -31.8200  -14.6387   20.0578 O   0  0  0  0  0  0
  -21.6626   -6.8874   21.4244 O   0  0  0  0  0  0
  -22.3569  -14.5551   20.6702 O   0  0  0  0  0  0
  -24.6148  -31.8660   23.2103 C   0  0  0  0  0  0
  -25.9062  -32.4791   23.8396 C   0  0  1  0  0  0
  -27.2427  -27.4368   20.1033 C   0  0  0  0  0  0
  -25.5922  -33.8590   24.2344 N   0  0  0  0  0  0
  -23.4027  -30.4911   21.5483 C   0  0  2  0  0  0
  -24.8549  -28.9560   20.1140 C   0  0  0  0  0  0
  -22.7402  -29.4676   22.4969 C   0  0  0  0  0  0
  -18.0294  -28.1390   22.8484 C   0  0  0  0  0  0
  -24.1468  -36.7296   23.2642 C   0  0  0  0  0  0
  -25.9293  -30.8361   21.3635 C   0  0  0  0  0  0
  -26.0122  -29.4686   20.7157 C   0  0  0  0  0  0
  -27.2112  -28.7152   20.7122 C   0  0  0  0  0  0
  -26.0771  -26.9488   19.4814 C   0  0  0  0  0  0
  -24.8806  -27.6928   19.4964 C   0  0  0  0  0  0
  -23.6122  -29.8193   20.1653 C   0  0  0  0  0  0
  -25.4081  -36.3068   24.0337 C   0  0  1  0  0  0
  -20.5872  -28.3700   23.1283 C   0  0  2  0  0  0
  -20.6771  -26.9432   22.5391 C   0  0  0  0  0  0
  -19.5754  -26.6387   21.5183 C   0  0  0  0  0  0
  -18.1931  -26.7940   22.1601 C   0  0  0  0  0  0
  -19.1537  -28.8854   23.2884 C   0  0  0  0  0  0
  -18.9472  -30.1453   23.8912 C   0  0  0  0  0  0
  -17.6475  -30.6593   24.0573 C   0  0  0  0  0  0
  -25.9013  -34.9444   23.5122 C   0  0  0  0  0  0
  -16.5369  -29.9095   23.6325 C   0  0  0  0  0  0
  -16.7283  -28.6505   23.0359 C   0  0  0  0  0  0
  -26.4494  -31.6557   25.0719 C   0  0  0  0  0  0
  -25.3769  -31.3657   26.1481 C   0  0  0  0  0  0
  -27.0399  -30.3019   24.6104 C   0  0  0  0  0  0
  -27.6036  -32.4301   25.7488 C   0  0  0  0  0  0
  -27.5574  -37.1768   24.8447 C   0  0  0  0  0  0
  -21.4127  -29.3069   22.3683 N   0  0  0  0  0  0
  -26.4257  -37.3770   23.9431 N   0  0  0  0  0  0
  -24.6664  -31.0781   22.0994 N   0  0  0  0  0  0
  -23.4155  -28.8225   23.3031 O   0  0  0  0  0  0
  -28.3768  -26.6555   20.0455 O   0  0  0  0  0  0
  -26.5555  -34.8898   22.4673 O   0  0  0  0  0  0
  -23.5347  -32.1430   23.7515 O   0  0  0  0  0  0
  -27.6354  -22.3474   22.8485 C   0  0  0  0  0  0
  -26.9293  -23.5224   23.1742 C   0  0  0  0  0  0
  -29.1544  -23.6520   21.4717 C   0  0  0  0  0  0
  -28.7577  -22.3895   21.9978 C   0  0  0  0  0  0
  -27.3333  -24.7746   22.6693 C   0  0  0  0  0  0
  -28.4521  -24.8526   21.7976 C   0  0  0  0  0  0
  -29.4897  -18.6172   23.6399 C   0  0  0  0  0  0
  -29.7742  -17.1868   24.1448 C   0  0  1  0  0  0
  -31.0084  -16.5973   23.4200 C   0  0  2  0  0  0
  -30.8352  -16.6114   21.8753 C   0  0  2  0  0  0
  -30.2702  -17.9587   21.2839 C   0  0  2  0  0  0
  -29.1540  -18.6262   22.1366 C   0  0  2  0  0  0
  -26.5701  -26.0160   23.1189 C   0  0  0  0  0  0
  -29.9378  -17.1744   25.6751 C   0  0  0  0  0  0
  -31.4184  -15.2019   23.9554 C   0  0  0  0  0  0
  -29.5510  -21.0868   21.7562 C   0  0  0  0  0  0
  -28.9574  -26.2162   21.2826 C   0  0  0  0  0  0
  -30.1717  -15.3734   21.3922 N   0  0  0  0  0  0
  -29.8027  -17.7663   19.8956 N   0  3  0  0  0  0
  -28.7043  -19.9233   21.6701 O   0  0  0  0  0  0
  -31.4583  -12.3833   19.1100 H   0  0  0  0  0  0
  -30.3071  -11.2837   19.8066 H   0  0  0  0  0  0
  -29.7155  -11.7846   17.4212 H   0  0  0  0  0  0
  -29.6622  -13.4936   17.7706 H   0  0  0  0  0  0
  -27.8169  -11.3191   18.8131 H   0  0  0  0  0  0
  -27.3582  -12.6593   17.7969 H   0  0  0  0  0  0
  -27.7148  -14.2576   19.5956 H   0  0  0  0  0  0
  -28.6778  -11.9475   21.3482 H   0  0  0  0  0  0
  -28.4691  -13.5846   21.8826 H   0  0  0  0  0  0
  -25.2751   -9.5675   22.4777 H   0  0  0  0  0  0
  -23.9989   -7.4641   22.7491 H   0  0  0  0  0  0
  -21.0852   -8.8777   19.8947 H   0  0  0  0  0  0
  -22.3702  -10.9685   19.6178 H   0  0  0  0  0  0
  -21.1999   -7.6148   23.9710 H   0  0  0  0  0  0
  -21.1487   -6.0526   25.9078 H   0  0  0  0  0  0
  -22.0606   -2.7606   23.2857 H   0  0  0  0  0  0
  -22.4112  -11.9852   22.4716 H   0  0  0  0  0  0
  -21.1129  -13.1252   22.2622 H   0  0  0  0  0  0
  -24.6598  -15.8392   20.4971 H   0  0  0  0  0  0
  -26.2708  -15.6165   20.0448 H   0  0  0  0  0  0
  -26.7144  -32.5535   23.1167 H   0  0  0  0  0  0
  -25.0109  -33.9721   25.0516 H   0  0  0  0  0  0
  -22.6922  -31.3079   21.4061 H   0  0  0  0  0  0
  -23.3728  -35.9630   23.3231 H   0  0  0  0  0  0
  -24.3609  -36.9007   22.2083 H   0  0  0  0  0  0
  -23.7186  -37.6455   23.6718 H   0  0  0  0  0  0
  -26.0382  -31.6033   20.5962 H   0  0  0  0  0  0
  -26.8166  -30.8941   21.9811 H   0  0  0  0  0  0
  -28.1094  -29.1145   21.1626 H   0  0  0  0  0  0
  -26.0966  -25.9826   18.9973 H   0  0  0  0  0  0
  -23.9934  -27.2925   19.0242 H   0  0  0  0  0  0
  -23.7133  -30.5943   19.4044 H   0  0  0  0  0  0
  -22.7373  -29.2345   19.8710 H   0  0  0  0  0  0
  -25.1234  -36.1923   25.0827 H   0  0  0  0  0  0
  -20.9971  -28.3302   24.1406 H   0  0  0  0  0  0
  -20.5663  -26.2321   23.3582 H   0  0  0  0  0  0
  -21.6653  -26.7456   22.1216 H   0  0  0  0  0  0
  -19.6911  -25.6286   21.1245 H   0  0  0  0  0  0
  -19.6686  -27.3176   20.6693 H   0  0  0  0  0  0
  -17.4181  -26.6703   21.4013 H   0  0  0  0  0  0
  -18.0336  -26.0086   22.9002 H   0  0  0  0  0  0
  -19.7958  -30.7250   24.2303 H   0  0  0  0  0  0
  -17.5040  -31.6281   24.5186 H   0  0  0  0  0  0
  -15.5367  -30.3005   23.7612 H   0  0  0  0  0  0
  -15.8692  -28.0796   22.7089 H   0  0  0  0  0  0
  -24.5935  -30.6998   25.7829 H   0  0  0  0  0  0
  -24.8975  -32.2831   26.4906 H   0  0  0  0  0  0
  -25.8141  -30.8844   27.0241 H   0  0  0  0  0  0
  -26.2990  -29.6669   24.1226 H   0  0  0  0  0  0
  -27.4297  -29.7329   25.4548 H   0  0  0  0  0  0
  -27.8737  -30.4374   23.9207 H   0  0  0  0  0  0
  -27.2627  -33.3613   26.2022 H   0  0  0  0  0  0
  -28.3853  -32.6841   25.0313 H   0  0  0  0  0  0
  -28.0684  -31.8463   26.5440 H   0  0  0  0  0  0
  -28.2472  -38.0175   24.7631 H   0  0  0  0  0  0
  -28.1171  -36.2707   24.6072 H   0  0  0  0  0  0
  -27.2335  -37.1207   25.8856 H   0  0  0  0  0  0
  -20.9266  -29.8777   21.6906 H   0  0  0  0  0  0
  -26.0127  -38.2821   24.1535 H   0  0  0  0  0  0
  -27.3217  -21.4064   23.2790 H   0  0  0  0  0  0
  -26.0809  -23.4560   23.8413 H   0  0  0  0  0  0
  -30.0272  -23.7088   20.8363 H   0  0  0  0  0  0
  -30.3524  -19.2471   23.8547 H   0  0  0  0  0  0
  -28.6481  -19.0422   24.1869 H   0  0  0  0  0  0
  -28.9071  -16.5677   23.9098 H   0  0  0  0  0  0
  -31.8514  -17.2579   23.6380 H   0  0  0  0  0  0
  -31.8629  -16.5711   21.5070 H   0  0  0  0  0  0
  -31.0997  -18.6672   21.2527 H   0  0  0  0  0  0
  -28.2707  -17.9930   22.0331 H   0  0  0  0  0  0
  -26.0247  -26.4649   22.2916 H   0  0  0  0  0  0
  -27.2404  -26.7679   23.5347 H   0  0  0  0  0  0
  -25.8420  -25.7775   23.8952 H   0  0  0  0  0  0
  -30.8685  -17.6490   25.9879 H   0  0  0  0  0  0
  -29.9397  -16.1549   26.0633 H   0  0  0  0  0  0
  -29.1166  -17.6942   26.1679 H   0  0  0  0  0  0
  -30.5870  -14.4954   23.9460 H   0  0  0  0  0  0
  -31.7857  -15.2563   24.9800 H   0  0  0  0  0  0
  -32.2274  -14.7705   23.3649 H   0  0  0  0  0  0
  -30.2601  -20.9992   22.5773 H   0  0  0  0  0  0
  -30.1440  -21.1493   20.8433 H   0  0  0  0  0  0
  -30.0304  -26.1414   21.1105 H   0  0  0  0  0  0
  -28.8615  -26.9764   22.0566 H   0  0  0  0  0  0
  -29.3036  -15.1057   21.8312 H   0  0  0  0  0  0
  -29.0352  -17.1183   19.8713 H   0  0  0  0  0  0
  -30.5444  -17.4010   19.3223 H   0  0  0  0  0  0
  -29.4892  -18.6367   19.5012 H   0  0  0  0  0  0
  1 25  1  0  0  0
  1 30  2  0  0  0
  1 88  1  0  0  0
  2  3  1  0  0  0
  2 25  1  0  0  0
  2 91  1  0  0  0
  2 92  1  0  0  0
  3  4  1  0  0  0
  3 93  1  0  0  0
  3 94  1  0  0  0
  4  5  1  0  0  0
  4 95  1  0  0  0
  4 96  1  0  0  0
  5  6  1  0  0  0
  5 26  1  0  0  0
  5 97  1  0  0  0
  6 25  1  0  0  0
  6 98  1  0  0  0
  6 99  1  0  0  0
  7  8  2  0  0  0
  7 26  1  0  0  0
  7 29  1  0  0  0
  8  9  1  0  0  0
  8 22  1  0  0  0
  9 10  1  0  0  0
  9 27  2  0  0  0
 10 11  2  0  0  0
 10 15  1  0  0  0
 11 12  1  0  0  0
 11100  1  0  0  0
 12 13  2  0  0  0
 12101  1  0  0  0
 13 14  1  0  0  0
 13 31  1  0  0  0
 14 15  2  0  0  0
 14102  1  0  0  0
 15103  1  0  0  0
 16 17  2  0  0  0
 16 21  1  0  0  0
 16 31  1  0  0  0
 17 18  1  0  0  0
 17104  1  0  0  0
 18 19  2  0  0  0
 18105  1  0  0  0
 19 20  1  0  0  0
 19 24  1  0  0  0
 20 21  2  0  0  0
 20106  1  0  0  0
 21 23  1  0  0  0
 22 28  1  0  0  0
 22 32  2  0  0  0
 26 27  1  0  0  0
 28107  1  0  0  0
 28108  1  0  0  0
 29109  1  0  0  0
 29110  1  0  0  0
 33 34  1  0  0  0
 33 66  1  0  0  0
 33 70  2  0  0  0
 34 36  1  0  0  0
 34 59  1  0  0  0
 34111  1  0  0  0
 35 44  2  0  0  0
 35 45  1  0  0  0
 35 68  1  0  0  0
 36 56  1  0  0  0
 36112  1  0  0  0
 37 39  1  0  0  0
 37 47  1  0  0  0
 37 66  1  0  0  0
 37113  1  0  0  0
 38 43  2  0  0  0
 38 46  1  0  0  0
 38 47  1  0  0  0
 39 64  1  0  0  0
 39 67  2  0  0  0
 40 52  1  0  0  0
 40 53  2  0  0  0
 40 58  1  0  0  0
 41114  1  0  0  0
 41115  1  0  0  0
 41116  1  0  0  0
 41 48  1  0  0  0
 42 43  1  0  0  0
 42 66  1  0  0  0
 42117  1  0  0  0
 42118  1  0  0  0
 43 44  1  0  0  0
 44119  1  0  0  0
 45 46  2  0  0  0
 45120  1  0  0  0
 46121  1  0  0  0
 47122  1  0  0  0
 47123  1  0  0  0
 48 56  1  0  0  0
 48 65  1  0  0  0
 48124  1  0  0  0
 49 50  1  0  0  0
 49 53  1  0  0  0
 49 64  1  0  0  0
 49125  1  0  0  0
 50 51  1  0  0  0
 50126  1  0  0  0
 50127  1  0  0  0
 51 52  1  0  0  0
 51128  1  0  0  0
 51129  1  0  0  0
 52130  1  0  0  0
 52131  1  0  0  0
 53 54  1  0  0  0
 54 55  2  0  0  0
 54132  1  0  0  0
 55 57  1  0  0  0
 55133  1  0  0  0
 56 69  2  0  0  0
 57 58  2  0  0  0
 57134  1  0  0  0
 58135  1  0  0  0
 59 60  1  0  0  0
 59 61  1  0  0  0
 59 62  1  0  0  0
 60136  1  0  0  0
 60137  1  0  0  0
 60138  1  0  0  0
 61139  1  0  0  0
 61140  1  0  0  0
 61141  1  0  0  0
 62142  1  0  0  0
 62143  1  0  0  0
 62144  1  0  0  0
 63 65  1  0  0  0
 63145  1  0  0  0
 63146  1  0  0  0
 63147  1  0  0  0
 64148  1  0  0  0
 65149  1  0  0  0
 68 87  1  0  0  0
 71 72  2  0  0  0
 71 74  1  0  0  0
 71150  1  0  0  0
 72 75  1  0  0  0
 72151  1  0  0  0
 73 74  2  0  0  0
 73 76  1  0  0  0
 73152  1  0  0  0
 74 86  1  0  0  0
 75 76  2  0  0  0
 75 83  1  0  0  0
 76 87  1  0  0  0
 77 78  1  0  0  0
 77 82  1  0  0  0
 77153  1  0  0  0
 77154  1  0  0  0
 78 79  1  0  0  0
 78 84  1  0  0  0
 78155  1  0  0  0
 79 80  1  0  0  0
 79 85  1  0  0  0
 79156  1  0  0  0
 80 81  1  0  0  0
 80 88  1  0  0  0
 80157  1  0  0  0
 81 82  1  0  0  0
 81 89  1  0  0  0
 81158  1  0  0  0
 82 90  1  0  0  0
 82159  1  0  0  0
 83160  1  0  0  0
 83161  1  0  0  0
 83162  1  0  0  0
 84163  1  0  0  0
 84164  1  0  0  0
 84165  1  0  0  0
 85166  1  0  0  0
 85167  1  0  0  0
 85168  1  0  0  0
 86 90  1  0  0  0
 86169  1  0  0  0
 86170  1  0  0  0
 87171  1  0  0  0
 87172  1  0  0  0
 88173  1  0  0  0
 89174  1  0  0  0
 89175  1  0  0  0
 89176  1  0  0  0
M  CHG  1  89   1
M  ISO  4   1 100  68 101  87 101  88 100
M  END
> <chiral flag>
0

> <version>
0

> <s_m_source_file>
/data/baiqing/PycharmProjects/Reinvent-master-3.2/result/LINK_invent/BTK/process_docking_weight1_custom_sum_contain_oxygen_bond_distance_aromatic_linkinvent_7_9_3/rearranged_h_0162.sdf

> <i_m_source_file_index>
74

> <r_mmod_Potential_Energy-OPLS-2005>
-196.26985168457

> <r_mmod_Stretch_Energy-OPLS-2005>
48.8546905517578

> <r_mmod_Bend_Energy-OPLS-2005>
125.078384399414

> <r_mmod_Torsional_Energy-OPLS-2005>
300.225952148438

> <r_mmod_Improper_Torsional_Energy-OPLS-2005>
3.06412601470947

> <r_mmod_Van_der_Waal_Energy-OPLS-2005>
146.724151611328

> <r_mmod_Electrostatic_Energy-OPLS-2005>
-381.405090332031

> <r_mmod_Solvation_Energy-OPLS-2005>
-448.140045166016

> <b_mmod_Minimization_Converged-OPLS-2005>
0

> <r_mmod_RMS_Derivative-OPLS-2005>
3.22152948379517

$$$$
75
                    3D
 Structure written by MMmdl.
171180  0  0  1  0            999 V2000
  -30.6853  -14.5584   20.5216 C   0  0  0  0  0  0
  -30.4127  -12.3466   19.4454 C   0  0  0  0  0  0
  -29.4957  -12.5046   18.2155 C   0  0  0  0  0  0
  -28.0161  -12.3688   18.6253 C   0  0  0  0  0  0
  -27.6512  -13.2249   19.8692 C   0  0  2  0  0  0
  -28.6943  -13.0659   20.9960 C   0  0  0  0  0  0
  -25.2527  -13.8194   20.5702 C   0  0  0  0  0  0
  -24.1809  -13.0447   20.9196 C   0  0  0  0  0  0
  -24.6390  -11.6921   20.8751 C   0  0  0  0  0  0
  -23.9066  -10.4291   21.0401 C   0  0  0  0  0  0
  -24.3612   -9.4207   21.9181 C   0  0  0  0  0  0
  -23.6280   -8.2247   22.0753 C   0  0  0  0  0  0
  -22.4265   -8.0283   21.3542 C   0  0  0  0  0  0
  -21.9909   -9.0259   20.4637 C   0  0  0  0  0  0
  -22.7240  -10.2134   20.3045 C   0  0  0  0  0  0
  -21.6852   -6.0729   22.5275 C   0  0  0  0  0  0
  -21.4014   -6.5638   23.8209 C   0  0  0  0  0  0
  -21.3666   -5.6797   24.9175 C   0  0  0  0  0  0
  -21.6053   -4.3057   24.7227 C   0  0  0  0  0  0
  -21.8819   -3.8140   23.4348 C   0  0  0  0  0  0
  -21.9186   -4.6953   22.3401 C   0  0  0  0  0  0
  -22.7823  -13.5217   21.1859 C   0  0  0  0  0  0
  -22.1653   -4.2135   21.0978 F   0  0  0  0  0  0
  -21.5642   -3.4544   25.7744 F   0  0  0  0  0  0
  -30.0091  -13.3750   20.4226 N   0  0  0  0  0  0
  -26.2974  -12.9400   20.3361 N   0  0  0  0  0  0
  -25.9326  -11.6540   20.5782 N   0  0  0  0  0  0
  -22.0480  -12.8191   22.0406 N   0  0  0  0  0  0
  -25.4233  -15.1919   20.4119 N   0  0  0  0  0  0
  -31.8588  -14.6512   20.1445 O   0  0  0  0  0  0
  -21.6636   -6.8874   21.4231 O   0  0  0  0  0  0
  -22.3504  -14.5531   20.6713 O   0  0  0  0  0  0
  -24.6205  -31.8665   23.2097 C   0  0  0  0  0  0
  -25.9092  -32.4808   23.8399 C   0  0  1  0  0  0
  -27.2277  -27.3816   20.1160 C   0  0  0  0  0  0
  -25.5944  -33.8604   24.2333 N   0  0  0  0  0  0
  -23.4115  -30.4881   21.5524 C   0  0  2  0  0  0
  -24.8603  -28.9507   20.1206 C   0  0  0  0  0  0
  -22.7436  -29.4653   22.5000 C   0  0  0  0  0  0
  -18.0268  -28.1389   22.8488 C   0  0  0  0  0  0
  -24.1488  -36.7291   23.2634 C   0  0  0  0  0  0
  -25.9461  -30.8162   21.3722 C   0  0  0  0  0  0
  -26.0246  -29.4442   20.7254 C   0  0  0  0  0  0
  -27.2149  -28.6666   20.7234 C   0  0  0  0  0  0
  -26.0480  -26.9225   19.4994 C   0  0  0  0  0  0
  -24.8693  -27.6892   19.5047 C   0  0  0  0  0  0
  -23.6231  -29.8213   20.1680 C   0  0  0  0  0  0
  -25.4113  -36.3087   24.0337 C   0  0  1  0  0  0
  -20.5865  -28.3684   23.1312 C   0  0  2  0  0  0
  -20.6751  -26.9413   22.5428 C   0  0  0  0  0  0
  -19.5742  -26.6393   21.5211 C   0  0  0  0  0  0
  -18.1911  -26.7946   22.1604 C   0  0  0  0  0  0
  -19.1517  -28.8854   23.2893 C   0  0  0  0  0  0
  -18.9439  -30.1462   23.8903 C   0  0  0  0  0  0
  -17.6439  -30.6596   24.0567 C   0  0  0  0  0  0
  -25.9052  -34.9459   23.5125 C   0  0  0  0  0  0
  -16.5334  -29.9094   23.6325 C   0  0  0  0  0  0
  -16.7255  -28.6506   23.0357 C   0  0  0  0  0  0
  -26.4503  -31.6590   25.0735 C   0  0  0  0  0  0
  -25.3741  -31.3688   26.1455 C   0  0  0  0  0  0
  -27.0356  -30.3031   24.6140 C   0  0  0  0  0  0
  -27.6070  -32.4320   25.7495 C   0  0  0  0  0  0
  -27.5584  -37.1793   24.8459 C   0  0  0  0  0  0
  -21.4156  -29.3044   22.3715 N   0  0  0  0  0  0
  -26.4286  -37.3787   23.9418 N   0  0  0  0  0  0
  -24.6780  -31.0723   22.1029 N   0  0  0  0  0  0
  -23.4180  -28.8202   23.3072 O   0  0  0  0  0  0
  -28.3398  -26.5516   20.0745 O   0  0  0  0  0  0
  -26.5589  -34.8914   22.4672 O   0  0  0  0  0  0
  -23.5383  -32.1450   23.7449 O   0  0  0  0  0  0
  -29.0764  -23.4989   22.4078 C   0  0  0  0  0  0
  -29.0396  -22.0707   22.4394 C   0  0  0  0  0  0
  -28.7229  -24.2009   21.2155 C   0  0  0  0  0  0
  -28.6028  -21.3568   21.2941 C   0  0  0  0  0  0
  -28.4805  -23.3792   20.0781 C   0  0  0  0  0  0
  -29.1339  -17.9620   19.7762 C   0  0  0  0  0  0
  -28.9329  -17.5157   22.1800 C   0  0  0  0  0  0
  -30.1319  -16.7722   19.6810 C   0  0  0  0  0  0
  -29.9118  -16.3101   22.0432 C   0  0  0  0  0  0
  -29.1627  -18.6651   21.1551 C   0  0  0  0  0  0
  -29.4920  -24.2699   23.6638 C   0  0  0  0  0  0
  -29.4257  -21.3152   23.7109 C   0  0  0  0  0  0
  -28.2530  -23.9488   18.6932 C   0  0  0  0  0  0
  -26.7893  -19.6505   20.6337 C   0  0  0  0  0  0
  -28.6007  -25.7704   21.2660 C   0  0  0  0  0  0
  -28.1337  -19.8589   21.3601 C   0  0  2  0  0  0
  -28.4195  -22.0181   20.1253 N   0  0  0  0  0  0
  -29.9452  -15.7028   20.6970 N   0  0  0  0  0  0
  -31.4599  -12.4321   19.1494 H   0  0  0  0  0  0
  -30.3062  -11.3501   19.8788 H   0  0  0  0  0  0
  -29.7423  -11.7587   17.4590 H   0  0  0  0  0  0
  -29.6635  -13.4783   17.7516 H   0  0  0  0  0  0
  -27.8267  -11.3146   18.8318 H   0  0  0  0  0  0
  -27.3683  -12.6329   17.7885 H   0  0  0  0  0  0
  -27.6755  -14.2672   19.5504 H   0  0  0  0  0  0
  -28.6869  -12.0473   21.3872 H   0  0  0  0  0  0
  -28.4582  -13.7172   21.8382 H   0  0  0  0  0  0
  -25.2751   -9.5690   22.4762 H   0  0  0  0  0  0
  -23.9983   -7.4646   22.7482 H   0  0  0  0  0  0
  -21.0842   -8.8776   19.8940 H   0  0  0  0  0  0
  -22.3690  -10.9676   19.6157 H   0  0  0  0  0  0
  -21.2004   -7.6148   23.9699 H   0  0  0  0  0  0
  -21.1502   -6.0535   25.9080 H   0  0  0  0  0  0
  -22.0591   -2.7599   23.2858 H   0  0  0  0  0  0
  -22.4100  -11.9842   22.4777 H   0  0  0  0  0  0
  -21.1088  -13.1191   22.2614 H   0  0  0  0  0  0
  -24.6611  -15.8500   20.5312 H   0  0  0  0  0  0
  -26.2853  -15.6303   20.1147 H   0  0  0  0  0  0
  -26.7163  -32.5514   23.1158 H   0  0  0  0  0  0
  -25.0136  -33.9770   25.0506 H   0  0  0  0  0  0
  -22.7017  -31.3059   21.4131 H   0  0  0  0  0  0
  -23.3770  -35.9601   23.3259 H   0  0  0  0  0  0
  -24.3583  -36.8960   22.2062 H   0  0  0  0  0  0
  -23.7215  -37.6464   23.6696 H   0  0  0  0  0  0
  -26.0621  -31.5762   20.5981 H   0  0  0  0  0  0
  -26.8326  -30.8751   21.9913 H   0  0  0  0  0  0
  -28.1143  -29.0451   21.1892 H   0  0  0  0  0  0
  -26.0248  -25.9584   19.0200 H   0  0  0  0  0  0
  -23.9763  -27.3023   19.0331 H   0  0  0  0  0  0
  -23.7290  -30.5969   19.4085 H   0  0  0  0  0  0
  -22.7462  -29.2405   19.8749 H   0  0  0  0  0  0
  -25.1281  -36.1939   25.0828 H   0  0  0  0  0  0
  -20.9943  -28.3263   24.1442 H   0  0  0  0  0  0
  -20.5650  -26.2289   23.3621 H   0  0  0  0  0  0
  -21.6628  -26.7452   22.1241 H   0  0  0  0  0  0
  -19.6900  -25.6304   21.1241 H   0  0  0  0  0  0
  -19.6696  -27.3190   20.6738 H   0  0  0  0  0  0
  -17.4203  -26.6735   21.3982 H   0  0  0  0  0  0
  -18.0261  -26.0073   22.8969 H   0  0  0  0  0  0
  -19.7916  -30.7267   24.2286 H   0  0  0  0  0  0
  -17.5000  -31.6271   24.5175 H   0  0  0  0  0  0
  -15.5334  -30.2996   23.7665 H   0  0  0  0  0  0
  -15.8649  -28.0824   22.7090 H   0  0  0  0  0  0
  -24.6039  -30.6876   25.7814 H   0  0  0  0  0  0
  -24.8761  -32.2811   26.4747 H   0  0  0  0  0  0
  -25.8102  -30.9031   27.0303 H   0  0  0  0  0  0
  -26.2923  -29.6767   24.1197 H   0  0  0  0  0  0
  -27.4122  -29.7293   25.4617 H   0  0  0  0  0  0
  -27.8756  -30.4349   23.9317 H   0  0  0  0  0  0
  -27.2715  -33.3654   26.2021 H   0  0  0  0  0  0
  -28.3895  -32.6819   25.0323 H   0  0  0  0  0  0
  -28.0714  -31.8470   26.5439 H   0  0  0  0  0  0
  -28.2576  -38.0117   24.7541 H   0  0  0  0  0  0
  -28.1107  -36.2646   24.6239 H   0  0  0  0  0  0
  -27.2303  -37.1382   25.8860 H   0  0  0  0  0  0
  -20.9327  -29.8745   21.6907 H   0  0  0  0  0  0
  -26.0165  -38.2854   24.1450 H   0  0  0  0  0  0
  -28.1342  -17.5825   19.5635 H   0  0  0  0  0  0
  -29.3527  -18.6884   18.9925 H   0  0  0  0  0  0
  -29.0086  -17.9102   23.1931 H   0  0  0  0  0  0
  -27.9100  -17.1476   22.0871 H   0  0  0  0  0  0
  -31.1488  -17.1616   19.7565 H   0  0  0  0  0  0
  -30.0493  -16.3325   18.6848 H   0  0  0  0  0  0
  -29.6433  -15.5503   22.7799 H   0  0  0  0  0  0
  -30.9215  -16.6358   22.3025 H   0  0  0  0  0  0
  -30.1650  -19.0614   21.3268 H   0  0  0  0  0  0
  -29.2238  -23.7474   24.5804 H   0  0  0  0  0  0
  -29.0260  -25.2487   23.7502 H   0  0  0  0  0  0
  -30.5728  -24.4141   23.6644 H   0  0  0  0  0  0
  -30.2885  -21.7683   24.1998 H   0  0  0  0  0  0
  -29.7162  -20.2859   23.5040 H   0  0  0  0  0  0
  -28.5968  -21.3006   24.4197 H   0  0  0  0  0  0
  -28.9270  -24.7802   18.4895 H   0  0  0  0  0  0
  -27.2247  -24.2820   18.5880 H   0  0  0  0  0  0
  -28.4331  -23.1998   17.9215 H   0  0  0  0  0  0
  -26.0391  -20.3518   21.0003 H   0  0  0  0  0  0
  -26.3988  -18.6463   20.7926 H   0  0  0  0  0  0
  -26.8860  -19.8066   19.5600 H   0  0  0  0  0  0
  -29.5341  -26.1633   21.6690 H   0  0  0  0  0  0
  -27.8322  -25.9986   22.0079 H   0  0  0  0  0  0
  -27.8230  -19.7631   22.4000 H   0  0  0  0  0  0
  1 25  1  0  0  0
  1 30  2  0  0  0
  1 88  1  0  0  0
  2  3  1  0  0  0
  2 25  1  0  0  0
  2 89  1  0  0  0
  2 90  1  0  0  0
  3  4  1  0  0  0
  3 91  1  0  0  0
  3 92  1  0  0  0
  4  5  1  0  0  0
  4 93  1  0  0  0
  4 94  1  0  0  0
  5  6  1  0  0  0
  5 26  1  0  0  0
  5 95  1  0  0  0
  6 25  1  0  0  0
  6 96  1  0  0  0
  6 97  1  0  0  0
  7  8  2  0  0  0
  7 26  1  0  0  0
  7 29  1  0  0  0
  8  9  1  0  0  0
  8 22  1  0  0  0
  9 10  1  0  0  0
  9 27  2  0  0  0
 10 11  2  0  0  0
 10 15  1  0  0  0
 11 12  1  0  0  0
 11 98  1  0  0  0
 12 13  2  0  0  0
 12 99  1  0  0  0
 13 14  1  0  0  0
 13 31  1  0  0  0
 14 15  2  0  0  0
 14100  1  0  0  0
 15101  1  0  0  0
 16 17  2  0  0  0
 16 21  1  0  0  0
 16 31  1  0  0  0
 17 18  1  0  0  0
 17102  1  0  0  0
 18 19  2  0  0  0
 18103  1  0  0  0
 19 20  1  0  0  0
 19 24  1  0  0  0
 20 21  2  0  0  0
 20104  1  0  0  0
 21 23  1  0  0  0
 22 28  1  0  0  0
 22 32  2  0  0  0
 26 27  1  0  0  0
 28105  1  0  0  0
 28106  1  0  0  0
 29107  1  0  0  0
 29108  1  0  0  0
 33 34  1  0  0  0
 33 66  1  0  0  0
 33 70  2  0  0  0
 34 36  1  0  0  0
 34 59  1  0  0  0
 34109  1  0  0  0
 35 44  2  0  0  0
 35 45  1  0  0  0
 35 68  1  0  0  0
 36 56  1  0  0  0
 36110  1  0  0  0
 37 39  1  0  0  0
 37 47  1  0  0  0
 37 66  1  0  0  0
 37111  1  0  0  0
 38 43  2  0  0  0
 38 46  1  0  0  0
 38 47  1  0  0  0
 39 64  1  0  0  0
 39 67  2  0  0  0
 40 52  1  0  0  0
 40 53  2  0  0  0
 40 58  1  0  0  0
 41112  1  0  0  0
 41113  1  0  0  0
 41114  1  0  0  0
 41 48  1  0  0  0
 42 43  1  0  0  0
 42 66  1  0  0  0
 42115  1  0  0  0
 42116  1  0  0  0
 43 44  1  0  0  0
 44117  1  0  0  0
 45 46  2  0  0  0
 45118  1  0  0  0
 46119  1  0  0  0
 47120  1  0  0  0
 47121  1  0  0  0
 48 56  1  0  0  0
 48 65  1  0  0  0
 48122  1  0  0  0
 49 50  1  0  0  0
 49 53  1  0  0  0
 49 64  1  0  0  0
 49123  1  0  0  0
 50 51  1  0  0  0
 50124  1  0  0  0
 50125  1  0  0  0
 51 52  1  0  0  0
 51126  1  0  0  0
 51127  1  0  0  0
 52128  1  0  0  0
 52129  1  0  0  0
 53 54  1  0  0  0
 54 55  2  0  0  0
 54130  1  0  0  0
 55 57  1  0  0  0
 55131  1  0  0  0
 56 69  2  0  0  0
 57 58  2  0  0  0
 57132  1  0  0  0
 58133  1  0  0  0
 59 60  1  0  0  0
 59 61  1  0  0  0
 59 62  1  0  0  0
 60134  1  0  0  0
 60135  1  0  0  0
 60136  1  0  0  0
 61137  1  0  0  0
 61138  1  0  0  0
 61139  1  0  0  0
 62140  1  0  0  0
 62141  1  0  0  0
 62142  1  0  0  0
 63 65  1  0  0  0
 63143  1  0  0  0
 63144  1  0  0  0
 63145  1  0  0  0
 64146  1  0  0  0
 65147  1  0  0  0
 68 85  1  0  0  0
 71 72  2  0  0  0
 71 73  1  0  0  0
 71 81  1  0  0  0
 72 74  1  0  0  0
 72 82  1  0  0  0
 73 75  2  0  0  0
 73 85  1  0  0  0
 74 86  1  0  0  0
 74 87  2  0  0  0
 75 83  1  0  0  0
 75 87  1  0  0  0
 76 78  1  0  0  0
 76148  1  0  0  0
 76149  1  0  0  0
 76 80  1  0  0  0
 77 79  1  0  0  0
 77 80  1  0  0  0
 77150  1  0  0  0
 77151  1  0  0  0
 78 88  1  0  0  0
 78152  1  0  0  0
 78153  1  0  0  0
 79 88  1  0  0  0
 79154  1  0  0  0
 79155  1  0  0  0
 80 86  1  0  0  0
 80156  1  0  0  0
 81157  1  0  0  0
 81158  1  0  0  0
 81159  1  0  0  0
 82160  1  0  0  0
 82161  1  0  0  0
 82162  1  0  0  0
 83163  1  0  0  0
 83164  1  0  0  0
 83165  1  0  0  0
 84166  1  0  0  0
 84167  1  0  0  0
 84168  1  0  0  0
 84 86  1  0  0  0
 85169  1  0  0  0
 85170  1  0  0  0
 86171  1  0  0  0
M  ISO  4   1 100  68 101  85 101  88 100
M  END
> <chiral flag>
0

> <version>
0

> <s_m_source_file>
/data/baiqing/PycharmProjects/Reinvent-master-3.2/result/LINK_invent/BTK/process_docking_weight1_custom_sum_contain_oxygen_bond_distance_aromatic_linkinvent_7_9_3/rearranged_h_0162.sdf

> <i_m_source_file_index>
75

> <r_mmod_Potential_Energy-OPLS-2005>
162.942779541016

> <r_mmod_Stretch_Energy-OPLS-2005>
66.3493347167969

> <r_mmod_Bend_Energy-OPLS-2005>
148.021881103516

> <r_mmod_Torsional_Energy-OPLS-2005>
369.22998046875

> <r_mmod_Improper_Torsional_Energy-OPLS-2005>
14.4522361755371

> <r_mmod_Van_der_Waal_Energy-OPLS-2005>
158.850601196289

> <r_mmod_Electrostatic_Energy-OPLS-2005>
-421.208312988281

> <r_mmod_Solvation_Energy-OPLS-2005>
-200.475112915039

> <b_mmod_Minimization_Converged-OPLS-2005>
0

> <r_mmod_RMS_Derivative-OPLS-2005>
1.92777454853058

$$$$
76
                    3D
 Structure written by MMmdl.
168177  0  0  1  0            999 V2000
  -30.6842  -14.7809   20.4473 C   0  0  0  0  0  0
  -30.4101  -12.4876   19.4793 C   0  0  0  0  0  0
  -29.4985  -12.5013   18.2368 C   0  0  0  0  0  0
  -28.0304  -12.3111   18.6566 C   0  0  0  0  0  0
  -27.6282  -13.2324   19.8377 C   0  0  2  0  0  0
  -28.6791  -13.2414   20.9731 C   0  0  0  0  0  0
  -25.2451  -13.8181   20.5693 C   0  0  0  0  0  0
  -24.1764  -13.0425   20.9236 C   0  0  0  0  0  0
  -24.6369  -11.6908   20.8776 C   0  0  0  0  0  0
  -23.9053  -10.4285   21.0421 C   0  0  0  0  0  0
  -24.3610   -9.4203   21.9197 C   0  0  0  0  0  0
  -23.6292   -8.2232   22.0753 C   0  0  0  0  0  0
  -22.4278   -8.0267   21.3536 C   0  0  0  0  0  0
  -21.9911   -9.0243   20.4641 C   0  0  0  0  0  0
  -22.7230  -10.2127   20.3063 C   0  0  0  0  0  0
  -21.6847   -6.0728   22.5281 C   0  0  0  0  0  0
  -21.4005   -6.5634   23.8215 C   0  0  0  0  0  0
  -21.3661   -5.6787   24.9178 C   0  0  0  0  0  0
  -21.6051   -4.3051   24.7223 C   0  0  0  0  0  0
  -21.8819   -3.8140   23.4343 C   0  0  0  0  0  0
  -21.9188   -4.6956   22.3403 C   0  0  0  0  0  0
  -22.7791  -13.5219   21.1877 C   0  0  0  0  0  0
  -22.1662   -4.2143   21.0979 F   0  0  0  0  0  0
  -21.5632   -3.4536   25.7734 F   0  0  0  0  0  0
  -29.9667  -13.5970   20.3667 N   0  0  0  0  0  0
  -26.2872  -12.9390   20.3268 N   0  0  0  0  0  0
  -25.9301  -11.6536   20.5789 N   0  0  0  0  0  0
  -22.0418  -12.8228   22.0427 N   0  0  0  0  0  0
  -25.4086  -15.1898   20.4046 N   0  0  0  0  0  0
  -31.8889  -14.7184   20.1822 O   0  0  0  0  0  0
  -21.6636   -6.8870   21.4241 O   0  0  0  0  0  0
  -22.3494  -14.5528   20.6711 O   0  0  0  0  0  0
  -24.6328  -31.8542   23.1994 C   0  0  0  0  0  0
  -25.9155  -32.4741   23.8336 C   0  0  1  0  0  0
  -27.2067  -27.2496   20.1394 C   0  0  0  0  0  0
  -25.5941  -33.8548   24.2248 N   0  0  0  0  0  0
  -23.4305  -30.4786   21.5423 C   0  0  2  0  0  0
  -24.8794  -28.9308   20.1048 C   0  0  0  0  0  0
  -22.7516  -29.4601   22.4903 C   0  0  0  0  0  0
  -18.0292  -28.1388   22.8480 C   0  0  0  0  0  0
  -24.1492  -36.7283   23.2638 C   0  0  0  0  0  0
  -25.9788  -30.7633   21.3846 C   0  0  0  0  0  0
  -26.0520  -29.3872   20.7230 C   0  0  0  0  0  0
  -27.2237  -28.5590   20.7312 C   0  0  0  0  0  0
  -26.0241  -26.8780   19.4663 C   0  0  0  0  0  0
  -24.8720  -27.6846   19.4620 C   0  0  0  0  0  0
  -23.6498  -29.8169   20.1568 C   0  0  0  0  0  0
  -25.4119  -36.3058   24.0322 C   0  0  1  0  0  0
  -20.5899  -28.3703   23.1260 C   0  0  2  0  0  0
  -20.6784  -26.9418   22.5407 C   0  0  0  0  0  0
  -19.5758  -26.6383   21.5211 C   0  0  0  0  0  0
  -18.1938  -26.7934   22.1619 C   0  0  0  0  0  0
  -19.1548  -28.8866   23.2863 C   0  0  0  0  0  0
  -18.9465  -30.1465   23.8877 C   0  0  0  0  0  0
  -17.6465  -30.6589   24.0558 C   0  0  0  0  0  0
  -25.9062  -34.9430   23.5084 C   0  0  0  0  0  0
  -16.5354  -29.9079   23.6337 C   0  0  0  0  0  0
  -16.7280  -28.6500   23.0356 C   0  0  0  0  0  0
  -26.4518  -31.6575   25.0738 C   0  0  0  0  0  0
  -25.3735  -31.3729   26.1453 C   0  0  0  0  0  0
  -27.0381  -30.2982   24.6265 C   0  0  0  0  0  0
  -27.6051  -32.4340   25.7518 C   0  0  0  0  0  0
  -27.5582  -37.1794   24.8460 C   0  0  0  0  0  0
  -21.4220  -29.3044   22.3646 N   0  0  0  0  0  0
  -26.4286  -37.3766   23.9409 N   0  0  0  0  0  0
  -24.6993  -31.0501   22.0977 N   0  0  0  0  0  0
  -23.4211  -28.8142   23.3006 O   0  0  0  0  0  0
  -28.2321  -26.2760   20.2143 O   0  0  0  0  0  0
  -26.5639  -34.8903   22.4654 O   0  0  0  0  0  0
  -23.5476  -32.1371   23.7284 O   0  0  0  0  0  0
  -29.1524  -22.9425   19.7393 C   0  0  0  0  0  0
  -27.9663  -22.5309   21.7906 C   0  0  0  0  0  0
  -28.3714  -23.4977   20.8020 C   0  0  0  0  0  0
  -29.4632  -21.5213   19.6577 C   0  0  0  0  0  0
  -28.3326  -21.1299   21.7456 C   0  0  0  0  0  0
  -29.0681  -20.5581   20.6549 C   0  0  0  0  0  0
  -30.5409  -18.6024   21.3093 C   0  0  0  0  0  0
  -28.3517  -18.0913   20.4606 C   0  0  0  0  0  0
  -31.0754  -17.2153   20.7960 C   0  0  0  0  0  0
  -28.7820  -16.5570   20.2573 C   0  0  0  0  0  0
  -29.6459  -23.8942   18.6549 C   0  0  0  0  0  0
  -27.0943  -23.0099   22.9618 C   0  0  0  0  0  0
  -30.2471  -21.0173   18.4465 C   0  0  0  0  0  0
  -27.9101  -20.2421   22.9185 C   0  0  0  0  0  0
  -27.8270  -25.0205   20.9456 C   0  0  0  0  0  0
  -29.4057  -19.1311   20.5435 N   0  0  0  0  0  0
  -30.1273  -16.0589   20.6790 N   0  0  0  0  0  0
  -31.4524  -12.5747   19.1683 H   0  0  0  0  0  0
  -30.3417  -11.5295   19.9977 H   0  0  0  0  0  0
  -29.7944  -11.7172   17.5384 H   0  0  0  0  0  0
  -29.6127  -13.4467   17.7049 H   0  0  0  0  0  0
  -27.9026  -11.2665   18.9423 H   0  0  0  0  0  0
  -27.3681  -12.4765   17.8056 H   0  0  0  0  0  0
  -27.5925  -14.2293   19.4054 H   0  0  0  0  0  0
  -28.7385  -12.2658   21.4585 H   0  0  0  0  0  0
  -28.4118  -13.9526   21.7547 H   0  0  0  0  0  0
  -25.2740   -9.5690   22.4793 H   0  0  0  0  0  0
  -23.9991   -7.4626   22.7483 H   0  0  0  0  0  0
  -21.0835   -8.8772   19.8957 H   0  0  0  0  0  0
  -22.3681  -10.9678   19.6188 H   0  0  0  0  0  0
  -21.2000   -7.6141   23.9718 H   0  0  0  0  0  0
  -21.1486   -6.0514   25.9084 H   0  0  0  0  0  0
  -22.0598   -2.7600   23.2839 H   0  0  0  0  0  0
  -22.3998  -11.9885   22.4832 H   0  0  0  0  0  0
  -21.1039  -13.1283   22.2613 H   0  0  0  0  0  0
  -24.6362  -15.8378   20.5138 H   0  0  0  0  0  0
  -26.2446  -15.6265   20.0419 H   0  0  0  0  0  0
  -26.7225  -32.5386   23.1076 H   0  0  0  0  0  0
  -25.0070  -33.9681   25.0383 H   0  0  0  0  0  0
  -22.7266  -31.3010   21.3978 H   0  0  0  0  0  0
  -23.3753  -35.9616   23.3283 H   0  0  0  0  0  0
  -24.3580  -36.8932   22.2056 H   0  0  0  0  0  0
  -23.7248  -37.6477   23.6682 H   0  0  0  0  0  0
  -26.1256  -31.5261   20.6187 H   0  0  0  0  0  0
  -26.8530  -30.8058   22.0228 H   0  0  0  0  0  0
  -28.1151  -28.8950   21.2426 H   0  0  0  0  0  0
  -25.9726  -25.9176   18.9718 H   0  0  0  0  0  0
  -23.9779  -27.3331   18.9649 H   0  0  0  0  0  0
  -23.7716  -30.5949   19.4025 H   0  0  0  0  0  0
  -22.7680  -29.2505   19.8517 H   0  0  0  0  0  0
  -25.1301  -36.1896   25.0816 H   0  0  0  0  0  0
  -20.9989  -28.3284   24.1382 H   0  0  0  0  0  0
  -20.5688  -26.2311   23.3615 H   0  0  0  0  0  0
  -21.6649  -26.7447   22.1192 H   0  0  0  0  0  0
  -19.6917  -25.6292   21.1249 H   0  0  0  0  0  0
  -19.6695  -27.3185   20.6734 H   0  0  0  0  0  0
  -17.4213  -26.6687   21.4016 H   0  0  0  0  0  0
  -18.0326  -26.0073   22.9008 H   0  0  0  0  0  0
  -19.7942  -30.7291   24.2232 H   0  0  0  0  0  0
  -17.5017  -31.6267   24.5158 H   0  0  0  0  0  0
  -15.5355  -30.2971   23.7676 H   0  0  0  0  0  0
  -15.8679  -28.0813   22.7079 H   0  0  0  0  0  0
  -24.5898  -30.7095   25.7777 H   0  0  0  0  0  0
  -24.8945  -32.2901   26.4890 H   0  0  0  0  0  0
  -25.8048  -30.8889   27.0227 H   0  0  0  0  0  0
  -26.2983  -29.6710   24.1273 H   0  0  0  0  0  0
  -27.4019  -29.7269   25.4819 H   0  0  0  0  0  0
  -27.8883  -30.4237   23.9552 H   0  0  0  0  0  0
  -27.2628  -33.3635   26.2083 H   0  0  0  0  0  0
  -28.3866  -32.6921   25.0357 H   0  0  0  0  0  0
  -28.0718  -31.8485   26.5450 H   0  0  0  0  0  0
  -28.2580  -38.0109   24.7519 H   0  0  0  0  0  0
  -28.1092  -36.2637   24.6261 H   0  0  0  0  0  0
  -27.2298  -37.1413   25.8861 H   0  0  0  0  0  0
  -20.9412  -29.8753   21.6834 H   0  0  0  0  0  0
  -26.0157  -38.2836   24.1415 H   0  0  0  0  0  0
  -31.3518  -19.3320   21.2764 H   0  0  0  0  0  0
  -30.2776  -18.5018   22.3610 H   0  0  0  0  0  0
  -27.7446  -18.1359   21.3623 H   0  0  0  0  0  0
  -27.6655  -18.3693   19.6589 H   0  0  0  0  0  0
  -31.8930  -16.9276   21.4600 H   0  0  0  0  0  0
  -31.5314  -17.3687   19.8161 H   0  0  0  0  0  0
  -28.6942  -16.3290   19.1935 H   0  0  0  0  0  0
  -28.0302  -15.9552   20.7605 H   0  0  0  0  0  0
  -29.8494  -24.8839   19.0573 H   0  0  0  0  0  0
  -28.8999  -23.9929   17.8665 H   0  0  0  0  0  0
  -30.5842  -23.5717   18.2064 H   0  0  0  0  0  0
  -26.4023  -23.8049   22.6940 H   0  0  0  0  0  0
  -27.7224  -23.3707   23.7768 H   0  0  0  0  0  0
  -26.4418  -22.2340   23.3568 H   0  0  0  0  0  0
  -29.8871  -21.4773   17.5265 H   0  0  0  0  0  0
  -30.1604  -19.9426   18.2945 H   0  0  0  0  0  0
  -31.3053  -21.2510   18.5615 H   0  0  0  0  0  0
  -28.0617  -20.7478   23.8718 H   0  0  0  0  0  0
  -28.4760  -19.3222   23.0051 H   0  0  0  0  0  0
  -26.8573  -19.9724   22.8275 H   0  0  0  0  0  0
  -27.9960  -25.2944   21.9877 H   0  0  0  0  0  0
  -26.7481  -24.9043   20.8562 H   0  0  0  0  0  0
  1 25  1  0  0  0
  1 30  2  0  0  0
  1 87  1  0  0  0
  2  3  1  0  0  0
  2 25  1  0  0  0
  2 88  1  0  0  0
  2 89  1  0  0  0
  3  4  1  0  0  0
  3 90  1  0  0  0
  3 91  1  0  0  0
  4  5  1  0  0  0
  4 92  1  0  0  0
  4 93  1  0  0  0
  5  6  1  0  0  0
  5 26  1  0  0  0
  5 94  1  0  0  0
  6 25  1  0  0  0
  6 95  1  0  0  0
  6 96  1  0  0  0
  7  8  2  0  0  0
  7 26  1  0  0  0
  7 29  1  0  0  0
  8  9  1  0  0  0
  8 22  1  0  0  0
  9 10  1  0  0  0
  9 27  2  0  0  0
 10 11  2  0  0  0
 10 15  1  0  0  0
 11 12  1  0  0  0
 11 97  1  0  0  0
 12 13  2  0  0  0
 12 98  1  0  0  0
 13 14  1  0  0  0
 13 31  1  0  0  0
 14 15  2  0  0  0
 14 99  1  0  0  0
 15100  1  0  0  0
 16 17  2  0  0  0
 16 21  1  0  0  0
 16 31  1  0  0  0
 17 18  1  0  0  0
 17101  1  0  0  0
 18 19  2  0  0  0
 18102  1  0  0  0
 19 20  1  0  0  0
 19 24  1  0  0  0
 20 21  2  0  0  0
 20103  1  0  0  0
 21 23  1  0  0  0
 22 28  1  0  0  0
 22 32  2  0  0  0
 26 27  1  0  0  0
 28104  1  0  0  0
 28105  1  0  0  0
 29106  1  0  0  0
 29107  1  0  0  0
 33 34  1  0  0  0
 33 66  1  0  0  0
 33 70  2  0  0  0
 34 36  1  0  0  0
 34 59  1  0  0  0
 34108  1  0  0  0
 35 44  2  0  0  0
 35 45  1  0  0  0
 35 68  1  0  0  0
 36 56  1  0  0  0
 36109  1  0  0  0
 37 39  1  0  0  0
 37 47  1  0  0  0
 37 66  1  0  0  0
 37110  1  0  0  0
 38 43  2  0  0  0
 38 46  1  0  0  0
 38 47  1  0  0  0
 39 64  1  0  0  0
 39 67  2  0  0  0
 40 52  1  0  0  0
 40 53  2  0  0  0
 40 58  1  0  0  0
 41111  1  0  0  0
 41112  1  0  0  0
 41113  1  0  0  0
 41 48  1  0  0  0
 42 43  1  0  0  0
 42 66  1  0  0  0
 42114  1  0  0  0
 42115  1  0  0  0
 43 44  1  0  0  0
 44116  1  0  0  0
 45 46  2  0  0  0
 45117  1  0  0  0
 46118  1  0  0  0
 47119  1  0  0  0
 47120  1  0  0  0
 48 56  1  0  0  0
 48 65  1  0  0  0
 48121  1  0  0  0
 49 50  1  0  0  0
 49 53  1  0  0  0
 49 64  1  0  0  0
 49122  1  0  0  0
 50 51  1  0  0  0
 50123  1  0  0  0
 50124  1  0  0  0
 51 52  1  0  0  0
 51125  1  0  0  0
 51126  1  0  0  0
 52127  1  0  0  0
 52128  1  0  0  0
 53 54  1  0  0  0
 54 55  2  0  0  0
 54129  1  0  0  0
 55 57  1  0  0  0
 55130  1  0  0  0
 56 69  2  0  0  0
 57 58  2  0  0  0
 57131  1  0  0  0
 58132  1  0  0  0
 59 60  1  0  0  0
 59 61  1  0  0  0
 59 62  1  0  0  0
 60133  1  0  0  0
 60134  1  0  0  0
 60135  1  0  0  0
 61136  1  0  0  0
 61137  1  0  0  0
 61138  1  0  0  0
 62139  1  0  0  0
 62140  1  0  0  0
 62141  1  0  0  0
 63 65  1  0  0  0
 63142  1  0  0  0
 63143  1  0  0  0
 63144  1  0  0  0
 64145  1  0  0  0
 65146  1  0  0  0
 68 85  1  0  0  0
 71 73  2  0  0  0
 71 74  1  0  0  0
 71 81  1  0  0  0
 72 73  1  0  0  0
 72 75  2  0  0  0
 72 82  1  0  0  0
 73 85  1  0  0  0
 74 76  2  0  0  0
 74 83  1  0  0  0
 75 76  1  0  0  0
 75 84  1  0  0  0
 76 86  1  0  0  0
 77 79  1  0  0  0
 77 86  1  0  0  0
 77147  1  0  0  0
 77148  1  0  0  0
 78 80  1  0  0  0
 78 86  1  0  0  0
 78149  1  0  0  0
 78150  1  0  0  0
 79 87  1  0  0  0
 79151  1  0  0  0
 79152  1  0  0  0
 80 87  1  0  0  0
 80153  1  0  0  0
 80154  1  0  0  0
 81155  1  0  0  0
 81156  1  0  0  0
 81157  1  0  0  0
 82158  1  0  0  0
 82159  1  0  0  0
 82160  1  0  0  0
 83161  1  0  0  0
 83162  1  0  0  0
 83163  1  0  0  0
 84164  1  0  0  0
 84165  1  0  0  0
 84166  1  0  0  0
 85167  1  0  0  0
 85168  1  0  0  0
M  ISO  4   1 100  68 101  85 101  87 100
M  END
> <chiral flag>
0

> <version>
0

> <s_m_source_file>
/data/baiqing/PycharmProjects/Reinvent-master-3.2/result/LINK_invent/BTK/process_docking_weight1_custom_sum_contain_oxygen_bond_distance_aromatic_linkinvent_7_9_3/rearranged_h_0162.sdf

> <i_m_source_file_index>
76

> <r_mmod_Potential_Energy-OPLS-2005>
484.810302734375

> <r_mmod_Stretch_Energy-OPLS-2005>
142.623458862305

> <r_mmod_Bend_Energy-OPLS-2005>
236.468170166016

> <r_mmod_Torsional_Energy-OPLS-2005>
382.280303955078

> <r_mmod_Improper_Torsional_Energy-OPLS-2005>
8.2242956161499

> <r_mmod_Van_der_Waal_Energy-OPLS-2005>
176.872909545898

> <r_mmod_Electrostatic_Energy-OPLS-2005>
-368.127777099609

> <r_mmod_Solvation_Energy-OPLS-2005>
-204.880096435547

> <b_mmod_Minimization_Converged-OPLS-2005>
0

> <r_mmod_RMS_Derivative-OPLS-2005>
1.11748886108398

$$$$
77
                    3D
 Structure written by MMmdl.
167176  0  0  1  0            999 V2000
  -30.5240  -15.0131   20.4223 C   0  0  0  0  0  0
  -30.4447  -12.6316   19.5181 C   0  0  0  0  0  0
  -29.5261  -12.5540   18.2740 C   0  0  0  0  0  0
  -28.0558  -12.3431   18.6828 C   0  0  0  0  0  0
  -27.6283  -13.2638   19.8559 C   0  0  2  0  0  0
  -28.6757  -13.2946   20.9936 C   0  0  0  0  0  0
  -25.2221  -13.8094   20.5541 C   0  0  0  0  0  0
  -24.1662  -13.0307   20.9284 C   0  0  0  0  0  0
  -24.6384  -11.6849   20.8851 C   0  0  0  0  0  0
  -23.9075  -10.4216   21.0448 C   0  0  0  0  0  0
  -24.3613   -9.4121   21.9212 C   0  0  0  0  0  0
  -23.6273   -8.2165   22.0774 C   0  0  0  0  0  0
  -22.4262   -8.0232   21.3547 C   0  0  0  0  0  0
  -21.9906   -9.0206   20.4648 C   0  0  0  0  0  0
  -22.7258  -10.2068   20.3072 C   0  0  0  0  0  0
  -21.6836   -6.0702   22.5270 C   0  0  0  0  0  0
  -21.4004   -6.5609   23.8203 C   0  0  0  0  0  0
  -21.3671   -5.6773   24.9185 C   0  0  0  0  0  0
  -21.6053   -4.3032   24.7235 C   0  0  0  0  0  0
  -21.8816   -3.8112   23.4359 C   0  0  0  0  0  0
  -21.9191   -4.6929   22.3416 C   0  0  0  0  0  0
  -22.7682  -13.5066   21.1934 C   0  0  0  0  0  0
  -22.1665   -4.2106   21.0993 F   0  0  0  0  0  0
  -21.5651   -3.4529   25.7759 F   0  0  0  0  0  0
  -29.9534  -13.7309   20.4063 N   0  0  0  0  0  0
  -26.2844  -12.9472   20.3355 N   0  0  0  0  0  0
  -25.9368  -11.6594   20.5940 N   0  0  0  0  0  0
  -22.0366  -12.8067   22.0526 N   0  0  0  0  0  0
  -25.3354  -15.1730   20.3415 N   0  0  0  0  0  0
  -31.6980  -15.0965   20.0457 O   0  0  0  0  0  0
  -21.6616   -6.8840   21.4232 O   0  0  0  0  0  0
  -22.3327  -14.5371   20.6785 O   0  0  0  0  0  0
  -24.6454  -31.8411   23.1856 C   0  0  0  0  0  0
  -25.9207  -32.4678   23.8262 C   0  0  1  0  0  0
  -27.2280  -27.1037   20.1519 C   0  0  0  0  0  0
  -25.5942  -33.8490   24.2171 N   0  0  0  0  0  0
  -23.4519  -30.4580   21.5305 C   0  0  2  0  0  0
  -24.9071  -28.8805   20.1088 C   0  0  0  0  0  0
  -22.7583  -29.4510   22.4823 C   0  0  0  0  0  0
  -18.0303  -28.1390   22.8473 C   0  0  0  0  0  0
  -24.1493  -36.7249   23.2638 C   0  0  0  0  0  0
  -26.0115  -30.7023   21.3933 C   0  0  0  0  0  0
  -26.0842  -29.3110   20.7332 C   0  0  0  0  0  0
  -27.2413  -28.4390   20.7391 C   0  0  0  0  0  0
  -26.0231  -26.7858   19.4879 C   0  0  0  0  0  0
  -24.8926  -27.6328   19.4684 C   0  0  0  0  0  0
  -23.6845  -29.7861   20.1509 C   0  0  0  0  0  0
  -25.4130  -36.3012   24.0299 C   0  0  1  0  0  0
  -20.5921  -28.3716   23.1217 C   0  0  2  0  0  0
  -20.6778  -26.9411   22.5401 C   0  0  0  0  0  0
  -19.5752  -26.6372   21.5208 C   0  0  0  0  0  0
  -18.1938  -26.7931   22.1624 C   0  0  0  0  0  0
  -19.1566  -28.8871   23.2837 C   0  0  0  0  0  0
  -18.9479  -30.1467   23.8869 C   0  0  0  0  0  0
  -17.6477  -30.6589   24.0551 C   0  0  0  0  0  0
  -25.9078  -34.9393   23.5049 C   0  0  0  0  0  0
  -16.5365  -29.9080   23.6335 C   0  0  0  0  0  0
  -16.7291  -28.6494   23.0362 C   0  0  0  0  0  0
  -26.4529  -31.6566   25.0729 C   0  0  0  0  0  0
  -25.3707  -31.3763   26.1412 C   0  0  0  0  0  0
  -27.0397  -30.2949   24.6345 C   0  0  0  0  0  0
  -27.6045  -32.4357   25.7522 C   0  0  0  0  0  0
  -27.5575  -37.1776   24.8457 C   0  0  0  0  0  0
  -21.4265  -29.3043   22.3584 N   0  0  0  0  0  0
  -26.4282  -37.3737   23.9396 N   0  0  0  0  0  0
  -24.7222  -31.0233   22.0909 N   0  0  0  0  0  0
  -23.4211  -28.8043   23.2975 O   0  0  0  0  0  0
  -28.2807  -26.1040   20.2407 O   0  0  0  0  0  0
  -26.5683  -34.8892   22.4640 O   0  0  0  0  0  0
  -23.5558  -32.1297   23.7049 O   0  0  0  0  0  0
  -29.2110  -19.7861   23.5714 C   0  0  0  0  0  0
  -28.8724  -18.9587   22.4880 C   0  0  0  0  0  0
  -29.4076  -19.1879   21.1909 C   0  0  0  0  0  0
  -30.1316  -20.8279   23.3785 C   0  0  0  0  0  0
  -30.4609  -21.2147   22.0604 C   0  0  0  0  0  0
  -29.7211  -20.6655   20.9750 C   0  0  0  0  0  0
  -27.9858  -17.7565   22.7353 C   0  0  0  0  0  0
  -27.3198  -17.2431   21.4451 C   0  0  0  0  0  0
  -28.0669  -17.5953   20.1233 C   0  0  0  0  0  0
  -29.5998  -17.7546   20.3152 C   0  0  1  0  0  0
  -30.7000  -21.5598   24.5838 C   0  0  0  0  0  0
  -31.5541  -22.2515   21.8359 C   0  0  0  0  0  0
  -28.3527  -24.5130   18.3719 C   0  0  0  0  0  0
  -29.0244  -23.2669   20.5362 C   0  0  0  0  0  0
  -28.1311  -24.5703   19.8916 C   0  0  1  0  0  0
  -29.7282  -16.1774   20.6835 N   0  0  0  0  0  0
  -29.0245  -21.7157   20.1949 O   0  0  0  0  0  0
  -31.4753  -12.7933   19.2016 H   0  0  0  0  0  0
  -30.4498  -11.6841   20.0584 H   0  0  0  0  0  0
  -29.8487  -11.7493   17.6110 H   0  0  0  0  0  0
  -29.6124  -13.4758   17.6965 H   0  0  0  0  0  0
  -27.9407  -11.3013   18.9793 H   0  0  0  0  0  0
  -27.3984  -12.4880   17.8250 H   0  0  0  0  0  0
  -27.5840  -14.2710   19.4409 H   0  0  0  0  0  0
  -28.7740  -12.3132   21.4612 H   0  0  0  0  0  0
  -28.3624  -13.9764   21.7863 H   0  0  0  0  0  0
  -25.2762   -9.5579   22.4789 H   0  0  0  0  0  0
  -23.9977   -7.4549   22.7500 H   0  0  0  0  0  0
  -21.0837   -8.8720   19.8948 H   0  0  0  0  0  0
  -22.3740  -10.9608   19.6171 H   0  0  0  0  0  0
  -21.1984   -7.6113   23.9698 H   0  0  0  0  0  0
  -21.1512   -6.0513   25.9090 H   0  0  0  0  0  0
  -22.0590   -2.7567   23.2885 H   0  0  0  0  0  0
  -22.3990  -11.9744   22.4922 H   0  0  0  0  0  0
  -21.0978  -13.1074   22.2732 H   0  0  0  0  0  0
  -24.5437  -15.7987   20.4530 H   0  0  0  0  0  0
  -26.1551  -15.6347   19.9734 H   0  0  0  0  0  0
  -26.7269  -32.5266   23.0989 H   0  0  0  0  0  0
  -25.0050  -33.9610   25.0279 H   0  0  0  0  0  0
  -22.7529  -31.2825   21.3729 H   0  0  0  0  0  0
  -23.3757  -35.9572   23.3288 H   0  0  0  0  0  0
  -24.3560  -36.8918   22.2054 H   0  0  0  0  0  0
  -23.7256  -37.6433   23.6712 H   0  0  0  0  0  0
  -26.1785  -31.4557   20.6221 H   0  0  0  0  0  0
  -26.8764  -30.7501   22.0436 H   0  0  0  0  0  0
  -28.1326  -28.7668   21.2565 H   0  0  0  0  0  0
  -25.9142  -25.8333   18.9949 H   0  0  0  0  0  0
  -23.9977  -27.3004   18.9631 H   0  0  0  0  0  0
  -23.8240  -30.5635   19.3989 H   0  0  0  0  0  0
  -22.7992  -29.2314   19.8353 H   0  0  0  0  0  0
  -25.1321  -36.1835   25.0787 H   0  0  0  0  0  0
  -21.0019  -28.3321   24.1334 H   0  0  0  0  0  0
  -20.5660  -26.2328   23.3626 H   0  0  0  0  0  0
  -21.6635  -26.7394   22.1199 H   0  0  0  0  0  0
  -19.6905  -25.6274   21.1257 H   0  0  0  0  0  0
  -19.6696  -27.3162   20.6725 H   0  0  0  0  0  0
  -17.4197  -26.6668   21.4039 H   0  0  0  0  0  0
  -18.0337  -26.0083   22.9033 H   0  0  0  0  0  0
  -19.7957  -30.7284   24.2227 H   0  0  0  0  0  0
  -17.5033  -31.6271   24.5150 H   0  0  0  0  0  0
  -15.5365  -30.2976   23.7673 H   0  0  0  0  0  0
  -15.8689  -28.0805   22.7101 H   0  0  0  0  0  0
  -24.5886  -30.7115   25.7729 H   0  0  0  0  0  0
  -24.8891  -32.2942   26.4792 H   0  0  0  0  0  0
  -25.7977  -30.8965   27.0228 H   0  0  0  0  0  0
  -26.3015  -29.6674   24.1337 H   0  0  0  0  0  0
  -27.3958  -29.7262   25.4947 H   0  0  0  0  0  0
  -27.8956  -30.4162   23.9704 H   0  0  0  0  0  0
  -27.2616  -33.3674   26.2040 H   0  0  0  0  0  0
  -28.3895  -32.6905   25.0390 H   0  0  0  0  0  0
  -28.0675  -31.8534   26.5503 H   0  0  0  0  0  0
  -28.2565  -38.0101   24.7509 H   0  0  0  0  0  0
  -28.1108  -36.2623   24.6286 H   0  0  0  0  0  0
  -27.2279  -37.1414   25.8856 H   0  0  0  0  0  0
  -20.9463  -29.8787   21.6796 H   0  0  0  0  0  0
  -26.0150  -38.2788   24.1435 H   0  0  0  0  0  0
  -28.8593  -19.5327   24.5636 H   0  0  0  0  0  0
  -27.2126  -17.9999   23.4670 H   0  0  0  0  0  0
  -28.5970  -16.9711   23.1842 H   0  0  0  0  0  0
  -26.3053  -17.6366   21.3747 H   0  0  0  0  0  0
  -27.2273  -16.1664   21.5687 H   0  0  0  0  0  0
  -27.6506  -18.5212   19.7187 H   0  0  0  0  0  0
  -27.8334  -16.8658   19.3446 H   0  0  0  0  0  0
  -30.2785  -17.6405   21.1603 H   0  0  0  0  0  0
  -30.2253  -21.2356   25.5106 H   0  0  0  0  0  0
  -30.5381  -22.6347   24.4931 H   0  0  0  0  0  0
  -31.7709  -21.3806   24.6790 H   0  0  0  0  0  0
  -32.4652  -21.9531   22.3542 H   0  0  0  0  0  0
  -31.2672  -23.2355   22.2078 H   0  0  0  0  0  0
  -31.8095  -22.3262   20.7782 H   0  0  0  0  0  0
  -28.1829  -23.5047   17.9924 H   0  0  0  0  0  0
  -29.3799  -24.7867   18.1257 H   0  0  0  0  0  0
  -27.6948  -25.1863   17.8246 H   0  0  0  0  0  0
  -28.8851  -23.3345   21.6149 H   0  0  0  0  0  0
  -30.0405  -23.5947   20.3389 H   0  0  0  0  0  0
  -27.0916  -24.3130   20.0966 H   0  0  0  0  0  0
  -28.8619  -15.8842   21.1061 H   0  0  0  0  0  0
  1 25  1  0  0  0
  1 30  2  0  0  0
  1 86  1  0  0  0
  2  3  1  0  0  0
  2 25  1  0  0  0
  2 88  1  0  0  0
  2 89  1  0  0  0
  3  4  1  0  0  0
  3 90  1  0  0  0
  3 91  1  0  0  0
  4  5  1  0  0  0
  4 92  1  0  0  0
  4 93  1  0  0  0
  5  6  1  0  0  0
  5 26  1  0  0  0
  5 94  1  0  0  0
  6 25  1  0  0  0
  6 95  1  0  0  0
  6 96  1  0  0  0
  7  8  2  0  0  0
  7 26  1  0  0  0
  7 29  1  0  0  0
  8  9  1  0  0  0
  8 22  1  0  0  0
  9 10  1  0  0  0
  9 27  2  0  0  0
 10 11  2  0  0  0
 10 15  1  0  0  0
 11 12  1  0  0  0
 11 97  1  0  0  0
 12 13  2  0  0  0
 12 98  1  0  0  0
 13 14  1  0  0  0
 13 31  1  0  0  0
 14 15  2  0  0  0
 14 99  1  0  0  0
 15100  1  0  0  0
 16 17  2  0  0  0
 16 21  1  0  0  0
 16 31  1  0  0  0
 17 18  1  0  0  0
 17101  1  0  0  0
 18 19  2  0  0  0
 18102  1  0  0  0
 19 20  1  0  0  0
 19 24  1  0  0  0
 20 21  2  0  0  0
 20103  1  0  0  0
 21 23  1  0  0  0
 22 28  1  0  0  0
 22 32  2  0  0  0
 26 27  1  0  0  0
 28104  1  0  0  0
 28105  1  0  0  0
 29106  1  0  0  0
 29107  1  0  0  0
 33 34  1  0  0  0
 33 66  1  0  0  0
 33 70  2  0  0  0
 34 36  1  0  0  0
 34 59  1  0  0  0
 34108  1  0  0  0
 35 44  2  0  0  0
 35 45  1  0  0  0
 35 68  1  0  0  0
 36 56  1  0  0  0
 36109  1  0  0  0
 37 39  1  0  0  0
 37 47  1  0  0  0
 37 66  1  0  0  0
 37110  1  0  0  0
 38 43  2  0  0  0
 38 46  1  0  0  0
 38 47  1  0  0  0
 39 64  1  0  0  0
 39 67  2  0  0  0
 40 52  1  0  0  0
 40 53  2  0  0  0
 40 58  1  0  0  0
 41111  1  0  0  0
 41112  1  0  0  0
 41113  1  0  0  0
 41 48  1  0  0  0
 42 43  1  0  0  0
 42 66  1  0  0  0
 42114  1  0  0  0
 42115  1  0  0  0
 43 44  1  0  0  0
 44116  1  0  0  0
 45 46  2  0  0  0
 45117  1  0  0  0
 46118  1  0  0  0
 47119  1  0  0  0
 47120  1  0  0  0
 48 56  1  0  0  0
 48 65  1  0  0  0
 48121  1  0  0  0
 49 50  1  0  0  0
 49 53  1  0  0  0
 49 64  1  0  0  0
 49122  1  0  0  0
 50 51  1  0  0  0
 50123  1  0  0  0
 50124  1  0  0  0
 51 52  1  0  0  0
 51125  1  0  0  0
 51126  1  0  0  0
 52127  1  0  0  0
 52128  1  0  0  0
 53 54  1  0  0  0
 54 55  2  0  0  0
 54129  1  0  0  0
 55 57  1  0  0  0
 55130  1  0  0  0
 56 69  2  0  0  0
 57 58  2  0  0  0
 57131  1  0  0  0
 58132  1  0  0  0
 59 60  1  0  0  0
 59 61  1  0  0  0
 59 62  1  0  0  0
 60133  1  0  0  0
 60134  1  0  0  0
 60135  1  0  0  0
 61136  1  0  0  0
 61137  1  0  0  0
 61138  1  0  0  0
 62139  1  0  0  0
 62140  1  0  0  0
 62141  1  0  0  0
 63 65  1  0  0  0
 63142  1  0  0  0
 63143  1  0  0  0
 63144  1  0  0  0
 64145  1  0  0  0
 65146  1  0  0  0
 68 85  1  0  0  0
 71 72  2  0  0  0
 71 74  1  0  0  0
 71147  1  0  0  0
 72 73  1  0  0  0
 72 77  1  0  0  0
 73 76  2  0  0  0
 73 80  1  0  0  0
 74 75  2  0  0  0
 74 81  1  0  0  0
 75 76  1  0  0  0
 75 82  1  0  0  0
 76 87  1  0  0  0
 77 78  1  0  0  0
 77148  1  0  0  0
 77149  1  0  0  0
 78 79  1  0  0  0
 78150  1  0  0  0
 78151  1  0  0  0
 79 80  1  0  0  0
 79152  1  0  0  0
 79153  1  0  0  0
 80 86  1  0  0  0
 80154  1  0  0  0
 81155  1  0  0  0
 81156  1  0  0  0
 81157  1  0  0  0
 82158  1  0  0  0
 82159  1  0  0  0
 82160  1  0  0  0
 83161  1  0  0  0
 83162  1  0  0  0
 83163  1  0  0  0
 83 85  1  0  0  0
 84 85  1  0  0  0
 84 87  1  0  0  0
 84164  1  0  0  0
 84165  1  0  0  0
 85166  1  0  0  0
 86167  1  0  0  0
M  ISO  4   1 100  68 101  85 101  86 100
M  END
> <chiral flag>
0

> <version>
0

> <s_m_source_file>
/data/baiqing/PycharmProjects/Reinvent-master-3.2/result/LINK_invent/BTK/process_docking_weight1_custom_sum_contain_oxygen_bond_distance_aromatic_linkinvent_7_9_3/rearranged_h_0162.sdf

> <i_m_source_file_index>
77

> <r_mmod_Potential_Energy-OPLS-2005>
1160.42419433594

> <r_mmod_Stretch_Energy-OPLS-2005>
357.237243652344

> <r_mmod_Bend_Energy-OPLS-2005>
586.363525390625

> <r_mmod_Torsional_Energy-OPLS-2005>
422.877563476562

> <r_mmod_Improper_Torsional_Energy-OPLS-2005>
12.0567827224731

> <r_mmod_Van_der_Waal_Energy-OPLS-2005>
173.129165649414

> <r_mmod_Electrostatic_Energy-OPLS-2005>
-412.156890869141

> <r_mmod_Solvation_Energy-OPLS-2005>
-210.792449951172

> <b_mmod_Minimization_Converged-OPLS-2005>
0

> <r_mmod_RMS_Derivative-OPLS-2005>
3.10844993591309

$$$$
78
                    3D
 Structure written by MMmdl.
167176  0  0  1  0            999 V2000
  -30.6743  -14.5974   20.4804 C   0  0  0  0  0  0
  -30.4160  -12.3631   19.4502 C   0  0  0  0  0  0
  -29.4968  -12.4895   18.2180 C   0  0  0  0  0  0
  -28.0195  -12.3446   18.6326 C   0  0  0  0  0  0
  -27.6466  -13.2254   19.8566 C   0  0  2  0  0  0
  -28.6920  -13.1113   20.9873 C   0  0  0  0  0  0
  -25.2538  -13.8202   20.5700 C   0  0  0  0  0  0
  -24.1810  -13.0452   20.9185 C   0  0  0  0  0  0
  -24.6391  -11.6926   20.8742 C   0  0  0  0  0  0
  -23.9068  -10.4303   21.0405 C   0  0  0  0  0  0
  -24.3620   -9.4216   21.9182 C   0  0  0  0  0  0
  -23.6295   -8.2251   22.0755 C   0  0  0  0  0  0
  -22.4278   -8.0285   21.3544 C   0  0  0  0  0  0
  -21.9913   -9.0259   20.4644 C   0  0  0  0  0  0
  -22.7242  -10.2138   20.3054 C   0  0  0  0  0  0
  -21.6854   -6.0736   22.5276 C   0  0  0  0  0  0
  -21.4014   -6.5639   23.8209 C   0  0  0  0  0  0
  -21.3660   -5.6793   24.9171 C   0  0  0  0  0  0
  -21.6045   -4.3057   24.7225 C   0  0  0  0  0  0
  -21.8819   -3.8148   23.4346 C   0  0  0  0  0  0
  -21.9194   -4.6963   22.3401 C   0  0  0  0  0  0
  -22.7832  -13.5235   21.1850 C   0  0  0  0  0  0
  -22.1661   -4.2148   21.0978 F   0  0  0  0  0  0
  -21.5632   -3.4541   25.7738 F   0  0  0  0  0  0
  -30.0034  -13.4096   20.4035 N   0  0  0  0  0  0
  -26.2964  -12.9397   20.3321 N   0  0  0  0  0  0
  -25.9323  -11.6542   20.5771 N   0  0  0  0  0  0
  -22.0484  -12.8217   22.0406 N   0  0  0  0  0  0
  -25.4272  -15.1920   20.4143 N   0  0  0  0  0  0
  -31.8702  -14.6695   20.1800 O   0  0  0  0  0  0
  -21.6644   -6.8880   21.4238 O   0  0  0  0  0  0
  -22.3514  -14.5545   20.6710 O   0  0  0  0  0  0
  -24.6217  -31.8622   23.2049 C   0  0  0  0  0  0
  -25.9083  -32.4788   23.8371 C   0  0  1  0  0  0
  -27.2251  -27.3641   20.1164 C   0  0  0  0  0  0
  -25.5915  -33.8589   24.2303 N   0  0  0  0  0  0
  -23.4140  -30.4842   21.5460 C   0  0  2  0  0  0
  -24.8623  -28.9396   20.1146 C   0  0  0  0  0  0
  -22.7450  -29.4629   22.4956 C   0  0  0  0  0  0
  -18.0280  -28.1382   22.8489 C   0  0  0  0  0  0
  -24.1485  -36.7295   23.2639 C   0  0  0  0  0  0
  -25.9494  -30.8063   21.3690 C   0  0  0  0  0  0
  -26.0265  -29.4341   20.7185 C   0  0  0  0  0  0
  -27.2152  -28.6544   20.7152 C   0  0  0  0  0  0
  -26.0477  -26.9014   19.5006 C   0  0  0  0  0  0
  -24.8708  -27.6753   19.4996 C   0  0  0  0  0  0
  -23.6278  -29.8155   20.1617 C   0  0  0  0  0  0
  -25.4106  -36.3089   24.0336 C   0  0  1  0  0  0
  -20.5876  -28.3679   23.1293 C   0  0  2  0  0  0
  -20.6771  -26.9406   22.5413 C   0  0  0  0  0  0
  -19.5746  -26.6383   21.5213 C   0  0  0  0  0  0
  -18.1924  -26.7928   22.1622 C   0  0  0  0  0  0
  -19.1531  -28.8849   23.2888 C   0  0  0  0  0  0
  -18.9458  -30.1453   23.8902 C   0  0  0  0  0  0
  -17.6458  -30.6588   24.0564 C   0  0  0  0  0  0
  -25.9041  -34.9457   23.5117 C   0  0  0  0  0  0
  -16.5351  -29.9085   23.6330 C   0  0  0  0  0  0
  -16.7269  -28.6502   23.0352 C   0  0  0  0  0  0
  -26.4492  -31.6578   25.0720 C   0  0  0  0  0  0
  -25.3746  -31.3688   26.1458 C   0  0  0  0  0  0
  -27.0332  -30.3011   24.6132 C   0  0  0  0  0  0
  -27.6061  -32.4304   25.7484 C   0  0  0  0  0  0
  -27.5583  -37.1793   24.8461 C   0  0  0  0  0  0
  -21.4169  -29.3036   22.3695 N   0  0  0  0  0  0
  -26.4284  -37.3783   23.9421 N   0  0  0  0  0  0
  -24.6802  -31.0667   22.0978 N   0  0  0  0  0  0
  -23.4189  -28.8176   23.3029 O   0  0  0  0  0  0
  -28.3352  -26.5305   20.1002 O   0  0  0  0  0  0
  -26.5607  -34.8921   22.4681 O   0  0  0  0  0  0
  -23.5393  -32.1409   23.7397 O   0  0  0  0  0  0
  -28.9591  -23.4280   19.8619 C   0  0  0  0  0  0
  -28.3346  -24.0509   20.9707 C   0  0  0  0  0  0
  -28.9550  -22.0123   19.6807 C   0  0  0  0  0  0
  -27.7192  -23.1847   21.9275 C   0  0  0  0  0  0
  -27.6957  -21.7627   21.7383 C   0  0  0  0  0  0
  -28.3254  -21.1503   20.6208 C   0  0  0  0  0  0
  -29.0414  -17.8650   21.7080 C   0  0  0  0  0  0
  -29.0595  -17.8277   19.2598 C   0  0  0  0  0  0
  -29.9932  -16.6155   21.7184 C   0  0  0  0  0  0
  -30.0390  -16.6187   19.3105 C   0  0  0  0  0  0
  -29.1861  -18.7846   20.4656 C   0  0  0  0  0  0
  -29.5905  -21.4332   18.4305 C   0  0  0  0  0  0
  -27.0797  -23.7995   23.1732 C   0  0  0  0  0  0
  -26.9666  -20.8690   22.7383 C   0  0  0  0  0  0
  -28.4404  -25.6007   21.2152 C   0  0  0  0  0  0
  -29.9232  -15.7528   20.5128 N   0  0  0  0  0  0
  -28.1277  -19.7812   20.3891 O   0  0  0  0  0  0
  -31.4619  -12.4539   19.1510 H   0  0  0  0  0  0
  -30.3188  -11.3763   19.9056 H   0  0  0  0  0  0
  -29.7523  -11.7316   17.4761 H   0  0  0  0  0  0
  -29.6517  -13.4554   17.7349 H   0  0  0  0  0  0
  -27.8478  -11.2934   18.8680 H   0  0  0  0  0  0
  -27.3667  -12.5760   17.7900 H   0  0  0  0  0  0
  -27.6580  -14.2572   19.5045 H   0  0  0  0  0  0
  -28.6912  -12.1106   21.4219 H   0  0  0  0  0  0
  -28.4580  -13.8030   21.7985 H   0  0  0  0  0  0
  -25.2763   -9.5694   22.4757 H   0  0  0  0  0  0
  -24.0004   -7.4644   22.7478 H   0  0  0  0  0  0
  -21.0845   -8.8778   19.8950 H   0  0  0  0  0  0
  -22.3701  -10.9677   19.6164 H   0  0  0  0  0  0
  -21.2005   -7.6146   23.9711 H   0  0  0  0  0  0
  -21.1481   -6.0524   25.9073 H   0  0  0  0  0  0
  -22.0598   -2.7610   23.2848 H   0  0  0  0  0  0
  -22.4110  -11.9872   22.4774 H   0  0  0  0  0  0
  -21.1104  -13.1237   22.2626 H   0  0  0  0  0  0
  -24.6689  -15.8539   20.5358 H   0  0  0  0  0  0
  -26.2959  -15.6295   20.1344 H   0  0  0  0  0  0
  -26.7153  -32.5480   23.1128 H   0  0  0  0  0  0
  -25.0084  -33.9746   25.0463 H   0  0  0  0  0  0
  -22.7060  -31.3030   21.4023 H   0  0  0  0  0  0
  -23.3756  -35.9616   23.3283 H   0  0  0  0  0  0
  -24.3590  -36.8933   22.2058 H   0  0  0  0  0  0
  -23.7221  -37.6485   23.6671 H   0  0  0  0  0  0
  -26.0708  -31.5681   20.5976 H   0  0  0  0  0  0
  -26.8333  -30.8609   21.9925 H   0  0  0  0  0  0
  -28.1136  -29.0286   21.1857 H   0  0  0  0  0  0
  -26.0400  -25.9270   19.0325 H   0  0  0  0  0  0
  -23.9778  -27.2889   19.0276 H   0  0  0  0  0  0
  -23.7434  -30.5906   19.4031 H   0  0  0  0  0  0
  -22.7499  -29.2405   19.8617 H   0  0  0  0  0  0
  -25.1281  -36.1941   25.0828 H   0  0  0  0  0  0
  -20.9969  -28.3250   24.1412 H   0  0  0  0  0  0
  -20.5673  -26.2289   23.3609 H   0  0  0  0  0  0
  -21.6641  -26.7440   22.1204 H   0  0  0  0  0  0
  -19.6907  -25.6294   21.1239 H   0  0  0  0  0  0
  -19.6683  -27.3199   20.6748 H   0  0  0  0  0  0
  -17.4196  -26.6685   21.4021 H   0  0  0  0  0  0
  -18.0317  -26.0067   22.9014 H   0  0  0  0  0  0
  -19.7935  -30.7268   24.2271 H   0  0  0  0  0  0
  -17.5013  -31.6269   24.5162 H   0  0  0  0  0  0
  -15.5352  -30.2988   23.7653 H   0  0  0  0  0  0
  -15.8671  -28.0823   22.7062 H   0  0  0  0  0  0
  -24.5925  -30.7032   25.7788 H   0  0  0  0  0  0
  -24.8935  -32.2842   26.4913 H   0  0  0  0  0  0
  -25.8091  -30.8850   27.0214 H   0  0  0  0  0  0
  -26.2889  -29.6752   24.1193 H   0  0  0  0  0  0
  -27.4095  -29.7266   25.4607 H   0  0  0  0  0  0
  -27.8726  -30.4321   23.9301 H   0  0  0  0  0  0
  -27.2687  -33.3611   26.2057 H   0  0  0  0  0  0
  -28.3871  -32.6847   25.0305 H   0  0  0  0  0  0
  -28.0726  -31.8427   26.5401 H   0  0  0  0  0  0
  -28.2568  -38.0123   24.7552 H   0  0  0  0  0  0
  -28.1110  -36.2655   24.6223 H   0  0  0  0  0  0
  -27.2311  -37.1363   25.8866 H   0  0  0  0  0  0
  -20.9342  -29.8761   21.6911 H   0  0  0  0  0  0
  -26.0164  -38.2849   24.1454 H   0  0  0  0  0  0
  -29.4534  -24.0572   19.1346 H   0  0  0  0  0  0
  -29.2039  -18.4540   22.6113 H   0  0  0  0  0  0
  -28.0108  -17.5122   21.7663 H   0  0  0  0  0  0
  -28.0372  -17.4512   19.2032 H   0  0  0  0  0  0
  -29.2235  -18.3834   18.3367 H   0  0  0  0  0  0
  -29.7719  -16.0100   22.5989 H   0  0  0  0  0  0
  -31.0230  -16.9570   21.8404 H   0  0  0  0  0  0
  -31.0614  -16.9955   19.2355 H   0  0  0  0  0  0
  -29.8790  -16.0086   18.4190 H   0  0  0  0  0  0
  -30.1665  -19.2631   20.4665 H   0  0  0  0  0  0
  -29.8613  -22.2138   17.7194 H   0  0  0  0  0  0
  -28.8980  -20.7563   17.9302 H   0  0  0  0  0  0
  -30.4946  -20.8795   18.6826 H   0  0  0  0  0  0
  -27.7925  -24.4441   23.6878 H   0  0  0  0  0  0
  -26.7466  -23.0800   23.9170 H   0  0  0  0  0  0
  -26.2117  -24.3980   22.8946 H   0  0  0  0  0  0
  -25.9421  -21.2113   22.8841 H   0  0  0  0  0  0
  -27.4795  -20.8793   23.7001 H   0  0  0  0  0  0
  -26.9016  -19.8293   22.4223 H   0  0  0  0  0  0
  -29.4213  -25.7695   21.6598 H   0  0  0  0  0  0
  -27.7348  -25.9192   21.9812 H   0  0  0  0  0  0
  1 25  1  0  0  0
  1 30  2  0  0  0
  1 86  1  0  0  0
  2  3  1  0  0  0
  2 25  1  0  0  0
  2 88  1  0  0  0
  2 89  1  0  0  0
  3  4  1  0  0  0
  3 90  1  0  0  0
  3 91  1  0  0  0
  4  5  1  0  0  0
  4 92  1  0  0  0
  4 93  1  0  0  0
  5  6  1  0  0  0
  5 26  1  0  0  0
  5 94  1  0  0  0
  6 25  1  0  0  0
  6 95  1  0  0  0
  6 96  1  0  0  0
  7  8  2  0  0  0
  7 26  1  0  0  0
  7 29  1  0  0  0
  8  9  1  0  0  0
  8 22  1  0  0  0
  9 10  1  0  0  0
  9 27  2  0  0  0
 10 11  2  0  0  0
 10 15  1  0  0  0
 11 12  1  0  0  0
 11 97  1  0  0  0
 12 13  2  0  0  0
 12 98  1  0  0  0
 13 14  1  0  0  0
 13 31  1  0  0  0
 14 15  2  0  0  0
 14 99  1  0  0  0
 15100  1  0  0  0
 16 17  2  0  0  0
 16 21  1  0  0  0
 16 31  1  0  0  0
 17 18  1  0  0  0
 17101  1  0  0  0
 18 19  2  0  0  0
 18102  1  0  0  0
 19 20  1  0  0  0
 19 24  1  0  0  0
 20 21  2  0  0  0
 20103  1  0  0  0
 21 23  1  0  0  0
 22 28  1  0  0  0
 22 32  2  0  0  0
 26 27  1  0  0  0
 28104  1  0  0  0
 28105  1  0  0  0
 29106  1  0  0  0
 29107  1  0  0  0
 33 34  1  0  0  0
 33 66  1  0  0  0
 33 70  2  0  0  0
 34 36  1  0  0  0
 34 59  1  0  0  0
 34108  1  0  0  0
 35 44  2  0  0  0
 35 45  1  0  0  0
 35 68  1  0  0  0
 36 56  1  0  0  0
 36109  1  0  0  0
 37 39  1  0  0  0
 37 47  1  0  0  0
 37 66  1  0  0  0
 37110  1  0  0  0
 38 43  2  0  0  0
 38 46  1  0  0  0
 38 47  1  0  0  0
 39 64  1  0  0  0
 39 67  2  0  0  0
 40 52  1  0  0  0
 40 53  2  0  0  0
 40 58  1  0  0  0
 41111  1  0  0  0
 41112  1  0  0  0
 41113  1  0  0  0
 41 48  1  0  0  0
 42 43  1  0  0  0
 42 66  1  0  0  0
 42114  1  0  0  0
 42115  1  0  0  0
 43 44  1  0  0  0
 44116  1  0  0  0
 45 46  2  0  0  0
 45117  1  0  0  0
 46118  1  0  0  0
 47119  1  0  0  0
 47120  1  0  0  0
 48 56  1  0  0  0
 48 65  1  0  0  0
 48121  1  0  0  0
 49 50  1  0  0  0
 49 53  1  0  0  0
 49 64  1  0  0  0
 49122  1  0  0  0
 50 51  1  0  0  0
 50123  1  0  0  0
 50124  1  0  0  0
 51 52  1  0  0  0
 51125  1  0  0  0
 51126  1  0  0  0
 52127  1  0  0  0
 52128  1  0  0  0
 53 54  1  0  0  0
 54 55  2  0  0  0
 54129  1  0  0  0
 55 57  1  0  0  0
 55130  1  0  0  0
 56 69  2  0  0  0
 57 58  2  0  0  0
 57131  1  0  0  0
 58132  1  0  0  0
 59 60  1  0  0  0
 59 61  1  0  0  0
 59 62  1  0  0  0
 60133  1  0  0  0
 60134  1  0  0  0
 60135  1  0  0  0
 61136  1  0  0  0
 61137  1  0  0  0
 61138  1  0  0  0
 62139  1  0  0  0
 62140  1  0  0  0
 62141  1  0  0  0
 63 65  1  0  0  0
 63142  1  0  0  0
 63143  1  0  0  0
 63144  1  0  0  0
 64145  1  0  0  0
 65146  1  0  0  0
 68 85  1  0  0  0
 71 72  2  0  0  0
 71 73  1  0  0  0
 71147  1  0  0  0
 72 74  1  0  0  0
 72 85  1  0  0  0
 73 76  2  0  0  0
 73 82  1  0  0  0
 74 75  2  0  0  0
 74 83  1  0  0  0
 75 76  1  0  0  0
 75 84  1  0  0  0
 76 87  1  0  0  0
 77 79  1  0  0  0
 77 81  1  0  0  0
 77148  1  0  0  0
 77149  1  0  0  0
 78 80  1  0  0  0
 78 81  1  0  0  0
 78150  1  0  0  0
 78151  1  0  0  0
 79 86  1  0  0  0
 79152  1  0  0  0
 79153  1  0  0  0
 80 86  1  0  0  0
 80154  1  0  0  0
 80155  1  0  0  0
 81 87  1  0  0  0
 81156  1  0  0  0
 82157  1  0  0  0
 82158  1  0  0  0
 82159  1  0  0  0
 83160  1  0  0  0
 83161  1  0  0  0
 83162  1  0  0  0
 84163  1  0  0  0
 84164  1  0  0  0
 84165  1  0  0  0
 85166  1  0  0  0
 85167  1  0  0  0
M  ISO  4   1 100  68 101  85 101  86 100
M  END
> <chiral flag>
0

> <version>
0

> <s_m_source_file>
/data/baiqing/PycharmProjects/Reinvent-master-3.2/result/LINK_invent/BTK/process_docking_weight1_custom_sum_contain_oxygen_bond_distance_aromatic_linkinvent_7_9_3/rearranged_h_0162.sdf

> <i_m_source_file_index>
78

> <r_mmod_Potential_Energy-OPLS-2005>
290.393615722656

> <r_mmod_Stretch_Energy-OPLS-2005>
66.3564529418945

> <r_mmod_Bend_Energy-OPLS-2005>
139.02116394043

> <r_mmod_Torsional_Energy-OPLS-2005>
388.861114501953

> <r_mmod_Improper_Torsional_Energy-OPLS-2005>
16.5174827575684

> <r_mmod_Van_der_Waal_Energy-OPLS-2005>
143.898284912109

> <r_mmod_Electrostatic_Energy-OPLS-2005>
-312.807739257812

> <r_mmod_Solvation_Energy-OPLS-2005>
-189.720092773438

> <b_mmod_Minimization_Converged-OPLS-2005>
0

> <r_mmod_RMS_Derivative-OPLS-2005>
0.56210058927536

$$$$
79
                    3D
 Structure written by MMmdl.
171181  0  0  1  0            999 V2000
  -30.4190  -15.2787   20.3598 C   0  0  0  0  0  0
  -30.4406  -12.8259   19.4984 C   0  0  0  0  0  0
  -29.5338  -12.5778   18.2668 C   0  0  0  0  0  0
  -28.0767  -12.3166   18.6907 C   0  0  0  0  0  0
  -27.6084  -13.2778   19.8130 C   0  0  2  0  0  0
  -28.6480  -13.4488   20.9383 C   0  0  0  0  0  0
  -25.2370  -13.8249   20.5740 C   0  0  0  0  0  0
  -24.1745  -13.0430   20.9261 C   0  0  0  0  0  0
  -24.6414  -11.6924   20.8761 C   0  0  0  0  0  0
  -23.9109  -10.4284   21.0411 C   0  0  0  0  0  0
  -24.3648   -9.4195   21.9190 C   0  0  0  0  0  0
  -23.6306   -8.2239   22.0760 C   0  0  0  0  0  0
  -22.4284   -8.0295   21.3553 C   0  0  0  0  0  0
  -21.9928   -9.0270   20.4658 C   0  0  0  0  0  0
  -22.7275  -10.2138   20.3063 C   0  0  0  0  0  0
  -21.6858   -6.0741   22.5276 C   0  0  0  0  0  0
  -21.4026   -6.5640   23.8209 C   0  0  0  0  0  0
  -21.3646   -5.6793   24.9178 C   0  0  0  0  0  0
  -21.6041   -4.3049   24.7229 C   0  0  0  0  0  0
  -21.8818   -3.8145   23.4345 C   0  0  0  0  0  0
  -21.9196   -4.6969   22.3405 C   0  0  0  0  0  0
  -22.7756  -13.5175   21.1903 C   0  0  0  0  0  0
  -22.1657   -4.2150   21.0983 F   0  0  0  0  0  0
  -21.5622   -3.4539   25.7739 F   0  0  0  0  0  0
  -29.8662  -13.9681   20.2978 N   0  0  0  0  0  0
  -26.2814  -12.9537   20.3177 N   0  0  0  0  0  0
  -25.9349  -11.6629   20.5688 N   0  0  0  0  0  0
  -22.0397  -12.8179   22.0460 N   0  0  0  0  0  0
  -25.3950  -15.2005   20.4191 N   0  0  0  0  0  0
  -31.6471  -15.2764   20.1993 O   0  0  0  0  0  0
  -21.6640   -6.8899   21.4241 O   0  0  0  0  0  0
  -22.3435  -14.5471   20.6732 O   0  0  0  0  0  0
  -24.6635  -31.8207   23.1694 C   0  0  0  0  0  0
  -25.9319  -32.4571   23.8187 C   0  0  1  0  0  0
  -27.2017  -26.9003   20.1966 C   0  0  0  0  0  0
  -25.5971  -33.8388   24.2089 N   0  0  0  0  0  0
  -23.4763  -30.4326   21.5187 C   0  0  2  0  0  0
  -24.9278  -28.8142   20.1164 C   0  0  0  0  0  0
  -22.7645  -29.4405   22.4739 C   0  0  0  0  0  0
  -18.0306  -28.1337   22.8444 C   0  0  0  0  0  0
  -24.1472  -36.7191   23.2643 C   0  0  0  0  0  0
  -26.0493  -30.6153   21.4095 C   0  0  0  0  0  0
  -26.1135  -29.2043   20.7534 C   0  0  0  0  0  0
  -27.2484  -28.2708   20.7615 C   0  0  0  0  0  0
  -25.9870  -26.6663   19.5148 C   0  0  0  0  0  0
  -24.8914  -27.5663   19.4760 C   0  0  0  0  0  0
  -23.7175  -29.7461   20.1470 C   0  0  0  0  0  0
  -25.4118  -36.2944   24.0291 C   0  0  1  0  0  0
  -20.5932  -28.3698   23.1148 C   0  0  2  0  0  0
  -20.6757  -26.9367   22.5370 C   0  0  0  0  0  0
  -19.5753  -26.6322   21.5151 C   0  0  0  0  0  0
  -18.1935  -26.7872   22.1575 C   0  0  0  0  0  0
  -19.1570  -28.8839   23.2773 C   0  0  0  0  0  0
  -18.9493  -30.1422   23.8814 C   0  0  0  0  0  0
  -17.6494  -30.6547   24.0505 C   0  0  0  0  0  0
  -25.9096  -34.9329   23.5014 C   0  0  0  0  0  0
  -16.5384  -29.9028   23.6313 C   0  0  0  0  0  0
  -16.7292  -28.6429   23.0375 C   0  0  0  0  0  0
  -26.4568  -31.6544   25.0742 C   0  0  0  0  0  0
  -25.3678  -31.3840   26.1394 C   0  0  0  0  0  0
  -27.0494  -30.2881   24.6569 C   0  0  0  0  0  0
  -27.6017  -32.4416   25.7562 C   0  0  0  0  0  0
  -27.5561  -37.1734   24.8455 C   0  0  0  0  0  0
  -21.4306  -29.3013   22.3514 N   0  0  0  0  0  0
  -26.4258  -37.3688   23.9416 N   0  0  0  0  0  0
  -24.7506  -30.9858   22.0849 N   0  0  0  0  0  0
  -23.4202  -28.7952   23.2957 O   0  0  0  0  0  0
  -28.2021  -25.7867   20.2509 O   0  0  0  0  0  0
  -26.5723  -34.8858   22.4619 O   0  0  0  0  0  0
  -23.5706  -32.1209   23.6767 O   0  0  0  0  0  0
  -28.1278  -19.7516   23.9412 C   0  0  0  0  0  0
  -28.6012  -18.8912   24.9396 C   0  0  0  0  0  0
  -28.4995  -19.5989   22.5868 C   0  0  0  0  0  0
  -29.4025  -18.5261   22.2370 C   0  0  0  0  0  0
  -30.0239  -17.7863   23.2976 C   0  0  0  0  0  0
  -29.5520  -17.9091   24.6235 C   0  0  0  0  0  0
  -32.4611  -17.0020   23.9569 C   0  0  0  0  0  0
  -32.5074  -17.3974   22.5096 C   0  0  0  0  0  0
  -29.3136  -19.6418   19.8492 C   0  0  0  0  0  0
  -31.2105  -16.8782   23.1002 C   0  0  0  0  0  0
  -29.7381  -18.1909   20.7633 C   0  0  2  0  0  0
  -27.8305  -20.6302   21.6274 C   0  0  2  0  0  0
  -26.4118  -20.1713   21.2457 C   0  0  0  0  0  0
  -29.1137  -16.3976   26.3898 C   0  0  0  0  0  0
  -28.9509  -22.6456   20.2273 C   0  0  0  0  0  0
  -27.9254  -24.1455   20.2933 C   0  0  0  0  0  0
  -29.6271  -16.5392   20.4259 N   0  0  0  0  0  0
  -28.5846  -21.0095   20.4066 N   0  3  1  0  0  0
  -30.0696  -17.0850   25.5938 O   0  0  0  0  0  0
  -31.4519  -13.0517   19.1553 H   0  0  0  0  0  0
  -30.5260  -11.9240   20.1068 H   0  0  0  0  0  0
  -29.9082  -11.7380   17.6788 H   0  0  0  0  0  0
  -29.5690  -13.4489   17.6106 H   0  0  0  0  0  0
  -28.0108  -11.2855   19.0362 H   0  0  0  0  0  0
  -27.4136  -12.3892   17.8279 H   0  0  0  0  0  0
  -27.5200  -14.2483   19.3229 H   0  0  0  0  0  0
  -28.8283  -12.5103   21.4636 H   0  0  0  0  0  0
  -28.2927  -14.1633   21.6827 H   0  0  0  0  0  0
  -25.2793   -9.5660   22.4768 H   0  0  0  0  0  0
  -23.9998   -7.4637   22.7486 H   0  0  0  0  0  0
  -21.0846   -8.8824   19.8977 H   0  0  0  0  0  0
  -22.3743  -10.9694   19.6178 H   0  0  0  0  0  0
  -21.2024   -7.6152   23.9723 H   0  0  0  0  0  0
  -21.1457   -6.0520   25.9082 H   0  0  0  0  0  0
  -22.0604   -2.7608   23.2854 H   0  0  0  0  0  0
  -22.3998  -11.9867   22.4907 H   0  0  0  0  0  0
  -21.1010  -13.1210   22.2626 H   0  0  0  0  0  0
  -24.6170  -15.8397   20.5489 H   0  0  0  0  0  0
  -26.2257  -15.6539   20.0643 H   0  0  0  0  0  0
  -26.7380  -32.5090   23.0890 H   0  0  0  0  0  0
  -25.0034  -33.9494   25.0182 H   0  0  0  0  0  0
  -22.7861  -31.2607   21.3461 H   0  0  0  0  0  0
  -23.3755  -35.9490   23.3264 H   0  0  0  0  0  0
  -24.3528  -36.8915   22.2062 H   0  0  0  0  0  0
  -23.7219  -37.6351   23.6758 H   0  0  0  0  0  0
  -26.2404  -31.3525   20.6300 H   0  0  0  0  0  0
  -26.9062  -30.6686   22.0700 H   0  0  0  0  0  0
  -28.1500  -28.5676   21.2802 H   0  0  0  0  0  0
  -25.8441  -25.7162   19.0203 H   0  0  0  0  0  0
  -23.9869  -27.2617   18.9641 H   0  0  0  0  0  0
  -23.8775  -30.5143   19.3898 H   0  0  0  0  0  0
  -22.8280  -29.1991   19.8268 H   0  0  0  0  0  0
  -25.1295  -36.1717   25.0778 H   0  0  0  0  0  0
  -20.9998  -28.3299   24.1283 H   0  0  0  0  0  0
  -20.5516  -26.2323   23.3612 H   0  0  0  0  0  0
  -21.6630  -26.7251   22.1258 H   0  0  0  0  0  0
  -19.6897  -25.6206   21.1239 H   0  0  0  0  0  0
  -19.6705  -27.3057   20.6620 H   0  0  0  0  0  0
  -17.4176  -26.6572   21.4005 H   0  0  0  0  0  0
  -18.0382  -25.9996   22.8967 H   0  0  0  0  0  0
  -19.7987  -30.7202   24.2191 H   0  0  0  0  0  0
  -17.5069  -31.6231   24.5080 H   0  0  0  0  0  0
  -15.5385  -30.2904   23.7677 H   0  0  0  0  0  0
  -15.8689  -28.0696   22.7198 H   0  0  0  0  0  0
  -24.5829  -30.7217   25.7728 H   0  0  0  0  0  0
  -24.8905  -32.3069   26.4684 H   0  0  0  0  0  0
  -25.7889  -30.9096   27.0266 H   0  0  0  0  0  0
  -26.3205  -29.6517   24.1532 H   0  0  0  0  0  0
  -27.3908  -29.7296   25.5303 H   0  0  0  0  0  0
  -27.9192  -30.4011   24.0093 H   0  0  0  0  0  0
  -27.2524  -33.3749   26.1985 H   0  0  0  0  0  0
  -28.3909  -32.6961   25.0480 H   0  0  0  0  0  0
  -28.0588  -31.8676   26.5630 H   0  0  0  0  0  0
  -28.2513  -38.0090   24.7526 H   0  0  0  0  0  0
  -28.1138  -36.2615   24.6246 H   0  0  0  0  0  0
  -27.2283  -37.1305   25.8859 H   0  0  0  0  0  0
  -20.9528  -29.8796   21.6742 H   0  0  0  0  0  0
  -26.0100  -38.2726   24.1495 H   0  0  0  0  0  0
  -27.4397  -20.5336   24.2309 H   0  0  0  0  0  0
  -28.2713  -19.0287   25.9590 H   0  0  0  0  0  0
  -32.5038  -17.7979   24.6988 H   0  0  0  0  0  0
  -32.9888  -16.0883   24.2233 H   0  0  0  0  0  0
  -33.0629  -16.7449   21.8413 H   0  0  0  0  0  0
  -32.5866  -18.4622   22.2964 H   0  0  0  0  0  0
  -28.6824  -19.3135   19.0234 H   0  0  0  0  0  0
  -30.2231  -19.9783   19.3523 H   0  0  0  0  0  0
  -30.8906  -15.8529   22.9375 H   0  0  0  0  0  0
  -30.8201  -18.2942   20.7272 H   0  0  0  0  0  0
  -27.7102  -21.5559   22.1924 H   0  0  0  0  0  0
  -26.4206  -19.2167   20.7195 H   0  0  0  0  0  0
  -25.9075  -20.8995   20.6094 H   0  0  0  0  0  0
  -25.7902  -20.0460   22.1322 H   0  0  0  0  0  0
  -29.6174  -15.5932   26.9273 H   0  0  0  0  0  0
  -28.3356  -15.9447   25.7714 H   0  0  0  0  0  0
  -28.6462  -17.0512   27.1265 H   0  0  0  0  0  0
  -29.7519  -22.8135   20.9457 H   0  0  0  0  0  0
  -29.4388  -22.7021   19.2559 H   0  0  0  0  0  0
  -27.3618  -24.0433   21.2208 H   0  0  0  0  0  0
  -27.1790  -23.9859   19.5159 H   0  0  0  0  0  0
  -28.6517  -16.2939   20.3701 H   0  0  0  0  0  0
  -27.8296  -21.0049   19.7374 H   0  0  0  0  0  0
  1 25  1  0  0  0
  1 30  2  0  0  0
  1 87  1  0  0  0
  2  3  1  0  0  0
  2 25  1  0  0  0
  2 90  1  0  0  0
  2 91  1  0  0  0
  3  4  1  0  0  0
  3 92  1  0  0  0
  3 93  1  0  0  0
  4  5  1  0  0  0
  4 94  1  0  0  0
  4 95  1  0  0  0
  5  6  1  0  0  0
  5 26  1  0  0  0
  5 96  1  0  0  0
  6 25  1  0  0  0
  6 97  1  0  0  0
  6 98  1  0  0  0
  7  8  2  0  0  0
  7 26  1  0  0  0
  7 29  1  0  0  0
  8  9  1  0  0  0
  8 22  1  0  0  0
  9 10  1  0  0  0
  9 27  2  0  0  0
 10 11  2  0  0  0
 10 15  1  0  0  0
 11 12  1  0  0  0
 11 99  1  0  0  0
 12 13  2  0  0  0
 12100  1  0  0  0
 13 14  1  0  0  0
 13 31  1  0  0  0
 14 15  2  0  0  0
 14101  1  0  0  0
 15102  1  0  0  0
 16 17  2  0  0  0
 16 21  1  0  0  0
 16 31  1  0  0  0
 17 18  1  0  0  0
 17103  1  0  0  0
 18 19  2  0  0  0
 18104  1  0  0  0
 19 20  1  0  0  0
 19 24  1  0  0  0
 20 21  2  0  0  0
 20105  1  0  0  0
 21 23  1  0  0  0
 22 28  1  0  0  0
 22 32  2  0  0  0
 26 27  1  0  0  0
 28106  1  0  0  0
 28107  1  0  0  0
 29108  1  0  0  0
 29109  1  0  0  0
 33 34  1  0  0  0
 33 66  1  0  0  0
 33 70  2  0  0  0
 34 36  1  0  0  0
 34 59  1  0  0  0
 34110  1  0  0  0
 35 44  2  0  0  0
 35 45  1  0  0  0
 35 68  1  0  0  0
 36 56  1  0  0  0
 36111  1  0  0  0
 37 39  1  0  0  0
 37 47  1  0  0  0
 37 66  1  0  0  0
 37112  1  0  0  0
 38 43  2  0  0  0
 38 46  1  0  0  0
 38 47  1  0  0  0
 39 64  1  0  0  0
 39 67  2  0  0  0
 40 52  1  0  0  0
 40 53  2  0  0  0
 40 58  1  0  0  0
 41113  1  0  0  0
 41114  1  0  0  0
 41115  1  0  0  0
 41 48  1  0  0  0
 42 43  1  0  0  0
 42 66  1  0  0  0
 42116  1  0  0  0
 42117  1  0  0  0
 43 44  1  0  0  0
 44118  1  0  0  0
 45 46  2  0  0  0
 45119  1  0  0  0
 46120  1  0  0  0
 47121  1  0  0  0
 47122  1  0  0  0
 48 56  1  0  0  0
 48 65  1  0  0  0
 48123  1  0  0  0
 49 50  1  0  0  0
 49 53  1  0  0  0
 49 64  1  0  0  0
 49124  1  0  0  0
 50 51  1  0  0  0
 50125  1  0  0  0
 50126  1  0  0  0
 51 52  1  0  0  0
 51127  1  0  0  0
 51128  1  0  0  0
 52129  1  0  0  0
 52130  1  0  0  0
 53 54  1  0  0  0
 54 55  2  0  0  0
 54131  1  0  0  0
 55 57  1  0  0  0
 55132  1  0  0  0
 56 69  2  0  0  0
 57 58  2  0  0  0
 57133  1  0  0  0
 58134  1  0  0  0
 59 60  1  0  0  0
 59 61  1  0  0  0
 59 62  1  0  0  0
 60135  1  0  0  0
 60136  1  0  0  0
 60137  1  0  0  0
 61138  1  0  0  0
 61139  1  0  0  0
 61140  1  0  0  0
 62141  1  0  0  0
 62142  1  0  0  0
 62143  1  0  0  0
 63 65  1  0  0  0
 63144  1  0  0  0
 63145  1  0  0  0
 63146  1  0  0  0
 64147  1  0  0  0
 65148  1  0  0  0
 68 86  1  0  0  0
 71 72  2  0  0  0
 71 73  1  0  0  0
 71149  1  0  0  0
 72 76  1  0  0  0
 72150  1  0  0  0
 73 74  2  0  0  0
 73 82  1  0  0  0
 74 75  1  0  0  0
 74 81  1  0  0  0
 75 76  2  0  0  0
 75 80  1  0  0  0
 76 89  1  0  0  0
 77 78  1  0  0  0
 77 80  1  0  0  0
 77151  1  0  0  0
 77152  1  0  0  0
 78 80  1  0  0  0
 78153  1  0  0  0
 78154  1  0  0  0
 79 81  1  0  0  0
 79 88  1  0  0  0
 79155  1  0  0  0
 79156  1  0  0  0
 80157  1  0  0  0
 81 87  1  0  0  0
 81158  1  0  0  0
 82 83  1  0  0  0
 82 88  1  0  0  0
 82159  1  0  0  0
 83160  1  0  0  0
 83161  1  0  0  0
 83162  1  0  0  0
 84 89  1  0  0  0
 84163  1  0  0  0
 84164  1  0  0  0
 84165  1  0  0  0
 85 86  1  0  0  0
 85166  1  0  0  0
 85167  1  0  0  0
 85 88  1  0  0  0
 86168  1  0  0  0
 86169  1  0  0  0
 87170  1  0  0  0
 88171  1  0  0  0
M  CHG  1  88   1
M  ISO  4   1 100  68 101  86 101  87 100
M  END
> <chiral flag>
0

> <version>
0

> <s_m_source_file>
/data/baiqing/PycharmProjects/Reinvent-master-3.2/result/LINK_invent/BTK/process_docking_weight1_custom_sum_contain_oxygen_bond_distance_aromatic_linkinvent_7_9_3/rearranged_h_0162.sdf

> <i_m_source_file_index>
79

> <r_mmod_Potential_Energy-OPLS-2005>
1307.52282714844

> <r_mmod_Stretch_Energy-OPLS-2005>
621.811218261719

> <r_mmod_Bend_Energy-OPLS-2005>
503.258392333984

> <r_mmod_Torsional_Energy-OPLS-2005>
345.708862304688

> <r_mmod_Improper_Torsional_Energy-OPLS-2005>
3.82444095611572

> <r_mmod_Van_der_Waal_Energy-OPLS-2005>
129.046463012695

> <r_mmod_Electrostatic_Energy-OPLS-2005>
-324.884582519531

> <r_mmod_Solvation_Energy-OPLS-2005>
-456.446990966797

> <b_mmod_Minimization_Converged-OPLS-2005>
0

> <r_mmod_RMS_Derivative-OPLS-2005>
3.26173377037048

$$$$
80
                    3D
 Structure written by MMmdl.
168177  0  0  1  0            999 V2000
  -30.6384  -14.6651   20.4592 C   0  0  0  0  0  0
  -30.4255  -12.3996   19.4598 C   0  0  0  0  0  0
  -29.5038  -12.4985   18.2250 C   0  0  0  0  0  0
  -28.0260  -12.3446   18.6371 C   0  0  0  0  0  0
  -27.6461  -13.2271   19.8578 C   0  0  2  0  0  0
  -28.6925  -13.1281   20.9899 C   0  0  0  0  0  0
  -25.2538  -13.8197   20.5701 C   0  0  0  0  0  0
  -24.1814  -13.0444   20.9205 C   0  0  0  0  0  0
  -24.6394  -11.6912   20.8744 C   0  0  0  0  0  0
  -23.9070  -10.4281   21.0390 C   0  0  0  0  0  0
  -24.3617   -9.4194   21.9175 C   0  0  0  0  0  0
  -23.6299   -8.2219   22.0745 C   0  0  0  0  0  0
  -22.4277   -8.0260   21.3531 C   0  0  0  0  0  0
  -21.9914   -9.0236   20.4642 C   0  0  0  0  0  0
  -22.7245  -10.2112   20.3041 C   0  0  0  0  0  0
  -21.6843   -6.0717   22.5270 C   0  0  0  0  0  0
  -21.4005   -6.5636   23.8201 C   0  0  0  0  0  0
  -21.3669   -5.6799   24.9173 C   0  0  0  0  0  0
  -21.6053   -4.3059   24.7227 C   0  0  0  0  0  0
  -21.8823   -3.8136   23.4352 C   0  0  0  0  0  0
  -21.9192   -4.6946   22.3402 C   0  0  0  0  0  0
  -22.7831  -13.5219   21.1865 C   0  0  0  0  0  0
  -22.1661   -4.2125   21.0984 F   0  0  0  0  0  0
  -21.5644   -3.4553   25.7744 F   0  0  0  0  0  0
  -29.9994  -13.4535   20.4050 N   0  0  0  0  0  0
  -26.2959  -12.9392   20.3326 N   0  0  0  0  0  0
  -25.9324  -11.6537   20.5760 N   0  0  0  0  0  0
  -22.0491  -12.8194   22.0421 N   0  0  0  0  0  0
  -25.4293  -15.1906   20.4131 N   0  0  0  0  0  0
  -31.8277  -14.7582   20.1363 O   0  0  0  0  0  0
  -21.6638   -6.8855   21.4226 O   0  0  0  0  0  0
  -22.3517  -14.5526   20.6730 O   0  0  0  0  0  0
  -24.6233  -31.8602   23.2033 C   0  0  0  0  0  0
  -25.9083  -32.4789   23.8360 C   0  0  1  0  0  0
  -27.2250  -27.3348   20.1231 C   0  0  0  0  0  0
  -25.5907  -33.8586   24.2293 N   0  0  0  0  0  0
  -23.4167  -30.4815   21.5474 C   0  0  2  0  0  0
  -24.8623  -28.9328   20.1193 C   0  0  0  0  0  0
  -22.7459  -29.4620   22.4980 C   0  0  0  0  0  0
  -18.0273  -28.1379   22.8501 C   0  0  0  0  0  0
  -24.1484  -36.7298   23.2638 C   0  0  0  0  0  0
  -25.9545  -30.7981   21.3687 C   0  0  0  0  0  0
  -26.0316  -29.4245   20.7146 C   0  0  0  0  0  0
  -27.2179  -28.6386   20.7023 C   0  0  0  0  0  0
  -26.0346  -26.8821   19.5177 C   0  0  0  0  0  0
  -24.8639  -27.6654   19.5128 C   0  0  0  0  0  0
  -23.6293  -29.8109   20.1647 C   0  0  0  0  0  0
  -25.4106  -36.3094   24.0343 C   0  0  1  0  0  0
  -20.5874  -28.3674   23.1312 C   0  0  2  0  0  0
  -20.6769  -26.9407   22.5416 C   0  0  0  0  0  0
  -19.5746  -26.6387   21.5221 C   0  0  0  0  0  0
  -18.1924  -26.7928   22.1625 C   0  0  0  0  0  0
  -19.1525  -28.8845   23.2893 C   0  0  0  0  0  0
  -18.9451  -30.1456   23.8900 C   0  0  0  0  0  0
  -17.6449  -30.6585   24.0563 C   0  0  0  0  0  0
  -25.9046  -34.9463   23.5122 C   0  0  0  0  0  0
  -16.5340  -29.9082   23.6330 C   0  0  0  0  0  0
  -16.7260  -28.6498   23.0358 C   0  0  0  0  0  0
  -26.4481  -31.6585   25.0719 C   0  0  0  0  0  0
  -25.3730  -31.3727   26.1459 C   0  0  0  0  0  0
  -27.0308  -30.3010   24.6155 C   0  0  0  0  0  0
  -27.6072  -32.4297   25.7470 C   0  0  0  0  0  0
  -27.5590  -37.1785   24.8455 C   0  0  0  0  0  0
  -21.4178  -29.3029   22.3713 N   0  0  0  0  0  0
  -26.4282  -37.3792   23.9430 N   0  0  0  0  0  0
  -24.6840  -31.0623   22.0978 N   0  0  0  0  0  0
  -23.4191  -28.8168   23.3058 O   0  0  0  0  0  0
  -28.3617  -26.5225   20.1183 O   0  0  0  0  0  0
  -26.5613  -34.8929   22.4686 O   0  0  0  0  0  0
  -23.5396  -32.1400   23.7372 O   0  0  0  0  0  0
  -31.2610  -20.5444   20.8526 C   0  0  0  0  0  0
  -31.7468  -21.8633   20.8799 C   0  0  0  0  0  0
  -30.9204  -22.9519   20.4958 C   0  0  0  0  0  0
  -29.5660  -22.7336   20.0821 C   0  0  0  0  0  0
  -29.9406  -20.2355   20.4723 C   0  0  0  0  0  0
  -29.0896  -21.3518   20.1107 C   0  0  0  0  0  0
  -30.1442  -18.1150   19.2934 C   0  0  0  0  0  0
  -29.8024  -18.0552   21.6612 C   0  0  0  0  0  0
  -29.7059  -16.6146   19.1837 C   0  0  0  0  0  0
  -29.3503  -16.5478   21.5908 C   0  0  0  0  0  0
  -33.1977  -22.0753   21.3001 C   0  0  0  0  0  0
  -31.5519  -24.3505   20.4686 C   0  0  0  0  0  0
  -27.7386  -23.7291   18.4139 C   0  0  0  0  0  0
  -28.2372  -25.1045   20.5197 C   0  0  0  0  0  0
  -28.7851  -24.0046   19.5070 C   0  0  1  0  0  0
  -29.5576  -18.8396   20.4312 N   0  0  0  0  0  0
  -29.8452  -15.7964   20.4145 N   0  0  0  0  0  0
  -27.4511  -20.9629   19.7130 Cl  0  0  0  0  0  0
  -31.4697  -12.5074   19.1593 H   0  0  0  0  0  0
  -30.3484  -11.4149   19.9230 H   0  0  0  0  0  0
  -29.7693  -11.7334   17.4939 H   0  0  0  0  0  0
  -29.6520  -13.4610   17.7312 H   0  0  0  0  0  0
  -27.8577  -11.2944   18.8774 H   0  0  0  0  0  0
  -27.3724  -12.5683   17.7927 H   0  0  0  0  0  0
  -27.6490  -14.2567   19.5025 H   0  0  0  0  0  0
  -28.7070  -12.1280   21.4228 H   0  0  0  0  0  0
  -28.4472  -13.8115   21.8052 H   0  0  0  0  0  0
  -25.2743   -9.5680   22.4769 H   0  0  0  0  0  0
  -24.0018   -7.4606   22.7451 H   0  0  0  0  0  0
  -21.0837   -8.8742   19.8957 H   0  0  0  0  0  0
  -22.3683  -10.9649   19.6153 H   0  0  0  0  0  0
  -21.1979   -7.6141   23.9710 H   0  0  0  0  0  0
  -21.1509   -6.0520   25.9087 H   0  0  0  0  0  0
  -22.0597   -2.7594   23.2850 H   0  0  0  0  0  0
  -22.4114  -11.9853   22.4802 H   0  0  0  0  0  0
  -21.1106  -13.1202   22.2643 H   0  0  0  0  0  0
  -24.6750  -15.8568   20.5339 H   0  0  0  0  0  0
  -26.2977  -15.6224   20.1236 H   0  0  0  0  0  0
  -26.7152  -32.5475   23.1109 H   0  0  0  0  0  0
  -25.0043  -33.9726   25.0431 H   0  0  0  0  0  0
  -22.7095  -31.3007   21.4034 H   0  0  0  0  0  0
  -23.3774  -35.9597   23.3249 H   0  0  0  0  0  0
  -24.3599  -36.8961   22.2066 H   0  0  0  0  0  0
  -23.7191  -37.6468   23.6684 H   0  0  0  0  0  0
  -26.0759  -31.5597   20.5971 H   0  0  0  0  0  0
  -26.8384  -30.8526   21.9922 H   0  0  0  0  0  0
  -28.1207  -29.0158   21.1629 H   0  0  0  0  0  0
  -25.9990  -25.9107   19.0495 H   0  0  0  0  0  0
  -23.9661  -27.2802   19.0484 H   0  0  0  0  0  0
  -23.7460  -30.5842   19.4043 H   0  0  0  0  0  0
  -22.7514  -29.2345   19.8673 H   0  0  0  0  0  0
  -25.1276  -36.1949   25.0835 H   0  0  0  0  0  0
  -20.9952  -28.3230   24.1439 H   0  0  0  0  0  0
  -20.5691  -26.2276   23.3606 H   0  0  0  0  0  0
  -21.6634  -26.7458   22.1190 H   0  0  0  0  0  0
  -19.6906  -25.6299   21.1247 H   0  0  0  0  0  0
  -19.6691  -27.3202   20.6761 H   0  0  0  0  0  0
  -17.4201  -26.6688   21.4015 H   0  0  0  0  0  0
  -18.0309  -26.0062   22.9008 H   0  0  0  0  0  0
  -19.7926  -30.7269   24.2270 H   0  0  0  0  0  0
  -17.5005  -31.6275   24.5142 H   0  0  0  0  0  0
  -15.5341  -30.2981   23.7664 H   0  0  0  0  0  0
  -15.8659  -28.0819   22.7074 H   0  0  0  0  0  0
  -24.5857  -30.7134   25.7774 H   0  0  0  0  0  0
  -24.8972  -32.2901   26.4938 H   0  0  0  0  0  0
  -25.8041  -30.8837   27.0204 H   0  0  0  0  0  0
  -26.2861  -29.6760   24.1211 H   0  0  0  0  0  0
  -27.4040  -29.7263   25.4640 H   0  0  0  0  0  0
  -27.8717  -30.4287   23.9338 H   0  0  0  0  0  0
  -27.2730  -33.3626   26.2015 H   0  0  0  0  0  0
  -28.3891  -32.6793   25.0289 H   0  0  0  0  0  0
  -28.0721  -31.8429   26.5399 H   0  0  0  0  0  0
  -28.2563  -38.0127   24.7577 H   0  0  0  0  0  0
  -28.1129  -36.2667   24.6177 H   0  0  0  0  0  0
  -27.2332  -37.1299   25.8858 H   0  0  0  0  0  0
  -20.9353  -29.8741   21.6913 H   0  0  0  0  0  0
  -26.0173  -38.2861   24.1462 H   0  0  0  0  0  0
  -31.9408  -19.7469   21.1139 H   0  0  0  0  0  0
  -29.8703  -18.6263   18.3685 H   0  0  0  0  0  0
  -31.2334  -18.1627   19.3543 H   0  0  0  0  0  0
  -30.8640  -18.0746   21.9094 H   0  0  0  0  0  0
  -29.2941  -18.5443   22.4946 H   0  0  0  0  0  0
  -30.2470  -16.1491   18.3575 H   0  0  0  0  0  0
  -28.6555  -16.5782   18.8935 H   0  0  0  0  0  0
  -28.2608  -16.5029   21.5776 H   0  0  0  0  0  0
  -29.6564  -16.0380   22.5071 H   0  0  0  0  0  0
  -33.7134  -21.1334   21.4904 H   0  0  0  0  0  0
  -33.2527  -22.6599   22.2184 H   0  0  0  0  0  0
  -33.7589  -22.5965   20.5235 H   0  0  0  0  0  0
  -32.3353  -24.4776   21.2132 H   0  0  0  0  0  0
  -30.8538  -25.1554   20.6711 H   0  0  0  0  0  0
  -31.9931  -24.5407   19.4902 H   0  0  0  0  0  0
  -28.0979  -23.0136   17.6739 H   0  0  0  0  0  0
  -27.5058  -24.6485   17.8749 H   0  0  0  0  0  0
  -26.7975  -23.3685   18.8281 H   0  0  0  0  0  0
  -28.7984  -25.0246   21.4501 H   0  0  0  0  0  0
  -27.2190  -24.8531   20.8195 H   0  0  0  0  0  0
  -29.5512  -24.5220   18.9311 H   0  0  0  0  0  0
  1 25  1  0  0  0
  1 30  2  0  0  0
  1 87  1  0  0  0
  2  3  1  0  0  0
  2 25  1  0  0  0
  2 89  1  0  0  0
  2 90  1  0  0  0
  3  4  1  0  0  0
  3 91  1  0  0  0
  3 92  1  0  0  0
  4  5  1  0  0  0
  4 93  1  0  0  0
  4 94  1  0  0  0
  5  6  1  0  0  0
  5 26  1  0  0  0
  5 95  1  0  0  0
  6 25  1  0  0  0
  6 96  1  0  0  0
  6 97  1  0  0  0
  7  8  2  0  0  0
  7 26  1  0  0  0
  7 29  1  0  0  0
  8  9  1  0  0  0
  8 22  1  0  0  0
  9 10  1  0  0  0
  9 27  2  0  0  0
 10 11  2  0  0  0
 10 15  1  0  0  0
 11 12  1  0  0  0
 11 98  1  0  0  0
 12 13  2  0  0  0
 12 99  1  0  0  0
 13 14  1  0  0  0
 13 31  1  0  0  0
 14 15  2  0  0  0
 14100  1  0  0  0
 15101  1  0  0  0
 16 17  2  0  0  0
 16 21  1  0  0  0
 16 31  1  0  0  0
 17 18  1  0  0  0
 17102  1  0  0  0
 18 19  2  0  0  0
 18103  1  0  0  0
 19 20  1  0  0  0
 19 24  1  0  0  0
 20 21  2  0  0  0
 20104  1  0  0  0
 21 23  1  0  0  0
 22 28  1  0  0  0
 22 32  2  0  0  0
 26 27  1  0  0  0
 28105  1  0  0  0
 28106  1  0  0  0
 29107  1  0  0  0
 29108  1  0  0  0
 33 34  1  0  0  0
 33 66  1  0  0  0
 33 70  2  0  0  0
 34 36  1  0  0  0
 34 59  1  0  0  0
 34109  1  0  0  0
 35 44  2  0  0  0
 35 45  1  0  0  0
 35 68  1  0  0  0
 36 56  1  0  0  0
 36110  1  0  0  0
 37 39  1  0  0  0
 37 47  1  0  0  0
 37 66  1  0  0  0
 37111  1  0  0  0
 38 43  2  0  0  0
 38 46  1  0  0  0
 38 47  1  0  0  0
 39 64  1  0  0  0
 39 67  2  0  0  0
 40 52  1  0  0  0
 40 53  2  0  0  0
 40 58  1  0  0  0
 41112  1  0  0  0
 41113  1  0  0  0
 41114  1  0  0  0
 41 48  1  0  0  0
 42 43  1  0  0  0
 42 66  1  0  0  0
 42115  1  0  0  0
 42116  1  0  0  0
 43 44  1  0  0  0
 44117  1  0  0  0
 45 46  2  0  0  0
 45118  1  0  0  0
 46119  1  0  0  0
 47120  1  0  0  0
 47121  1  0  0  0
 48 56  1  0  0  0
 48 65  1  0  0  0
 48122  1  0  0  0
 49 50  1  0  0  0
 49 53  1  0  0  0
 49 64  1  0  0  0
 49123  1  0  0  0
 50 51  1  0  0  0
 50124  1  0  0  0
 50125  1  0  0  0
 51 52  1  0  0  0
 51126  1  0  0  0
 51127  1  0  0  0
 52128  1  0  0  0
 52129  1  0  0  0
 53 54  1  0  0  0
 54 55  2  0  0  0
 54130  1  0  0  0
 55 57  1  0  0  0
 55131  1  0  0  0
 56 69  2  0  0  0
 57 58  2  0  0  0
 57132  1  0  0  0
 58133  1  0  0  0
 59 60  1  0  0  0
 59 61  1  0  0  0
 59 62  1  0  0  0
 60134  1  0  0  0
 60135  1  0  0  0
 60136  1  0  0  0
 61137  1  0  0  0
 61138  1  0  0  0
 61139  1  0  0  0
 62140  1  0  0  0
 62141  1  0  0  0
 62142  1  0  0  0
 63 65  1  0  0  0
 63143  1  0  0  0
 63144  1  0  0  0
 63145  1  0  0  0
 64146  1  0  0  0
 65147  1  0  0  0
 68 84  1  0  0  0
 71 72  2  0  0  0
 71 75  1  0  0  0
 71148  1  0  0  0
 72 73  1  0  0  0
 72 81  1  0  0  0
 73 74  2  0  0  0
 73 82  1  0  0  0
 74 76  1  0  0  0
 74 85  1  0  0  0
 75 76  2  0  0  0
 75 86  1  0  0  0
 76 88  1  0  0  0
 77 79  1  0  0  0
 77 86  1  0  0  0
 77149  1  0  0  0
 77150  1  0  0  0
 78 80  1  0  0  0
 78 86  1  0  0  0
 78151  1  0  0  0
 78152  1  0  0  0
 79 87  1  0  0  0
 79153  1  0  0  0
 79154  1  0  0  0
 80 87  1  0  0  0
 80155  1  0  0  0
 80156  1  0  0  0
 81157  1  0  0  0
 81158  1  0  0  0
 81159  1  0  0  0
 82160  1  0  0  0
 82161  1  0  0  0
 82162  1  0  0  0
 83163  1  0  0  0
 83164  1  0  0  0
 83165  1  0  0  0
 83 85  1  0  0  0
 84 85  1  0  0  0
 84166  1  0  0  0
 84167  1  0  0  0
 85168  1  0  0  0
M  ISO  4   1 100  68 101  84 101  87 100
M  END
> <chiral flag>
0

> <version>
0

> <s_m_source_file>
/data/baiqing/PycharmProjects/Reinvent-master-3.2/result/LINK_invent/BTK/process_docking_weight1_custom_sum_contain_oxygen_bond_distance_aromatic_linkinvent_7_9_3/rearranged_h_0162.sdf

> <i_m_source_file_index>
80

> <r_mmod_Potential_Energy-OPLS-2005>
372.862701416016

> <r_mmod_Stretch_Energy-OPLS-2005>
94.129264831543

> <r_mmod_Bend_Energy-OPLS-2005>
147.309158325195

> <r_mmod_Torsional_Energy-OPLS-2005>
398.876586914062

> <r_mmod_Improper_Torsional_Energy-OPLS-2005>
20.7408046722412

> <r_mmod_Van_der_Waal_Energy-OPLS-2005>
155.595275878906

> <r_mmod_Electrostatic_Energy-OPLS-2005>
-299.166625976562

> <r_mmod_Solvation_Energy-OPLS-2005>
-194.114486694336

> <b_mmod_Minimization_Converged-OPLS-2005>
0

> <r_mmod_RMS_Derivative-OPLS-2005>
2.32932949066162

$$$$
81
                    3D
 Structure written by MMmdl.
163172  0  0  1  0            999 V2000
  -30.6165  -14.8079   20.4584 C   0  0  0  0  0  0
  -30.4194  -12.4985   19.4906 C   0  0  0  0  0  0
  -29.5084  -12.5193   18.2448 C   0  0  0  0  0  0
  -28.0387  -12.3311   18.6610 C   0  0  0  0  0  0
  -27.6342  -13.2449   19.8491 C   0  0  2  0  0  0
  -28.6753  -13.2232   20.9888 C   0  0  0  0  0  0
  -25.2471  -13.8221   20.5722 C   0  0  0  0  0  0
  -24.1770  -13.0432   20.9211 C   0  0  0  0  0  0
  -24.6390  -11.6921   20.8748 C   0  0  0  0  0  0
  -23.9074  -10.4283   21.0408 C   0  0  0  0  0  0
  -24.3622   -9.4204   21.9187 C   0  0  0  0  0  0
  -23.6292   -8.2241   22.0756 C   0  0  0  0  0  0
  -22.4278   -8.0270   21.3538 C   0  0  0  0  0  0
  -21.9917   -9.0251   20.4649 C   0  0  0  0  0  0
  -22.7247  -10.2131   20.3062 C   0  0  0  0  0  0
  -21.6853   -6.0734   22.5269 C   0  0  0  0  0  0
  -21.4026   -6.5640   23.8206 C   0  0  0  0  0  0
  -21.3668   -5.6795   24.9174 C   0  0  0  0  0  0
  -21.6038   -4.3050   24.7224 C   0  0  0  0  0  0
  -21.8820   -3.8140   23.4343 C   0  0  0  0  0  0
  -21.9187   -4.6959   22.3401 C   0  0  0  0  0  0
  -22.7798  -13.5209   21.1875 C   0  0  0  0  0  0
  -22.1651   -4.2134   21.0978 F   0  0  0  0  0  0
  -21.5633   -3.4539   25.7747 F   0  0  0  0  0  0
  -29.9686  -13.5857   20.3993 N   0  0  0  0  0  0
  -26.2899  -12.9450   20.3293 N   0  0  0  0  0  0
  -25.9320  -11.6577   20.5753 N   0  0  0  0  0  0
  -22.0464  -12.8176   22.0439 N   0  0  0  0  0  0
  -25.4148  -15.1940   20.4176 N   0  0  0  0  0  0
  -31.7932  -14.8572   20.0839 O   0  0  0  0  0  0
  -21.6635   -6.8871   21.4229 O   0  0  0  0  0  0
  -22.3472  -14.5504   20.6720 O   0  0  0  0  0  0
  -24.6343  -31.8526   23.1930 C   0  0  0  0  0  0
  -25.9133  -32.4750   23.8312 C   0  0  1  0  0  0
  -27.2260  -27.2111   20.1424 C   0  0  0  0  0  0
  -25.5906  -33.8560   24.2227 N   0  0  0  0  0  0
  -23.4351  -30.4682   21.5413 C   0  0  2  0  0  0
  -24.8870  -28.9064   20.1115 C   0  0  0  0  0  0
  -22.7535  -29.4561   22.4941 C   0  0  0  0  0  0
  -18.0286  -28.1337   22.8482 C   0  0  0  0  0  0
  -24.1496  -36.7314   23.2644 C   0  0  0  0  0  0
  -25.9844  -30.7455   21.3845 C   0  0  0  0  0  0
  -26.0603  -29.3619   20.7296 C   0  0  0  0  0  0
  -27.2343  -28.5306   20.7276 C   0  0  0  0  0  0
  -26.0351  -26.8463   19.4776 C   0  0  0  0  0  0
  -24.8844  -27.6592   19.4685 C   0  0  0  0  0  0
  -23.6559  -29.7957   20.1611 C   0  0  0  0  0  0
  -25.4119  -36.3091   24.0318 C   0  0  1  0  0  0
  -20.5894  -28.3675   23.1261 C   0  0  2  0  0  0
  -20.6778  -26.9395   22.5413 C   0  0  0  0  0  0
  -19.5760  -26.6346   21.5210 C   0  0  0  0  0  0
  -18.1926  -26.7875   22.1606 C   0  0  0  0  0  0
  -19.1538  -28.8815   23.2856 C   0  0  0  0  0  0
  -18.9471  -30.1415   23.8877 C   0  0  0  0  0  0
  -17.6477  -30.6565   24.0529 C   0  0  0  0  0  0
  -25.9063  -34.9449   23.5093 C   0  0  0  0  0  0
  -16.5365  -29.9061   23.6314 C   0  0  0  0  0  0
  -16.7274  -28.6457   23.0368 C   0  0  0  0  0  0
  -26.4476  -31.6590   25.0720 C   0  0  0  0  0  0
  -25.3675  -31.3747   26.1428 C   0  0  0  0  0  0
  -27.0331  -30.2988   24.6238 C   0  0  0  0  0  0
  -27.5999  -32.4356   25.7495 C   0  0  0  0  0  0
  -27.5592  -37.1805   24.8445 C   0  0  0  0  0  0
  -21.4234  -29.3034   22.3683 N   0  0  0  0  0  0
  -26.4302  -37.3783   23.9393 N   0  0  0  0  0  0
  -24.7032  -31.0418   22.0951 N   0  0  0  0  0  0
  -23.4214  -28.8125   23.3073 O   0  0  0  0  0  0
  -28.3004  -26.2747   20.1628 O   0  0  0  0  0  0
  -26.5674  -34.8931   22.4694 O   0  0  0  0  0  0
  -23.5470  -32.1394   23.7171 O   0  0  0  0  0  0
  -30.7898  -22.4932   18.8227 C   0  0  0  0  0  0
  -30.0954  -23.6589   19.2648 C   0  0  0  0  0  0
  -30.2904  -21.1966   19.1348 C   0  0  0  0  0  0
  -28.9169  -23.5269   20.0451 C   0  0  0  0  0  0
  -29.1967  -21.0673   20.0161 C   0  0  0  0  0  0
  -30.5346  -18.3533   21.5920 C   0  0  0  0  0  0
  -30.6518  -16.8231   21.9115 C   0  0  0  0  0  0
  -29.2768  -17.0521   20.0369 C   0  0  0  0  0  0
  -29.2447  -18.4722   20.7966 C   0  0  2  0  0  0
  -32.0554  -22.6327   17.9778 C   0  0  0  0  0  0
  -30.5862  -25.0571   18.8848 C   0  0  0  0  0  0
  -30.8454  -19.9614   18.4299 C   0  0  0  0  0  0
  -28.0247  -24.8070   20.5099 C   0  0  0  0  0  0
  -28.5248  -22.2298   20.4113 N   0  0  0  0  0  0
  -29.9724  -15.9870   20.8842 N   0  0  0  0  0  0
  -28.6210  -19.7978   20.3636 O   0  0  0  0  0  0
  -31.4630  -12.6072   19.1926 H   0  0  0  0  0  0
  -30.3580  -11.5332   19.9950 H   0  0  0  0  0  0
  -29.8033  -11.7352   17.5467 H   0  0  0  0  0  0
  -29.6259  -13.4641   17.7120 H   0  0  0  0  0  0
  -27.9133  -11.2846   18.9409 H   0  0  0  0  0  0
  -27.3772  -12.5009   17.8103 H   0  0  0  0  0  0
  -27.6152  -14.2600   19.4511 H   0  0  0  0  0  0
  -28.7251  -12.2393   21.4596 H   0  0  0  0  0  0
  -28.3961  -13.9298   21.7725 H   0  0  0  0  0  0
  -25.2778   -9.5669   22.4757 H   0  0  0  0  0  0
  -23.9989   -7.4641   22.7484 H   0  0  0  0  0  0
  -21.0850   -8.8786   19.8959 H   0  0  0  0  0  0
  -22.3713  -10.9675   19.6169 H   0  0  0  0  0  0
  -21.2034   -7.6152   23.9702 H   0  0  0  0  0  0
  -21.1489   -6.0533   25.9073 H   0  0  0  0  0  0
  -22.0589   -2.7594   23.2855 H   0  0  0  0  0  0
  -22.4110  -11.9845   22.4828 H   0  0  0  0  0  0
  -21.1085  -13.1188   22.2663 H   0  0  0  0  0  0
  -24.6555  -15.8524   20.5537 H   0  0  0  0  0  0
  -26.2725  -15.6369   20.1162 H   0  0  0  0  0  0
  -26.7211  -32.5376   23.1064 H   0  0  0  0  0  0
  -24.9958  -33.9697   25.0301 H   0  0  0  0  0  0
  -22.7285  -31.2881   21.3911 H   0  0  0  0  0  0
  -23.3764  -35.9651   23.3286 H   0  0  0  0  0  0
  -24.3589  -36.8979   22.2069 H   0  0  0  0  0  0
  -23.7247  -37.6493   23.6708 H   0  0  0  0  0  0
  -26.1295  -31.5013   20.6106 H   0  0  0  0  0  0
  -26.8579  -30.7982   22.0224 H   0  0  0  0  0  0
  -28.1304  -28.8795   21.2208 H   0  0  0  0  0  0
  -25.9792  -25.9046   18.9533 H   0  0  0  0  0  0
  -23.9942  -27.3077   18.9643 H   0  0  0  0  0  0
  -23.7766  -30.5673   19.3992 H   0  0  0  0  0  0
  -22.7731  -29.2238   19.8676 H   0  0  0  0  0  0
  -25.1318  -36.1945   25.0813 H   0  0  0  0  0  0
  -20.9941  -28.3257   24.1397 H   0  0  0  0  0  0
  -20.5644  -26.2311   23.3638 H   0  0  0  0  0  0
  -21.6653  -26.7418   22.1232 H   0  0  0  0  0  0
  -19.6931  -25.6252   21.1250 H   0  0  0  0  0  0
  -19.6661  -27.3146   20.6725 H   0  0  0  0  0  0
  -17.4211  -26.6624   21.3990 H   0  0  0  0  0  0
  -18.0301  -25.9999   22.8974 H   0  0  0  0  0  0
  -19.7971  -30.7194   24.2254 H   0  0  0  0  0  0
  -17.5069  -31.6254   24.5132 H   0  0  0  0  0  0
  -15.5368  -30.2980   23.7636 H   0  0  0  0  0  0
  -15.8664  -28.0766   22.7126 H   0  0  0  0  0  0
  -24.5838  -30.7116   25.7745 H   0  0  0  0  0  0
  -24.8870  -32.2922   26.4835 H   0  0  0  0  0  0
  -25.7976  -30.8919   27.0219 H   0  0  0  0  0  0
  -26.2934  -29.6700   24.1258 H   0  0  0  0  0  0
  -27.3986  -29.7272   25.4781 H   0  0  0  0  0  0
  -27.8839  -30.4240   23.9536 H   0  0  0  0  0  0
  -27.2586  -33.3679   26.2010 H   0  0  0  0  0  0
  -28.3825  -32.6883   25.0333 H   0  0  0  0  0  0
  -28.0651  -31.8523   26.5445 H   0  0  0  0  0  0
  -28.2593  -38.0125   24.7551 H   0  0  0  0  0  0
  -28.1123  -36.2655   24.6229 H   0  0  0  0  0  0
  -27.2319  -37.1406   25.8853 H   0  0  0  0  0  0
  -20.9428  -29.8815   21.6927 H   0  0  0  0  0  0
  -26.0188  -38.2873   24.1370 H   0  0  0  0  0  0
  -31.3916  -18.6721   21.0005 H   0  0  0  0  0  0
  -30.5207  -18.9604   22.4988 H   0  0  0  0  0  0
  -30.1585  -16.6168   22.8615 H   0  0  0  0  0  0
  -31.6987  -16.5469   22.0525 H   0  0  0  0  0  0
  -29.8025  -17.1309   19.0863 H   0  0  0  0  0  0
  -28.2641  -16.7261   19.8051 H   0  0  0  0  0  0
  -28.4997  -18.2659   21.5682 H   0  0  0  0  0  0
  -32.7285  -23.3872   18.3822 H   0  0  0  0  0  0
  -31.7954  -22.8984   16.9529 H   0  0  0  0  0  0
  -32.6568  -21.7263   17.9521 H   0  0  0  0  0  0
  -31.4429  -25.0806   18.2165 H   0  0  0  0  0  0
  -30.8601  -25.6119   19.7819 H   0  0  0  0  0  0
  -29.8053  -25.6069   18.3632 H   0  0  0  0  0  0
  -31.1880  -20.1914   17.4221 H   0  0  0  0  0  0
  -30.0674  -19.2123   18.2913 H   0  0  0  0  0  0
  -31.6768  -19.5218   18.9776 H   0  0  0  0  0  0
  -28.0559  -24.7788   21.5992 H   0  0  0  0  0  0
  -26.9955  -24.5470   20.2682 H   0  0  0  0  0  0
  1 25  1  0  0  0
  1 30  2  0  0  0
  1 85  1  0  0  0
  2  3  1  0  0  0
  2 25  1  0  0  0
  2 87  1  0  0  0
  2 88  1  0  0  0
  3  4  1  0  0  0
  3 89  1  0  0  0
  3 90  1  0  0  0
  4  5  1  0  0  0
  4 91  1  0  0  0
  4 92  1  0  0  0
  5  6  1  0  0  0
  5 26  1  0  0  0
  5 93  1  0  0  0
  6 25  1  0  0  0
  6 94  1  0  0  0
  6 95  1  0  0  0
  7  8  2  0  0  0
  7 26  1  0  0  0
  7 29  1  0  0  0
  8  9  1  0  0  0
  8 22  1  0  0  0
  9 10  1  0  0  0
  9 27  2  0  0  0
 10 11  2  0  0  0
 10 15  1  0  0  0
 11 12  1  0  0  0
 11 96  1  0  0  0
 12 13  2  0  0  0
 12 97  1  0  0  0
 13 14  1  0  0  0
 13 31  1  0  0  0
 14 15  2  0  0  0
 14 98  1  0  0  0
 15 99  1  0  0  0
 16 17  2  0  0  0
 16 21  1  0  0  0
 16 31  1  0  0  0
 17 18  1  0  0  0
 17100  1  0  0  0
 18 19  2  0  0  0
 18101  1  0  0  0
 19 20  1  0  0  0
 19 24  1  0  0  0
 20 21  2  0  0  0
 20102  1  0  0  0
 21 23  1  0  0  0
 22 28  1  0  0  0
 22 32  2  0  0  0
 26 27  1  0  0  0
 28103  1  0  0  0
 28104  1  0  0  0
 29105  1  0  0  0
 29106  1  0  0  0
 33 34  1  0  0  0
 33 66  1  0  0  0
 33 70  2  0  0  0
 34 36  1  0  0  0
 34 59  1  0  0  0
 34107  1  0  0  0
 35 44  2  0  0  0
 35 45  1  0  0  0
 35 68  1  0  0  0
 36 56  1  0  0  0
 36108  1  0  0  0
 37 39  1  0  0  0
 37 47  1  0  0  0
 37 66  1  0  0  0
 37109  1  0  0  0
 38 43  2  0  0  0
 38 46  1  0  0  0
 38 47  1  0  0  0
 39 64  1  0  0  0
 39 67  2  0  0  0
 40 52  1  0  0  0
 40 53  2  0  0  0
 40 58  1  0  0  0
 41110  1  0  0  0
 41111  1  0  0  0
 41112  1  0  0  0
 41 48  1  0  0  0
 42 43  1  0  0  0
 42 66  1  0  0  0
 42113  1  0  0  0
 42114  1  0  0  0
 43 44  1  0  0  0
 44115  1  0  0  0
 45 46  2  0  0  0
 45116  1  0  0  0
 46117  1  0  0  0
 47118  1  0  0  0
 47119  1  0  0  0
 48 56  1  0  0  0
 48 65  1  0  0  0
 48120  1  0  0  0
 49 50  1  0  0  0
 49 53  1  0  0  0
 49 64  1  0  0  0
 49121  1  0  0  0
 50 51  1  0  0  0
 50122  1  0  0  0
 50123  1  0  0  0
 51 52  1  0  0  0
 51124  1  0  0  0
 51125  1  0  0  0
 52126  1  0  0  0
 52127  1  0  0  0
 53 54  1  0  0  0
 54 55  2  0  0  0
 54128  1  0  0  0
 55 57  1  0  0  0
 55129  1  0  0  0
 56 69  2  0  0  0
 57 58  2  0  0  0
 57130  1  0  0  0
 58131  1  0  0  0
 59 60  1  0  0  0
 59 61  1  0  0  0
 59 62  1  0  0  0
 60132  1  0  0  0
 60133  1  0  0  0
 60134  1  0  0  0
 61135  1  0  0  0
 61136  1  0  0  0
 61137  1  0  0  0
 62138  1  0  0  0
 62139  1  0  0  0
 62140  1  0  0  0
 63 65  1  0  0  0
 63141  1  0  0  0
 63142  1  0  0  0
 63143  1  0  0  0
 64144  1  0  0  0
 65145  1  0  0  0
 68 83  1  0  0  0
 71 72  2  0  0  0
 71 73  1  0  0  0
 71 80  1  0  0  0
 72 74  1  0  0  0
 72 81  1  0  0  0
 73 75  2  0  0  0
 73 82  1  0  0  0
 74 83  1  0  0  0
 74 84  2  0  0  0
 75 84  1  0  0  0
 75 86  1  0  0  0
 76 77  1  0  0  0
 76 79  1  0  0  0
 76146  1  0  0  0
 76147  1  0  0  0
 77 85  1  0  0  0
 77148  1  0  0  0
 77149  1  0  0  0
 78 79  1  0  0  0
 78 85  1  0  0  0
 78150  1  0  0  0
 78151  1  0  0  0
 79 86  1  0  0  0
 79152  1  0  0  0
 80153  1  0  0  0
 80154  1  0  0  0
 80155  1  0  0  0
 81156  1  0  0  0
 81157  1  0  0  0
 81158  1  0  0  0
 82159  1  0  0  0
 82160  1  0  0  0
 82161  1  0  0  0
 83162  1  0  0  0
 83163  1  0  0  0
M  ISO  4   1 100  68 101  83 101  85 100
M  END
> <chiral flag>
0

> <version>
0

> <s_m_source_file>
/data/baiqing/PycharmProjects/Reinvent-master-3.2/result/LINK_invent/BTK/process_docking_weight1_custom_sum_contain_oxygen_bond_distance_aromatic_linkinvent_7_9_3/rearranged_h_0162.sdf

> <i_m_source_file_index>
81

> <r_mmod_Potential_Energy-OPLS-2005>
417.737609863281

> <r_mmod_Stretch_Energy-OPLS-2005>
169.243667602539

> <r_mmod_Bend_Energy-OPLS-2005>
298.771728515625

> <r_mmod_Torsional_Energy-OPLS-2005>
360.312713623047

> <r_mmod_Improper_Torsional_Energy-OPLS-2005>
6.95241689682007

> <r_mmod_Van_der_Waal_Energy-OPLS-2005>
146.66081237793

> <r_mmod_Electrostatic_Energy-OPLS-2005>
-463.816986083984

> <r_mmod_Solvation_Energy-OPLS-2005>
-215.894653320312

> <b_mmod_Minimization_Converged-OPLS-2005>
0

> <r_mmod_RMS_Derivative-OPLS-2005>
2.80289196968079

$$$$
82
                    3D
 Structure written by MMmdl.
160169  0  0  1  0            999 V2000
  -30.6233  -14.7431   20.4200 C   0  0  0  0  0  0
  -30.4333  -12.4379   19.4770 C   0  0  0  0  0  0
  -29.5119  -12.4507   18.2381 C   0  0  0  0  0  0
  -28.0325  -12.3085   18.6497 C   0  0  0  0  0  0
  -27.6395  -13.2150   19.8473 C   0  0  2  0  0  0
  -28.6900  -13.1882   20.9769 C   0  0  0  0  0  0
  -25.2518  -13.8144   20.5740 C   0  0  0  0  0  0
  -24.1787  -13.0411   20.9213 C   0  0  0  0  0  0
  -24.6355  -11.6885   20.8745 C   0  0  0  0  0  0
  -23.9031  -10.4274   21.0400 C   0  0  0  0  0  0
  -24.3597   -9.4199   21.9178 C   0  0  0  0  0  0
  -23.6293   -8.2225   22.0746 C   0  0  0  0  0  0
  -22.4274   -8.0254   21.3534 C   0  0  0  0  0  0
  -21.9889   -9.0228   20.4643 C   0  0  0  0  0  0
  -22.7199  -10.2118   20.3054 C   0  0  0  0  0  0
  -21.6854   -6.0722   22.5277 C   0  0  0  0  0  0
  -21.4012   -6.5633   23.8207 C   0  0  0  0  0  0
  -21.3660   -5.6788   24.9173 C   0  0  0  0  0  0
  -21.6051   -4.3049   24.7222 C   0  0  0  0  0  0
  -21.8824   -3.8138   23.4342 C   0  0  0  0  0  0
  -21.9195   -4.6953   22.3400 C   0  0  0  0  0  0
  -22.7814  -13.5219   21.1866 C   0  0  0  0  0  0
  -22.1663   -4.2135   21.0980 F   0  0  0  0  0  0
  -21.5632   -3.4539   25.7737 F   0  0  0  0  0  0
  -29.9806  -13.5266   20.3695 N   0  0  0  0  0  0
  -26.2929  -12.9324   20.3318 N   0  0  0  0  0  0
  -25.9283  -11.6484   20.5774 N   0  0  0  0  0  0
  -22.0459  -12.8225   22.0433 N   0  0  0  0  0  0
  -25.4211  -15.1866   20.4230 N   0  0  0  0  0  0
  -31.8397  -14.7886   20.2239 O   0  0  0  0  0  0
  -21.6643   -6.8851   21.4230 O   0  0  0  0  0  0
  -22.3505  -14.5527   20.6707 O   0  0  0  0  0  0
  -24.6264  -31.8575   23.2020 C   0  0  0  0  0  0
  -25.9114  -32.4759   23.8351 C   0  0  1  0  0  0
  -27.2269  -27.2978   20.1376 C   0  0  0  0  0  0
  -25.5927  -33.8562   24.2267 N   0  0  0  0  0  0
  -23.4236  -30.4792   21.5415 C   0  0  2  0  0  0
  -24.8760  -28.9260   20.1167 C   0  0  0  0  0  0
  -22.7479  -29.4607   22.4910 C   0  0  0  0  0  0
  -18.0290  -28.1384   22.8485 C   0  0  0  0  0  0
  -24.1487  -36.7286   23.2637 C   0  0  0  0  0  0
  -25.9667  -30.7767   21.3840 C   0  0  0  0  0  0
  -26.0423  -29.3988   20.7350 C   0  0  0  0  0  0
  -27.2217  -28.5920   20.7467 C   0  0  0  0  0  0
  -26.0545  -26.8923   19.4730 C   0  0  0  0  0  0
  -24.8836  -27.6753   19.4779 C   0  0  0  0  0  0
  -23.6448  -29.8095   20.1589 C   0  0  0  0  0  0
  -25.4111  -36.3068   24.0324 C   0  0  1  0  0  0
  -20.5890  -28.3690   23.1271 C   0  0  2  0  0  0
  -20.6774  -26.9411   22.5405 C   0  0  0  0  0  0
  -19.5749  -26.6386   21.5205 C   0  0  0  0  0  0
  -18.1930  -26.7931   22.1620 C   0  0  0  0  0  0
  -19.1543  -28.8856   23.2875 C   0  0  0  0  0  0
  -18.9470  -30.1456   23.8893 C   0  0  0  0  0  0
  -17.6470  -30.6588   24.0567 C   0  0  0  0  0  0
  -25.9056  -34.9439   23.5096 C   0  0  0  0  0  0
  -16.5360  -29.9087   23.6334 C   0  0  0  0  0  0
  -16.7276  -28.6504   23.0353 C   0  0  0  0  0  0
  -26.4497  -31.6580   25.0730 C   0  0  0  0  0  0
  -25.3737  -31.3753   26.1464 C   0  0  0  0  0  0
  -27.0351  -30.2992   24.6235 C   0  0  0  0  0  0
  -27.6048  -32.4332   25.7503 C   0  0  0  0  0  0
  -27.5582  -37.1787   24.8457 C   0  0  0  0  0  0
  -21.4190  -29.3046   22.3661 N   0  0  0  0  0  0
  -26.4280  -37.3771   23.9420 N   0  0  0  0  0  0
  -24.6901  -31.0565   22.0981 N   0  0  0  0  0  0
  -23.4194  -28.8149   23.3002 O   0  0  0  0  0  0
  -28.3119  -26.4060   20.1109 O   0  0  0  0  0  0
  -26.5624  -34.8910   22.4663 O   0  0  0  0  0  0
  -23.5422  -32.1390   23.7326 O   0  0  0  0  0  0
  -27.3635  -21.5620   20.7846 C   0  0  0  0  0  0
  -29.6366  -23.0283   20.6687 C   0  0  0  0  0  0
  -27.2594  -22.9780   20.8628 C   0  0  0  0  0  0
  -28.4282  -23.7922   20.8115 C   0  0  0  0  0  0
  -28.6068  -20.9020   20.6978 C   0  0  0  0  0  0
  -28.4517  -16.9492   19.0744 C   0  0  0  0  0  0
  -29.7637  -16.3073   18.6178 C   0  0  0  0  0  0
  -29.0772  -17.0515   20.4673 C   0  0  2  0  0  0
  -25.8779  -23.5672   21.0855 C   0  0  0  0  0  0
  -29.5825  -25.7707   22.0256 C   0  0  0  0  0  0
  -29.7002  -18.5133   20.7123 C   0  0  0  0  0  0
  -28.3859  -25.3591   21.1564 C   0  0  1  0  0  0
  -29.7391  -21.6477   20.6232 N   0  0  0  0  0  0
  -29.8876  -15.8428   19.9960 N   0  0  0  0  0  0
  -28.5902  -19.4843   20.7097 O   0  0  0  0  0  0
  -31.4744  -12.5573   19.1732 H   0  0  0  0  0  0
  -30.3785  -11.4768   19.9900 H   0  0  0  0  0  0
  -29.7872  -11.6414   17.5612 H   0  0  0  0  0  0
  -29.6557  -13.3692   17.6736 H   0  0  0  0  0  0
  -27.8662  -11.2623   18.9097 H   0  0  0  0  0  0
  -27.3853  -12.5143   17.7966 H   0  0  0  0  0  0
  -27.6241  -14.2217   19.4475 H   0  0  0  0  0  0
  -28.7305  -12.2092   21.4571 H   0  0  0  0  0  0
  -28.4351  -13.9110   21.7538 H   0  0  0  0  0  0
  -25.2734   -9.5697   22.4757 H   0  0  0  0  0  0
  -24.0011   -7.4622   22.7469 H   0  0  0  0  0  0
  -21.0808   -8.8736   19.8964 H   0  0  0  0  0  0
  -22.3632  -10.9659   19.6176 H   0  0  0  0  0  0
  -21.2004   -7.6143   23.9701 H   0  0  0  0  0  0
  -21.1481   -6.0522   25.9077 H   0  0  0  0  0  0
  -22.0604   -2.7598   23.2848 H   0  0  0  0  0  0
  -22.4085  -11.9900   22.4843 H   0  0  0  0  0  0
  -21.1070  -13.1239   22.2624 H   0  0  0  0  0  0
  -24.6572  -15.8404   20.5548 H   0  0  0  0  0  0
  -26.2849  -15.6320   20.1454 H   0  0  0  0  0  0
  -26.7176  -32.5426   23.1095 H   0  0  0  0  0  0
  -25.0064  -33.9703   25.0405 H   0  0  0  0  0  0
  -22.7188  -31.3001   21.3929 H   0  0  0  0  0  0
  -23.3746  -35.9621   23.3282 H   0  0  0  0  0  0
  -24.3590  -36.8929   22.2059 H   0  0  0  0  0  0
  -23.7240  -37.6480   23.6676 H   0  0  0  0  0  0
  -26.1072  -31.5347   20.6129 H   0  0  0  0  0  0
  -26.8436  -30.8258   22.0177 H   0  0  0  0  0  0
  -28.1149  -28.9487   21.2411 H   0  0  0  0  0  0
  -26.0464  -25.9491   18.9472 H   0  0  0  0  0  0
  -23.9962  -27.3107   18.9782 H   0  0  0  0  0  0
  -23.7707  -30.5838   19.4010 H   0  0  0  0  0  0
  -22.7657  -29.2397   19.8522 H   0  0  0  0  0  0
  -25.1290  -36.1904   25.0813 H   0  0  0  0  0  0
  -20.9989  -28.3266   24.1389 H   0  0  0  0  0  0
  -20.5658  -26.2305   23.3606 H   0  0  0  0  0  0
  -21.6642  -26.7425   22.1209 H   0  0  0  0  0  0
  -19.6911  -25.6296   21.1232 H   0  0  0  0  0  0
  -19.6690  -27.3197   20.6735 H   0  0  0  0  0  0
  -17.4200  -26.6677   21.4020 H   0  0  0  0  0  0
  -18.0335  -26.0069   22.9014 H   0  0  0  0  0  0
  -19.7949  -30.7270   24.2253 H   0  0  0  0  0  0
  -17.5031  -31.6266   24.5171 H   0  0  0  0  0  0
  -15.5359  -30.2994   23.7664 H   0  0  0  0  0  0
  -15.8672  -28.0826   22.7068 H   0  0  0  0  0  0
  -24.5885  -30.7120   25.7813 H   0  0  0  0  0  0
  -24.8957  -32.2935   26.4890 H   0  0  0  0  0  0
  -25.8059  -30.8932   27.0243 H   0  0  0  0  0  0
  -26.2945  -29.6731   24.1239 H   0  0  0  0  0  0
  -27.3997  -29.7263   25.4773 H   0  0  0  0  0  0
  -27.8840  -30.4252   23.9511 H   0  0  0  0  0  0
  -27.2636  -33.3618   26.2096 H   0  0  0  0  0  0
  -28.3852  -32.6921   25.0335 H   0  0  0  0  0  0
  -28.0728  -31.8456   26.5414 H   0  0  0  0  0  0
  -28.2566  -38.0114   24.7534 H   0  0  0  0  0  0
  -28.1103  -36.2645   24.6226 H   0  0  0  0  0  0
  -27.2312  -37.1372   25.8861 H   0  0  0  0  0  0
  -20.9361  -29.8787   21.6890 H   0  0  0  0  0  0
  -26.0149  -38.2831   24.1452 H   0  0  0  0  0  0
  -26.4691  -20.9571   20.8407 H   0  0  0  0  0  0
  -30.5870  -23.5403   20.6549 H   0  0  0  0  0  0
  -27.5853  -16.2955   19.0158 H   0  0  0  0  0  0
  -28.2361  -17.9053   18.5952 H   0  0  0  0  0  0
  -30.5393  -17.0148   18.3196 H   0  0  0  0  0  0
  -29.6243  -15.5359   17.8639 H   0  0  0  0  0  0
  -28.3540  -16.7836   21.2389 H   0  0  0  0  0  0
  -25.0958  -22.8288   20.9089 H   0  0  0  0  0  0
  -25.6879  -24.3959   20.4123 H   0  0  0  0  0  0
  -25.7700  -23.9192   22.1115 H   0  0  0  0  0  0
  -29.6478  -25.1604   22.9262 H   0  0  0  0  0  0
  -29.4962  -26.8104   22.3424 H   0  0  0  0  0  0
  -30.5242  -25.6792   21.4837 H   0  0  0  0  0  0
  -30.4099  -18.7845   19.9305 H   0  0  0  0  0  0
  -30.2323  -18.5630   21.6623 H   0  0  0  0  0  0
  -27.5170  -25.4989   21.8001 H   0  0  0  0  0  0
  1 25  1  0  0  0
  1 30  2  0  0  0
  1 84  1  0  0  0
  2  3  1  0  0  0
  2 25  1  0  0  0
  2 86  1  0  0  0
  2 87  1  0  0  0
  3  4  1  0  0  0
  3 88  1  0  0  0
  3 89  1  0  0  0
  4  5  1  0  0  0
  4 90  1  0  0  0
  4 91  1  0  0  0
  5  6  1  0  0  0
  5 26  1  0  0  0
  5 92  1  0  0  0
  6 25  1  0  0  0
  6 93  1  0  0  0
  6 94  1  0  0  0
  7  8  2  0  0  0
  7 26  1  0  0  0
  7 29  1  0  0  0
  8  9  1  0  0  0
  8 22  1  0  0  0
  9 10  1  0  0  0
  9 27  2  0  0  0
 10 11  2  0  0  0
 10 15  1  0  0  0
 11 12  1  0  0  0
 11 95  1  0  0  0
 12 13  2  0  0  0
 12 96  1  0  0  0
 13 14  1  0  0  0
 13 31  1  0  0  0
 14 15  2  0  0  0
 14 97  1  0  0  0
 15 98  1  0  0  0
 16 17  2  0  0  0
 16 21  1  0  0  0
 16 31  1  0  0  0
 17 18  1  0  0  0
 17 99  1  0  0  0
 18 19  2  0  0  0
 18100  1  0  0  0
 19 20  1  0  0  0
 19 24  1  0  0  0
 20 21  2  0  0  0
 20101  1  0  0  0
 21 23  1  0  0  0
 22 28  1  0  0  0
 22 32  2  0  0  0
 26 27  1  0  0  0
 28102  1  0  0  0
 28103  1  0  0  0
 29104  1  0  0  0
 29105  1  0  0  0
 33 34  1  0  0  0
 33 66  1  0  0  0
 33 70  2  0  0  0
 34 36  1  0  0  0
 34 59  1  0  0  0
 34106  1  0  0  0
 35 44  2  0  0  0
 35 45  1  0  0  0
 35 68  1  0  0  0
 36 56  1  0  0  0
 36107  1  0  0  0
 37 39  1  0  0  0
 37 47  1  0  0  0
 37 66  1  0  0  0
 37108  1  0  0  0
 38 43  2  0  0  0
 38 46  1  0  0  0
 38 47  1  0  0  0
 39 64  1  0  0  0
 39 67  2  0  0  0
 40 52  1  0  0  0
 40 53  2  0  0  0
 40 58  1  0  0  0
 41109  1  0  0  0
 41110  1  0  0  0
 41111  1  0  0  0
 41 48  1  0  0  0
 42 43  1  0  0  0
 42 66  1  0  0  0
 42112  1  0  0  0
 42113  1  0  0  0
 43 44  1  0  0  0
 44114  1  0  0  0
 45 46  2  0  0  0
 45115  1  0  0  0
 46116  1  0  0  0
 47117  1  0  0  0
 47118  1  0  0  0
 48 56  1  0  0  0
 48 65  1  0  0  0
 48119  1  0  0  0
 49 50  1  0  0  0
 49 53  1  0  0  0
 49 64  1  0  0  0
 49120  1  0  0  0
 50 51  1  0  0  0
 50121  1  0  0  0
 50122  1  0  0  0
 51 52  1  0  0  0
 51123  1  0  0  0
 51124  1  0  0  0
 52125  1  0  0  0
 52126  1  0  0  0
 53 54  1  0  0  0
 54 55  2  0  0  0
 54127  1  0  0  0
 55 57  1  0  0  0
 55128  1  0  0  0
 56 69  2  0  0  0
 57 58  2  0  0  0
 57129  1  0  0  0
 58130  1  0  0  0
 59 60  1  0  0  0
 59 61  1  0  0  0
 59 62  1  0  0  0
 60131  1  0  0  0
 60132  1  0  0  0
 60133  1  0  0  0
 61134  1  0  0  0
 61135  1  0  0  0
 61136  1  0  0  0
 62137  1  0  0  0
 62138  1  0  0  0
 62139  1  0  0  0
 63 65  1  0  0  0
 63140  1  0  0  0
 63141  1  0  0  0
 63142  1  0  0  0
 64143  1  0  0  0
 65144  1  0  0  0
 68 82  1  0  0  0
 71 73  2  0  0  0
 71 75  1  0  0  0
 71145  1  0  0  0
 72 74  2  0  0  0
 72 83  1  0  0  0
 72146  1  0  0  0
 73 74  1  0  0  0
 73 79  1  0  0  0
 74 82  1  0  0  0
 75 83  2  0  0  0
 75 85  1  0  0  0
 76 77  1  0  0  0
 76 78  1  0  0  0
 76147  1  0  0  0
 76148  1  0  0  0
 77 84  1  0  0  0
 77149  1  0  0  0
 77150  1  0  0  0
 78 81  1  0  0  0
 78 84  1  0  0  0
 78151  1  0  0  0
 79152  1  0  0  0
 79153  1  0  0  0
 79154  1  0  0  0
 80155  1  0  0  0
 80156  1  0  0  0
 80157  1  0  0  0
 80 82  1  0  0  0
 81 85  1  0  0  0
 81158  1  0  0  0
 81159  1  0  0  0
 82160  1  0  0  0
M  ISO  4   1 100  68 101  82 101  84 100
M  END
> <chiral flag>
0

> <version>
0

> <s_m_source_file>
/data/baiqing/PycharmProjects/Reinvent-master-3.2/result/LINK_invent/BTK/process_docking_weight1_custom_sum_contain_oxygen_bond_distance_aromatic_linkinvent_7_9_3/rearranged_h_0162.sdf

> <i_m_source_file_index>
82

> <r_mmod_Potential_Energy-OPLS-2005>
229.026153564453

> <r_mmod_Stretch_Energy-OPLS-2005>
102.587646484375

> <r_mmod_Bend_Energy-OPLS-2005>
239.891876220703

> <r_mmod_Torsional_Energy-OPLS-2005>
344.267730712891

> <r_mmod_Improper_Torsional_Energy-OPLS-2005>
27.5379581451416

> <r_mmod_Van_der_Waal_Energy-OPLS-2005>
129.402679443359

> <r_mmod_Electrostatic_Energy-OPLS-2005>
-488.632995605469

> <r_mmod_Solvation_Energy-OPLS-2005>
-207.574142456055

> <b_mmod_Minimization_Converged-OPLS-2005>
0

> <r_mmod_RMS_Derivative-OPLS-2005>
1.37713038921356

$$$$
83
                    3D
 Structure written by MMmdl.
170180  0  0  1  0            999 V2000
  -30.7187  -14.4320   20.5859 C   0  0  0  0  0  0
  -30.4174  -12.2875   19.4183 C   0  0  0  0  0  0
  -29.4902  -12.4971   18.2042 C   0  0  0  0  0  0
  -28.0108  -12.3656   18.6170 C   0  0  0  0  0  0
  -27.6611  -13.2044   19.8756 C   0  0  2  0  0  0
  -28.7011  -12.9758   20.9964 C   0  0  0  0  0  0
  -25.2580  -13.8163   20.5679 C   0  0  0  0  0  0
  -24.1833  -13.0443   20.9189 C   0  0  0  0  0  0
  -24.6380  -11.6909   20.8736 C   0  0  0  0  0  0
  -23.9043  -10.4292   21.0407 C   0  0  0  0  0  0
  -24.3604   -9.4213   21.9183 C   0  0  0  0  0  0
  -23.6288   -8.2244   22.0753 C   0  0  0  0  0  0
  -22.4269   -8.0275   21.3547 C   0  0  0  0  0  0
  -21.9900   -9.0246   20.4648 C   0  0  0  0  0  0
  -22.7219  -10.2131   20.3056 C   0  0  0  0  0  0
  -21.6847   -6.0731   22.5280 C   0  0  0  0  0  0
  -21.4011   -6.5636   23.8215 C   0  0  0  0  0  0
  -21.3664   -5.6793   24.9177 C   0  0  0  0  0  0
  -21.6046   -4.3055   24.7233 C   0  0  0  0  0  0
  -21.8817   -3.8143   23.4354 C   0  0  0  0  0  0
  -21.9195   -4.6959   22.3406 C   0  0  0  0  0  0
  -22.7855  -13.5243   21.1861 C   0  0  0  0  0  0
  -22.1659   -4.2144   21.0985 F   0  0  0  0  0  0
  -21.5637   -3.4539   25.7746 F   0  0  0  0  0  0
  -30.0351  -13.2670   20.4455 N   0  0  0  0  0  0
  -26.3012  -12.9327   20.3361 N   0  0  0  0  0  0
  -25.9303  -11.6490   20.5768 N   0  0  0  0  0  0
  -22.0485  -12.8232   22.0412 N   0  0  0  0  0  0
  -25.4310  -15.1878   20.4075 N   0  0  0  0  0  0
  -31.8369  -14.6192   20.0997 O   0  0  0  0  0  0
  -21.6637   -6.8871   21.4240 O   0  0  0  0  0  0
  -22.3547  -14.5559   20.6720 O   0  0  0  0  0  0
  -24.6089  -31.8700   23.2140 C   0  0  0  0  0  0
  -25.9012  -32.4818   23.8419 C   0  0  1  0  0  0
  -27.2486  -27.4714   20.1083 C   0  0  0  0  0  0
  -25.5906  -33.8616   24.2370 N   0  0  0  0  0  0
  -23.3957  -30.4917   21.5514 C   0  0  2  0  0  0
  -24.8461  -28.9567   20.1227 C   0  0  0  0  0  0
  -22.7385  -29.4655   22.5014 C   0  0  0  0  0  0
  -18.0257  -28.1379   22.8472 C   0  0  0  0  0  0
  -24.1497  -36.7314   23.2641 C   0  0  0  0  0  0
  -25.9174  -30.8487   21.3600 C   0  0  0  0  0  0
  -25.9991  -29.4820   20.7191 C   0  0  0  0  0  0
  -27.2015  -28.7486   20.7114 C   0  0  0  0  0  0
  -26.0834  -26.9561   19.5056 C   0  0  0  0  0  0
  -24.8805  -27.6894   19.5144 C   0  0  0  0  0  0
  -23.6048  -29.8190   20.1667 C   0  0  0  0  0  0
  -25.4110  -36.3105   24.0353 C   0  0  1  0  0  0
  -20.5849  -28.3645   23.1344 C   0  0  2  0  0  0
  -20.6758  -26.9394   22.5424 C   0  0  0  0  0  0
  -19.5749  -26.6384   21.5207 C   0  0  0  0  0  0
  -18.1915  -26.7923   22.1604 C   0  0  0  0  0  0
  -19.1509  -28.8830   23.2898 C   0  0  0  0  0  0
  -18.9439  -30.1432   23.8915 C   0  0  0  0  0  0
  -17.6449  -30.6582   24.0563 C   0  0  0  0  0  0
  -25.9033  -34.9470   23.5155 C   0  0  0  0  0  0
  -16.5340  -29.9088   23.6318 C   0  0  0  0  0  0
  -16.7253  -28.6507   23.0334 C   0  0  0  0  0  0
  -26.4472  -31.6577   25.0722 C   0  0  0  0  0  0
  -25.3762  -31.3666   26.1490 C   0  0  0  0  0  0
  -27.0300  -30.3029   24.6036 C   0  0  0  0  0  0
  -27.6057  -32.4284   25.7476 C   0  0  0  0  0  0
  -27.5584  -37.1803   24.8462 C   0  0  0  0  0  0
  -21.4118  -29.3023   22.3762 N   0  0  0  0  0  0
  -26.4295  -37.3788   23.9419 N   0  0  0  0  0  0
  -24.6581  -31.0848   22.1011 N   0  0  0  0  0  0
  -23.4181  -28.8194   23.3031 O   0  0  0  0  0  0
  -28.4015  -26.7283   20.0157 O   0  0  0  0  0  0
  -26.5563  -34.8922   22.4694 O   0  0  0  0  0  0
  -23.5292  -32.1424   23.7571 O   0  0  0  0  0  0
  -28.0569  -24.0771   23.8442 C   0  0  0  0  0  0
  -29.4336  -24.1252   21.4042 C   0  0  0  0  0  0
  -28.5562  -22.8726   23.3035 C   0  0  0  0  0  0
  -29.2481  -22.8975   22.0720 C   0  0  0  0  0  0
  -28.2477  -25.3083   23.1781 C   0  0  0  0  0  0
  -28.9483  -25.3323   21.9456 C   0  0  0  0  0  0
  -28.3262  -21.5642   24.0472 C   0  0  0  0  0  0
  -29.8440  -21.6356   21.4642 C   0  0  0  0  0  0
  -29.2402  -20.4145   23.5862 C   0  0  0  0  0  0
  -30.3716  -17.5263   19.7754 C   0  0  0  0  0  0
  -30.2543  -19.0243   20.1037 C   0  0  0  0  0  0
  -29.7296  -17.7964   22.0587 C   0  0  0  0  0  0
  -30.5037  -16.8400   21.1400 C   0  0  1  0  0  0
  -29.3049  -20.3046   22.0482 C   0  0  2  0  0  0
  -27.6999  -26.5817   23.8031 C   0  0  0  0  0  0
  -29.2253  -26.6186   21.1758 C   0  0  0  0  0  0
  -30.0418  -15.4442   21.1549 N   0  0  0  0  0  0
  -30.1225  -19.1432   21.5790 N   0  3  2  0  0  0
  -31.4621  -12.3801   19.1161 H   0  0  0  0  0  0
  -30.3130  -11.2750   19.8111 H   0  0  0  0  0  0
  -29.7241  -11.7721   17.4236 H   0  0  0  0  0  0
  -29.6652  -13.4826   17.7694 H   0  0  0  0  0  0
  -27.8154  -11.3099   18.8101 H   0  0  0  0  0  0
  -27.3621  -12.6454   17.7861 H   0  0  0  0  0  0
  -27.7100  -14.2533   19.5827 H   0  0  0  0  0  0
  -28.6679  -11.9384   21.3344 H   0  0  0  0  0  0
  -28.4674  -13.5756   21.8767 H   0  0  0  0  0  0
  -25.2750   -9.5697   22.4758 H   0  0  0  0  0  0
  -24.0006   -7.4635   22.7467 H   0  0  0  0  0  0
  -21.0835   -8.8757   19.8949 H   0  0  0  0  0  0
  -22.3672  -10.9671   19.6167 H   0  0  0  0  0  0
  -21.1989   -7.6141   23.9717 H   0  0  0  0  0  0
  -21.1492   -6.0521   25.9083 H   0  0  0  0  0  0
  -22.0591   -2.7604   23.2856 H   0  0  0  0  0  0
  -22.4086  -11.9883   22.4793 H   0  0  0  0  0  0
  -21.1109  -13.1271   22.2618 H   0  0  0  0  0  0
  -24.6614  -15.8414   20.5061 H   0  0  0  0  0  0
  -26.2758  -15.6220   20.0591 H   0  0  0  0  0  0
  -26.7090  -32.5568   23.1200 H   0  0  0  0  0  0
  -25.0110  -33.9786   25.0546 H   0  0  0  0  0  0
  -22.6838  -31.3066   21.4110 H   0  0  0  0  0  0
  -23.3752  -35.9646   23.3296 H   0  0  0  0  0  0
  -24.3595  -36.8923   22.2056 H   0  0  0  0  0  0
  -23.7260  -37.6529   23.6645 H   0  0  0  0  0  0
  -26.0200  -31.6112   20.5870 H   0  0  0  0  0  0
  -26.8087  -30.9090   21.9718 H   0  0  0  0  0  0
  -28.0886  -29.1858   21.1460 H   0  0  0  0  0  0
  -26.1090  -25.9857   19.0308 H   0  0  0  0  0  0
  -23.9954  -27.2792   19.0476 H   0  0  0  0  0  0
  -23.7123  -30.5913   19.4043 H   0  0  0  0  0  0
  -22.7310  -29.2348   19.8696 H   0  0  0  0  0  0
  -25.1278  -36.1971   25.0845 H   0  0  0  0  0  0
  -20.9914  -28.3197   24.1479 H   0  0  0  0  0  0
  -20.5676  -26.2243   23.3594 H   0  0  0  0  0  0
  -21.6626  -26.7452   22.1215 H   0  0  0  0  0  0
  -19.6923  -25.6292   21.1235 H   0  0  0  0  0  0
  -19.6720  -27.3193   20.6742 H   0  0  0  0  0  0
  -17.4196  -26.6669   21.4002 H   0  0  0  0  0  0
  -18.0313  -26.0069   22.9006 H   0  0  0  0  0  0
  -19.7924  -30.7221   24.2319 H   0  0  0  0  0  0
  -17.5012  -31.6276   24.5143 H   0  0  0  0  0  0
  -15.5340  -30.3003   23.7643 H   0  0  0  0  0  0
  -15.8645  -28.0840   22.7048 H   0  0  0  0  0  0
  -24.5916  -30.7035   25.7835 H   0  0  0  0  0  0
  -24.8982  -32.2821   26.4980 H   0  0  0  0  0  0
  -25.8131  -30.8804   27.0220 H   0  0  0  0  0  0
  -26.2819  -29.6796   24.1118 H   0  0  0  0  0  0
  -27.4144  -29.7243   25.4450 H   0  0  0  0  0  0
  -27.8627  -30.4384   23.9125 H   0  0  0  0  0  0
  -27.2671  -33.3555   26.2106 H   0  0  0  0  0  0
  -28.3831  -32.6876   25.0283 H   0  0  0  0  0  0
  -28.0762  -31.8377   26.5348 H   0  0  0  0  0  0
  -28.2577  -38.0120   24.7504 H   0  0  0  0  0  0
  -28.1097  -36.2644   24.6270 H   0  0  0  0  0  0
  -27.2296  -37.1433   25.8862 H   0  0  0  0  0  0
  -20.9271  -29.8751   21.6993 H   0  0  0  0  0  0
  -26.0188  -38.2861   24.1422 H   0  0  0  0  0  0
  -27.5239  -24.0550   24.7857 H   0  0  0  0  0  0
  -29.9710  -24.1472   20.4656 H   0  0  0  0  0  0
  -27.2834  -21.2780   23.9013 H   0  0  0  0  0  0
  -28.4537  -21.7263   25.1188 H   0  0  0  0  0  0
  -30.9224  -21.6932   21.6154 H   0  0  0  0  0  0
  -29.6822  -21.6727   20.3865 H   0  0  0  0  0  0
  -28.8835  -19.4901   24.0395 H   0  0  0  0  0  0
  -30.2450  -20.5816   23.9770 H   0  0  0  0  0  0
  -31.2159  -17.3136   19.1189 H   0  0  0  0  0  0
  -29.4663  -17.1968   19.2626 H   0  0  0  0  0  0
  -29.3857  -19.4400   19.5905 H   0  0  0  0  0  0
  -31.1316  -19.5768   19.7647 H   0  0  0  0  0  0
  -29.9862  -17.6459   23.1081 H   0  0  0  0  0  0
  -28.6523  -17.6608   21.9474 H   0  0  0  0  0  0
  -31.5532  -16.8645   21.4454 H   0  0  0  0  0  0
  -28.2848  -20.1633   21.6854 H   0  0  0  0  0  0
  -27.1250  -26.3748   24.7060 H   0  0  0  0  0  0
  -27.0413  -27.1009   23.1069 H   0  0  0  0  0  0
  -28.5124  -27.2550   24.0780 H   0  0  0  0  0  0
  -30.2585  -26.5790   20.8280 H   0  0  0  0  0  0
  -29.1929  -27.4864   21.8312 H   0  0  0  0  0  0
  -29.1184  -15.2419   21.5096 H   0  0  0  0  0  0
  -31.0609  -19.2875   21.9229 H   0  0  0  0  0  0
  1 25  1  0  0  0
  1 30  2  0  0  0
  1 87  1  0  0  0
  2  3  1  0  0  0
  2 25  1  0  0  0
  2 89  1  0  0  0
  2 90  1  0  0  0
  3  4  1  0  0  0
  3 91  1  0  0  0
  3 92  1  0  0  0
  4  5  1  0  0  0
  4 93  1  0  0  0
  4 94  1  0  0  0
  5  6  1  0  0  0
  5 26  1  0  0  0
  5 95  1  0  0  0
  6 25  1  0  0  0
  6 96  1  0  0  0
  6 97  1  0  0  0
  7  8  2  0  0  0
  7 26  1  0  0  0
  7 29  1  0  0  0
  8  9  1  0  0  0
  8 22  1  0  0  0
  9 10  1  0  0  0
  9 27  2  0  0  0
 10 11  2  0  0  0
 10 15  1  0  0  0
 11 12  1  0  0  0
 11 98  1  0  0  0
 12 13  2  0  0  0
 12 99  1  0  0  0
 13 14  1  0  0  0
 13 31  1  0  0  0
 14 15  2  0  0  0
 14100  1  0  0  0
 15101  1  0  0  0
 16 17  2  0  0  0
 16 21  1  0  0  0
 16 31  1  0  0  0
 17 18  1  0  0  0
 17102  1  0  0  0
 18 19  2  0  0  0
 18103  1  0  0  0
 19 20  1  0  0  0
 19 24  1  0  0  0
 20 21  2  0  0  0
 20104  1  0  0  0
 21 23  1  0  0  0
 22 28  1  0  0  0
 22 32  2  0  0  0
 26 27  1  0  0  0
 28105  1  0  0  0
 28106  1  0  0  0
 29107  1  0  0  0
 29108  1  0  0  0
 33 34  1  0  0  0
 33 66  1  0  0  0
 33 70  2  0  0  0
 34 36  1  0  0  0
 34 59  1  0  0  0
 34109  1  0  0  0
 35 44  2  0  0  0
 35 45  1  0  0  0
 35 68  1  0  0  0
 36 56  1  0  0  0
 36110  1  0  0  0
 37 39  1  0  0  0
 37 47  1  0  0  0
 37 66  1  0  0  0
 37111  1  0  0  0
 38 43  2  0  0  0
 38 46  1  0  0  0
 38 47  1  0  0  0
 39 64  1  0  0  0
 39 67  2  0  0  0
 40 52  1  0  0  0
 40 53  2  0  0  0
 40 58  1  0  0  0
 41112  1  0  0  0
 41113  1  0  0  0
 41114  1  0  0  0
 41 48  1  0  0  0
 42 43  1  0  0  0
 42 66  1  0  0  0
 42115  1  0  0  0
 42116  1  0  0  0
 43 44  1  0  0  0
 44117  1  0  0  0
 45 46  2  0  0  0
 45118  1  0  0  0
 46119  1  0  0  0
 47120  1  0  0  0
 47121  1  0  0  0
 48 56  1  0  0  0
 48 65  1  0  0  0
 48122  1  0  0  0
 49 50  1  0  0  0
 49 53  1  0  0  0
 49 64  1  0  0  0
 49123  1  0  0  0
 50 51  1  0  0  0
 50124  1  0  0  0
 50125  1  0  0  0
 51 52  1  0  0  0
 51126  1  0  0  0
 51127  1  0  0  0
 52128  1  0  0  0
 52129  1  0  0  0
 53 54  1  0  0  0
 54 55  2  0  0  0
 54130  1  0  0  0
 55 57  1  0  0  0
 55131  1  0  0  0
 56 69  2  0  0  0
 57 58  2  0  0  0
 57132  1  0  0  0
 58133  1  0  0  0
 59 60  1  0  0  0
 59 61  1  0  0  0
 59 62  1  0  0  0
 60134  1  0  0  0
 60135  1  0  0  0
 60136  1  0  0  0
 61137  1  0  0  0
 61138  1  0  0  0
 61139  1  0  0  0
 62140  1  0  0  0
 62141  1  0  0  0
 62142  1  0  0  0
 63 65  1  0  0  0
 63143  1  0  0  0
 63144  1  0  0  0
 63145  1  0  0  0
 64146  1  0  0  0
 65147  1  0  0  0
 68 86  1  0  0  0
 71 73  2  0  0  0
 71 75  1  0  0  0
 71148  1  0  0  0
 72 74  2  0  0  0
 72 76  1  0  0  0
 72149  1  0  0  0
 73 74  1  0  0  0
 73 77  1  0  0  0
 74 78  1  0  0  0
 75 76  2  0  0  0
 75 85  1  0  0  0
 76 86  1  0  0  0
 77 79  1  0  0  0
 77150  1  0  0  0
 77151  1  0  0  0
 78152  1  0  0  0
 78153  1  0  0  0
 78 84  1  0  0  0
 79 84  1  0  0  0
 79154  1  0  0  0
 79155  1  0  0  0
 80 81  1  0  0  0
 80 83  1  0  0  0
 80156  1  0  0  0
 80157  1  0  0  0
 81158  1  0  0  0
 81159  1  0  0  0
 81 88  1  0  0  0
 82 83  1  0  0  0
 82 88  1  0  0  0
 82160  1  0  0  0
 82161  1  0  0  0
 83 87  1  0  0  0
 83162  1  0  0  0
 84 88  1  0  0  0
 84163  1  0  0  0
 85164  1  0  0  0
 85165  1  0  0  0
 85166  1  0  0  0
 86167  1  0  0  0
 86168  1  0  0  0
 87169  1  0  0  0
 88170  1  0  0  0
M  CHG  1  88   1
M  ISO  4   1 100  68 101  86 101  87 100
M  END
> <chiral flag>
0

> <version>
0

> <s_m_source_file>
/data/baiqing/PycharmProjects/Reinvent-master-3.2/result/LINK_invent/BTK/process_docking_weight1_custom_sum_contain_oxygen_bond_distance_aromatic_linkinvent_7_9_3/rearranged_h_0162.sdf

> <i_m_source_file_index>
83

> <r_mmod_Potential_Energy-OPLS-2005>
-118.549331665039

> <r_mmod_Stretch_Energy-OPLS-2005>
34.8153266906738

> <r_mmod_Bend_Energy-OPLS-2005>
126.377227783203

> <r_mmod_Torsional_Energy-OPLS-2005>
282.004150390625

> <r_mmod_Improper_Torsional_Energy-OPLS-2005>
3.8044376373291

> <r_mmod_Van_der_Waal_Energy-OPLS-2005>
149.352554321289

> <r_mmod_Electrostatic_Energy-OPLS-2005>
-268.332580566406

> <r_mmod_Solvation_Energy-OPLS-2005>
-454.854736328125

> <b_mmod_Minimization_Converged-OPLS-2005>
0

> <r_mmod_RMS_Derivative-OPLS-2005>
1.59441947937012

$$$$
84
                    3D
 Structure written by MMmdl.
178188  0  0  1  0            999 V2000
  -30.7160  -14.5388   20.4954 C   0  0  0  0  0  0
  -30.4079  -12.3247   19.4492 C   0  0  0  0  0  0
  -29.4962  -12.4879   18.2159 C   0  0  0  0  0  0
  -28.0154  -12.3596   18.6252 C   0  0  0  0  0  0
  -27.6499  -13.2249   19.8636 C   0  0  2  0  0  0
  -28.6979  -13.0927   20.9926 C   0  0  0  0  0  0
  -25.2487  -13.8161   20.5666 C   0  0  0  0  0  0
  -24.1778  -13.0432   20.9183 C   0  0  0  0  0  0
  -24.6388  -11.6912   20.8765 C   0  0  0  0  0  0
  -23.9068  -10.4294   21.0421 C   0  0  0  0  0  0
  -24.3615   -9.4205   21.9193 C   0  0  0  0  0  0
  -23.6287   -8.2245   22.0754 C   0  0  0  0  0  0
  -22.4274   -8.0287   21.3537 C   0  0  0  0  0  0
  -21.9912   -9.0265   20.4646 C   0  0  0  0  0  0
  -22.7248  -10.2138   20.3060 C   0  0  0  0  0  0
  -21.6843   -6.0746   22.5273 C   0  0  0  0  0  0
  -21.4022   -6.5646   23.8211 C   0  0  0  0  0  0
  -21.3655   -5.6791   24.9166 C   0  0  0  0  0  0
  -21.6043   -4.3053   24.7218 C   0  0  0  0  0  0
  -21.8811   -3.8155   23.4337 C   0  0  0  0  0  0
  -21.9178   -4.6975   22.3393 C   0  0  0  0  0  0
  -22.7796  -13.5213   21.1839 C   0  0  0  0  0  0
  -22.1645   -4.2164   21.0969 F   0  0  0  0  0  0
  -21.5642   -3.4527   25.7725 F   0  0  0  0  0  0
  -30.0162  -13.3703   20.4111 N   0  0  0  0  0  0
  -26.2961  -12.9394   20.3345 N   0  0  0  0  0  0
  -25.9335  -11.6542   20.5838 N   0  0  0  0  0  0
  -22.0445  -12.8225   22.0414 N   0  0  0  0  0  0
  -25.4135  -15.1860   20.4003 N   0  0  0  0  0  0
  -31.9008  -14.6003   20.1549 O   0  0  0  0  0  0
  -21.6653   -6.8878   21.4225 O   0  0  0  0  0  0
  -22.3466  -14.5503   20.6663 O   0  0  0  0  0  0
  -24.6225  -31.8645   23.2074 C   0  0  0  0  0  0
  -25.9088  -32.4806   23.8395 C   0  0  1  0  0  0
  -27.2239  -27.3643   20.1004 C   0  0  0  0  0  0
  -25.5919  -33.8606   24.2327 N   0  0  0  0  0  0
  -23.4129  -30.4889   21.5513 C   0  0  2  0  0  0
  -24.8546  -28.9512   20.1175 C   0  0  0  0  0  0
  -22.7461  -29.4642   22.4996 C   0  0  0  0  0  0
  -18.0279  -28.1369   22.8504 C   0  0  0  0  0  0
  -24.1489  -36.7299   23.2642 C   0  0  0  0  0  0
  -25.9505  -30.8081   21.3709 C   0  0  0  0  0  0
  -26.0221  -29.4388   20.7155 C   0  0  0  0  0  0
  -27.2079  -28.6562   20.6981 C   0  0  0  0  0  0
  -26.0298  -26.9209   19.4814 C   0  0  0  0  0  0
  -24.8581  -27.6960   19.4940 C   0  0  0  0  0  0
  -23.6220  -29.8248   20.1660 C   0  0  0  0  0  0
  -25.4109  -36.3108   24.0350 C   0  0  1  0  0  0
  -20.5877  -28.3668   23.1307 C   0  0  2  0  0  0
  -20.6764  -26.9397   22.5419 C   0  0  0  0  0  0
  -19.5734  -26.6378   21.5222 C   0  0  0  0  0  0
  -18.1913  -26.7918   22.1628 C   0  0  0  0  0  0
  -19.1531  -28.8837   23.2900 C   0  0  0  0  0  0
  -18.9448  -30.1442   23.8912 C   0  0  0  0  0  0
  -17.6445  -30.6579   24.0562 C   0  0  0  0  0  0
  -25.9044  -34.9468   23.5137 C   0  0  0  0  0  0
  -16.5342  -29.9073   23.6320 C   0  0  0  0  0  0
  -16.7264  -28.6482   23.0361 C   0  0  0  0  0  0
  -26.4486  -31.6595   25.0740 C   0  0  0  0  0  0
  -25.3741  -31.3685   26.1477 C   0  0  0  0  0  0
  -27.0321  -30.3041   24.6131 C   0  0  0  0  0  0
  -27.6075  -32.4315   25.7477 C   0  0  0  0  0  0
  -27.5585  -37.1800   24.8467 C   0  0  0  0  0  0
  -21.4178  -29.3039   22.3726 N   0  0  0  0  0  0
  -26.4294  -37.3797   23.9420 N   0  0  0  0  0  0
  -24.6811  -31.0695   22.1003 N   0  0  0  0  0  0
  -23.4200  -28.8177   23.3065 O   0  0  0  0  0  0
  -28.3895  -26.5964   20.1113 O   0  0  0  0  0  0
  -26.5609  -34.8921   22.4700 O   0  0  0  0  0  0
  -23.5395  -32.1419   23.7417 O   0  0  0  0  0  0
  -30.5986  -21.2376   20.4675 C   0  0  0  0  0  0
  -30.6149  -19.7788   20.6509 C   0  0  0  0  0  0
  -31.9171  -21.6484   20.4168 C   0  0  0  0  0  0
  -31.9407  -19.4262   20.7240 C   0  0  0  0  0  0
  -29.4464  -23.0416   18.9965 C   0  0  0  0  0  0
  -29.3162  -23.2172   21.5427 C   0  0  0  0  0  0
  -29.4917  -24.5949   19.1402 C   0  0  0  0  0  0
  -28.3248  -24.4161   21.3833 C   0  0  0  0  0  0
  -29.4628  -17.8291   22.0111 C   0  0  0  0  0  0
  -30.1762  -16.4397   21.8982 C   0  0  0  0  0  0
  -30.1008  -16.6094   19.4555 C   0  0  0  0  0  0
  -29.4155  -22.2361   20.3355 C   0  0  2  0  0  0
  -29.4518  -18.7620   20.7628 C   0  0  2  0  0  0
  -29.2222  -17.8898   19.5009 C   0  0  2  0  0  0
  -28.3385  -25.1357   20.0049 C   0  0  1  0  0  0
  -32.5823  -22.9793   20.2459 C   0  0  0  0  0  0
  -27.7381  -17.5264   19.3481 C   0  0  0  0  0  0
  -33.8195  -18.1702   21.4261 C   0  0  0  0  0  0
  -32.7097  -20.5438   20.5618 N   0  0  0  0  0  0
  -30.0030  -15.7017   20.6270 N   0  0  0  0  0  0
  -32.4968  -18.2037   20.8992 O   0  0  0  0  0  0
  -31.4581  -12.3866   19.1577 H   0  0  0  0  0  0
  -30.2808  -11.3355   19.8937 H   0  0  0  0  0  0
  -29.7427  -11.7412   17.4606 H   0  0  0  0  0  0
  -29.6700  -13.4597   17.7504 H   0  0  0  0  0  0
  -27.8263  -11.3077   18.8416 H   0  0  0  0  0  0
  -27.3681  -12.6168   17.7850 H   0  0  0  0  0  0
  -27.6667  -14.2616   19.5268 H   0  0  0  0  0  0
  -28.6862  -12.0897   21.4205 H   0  0  0  0  0  0
  -28.4745  -13.7790   21.8115 H   0  0  0  0  0  0
  -25.2762   -9.5682   22.4756 H   0  0  0  0  0  0
  -23.9993   -7.4635   22.7471 H   0  0  0  0  0  0
  -21.0845   -8.8790   19.8961 H   0  0  0  0  0  0
  -22.3722  -10.9674   19.6157 H   0  0  0  0  0  0
  -21.2056   -7.6156   23.9728 H   0  0  0  0  0  0
  -21.1471   -6.0521   25.9066 H   0  0  0  0  0  0
  -22.0604   -2.7630   23.2823 H   0  0  0  0  0  0
  -22.4062  -11.9874   22.4783 H   0  0  0  0  0  0
  -21.1059  -13.1254   22.2626 H   0  0  0  0  0  0
  -24.6501  -15.8426   20.5145 H   0  0  0  0  0  0
  -26.2704  -15.6179   20.0800 H   0  0  0  0  0  0
  -26.7164  -32.5490   23.1157 H   0  0  0  0  0  0
  -25.0104  -33.9766   25.0494 H   0  0  0  0  0  0
  -22.7059  -31.3087   21.4112 H   0  0  0  0  0  0
  -23.3765  -35.9619   23.3298 H   0  0  0  0  0  0
  -24.3592  -36.8908   22.2059 H   0  0  0  0  0  0
  -23.7213  -37.6493   23.6651 H   0  0  0  0  0  0
  -26.0747  -31.5714   20.6013 H   0  0  0  0  0  0
  -26.8352  -30.8578   21.9938 H   0  0  0  0  0  0
  -28.1094  -29.0335   21.1604 H   0  0  0  0  0  0
  -25.9579  -25.9851   18.9540 H   0  0  0  0  0  0
  -23.9647  -27.3197   19.0140 H   0  0  0  0  0  0
  -23.7367  -30.5991   19.4068 H   0  0  0  0  0  0
  -22.7445  -29.2473   19.8695 H   0  0  0  0  0  0
  -25.1280  -36.1984   25.0846 H   0  0  0  0  0  0
  -20.9960  -28.3223   24.1428 H   0  0  0  0  0  0
  -20.5646  -26.2284   23.3615 H   0  0  0  0  0  0
  -21.6635  -26.7420   22.1216 H   0  0  0  0  0  0
  -19.6888  -25.6287   21.1244 H   0  0  0  0  0  0
  -19.6668  -27.3201   20.6760 H   0  0  0  0  0  0
  -17.4192  -26.6697   21.4017 H   0  0  0  0  0  0
  -18.0292  -26.0042   22.9000 H   0  0  0  0  0  0
  -19.7924  -30.7260   24.2288 H   0  0  0  0  0  0
  -17.4993  -31.6256   24.5164 H   0  0  0  0  0  0
  -15.5338  -30.2977   23.7623 H   0  0  0  0  0  0
  -15.8667  -28.0793   22.7082 H   0  0  0  0  0  0
  -24.5946  -30.6998   25.7802 H   0  0  0  0  0  0
  -24.8887  -32.2822   26.4926 H   0  0  0  0  0  0
  -25.8089  -30.8860   27.0240 H   0  0  0  0  0  0
  -26.2866  -29.6794   24.1195 H   0  0  0  0  0  0
  -27.4107  -29.7286   25.4589 H   0  0  0  0  0  0
  -27.8701  -30.4372   23.9282 H   0  0  0  0  0  0
  -27.2731  -33.3633   26.2052 H   0  0  0  0  0  0
  -28.3862  -32.6842   25.0267 H   0  0  0  0  0  0
  -28.0772  -31.8438   26.5375 H   0  0  0  0  0  0
  -28.2604  -38.0098   24.7541 H   0  0  0  0  0  0
  -28.1079  -36.2634   24.6261 H   0  0  0  0  0  0
  -27.2309  -37.1407   25.8871 H   0  0  0  0  0  0
  -20.9350  -29.8786   21.6962 H   0  0  0  0  0  0
  -26.0185  -38.2879   24.1419 H   0  0  0  0  0  0
  -30.2765  -22.7145   18.3694 H   0  0  0  0  0  0
  -28.5591  -22.7788   18.4202 H   0  0  0  0  0  0
  -29.0749  -22.6582   22.4471 H   0  0  0  0  0  0
  -30.2980  -23.6452   21.7313 H   0  0  0  0  0  0
  -29.4403  -25.0497   18.1500 H   0  0  0  0  0  0
  -30.4405  -24.9134   19.5689 H   0  0  0  0  0  0
  -28.5366  -25.1399   22.1712 H   0  0  0  0  0  0
  -27.3110  -24.0674   21.5803 H   0  0  0  0  0  0
  -29.8336  -18.3740   22.8802 H   0  0  0  0  0  0
  -28.4215  -17.6104   22.2525 H   0  0  0  0  0  0
  -29.8104  -15.8049   22.7068 H   0  0  0  0  0  0
  -31.2401  -16.5551   22.1043 H   0  0  0  0  0  0
  -31.1395  -16.9031   19.3021 H   0  0  0  0  0  0
  -29.8373  -16.0422   18.5595 H   0  0  0  0  0  0
  -28.5031  -21.6398   20.3276 H   0  0  0  0  0  0
  -28.5787  -19.4059   20.8806 H   0  0  0  0  0  0
  -29.4720  -18.4944   18.6262 H   0  0  0  0  0  0
  -27.4543  -24.7896   19.4824 H   0  0  0  0  0  0
  -32.2010  -23.5077   19.3749 H   0  0  0  0  0  0
  -33.6581  -22.8739   20.0944 H   0  0  0  0  0  0
  -32.4431  -23.6076   21.1251 H   0  0  0  0  0  0
  -27.3889  -16.9609   20.2104 H   0  0  0  0  0  0
  -27.5649  -16.9219   18.4572 H   0  0  0  0  0  0
  -27.1176  -18.4195   19.2632 H   0  0  0  0  0  0
  -34.0969  -17.1411   21.6499 H   0  0  0  0  0  0
  -33.8949  -18.7420   22.3528 H   0  0  0  0  0  0
  -34.5452  -18.5577   20.7092 H   0  0  0  0  0  0
  -33.7234  -20.5528   20.5489 H   0  0  0  0  0  0
  1 25  1  0  0  0
  1 30  2  0  0  0
  1 90  1  0  0  0
  2  3  1  0  0  0
  2 25  1  0  0  0
  2 92  1  0  0  0
  2 93  1  0  0  0
  3  4  1  0  0  0
  3 94  1  0  0  0
  3 95  1  0  0  0
  4  5  1  0  0  0
  4 96  1  0  0  0
  4 97  1  0  0  0
  5  6  1  0  0  0
  5 26  1  0  0  0
  5 98  1  0  0  0
  6 25  1  0  0  0
  6 99  1  0  0  0
  6100  1  0  0  0
  7  8  2  0  0  0
  7 26  1  0  0  0
  7 29  1  0  0  0
  8  9  1  0  0  0
  8 22  1  0  0  0
  9 10  1  0  0  0
  9 27  2  0  0  0
 10 11  2  0  0  0
 10 15  1  0  0  0
 11 12  1  0  0  0
 11101  1  0  0  0
 12 13  2  0  0  0
 12102  1  0  0  0
 13 14  1  0  0  0
 13 31  1  0  0  0
 14 15  2  0  0  0
 14103  1  0  0  0
 15104  1  0  0  0
 16 17  2  0  0  0
 16 21  1  0  0  0
 16 31  1  0  0  0
 17 18  1  0  0  0
 17105  1  0  0  0
 18 19  2  0  0  0
 18106  1  0  0  0
 19 20  1  0  0  0
 19 24  1  0  0  0
 20 21  2  0  0  0
 20107  1  0  0  0
 21 23  1  0  0  0
 22 28  1  0  0  0
 22 32  2  0  0  0
 26 27  1  0  0  0
 28108  1  0  0  0
 28109  1  0  0  0
 29110  1  0  0  0
 29111  1  0  0  0
 33 34  1  0  0  0
 33 66  1  0  0  0
 33 70  2  0  0  0
 34 36  1  0  0  0
 34 59  1  0  0  0
 34112  1  0  0  0
 35 44  2  0  0  0
 35 45  1  0  0  0
 35 68  1  0  0  0
 36 56  1  0  0  0
 36113  1  0  0  0
 37 39  1  0  0  0
 37 47  1  0  0  0
 37 66  1  0  0  0
 37114  1  0  0  0
 38 43  2  0  0  0
 38 46  1  0  0  0
 38 47  1  0  0  0
 39 64  1  0  0  0
 39 67  2  0  0  0
 40 52  1  0  0  0
 40 53  2  0  0  0
 40 58  1  0  0  0
 41115  1  0  0  0
 41116  1  0  0  0
 41117  1  0  0  0
 41 48  1  0  0  0
 42 43  1  0  0  0
 42 66  1  0  0  0
 42118  1  0  0  0
 42119  1  0  0  0
 43 44  1  0  0  0
 44120  1  0  0  0
 45 46  2  0  0  0
 45121  1  0  0  0
 46122  1  0  0  0
 47123  1  0  0  0
 47124  1  0  0  0
 48 56  1  0  0  0
 48 65  1  0  0  0
 48125  1  0  0  0
 49 50  1  0  0  0
 49 53  1  0  0  0
 49 64  1  0  0  0
 49126  1  0  0  0
 50 51  1  0  0  0
 50127  1  0  0  0
 50128  1  0  0  0
 51 52  1  0  0  0
 51129  1  0  0  0
 51130  1  0  0  0
 52131  1  0  0  0
 52132  1  0  0  0
 53 54  1  0  0  0
 54 55  2  0  0  0
 54133  1  0  0  0
 55 57  1  0  0  0
 55134  1  0  0  0
 56 69  2  0  0  0
 57 58  2  0  0  0
 57135  1  0  0  0
 58136  1  0  0  0
 59 60  1  0  0  0
 59 61  1  0  0  0
 59 62  1  0  0  0
 60137  1  0  0  0
 60138  1  0  0  0
 60139  1  0  0  0
 61140  1  0  0  0
 61141  1  0  0  0
 61142  1  0  0  0
 62143  1  0  0  0
 62144  1  0  0  0
 62145  1  0  0  0
 63 65  1  0  0  0
 63146  1  0  0  0
 63147  1  0  0  0
 63148  1  0  0  0
 64149  1  0  0  0
 65150  1  0  0  0
 68 85  1  0  0  0
 71 72  1  0  0  0
 71 73  2  0  0  0
 71 82  1  0  0  0
 72 74  2  0  0  0
 72 83  1  0  0  0
 73 86  1  0  0  0
 73 89  1  0  0  0
 74 89  1  0  0  0
 74 91  1  0  0  0
 75 77  1  0  0  0
 75 82  1  0  0  0
 75151  1  0  0  0
 75152  1  0  0  0
 76 78  1  0  0  0
 76 82  1  0  0  0
 76153  1  0  0  0
 76154  1  0  0  0
 77 85  1  0  0  0
 77155  1  0  0  0
 77156  1  0  0  0
 78 85  1  0  0  0
 78157  1  0  0  0
 78158  1  0  0  0
 79 80  1  0  0  0
 79 83  1  0  0  0
 79159  1  0  0  0
 79160  1  0  0  0
 80 90  1  0  0  0
 80161  1  0  0  0
 80162  1  0  0  0
 81 84  1  0  0  0
 81 90  1  0  0  0
 81163  1  0  0  0
 81164  1  0  0  0
 82165  1  0  0  0
 83 84  1  0  0  0
 83166  1  0  0  0
 84 87  1  0  0  0
 84167  1  0  0  0
 85168  1  0  0  0
 86169  1  0  0  0
 86170  1  0  0  0
 86171  1  0  0  0
 87172  1  0  0  0
 87173  1  0  0  0
 87174  1  0  0  0
 88 91  1  0  0  0
 88175  1  0  0  0
 88176  1  0  0  0
 88177  1  0  0  0
 89178  1  0  0  0
M  ISO  4   1 100  68 101  85 101  90 100
M  END
> <chiral flag>
0

> <version>
0

> <s_m_source_file>
/data/baiqing/PycharmProjects/Reinvent-master-3.2/result/LINK_invent/BTK/process_docking_weight1_custom_sum_contain_oxygen_bond_distance_aromatic_linkinvent_7_9_3/rearranged_h_0162.sdf

> <i_m_source_file_index>
84

> <r_mmod_Potential_Energy-OPLS-2005>
260.663604736328

> <r_mmod_Stretch_Energy-OPLS-2005>
64.792106628418

> <r_mmod_Bend_Energy-OPLS-2005>
157.637893676758

> <r_mmod_Torsional_Energy-OPLS-2005>
396.294860839844

> <r_mmod_Improper_Torsional_Energy-OPLS-2005>
13.2504644393921

> <r_mmod_Van_der_Waal_Energy-OPLS-2005>
133.611877441406

> <r_mmod_Electrostatic_Energy-OPLS-2005>
-339.556732177734

> <r_mmod_Solvation_Energy-OPLS-2005>
-195.160491943359

> <b_mmod_Minimization_Converged-OPLS-2005>
0

> <r_mmod_RMS_Derivative-OPLS-2005>
2.10771012306213

$$$$
85
                    3D
 Structure written by MMmdl.
183193  0  0  1  0            999 V2000
  -30.7643  -14.4924   20.3543 C   0  0  0  0  0  0
  -30.3944  -12.2673   19.4076 C   0  0  0  0  0  0
  -29.4316  -12.3171   18.1949 C   0  0  0  0  0  0
  -27.9698  -12.2661   18.6464 C   0  0  0  0  0  0
  -27.6408  -13.2091   19.8361 C   0  0  2  0  0  0
  -28.7144  -13.1391   20.9456 C   0  0  0  0  0  0
  -25.2552  -13.8234   20.5740 C   0  0  0  0  0  0
  -24.1813  -13.0484   20.9228 C   0  0  0  0  0  0
  -24.6368  -11.6948   20.8826 C   0  0  0  0  0  0
  -23.9045  -10.4319   21.0462 C   0  0  0  0  0  0
  -24.3599   -9.4226   21.9219 C   0  0  0  0  0  0
  -23.6275   -8.2259   22.0781 C   0  0  0  0  0  0
  -22.4265   -8.0296   21.3563 C   0  0  0  0  0  0
  -21.9919   -9.0266   20.4650 C   0  0  0  0  0  0
  -22.7244  -10.2149   20.3076 C   0  0  0  0  0  0
  -21.6857   -6.0733   22.5276 C   0  0  0  0  0  0
  -21.4021   -6.5639   23.8206 C   0  0  0  0  0  0
  -21.3670   -5.6796   24.9171 C   0  0  0  0  0  0
  -21.6047   -4.3053   24.7232 C   0  0  0  0  0  0
  -21.8819   -3.8135   23.4355 C   0  0  0  0  0  0
  -21.9196   -4.6953   22.3406 C   0  0  0  0  0  0
  -22.7826  -13.5264   21.1847 C   0  0  0  0  0  0
  -22.1664   -4.2129   21.0980 F   0  0  0  0  0  0
  -21.5625   -3.4547   25.7751 F   0  0  0  0  0  0
  -30.0240  -13.3539   20.3199 N   0  0  0  0  0  0
  -26.2968  -12.9401   20.3405 N   0  0  0  0  0  0
  -25.9307  -11.6571   20.5956 N   0  0  0  0  0  0
  -22.0488  -12.8247   22.0399 N   0  0  0  0  0  0
  -25.4277  -15.1941   20.4106 N   0  0  0  0  0  0
  -31.9929  -14.4823   20.4197 O   0  0  0  0  0  0
  -21.6639   -6.8886   21.4241 O   0  0  0  0  0  0
  -22.3513  -14.5566   20.6683 O   0  0  0  0  0  0
  -24.6110  -31.8719   23.2149 C   0  0  0  0  0  0
  -25.9025  -32.4845   23.8425 C   0  0  1  0  0  0
  -27.2191  -27.4589   20.0921 C   0  0  0  0  0  0
  -25.5882  -33.8644   24.2346 N   0  0  0  0  0  0
  -23.3962  -30.4996   21.5541 C   0  0  2  0  0  0
  -24.8380  -28.9684   20.1191 C   0  0  0  0  0  0
  -22.7382  -29.4690   22.4999 C   0  0  0  0  0  0
  -18.0262  -28.1386   22.8497 C   0  0  0  0  0  0
  -24.1481  -36.7339   23.2638 C   0  0  0  0  0  0
  -25.9226  -30.8451   21.3634 C   0  0  0  0  0  0
  -25.9972  -29.4786   20.7166 C   0  0  0  0  0  0
  -27.1906  -28.7246   20.7118 C   0  0  0  0  0  0
  -26.0373  -26.9443   19.5169 C   0  0  0  0  0  0
  -24.8491  -27.6954   19.5241 C   0  0  0  0  0  0
  -23.6032  -29.8383   20.1665 C   0  0  0  0  0  0
  -25.4103  -36.3128   24.0337 C   0  0  1  0  0  0
  -20.5850  -28.3671   23.1323 C   0  0  2  0  0  0
  -20.6757  -26.9412   22.5421 C   0  0  0  0  0  0
  -19.5736  -26.6391   21.5220 C   0  0  0  0  0  0
  -18.1911  -26.7934   22.1624 C   0  0  0  0  0  0
  -19.1512  -28.8846   23.2913 C   0  0  0  0  0  0
  -18.9448  -30.1450   23.8926 C   0  0  0  0  0  0
  -17.6452  -30.6595   24.0575 C   0  0  0  0  0  0
  -25.9028  -34.9483   23.5144 C   0  0  0  0  0  0
  -16.5343  -29.9107   23.6324 C   0  0  0  0  0  0
  -16.7254  -28.6520   23.0347 C   0  0  0  0  0  0
  -26.4454  -31.6607   25.0740 C   0  0  0  0  0  0
  -25.3727  -31.3706   26.1494 C   0  0  0  0  0  0
  -27.0263  -30.3044   24.6091 C   0  0  0  0  0  0
  -27.6025  -32.4318   25.7521 C   0  0  0  0  0  0
  -27.5583  -37.1823   24.8465 C   0  0  0  0  0  0
  -21.4113  -29.3052   22.3736 N   0  0  0  0  0  0
  -26.4298  -37.3807   23.9407 N   0  0  0  0  0  0
  -24.6621  -31.0851   22.1026 N   0  0  0  0  0  0
  -23.4167  -28.8218   23.3018 O   0  0  0  0  0  0
  -28.3835  -26.7320   20.0685 O   0  0  0  0  0  0
  -26.5598  -34.8931   22.4704 O   0  0  0  0  0  0
  -23.5316  -32.1450   23.7562 O   0  0  0  0  0  0
  -30.6634  -19.4744   19.5900 C   0  0  0  0  0  0
  -29.7347  -20.4908   19.2494 C   0  0  0  0  0  0
  -31.9330  -19.9479   20.0641 C   0  0  0  0  0  0
  -30.1527  -21.8122   19.2162 C   0  0  0  0  0  0
  -32.2186  -21.3400   20.0470 C   0  0  0  0  0  0
  -28.2938  -20.4168   18.7737 C   0  0  0  0  0  0
  -27.8377  -21.9017   18.7339 C   0  0  0  0  0  0
  -30.0241  -16.3845   17.2466 C   0  0  0  0  0  0
  -29.8038  -17.8018   17.7922 C   0  0  0  0  0  0
  -30.8217  -15.5175   18.2297 C   0  0  0  0  0  0
  -30.4799  -17.9964   19.1658 C   0  0  2  0  0  0
  -29.1467  -22.6945   18.5469 C   0  0  1  0  0  0
  -29.9307  -16.8784   20.1321 C   0  0  2  0  0  0
  -33.0450  -18.9990   20.5225 C   0  0  0  0  0  0
  -30.2007  -17.0882   21.6402 C   0  0  0  0  0  0
  -29.2144  -25.0989   16.7324 C   0  0  0  0  0  0
  -34.0204  -22.9893   19.7738 C   0  0  0  0  0  0
  -28.9505  -26.5501   18.7731 C   0  0  0  0  0  0
  -28.6637  -25.1517   18.1776 C   0  0  2  0  0  0
  -31.3497  -22.2698   19.6085 N   0  0  0  0  0  0
  -30.2406  -15.4985   19.6041 N   0  0  0  0  0  0
  -33.4760  -21.8111   20.4403 N   0  0  0  0  0  0
  -29.1987  -24.0756   19.0644 N   0  3  0  0  0  0
  -31.4325  -12.3445   19.0742 H   0  0  0  0  0  0
  -30.3076  -11.3089   19.9228 H   0  0  0  0  0  0
  -29.6331  -11.4744   17.5320 H   0  0  0  0  0  0
  -29.5355  -13.1892   17.5675 H   0  0  0  0  0  0
  -27.7707  -11.2299   18.9224 H   0  0  0  0  0  0
  -27.3121  -12.4832   17.8027 H   0  0  0  0  0  0
  -27.6430  -14.2242   19.4334 H   0  0  0  0  0  0
  -28.6966  -12.1705   21.4470 H   0  0  0  0  0  0
  -28.5250  -13.8991   21.7060 H   0  0  0  0  0  0
  -25.2754   -9.5688   22.4782 H   0  0  0  0  0  0
  -23.9981   -7.4654   22.7522 H   0  0  0  0  0  0
  -21.0865   -8.8785   19.8936 H   0  0  0  0  0  0
  -22.3736  -10.9680   19.6153 H   0  0  0  0  0  0
  -21.2018   -7.6149   23.9696 H   0  0  0  0  0  0
  -21.1494   -6.0538   25.9074 H   0  0  0  0  0  0
  -22.0583   -2.7598   23.2858 H   0  0  0  0  0  0
  -22.4131  -11.9902   22.4760 H   0  0  0  0  0  0
  -21.1107  -13.1241   22.2615 H   0  0  0  0  0  0
  -24.6668  -15.8561   20.5197 H   0  0  0  0  0  0
  -26.2927  -15.6300   20.1187 H   0  0  0  0  0  0
  -26.7096  -32.5569   23.1203 H   0  0  0  0  0  0
  -25.0012  -33.9813   25.0474 H   0  0  0  0  0  0
  -22.6838  -31.3157   21.4208 H   0  0  0  0  0  0
  -23.3741  -35.9677   23.3296 H   0  0  0  0  0  0
  -24.3570  -36.8967   22.2056 H   0  0  0  0  0  0
  -23.7237  -37.6538   23.6663 H   0  0  0  0  0  0
  -26.0254  -31.6082   20.5906 H   0  0  0  0  0  0
  -26.8145  -30.9031   21.9751 H   0  0  0  0  0  0
  -28.0866  -29.1156   21.1736 H   0  0  0  0  0  0
  -26.0065  -25.9594   19.0819 H   0  0  0  0  0  0
  -23.9500  -27.2884   19.0824 H   0  0  0  0  0  0
  -23.7192  -30.6176   19.4129 H   0  0  0  0  0  0
  -22.7252  -29.2662   19.8637 H   0  0  0  0  0  0
  -25.1277  -36.2003   25.0832 H   0  0  0  0  0  0
  -20.9946  -28.3246   24.1437 H   0  0  0  0  0  0
  -20.5671  -26.2280   23.3611 H   0  0  0  0  0  0
  -21.6628  -26.7460   22.1220 H   0  0  0  0  0  0
  -19.6901  -25.6303   21.1246 H   0  0  0  0  0  0
  -19.6681  -27.3205   20.6748 H   0  0  0  0  0  0
  -17.4186  -26.6693   21.4018 H   0  0  0  0  0  0
  -18.0302  -26.0073   22.9012 H   0  0  0  0  0  0
  -19.7922  -30.7254   24.2311 H   0  0  0  0  0  0
  -17.5012  -31.6273   24.5184 H   0  0  0  0  0  0
  -15.5349  -30.3029   23.7623 H   0  0  0  0  0  0
  -15.8652  -28.0858   22.7043 H   0  0  0  0  0  0
  -24.5902  -30.7049   25.7842 H   0  0  0  0  0  0
  -24.8927  -32.2862   26.4956 H   0  0  0  0  0  0
  -25.8100  -30.8875   27.0242 H   0  0  0  0  0  0
  -26.2792  -29.6839   24.1131 H   0  0  0  0  0  0
  -27.4002  -29.7251   25.4544 H   0  0  0  0  0  0
  -27.8646  -30.4352   23.9243 H   0  0  0  0  0  0
  -27.2621  -33.3595   26.2141 H   0  0  0  0  0  0
  -28.3830  -32.6919   25.0356 H   0  0  0  0  0  0
  -28.0693  -31.8414   26.5414 H   0  0  0  0  0  0
  -28.2606  -38.0115   24.7512 H   0  0  0  0  0  0
  -28.1071  -36.2646   24.6292 H   0  0  0  0  0  0
  -27.2296  -37.1483   25.8866 H   0  0  0  0  0  0
  -20.9253  -29.8786   21.6983 H   0  0  0  0  0  0
  -26.0189  -38.2888   24.1409 H   0  0  0  0  0  0
  -27.6716  -19.8014   19.4271 H   0  0  0  0  0  0
  -28.2443  -20.0225   17.7592 H   0  0  0  0  0  0
  -27.3989  -22.1501   19.7010 H   0  0  0  0  0  0
  -27.0894  -22.1060   17.9672 H   0  0  0  0  0  0
  -30.5608  -16.4345   16.2976 H   0  0  0  0  0  0
  -29.0623  -15.9184   17.0301 H   0  0  0  0  0  0
  -28.7304  -17.9539   17.8776 H   0  0  0  0  0  0
  -30.1833  -18.5295   17.0718 H   0  0  0  0  0  0
  -31.8547  -15.8647   18.2718 H   0  0  0  0  0  0
  -30.9780  -14.5328   17.8064 H   0  0  0  0  0  0
  -31.5163  -17.7663   18.9544 H   0  0  0  0  0  0
  -29.4346  -22.6589   17.4990 H   0  0  0  0  0  0
  -28.8445  -16.9502   20.0677 H   0  0  0  0  0  0
  -32.7292  -17.9703   20.6686 H   0  0  0  0  0  0
  -33.4517  -19.3260   21.4795 H   0  0  0  0  0  0
  -33.8566  -18.9921   19.7936 H   0  0  0  0  0  0
  -31.2527  -16.9769   21.8992 H   0  0  0  0  0  0
  -29.6445  -16.3711   22.2468 H   0  0  0  0  0  0
  -29.8830  -18.0804   21.9592 H   0  0  0  0  0  0
  -28.9278  -25.9921   16.1748 H   0  0  0  0  0  0
  -28.8100  -24.2592   16.1670 H   0  0  0  0  0  0
  -30.3036  -25.0384   16.7108 H   0  0  0  0  0  0
  -35.0892  -23.0730   19.9697 H   0  0  0  0  0  0
  -33.5380  -23.9005   20.1295 H   0  0  0  0  0  0
  -33.8847  -22.9251   18.6926 H   0  0  0  0  0  0
  -28.5951  -27.3266   18.0918 H   0  0  0  0  0  0
  -30.0263  -26.7055   18.8571 H   0  0  0  0  0  0
  -27.5898  -25.0012   18.1034 H   0  0  0  0  0  0
  -34.1505  -21.1010   20.6970 H   0  0  0  0  0  0
  -30.1870  -24.2129   19.2330 H   0  0  0  0  0  0
  -28.7603  -24.1006   19.9718 H   0  0  0  0  0  0
  1 25  1  0  0  0
  1 30  2  0  0  0
  1 91  1  0  0  0
  2  3  1  0  0  0
  2 25  1  0  0  0
  2 94  1  0  0  0
  2 95  1  0  0  0
  3  4  1  0  0  0
  3 96  1  0  0  0
  3 97  1  0  0  0
  4  5  1  0  0  0
  4 98  1  0  0  0
  4 99  1  0  0  0
  5  6  1  0  0  0
  5 26  1  0  0  0
  5100  1  0  0  0
  6 25  1  0  0  0
  6101  1  0  0  0
  6102  1  0  0  0
  7  8  2  0  0  0
  7 26  1  0  0  0
  7 29  1  0  0  0
  8  9  1  0  0  0
  8 22  1  0  0  0
  9 10  1  0  0  0
  9 27  2  0  0  0
 10 11  2  0  0  0
 10 15  1  0  0  0
 11 12  1  0  0  0
 11103  1  0  0  0
 12 13  2  0  0  0
 12104  1  0  0  0
 13 14  1  0  0  0
 13 31  1  0  0  0
 14 15  2  0  0  0
 14105  1  0  0  0
 15106  1  0  0  0
 16 17  2  0  0  0
 16 21  1  0  0  0
 16 31  1  0  0  0
 17 18  1  0  0  0
 17107  1  0  0  0
 18 19  2  0  0  0
 18108  1  0  0  0
 19 20  1  0  0  0
 19 24  1  0  0  0
 20 21  2  0  0  0
 20109  1  0  0  0
 21 23  1  0  0  0
 22 28  1  0  0  0
 22 32  2  0  0  0
 26 27  1  0  0  0
 28110  1  0  0  0
 28111  1  0  0  0
 29112  1  0  0  0
 29113  1  0  0  0
 33 34  1  0  0  0
 33 66  1  0  0  0
 33 70  2  0  0  0
 34 36  1  0  0  0
 34 59  1  0  0  0
 34114  1  0  0  0
 35 44  2  0  0  0
 35 45  1  0  0  0
 35 68  1  0  0  0
 36 56  1  0  0  0
 36115  1  0  0  0
 37 39  1  0  0  0
 37 47  1  0  0  0
 37 66  1  0  0  0
 37116  1  0  0  0
 38 43  2  0  0  0
 38 46  1  0  0  0
 38 47  1  0  0  0
 39 64  1  0  0  0
 39 67  2  0  0  0
 40 52  1  0  0  0
 40 53  2  0  0  0
 40 58  1  0  0  0
 41117  1  0  0  0
 41118  1  0  0  0
 41119  1  0  0  0
 41 48  1  0  0  0
 42 43  1  0  0  0
 42 66  1  0  0  0
 42120  1  0  0  0
 42121  1  0  0  0
 43 44  1  0  0  0
 44122  1  0  0  0
 45 46  2  0  0  0
 45123  1  0  0  0
 46124  1  0  0  0
 47125  1  0  0  0
 47126  1  0  0  0
 48 56  1  0  0  0
 48 65  1  0  0  0
 48127  1  0  0  0
 49 50  1  0  0  0
 49 53  1  0  0  0
 49 64  1  0  0  0
 49128  1  0  0  0
 50 51  1  0  0  0
 50129  1  0  0  0
 50130  1  0  0  0
 51 52  1  0  0  0
 51131  1  0  0  0
 51132  1  0  0  0
 52133  1  0  0  0
 52134  1  0  0  0
 53 54  1  0  0  0
 54 55  2  0  0  0
 54135  1  0  0  0
 55 57  1  0  0  0
 55136  1  0  0  0
 56 69  2  0  0  0
 57 58  2  0  0  0
 57137  1  0  0  0
 58138  1  0  0  0
 59 60  1  0  0  0
 59 61  1  0  0  0
 59 62  1  0  0  0
 60139  1  0  0  0
 60140  1  0  0  0
 60141  1  0  0  0
 61142  1  0  0  0
 61143  1  0  0  0
 61144  1  0  0  0
 62145  1  0  0  0
 62146  1  0  0  0
 62147  1  0  0  0
 63 65  1  0  0  0
 63148  1  0  0  0
 63149  1  0  0  0
 63150  1  0  0  0
 64151  1  0  0  0
 65152  1  0  0  0
 68 88  1  0  0  0
 71 72  1  0  0  0
 71 73  2  0  0  0
 71 81  1  0  0  0
 72 74  2  0  0  0
 72 76  1  0  0  0
 73 75  1  0  0  0
 73 84  1  0  0  0
 74 82  1  0  0  0
 74 90  1  0  0  0
 75 90  2  0  0  0
 75 92  1  0  0  0
 76 77  1  0  0  0
 76153  1  0  0  0
 76154  1  0  0  0
 77 82  1  0  0  0
 77155  1  0  0  0
 77156  1  0  0  0
 78 79  1  0  0  0
 78 80  1  0  0  0
 78157  1  0  0  0
 78158  1  0  0  0
 79 81  1  0  0  0
 79159  1  0  0  0
 79160  1  0  0  0
 80 91  1  0  0  0
 80161  1  0  0  0
 80162  1  0  0  0
 81 83  1  0  0  0
 81163  1  0  0  0
 82 93  1  0  0  0
 82164  1  0  0  0
 83 85  1  0  0  0
 83 91  1  0  0  0
 83165  1  0  0  0
 84166  1  0  0  0
 84167  1  0  0  0
 84168  1  0  0  0
 85169  1  0  0  0
 85170  1  0  0  0
 85171  1  0  0  0
 86172  1  0  0  0
 86173  1  0  0  0
 86174  1  0  0  0
 86 89  1  0  0  0
 87 92  1  0  0  0
 87175  1  0  0  0
 87176  1  0  0  0
 87177  1  0  0  0
 88 89  1  0  0  0
 88178  1  0  0  0
 88179  1  0  0  0
 89 93  1  0  0  0
 89180  1  0  0  0
 92181  1  0  0  0
 93182  1  0  0  0
 93183  1  0  0  0
M  CHG  1  93   1
M  ISO  4   1 100  68 101  88 101  91 100
M  END
> <chiral flag>
0

> <version>
0

> <s_m_source_file>
/data/baiqing/PycharmProjects/Reinvent-master-3.2/result/LINK_invent/BTK/process_docking_weight1_custom_sum_contain_oxygen_bond_distance_aromatic_linkinvent_7_9_3/rearranged_h_0162.sdf

> <i_m_source_file_index>
85

> <r_mmod_Potential_Energy-OPLS-2005>
5.664626121521

> <r_mmod_Stretch_Energy-OPLS-2005>
51.0066452026367

> <r_mmod_Bend_Energy-OPLS-2005>
211.358123779297

> <r_mmod_Torsional_Energy-OPLS-2005>
425.187744140625

> <r_mmod_Improper_Torsional_Energy-OPLS-2005>
35.9657020568848

> <r_mmod_Van_der_Waal_Energy-OPLS-2005>
195.780563354492

> <r_mmod_Electrostatic_Energy-OPLS-2005>
-557.390380859375

> <r_mmod_Solvation_Energy-OPLS-2005>
-411.08154296875

> <b_mmod_Minimization_Converged-OPLS-2005>
0

> <r_mmod_RMS_Derivative-OPLS-2005>
2.78839588165283

$$$$
86
                    3D
 Structure written by MMmdl.
168177  0  0  1  0            999 V2000
  -30.6926  -14.5419   20.5002 C   0  0  0  0  0  0
  -30.4190  -12.3283   19.4518 C   0  0  0  0  0  0
  -29.4990  -12.4773   18.2215 C   0  0  0  0  0  0
  -28.0211  -12.3376   18.6355 C   0  0  0  0  0  0
  -27.6525  -13.2138   19.8639 C   0  0  2  0  0  0
  -28.6958  -13.0719   20.9971 C   0  0  0  0  0  0
  -25.2559  -13.8177   20.5709 C   0  0  0  0  0  0
  -24.1813  -13.0446   20.9203 C   0  0  0  0  0  0
  -24.6363  -11.6907   20.8745 C   0  0  0  0  0  0
  -23.9028  -10.4292   21.0414 C   0  0  0  0  0  0
  -24.3589   -9.4214   21.9193 C   0  0  0  0  0  0
  -23.6272   -8.2250   22.0762 C   0  0  0  0  0  0
  -22.4265   -8.0284   21.3559 C   0  0  0  0  0  0
  -21.9885   -9.0247   20.4669 C   0  0  0  0  0  0
  -22.7190  -10.2129   20.3071 C   0  0  0  0  0  0
  -21.6849   -6.0737   22.5288 C   0  0  0  0  0  0
  -21.4012   -6.5648   23.8213 C   0  0  0  0  0  0
  -21.3658   -5.6796   24.9182 C   0  0  0  0  0  0
  -21.6047   -4.3062   24.7218 C   0  0  0  0  0  0
  -21.8816   -3.8152   23.4337 C   0  0  0  0  0  0
  -21.9188   -4.6972   22.3395 C   0  0  0  0  0  0
  -22.7849  -13.5246   21.1845 C   0  0  0  0  0  0
  -22.1665   -4.2154   21.0982 F   0  0  0  0  0  0
  -21.5605   -3.4552   25.7722 F   0  0  0  0  0  0
  -30.0209  -13.3586   20.4284 N   0  0  0  0  0  0
  -26.2981  -12.9343   20.3344 N   0  0  0  0  0  0
  -25.9296  -11.6495   20.5783 N   0  0  0  0  0  0
  -22.0458  -12.8283   22.0408 N   0  0  0  0  0  0
  -25.4271  -15.1897   20.4122 N   0  0  0  0  0  0
  -31.8612  -14.6495   20.1199 O   0  0  0  0  0  0
  -21.6634   -6.8887   21.4251 O   0  0  0  0  0  0
  -22.3557  -14.5563   20.6670 O   0  0  0  0  0  0
  -24.6164  -31.8643   23.2074 C   0  0  0  0  0  0
  -25.9041  -32.4804   23.8367 C   0  0  1  0  0  0
  -27.2265  -27.3859   20.0867 C   0  0  0  0  0  0
  -25.5889  -33.8603   24.2304 N   0  0  0  0  0  0
  -23.4065  -30.4877   21.5507 C   0  0  2  0  0  0
  -24.8507  -28.9527   20.1101 C   0  0  0  0  0  0
  -22.7411  -29.4639   22.4988 C   0  0  0  0  0  0
  -18.0275  -28.1353   22.8505 C   0  0  0  0  0  0
  -24.1483  -36.7285   23.2641 C   0  0  0  0  0  0
  -25.9424  -30.8108   21.3724 C   0  0  0  0  0  0
  -26.0152  -29.4447   20.7124 C   0  0  0  0  0  0
  -27.2014  -28.6659   20.7042 C   0  0  0  0  0  0
  -26.0289  -26.9153   19.4980 C   0  0  0  0  0  0
  -24.8550  -27.6889   19.5014 C   0  0  0  0  0  0
  -23.6139  -29.8216   20.1652 C   0  0  0  0  0  0
  -25.4107  -36.3096   24.0342 C   0  0  1  0  0  0
  -20.5868  -28.3637   23.1323 C   0  0  2  0  0  0
  -20.6757  -26.9372   22.5415 C   0  0  0  0  0  0
  -19.5738  -26.6368   21.5211 C   0  0  0  0  0  0
  -18.1923  -26.7904   22.1627 C   0  0  0  0  0  0
  -19.1524  -28.8816   23.2915 C   0  0  0  0  0  0
  -18.9454  -30.1417   23.8927 C   0  0  0  0  0  0
  -17.6454  -30.6570   24.0559 C   0  0  0  0  0  0
  -25.9045  -34.9465   23.5126 C   0  0  0  0  0  0
  -16.5347  -29.9071   23.6323 C   0  0  0  0  0  0
  -16.7261  -28.6479   23.0369 C   0  0  0  0  0  0
  -26.4451  -31.6595   25.0707 C   0  0  0  0  0  0
  -25.3709  -31.3707   26.1451 C   0  0  0  0  0  0
  -27.0278  -30.3033   24.6106 C   0  0  0  0  0  0
  -27.6036  -32.4318   25.7439 C   0  0  0  0  0  0
  -27.5591  -37.1781   24.8456 C   0  0  0  0  0  0
  -21.4140  -29.3002   22.3723 N   0  0  0  0  0  0
  -26.4286  -37.3790   23.9427 N   0  0  0  0  0  0
  -24.6736  -31.0700   22.1004 N   0  0  0  0  0  0
  -23.4169  -28.8191   23.3055 O   0  0  0  0  0  0
  -28.3795  -26.6083   20.1325 O   0  0  0  0  0  0
  -26.5626  -34.8922   22.4702 O   0  0  0  0  0  0
  -23.5345  -32.1424   23.7448 O   0  0  0  0  0  0
  -29.9056  -19.5274   20.3564 C   0  0  0  0  0  0
  -29.1207  -19.5743   23.0212 C   0  0  0  0  0  0
  -29.5991  -20.7832   20.9554 C   0  0  0  0  0  0
  -29.8556  -18.2905   21.0663 C   0  0  0  0  0  0
  -29.4411  -18.3320   22.4241 C   0  0  0  0  0  0
  -29.2206  -20.8024   22.3180 C   0  0  0  0  0  0
  -30.5816  -24.3141   20.2728 C   0  0  0  0  0  0
  -29.7801  -22.0980   20.1525 C   0  0  1  0  0  0
  -29.3346  -24.2879   19.3901 C   0  0  1  0  0  0
  -28.5821  -23.0771   19.9778 C   0  0  1  0  0  0
  -29.3687  -17.0884   23.2963 C   0  0  0  0  0  0
  -27.4640  -22.5158   19.0853 C   0  0  0  0  0  0
  -29.0321  -22.1061   24.3279 C   0  0  0  0  0  0
  -30.3748  -17.0176   20.3423 C   0  0  0  0  0  0
  -28.6488  -25.6636   19.0675 C   0  0  0  0  0  0
  -29.9571  -15.6504   20.7562 N   0  0  0  0  0  0
  -30.8067  -22.9520   20.6725 O   0  0  0  0  0  0
  -28.9920  -22.0260   22.9091 O   0  0  0  0  0  0
  -31.4657  -12.4138   19.1519 H   0  0  0  0  0  0
  -30.3135  -11.3357   19.8924 H   0  0  0  0  0  0
  -29.7446  -11.7211   17.4738 H   0  0  0  0  0  0
  -29.6659  -13.4439   17.7459 H   0  0  0  0  0  0
  -27.8490  -11.2857   18.8697 H   0  0  0  0  0  0
  -27.3681  -12.5701   17.7949 H   0  0  0  0  0  0
  -27.6725  -14.2484   19.5215 H   0  0  0  0  0  0
  -28.6805  -12.0631   21.4096 H   0  0  0  0  0  0
  -28.4611  -13.7426   21.8259 H   0  0  0  0  0  0
  -25.2737   -9.5678   22.4771 H   0  0  0  0  0  0
  -23.9981   -7.4637   22.7468 H   0  0  0  0  0  0
  -21.0817   -8.8746   19.8985 H   0  0  0  0  0  0
  -22.3638  -10.9666   19.6186 H   0  0  0  0  0  0
  -21.2026   -7.6154   23.9718 H   0  0  0  0  0  0
  -21.1484   -6.0537   25.9080 H   0  0  0  0  0  0
  -22.0593   -2.7614   23.2838 H   0  0  0  0  0  0
  -22.4042  -11.9973   22.4886 H   0  0  0  0  0  0
  -21.1079  -13.1353   22.2542 H   0  0  0  0  0  0
  -24.6576  -15.8412   20.5242 H   0  0  0  0  0  0
  -26.2726  -15.6336   20.0768 H   0  0  0  0  0  0
  -26.7097  -32.5491   23.1107 H   0  0  0  0  0  0
  -25.0009  -33.9748   25.0429 H   0  0  0  0  0  0
  -22.6974  -31.3065   21.4116 H   0  0  0  0  0  0
  -23.3765  -35.9594   23.3281 H   0  0  0  0  0  0
  -24.3584  -36.8921   22.2060 H   0  0  0  0  0  0
  -23.7200  -37.6468   23.6665 H   0  0  0  0  0  0
  -26.0717  -31.5807   20.6104 H   0  0  0  0  0  0
  -26.8240  -30.8519   22.0005 H   0  0  0  0  0  0
  -28.0962  -29.0376   21.1842 H   0  0  0  0  0  0
  -25.9506  -25.9316   19.0621 H   0  0  0  0  0  0
  -23.9543  -27.2970   19.0482 H   0  0  0  0  0  0
  -23.7144  -30.5953   19.4034 H   0  0  0  0  0  0
  -22.7373  -29.2385   19.8762 H   0  0  0  0  0  0
  -25.1281  -36.1955   25.0835 H   0  0  0  0  0  0
  -20.9960  -28.3183   24.1442 H   0  0  0  0  0  0
  -20.5637  -26.2234   23.3593 H   0  0  0  0  0  0
  -21.6625  -26.7397   22.1221 H   0  0  0  0  0  0
  -19.6897  -25.6284   21.1221 H   0  0  0  0  0  0
  -19.6684  -27.3190   20.6752 H   0  0  0  0  0  0
  -17.4183  -26.6652   21.4040 H   0  0  0  0  0  0
  -18.0336  -26.0033   22.9014 H   0  0  0  0  0  0
  -19.7927  -30.7225   24.2318 H   0  0  0  0  0  0
  -17.5011  -31.6259   24.5137 H   0  0  0  0  0  0
  -15.5350  -30.2987   23.7624 H   0  0  0  0  0  0
  -15.8658  -28.0794   22.7095 H   0  0  0  0  0  0
  -24.5878  -30.7062   25.7773 H   0  0  0  0  0  0
  -24.8897  -32.2861   26.4907 H   0  0  0  0  0  0
  -25.8053  -30.8855   27.0199 H   0  0  0  0  0  0
  -26.2816  -29.6801   24.1159 H   0  0  0  0  0  0
  -27.4032  -29.7271   25.4569 H   0  0  0  0  0  0
  -27.8662  -30.4348   23.9265 H   0  0  0  0  0  0
  -27.2667  -33.3612   26.2038 H   0  0  0  0  0  0
  -28.3799  -32.6892   25.0222 H   0  0  0  0  0  0
  -28.0741  -31.8429   26.5319 H   0  0  0  0  0  0
  -28.2581  -38.0107   24.7569 H   0  0  0  0  0  0
  -28.1117  -36.2649   24.6198 H   0  0  0  0  0  0
  -27.2322  -37.1322   25.8859 H   0  0  0  0  0  0
  -20.9293  -29.8711   21.6937 H   0  0  0  0  0  0
  -26.0174  -38.2854   24.1483 H   0  0  0  0  0  0
  -30.2404  -19.5188   19.3280 H   0  0  0  0  0  0
  -28.8215  -19.5737   24.0592 H   0  0  0  0  0  0
  -30.4145  -24.9187   21.1656 H   0  0  0  0  0  0
  -31.4434  -24.7211   19.7417 H   0  0  0  0  0  0
  -30.1165  -21.8049   19.1563 H   0  0  0  0  0  0
  -29.6767  -23.9522   18.4093 H   0  0  0  0  0  0
  -28.1633  -23.3508   20.9469 H   0  0  0  0  0  0
  -29.1775  -17.3379   24.3405 H   0  0  0  0  0  0
  -30.3079  -16.5356   23.2718 H   0  0  0  0  0  0
  -28.5634  -16.4311   22.9671 H   0  0  0  0  0  0
  -27.8473  -22.1936   18.1164 H   0  0  0  0  0  0
  -26.6870  -23.2612   18.9113 H   0  0  0  0  0  0
  -26.9912  -21.6533   19.5578 H   0  0  0  0  0  0
  -29.1339  -23.1495   24.6254 H   0  0  0  0  0  0
  -29.8878  -21.5717   24.7456 H   0  0  0  0  0  0
  -28.1138  -21.7194   24.7716 H   0  0  0  0  0  0
  -31.4628  -17.0930   20.3775 H   0  0  0  0  0  0
  -30.1185  -17.1036   19.2850 H   0  0  0  0  0  0
  -27.8123  -25.4706   18.4032 H   0  0  0  0  0  0
  -29.3473  -26.2037   18.4282 H   0  0  0  0  0  0
  -28.9931  -15.5196   21.0185 H   0  0  0  0  0  0
  1 25  1  0  0  0
  1 30  2  0  0  0
  1 86  1  0  0  0
  2  3  1  0  0  0
  2 25  1  0  0  0
  2 89  1  0  0  0
  2 90  1  0  0  0
  3  4  1  0  0  0
  3 91  1  0  0  0
  3 92  1  0  0  0
  4  5  1  0  0  0
  4 93  1  0  0  0
  4 94  1  0  0  0
  5  6  1  0  0  0
  5 26  1  0  0  0
  5 95  1  0  0  0
  6 25  1  0  0  0
  6 96  1  0  0  0
  6 97  1  0  0  0
  7  8  2  0  0  0
  7 26  1  0  0  0
  7 29  1  0  0  0
  8  9  1  0  0  0
  8 22  1  0  0  0
  9 10  1  0  0  0
  9 27  2  0  0  0
 10 11  2  0  0  0
 10 15  1  0  0  0
 11 12  1  0  0  0
 11 98  1  0  0  0
 12 13  2  0  0  0
 12 99  1  0  0  0
 13 14  1  0  0  0
 13 31  1  0  0  0
 14 15  2  0  0  0
 14100  1  0  0  0
 15101  1  0  0  0
 16 17  2  0  0  0
 16 21  1  0  0  0
 16 31  1  0  0  0
 17 18  1  0  0  0
 17102  1  0  0  0
 18 19  2  0  0  0
 18103  1  0  0  0
 19 20  1  0  0  0
 19 24  1  0  0  0
 20 21  2  0  0  0
 20104  1  0  0  0
 21 23  1  0  0  0
 22 28  1  0  0  0
 22 32  2  0  0  0
 26 27  1  0  0  0
 28105  1  0  0  0
 28106  1  0  0  0
 29107  1  0  0  0
 29108  1  0  0  0
 33 34  1  0  0  0
 33 66  1  0  0  0
 33 70  2  0  0  0
 34 36  1  0  0  0
 34 59  1  0  0  0
 34109  1  0  0  0
 35 44  2  0  0  0
 35 45  1  0  0  0
 35 68  1  0  0  0
 36 56  1  0  0  0
 36110  1  0  0  0
 37 39  1  0  0  0
 37 47  1  0  0  0
 37 66  1  0  0  0
 37111  1  0  0  0
 38 43  2  0  0  0
 38 46  1  0  0  0
 38 47  1  0  0  0
 39 64  1  0  0  0
 39 67  2  0  0  0
 40 52  1  0  0  0
 40 53  2  0  0  0
 40 58  1  0  0  0
 41112  1  0  0  0
 41113  1  0  0  0
 41114  1  0  0  0
 41 48  1  0  0  0
 42 43  1  0  0  0
 42 66  1  0  0  0
 42115  1  0  0  0
 42116  1  0  0  0
 43 44  1  0  0  0
 44117  1  0  0  0
 45 46  2  0  0  0
 45118  1  0  0  0
 46119  1  0  0  0
 47120  1  0  0  0
 47121  1  0  0  0
 48 56  1  0  0  0
 48 65  1  0  0  0
 48122  1  0  0  0
 49 50  1  0  0  0
 49 53  1  0  0  0
 49 64  1  0  0  0
 49123  1  0  0  0
 50 51  1  0  0  0
 50124  1  0  0  0
 50125  1  0  0  0
 51 52  1  0  0  0
 51126  1  0  0  0
 51127  1  0  0  0
 52128  1  0  0  0
 52129  1  0  0  0
 53 54  1  0  0  0
 54 55  2  0  0  0
 54130  1  0  0  0
 55 57  1  0  0  0
 55131  1  0  0  0
 56 69  2  0  0  0
 57 58  2  0  0  0
 57132  1  0  0  0
 58133  1  0  0  0
 59 60  1  0  0  0
 59 61  1  0  0  0
 59 62  1  0  0  0
 60134  1  0  0  0
 60135  1  0  0  0
 60136  1  0  0  0
 61137  1  0  0  0
 61138  1  0  0  0
 61139  1  0  0  0
 62140  1  0  0  0
 62141  1  0  0  0
 62142  1  0  0  0
 63 65  1  0  0  0
 63143  1  0  0  0
 63144  1  0  0  0
 63145  1  0  0  0
 64146  1  0  0  0
 65147  1  0  0  0
 68 85  1  0  0  0
 71 73  2  0  0  0
 71 74  1  0  0  0
 71148  1  0  0  0
 72 75  1  0  0  0
 72 76  2  0  0  0
 72149  1  0  0  0
 73 76  1  0  0  0
 73 78  1  0  0  0
 74 75  2  0  0  0
 74 84  1  0  0  0
 75 81  1  0  0  0
 76 88  1  0  0  0
 77 79  1  0  0  0
 77 87  1  0  0  0
 77150  1  0  0  0
 77151  1  0  0  0
 78 80  1  0  0  0
 78 87  1  0  0  0
 78152  1  0  0  0
 79 80  1  0  0  0
 79 85  1  0  0  0
 79153  1  0  0  0
 80 82  1  0  0  0
 80154  1  0  0  0
 81155  1  0  0  0
 81156  1  0  0  0
 81157  1  0  0  0
 82158  1  0  0  0
 82159  1  0  0  0
 82160  1  0  0  0
 83 88  1  0  0  0
 83161  1  0  0  0
 83162  1  0  0  0
 83163  1  0  0  0
 84 86  1  0  0  0
 84164  1  0  0  0
 84165  1  0  0  0
 85166  1  0  0  0
 85167  1  0  0  0
 86168  1  0  0  0
M  ISO  4   1 100  68 101  85 101  86 100
M  END
> <chiral flag>
0

> <version>
0

> <s_m_source_file>
/data/baiqing/PycharmProjects/Reinvent-master-3.2/result/LINK_invent/BTK/process_docking_weight1_custom_sum_contain_oxygen_bond_distance_aromatic_linkinvent_7_9_3/rearranged_h_0162.sdf

> <i_m_source_file_index>
86

> <r_mmod_Potential_Energy-OPLS-2005>
77.4813537597656

> <r_mmod_Stretch_Energy-OPLS-2005>
52.2433815002441

> <r_mmod_Bend_Energy-OPLS-2005>
176.860046386719

> <r_mmod_Torsional_Energy-OPLS-2005>
259.373626708984

> <r_mmod_Improper_Torsional_Energy-OPLS-2005>
7.4010763168335

> <r_mmod_Van_der_Waal_Energy-OPLS-2005>
154.142883300781

> <r_mmod_Electrostatic_Energy-OPLS-2005>
-380.977935791016

> <r_mmod_Solvation_Energy-OPLS-2005>
-218.166488647461

> <b_mmod_Minimization_Converged-OPLS-2005>
0

> <r_mmod_RMS_Derivative-OPLS-2005>
2.71617722511292

$$$$
87
                    3D
 Structure written by MMmdl.
166175  0  0  1  0            999 V2000
  -30.5694  -14.7516   20.5236 C   0  0  0  0  0  0
  -30.4346  -12.4680   19.4981 C   0  0  0  0  0  0
  -29.5154  -12.5250   18.2569 C   0  0  0  0  0  0
  -28.0391  -12.3434   18.6579 C   0  0  0  0  0  0
  -27.6421  -13.2301   19.8671 C   0  0  2  0  0  0
  -28.6733  -13.1353   21.0130 C   0  0  0  0  0  0
  -25.2502  -13.8203   20.5690 C   0  0  0  0  0  0
  -24.1773  -13.0438   20.9188 C   0  0  0  0  0  0
  -24.6362  -11.6919   20.8742 C   0  0  0  0  0  0
  -23.9048  -10.4293   21.0411 C   0  0  0  0  0  0
  -24.3601   -9.4215   21.9183 C   0  0  0  0  0  0
  -23.6289   -8.2251   22.0756 C   0  0  0  0  0  0
  -22.4276   -8.0284   21.3544 C   0  0  0  0  0  0
  -21.9912   -9.0246   20.4635 C   0  0  0  0  0  0
  -22.7235  -10.2126   20.3048 C   0  0  0  0  0  0
  -21.6850   -6.0734   22.5279 C   0  0  0  0  0  0
  -21.4010   -6.5630   23.8211 C   0  0  0  0  0  0
  -21.3656   -5.6793   24.9183 C   0  0  0  0  0  0
  -21.6044   -4.3050   24.7231 C   0  0  0  0  0  0
  -21.8823   -3.8136   23.4350 C   0  0  0  0  0  0
  -21.9191   -4.6961   22.3407 C   0  0  0  0  0  0
  -22.7803  -13.5228   21.1857 C   0  0  0  0  0  0
  -22.1665   -4.2140   21.0982 F   0  0  0  0  0  0
  -21.5627   -3.4538   25.7746 F   0  0  0  0  0  0
  -29.9787  -13.5076   20.4563 N   0  0  0  0  0  0
  -26.2911  -12.9382   20.3320 N   0  0  0  0  0  0
  -25.9282  -11.6525   20.5762 N   0  0  0  0  0  0
  -22.0458  -12.8184   22.0395 N   0  0  0  0  0  0
  -25.4226  -15.1925   20.4113 N   0  0  0  0  0  0
  -31.7318  -14.8870   20.1252 O   0  0  0  0  0  0
  -21.6639   -6.8875   21.4239 O   0  0  0  0  0  0
  -22.3494  -14.5540   20.6734 O   0  0  0  0  0  0
  -24.6303  -31.8585   23.1961 C   0  0  0  0  0  0
  -25.9142  -32.4763   23.8312 C   0  0  1  0  0  0
  -27.2126  -27.2471   20.1496 C   0  0  0  0  0  0
  -25.5955  -33.8548   24.2269 N   0  0  0  0  0  0
  -23.4275  -30.4760   21.5405 C   0  0  2  0  0  0
  -24.8789  -28.9189   20.1174 C   0  0  0  0  0  0
  -22.7515  -29.4566   22.4909 C   0  0  0  0  0  0
  -18.0278  -28.1325   22.8448 C   0  0  0  0  0  0
  -24.1514  -36.7270   23.2652 C   0  0  0  0  0  0
  -25.9740  -30.7642   21.3810 C   0  0  0  0  0  0
  -26.0501  -29.3804   20.7350 C   0  0  0  0  0  0
  -27.2234  -28.5560   20.7435 C   0  0  0  0  0  0
  -26.0296  -26.8674   19.4860 C   0  0  0  0  0  0
  -24.8734  -27.6692   19.4800 C   0  0  0  0  0  0
  -23.6524  -29.8093   20.1582 C   0  0  0  0  0  0
  -25.4137  -36.3056   24.0330 C   0  0  1  0  0  0
  -20.5868  -28.3652   23.1249 C   0  0  2  0  0  0
  -20.6770  -26.9377   22.5384 C   0  0  0  0  0  0
  -19.5756  -26.6365   21.5156 C   0  0  0  0  0  0
  -18.1934  -26.7871   22.1580 C   0  0  0  0  0  0
  -19.1528  -28.8801   23.2845 C   0  0  0  0  0  0
  -18.9476  -30.1394   23.8889 C   0  0  0  0  0  0
  -17.6481  -30.6542   24.0530 C   0  0  0  0  0  0
  -25.9085  -34.9434   23.5108 C   0  0  0  0  0  0
  -16.5373  -29.9046   23.6303 C   0  0  0  0  0  0
  -16.7266  -28.6452   23.0335 C   0  0  0  0  0  0
  -26.4527  -31.6537   25.0669 C   0  0  0  0  0  0
  -25.3733  -31.3588   26.1366 C   0  0  0  0  0  0
  -27.0386  -30.2993   24.6020 C   0  0  0  0  0  0
  -27.6085  -32.4271   25.7463 C   0  0  0  0  0  0
  -27.5585  -37.1779   24.8462 C   0  0  0  0  0  0
  -21.4214  -29.3020   22.3676 N   0  0  0  0  0  0
  -26.4307  -37.3758   23.9403 N   0  0  0  0  0  0
  -24.6954  -31.0520   22.0955 N   0  0  0  0  0  0
  -23.4234  -28.8092   23.2979 O   0  0  0  0  0  0
  -28.2950  -26.3433   20.1297 O   0  0  0  0  0  0
  -26.5659  -34.8930   22.4679 O   0  0  0  0  0  0
  -23.5451  -32.1417   23.7237 O   0  0  0  0  0  0
  -29.5675  -19.9013   20.1496 C   0  0  0  0  0  0
  -28.9859  -21.1648   20.5267 C   0  0  0  0  0  0
  -28.1037  -21.2186   21.5846 C   0  0  0  0  0  0
  -29.2831  -18.6514   20.8328 C   0  0  0  0  0  0
  -27.8186  -20.0424   22.3343 C   0  0  0  0  0  0
  -28.4172  -18.7746   21.9757 C   0  0  0  0  0  0
  -29.1346  -22.5894   19.9138 C   0  0  0  0  0  0
  -27.5528  -22.6476   21.7598 C   0  0  0  0  0  0
  -27.9838  -23.5307   20.5155 C   0  0  2  0  0  0
  -26.8668  -20.1537   23.5244 C   0  0  0  0  0  0
  -28.1250  -17.5438   22.8310 C   0  0  0  0  0  0
  -26.8164  -23.5258   19.5124 C   0  0  0  0  0  0
  -29.4039  -17.1669   18.7768 C   0  0  0  0  0  0
  -28.2735  -25.0883   20.9648 C   0  0  0  0  0  0
  -29.9039  -17.2788   20.2320 C   0  0  2  0  0  0
  -29.7681  -15.8582   20.8088 N   0  0  0  0  0  0
  -31.4746  -12.6102   19.2016 H   0  0  0  0  0  0
  -30.3943  -11.4830   19.9662 H   0  0  0  0  0  0
  -29.8047  -11.7590   17.5356 H   0  0  0  0  0  0
  -29.6414  -13.4848   17.7537 H   0  0  0  0  0  0
  -27.8882  -11.2911   18.9022 H   0  0  0  0  0  0
  -27.3896  -12.5528   17.8069 H   0  0  0  0  0  0
  -27.6477  -14.2573   19.5023 H   0  0  0  0  0  0
  -28.7059  -12.1248   21.4241 H   0  0  0  0  0  0
  -28.3948  -13.7902   21.8406 H   0  0  0  0  0  0
  -25.2741   -9.5702   22.4773 H   0  0  0  0  0  0
  -23.9995   -7.4648   22.7476 H   0  0  0  0  0  0
  -21.0859   -8.8756   19.8931 H   0  0  0  0  0  0
  -22.3696  -10.9660   19.6163 H   0  0  0  0  0  0
  -21.1998   -7.6148   23.9712 H   0  0  0  0  0  0
  -21.1473   -6.0523   25.9081 H   0  0  0  0  0  0
  -22.0597   -2.7606   23.2857 H   0  0  0  0  0  0
  -22.4069  -11.9831   22.4742 H   0  0  0  0  0  0
  -21.1074  -13.1191   22.2602 H   0  0  0  0  0  0
  -24.6550  -15.8479   20.5119 H   0  0  0  0  0  0
  -26.2674  -15.6272   20.0621 H   0  0  0  0  0  0
  -26.7195  -32.5440   23.1044 H   0  0  0  0  0  0
  -24.9993  -33.9651   25.0332 H   0  0  0  0  0  0
  -22.7229  -31.2962   21.3917 H   0  0  0  0  0  0
  -23.3780  -35.9607   23.3295 H   0  0  0  0  0  0
  -24.3590  -36.8920   22.2068 H   0  0  0  0  0  0
  -23.7285  -37.6468   23.6696 H   0  0  0  0  0  0
  -26.1036  -31.5191   20.6041 H   0  0  0  0  0  0
  -26.8571  -30.8265   22.0049 H   0  0  0  0  0  0
  -28.1230  -28.9014   21.2351 H   0  0  0  0  0  0
  -25.9859  -25.9332   18.9533 H   0  0  0  0  0  0
  -23.9847  -27.3160   18.9725 H   0  0  0  0  0  0
  -23.7868  -30.5845   19.4045 H   0  0  0  0  0  0
  -22.7721  -29.2427   19.8484 H   0  0  0  0  0  0
  -25.1309  -36.1894   25.0823 H   0  0  0  0  0  0
  -20.9928  -28.3224   24.1369 H   0  0  0  0  0  0
  -20.5662  -26.2244   23.3576 H   0  0  0  0  0  0
  -21.6627  -26.7417   22.1169 H   0  0  0  0  0  0
  -19.6976  -25.6290   21.1132 H   0  0  0  0  0  0
  -19.6686  -27.3215   20.6713 H   0  0  0  0  0  0
  -17.4192  -26.6567   21.3996 H   0  0  0  0  0  0
  -18.0374  -26.0034   22.8994 H   0  0  0  0  0  0
  -19.7991  -30.7134   24.2304 H   0  0  0  0  0  0
  -17.5081  -31.6238   24.5127 H   0  0  0  0  0  0
  -15.5367  -30.2951   23.7652 H   0  0  0  0  0  0
  -15.8661  -28.0775   22.7052 H   0  0  0  0  0  0
  -24.6000  -30.6874   25.7626 H   0  0  0  0  0  0
  -24.8817  -32.2694   26.4785 H   0  0  0  0  0  0
  -25.8065  -30.8761   27.0137 H   0  0  0  0  0  0
  -26.2913  -29.6734   24.1138 H   0  0  0  0  0  0
  -27.4274  -29.7238   25.4427 H   0  0  0  0  0  0
  -27.8703  -30.4356   23.9111 H   0  0  0  0  0  0
  -27.2729  -33.3643   26.1911 H   0  0  0  0  0  0
  -28.3953  -32.6697   25.0303 H   0  0  0  0  0  0
  -28.0660  -31.8435   26.5461 H   0  0  0  0  0  0
  -28.2533  -38.0147   24.7560 H   0  0  0  0  0  0
  -28.1160  -36.2655   24.6236 H   0  0  0  0  0  0
  -27.2268  -37.1313   25.8860 H   0  0  0  0  0  0
  -20.9422  -29.8804   21.6921 H   0  0  0  0  0  0
  -26.0178  -38.2829   24.1429 H   0  0  0  0  0  0
  -30.2344  -19.8886   19.2996 H   0  0  0  0  0  0
  -29.0895  -22.5345   18.8264 H   0  0  0  0  0  0
  -30.1186  -22.9741   20.1770 H   0  0  0  0  0  0
  -27.9852  -23.0523   22.6766 H   0  0  0  0  0  0
  -26.4700  -22.6509   21.8990 H   0  0  0  0  0  0
  -26.3011  -21.0831   23.5411 H   0  0  0  0  0  0
  -27.4196  -20.1023   24.4616 H   0  0  0  0  0  0
  -26.1303  -19.3501   23.5126 H   0  0  0  0  0  0
  -29.0498  -17.0247   23.0750 H   0  0  0  0  0  0
  -27.4556  -16.8607   22.3081 H   0  0  0  0  0  0
  -27.6709  -17.7735   23.7938 H   0  0  0  0  0  0
  -26.5511  -22.5107   19.2116 H   0  0  0  0  0  0
  -27.0859  -24.0675   18.6058 H   0  0  0  0  0  0
  -25.9187  -23.9768   19.9360 H   0  0  0  0  0  0
  -29.6844  -18.0299   18.1748 H   0  0  0  0  0  0
  -28.3147  -17.0915   18.7517 H   0  0  0  0  0  0
  -29.8072  -16.2922   18.2667 H   0  0  0  0  0  0
  -29.2426  -25.0783   21.4642 H   0  0  0  0  0  0
  -27.5748  -25.3067   21.7761 H   0  0  0  0  0  0
  -30.9776  -17.4641   20.1994 H   0  0  0  0  0  0
  -28.8641  -15.6366   21.1953 H   0  0  0  0  0  0
  1 25  1  0  0  0
  1 30  2  0  0  0
  1 86  1  0  0  0
  2  3  1  0  0  0
  2 25  1  0  0  0
  2 87  1  0  0  0
  2 88  1  0  0  0
  3  4  1  0  0  0
  3 89  1  0  0  0
  3 90  1  0  0  0
  4  5  1  0  0  0
  4 91  1  0  0  0
  4 92  1  0  0  0
  5  6  1  0  0  0
  5 26  1  0  0  0
  5 93  1  0  0  0
  6 25  1  0  0  0
  6 94  1  0  0  0
  6 95  1  0  0  0
  7  8  2  0  0  0
  7 26  1  0  0  0
  7 29  1  0  0  0
  8  9  1  0  0  0
  8 22  1  0  0  0
  9 10  1  0  0  0
  9 27  2  0  0  0
 10 11  2  0  0  0
 10 15  1  0  0  0
 11 12  1  0  0  0
 11 96  1  0  0  0
 12 13  2  0  0  0
 12 97  1  0  0  0
 13 14  1  0  0  0
 13 31  1  0  0  0
 14 15  2  0  0  0
 14 98  1  0  0  0
 15 99  1  0  0  0
 16 17  2  0  0  0
 16 21  1  0  0  0
 16 31  1  0  0  0
 17 18  1  0  0  0
 17100  1  0  0  0
 18 19  2  0  0  0
 18101  1  0  0  0
 19 20  1  0  0  0
 19 24  1  0  0  0
 20 21  2  0  0  0
 20102  1  0  0  0
 21 23  1  0  0  0
 22 28  1  0  0  0
 22 32  2  0  0  0
 26 27  1  0  0  0
 28103  1  0  0  0
 28104  1  0  0  0
 29105  1  0  0  0
 29106  1  0  0  0
 33 34  1  0  0  0
 33 66  1  0  0  0
 33 70  2  0  0  0
 34 36  1  0  0  0
 34 59  1  0  0  0
 34107  1  0  0  0
 35 44  2  0  0  0
 35 45  1  0  0  0
 35 68  1  0  0  0
 36 56  1  0  0  0
 36108  1  0  0  0
 37 39  1  0  0  0
 37 47  1  0  0  0
 37 66  1  0  0  0
 37109  1  0  0  0
 38 43  2  0  0  0
 38 46  1  0  0  0
 38 47  1  0  0  0
 39 64  1  0  0  0
 39 67  2  0  0  0
 40 52  1  0  0  0
 40 53  2  0  0  0
 40 58  1  0  0  0
 41110  1  0  0  0
 41111  1  0  0  0
 41112  1  0  0  0
 41 48  1  0  0  0
 42 43  1  0  0  0
 42 66  1  0  0  0
 42113  1  0  0  0
 42114  1  0  0  0
 43 44  1  0  0  0
 44115  1  0  0  0
 45 46  2  0  0  0
 45116  1  0  0  0
 46117  1  0  0  0
 47118  1  0  0  0
 47119  1  0  0  0
 48 56  1  0  0  0
 48 65  1  0  0  0
 48120  1  0  0  0
 49 50  1  0  0  0
 49 53  1  0  0  0
 49 64  1  0  0  0
 49121  1  0  0  0
 50 51  1  0  0  0
 50122  1  0  0  0
 50123  1  0  0  0
 51 52  1  0  0  0
 51124  1  0  0  0
 51125  1  0  0  0
 52126  1  0  0  0
 52127  1  0  0  0
 53 54  1  0  0  0
 54 55  2  0  0  0
 54128  1  0  0  0
 55 57  1  0  0  0
 55129  1  0  0  0
 56 69  2  0  0  0
 57 58  2  0  0  0
 57130  1  0  0  0
 58131  1  0  0  0
 59 60  1  0  0  0
 59 61  1  0  0  0
 59 62  1  0  0  0
 60132  1  0  0  0
 60133  1  0  0  0
 60134  1  0  0  0
 61135  1  0  0  0
 61136  1  0  0  0
 61137  1  0  0  0
 62138  1  0  0  0
 62139  1  0  0  0
 62140  1  0  0  0
 63 65  1  0  0  0
 63141  1  0  0  0
 63142  1  0  0  0
 63143  1  0  0  0
 64144  1  0  0  0
 65145  1  0  0  0
 68 84  1  0  0  0
 71 72  2  0  0  0
 71 74  1  0  0  0
 71146  1  0  0  0
 72 73  1  0  0  0
 72 77  1  0  0  0
 73 75  2  0  0  0
 73 78  1  0  0  0
 74 76  2  0  0  0
 74 85  1  0  0  0
 75 76  1  0  0  0
 75 80  1  0  0  0
 76 81  1  0  0  0
 77 79  1  0  0  0
 77147  1  0  0  0
 77148  1  0  0  0
 78 79  1  0  0  0
 78149  1  0  0  0
 78150  1  0  0  0
 79 82  1  0  0  0
 79 84  1  0  0  0
 80151  1  0  0  0
 80152  1  0  0  0
 80153  1  0  0  0
 81154  1  0  0  0
 81155  1  0  0  0
 81156  1  0  0  0
 82157  1  0  0  0
 82158  1  0  0  0
 82159  1  0  0  0
 83160  1  0  0  0
 83161  1  0  0  0
 83162  1  0  0  0
 83 85  1  0  0  0
 84163  1  0  0  0
 84164  1  0  0  0
 85 86  1  0  0  0
 85165  1  0  0  0
 86166  1  0  0  0
M  ISO  4   1 100  68 101  84 101  86 100
M  END
> <chiral flag>
0

> <version>
0

> <s_m_source_file>
/data/baiqing/PycharmProjects/Reinvent-master-3.2/result/LINK_invent/BTK/process_docking_weight1_custom_sum_contain_oxygen_bond_distance_aromatic_linkinvent_7_9_3/rearranged_h_0162.sdf

> <i_m_source_file_index>
87

> <r_mmod_Potential_Energy-OPLS-2005>
218.526443481445

> <r_mmod_Stretch_Energy-OPLS-2005>
140.386642456055

> <r_mmod_Bend_Energy-OPLS-2005>
240.529052734375

> <r_mmod_Torsional_Energy-OPLS-2005>
236.555877685547

> <r_mmod_Improper_Torsional_Energy-OPLS-2005>
6.74300241470337

> <r_mmod_Van_der_Waal_Energy-OPLS-2005>
135.305847167969

> <r_mmod_Electrostatic_Energy-OPLS-2005>
-429.158874511719

> <r_mmod_Solvation_Energy-OPLS-2005>
-199.972045898438

> <b_mmod_Minimization_Converged-OPLS-2005>
0

> <r_mmod_RMS_Derivative-OPLS-2005>
4.04773950576782

$$$$
88
                    3D
 Structure written by MMmdl.
175185  0  0  1  0            999 V2000
  -30.6806  -14.4780   20.7327 C   0  0  0  0  0  0
  -30.4301  -12.3873   19.4038 C   0  0  0  0  0  0
  -29.4857  -12.5550   18.1963 C   0  0  0  0  0  0
  -28.0090  -12.3813   18.6004 C   0  0  0  0  0  0
  -27.6495  -13.2026   19.8617 C   0  0  2  0  0  0
  -28.6767  -12.9494   20.9749 C   0  0  0  0  0  0
  -25.2533  -13.8175   20.5633 C   0  0  0  0  0  0
  -24.1791  -13.0433   20.9166 C   0  0  0  0  0  0
  -24.6350  -11.6909   20.8690 C   0  0  0  0  0  0
  -23.9039  -10.4279   21.0382 C   0  0  0  0  0  0
  -24.3611   -9.4198   21.9142 C   0  0  0  0  0  0
  -23.6279   -8.2233   22.0713 C   0  0  0  0  0  0
  -22.4240   -8.0284   21.3538 C   0  0  0  0  0  0
  -21.9891   -9.0248   20.4610 C   0  0  0  0  0  0
  -22.7228  -10.2123   20.3021 C   0  0  0  0  0  0
  -21.6840   -6.0743   22.5319 C   0  0  0  0  0  0
  -21.4013   -6.5636   23.8268 C   0  0  0  0  0  0
  -21.3655   -5.6778   24.9224 C   0  0  0  0  0  0
  -21.6039   -4.3043   24.7256 C   0  0  0  0  0  0
  -21.8804   -3.8143   23.4375 C   0  0  0  0  0  0
  -21.9170   -4.6964   22.3431 C   0  0  0  0  0  0
  -22.7841  -13.5255   21.1844 C   0  0  0  0  0  0
  -22.1609   -4.2163   21.1006 F   0  0  0  0  0  0
  -21.5636   -3.4506   25.7758 F   0  0  0  0  0  0
  -30.0155  -13.3115   20.4685 N   0  0  0  0  0  0
  -26.2919  -12.9306   20.3228 N   0  0  0  0  0  0
  -25.9249  -11.6482   20.5643 N   0  0  0  0  0  0
  -22.0481  -12.8236   22.0397 N   0  0  0  0  0  0
  -25.4292  -15.1875   20.4076 N   0  0  0  0  0  0
  -31.6724  -14.8493   20.0895 O   0  0  0  0  0  0
  -21.6594   -6.8882   21.4275 O   0  0  0  0  0  0
  -22.3518  -14.5546   20.6693 O   0  0  0  0  0  0
  -24.6245  -31.8647   23.2038 C   0  0  0  0  0  0
  -25.9115  -32.4779   23.8374 C   0  0  1  0  0  0
  -27.2155  -27.3811   20.0933 C   0  0  0  0  0  0
  -25.5952  -33.8600   24.2293 N   0  0  0  0  0  0
  -23.4127  -30.4826   21.5547 C   0  0  2  0  0  0
  -24.8481  -28.9393   20.1180 C   0  0  0  0  0  0
  -22.7502  -29.4625   22.5062 C   0  0  0  0  0  0
  -18.0284  -28.1402   22.8487 C   0  0  0  0  0  0
  -24.1468  -36.7331   23.2639 C   0  0  0  0  0  0
  -25.9461  -30.8019   21.3690 C   0  0  0  0  0  0
  -26.0161  -29.4344   20.7171 C   0  0  0  0  0  0
  -27.2082  -28.6662   20.6950 C   0  0  0  0  0  0
  -26.0353  -26.9092   19.4908 C   0  0  0  0  0  0
  -24.8577  -27.6781   19.4988 C   0  0  0  0  0  0
  -23.6157  -29.8152   20.1684 C   0  0  0  0  0  0
  -25.4094  -36.3111   24.0329 C   0  0  1  0  0  0
  -20.5874  -28.3698   23.1315 C   0  0  2  0  0  0
  -20.6766  -26.9434   22.5419 C   0  0  0  0  0  0
  -19.5722  -26.6392   21.5232 C   0  0  0  0  0  0
  -18.1912  -26.7931   22.1641 C   0  0  0  0  0  0
  -19.1544  -28.8878   23.2864 C   0  0  0  0  0  0
  -18.9447  -30.1478   23.8855 C   0  0  0  0  0  0
  -17.6445  -30.6584   24.0584 C   0  0  0  0  0  0
  -25.9071  -34.9477   23.5118 C   0  0  0  0  0  0
  -16.5340  -29.9075   23.6339 C   0  0  0  0  0  0
  -16.7274  -28.6515   23.0326 C   0  0  0  0  0  0
  -26.4506  -31.6588   25.0768 C   0  0  0  0  0  0
  -25.3739  -31.3705   26.1489 C   0  0  0  0  0  0
  -27.0339  -30.2999   24.6222 C   0  0  0  0  0  0
  -27.6061  -32.4349   25.7522 C   0  0  0  0  0  0
  -27.5563  -37.1819   24.8466 C   0  0  0  0  0  0
  -21.4240  -29.3019   22.3765 N   0  0  0  0  0  0
  -26.4272  -37.3795   23.9414 N   0  0  0  0  0  0
  -24.6801  -31.0673   22.0983 N   0  0  0  0  0  0
  -23.4232  -28.8208   23.3168 O   0  0  0  0  0  0
  -28.3320  -26.5649   20.0757 O   0  0  0  0  0  0
  -26.5682  -34.8948   22.4701 O   0  0  0  0  0  0
  -23.5427  -32.1443   23.7399 O   0  0  0  0  0  0
  -29.1643  -23.5913   19.4289 C   0  0  0  0  0  0
  -27.7758  -22.9936   21.2686 C   0  0  0  0  0  0
  -28.4088  -24.0115   20.5397 C   0  0  0  0  0  0
  -29.3593  -22.2051   19.1282 C   0  0  0  0  0  0
  -27.9546  -21.6131   20.9912 C   0  0  0  0  0  0
  -28.8689  -21.1446   19.9791 C   0  0  0  0  0  0
  -31.2131  -15.5304   23.9163 C   0  0  0  0  0  0
  -31.2148  -16.8509   23.1675 C   0  0  0  0  0  0
  -30.3030  -14.6174   23.0965 C   0  0  0  0  0  0
  -28.8910  -18.5864   20.6501 C   0  0  0  0  0  0
  -30.5588  -19.3574   19.2197 C   0  0  0  0  0  0
  -30.2164  -17.8978   21.0356 C   0  0  1  0  0  0
  -30.1768  -16.6855   22.0500 C   0  0  1  0  0  0
  -30.8799  -17.8949   19.6678 C   0  0  2  0  0  0
  -30.0108  -21.9252   17.7818 C   0  0  0  0  0  0
  -27.0471  -20.7142   21.8118 C   0  0  0  0  0  0
  -28.2884  -25.4799   21.0365 C   0  0  0  0  0  0
  -29.2423  -19.7453   19.7844 N   0  0  0  0  0  0
  -30.1639  -15.2201   21.7543 N   0  0  0  0  0  0
  -32.3119  -17.5326   19.6782 N   0  3  0  0  0  0
  -31.4609  -12.5684   19.0937 H   0  0  0  0  0  0
  -30.3938  -11.3658   19.7838 H   0  0  0  0  0  0
  -29.7569  -11.8454   17.4096 H   0  0  0  0  0  0
  -29.6142  -13.5522   17.7735 H   0  0  0  0  0  0
  -27.8420  -11.3215   18.7917 H   0  0  0  0  0  0
  -27.3517  -12.6630   17.7754 H   0  0  0  0  0  0
  -27.6967  -14.2565   19.5907 H   0  0  0  0  0  0
  -28.6626  -11.8995   21.2761 H   0  0  0  0  0  0
  -28.3536  -13.4994   21.8556 H   0  0  0  0  0  0
  -25.2801   -9.5663   22.4676 H   0  0  0  0  0  0
  -23.9999   -7.4628   22.7444 H   0  0  0  0  0  0
  -21.0815   -8.8815   19.8908 H   0  0  0  0  0  0
  -22.3739  -10.9667   19.6099 H   0  0  0  0  0  0
  -21.2003   -7.6145   23.9801 H   0  0  0  0  0  0
  -21.1473   -6.0484   25.9137 H   0  0  0  0  0  0
  -22.0562   -2.7604   23.2892 H   0  0  0  0  0  0
  -22.4096  -11.9923   22.4842 H   0  0  0  0  0  0
  -21.1107  -13.1285   22.2587 H   0  0  0  0  0  0
  -24.6750  -15.8587   20.5190 H   0  0  0  0  0  0
  -26.2902  -15.6157   20.0894 H   0  0  0  0  0  0
  -26.7218  -32.5458   23.1155 H   0  0  0  0  0  0
  -25.0038  -33.9720   25.0399 H   0  0  0  0  0  0
  -22.7019  -31.2991   21.4220 H   0  0  0  0  0  0
  -23.3714  -35.9679   23.3318 H   0  0  0  0  0  0
  -24.3526  -36.8943   22.2043 H   0  0  0  0  0  0
  -23.7229  -37.6536   23.6669 H   0  0  0  0  0  0
  -26.0799  -31.5491   20.5842 H   0  0  0  0  0  0
  -26.8263  -30.8446   21.9987 H   0  0  0  0  0  0
  -28.1157  -29.0434   21.1401 H   0  0  0  0  0  0
  -26.0293  -25.9379   19.0171 H   0  0  0  0  0  0
  -23.9648  -27.2970   19.0236 H   0  0  0  0  0  0
  -23.7238  -30.5883   19.4064 H   0  0  0  0  0  0
  -22.7320  -29.2387   19.8850 H   0  0  0  0  0  0
  -25.1234  -36.1960   25.0811 H   0  0  0  0  0  0
  -20.9921  -28.3252   24.1450 H   0  0  0  0  0  0
  -20.5672  -26.2332   23.3619 H   0  0  0  0  0  0
  -21.6637  -26.7454   22.1204 H   0  0  0  0  0  0
  -19.6874  -25.6295   21.1261 H   0  0  0  0  0  0
  -19.6623  -27.3194   20.6757 H   0  0  0  0  0  0
  -17.4179  -26.6711   21.4038 H   0  0  0  0  0  0
  -18.0303  -26.0055   22.9029 H   0  0  0  0  0  0
  -19.7929  -30.7350   24.2170 H   0  0  0  0  0  0
  -17.4977  -31.6232   24.5238 H   0  0  0  0  0  0
  -15.5332  -30.2947   23.7661 H   0  0  0  0  0  0
  -15.8701  -28.0830   22.7000 H   0  0  0  0  0  0
  -24.5901  -30.7092   25.7774 H   0  0  0  0  0  0
  -24.8975  -32.2876   26.4970 H   0  0  0  0  0  0
  -25.8044  -30.8811   27.0237 H   0  0  0  0  0  0
  -26.2905  -29.6758   24.1267 H   0  0  0  0  0  0
  -27.4028  -29.7224   25.4700 H   0  0  0  0  0  0
  -27.8769  -30.4225   23.9430 H   0  0  0  0  0  0
  -27.2647  -33.3625   26.2101 H   0  0  0  0  0  0
  -28.3838  -32.6961   25.0353 H   0  0  0  0  0  0
  -28.0798  -31.8539   26.5426 H   0  0  0  0  0  0
  -28.2605  -38.0099   24.7495 H   0  0  0  0  0  0
  -28.1050  -36.2636   24.6300 H   0  0  0  0  0  0
  -27.2324  -37.1465   25.8888 H   0  0  0  0  0  0
  -20.9501  -29.8745   21.6923 H   0  0  0  0  0  0
  -26.0181  -38.2883   24.1386 H   0  0  0  0  0  0
  -29.5837  -24.3509   18.7841 H   0  0  0  0  0  0
  -27.1165  -23.2898   22.0715 H   0  0  0  0  0  0
  -30.8480  -15.6281   24.9407 H   0  0  0  0  0  0
  -32.2277  -15.1324   23.9649 H   0  0  0  0  0  0
  -32.2070  -17.0250   22.7483 H   0  0  0  0  0  0
  -30.9651  -17.6877   23.8212 H   0  0  0  0  0  0
  -29.3242  -14.5695   23.5795 H   0  0  0  0  0  0
  -30.7071  -13.6018   23.0882 H   0  0  0  0  0  0
  -28.3425  -18.7699   21.5567 H   0  0  0  0  0  0
  -28.2805  -17.8852   20.0746 H   0  0  0  0  0  0
  -30.5680  -19.3962   18.1319 H   0  0  0  0  0  0
  -31.3148  -20.0477   19.5971 H   0  0  0  0  0  0
  -30.7303  -18.6740   21.6090 H   0  0  0  0  0  0
  -29.2114  -16.8332   22.5425 H   0  0  0  0  0  0
  -30.3584  -17.1959   19.0135 H   0  0  0  0  0  0
  -29.9760  -22.7942   17.1259 H   0  0  0  0  0  0
  -31.0566  -21.6388   17.8689 H   0  0  0  0  0  0
  -29.4461  -21.1418   17.2759 H   0  0  0  0  0  0
  -27.5873  -20.2671   22.6467 H   0  0  0  0  0  0
  -26.6185  -19.9442   21.1709 H   0  0  0  0  0  0
  -26.2103  -21.2647   22.2437 H   0  0  0  0  0  0
  -29.1203  -25.6477   21.7217 H   0  0  0  0  0  0
  -27.3899  -25.5547   21.6591 H   0  0  0  0  0  0
  -32.8236  -18.0313   20.3848 H   0  0  0  0  0  0
  -32.7371  -17.6896   18.7823 H   0  0  0  0  0  0
  -32.3679  -16.5329   19.8579 H   0  0  0  0  0  0
  1 25  1  0  0  0
  1 30  2  0  0  0
  1 89  1  0  0  0
  2  3  1  0  0  0
  2 25  1  0  0  0
  2 91  1  0  0  0
  2 92  1  0  0  0
  3  4  1  0  0  0
  3 93  1  0  0  0
  3 94  1  0  0  0
  4  5  1  0  0  0
  4 95  1  0  0  0
  4 96  1  0  0  0
  5  6  1  0  0  0
  5 26  1  0  0  0
  5 97  1  0  0  0
  6 25  1  0  0  0
  6 98  1  0  0  0
  6 99  1  0  0  0
  7  8  2  0  0  0
  7 26  1  0  0  0
  7 29  1  0  0  0
  8  9  1  0  0  0
  8 22  1  0  0  0
  9 10  1  0  0  0
  9 27  2  0  0  0
 10 11  2  0  0  0
 10 15  1  0  0  0
 11 12  1  0  0  0
 11100  1  0  0  0
 12 13  2  0  0  0
 12101  1  0  0  0
 13 14  1  0  0  0
 13 31  1  0  0  0
 14 15  2  0  0  0
 14102  1  0  0  0
 15103  1  0  0  0
 16 17  2  0  0  0
 16 21  1  0  0  0
 16 31  1  0  0  0
 17 18  1  0  0  0
 17104  1  0  0  0
 18 19  2  0  0  0
 18105  1  0  0  0
 19 20  1  0  0  0
 19 24  1  0  0  0
 20 21  2  0  0  0
 20106  1  0  0  0
 21 23  1  0  0  0
 22 28  1  0  0  0
 22 32  2  0  0  0
 26 27  1  0  0  0
 28107  1  0  0  0
 28108  1  0  0  0
 29109  1  0  0  0
 29110  1  0  0  0
 33 34  1  0  0  0
 33 66  1  0  0  0
 33 70  2  0  0  0
 34 36  1  0  0  0
 34 59  1  0  0  0
 34111  1  0  0  0
 35 44  2  0  0  0
 35 45  1  0  0  0
 35 68  1  0  0  0
 36 56  1  0  0  0
 36112  1  0  0  0
 37 39  1  0  0  0
 37 47  1  0  0  0
 37 66  1  0  0  0
 37113  1  0  0  0
 38 43  2  0  0  0
 38 46  1  0  0  0
 38 47  1  0  0  0
 39 64  1  0  0  0
 39 67  2  0  0  0
 40 52  1  0  0  0
 40 53  2  0  0  0
 40 58  1  0  0  0
 41114  1  0  0  0
 41115  1  0  0  0
 41116  1  0  0  0
 41 48  1  0  0  0
 42 43  1  0  0  0
 42 66  1  0  0  0
 42117  1  0  0  0
 42118  1  0  0  0
 43 44  1  0  0  0
 44119  1  0  0  0
 45 46  2  0  0  0
 45120  1  0  0  0
 46121  1  0  0  0
 47122  1  0  0  0
 47123  1  0  0  0
 48 56  1  0  0  0
 48 65  1  0  0  0
 48124  1  0  0  0
 49 50  1  0  0  0
 49 53  1  0  0  0
 49 64  1  0  0  0
 49125  1  0  0  0
 50 51  1  0  0  0
 50126  1  0  0  0
 50127  1  0  0  0
 51 52  1  0  0  0
 51128  1  0  0  0
 51129  1  0  0  0
 52130  1  0  0  0
 52131  1  0  0  0
 53 54  1  0  0  0
 54 55  2  0  0  0
 54132  1  0  0  0
 55 57  1  0  0  0
 55133  1  0  0  0
 56 69  2  0  0  0
 57 58  2  0  0  0
 57134  1  0  0  0
 58135  1  0  0  0
 59 60  1  0  0  0
 59 61  1  0  0  0
 59 62  1  0  0  0
 60136  1  0  0  0
 60137  1  0  0  0
 60138  1  0  0  0
 61139  1  0  0  0
 61140  1  0  0  0
 61141  1  0  0  0
 62142  1  0  0  0
 62143  1  0  0  0
 62144  1  0  0  0
 63 65  1  0  0  0
 63145  1  0  0  0
 63146  1  0  0  0
 63147  1  0  0  0
 64148  1  0  0  0
 65149  1  0  0  0
 68 87  1  0  0  0
 71 73  2  0  0  0
 71 74  1  0  0  0
 71150  1  0  0  0
 72 73  1  0  0  0
 72 75  2  0  0  0
 72151  1  0  0  0
 73 87  1  0  0  0
 74 76  2  0  0  0
 74 85  1  0  0  0
 75 76  1  0  0  0
 75 86  1  0  0  0
 76 88  1  0  0  0
 77 78  1  0  0  0
 77 79  1  0  0  0
 77152  1  0  0  0
 77153  1  0  0  0
 78154  1  0  0  0
 78155  1  0  0  0
 78 83  1  0  0  0
 79 89  1  0  0  0
 79156  1  0  0  0
 79157  1  0  0  0
 80 88  1  0  0  0
 80158  1  0  0  0
 80159  1  0  0  0
 80 82  1  0  0  0
 81 84  1  0  0  0
 81 88  1  0  0  0
 81160  1  0  0  0
 81161  1  0  0  0
 82 83  1  0  0  0
 82 84  1  0  0  0
 82162  1  0  0  0
 83 89  1  0  0  0
 83163  1  0  0  0
 84 90  1  0  0  0
 84164  1  0  0  0
 85165  1  0  0  0
 85166  1  0  0  0
 85167  1  0  0  0
 86168  1  0  0  0
 86169  1  0  0  0
 86170  1  0  0  0
 87171  1  0  0  0
 87172  1  0  0  0
 90173  1  0  0  0
 90174  1  0  0  0
 90175  1  0  0  0
M  CHG  1  90   1
M  ISO  4   1 100  68 101  87 101  89 100
M  END
> <chiral flag>
0

> <version>
0

> <s_m_source_file>
/data/baiqing/PycharmProjects/Reinvent-master-3.2/result/LINK_invent/BTK/process_docking_weight1_custom_sum_contain_oxygen_bond_distance_aromatic_linkinvent_7_9_3/rearranged_h_0162.sdf

> <i_m_source_file_index>
88

> <r_mmod_Potential_Energy-OPLS-2005>
233.936737060547

> <r_mmod_Stretch_Energy-OPLS-2005>
72.233757019043

> <r_mmod_Bend_Energy-OPLS-2005>
286.896240234375

> <r_mmod_Torsional_Energy-OPLS-2005>
440.859985351562

> <r_mmod_Improper_Torsional_Energy-OPLS-2005>
8.55455303192139

> <r_mmod_Van_der_Waal_Energy-OPLS-2005>
170.381530761719

> <r_mmod_Electrostatic_Energy-OPLS-2005>
-339.634704589844

> <r_mmod_Solvation_Energy-OPLS-2005>
-430.550201416016

> <b_mmod_Minimization_Converged-OPLS-2005>
0

> <r_mmod_RMS_Derivative-OPLS-2005>
6.51895570755005

$$$$
89
                    3D
 Structure written by MMmdl.
172183  0  0  1  0            999 V2000
  -29.0796  -16.1890   20.6814 C   0  0  0  0  0  0
  -30.1297  -13.6678   19.7238 C   0  0  0  0  0  0
  -29.5104  -12.8918   18.4895 C   0  0  0  0  0  0
  -28.1349  -12.3066   18.8320 C   0  0  0  0  0  0
  -27.4485  -13.2720   19.8112 C   0  0  2  0  0  0
  -28.2674  -13.6591   21.0368 C   0  0  0  0  0  0
  -25.1567  -13.8015   20.5612 C   0  0  0  0  0  0
  -24.1117  -13.0206   20.9295 C   0  0  0  0  0  0
  -24.5859  -11.6726   20.8767 C   0  0  0  0  0  0
  -23.8742  -10.4134   21.0468 C   0  0  0  0  0  0
  -24.3440   -9.4113   21.9221 C   0  0  0  0  0  0
  -23.6196   -8.2118   22.0757 C   0  0  0  0  0  0
  -22.4183   -8.0147   21.3541 C   0  0  0  0  0  0
  -21.9742   -9.0072   20.4640 C   0  0  0  0  0  0
  -22.6978  -10.1975   20.3069 C   0  0  0  0  0  0
  -21.6808   -6.0662   22.5293 C   0  0  0  0  0  0
  -21.3983   -6.5598   23.8216 C   0  0  0  0  0  0
  -21.3652   -5.6768   24.9190 C   0  0  0  0  0  0
  -21.6044   -4.3029   24.7251 C   0  0  0  0  0  0
  -21.8824   -3.8104   23.4380 C   0  0  0  0  0  0
  -21.9181   -4.6903   22.3427 C   0  0  0  0  0  0
  -22.7259  -13.5051   21.2061 C   0  0  0  0  0  0
  -22.1657   -4.2094   21.1003 F   0  0  0  0  0  0
  -21.5636   -3.4525   25.7771 F   0  0  0  0  0  0
  -29.1338  -14.6698   20.4778 N   0  0  0  0  0  0
  -26.1626  -12.9132   20.2651 N   0  0  0  0  0  0
  -25.8640  -11.6297   20.5405 N   0  0  0  0  0  0
  -21.9990  -12.8055   22.0665 N   0  0  0  0  0  0
  -25.3308  -15.1777   20.4296 N   0  0  0  0  0  0
  -30.3498  -16.3202   20.4941 O   0  0  0  0  0  0
  -21.6572   -6.8756   21.4238 O   0  0  0  0  0  0
  -22.3019  -14.5403   20.6923 O   0  0  0  0  0  0
  -24.6633  -31.9245   23.2039 C   0  0  0  0  0  0
  -25.9454  -32.5030   23.8532 C   0  0  1  0  0  0
  -27.0155  -27.3317   20.1894 C   0  0  0  0  0  0
  -25.6272  -33.8771   24.2523 N   0  0  0  0  0  0
  -23.4709  -30.6075   21.5257 C   0  0  2  0  0  0
  -24.8594  -29.0795   20.0161 C   0  0  0  0  0  0
  -22.9805  -29.5448   22.4978 C   0  0  0  0  0  0
  -18.5267  -27.2154   23.1229 C   0  0  0  0  0  0
  -24.1514  -36.7362   23.2604 C   0  0  0  0  0  0
  -25.9973  -30.8527   21.3727 C   0  0  0  0  0  0
  -26.0220  -29.4980   20.6813 C   0  0  0  0  0  0
  -27.1329  -28.6241   20.7643 C   0  0  0  0  0  0
  -25.9579  -27.0273   19.3259 C   0  0  0  0  0  0
  -24.8387  -27.8688   19.3008 C   0  0  0  0  0  0
  -23.6578  -29.9939   20.1118 C   0  0  0  0  0  0
  -25.4117  -36.3185   24.0339 C   0  0  1  0  0  0
  -21.3442  -27.9210   22.8358 C   0  0  2  0  0  0
  -21.9564  -26.9156   21.1173 C   0  0  0  0  0  0
  -20.2644  -25.4363   20.6022 C   0  0  0  0  0  0
  -18.8166  -25.6868   22.1056 C   0  0  0  0  0  0
  -19.6809  -28.1583   23.4794 C   0  0  0  0  0  0
  -19.3007  -29.5104   23.9563 C   0  0  0  0  0  0
  -17.9799  -30.0564   24.0206 C   0  0  0  0  0  0
  -25.9111  -34.9582   23.5155 C   0  0  0  0  0  0
  -16.9163  -29.2339   23.6243 C   0  0  0  0  0  0
  -17.1981  -27.8800   23.2116 C   0  0  0  0  0  0
  -26.4600  -31.6633   25.0841 C   0  0  0  0  0  0
  -25.3738  -31.3754   26.1469 C   0  0  0  0  0  0
  -27.0429  -30.3065   24.6241 C   0  0  0  0  0  0
  -27.6143  -32.4254   25.7747 C   0  0  0  0  0  0
  -27.5600  -37.1874   24.8458 C   0  0  0  0  0  0
  -21.7110  -29.2567   22.4803 N   0  0  0  0  0  0
  -26.4275  -37.3890   23.9454 N   0  0  0  0  0  0
  -24.7305  -31.1734   22.0683 N   0  0  0  0  0  0
  -23.7531  -28.9693   23.2546 O   0  0  0  0  0  0
  -27.3640  -26.2259   20.9091 O   0  0  0  0  0  0
  -26.5524  -34.8987   22.4623 O   0  0  0  0  0  0
  -23.5769  -32.1858   23.7465 O   0  0  0  0  0  0
  -23.5451  -22.9813   22.0345 C   0  0  0  0  0  0
  -21.9756  -23.7627   22.1986 C   0  0  0  0  0  0
  -23.9588  -24.3109   22.3487 C   0  0  0  0  0  0
  -21.3915  -25.2960   22.5627 C   0  0  0  0  0  0
  -19.3428  -28.9862   20.9045 C   0  0  0  0  0  0
  -18.5010  -27.8160   20.3613 C   0  0  0  0  0  0
  -25.0599  -25.2592   24.1176 C   0  0  0  0  0  0
  -25.7112  -20.1418   20.4270 C   0  0  0  0  0  0
  -26.2276  -20.1744   22.3709 C   0  0  0  0  0  0
  -23.6009  -25.8168   24.1015 C   0  0  0  0  0  0
  -26.7115  -18.4888   20.1758 C   0  0  0  0  0  0
  -27.2136  -18.5135   22.1626 C   0  0  0  0  0  0
  -24.7397  -21.0823   21.7107 C   0  0  0  0  0  0
  -19.8377  -27.5160   21.1090 C   0  0  0  0  0  0
  -25.4233  -24.8149   22.6786 C   0  0  2  0  0  0
  -20.9079  -22.6819   22.0674 C   0  0  0  0  0  0
  -26.2674  -26.0725   21.9914 C   0  0  0  0  0  0
  -22.8922  -25.1937   22.9750 N   0  0  0  0  0  0
  -27.8456  -17.4446   20.9625 N   0  0  0  0  0  0
  -30.9892  -14.2285   19.3548 H   0  0  0  0  0  0
  -30.5714  -12.9570   20.4240 H   0  0  0  0  0  0
  -30.1880  -12.1147   18.1307 H   0  0  0  0  0  0
  -29.3938  -13.5977   17.6674 H   0  0  0  0  0  0
  -28.2631  -11.3300   19.3033 H   0  0  0  0  0  0
  -27.5380  -12.1519   17.9346 H   0  0  0  0  0  0
  -27.2722  -14.1526   19.1874 H   0  0  0  0  0  0
  -28.7485  -12.8082   21.5226 H   0  0  0  0  0  0
  -27.6569  -14.1380   21.8040 H   0  0  0  0  0  0
  -25.2586   -9.5658   22.4779 H   0  0  0  0  0  0
  -23.9936   -7.4513   22.7459 H   0  0  0  0  0  0
  -21.0679   -8.8537   19.8950 H   0  0  0  0  0  0
  -22.3417  -10.9512   19.6187 H   0  0  0  0  0  0
  -21.1963   -7.6106   23.9702 H   0  0  0  0  0  0
  -21.1476   -6.0507   25.9091 H   0  0  0  0  0  0
  -22.0617   -2.7565   23.2895 H   0  0  0  0  0  0
  -22.3635  -11.9702   22.4986 H   0  0  0  0  0  0
  -21.0648  -13.1104   22.2983 H   0  0  0  0  0  0
  -24.5712  -15.8264   20.6038 H   0  0  0  0  0  0
  -26.1643  -15.6289   20.0799 H   0  0  0  0  0  0
  -26.7578  -32.5668   23.1333 H   0  0  0  0  0  0
  -25.0598  -33.9936   25.0796 H   0  0  0  0  0  0
  -22.7182  -31.3953   21.4601 H   0  0  0  0  0  0
  -23.3785  -35.9684   23.3236 H   0  0  0  0  0  0
  -24.3643  -36.9010   22.2030 H   0  0  0  0  0  0
  -23.7235  -37.6546   23.6624 H   0  0  0  0  0  0
  -26.1828  -31.6298   20.6292 H   0  0  0  0  0  0
  -26.8591  -30.8441   22.0274 H   0  0  0  0  0  0
  -27.9443  -28.8445   21.4431 H   0  0  0  0  0  0
  -25.8717  -26.0408   18.8940 H   0  0  0  0  0  0
  -23.9577  -27.5659   18.7525 H   0  0  0  0  0  0
  -23.8251  -30.8074   19.4021 H   0  0  0  0  0  0
  -22.7485  -29.5157   19.7605 H   0  0  0  0  0  0
  -25.1266  -36.2033   25.0824 H   0  0  0  0  0  0
  -21.8350  -27.5927   23.7411 H   0  0  0  0  0  0
  -22.9781  -26.5386   21.0955 H   0  0  0  0  0  0
  -22.1548  -27.5995   20.2985 H   0  0  0  0  0  0
  -20.5791  -24.4458   20.3191 H   0  0  0  0  0  0
  -19.8278  -25.6519   19.6213 H   0  0  0  0  0  0
  -17.8559  -25.4389   21.6500 H   0  0  0  0  0  0
  -18.9308  -24.8873   22.8368 H   0  0  0  0  0  0
  -20.0971  -30.2018   24.1844 H   0  0  0  0  0  0
  -17.8068  -31.0768   24.3338 H   0  0  0  0  0  0
  -15.8992  -29.6009   23.6376 H   0  0  0  0  0  0
  -16.3465  -27.3072   22.8701 H   0  0  0  0  0  0
  -24.5943  -30.7117   25.7724 H   0  0  0  0  0  0
  -24.8914  -32.2920   26.4870 H   0  0  0  0  0  0
  -25.7975  -30.8925   27.0286 H   0  0  0  0  0  0
  -26.3067  -29.6896   24.1083 H   0  0  0  0  0  0
  -27.3976  -29.7225   25.4750 H   0  0  0  0  0  0
  -27.9009  -30.4393   23.9635 H   0  0  0  0  0  0
  -27.2764  -33.3525   26.2388 H   0  0  0  0  0  0
  -28.4013  -32.6832   25.0654 H   0  0  0  0  0  0
  -28.0711  -31.8279   26.5648 H   0  0  0  0  0  0
  -28.2548  -38.0243   24.7601 H   0  0  0  0  0  0
  -28.1159  -36.2780   24.6135 H   0  0  0  0  0  0
  -27.2359  -37.1364   25.8868 H   0  0  0  0  0  0
  -21.0733  -29.7857   21.9002 H   0  0  0  0  0  0
  -26.0140  -38.2940   24.1531 H   0  0  0  0  0  0
  -18.7471  -29.5931   21.5664 H   0  0  0  0  0  0
  -19.8852  -29.5980   20.1800 H   0  0  0  0  0  0
  -18.4545  -27.6995   19.2752 H   0  0  0  0  0  0
  -17.5287  -27.6609   20.8046 H   0  0  0  0  0  0
  -25.0667  -24.3728   24.7551 H   0  0  0  0  0  0
  -25.7737  -25.9463   24.5759 H   0  0  0  0  0  0
  -24.9970  -20.0901   19.6052 H   0  0  0  0  0  0
  -26.4122  -20.8940   20.0515 H   0  0  0  0  0  0
  -27.0233  -20.9243   22.2981 H   0  0  0  0  0  0
  -26.0264  -20.1751   23.4413 H   0  0  0  0  0  0
  -23.6886  -26.8762   23.9969 H   0  0  0  0  0  0
  -23.0837  -25.6235   25.0408 H   0  0  0  0  0  0
  -27.1992  -18.6438   19.2110 H   0  0  0  0  0  0
  -25.9201  -17.7846   19.9288 H   0  0  0  0  0  0
  -26.6110  -17.8141   22.7432 H   0  0  0  0  0  0
  -28.0883  -18.6648   22.7948 H   0  0  0  0  0  0
  -23.9200  -20.4009   21.9377 H   0  0  0  0  0  0
  -20.2333  -27.6106   20.0808 H   0  0  0  0  0  0
  -26.1078  -23.9672   22.7337 H   0  0  0  0  0  0
  -21.3434  -21.6991   22.2654 H   0  0  0  0  0  0
  -20.4680  -22.5940   21.0791 H   0  0  0  0  0  0
  -20.1107  -22.8286   22.7917 H   0  0  0  0  0  0
  -26.8680  -26.4631   22.8140 H   0  0  0  0  0  0
  -25.4985  -26.8380   21.8959 H   0  0  0  0  0  0
  1 25  1  0  0  0
  1 30  2  0  0  0
  1 89  1  0  0  0
  2  3  1  0  0  0
  2 25  1  0  0  0
  2 90  1  0  0  0
  2 91  1  0  0  0
  3  4  1  0  0  0
  3 92  1  0  0  0
  3 93  1  0  0  0
  4  5  1  0  0  0
  4 94  1  0  0  0
  4 95  1  0  0  0
  5  6  1  0  0  0
  5 26  1  0  0  0
  5 96  1  0  0  0
  6 25  1  0  0  0
  6 97  1  0  0  0
  6 98  1  0  0  0
  7  8  2  0  0  0
  7 26  1  0  0  0
  7 29  1  0  0  0
  8  9  1  0  0  0
  8 22  1  0  0  0
  9 10  1  0  0  0
  9 27  2  0  0  0
 10 11  2  0  0  0
 10 15  1  0  0  0
 11 12  1  0  0  0
 11 99  1  0  0  0
 12 13  2  0  0  0
 12100  1  0  0  0
 13 14  1  0  0  0
 13 31  1  0  0  0
 14 15  2  0  0  0
 14101  1  0  0  0
 15102  1  0  0  0
 16 17  2  0  0  0
 16 21  1  0  0  0
 16 31  1  0  0  0
 17 18  1  0  0  0
 17103  1  0  0  0
 18 19  2  0  0  0
 18104  1  0  0  0
 19 20  1  0  0  0
 19 24  1  0  0  0
 20 21  2  0  0  0
 20105  1  0  0  0
 21 23  1  0  0  0
 22 28  1  0  0  0
 22 32  2  0  0  0
 26 27  1  0  0  0
 28106  1  0  0  0
 28107  1  0  0  0
 29108  1  0  0  0
 29109  1  0  0  0
 33 34  1  0  0  0
 33 66  1  0  0  0
 33 70  2  0  0  0
 34 36  1  0  0  0
 34 59  1  0  0  0
 34110  1  0  0  0
 35 44  2  0  0  0
 35 45  1  0  0  0
 35 68  1  0  0  0
 36 56  1  0  0  0
 36111  1  0  0  0
 37 39  1  0  0  0
 37 47  1  0  0  0
 37 66  1  0  0  0
 37112  1  0  0  0
 38 43  2  0  0  0
 38 46  1  0  0  0
 38 47  1  0  0  0
 39 64  1  0  0  0
 39 67  2  0  0  0
 40 52  1  0  0  0
 40 53  2  0  0  0
 40 58  1  0  0  0
 41113  1  0  0  0
 41114  1  0  0  0
 41115  1  0  0  0
 41 48  1  0  0  0
 42 43  1  0  0  0
 42 66  1  0  0  0
 42116  1  0  0  0
 42117  1  0  0  0
 43 44  1  0  0  0
 44118  1  0  0  0
 45 46  2  0  0  0
 45119  1  0  0  0
 46120  1  0  0  0
 47121  1  0  0  0
 47122  1  0  0  0
 48 56  1  0  0  0
 48 65  1  0  0  0
 48123  1  0  0  0
 49 50  1  0  0  0
 49 53  1  0  0  0
 49 64  1  0  0  0
 49124  1  0  0  0
 50 51  1  0  0  0
 50125  1  0  0  0
 50126  1  0  0  0
 51 52  1  0  0  0
 51127  1  0  0  0
 51128  1  0  0  0
 52129  1  0  0  0
 52130  1  0  0  0
 53 54  1  0  0  0
 54 55  2  0  0  0
 54131  1  0  0  0
 55 57  1  0  0  0
 55132  1  0  0  0
 56 69  2  0  0  0
 57 58  2  0  0  0
 57133  1  0  0  0
 58134  1  0  0  0
 59 60  1  0  0  0
 59 61  1  0  0  0
 59 62  1  0  0  0
 60135  1  0  0  0
 60136  1  0  0  0
 60137  1  0  0  0
 61138  1  0  0  0
 61139  1  0  0  0
 61140  1  0  0  0
 62141  1  0  0  0
 62142  1  0  0  0
 62143  1  0  0  0
 63 65  1  0  0  0
 63144  1  0  0  0
 63145  1  0  0  0
 63146  1  0  0  0
 64147  1  0  0  0
 65148  1  0  0  0
 68 87  1  0  0  0
 71 72  1  0  0  0
 71 73  2  0  0  0
 71 83  1  0  0  0
 72 74  2  0  0  0
 72 86  1  0  0  0
 73 85  1  0  0  0
 73 88  1  0  0  0
 74 88  1  0  0  0
 74 84  1  0  0  0
 75 76  1  0  0  0
 75 84  1  0  0  0
 75149  1  0  0  0
 75150  1  0  0  0
 76 84  1  0  0  0
 76151  1  0  0  0
 76152  1  0  0  0
 77 80  1  0  0  0
 77 85  1  0  0  0
 77153  1  0  0  0
 77154  1  0  0  0
 78 81  1  0  0  0
 78 83  1  0  0  0
 78155  1  0  0  0
 78156  1  0  0  0
 79 82  1  0  0  0
 79 83  1  0  0  0
 79157  1  0  0  0
 79158  1  0  0  0
 80 88  1  0  0  0
 80159  1  0  0  0
 80160  1  0  0  0
 81 89  1  0  0  0
 81161  1  0  0  0
 81162  1  0  0  0
 82 89  1  0  0  0
 82163  1  0  0  0
 82164  1  0  0  0
 83165  1  0  0  0
 84166  1  0  0  0
 85 87  1  0  0  0
 85167  1  0  0  0
 86168  1  0  0  0
 86169  1  0  0  0
 86170  1  0  0  0
 87171  1  0  0  0
 87172  1  0  0  0
M  ISO  4   1 100  68 101  87 101  89 100
M  END
> <chiral flag>
0

> <version>
0

> <s_m_source_file>
/data/baiqing/PycharmProjects/Reinvent-master-3.2/result/LINK_invent/BTK/process_docking_weight1_custom_sum_contain_oxygen_bond_distance_aromatic_linkinvent_7_9_3/rearranged_h_0162.sdf

> <i_m_source_file_index>
89

> <r_mmod_Potential_Energy-OPLS-2005>
15306.890625

> <r_mmod_Stretch_Energy-OPLS-2005>
7569.248046875

> <r_mmod_Bend_Energy-OPLS-2005>
2189.68188476562

> <r_mmod_Torsional_Energy-OPLS-2005>
726.126525878906

> <r_mmod_Improper_Torsional_Energy-OPLS-2005>
60.6433753967285

> <r_mmod_Van_der_Waal_Energy-OPLS-2005>
1925.228515625

> <r_mmod_Electrostatic_Energy-OPLS-2005>
-338.793243408203

> <r_mmod_Solvation_Energy-OPLS-2005>
-199.987167358398

> <b_mmod_Minimization_Converged-OPLS-2005>
0

> <r_mmod_RMS_Derivative-OPLS-2005>
7.91940546035767

$$$$
90
                    3D
 Structure written by MMmdl.
164173  0  0  1  0            999 V2000
  -30.7454  -14.5007   20.5769 C   0  0  0  0  0  0
  -30.4138  -12.3280   19.4346 C   0  0  0  0  0  0
  -29.4986  -12.5093   18.2097 C   0  0  0  0  0  0
  -28.0189  -12.3777   18.6129 C   0  0  0  0  0  0
  -27.6580  -13.2263   19.8628 C   0  0  2  0  0  0
  -28.7011  -13.0466   20.9878 C   0  0  0  0  0  0
  -25.2548  -13.8195   20.5701 C   0  0  0  0  0  0
  -24.1812  -13.0455   20.9180 C   0  0  0  0  0  0
  -24.6394  -11.6910   20.8708 C   0  0  0  0  0  0
  -23.9070  -10.4280   21.0363 C   0  0  0  0  0  0
  -24.3602   -9.4189   21.9170 C   0  0  0  0  0  0
  -23.6268   -8.2251   22.0768 C   0  0  0  0  0  0
  -22.4243   -8.0286   21.3561 C   0  0  0  0  0  0
  -21.9866   -9.0247   20.4649 C   0  0  0  0  0  0
  -22.7219  -10.2117   20.3038 C   0  0  0  0  0  0
  -21.6870   -6.0709   22.5273 C   0  0  0  0  0  0
  -21.4008   -6.5624   23.8198 C   0  0  0  0  0  0
  -21.3663   -5.6781   24.9168 C   0  0  0  0  0  0
  -21.6045   -4.3036   24.7206 C   0  0  0  0  0  0
  -21.8828   -3.8112   23.4339 C   0  0  0  0  0  0
  -21.9190   -4.6936   22.3392 C   0  0  0  0  0  0
  -22.7824  -13.5226   21.1825 C   0  0  0  0  0  0
  -22.1655   -4.2126   21.0974 F   0  0  0  0  0  0
  -21.5645   -3.4526   25.7714 F   0  0  0  0  0  0
  -30.0359  -13.3413   20.4355 N   0  0  0  0  0  0
  -26.3014  -12.9422   20.3307 N   0  0  0  0  0  0
  -25.9325  -11.6555   20.5689 N   0  0  0  0  0  0
  -22.0430  -12.8249   22.0366 N   0  0  0  0  0  0
  -25.4241  -15.1949   20.4152 N   0  0  0  0  0  0
  -31.8639  -14.6534   20.0840 O   0  0  0  0  0  0
  -21.6627   -6.8863   21.4241 O   0  0  0  0  0  0
  -22.3508  -14.5520   20.6623 O   0  0  0  0  0  0
  -24.6208  -31.8593   23.2028 C   0  0  0  0  0  0
  -25.9060  -32.4804   23.8337 C   0  0  1  0  0  0
  -27.2486  -27.3742   20.1127 C   0  0  0  0  0  0
  -25.5888  -33.8603   24.2310 N   0  0  0  0  0  0
  -23.4116  -30.4816   21.5424 C   0  0  2  0  0  0
  -24.8614  -28.9187   20.1291 C   0  0  0  0  0  0
  -22.7422  -29.4635   22.4951 C   0  0  0  0  0  0
  -18.0264  -28.1374   22.8485 C   0  0  0  0  0  0
  -24.1478  -36.7313   23.2643 C   0  0  0  0  0  0
  -25.9459  -30.8035   21.3632 C   0  0  0  0  0  0
  -26.0232  -29.4260   20.7270 C   0  0  0  0  0  0
  -27.2215  -28.6646   20.7068 C   0  0  0  0  0  0
  -26.0651  -26.8863   19.5187 C   0  0  0  0  0  0
  -24.8774  -27.6476   19.5294 C   0  0  0  0  0  0
  -23.6282  -29.7969   20.1665 C   0  0  0  0  0  0
  -25.4105  -36.3135   24.0346 C   0  0  1  0  0  0
  -20.5864  -28.3664   23.1287 C   0  0  2  0  0  0
  -20.6772  -26.9383   22.5404 C   0  0  0  0  0  0
  -19.5754  -26.6383   21.5181 C   0  0  0  0  0  0
  -18.1930  -26.7925   22.1591 C   0  0  0  0  0  0
  -19.1513  -28.8822   23.2906 C   0  0  0  0  0  0
  -18.9456  -30.1434   23.8909 C   0  0  0  0  0  0
  -17.6460  -30.6585   24.0554 C   0  0  0  0  0  0
  -25.9016  -34.9482   23.5142 C   0  0  0  0  0  0
  -16.5347  -29.9080   23.6334 C   0  0  0  0  0  0
  -16.7264  -28.6501   23.0354 C   0  0  0  0  0  0
  -26.4459  -31.6585   25.0675 C   0  0  0  0  0  0
  -25.3725  -31.3657   26.1423 C   0  0  0  0  0  0
  -27.0275  -30.3042   24.6034 C   0  0  0  0  0  0
  -27.6065  -32.4253   25.7432 C   0  0  0  0  0  0
  -27.5589  -37.1826   24.8469 C   0  0  0  0  0  0
  -21.4134  -29.3023   22.3675 N   0  0  0  0  0  0
  -26.4313  -37.3808   23.9403 N   0  0  0  0  0  0
  -24.6783  -31.0656   22.0953 N   0  0  0  0  0  0
  -23.4172  -28.8186   23.3002 O   0  0  0  0  0  0
  -28.4391  -26.6780   19.9612 O   0  0  0  0  0  0
  -26.5591  -34.8938   22.4704 O   0  0  0  0  0  0
  -23.5390  -32.1345   23.7415 O   0  0  0  0  0  0
  -28.6354  -21.7325   19.3038 C   0  0  0  0  0  0
  -28.7359  -22.7235   20.3256 C   0  0  0  0  0  0
  -29.1139  -20.4037   19.5442 C   0  0  0  0  0  0
  -29.4155  -22.3096   21.4985 C   0  0  0  0  0  0
  -29.8240  -20.0909   20.7400 C   0  0  0  0  0  0
  -29.7552  -17.9208   22.0075 C   0  0  0  0  0  0
  -30.9962  -17.8067   20.2872 C   0  0  0  0  0  0
  -30.7432  -16.8568   21.4843 C   0  0  0  0  0  0
  -27.9768  -22.0822   17.9643 C   0  0  0  0  0  0
  -28.7840  -19.3141   18.5238 C   0  0  0  0  0  0
  -29.5770  -23.1973   22.7185 C   0  0  0  0  0  0
  -28.0024  -24.1098   20.2006 C   0  0  0  0  0  0
  -28.7041  -25.4333   20.6622 C   0  0  0  0  0  0
  -29.9513  -21.0731   21.6558 N   0  0  0  0  0  0
  -30.4772  -18.8685   21.1600 N   0  0  0  0  0  0
  -30.1375  -15.5302   21.2013 N   0  0  0  0  0  0
  -31.4628  -12.3955   19.1427 H   0  0  0  0  0  0
  -30.2904  -11.3295   19.8557 H   0  0  0  0  0  0
  -29.7430  -11.7764   17.4395 H   0  0  0  0  0  0
  -29.6676  -13.4889   17.7628 H   0  0  0  0  0  0
  -27.8243  -11.3221   18.8053 H   0  0  0  0  0  0
  -27.3739  -12.6574   17.7769 H   0  0  0  0  0  0
  -27.6927  -14.2709   19.5537 H   0  0  0  0  0  0
  -28.6785  -12.0201   21.3586 H   0  0  0  0  0  0
  -28.4523  -13.6753   21.8436 H   0  0  0  0  0  0
  -25.2756   -9.5680   22.4703 H   0  0  0  0  0  0
  -23.9960   -7.4651   22.7502 H   0  0  0  0  0  0
  -21.0795   -8.8772   19.8958 H   0  0  0  0  0  0
  -22.3680  -10.9639   19.6121 H   0  0  0  0  0  0
  -21.2005   -7.6129   23.9703 H   0  0  0  0  0  0
  -21.1492   -6.0503   25.9079 H   0  0  0  0  0  0
  -22.0599   -2.7576   23.2834 H   0  0  0  0  0  0
  -22.4003  -11.9975   22.4847 H   0  0  0  0  0  0
  -21.1063  -13.1305   22.2523 H   0  0  0  0  0  0
  -24.6626  -15.8543   20.5389 H   0  0  0  0  0  0
  -26.2840  -15.6313   20.1121 H   0  0  0  0  0  0
  -26.7107  -32.5510   23.1066 H   0  0  0  0  0  0
  -25.0085  -33.9705   25.0499 H   0  0  0  0  0  0
  -22.7061  -31.3030   21.3910 H   0  0  0  0  0  0
  -23.3755  -35.9635   23.3321 H   0  0  0  0  0  0
  -24.3587  -36.8886   22.2056 H   0  0  0  0  0  0
  -23.7189  -37.6509   23.6615 H   0  0  0  0  0  0
  -26.0556  -31.5542   20.5768 H   0  0  0  0  0  0
  -26.8393  -30.8707   21.9732 H   0  0  0  0  0  0
  -28.1308  -29.0696   21.1326 H   0  0  0  0  0  0
  -26.0663  -25.9303   19.0153 H   0  0  0  0  0  0
  -23.9856  -27.2493   19.0713 H   0  0  0  0  0  0
  -23.7504  -30.5606   19.3980 H   0  0  0  0  0  0
  -22.7508  -29.2165   19.8751 H   0  0  0  0  0  0
  -25.1285  -36.2023   25.0842 H   0  0  0  0  0  0
  -20.9961  -28.3246   24.1398 H   0  0  0  0  0  0
  -20.5618  -26.2256   23.3608 H   0  0  0  0  0  0
  -21.6661  -26.7417   22.1220 H   0  0  0  0  0  0
  -19.6911  -25.6291   21.1221 H   0  0  0  0  0  0
  -19.6724  -27.3197   20.6729 H   0  0  0  0  0  0
  -17.4200  -26.6650   21.3998 H   0  0  0  0  0  0
  -18.0348  -26.0058   22.8990 H   0  0  0  0  0  0
  -19.7941  -30.7250   24.2286 H   0  0  0  0  0  0
  -17.5023  -31.6274   24.5147 H   0  0  0  0  0  0
  -15.5349  -30.2993   23.7655 H   0  0  0  0  0  0
  -15.8671  -28.0837   22.7057 H   0  0  0  0  0  0
  -24.5954  -30.6950   25.7735 H   0  0  0  0  0  0
  -24.8872  -32.2789   26.4883 H   0  0  0  0  0  0
  -25.8103  -30.8834   27.0179 H   0  0  0  0  0  0
  -26.2816  -29.6806   24.1104 H   0  0  0  0  0  0
  -27.4045  -29.7273   25.4480 H   0  0  0  0  0  0
  -27.8637  -30.4337   23.9164 H   0  0  0  0  0  0
  -27.2750  -33.3550   26.2055 H   0  0  0  0  0  0
  -28.3867  -32.6786   25.0244 H   0  0  0  0  0  0
  -28.0719  -31.8323   26.5297 H   0  0  0  0  0  0
  -28.2653  -38.0092   24.7553 H   0  0  0  0  0  0
  -28.1054  -36.2645   24.6290 H   0  0  0  0  0  0
  -27.2314  -37.1466   25.8873 H   0  0  0  0  0  0
  -20.9282  -29.8733   21.6906 H   0  0  0  0  0  0
  -26.0222  -38.2899   24.1389 H   0  0  0  0  0  0
  -28.7147  -17.7830   21.7106 H   0  0  0  0  0  0
  -29.8623  -18.1305   23.0737 H   0  0  0  0  0  0
  -30.4246  -17.5516   19.4054 H   0  0  0  0  0  0
  -32.0563  -17.9291   20.0511 H   0  0  0  0  0  0
  -31.6338  -16.7865   22.1145 H   0  0  0  0  0  0
  -28.3707  -23.0203   17.5732 H   0  0  0  0  0  0
  -26.8983  -22.1638   18.0915 H   0  0  0  0  0  0
  -28.1656  -21.3756   17.1546 H   0  0  0  0  0  0
  -28.6201  -18.3500   19.0016 H   0  0  0  0  0  0
  -29.5731  -19.2356   17.7701 H   0  0  0  0  0  0
  -27.8326  -19.5044   18.0271 H   0  0  0  0  0  0
  -28.6033  -23.5028   23.1062 H   0  0  0  0  0  0
  -30.1683  -24.0778   22.4801 H   0  0  0  0  0  0
  -30.1031  -22.6831   23.5220 H   0  0  0  0  0  0
  -27.0828  -24.0111   20.7799 H   0  0  0  0  0  0
  -27.6668  -24.2674   19.1814 H   0  0  0  0  0  0
  -29.7798  -25.2888   20.5348 H   0  0  0  0  0  0
  -28.5449  -25.5991   21.7249 H   0  0  0  0  0  0
  -29.2201  -15.3580   21.5877 H   0  0  0  0  0  0
  1 25  1  0  0  0
  1 30  2  0  0  0
  1 86  1  0  0  0
  2  3  1  0  0  0
  2 25  1  0  0  0
  2 87  1  0  0  0
  2 88  1  0  0  0
  3  4  1  0  0  0
  3 89  1  0  0  0
  3 90  1  0  0  0
  4  5  1  0  0  0
  4 91  1  0  0  0
  4 92  1  0  0  0
  5  6  1  0  0  0
  5 26  1  0  0  0
  5 93  1  0  0  0
  6 25  1  0  0  0
  6 94  1  0  0  0
  6 95  1  0  0  0
  7  8  2  0  0  0
  7 26  1  0  0  0
  7 29  1  0  0  0
  8  9  1  0  0  0
  8 22  1  0  0  0
  9 10  1  0  0  0
  9 27  2  0  0  0
 10 11  2  0  0  0
 10 15  1  0  0  0
 11 12  1  0  0  0
 11 96  1  0  0  0
 12 13  2  0  0  0
 12 97  1  0  0  0
 13 14  1  0  0  0
 13 31  1  0  0  0
 14 15  2  0  0  0
 14 98  1  0  0  0
 15 99  1  0  0  0
 16 17  2  0  0  0
 16 21  1  0  0  0
 16 31  1  0  0  0
 17 18  1  0  0  0
 17100  1  0  0  0
 18 19  2  0  0  0
 18101  1  0  0  0
 19 20  1  0  0  0
 19 24  1  0  0  0
 20 21  2  0  0  0
 20102  1  0  0  0
 21 23  1  0  0  0
 22 28  1  0  0  0
 22 32  2  0  0  0
 26 27  1  0  0  0
 28103  1  0  0  0
 28104  1  0  0  0
 29105  1  0  0  0
 29106  1  0  0  0
 33 34  1  0  0  0
 33 66  1  0  0  0
 33 70  2  0  0  0
 34 36  1  0  0  0
 34 59  1  0  0  0
 34107  1  0  0  0
 35 44  2  0  0  0
 35 45  1  0  0  0
 35 68  1  0  0  0
 36 56  1  0  0  0
 36108  1  0  0  0
 37 39  1  0  0  0
 37 47  1  0  0  0
 37 66  1  0  0  0
 37109  1  0  0  0
 38 43  2  0  0  0
 38 46  1  0  0  0
 38 47  1  0  0  0
 39 64  1  0  0  0
 39 67  2  0  0  0
 40 52  1  0  0  0
 40 53  2  0  0  0
 40 58  1  0  0  0
 41110  1  0  0  0
 41111  1  0  0  0
 41112  1  0  0  0
 41 48  1  0  0  0
 42 43  1  0  0  0
 42 66  1  0  0  0
 42113  1  0  0  0
 42114  1  0  0  0
 43 44  1  0  0  0
 44115  1  0  0  0
 45 46  2  0  0  0
 45116  1  0  0  0
 46117  1  0  0  0
 47118  1  0  0  0
 47119  1  0  0  0
 48 56  1  0  0  0
 48 65  1  0  0  0
 48120  1  0  0  0
 49 50  1  0  0  0
 49 53  1  0  0  0
 49 64  1  0  0  0
 49121  1  0  0  0
 50 51  1  0  0  0
 50122  1  0  0  0
 50123  1  0  0  0
 51 52  1  0  0  0
 51124  1  0  0  0
 51125  1  0  0  0
 52126  1  0  0  0
 52127  1  0  0  0
 53 54  1  0  0  0
 54 55  2  0  0  0
 54128  1  0  0  0
 55 57  1  0  0  0
 55129  1  0  0  0
 56 69  2  0  0  0
 57 58  2  0  0  0
 57130  1  0  0  0
 58131  1  0  0  0
 59 60  1  0  0  0
 59 61  1  0  0  0
 59 62  1  0  0  0
 60132  1  0  0  0
 60133  1  0  0  0
 60134  1  0  0  0
 61135  1  0  0  0
 61136  1  0  0  0
 61137  1  0  0  0
 62138  1  0  0  0
 62139  1  0  0  0
 62140  1  0  0  0
 63 65  1  0  0  0
 63141  1  0  0  0
 63142  1  0  0  0
 63143  1  0  0  0
 64144  1  0  0  0
 65145  1  0  0  0
 68 83  1  0  0  0
 71 72  2  0  0  0
 71 73  1  0  0  0
 71 79  1  0  0  0
 72 74  1  0  0  0
 72 82  1  0  0  0
 73 75  2  0  0  0
 73 80  1  0  0  0
 74 81  1  0  0  0
 74 84  2  0  0  0
 75 84  1  0  0  0
 75 85  1  0  0  0
 76 78  1  0  0  0
 76 85  1  0  0  0
 76146  1  0  0  0
 76147  1  0  0  0
 77 78  1  0  0  0
 77 85  1  0  0  0
 77148  1  0  0  0
 77149  1  0  0  0
 78 86  1  0  0  0
 78150  1  0  0  0
 79151  1  0  0  0
 79152  1  0  0  0
 79153  1  0  0  0
 80154  1  0  0  0
 80155  1  0  0  0
 80156  1  0  0  0
 81157  1  0  0  0
 81158  1  0  0  0
 81159  1  0  0  0
 82 83  1  0  0  0
 82160  1  0  0  0
 82161  1  0  0  0
 83162  1  0  0  0
 83163  1  0  0  0
 86164  1  0  0  0
M  ISO  4   1 100  68 101  83 101  86 100
M  END
> <chiral flag>
0

> <version>
0

> <s_m_source_file>
/data/baiqing/PycharmProjects/Reinvent-master-3.2/result/LINK_invent/BTK/process_docking_weight1_custom_sum_contain_oxygen_bond_distance_aromatic_linkinvent_7_9_3/rearranged_h_0162.sdf

> <i_m_source_file_index>
90

> <r_mmod_Potential_Energy-OPLS-2005>
-193.094650268555

> <r_mmod_Stretch_Energy-OPLS-2005>
57.3710327148438

> <r_mmod_Bend_Energy-OPLS-2005>
192.91650390625

> <r_mmod_Torsional_Energy-OPLS-2005>
275.012420654297

> <r_mmod_Improper_Torsional_Energy-OPLS-2005>
10.056679725647

> <r_mmod_Van_der_Waal_Energy-OPLS-2005>
157.349700927734

> <r_mmod_Electrostatic_Energy-OPLS-2005>
-649.987854003906

> <r_mmod_Solvation_Energy-OPLS-2005>
-254.934188842773

> <b_mmod_Minimization_Converged-OPLS-2005>
0

> <r_mmod_RMS_Derivative-OPLS-2005>
6.48511600494385

$$$$
91
                    3D
 Structure written by MMmdl.
176185  0  0  1  0            999 V2000
  -30.7256  -14.5091   20.4579 C   0  0  0  0  0  0
  -30.4009  -12.2985   19.4261 C   0  0  0  0  0  0
  -29.4747  -12.4562   18.2028 C   0  0  0  0  0  0
  -27.9976  -12.3373   18.6274 C   0  0  0  0  0  0
  -27.6425  -13.2018   19.8664 C   0  0  2  0  0  0
  -28.7052  -13.0755   20.9833 C   0  0  0  0  0  0
  -25.2530  -13.8116   20.5781 C   0  0  0  0  0  0
  -24.1783  -13.0390   20.9234 C   0  0  0  0  0  0
  -24.6371  -11.6882   20.8820 C   0  0  0  0  0  0
  -23.9079  -10.4268   21.0458 C   0  0  0  0  0  0
  -24.3641   -9.4181   21.9222 C   0  0  0  0  0  0
  -23.6296   -8.2217   22.0784 C   0  0  0  0  0  0
  -22.4268   -8.0288   21.3578 C   0  0  0  0  0  0
  -21.9936   -9.0250   20.4660 C   0  0  0  0  0  0
  -22.7275  -10.2129   20.3075 C   0  0  0  0  0  0
  -21.6844   -6.0742   22.5293 C   0  0  0  0  0  0
  -21.4005   -6.5654   23.8231 C   0  0  0  0  0  0
  -21.3644   -5.6829   24.9199 C   0  0  0  0  0  0
  -21.6040   -4.3090   24.7258 C   0  0  0  0  0  0
  -21.8824   -3.8161   23.4380 C   0  0  0  0  0  0
  -21.9181   -4.6956   22.3433 C   0  0  0  0  0  0
  -22.7820  -13.5186   21.1882 C   0  0  0  0  0  0
  -22.1669   -4.2130   21.1019 F   0  0  0  0  0  0
  -21.5610   -3.4593   25.7785 F   0  0  0  0  0  0
  -30.0216  -13.3451   20.3857 N   0  0  0  0  0  0
  -26.2957  -12.9283   20.3447 N   0  0  0  0  0  0
  -25.9304  -11.6461   20.5891 N   0  0  0  0  0  0
  -22.0504  -12.8115   22.0422 N   0  0  0  0  0  0
  -25.4235  -15.1836   20.4209 N   0  0  0  0  0  0
  -31.9252  -14.5642   20.1844 O   0  0  0  0  0  0
  -21.6626   -6.8888   21.4268 O   0  0  0  0  0  0
  -22.3475  -14.5497   20.6764 O   0  0  0  0  0  0
  -24.6115  -31.8690   23.2120 C   0  0  0  0  0  0
  -25.9017  -32.4832   23.8394 C   0  0  1  0  0  0
  -27.2312  -27.4349   20.1168 C   0  0  0  0  0  0
  -25.5884  -33.8629   24.2330 N   0  0  0  0  0  0
  -23.4018  -30.4928   21.5510 C   0  0  2  0  0  0
  -24.8529  -28.9627   20.1169 C   0  0  0  0  0  0
  -22.7401  -29.4654   22.4974 C   0  0  0  0  0  0
  -18.0277  -28.1373   22.8493 C   0  0  0  0  0  0
  -24.1491  -36.7327   23.2635 C   0  0  0  0  0  0
  -25.9293  -30.8381   21.3634 C   0  0  0  0  0  0
  -26.0088  -29.4676   20.7260 C   0  0  0  0  0  0
  -27.2032  -28.7080   20.7369 C   0  0  0  0  0  0
  -26.0630  -26.9523   19.4934 C   0  0  0  0  0  0
  -24.8730  -27.7012   19.4989 C   0  0  0  0  0  0
  -23.6125  -29.8269   20.1640 C   0  0  0  0  0  0
  -25.4106  -36.3120   24.0333 C   0  0  1  0  0  0
  -20.5872  -28.3661   23.1319 C   0  0  2  0  0  0
  -20.6772  -26.9391   22.5425 C   0  0  0  0  0  0
  -19.5764  -26.6389   21.5211 C   0  0  0  0  0  0
  -18.1938  -26.7925   22.1608 C   0  0  0  0  0  0
  -19.1521  -28.8831   23.2918 C   0  0  0  0  0  0
  -18.9450  -30.1441   23.8928 C   0  0  0  0  0  0
  -17.6451  -30.6585   24.0557 C   0  0  0  0  0  0
  -25.9037  -34.9482   23.5135 C   0  0  0  0  0  0
  -16.5347  -29.9090   23.6314 C   0  0  0  0  0  0
  -16.7263  -28.6498   23.0346 C   0  0  0  0  0  0
  -26.4456  -31.6601   25.0714 C   0  0  0  0  0  0
  -25.3729  -31.3714   26.1464 C   0  0  0  0  0  0
  -27.0260  -30.3041   24.6048 C   0  0  0  0  0  0
  -27.6038  -32.4294   25.7488 C   0  0  0  0  0  0
  -27.5594  -37.1810   24.8453 C   0  0  0  0  0  0
  -21.4128  -29.3029   22.3709 N   0  0  0  0  0  0
  -26.4296  -37.3802   23.9422 N   0  0  0  0  0  0
  -24.6666  -31.0794   22.1025 N   0  0  0  0  0  0
  -23.4177  -28.8185   23.3003 O   0  0  0  0  0  0
  -28.3250  -26.6044   20.0462 O   0  0  0  0  0  0
  -26.5611  -34.8928   22.4701 O   0  0  0  0  0  0
  -23.5309  -32.1419   23.7521 O   0  0  0  0  0  0
  -30.1083  -19.8839   19.4504 C   0  0  0  0  0  0
  -30.7763  -25.4295   19.2219 C   0  0  0  0  0  0
  -30.2570  -24.1871   21.2549 C   0  0  0  0  0  0
  -30.0162  -18.1565   21.2786 C   0  0  0  0  0  0
  -30.5703  -16.7187   21.5223 C   0  0  0  0  0  0
  -29.2626  -16.2241   19.5123 C   0  0  0  0  0  0
  -30.4497  -25.6241   20.7168 C   0  0  2  0  0  0
  -31.2416  -23.9679   19.0505 C   0  0  2  0  0  0
  -31.3361  -23.3994   20.4785 C   0  0  2  0  0  0
  -29.9112  -17.4826   18.8873 C   0  0  2  0  0  0
  -32.5605  -23.8885   18.2692 C   0  0  0  0  0  0
  -31.2550  -17.1716   18.1953 C   0  0  0  0  0  0
  -32.1379  -21.4408   21.8970 C   0  0  0  0  0  0
  -30.0453  -21.0733   20.4392 C   0  0  0  0  0  0
  -29.3670  -26.6990   21.0084 C   0  0  0  0  0  0
  -31.3935  -21.8416   20.6063 C   0  0  1  0  0  0
  -30.0428  -18.5822   19.8665 N   0  0  0  0  0  0
  -30.0228  -15.6612   20.6435 N   0  0  0  0  0  0
  -30.1772  -20.1752   18.2510 O   0  0  0  0  0  0
  -31.4487  -12.3630   19.1209 H   0  0  0  0  0  0
  -30.2781  -11.3113   19.8750 H   0  0  0  0  0  0
  -29.6998  -11.6923   17.4573 H   0  0  0  0  0  0
  -29.6439  -13.4165   17.7151 H   0  0  0  0  0  0
  -27.8066  -11.2862   18.8501 H   0  0  0  0  0  0
  -27.3435  -12.5944   17.7943 H   0  0  0  0  0  0
  -27.6293  -14.2257   19.5175 H   0  0  0  0  0  0
  -28.6919  -12.0776   21.4233 H   0  0  0  0  0  0
  -28.4929  -13.7660   21.7995 H   0  0  0  0  0  0
  -25.2787   -9.5624   22.4802 H   0  0  0  0  0  0
  -23.9992   -7.4601   22.7507 H   0  0  0  0  0  0
  -21.0872   -8.8772   19.8951 H   0  0  0  0  0  0
  -22.3739  -10.9684   19.6188 H   0  0  0  0  0  0
  -21.2031   -7.6164   23.9709 H   0  0  0  0  0  0
  -21.1451   -6.0582   25.9096 H   0  0  0  0  0  0
  -22.0608   -2.7604   23.2909 H   0  0  0  0  0  0
  -22.4157  -11.9710   22.4662 H   0  0  0  0  0  0
  -21.1129  -13.1088   22.2760 H   0  0  0  0  0  0
  -24.6618  -15.8468   20.5358 H   0  0  0  0  0  0
  -26.2874  -15.6181   20.1253 H   0  0  0  0  0  0
  -26.7100  -32.5561   23.1174 H   0  0  0  0  0  0
  -25.0011  -33.9779   25.0456 H   0  0  0  0  0  0
  -22.6901  -31.3093   21.4118 H   0  0  0  0  0  0
  -23.3759  -35.9651   23.3251 H   0  0  0  0  0  0
  -24.3608  -36.8987   22.2061 H   0  0  0  0  0  0
  -23.7229  -37.6509   23.6681 H   0  0  0  0  0  0
  -26.0267  -31.5946   20.5829 H   0  0  0  0  0  0
  -26.8225  -30.9034   21.9740 H   0  0  0  0  0  0
  -28.0858  -29.1039   21.2194 H   0  0  0  0  0  0
  -26.0738  -25.9830   19.0143 H   0  0  0  0  0  0
  -23.9859  -27.3060   19.0232 H   0  0  0  0  0  0
  -23.7173  -30.6013   19.4026 H   0  0  0  0  0  0
  -22.7382  -29.2425   19.8727 H   0  0  0  0  0  0
  -25.1277  -36.1983   25.0821 H   0  0  0  0  0  0
  -20.9970  -28.3228   24.1443 H   0  0  0  0  0  0
  -20.5674  -26.2249   23.3600 H   0  0  0  0  0  0
  -21.6644  -26.7442   22.1226 H   0  0  0  0  0  0
  -19.6935  -25.6306   21.1231 H   0  0  0  0  0  0
  -19.6724  -27.3191   20.6737 H   0  0  0  0  0  0
  -17.4213  -26.6672   21.4013 H   0  0  0  0  0  0
  -18.0342  -26.0059   22.8995 H   0  0  0  0  0  0
  -19.7925  -30.7251   24.2315 H   0  0  0  0  0  0
  -17.5008  -31.6268   24.5148 H   0  0  0  0  0  0
  -15.5342  -30.3002   23.7627 H   0  0  0  0  0  0
  -15.8663  -28.0829   22.7050 H   0  0  0  0  0  0
  -24.5882  -30.7081   25.7810 H   0  0  0  0  0  0
  -24.8939  -32.2869   26.4928 H   0  0  0  0  0  0
  -25.8074  -30.8874   27.0209 H   0  0  0  0  0  0
  -26.2788  -29.6853   24.1063 H   0  0  0  0  0  0
  -27.3991  -29.7226   25.4485 H   0  0  0  0  0  0
  -27.8638  -30.4361   23.9197 H   0  0  0  0  0  0
  -27.2657  -33.3560   26.2128 H   0  0  0  0  0  0
  -28.3826  -32.6893   25.0315 H   0  0  0  0  0  0
  -28.0715  -31.8368   26.5356 H   0  0  0  0  0  0
  -28.2582  -38.0143   24.7544 H   0  0  0  0  0  0
  -28.1115  -36.2669   24.6204 H   0  0  0  0  0  0
  -27.2320  -37.1369   25.8857 H   0  0  0  0  0  0
  -20.9275  -29.8731   21.6930 H   0  0  0  0  0  0
  -26.0176  -38.2872   24.1449 H   0  0  0  0  0  0
  -31.5278  -26.1561   18.9095 H   0  0  0  0  0  0
  -29.9102  -25.5976   18.5818 H   0  0  0  0  0  0
  -29.2518  -23.8260   21.0331 H   0  0  0  0  0  0
  -30.4091  -24.1288   22.3326 H   0  0  0  0  0  0
  -30.6051  -18.8372   21.8919 H   0  0  0  0  0  0
  -28.9903  -18.2252   21.6419 H   0  0  0  0  0  0
  -30.3968  -16.4323   22.5591 H   0  0  0  0  0  0
  -31.6548  -16.7696   21.4048 H   0  0  0  0  0  0
  -29.1440  -15.4932   18.7116 H   0  0  0  0  0  0
  -28.2566  -16.4639   19.8598 H   0  0  0  0  0  0
  -31.3607  -25.9857   21.1929 H   0  0  0  0  0  0
  -30.4649  -23.4258   18.5053 H   0  0  0  0  0  0
  -32.2924  -23.7596   20.8632 H   0  0  0  0  0  0
  -29.2145  -17.8078   18.1085 H   0  0  0  0  0  0
  -33.3554  -24.4177   18.7988 H   0  0  0  0  0  0
  -32.4613  -24.3464   17.2830 H   0  0  0  0  0  0
  -32.8839  -22.8606   18.1221 H   0  0  0  0  0  0
  -32.0390  -16.9363   18.9143 H   0  0  0  0  0  0
  -31.6101  -18.0191   17.6048 H   0  0  0  0  0  0
  -31.1578  -16.3274   17.5101 H   0  0  0  0  0  0
  -33.1643  -21.8128   21.8825 H   0  0  0  0  0  0
  -32.2101  -20.3600   22.0149 H   0  0  0  0  0  0
  -31.6568  -21.8441   22.7888 H   0  0  0  0  0  0
  -29.6250  -20.7864   21.4008 H   0  0  0  0  0  0
  -29.3045  -21.7488   20.0166 H   0  0  0  0  0  0
  -29.8284  -27.6853   20.9412 H   0  0  0  0  0  0
  -28.9744  -26.5898   22.0234 H   0  0  0  0  0  0
  -32.0489  -21.5036   19.7981 H   0  0  0  0  0  0
  1 25  1  0  0  0
  1 30  2  0  0  0
  1 88  1  0  0  0
  2  3  1  0  0  0
  2 25  1  0  0  0
  2 90  1  0  0  0
  2 91  1  0  0  0
  3  4  1  0  0  0
  3 92  1  0  0  0
  3 93  1  0  0  0
  4  5  1  0  0  0
  4 94  1  0  0  0
  4 95  1  0  0  0
  5  6  1  0  0  0
  5 26  1  0  0  0
  5 96  1  0  0  0
  6 25  1  0  0  0
  6 97  1  0  0  0
  6 98  1  0  0  0
  7  8  2  0  0  0
  7 26  1  0  0  0
  7 29  1  0  0  0
  8  9  1  0  0  0
  8 22  1  0  0  0
  9 10  1  0  0  0
  9 27  2  0  0  0
 10 11  2  0  0  0
 10 15  1  0  0  0
 11 12  1  0  0  0
 11 99  1  0  0  0
 12 13  2  0  0  0
 12100  1  0  0  0
 13 14  1  0  0  0
 13 31  1  0  0  0
 14 15  2  0  0  0
 14101  1  0  0  0
 15102  1  0  0  0
 16 17  2  0  0  0
 16 21  1  0  0  0
 16 31  1  0  0  0
 17 18  1  0  0  0
 17103  1  0  0  0
 18 19  2  0  0  0
 18104  1  0  0  0
 19 20  1  0  0  0
 19 24  1  0  0  0
 20 21  2  0  0  0
 20105  1  0  0  0
 21 23  1  0  0  0
 22 28  1  0  0  0
 22 32  2  0  0  0
 26 27  1  0  0  0
 28106  1  0  0  0
 28107  1  0  0  0
 29108  1  0  0  0
 29109  1  0  0  0
 33 34  1  0  0  0
 33 66  1  0  0  0
 33 70  2  0  0  0
 34 36  1  0  0  0
 34 59  1  0  0  0
 34110  1  0  0  0
 35 44  2  0  0  0
 35 45  1  0  0  0
 35 68  1  0  0  0
 36 56  1  0  0  0
 36111  1  0  0  0
 37 39  1  0  0  0
 37 47  1  0  0  0
 37 66  1  0  0  0
 37112  1  0  0  0
 38 43  2  0  0  0
 38 46  1  0  0  0
 38 47  1  0  0  0
 39 64  1  0  0  0
 39 67  2  0  0  0
 40 52  1  0  0  0
 40 53  2  0  0  0
 40 58  1  0  0  0
 41113  1  0  0  0
 41114  1  0  0  0
 41115  1  0  0  0
 41 48  1  0  0  0
 42 43  1  0  0  0
 42 66  1  0  0  0
 42116  1  0  0  0
 42117  1  0  0  0
 43 44  1  0  0  0
 44118  1  0  0  0
 45 46  2  0  0  0
 45119  1  0  0  0
 46120  1  0  0  0
 47121  1  0  0  0
 47122  1  0  0  0
 48 56  1  0  0  0
 48 65  1  0  0  0
 48123  1  0  0  0
 49 50  1  0  0  0
 49 53  1  0  0  0
 49 64  1  0  0  0
 49124  1  0  0  0
 50 51  1  0  0  0
 50125  1  0  0  0
 50126  1  0  0  0
 51 52  1  0  0  0
 51127  1  0  0  0
 51128  1  0  0  0
 52129  1  0  0  0
 52130  1  0  0  0
 53 54  1  0  0  0
 54 55  2  0  0  0
 54131  1  0  0  0
 55 57  1  0  0  0
 55132  1  0  0  0
 56 69  2  0  0  0
 57 58  2  0  0  0
 57133  1  0  0  0
 58134  1  0  0  0
 59 60  1  0  0  0
 59 61  1  0  0  0
 59 62  1  0  0  0
 60135  1  0  0  0
 60136  1  0  0  0
 60137  1  0  0  0
 61138  1  0  0  0
 61139  1  0  0  0
 61140  1  0  0  0
 62141  1  0  0  0
 62142  1  0  0  0
 62143  1  0  0  0
 63 65  1  0  0  0
 63144  1  0  0  0
 63145  1  0  0  0
 63146  1  0  0  0
 64147  1  0  0  0
 65148  1  0  0  0
 68 85  1  0  0  0
 71 84  1  0  0  0
 71 87  1  0  0  0
 71 89  2  0  0  0
 72 77  1  0  0  0
 72 78  1  0  0  0
 72149  1  0  0  0
 72150  1  0  0  0
 73 77  1  0  0  0
 73151  1  0  0  0
 73152  1  0  0  0
 73 79  1  0  0  0
 74 75  1  0  0  0
 74 87  1  0  0  0
 74153  1  0  0  0
 74154  1  0  0  0
 75 88  1  0  0  0
 75155  1  0  0  0
 75156  1  0  0  0
 76 80  1  0  0  0
 76 88  1  0  0  0
 76157  1  0  0  0
 76158  1  0  0  0
 77 85  1  0  0  0
 77159  1  0  0  0
 78 79  1  0  0  0
 78 81  1  0  0  0
 78160  1  0  0  0
 79 86  1  0  0  0
 79161  1  0  0  0
 80 82  1  0  0  0
 80 87  1  0  0  0
 80162  1  0  0  0
 81163  1  0  0  0
 81164  1  0  0  0
 81165  1  0  0  0
 82166  1  0  0  0
 82167  1  0  0  0
 82168  1  0  0  0
 83169  1  0  0  0
 83170  1  0  0  0
 83171  1  0  0  0
 83 86  1  0  0  0
 84 86  1  0  0  0
 84172  1  0  0  0
 84173  1  0  0  0
 85174  1  0  0  0
 85175  1  0  0  0
 86176  1  0  0  0
M  ISO  4   1 100  68 101  85 101  88 100
M  END
> <chiral flag>
0

> <version>
0

> <s_m_source_file>
/data/baiqing/PycharmProjects/Reinvent-master-3.2/result/LINK_invent/BTK/process_docking_weight1_custom_sum_contain_oxygen_bond_distance_aromatic_linkinvent_7_9_3/rearranged_h_0162.sdf

> <i_m_source_file_index>
91

> <r_mmod_Potential_Energy-OPLS-2005>
369.955596923828

> <r_mmod_Stretch_Energy-OPLS-2005>
44.9331474304199

> <r_mmod_Bend_Energy-OPLS-2005>
164.455429077148

> <r_mmod_Torsional_Energy-OPLS-2005>
474.371368408203

> <r_mmod_Improper_Torsional_Energy-OPLS-2005>
7.203369140625

> <r_mmod_Van_der_Waal_Energy-OPLS-2005>
144.276153564453

> <r_mmod_Electrostatic_Energy-OPLS-2005>
-287.337646484375

> <r_mmod_Solvation_Energy-OPLS-2005>
-203.949798583984

> <b_mmod_Minimization_Converged-OPLS-2005>
0

> <r_mmod_RMS_Derivative-OPLS-2005>
3.85002183914185

$$$$
92
                    3D
 Structure written by MMmdl.
157166  0  0  1  0            999 V2000
  -30.4203  -15.3734   20.3449 C   0  0  0  0  0  0
  -30.4501  -12.8866   19.5521 C   0  0  0  0  0  0
  -29.5477  -12.5832   18.3248 C   0  0  0  0  0  0
  -28.1212  -12.2547   18.7822 C   0  0  0  0  0  0
  -27.6162  -13.2761   19.8256 C   0  0  2  0  0  0
  -28.6391  -13.5245   20.9609 C   0  0  0  0  0  0
  -25.2438  -13.8252   20.5775 C   0  0  0  0  0  0
  -24.1768  -13.0451   20.9283 C   0  0  0  0  0  0
  -24.6412  -11.6941   20.8783 C   0  0  0  0  0  0
  -23.9101  -10.4300   21.0402 C   0  0  0  0  0  0
  -24.3662   -9.4207   21.9173 C   0  0  0  0  0  0
  -23.6333   -8.2245   22.0748 C   0  0  0  0  0  0
  -22.4313   -8.0298   21.3540 C   0  0  0  0  0  0
  -21.9940   -9.0273   20.4640 C   0  0  0  0  0  0
  -22.7276  -10.2143   20.3038 C   0  0  0  0  0  0
  -21.6873   -6.0762   22.5273 C   0  0  0  0  0  0
  -21.4047   -6.5664   23.8212 C   0  0  0  0  0  0
  -21.3665   -5.6790   24.9149 C   0  0  0  0  0  0
  -21.6042   -4.3054   24.7194 C   0  0  0  0  0  0
  -21.8807   -3.8166   23.4318 C   0  0  0  0  0  0
  -21.9188   -4.6992   22.3375 C   0  0  0  0  0  0
  -22.7782  -13.5215   21.1884 C   0  0  0  0  0  0
  -22.1638   -4.2189   21.0957 F   0  0  0  0  0  0
  -21.5612   -3.4528   25.7694 F   0  0  0  0  0  0
  -29.8705  -14.0493   20.3428 N   0  0  0  0  0  0
  -26.2862  -12.9524   20.3241 N   0  0  0  0  0  0
  -25.9349  -11.6632   20.5736 N   0  0  0  0  0  0
  -22.0397  -12.8230   22.0428 N   0  0  0  0  0  0
  -25.4074  -15.1975   20.4180 N   0  0  0  0  0  0
  -31.6199  -15.3512   20.0439 O   0  0  0  0  0  0
  -21.6656   -6.8915   21.4237 O   0  0  0  0  0  0
  -22.3470  -14.5486   20.6624 O   0  0  0  0  0  0
  -24.6601  -31.8239   23.1679 C   0  0  0  0  0  0
  -25.9292  -32.4587   23.8134 C   0  0  1  0  0  0
  -27.2235  -26.9114   20.1951 C   0  0  0  0  0  0
  -25.5979  -33.8412   24.2051 N   0  0  0  0  0  0
  -23.4751  -30.4308   21.5164 C   0  0  2  0  0  0
  -24.9356  -28.8152   20.1162 C   0  0  0  0  0  0
  -22.7664  -29.4424   22.4777 C   0  0  0  0  0  0
  -18.0316  -28.1403   22.8443 C   0  0  0  0  0  0
  -24.1521  -36.7229   23.2627 C   0  0  0  0  0  0
  -26.0425  -30.6308   21.3942 C   0  0  0  0  0  0
  -26.1174  -29.2145   20.7505 C   0  0  0  0  0  0
  -27.2547  -28.2825   20.7700 C   0  0  0  0  0  0
  -26.0082  -26.6715   19.5153 C   0  0  0  0  0  0
  -24.9059  -27.5649   19.4793 C   0  0  0  0  0  0
  -23.7201  -29.7419   20.1447 C   0  0  0  0  0  0
  -25.4157  -36.2960   24.0267 C   0  0  1  0  0  0
  -20.5943  -28.3748   23.1204 C   0  0  2  0  0  0
  -20.6809  -26.9434   22.5410 C   0  0  0  0  0  0
  -19.5799  -26.6382   21.5201 C   0  0  0  0  0  0
  -18.1971  -26.7934   22.1592 C   0  0  0  0  0  0
  -19.1578  -28.8902   23.2805 C   0  0  0  0  0  0
  -18.9483  -30.1485   23.8850 C   0  0  0  0  0  0
  -17.6477  -30.6602   24.0551 C   0  0  0  0  0  0
  -25.9109  -34.9345   23.4981 C   0  0  0  0  0  0
  -16.5371  -29.9083   23.6327 C   0  0  0  0  0  0
  -16.7290  -28.6501   23.0340 C   0  0  0  0  0  0
  -26.4579  -31.6500   25.0636 C   0  0  0  0  0  0
  -25.3703  -31.3757   26.1280 C   0  0  0  0  0  0
  -27.0459  -30.2868   24.6301 C   0  0  0  0  0  0
  -27.6090  -32.4266   25.7454 C   0  0  0  0  0  0
  -27.5586  -37.1752   24.8443 C   0  0  0  0  0  0
  -21.4335  -29.3025   22.3554 N   0  0  0  0  0  0
  -26.4292  -37.3695   23.9397 N   0  0  0  0  0  0
  -24.7467  -30.9907   22.0804 N   0  0  0  0  0  0
  -23.4217  -28.7984   23.3001 O   0  0  0  0  0  0
  -28.2183  -25.7908   20.2830 O   0  0  0  0  0  0
  -26.5718  -34.8880   22.4570 O   0  0  0  0  0  0
  -23.5674  -32.1210   23.6780 O   0  0  0  0  0  0
  -31.1848  -21.7949   20.8413 C   0  0  0  0  0  0
  -28.6394  -21.1799   20.1568 C   0  0  0  0  0  0
  -30.8718  -20.4202   20.6389 C   0  0  0  0  0  0
  -29.5726  -19.9465   20.3346 C   0  0  0  0  0  0
  -30.2795  -22.8861   20.7020 C   0  0  0  0  0  0
  -28.9222  -22.7077   20.3211 C   0  0  0  0  0  0
  -32.0083  -19.4098   20.5942 C   0  0  0  0  0  0
  -32.0212  -18.6057   19.2733 C   0  0  0  0  0  0
  -30.6135  -18.2602   18.7269 C   0  0  0  0  0  0
  -29.5550  -18.2376   19.8429 C   0  0  1  0  0  0
  -30.8338  -24.2883   20.9153 C   0  0  0  0  0  0
  -27.9554  -24.1656   20.0404 C   0  0  0  0  0  0
  -29.6747  -16.6748   20.5117 N   0  0  0  0  0  0
  -31.4532  -13.1102   19.1901 H   0  0  0  0  0  0
  -30.5663  -12.0112   20.1930 H   0  0  0  0  0  0
  -29.9597  -11.7469   17.7581 H   0  0  0  0  0  0
  -29.5264  -13.4438   17.6541 H   0  0  0  0  0  0
  -28.1531  -11.2696   19.2522 H   0  0  0  0  0  0
  -27.4390  -12.1751   17.9364 H   0  0  0  0  0  0
  -27.5139  -14.2100   19.2745 H   0  0  0  0  0  0
  -28.8367  -12.6174   21.5332 H   0  0  0  0  0  0
  -28.2539  -14.2653   21.6637 H   0  0  0  0  0  0
  -25.2803   -9.5704   22.4749 H   0  0  0  0  0  0
  -24.0037   -7.4656   22.7499 H   0  0  0  0  0  0
  -21.0843   -8.8806   19.8999 H   0  0  0  0  0  0
  -22.3724  -10.9685   19.6154 H   0  0  0  0  0  0
  -21.2076   -7.6171   23.9726 H   0  0  0  0  0  0
  -21.1493   -6.0511   25.9054 H   0  0  0  0  0  0
  -22.0591   -2.7632   23.2762 H   0  0  0  0  0  0
  -22.4050  -11.9996   22.4973 H   0  0  0  0  0  0
  -21.1003  -13.1245   22.2564 H   0  0  0  0  0  0
  -24.6349  -15.8419   20.5572 H   0  0  0  0  0  0
  -26.2147  -15.6331   19.9928 H   0  0  0  0  0  0
  -26.7341  -32.5171   23.0827 H   0  0  0  0  0  0
  -25.0081  -33.9499   25.0163 H   0  0  0  0  0  0
  -22.7840  -31.2576   21.3411 H   0  0  0  0  0  0
  -23.3780  -35.9561   23.3228 H   0  0  0  0  0  0
  -24.3591  -36.8964   22.2058 H   0  0  0  0  0  0
  -23.7303  -37.6398   23.6747 H   0  0  0  0  0  0
  -26.1982  -31.3685   20.6052 H   0  0  0  0  0  0
  -26.9113  -30.7167   22.0333 H   0  0  0  0  0  0
  -28.1417  -28.5823   21.3102 H   0  0  0  0  0  0
  -25.8786  -25.7133   19.0363 H   0  0  0  0  0  0
  -24.0068  -27.2548   18.9666 H   0  0  0  0  0  0
  -23.8689  -30.5068   19.3809 H   0  0  0  0  0  0
  -22.8357  -29.1859   19.8289 H   0  0  0  0  0  0
  -25.1359  -36.1719   25.0753 H   0  0  0  0  0  0
  -20.9998  -28.3340   24.1332 H   0  0  0  0  0  0
  -20.5703  -26.2339   23.3630 H   0  0  0  0  0  0
  -21.6676  -26.7432   22.1214 H   0  0  0  0  0  0
  -19.6980  -25.6279   21.1265 H   0  0  0  0  0  0
  -19.6769  -27.3163   20.6719 H   0  0  0  0  0  0
  -17.4247  -26.6645   21.3995 H   0  0  0  0  0  0
  -18.0382  -26.0097   22.9017 H   0  0  0  0  0  0
  -19.7974  -30.7307   24.2198 H   0  0  0  0  0  0
  -17.5042  -31.6267   24.5178 H   0  0  0  0  0  0
  -15.5373  -30.2974   23.7715 H   0  0  0  0  0  0
  -15.8681  -28.0834   22.7058 H   0  0  0  0  0  0
  -24.5891  -30.7108   25.7557 H   0  0  0  0  0  0
  -24.8891  -32.2992   26.4537 H   0  0  0  0  0  0
  -25.7921  -30.9008   27.0150 H   0  0  0  0  0  0
  -26.3092  -29.6534   24.1341 H   0  0  0  0  0  0
  -27.4077  -29.7210   25.4896 H   0  0  0  0  0  0
  -27.9007  -30.4053   23.9635 H   0  0  0  0  0  0
  -27.2679  -33.3603   26.1935 H   0  0  0  0  0  0
  -28.3992  -32.6752   25.0351 H   0  0  0  0  0  0
  -28.0656  -31.8430   26.5458 H   0  0  0  0  0  0
  -28.2538  -38.0103   24.7520 H   0  0  0  0  0  0
  -28.1153  -36.2629   24.6235 H   0  0  0  0  0  0
  -27.2302  -37.1347   25.8840 H   0  0  0  0  0  0
  -20.9568  -29.8697   21.6689 H   0  0  0  0  0  0
  -26.0129  -38.2737   24.1436 H   0  0  0  0  0  0
  -32.2189  -22.0356   21.0599 H   0  0  0  0  0  0
  -27.6421  -20.9379   19.8157 H   0  0  0  0  0  0
  -31.8752  -18.7163   21.4253 H   0  0  0  0  0  0
  -32.9704  -19.9007   20.7526 H   0  0  0  0  0  0
  -32.6075  -17.6985   19.4232 H   0  0  0  0  0  0
  -32.5485  -19.1773   18.5079 H   0  0  0  0  0  0
  -30.6269  -17.3335   18.1525 H   0  0  0  0  0  0
  -30.3282  -19.0316   18.0068 H   0  0  0  0  0  0
  -28.5789  -18.1886   19.3563 H   0  0  0  0  0  0
  -31.8757  -24.2580   21.2357 H   0  0  0  0  0  0
  -30.2776  -24.8155   21.6887 H   0  0  0  0  0  0
  -30.7915  -24.8723   19.9965 H   0  0  0  0  0  0
  -26.9769  -23.9560   20.4741 H   0  0  0  0  0  0
  -27.7711  -24.1268   18.9667 H   0  0  0  0  0  0
  -28.8235  -16.4846   21.0162 H   0  0  0  0  0  0
  1 25  1  0  0  0
  1 30  2  0  0  0
  1 83  1  0  0  0
  2  3  1  0  0  0
  2 25  1  0  0  0
  2 84  1  0  0  0
  2 85  1  0  0  0
  3  4  1  0  0  0
  3 86  1  0  0  0
  3 87  1  0  0  0
  4  5  1  0  0  0
  4 88  1  0  0  0
  4 89  1  0  0  0
  5  6  1  0  0  0
  5 26  1  0  0  0
  5 90  1  0  0  0
  6 25  1  0  0  0
  6 91  1  0  0  0
  6 92  1  0  0  0
  7  8  2  0  0  0
  7 26  1  0  0  0
  7 29  1  0  0  0
  8  9  1  0  0  0
  8 22  1  0  0  0
  9 10  1  0  0  0
  9 27  2  0  0  0
 10 11  2  0  0  0
 10 15  1  0  0  0
 11 12  1  0  0  0
 11 93  1  0  0  0
 12 13  2  0  0  0
 12 94  1  0  0  0
 13 14  1  0  0  0
 13 31  1  0  0  0
 14 15  2  0  0  0
 14 95  1  0  0  0
 15 96  1  0  0  0
 16 17  2  0  0  0
 16 21  1  0  0  0
 16 31  1  0  0  0
 17 18  1  0  0  0
 17 97  1  0  0  0
 18 19  2  0  0  0
 18 98  1  0  0  0
 19 20  1  0  0  0
 19 24  1  0  0  0
 20 21  2  0  0  0
 20 99  1  0  0  0
 21 23  1  0  0  0
 22 28  1  0  0  0
 22 32  2  0  0  0
 26 27  1  0  0  0
 28100  1  0  0  0
 28101  1  0  0  0
 29102  1  0  0  0
 29103  1  0  0  0
 33 34  1  0  0  0
 33 66  1  0  0  0
 33 70  2  0  0  0
 34 36  1  0  0  0
 34 59  1  0  0  0
 34104  1  0  0  0
 35 44  2  0  0  0
 35 45  1  0  0  0
 35 68  1  0  0  0
 36 56  1  0  0  0
 36105  1  0  0  0
 37 39  1  0  0  0
 37 47  1  0  0  0
 37 66  1  0  0  0
 37106  1  0  0  0
 38 43  2  0  0  0
 38 46  1  0  0  0
 38 47  1  0  0  0
 39 64  1  0  0  0
 39 67  2  0  0  0
 40 52  1  0  0  0
 40 53  2  0  0  0
 40 58  1  0  0  0
 41107  1  0  0  0
 41108  1  0  0  0
 41109  1  0  0  0
 41 48  1  0  0  0
 42 43  1  0  0  0
 42 66  1  0  0  0
 42110  1  0  0  0
 42111  1  0  0  0
 43 44  1  0  0  0
 44112  1  0  0  0
 45 46  2  0  0  0
 45113  1  0  0  0
 46114  1  0  0  0
 47115  1  0  0  0
 47116  1  0  0  0
 48 56  1  0  0  0
 48 65  1  0  0  0
 48117  1  0  0  0
 49 50  1  0  0  0
 49 53  1  0  0  0
 49 64  1  0  0  0
 49118  1  0  0  0
 50 51  1  0  0  0
 50119  1  0  0  0
 50120  1  0  0  0
 51 52  1  0  0  0
 51121  1  0  0  0
 51122  1  0  0  0
 52123  1  0  0  0
 52124  1  0  0  0
 53 54  1  0  0  0
 54 55  2  0  0  0
 54125  1  0  0  0
 55 57  1  0  0  0
 55126  1  0  0  0
 56 69  2  0  0  0
 57 58  2  0  0  0
 57127  1  0  0  0
 58128  1  0  0  0
 59 60  1  0  0  0
 59 61  1  0  0  0
 59 62  1  0  0  0
 60129  1  0  0  0
 60130  1  0  0  0
 60131  1  0  0  0
 61132  1  0  0  0
 61133  1  0  0  0
 61134  1  0  0  0
 62135  1  0  0  0
 62136  1  0  0  0
 62137  1  0  0  0
 63 65  1  0  0  0
 63138  1  0  0  0
 63139  1  0  0  0
 63140  1  0  0  0
 64141  1  0  0  0
 65142  1  0  0  0
 68 82  1  0  0  0
 71 73  2  0  0  0
 71 75  1  0  0  0
 71143  1  0  0  0
 72 74  2  0  0  0
 72 76  1  0  0  0
 72144  1  0  0  0
 73 74  1  0  0  0
 73 77  1  0  0  0
 74 80  1  0  0  0
 75 76  2  0  0  0
 75 81  1  0  0  0
 76 82  1  0  0  0
 77 78  1  0  0  0
 77145  1  0  0  0
 77146  1  0  0  0
 78 79  1  0  0  0
 78147  1  0  0  0
 78148  1  0  0  0
 79 80  1  0  0  0
 79149  1  0  0  0
 79150  1  0  0  0
 80 83  1  0  0  0
 80151  1  0  0  0
 81152  1  0  0  0
 81153  1  0  0  0
 81154  1  0  0  0
 82155  1  0  0  0
 82156  1  0  0  0
 83157  1  0  0  0
M  ISO  4   1 100  68 101  82 101  83 100
M  END
> <chiral flag>
0

> <version>
0

> <s_m_source_file>
/data/baiqing/PycharmProjects/Reinvent-master-3.2/result/LINK_invent/BTK/process_docking_weight1_custom_sum_contain_oxygen_bond_distance_aromatic_linkinvent_7_9_3/rearranged_h_0162.sdf

> <i_m_source_file_index>
92

> <r_mmod_Potential_Energy-OPLS-2005>
1470.01171875

> <r_mmod_Stretch_Energy-OPLS-2005>
656.142883300781

> <r_mmod_Bend_Energy-OPLS-2005>
471.694976806641

> <r_mmod_Torsional_Energy-OPLS-2005>
252.932220458984

> <r_mmod_Improper_Torsional_Energy-OPLS-2005>
9.74385356903076

> <r_mmod_Van_der_Waal_Energy-OPLS-2005>
134.760864257812

> <r_mmod_Electrostatic_Energy-OPLS-2005>
-386.938903808594

> <r_mmod_Solvation_Energy-OPLS-2005>
-209.94123840332

> <b_mmod_Minimization_Converged-OPLS-2005>
0

> <r_mmod_RMS_Derivative-OPLS-2005>
5.48012685775757

$$$$
93
                    3D
 Structure written by MMmdl.
172181  0  0  1  0            999 V2000
  -30.6681  -14.6629   20.4695 C   0  0  0  0  0  0
  -30.4227  -12.4057   19.4651 C   0  0  0  0  0  0
  -29.5057  -12.4923   18.2280 C   0  0  0  0  0  0
  -28.0294  -12.3350   18.6421 C   0  0  0  0  0  0
  -27.6431  -13.2288   19.8523 C   0  0  2  0  0  0
  -28.6892  -13.1528   20.9849 C   0  0  0  0  0  0
  -25.2529  -13.8193   20.5714 C   0  0  0  0  0  0
  -24.1799  -13.0443   20.9187 C   0  0  0  0  0  0
  -24.6380  -11.6915   20.8737 C   0  0  0  0  0  0
  -23.9058  -10.4296   21.0405 C   0  0  0  0  0  0
  -24.3608   -9.4215   21.9190 C   0  0  0  0  0  0
  -23.6281   -8.2250   22.0760 C   0  0  0  0  0  0
  -22.4266   -8.0284   21.3550 C   0  0  0  0  0  0
  -21.9900   -9.0258   20.4652 C   0  0  0  0  0  0
  -22.7226  -10.2135   20.3058 C   0  0  0  0  0  0
  -21.6854   -6.0732   22.5273 C   0  0  0  0  0  0
  -21.4017   -6.5633   23.8207 C   0  0  0  0  0  0
  -21.3661   -5.6787   24.9170 C   0  0  0  0  0  0
  -21.6042   -4.3050   24.7220 C   0  0  0  0  0  0
  -21.8820   -3.8142   23.4341 C   0  0  0  0  0  0
  -21.9190   -4.6959   22.3399 C   0  0  0  0  0  0
  -22.7822  -13.5239   21.1831 C   0  0  0  0  0  0
  -22.1666   -4.2148   21.0976 F   0  0  0  0  0  0
  -21.5629   -3.4535   25.7735 F   0  0  0  0  0  0
  -29.9951  -13.4706   20.3969 N   0  0  0  0  0  0
  -26.2951  -12.9392   20.3313 N   0  0  0  0  0  0
  -25.9321  -11.6536   20.5768 N   0  0  0  0  0  0
  -22.0453  -12.8250   22.0388 N   0  0  0  0  0  0
  -25.4265  -15.1911   20.4177 N   0  0  0  0  0  0
  -31.8664  -14.7150   20.1735 O   0  0  0  0  0  0
  -21.6637   -6.8876   21.4237 O   0  0  0  0  0  0
  -22.3519  -14.5545   20.6671 O   0  0  0  0  0  0
  -24.6292  -31.8590   23.2020 C   0  0  0  0  0  0
  -25.9135  -32.4772   23.8348 C   0  0  1  0  0  0
  -27.2156  -27.2933   20.0994 C   0  0  0  0  0  0
  -25.5942  -33.8571   24.2277 N   0  0  0  0  0  0
  -23.4221  -30.4851   21.5476 C   0  0  2  0  0  0
  -24.8635  -28.9420   20.1108 C   0  0  0  0  0  0
  -22.7489  -29.4622   22.4941 C   0  0  0  0  0  0
  -18.0293  -28.1384   22.8488 C   0  0  0  0  0  0
  -24.1486  -36.7286   23.2637 C   0  0  0  0  0  0
  -25.9675  -30.7797   21.3776 C   0  0  0  0  0  0
  -26.0371  -29.4074   20.7153 C   0  0  0  0  0  0
  -27.2117  -28.5929   20.7049 C   0  0  0  0  0  0
  -26.0022  -26.8825   19.4948 C   0  0  0  0  0  0
  -24.8490  -27.6847   19.4968 C   0  0  0  0  0  0
  -23.6354  -29.8262   20.1614 C   0  0  0  0  0  0
  -25.4111  -36.3078   24.0327 C   0  0  1  0  0  0
  -20.5892  -28.3685   23.1282 C   0  0  2  0  0  0
  -20.6780  -26.9408   22.5409 C   0  0  0  0  0  0
  -19.5755  -26.6381   21.5210 C   0  0  0  0  0  0
  -18.1933  -26.7929   22.1621 C   0  0  0  0  0  0
  -19.1543  -28.8853   23.2878 C   0  0  0  0  0  0
  -18.9466  -30.1459   23.8887 C   0  0  0  0  0  0
  -17.6466  -30.6586   24.0562 C   0  0  0  0  0  0
  -25.9053  -34.9448   23.5103 C   0  0  0  0  0  0
  -16.5360  -29.9083   23.6336 C   0  0  0  0  0  0
  -16.7277  -28.6503   23.0351 C   0  0  0  0  0  0
  -26.4502  -31.6584   25.0727 C   0  0  0  0  0  0
  -25.3728  -31.3736   26.1455 C   0  0  0  0  0  0
  -27.0336  -30.2999   24.6195 C   0  0  0  0  0  0
  -27.6057  -32.4314   25.7504 C   0  0  0  0  0  0
  -27.5578  -37.1796   24.8463 C   0  0  0  0  0  0
  -21.4200  -29.3041   22.3681 N   0  0  0  0  0  0
  -26.4286  -37.3777   23.9412 N   0  0  0  0  0  0
  -24.6923  -31.0584   22.0991 N   0  0  0  0  0  0
  -23.4207  -28.8155   23.3018 O   0  0  0  0  0  0
  -28.3313  -26.4317   20.1694 O   0  0  0  0  0  0
  -26.5616  -34.8924   22.4666 O   0  0  0  0  0  0
  -23.5452  -32.1400   23.7344 O   0  0  0  0  0  0
  -30.2766  -23.5586   20.2591 C   0  0  0  0  0  0
  -30.3611  -22.1489   20.5510 C   0  0  0  0  0  0
  -28.9764  -23.9004   19.9588 C   0  0  0  0  0  0
  -29.0976  -21.6280   20.4229 C   0  0  0  0  0  0
  -28.8461  -17.9395   19.5166 C   0  0  0  0  0  0
  -29.7035  -18.1982   21.7623 C   0  0  0  0  0  0
  -29.6415  -16.5887   19.3723 C   0  0  0  0  0  0
  -30.4890  -16.8396   21.6087 C   0  0  0  0  0  0
  -29.5104  -18.9948   20.4419 C   0  0  0  0  0  0
  -31.4548  -24.5030   20.2190 C   0  0  0  0  0  0
  -31.6320  -21.4170   20.9110 C   0  0  0  0  0  0
  -26.0687  -22.0574   21.2247 C   0  0  0  0  0  0
  -26.3804  -21.8891   18.6857 C   0  0  0  0  0  0
  -28.4336  -25.2233   19.3134 C   0  0  0  0  0  0
  -26.7673  -22.6259   19.9769 C   0  0  0  0  0  0
  -28.2243  -22.7087   20.1369 N   0  0  0  0  0  0
  -29.9596  -15.8474   20.6269 N   0  0  0  0  0  0
  -28.6944  -20.2514   20.5879 N   0  0  0  0  0  0
  -31.4685  -12.5001   19.1664 H   0  0  0  0  0  0
  -30.3400  -11.4287   19.9430 H   0  0  0  0  0  0
  -29.7758  -11.7221   17.5043 H   0  0  0  0  0  0
  -29.6504  -13.4500   17.7246 H   0  0  0  0  0  0
  -27.8712  -11.2851   18.8925 H   0  0  0  0  0  0
  -27.3756  -12.5457   17.7950 H   0  0  0  0  0  0
  -27.6404  -14.2527   19.4813 H   0  0  0  0  0  0
  -28.7064  -12.1605   21.4365 H   0  0  0  0  0  0
  -28.4419  -13.8529   21.7842 H   0  0  0  0  0  0
  -25.2757   -9.5701   22.4765 H   0  0  0  0  0  0
  -23.9994   -7.4644   22.7479 H   0  0  0  0  0  0
  -21.0836   -8.8769   19.8961 H   0  0  0  0  0  0
  -22.3682  -10.9670   19.6163 H   0  0  0  0  0  0
  -21.2020   -7.6143   23.9707 H   0  0  0  0  0  0
  -21.1485   -6.0521   25.9070 H   0  0  0  0  0  0
  -22.0600   -2.7605   23.2836 H   0  0  0  0  0  0
  -22.4061  -11.9929   22.4812 H   0  0  0  0  0  0
  -21.1074  -13.1298   22.2576 H   0  0  0  0  0  0
  -24.6674  -15.8520   20.5431 H   0  0  0  0  0  0
  -26.2943  -15.6290   20.1350 H   0  0  0  0  0  0
  -26.7203  -32.5425   23.1089 H   0  0  0  0  0  0
  -25.0086  -33.9710   25.0421 H   0  0  0  0  0  0
  -22.7163  -31.3067   21.4079 H   0  0  0  0  0  0
  -23.3754  -35.9611   23.3296 H   0  0  0  0  0  0
  -24.3582  -36.8912   22.2053 H   0  0  0  0  0  0
  -23.7231  -37.6485   23.6660 H   0  0  0  0  0  0
  -26.1051  -31.5429   20.6106 H   0  0  0  0  0  0
  -26.8463  -30.8240   22.0096 H   0  0  0  0  0  0
  -28.1102  -28.9441   21.1923 H   0  0  0  0  0  0
  -25.8638  -25.9144   19.0472 H   0  0  0  0  0  0
  -23.9420  -27.3127   19.0406 H   0  0  0  0  0  0
  -23.7602  -30.6048   19.4080 H   0  0  0  0  0  0
  -22.7526  -29.2612   19.8559 H   0  0  0  0  0  0
  -25.1290  -36.1926   25.0818 H   0  0  0  0  0  0
  -20.9980  -28.3260   24.1406 H   0  0  0  0  0  0
  -20.5683  -26.2292   23.3608 H   0  0  0  0  0  0
  -21.6651  -26.7444   22.1202 H   0  0  0  0  0  0
  -19.6913  -25.6290   21.1244 H   0  0  0  0  0  0
  -19.6692  -27.3190   20.6738 H   0  0  0  0  0  0
  -17.4204  -26.6683   21.4021 H   0  0  0  0  0  0
  -18.0333  -26.0071   22.9018 H   0  0  0  0  0  0
  -19.7942  -30.7277   24.2248 H   0  0  0  0  0  0
  -17.5022  -31.6268   24.5162 H   0  0  0  0  0  0
  -15.5359  -30.2975   23.7664 H   0  0  0  0  0  0
  -15.8682  -28.0817   22.7063 H   0  0  0  0  0  0
  -24.5906  -30.7077   25.7795 H   0  0  0  0  0  0
  -24.8914  -32.2909   26.4856 H   0  0  0  0  0  0
  -25.8052  -30.8939   27.0246 H   0  0  0  0  0  0
  -26.2910  -29.6759   24.1211 H   0  0  0  0  0  0
  -27.4018  -29.7250   25.4703 H   0  0  0  0  0  0
  -27.8794  -30.4276   23.9433 H   0  0  0  0  0  0
  -27.2669  -33.3621   26.2068 H   0  0  0  0  0  0
  -28.3880  -32.6860   25.0340 H   0  0  0  0  0  0
  -28.0711  -31.8444   26.5436 H   0  0  0  0  0  0
  -28.2590  -38.0099   24.7525 H   0  0  0  0  0  0
  -28.1082  -36.2633   24.6266 H   0  0  0  0  0  0
  -27.2308  -37.1430   25.8869 H   0  0  0  0  0  0
  -20.9374  -29.8771   21.6901 H   0  0  0  0  0  0
  -26.0168  -38.2852   24.1418 H   0  0  0  0  0  0
  -27.8432  -17.7110   19.8809 H   0  0  0  0  0  0
  -28.7082  -18.3700   18.5241 H   0  0  0  0  0  0
  -30.2232  -18.8230   22.4888 H   0  0  0  0  0  0
  -28.7289  -17.9856   22.2050 H   0  0  0  0  0  0
  -30.5778  -16.8007   18.8518 H   0  0  0  0  0  0
  -29.0836  -15.9269   18.7073 H   0  0  0  0  0  0
  -30.5431  -16.3584   22.5867 H   0  0  0  0  0  0
  -31.5203  -17.0781   21.3418 H   0  0  0  0  0  0
  -30.4830  -19.2414   20.0197 H   0  0  0  0  0  0
  -32.0098  -24.4680   21.1567 H   0  0  0  0  0  0
  -31.1405  -25.5344   20.0587 H   0  0  0  0  0  0
  -32.1311  -24.2258   19.4099 H   0  0  0  0  0  0
  -32.4021  -22.1056   21.2560 H   0  0  0  0  0  0
  -32.0221  -20.8833   20.0444 H   0  0  0  0  0  0
  -31.4508  -20.7039   21.7136 H   0  0  0  0  0  0
  -24.9878  -22.1758   21.1477 H   0  0  0  0  0  0
  -26.3907  -22.5833   22.1243 H   0  0  0  0  0  0
  -26.2659  -20.9968   21.3712 H   0  0  0  0  0  0
  -25.2999  -21.8976   18.5414 H   0  0  0  0  0  0
  -26.7032  -20.8480   18.6979 H   0  0  0  0  0  0
  -26.8310  -22.3671   17.8149 H   0  0  0  0  0  0
  -27.5748  -24.9979   18.6944 H   0  0  0  0  0  0
  -29.1614  -25.5134   18.5554 H   0  0  0  0  0  0
  -26.3839  -23.6406   19.8921 H   0  0  0  0  0  0
  -27.6946  -20.0976   20.5174 H   0  0  0  0  0  0
  1 25  1  0  0  0
  1 30  2  0  0  0
  1 87  1  0  0  0
  2  3  1  0  0  0
  2 25  1  0  0  0
  2 89  1  0  0  0
  2 90  1  0  0  0
  3  4  1  0  0  0
  3 91  1  0  0  0
  3 92  1  0  0  0
  4  5  1  0  0  0
  4 93  1  0  0  0
  4 94  1  0  0  0
  5  6  1  0  0  0
  5 26  1  0  0  0
  5 95  1  0  0  0
  6 25  1  0  0  0
  6 96  1  0  0  0
  6 97  1  0  0  0
  7  8  2  0  0  0
  7 26  1  0  0  0
  7 29  1  0  0  0
  8  9  1  0  0  0
  8 22  1  0  0  0
  9 10  1  0  0  0
  9 27  2  0  0  0
 10 11  2  0  0  0
 10 15  1  0  0  0
 11 12  1  0  0  0
 11 98  1  0  0  0
 12 13  2  0  0  0
 12 99  1  0  0  0
 13 14  1  0  0  0
 13 31  1  0  0  0
 14 15  2  0  0  0
 14100  1  0  0  0
 15101  1  0  0  0
 16 17  2  0  0  0
 16 21  1  0  0  0
 16 31  1  0  0  0
 17 18  1  0  0  0
 17102  1  0  0  0
 18 19  2  0  0  0
 18103  1  0  0  0
 19 20  1  0  0  0
 19 24  1  0  0  0
 20 21  2  0  0  0
 20104  1  0  0  0
 21 23  1  0  0  0
 22 28  1  0  0  0
 22 32  2  0  0  0
 26 27  1  0  0  0
 28105  1  0  0  0
 28106  1  0  0  0
 29107  1  0  0  0
 29108  1  0  0  0
 33 34  1  0  0  0
 33 66  1  0  0  0
 33 70  2  0  0  0
 34 36  1  0  0  0
 34 59  1  0  0  0
 34109  1  0  0  0
 35 44  2  0  0  0
 35 45  1  0  0  0
 35 68  1  0  0  0
 36 56  1  0  0  0
 36110  1  0  0  0
 37 39  1  0  0  0
 37 47  1  0  0  0
 37 66  1  0  0  0
 37111  1  0  0  0
 38 43  2  0  0  0
 38 46  1  0  0  0
 38 47  1  0  0  0
 39 64  1  0  0  0
 39 67  2  0  0  0
 40 52  1  0  0  0
 40 53  2  0  0  0
 40 58  1  0  0  0
 41112  1  0  0  0
 41113  1  0  0  0
 41114  1  0  0  0
 41 48  1  0  0  0
 42 43  1  0  0  0
 42 66  1  0  0  0
 42115  1  0  0  0
 42116  1  0  0  0
 43 44  1  0  0  0
 44117  1  0  0  0
 45 46  2  0  0  0
 45118  1  0  0  0
 46119  1  0  0  0
 47120  1  0  0  0
 47121  1  0  0  0
 48 56  1  0  0  0
 48 65  1  0  0  0
 48122  1  0  0  0
 49 50  1  0  0  0
 49 53  1  0  0  0
 49 64  1  0  0  0
 49123  1  0  0  0
 50 51  1  0  0  0
 50124  1  0  0  0
 50125  1  0  0  0
 51 52  1  0  0  0
 51126  1  0  0  0
 51127  1  0  0  0
 52128  1  0  0  0
 52129  1  0  0  0
 53 54  1  0  0  0
 54 55  2  0  0  0
 54130  1  0  0  0
 55 57  1  0  0  0
 55131  1  0  0  0
 56 69  2  0  0  0
 57 58  2  0  0  0
 57132  1  0  0  0
 58133  1  0  0  0
 59 60  1  0  0  0
 59 61  1  0  0  0
 59 62  1  0  0  0
 60134  1  0  0  0
 60135  1  0  0  0
 60136  1  0  0  0
 61137  1  0  0  0
 61138  1  0  0  0
 61139  1  0  0  0
 62140  1  0  0  0
 62141  1  0  0  0
 62142  1  0  0  0
 63 65  1  0  0  0
 63143  1  0  0  0
 63144  1  0  0  0
 63145  1  0  0  0
 64146  1  0  0  0
 65147  1  0  0  0
 68 84  1  0  0  0
 71 72  1  0  0  0
 71 73  2  0  0  0
 71 80  1  0  0  0
 72 74  2  0  0  0
 72 81  1  0  0  0
 73 84  1  0  0  0
 73 86  1  0  0  0
 74 86  1  0  0  0
 74 88  1  0  0  0
 75 77  1  0  0  0
 75 79  1  0  0  0
 75148  1  0  0  0
 75149  1  0  0  0
 76 78  1  0  0  0
 76 79  1  0  0  0
 76150  1  0  0  0
 76151  1  0  0  0
 77 87  1  0  0  0
 77152  1  0  0  0
 77153  1  0  0  0
 78 87  1  0  0  0
 78154  1  0  0  0
 78155  1  0  0  0
 79 88  1  0  0  0
 79156  1  0  0  0
 80157  1  0  0  0
 80158  1  0  0  0
 80159  1  0  0  0
 81160  1  0  0  0
 81161  1  0  0  0
 81162  1  0  0  0
 82163  1  0  0  0
 82164  1  0  0  0
 82165  1  0  0  0
 82 85  1  0  0  0
 83 85  1  0  0  0
 83166  1  0  0  0
 83167  1  0  0  0
 83168  1  0  0  0
 84169  1  0  0  0
 84170  1  0  0  0
 85 86  1  0  0  0
 85171  1  0  0  0
 88172  1  0  0  0
M  ISO  4   1 100  68 101  84 101  87 100
M  END
> <chiral flag>
0

> <version>
0

> <s_m_source_file>
/data/baiqing/PycharmProjects/Reinvent-master-3.2/result/LINK_invent/BTK/process_docking_weight1_custom_sum_contain_oxygen_bond_distance_aromatic_linkinvent_7_9_3/rearranged_h_0162.sdf

> <i_m_source_file_index>
93

> <r_mmod_Potential_Energy-OPLS-2005>
301.020538330078

> <r_mmod_Stretch_Energy-OPLS-2005>
90.9333724975586

> <r_mmod_Bend_Energy-OPLS-2005>
196.623153686523

> <r_mmod_Torsional_Energy-OPLS-2005>
361.891998291016

> <r_mmod_Improper_Torsional_Energy-OPLS-2005>
12.7684898376465

> <r_mmod_Van_der_Waal_Energy-OPLS-2005>
122.304344177246

> <r_mmod_Electrostatic_Energy-OPLS-2005>
-349.272491455078

> <r_mmod_Solvation_Energy-OPLS-2005>
-196.885070800781

> <b_mmod_Minimization_Converged-OPLS-2005>
0

> <r_mmod_RMS_Derivative-OPLS-2005>
1.35826361179352

$$$$
94
                    3D
 Structure written by MMmdl.
180190  0  0  1  0            999 V2000
  -30.7338  -14.4851   20.3921 C   0  0  0  0  0  0
  -30.4105  -12.2573   19.4333 C   0  0  0  0  0  0
  -29.4898  -12.3710   18.2021 C   0  0  0  0  0  0
  -27.9974  -12.3370   18.6117 C   0  0  0  0  0  0
  -27.6424  -13.1926   19.8630 C   0  0  2  0  0  0
  -28.7127  -13.0757   20.9719 C   0  0  0  0  0  0
  -25.2548  -13.8094   20.5767 C   0  0  0  0  0  0
  -24.1793  -13.0407   20.9230 C   0  0  0  0  0  0
  -24.6324  -11.6861   20.8796 C   0  0  0  0  0  0
  -23.9002  -10.4269   21.0428 C   0  0  0  0  0  0
  -24.3564   -9.4194   21.9200 C   0  0  0  0  0  0
  -23.6253   -8.2227   22.0759 C   0  0  0  0  0  0
  -22.4243   -8.0268   21.3531 C   0  0  0  0  0  0
  -21.9872   -9.0243   20.4638 C   0  0  0  0  0  0
  -22.7188  -10.2123   20.3057 C   0  0  0  0  0  0
  -21.6834   -6.0720   22.5264 C   0  0  0  0  0  0
  -21.3993   -6.5626   23.8197 C   0  0  0  0  0  0
  -21.3648   -5.6779   24.9162 C   0  0  0  0  0  0
  -21.6048   -4.3044   24.7224 C   0  0  0  0  0  0
  -21.8828   -3.8135   23.4346 C   0  0  0  0  0  0
  -21.9185   -4.6948   22.3392 C   0  0  0  0  0  0
  -22.7825  -13.5237   21.1852 C   0  0  0  0  0  0
  -22.1661   -4.2135   21.0970 F   0  0  0  0  0  0
  -21.5637   -3.4537   25.7751 F   0  0  0  0  0  0
  -30.0297  -13.3229   20.3645 N   0  0  0  0  0  0
  -26.2954  -12.9202   20.3461 N   0  0  0  0  0  0
  -25.9250  -11.6392   20.5879 N   0  0  0  0  0  0
  -22.0437  -12.8248   22.0392 N   0  0  0  0  0  0
  -25.4284  -15.1832   20.4190 N   0  0  0  0  0  0
  -31.9545  -14.5383   20.2313 O   0  0  0  0  0  0
  -21.6607   -6.8864   21.4226 O   0  0  0  0  0  0
  -22.3547  -14.5559   20.6685 O   0  0  0  0  0  0
  -24.6091  -31.8708   23.2108 C   0  0  0  0  0  0
  -25.9010  -32.4838   23.8395 C   0  0  1  0  0  0
  -27.2404  -27.4769   20.0840 C   0  0  0  0  0  0
  -25.5869  -33.8640   24.2313 N   0  0  0  0  0  0
  -23.3953  -30.4915   21.5499 C   0  0  2  0  0  0
  -24.8441  -28.9567   20.1176 C   0  0  0  0  0  0
  -22.7368  -29.4665   22.4999 C   0  0  0  0  0  0
  -18.0254  -28.1399   22.8506 C   0  0  0  0  0  0
  -24.1472  -36.7325   23.2635 C   0  0  0  0  0  0
  -25.9174  -30.8459   21.3570 C   0  0  0  0  0  0
  -25.9981  -29.4774   20.7174 C   0  0  0  0  0  0
  -27.1968  -28.7356   20.7140 C   0  0  0  0  0  0
  -26.0726  -26.9503   19.4927 C   0  0  0  0  0  0
  -24.8721  -27.6866   19.5099 C   0  0  0  0  0  0
  -23.6021  -29.8182   20.1666 C   0  0  0  0  0  0
  -25.4094  -36.3118   24.0326 C   0  0  1  0  0  0
  -20.5838  -28.3684   23.1341 C   0  0  2  0  0  0
  -20.6740  -26.9422   22.5436 C   0  0  0  0  0  0
  -19.5718  -26.6400   21.5234 C   0  0  0  0  0  0
  -18.1893  -26.7953   22.1631 C   0  0  0  0  0  0
  -19.1501  -28.8853   23.2925 C   0  0  0  0  0  0
  -18.9430  -30.1457   23.8931 C   0  0  0  0  0  0
  -17.6440  -30.6605   24.0585 C   0  0  0  0  0  0
  -25.9036  -34.9486   23.5126 C   0  0  0  0  0  0
  -16.5339  -29.9104   23.6343 C   0  0  0  0  0  0
  -16.7247  -28.6527   23.0358 C   0  0  0  0  0  0
  -26.4434  -31.6610   25.0722 C   0  0  0  0  0  0
  -25.3680  -31.3670   26.1445 C   0  0  0  0  0  0
  -27.0295  -30.3073   24.6069 C   0  0  0  0  0  0
  -27.5981  -32.4330   25.7540 C   0  0  0  0  0  0
  -27.5574  -37.1798   24.8457 C   0  0  0  0  0  0
  -21.4102  -29.3050   22.3746 N   0  0  0  0  0  0
  -26.4277  -37.3810   23.9424 N   0  0  0  0  0  0
  -24.6584  -31.0828   22.0996 N   0  0  0  0  0  0
  -23.4151  -28.8209   23.3036 O   0  0  0  0  0  0
  -28.4185  -26.7779   20.0670 O   0  0  0  0  0  0
  -26.5613  -34.8947   22.4697 O   0  0  0  0  0  0
  -23.5289  -32.1466   23.7505 O   0  0  0  0  0  0
  -29.3944  -24.7528   17.0623 C   0  0  0  0  0  0
  -29.0924  -24.9978   18.4164 C   0  0  0  0  0  0
  -29.6856  -23.4629   16.5968 C   0  0  0  0  0  0
  -29.0067  -23.8977   19.3233 C   0  0  0  0  0  0
  -29.2501  -22.5814   18.8362 C   0  0  0  0  0  0
  -29.6795  -22.3818   17.5013 C   0  0  0  0  0  0
  -31.4067  -17.7225   20.0240 C   0  0  0  0  0  0
  -30.4246  -16.6190   18.0014 C   0  0  0  0  0  0
  -31.8250  -20.1422   15.7566 C   0  0  0  0  0  0
  -30.4381  -16.8802   20.9076 C   0  0  0  0  0  0
  -29.4185  -15.9466   18.9457 C   0  0  0  0  0  0
  -31.5129  -18.7368   16.2663 C   0  0  0  0  0  0
  -32.0433  -20.1352   18.1207 C   0  0  0  0  0  0
  -30.8675  -17.9727   18.5880 C   0  0  0  0  0  0
  -31.5134  -21.0000   16.9701 C   0  0  2  0  0  0
  -29.9942  -23.2579   15.1242 C   0  0  0  0  0  0
  -28.7055  -24.1184   20.8063 C   0  0  0  0  0  0
  -29.0583  -21.3636   19.7296 C   0  0  0  0  0  0
  -28.9342  -26.4777   18.7766 C   0  0  0  0  0  0
  -30.0127  -15.6268   20.2576 N   0  0  0  0  0  0
  -31.8374  -18.7167   17.7214 N   0  3  1  0  0  0
  -30.0903  -21.1396   17.0842 O   0  0  0  0  0  0
  -31.4587  -12.3179   19.1329 H   0  0  0  0  0  0
  -30.2879  -11.2851   19.9130 H   0  0  0  0  0  0
  -29.6897  -11.5370   17.5272 H   0  0  0  0  0  0
  -29.7283  -13.2581   17.6192 H   0  0  0  0  0  0
  -27.7506  -11.2935   18.8129 H   0  0  0  0  0  0
  -27.3730  -12.6372   17.7691 H   0  0  0  0  0  0
  -27.6084  -14.2251   19.5489 H   0  0  0  0  0  0
  -28.6969  -12.0847   21.4278 H   0  0  0  0  0  0
  -28.5146  -13.7901   21.7727 H   0  0  0  0  0  0
  -25.2700   -9.5698   22.4781 H   0  0  0  0  0  0
  -23.9968   -7.4622   22.7477 H   0  0  0  0  0  0
  -21.0807   -8.8769   19.8938 H   0  0  0  0  0  0
  -22.3657  -10.9674   19.6179 H   0  0  0  0  0  0
  -21.1986   -7.6133   23.9714 H   0  0  0  0  0  0
  -21.1447   -6.0494   25.9064 H   0  0  0  0  0  0
  -22.0621   -2.7600   23.2841 H   0  0  0  0  0  0
  -22.3967  -11.9862   22.4762 H   0  0  0  0  0  0
  -21.1078  -13.1320   22.2605 H   0  0  0  0  0  0
  -24.6661  -15.8438   20.5276 H   0  0  0  0  0  0
  -26.3007  -15.6258   20.1590 H   0  0  0  0  0  0
  -26.7094  -32.5588   23.1176 H   0  0  0  0  0  0
  -24.9978  -33.9819   25.0423 H   0  0  0  0  0  0
  -22.6822  -31.3064   21.4090 H   0  0  0  0  0  0
  -23.3755  -35.9635   23.3274 H   0  0  0  0  0  0
  -24.3560  -36.8983   22.2056 H   0  0  0  0  0  0
  -23.7210  -37.6504   23.6691 H   0  0  0  0  0  0
  -26.0115  -31.5995   20.5731 H   0  0  0  0  0  0
  -26.8121  -30.9158   21.9644 H   0  0  0  0  0  0
  -28.0915  -29.1321   21.1735 H   0  0  0  0  0  0
  -26.0972  -25.9739   19.0281 H   0  0  0  0  0  0
  -23.9814  -27.2732   19.0571 H   0  0  0  0  0  0
  -23.7045  -30.5919   19.4051 H   0  0  0  0  0  0
  -22.7279  -29.2330   19.8740 H   0  0  0  0  0  0
  -25.1252  -36.1975   25.0812 H   0  0  0  0  0  0
  -20.9930  -28.3278   24.1465 H   0  0  0  0  0  0
  -20.5690  -26.2283   23.3617 H   0  0  0  0  0  0
  -21.6605  -26.7492   22.1220 H   0  0  0  0  0  0
  -19.6896  -25.6319   21.1250 H   0  0  0  0  0  0
  -19.6667  -27.3220   20.6779 H   0  0  0  0  0  0
  -17.4168  -26.6729   21.4023 H   0  0  0  0  0  0
  -18.0275  -26.0082   22.9011 H   0  0  0  0  0  0
  -19.7905  -30.7254   24.2322 H   0  0  0  0  0  0
  -17.4999  -31.6277   24.5201 H   0  0  0  0  0  0
  -15.5345  -30.3019   23.7647 H   0  0  0  0  0  0
  -15.8651  -28.0859   22.7059 H   0  0  0  0  0  0
  -24.5893  -30.6992   25.7746 H   0  0  0  0  0  0
  -24.8821  -32.2805   26.4881 H   0  0  0  0  0  0
  -25.8000  -30.8843   27.0218 H   0  0  0  0  0  0
  -26.2859  -29.6856   24.1076 H   0  0  0  0  0  0
  -27.4055  -29.7270   25.4505 H   0  0  0  0  0  0
  -27.8675  -30.4436   23.9229 H   0  0  0  0  0  0
  -27.2581  -33.3632   26.2102 H   0  0  0  0  0  0
  -28.3831  -32.6881   25.0416 H   0  0  0  0  0  0
  -28.0608  -31.8470   26.5486 H   0  0  0  0  0  0
  -28.2529  -38.0154   24.7591 H   0  0  0  0  0  0
  -28.1121  -36.2683   24.6175 H   0  0  0  0  0  0
  -27.2285  -37.1340   25.8852 H   0  0  0  0  0  0
  -20.9255  -29.8772   21.6977 H   0  0  0  0  0  0
  -26.0159  -38.2869   24.1484 H   0  0  0  0  0  0
  -29.4381  -25.5819   16.3696 H   0  0  0  0  0  0
  -32.3678  -17.2103   19.9667 H   0  0  0  0  0  0
  -31.6027  -18.6671   20.5316 H   0  0  0  0  0  0
  -29.9305  -16.7321   17.0373 H   0  0  0  0  0  0
  -31.2844  -15.9673   17.8319 H   0  0  0  0  0  0
  -31.2450  -20.4176   14.8758 H   0  0  0  0  0  0
  -32.8809  -20.2255   15.4983 H   0  0  0  0  0  0
  -29.5492  -17.4655   21.1468 H   0  0  0  0  0  0
  -30.9114  -16.6614   21.8663 H   0  0  0  0  0  0
  -29.0641  -15.0725   18.4166 H   0  0  0  0  0  0
  -28.5432  -16.5828   19.0884 H   0  0  0  0  0  0
  -32.0585  -17.9664   15.7210 H   0  0  0  0  0  0
  -30.4488  -18.5748   16.0956 H   0  0  0  0  0  0
  -31.6014  -20.4049   19.0756 H   0  0  0  0  0  0
  -33.1180  -20.2929   18.2232 H   0  0  0  0  0  0
  -29.9694  -18.5826   18.6598 H   0  0  0  0  0  0
  -32.0264  -21.9632   16.9230 H   0  0  0  0  0  0
  -29.5675  -24.0585   14.5171 H   0  0  0  0  0  0
  -29.5742  -22.3171   14.7667 H   0  0  0  0  0  0
  -31.0694  -23.2427   14.9574 H   0  0  0  0  0  0
  -29.4572  -24.7748   21.2459 H   0  0  0  0  0  0
  -28.7161  -23.2144   21.4117 H   0  0  0  0  0  0
  -27.7242  -24.5728   20.9413 H   0  0  0  0  0  0
  -28.1251  -21.4220   20.2896 H   0  0  0  0  0  0
  -29.8860  -21.2528   20.4293 H   0  0  0  0  0  0
  -28.9787  -20.4553   19.1397 H   0  0  0  0  0  0
  -28.3555  -26.9678   17.9891 H   0  0  0  0  0  0
  -29.9278  -26.9256   18.7232 H   0  0  0  0  0  0
  -32.7327  -18.2547   17.8071 H   0  0  0  0  0  0
  1 25  1  0  0  0
  1 30  2  0  0  0
  1 90  1  0  0  0
  2  3  1  0  0  0
  2 25  1  0  0  0
  2 93  1  0  0  0
  2 94  1  0  0  0
  3  4  1  0  0  0
  3 95  1  0  0  0
  3 96  1  0  0  0
  4  5  1  0  0  0
  4 97  1  0  0  0
  4 98  1  0  0  0
  5  6  1  0  0  0
  5 26  1  0  0  0
  5 99  1  0  0  0
  6 25  1  0  0  0
  6100  1  0  0  0
  6101  1  0  0  0
  7  8  2  0  0  0
  7 26  1  0  0  0
  7 29  1  0  0  0
  8  9  1  0  0  0
  8 22  1  0  0  0
  9 10  1  0  0  0
  9 27  2  0  0  0
 10 11  2  0  0  0
 10 15  1  0  0  0
 11 12  1  0  0  0
 11102  1  0  0  0
 12 13  2  0  0  0
 12103  1  0  0  0
 13 14  1  0  0  0
 13 31  1  0  0  0
 14 15  2  0  0  0
 14104  1  0  0  0
 15105  1  0  0  0
 16 17  2  0  0  0
 16 21  1  0  0  0
 16 31  1  0  0  0
 17 18  1  0  0  0
 17106  1  0  0  0
 18 19  2  0  0  0
 18107  1  0  0  0
 19 20  1  0  0  0
 19 24  1  0  0  0
 20 21  2  0  0  0
 20108  1  0  0  0
 21 23  1  0  0  0
 22 28  1  0  0  0
 22 32  2  0  0  0
 26 27  1  0  0  0
 28109  1  0  0  0
 28110  1  0  0  0
 29111  1  0  0  0
 29112  1  0  0  0
 33 34  1  0  0  0
 33 66  1  0  0  0
 33 70  2  0  0  0
 34 36  1  0  0  0
 34 59  1  0  0  0
 34113  1  0  0  0
 35 44  2  0  0  0
 35 45  1  0  0  0
 35 68  1  0  0  0
 36 56  1  0  0  0
 36114  1  0  0  0
 37 39  1  0  0  0
 37 47  1  0  0  0
 37 66  1  0  0  0
 37115  1  0  0  0
 38 43  2  0  0  0
 38 46  1  0  0  0
 38 47  1  0  0  0
 39 64  1  0  0  0
 39 67  2  0  0  0
 40 52  1  0  0  0
 40 53  2  0  0  0
 40 58  1  0  0  0
 41116  1  0  0  0
 41117  1  0  0  0
 41118  1  0  0  0
 41 48  1  0  0  0
 42 43  1  0  0  0
 42 66  1  0  0  0
 42119  1  0  0  0
 42120  1  0  0  0
 43 44  1  0  0  0
 44121  1  0  0  0
 45 46  2  0  0  0
 45122  1  0  0  0
 46123  1  0  0  0
 47124  1  0  0  0
 47125  1  0  0  0
 48 56  1  0  0  0
 48 65  1  0  0  0
 48126  1  0  0  0
 49 50  1  0  0  0
 49 53  1  0  0  0
 49 64  1  0  0  0
 49127  1  0  0  0
 50 51  1  0  0  0
 50128  1  0  0  0
 50129  1  0  0  0
 51 52  1  0  0  0
 51130  1  0  0  0
 51131  1  0  0  0
 52132  1  0  0  0
 52133  1  0  0  0
 53 54  1  0  0  0
 54 55  2  0  0  0
 54134  1  0  0  0
 55 57  1  0  0  0
 55135  1  0  0  0
 56 69  2  0  0  0
 57 58  2  0  0  0
 57136  1  0  0  0
 58137  1  0  0  0
 59 60  1  0  0  0
 59 61  1  0  0  0
 59 62  1  0  0  0
 60138  1  0  0  0
 60139  1  0  0  0
 60140  1  0  0  0
 61141  1  0  0  0
 61142  1  0  0  0
 61143  1  0  0  0
 62144  1  0  0  0
 62145  1  0  0  0
 62146  1  0  0  0
 63 65  1  0  0  0
 63147  1  0  0  0
 63148  1  0  0  0
 63149  1  0  0  0
 64150  1  0  0  0
 65151  1  0  0  0
 68 89  1  0  0  0
 71 72  2  0  0  0
 71 73  1  0  0  0
 71152  1  0  0  0
 72 74  1  0  0  0
 72 89  1  0  0  0
 73 76  2  0  0  0
 73 86  1  0  0  0
 74 75  2  0  0  0
 74 87  1  0  0  0
 75 76  1  0  0  0
 75 88  1  0  0  0
 76 92  1  0  0  0
 77 80  1  0  0  0
 77153  1  0  0  0
 77154  1  0  0  0
 77 84  1  0  0  0
 78 81  1  0  0  0
 78 84  1  0  0  0
 78155  1  0  0  0
 78156  1  0  0  0
 79 82  1  0  0  0
 79 85  1  0  0  0
 79157  1  0  0  0
 79158  1  0  0  0
 80 90  1  0  0  0
 80159  1  0  0  0
 80160  1  0  0  0
 81 90  1  0  0  0
 81161  1  0  0  0
 81162  1  0  0  0
 82163  1  0  0  0
 82164  1  0  0  0
 82 91  1  0  0  0
 83 85  1  0  0  0
 83 91  1  0  0  0
 83165  1  0  0  0
 83166  1  0  0  0
 84 91  1  0  0  0
 84167  1  0  0  0
 85 92  1  0  0  0
 85168  1  0  0  0
 86169  1  0  0  0
 86170  1  0  0  0
 86171  1  0  0  0
 87172  1  0  0  0
 87173  1  0  0  0
 87174  1  0  0  0
 88175  1  0  0  0
 88176  1  0  0  0
 88177  1  0  0  0
 89178  1  0  0  0
 89179  1  0  0  0
 91180  1  0  0  0
M  CHG  1  91   1
M  ISO  4   1 100  68 101  89 101  90 100
M  END
> <chiral flag>
0

> <version>
0

> <s_m_source_file>
/data/baiqing/PycharmProjects/Reinvent-master-3.2/result/LINK_invent/BTK/process_docking_weight1_custom_sum_contain_oxygen_bond_distance_aromatic_linkinvent_7_9_3/rearranged_h_0162.sdf

> <i_m_source_file_index>
94

> <r_mmod_Potential_Energy-OPLS-2005>
243.680480957031

> <r_mmod_Stretch_Energy-OPLS-2005>
41.6045455932617

> <r_mmod_Bend_Energy-OPLS-2005>
142.357208251953

> <r_mmod_Torsional_Energy-OPLS-2005>
463.254669189453

> <r_mmod_Improper_Torsional_Energy-OPLS-2005>
11.7296371459961

> <r_mmod_Van_der_Waal_Energy-OPLS-2005>
169.495712280273

> <r_mmod_Electrostatic_Energy-OPLS-2005>
-213.933639526367

> <r_mmod_Solvation_Energy-OPLS-2005>
-401.304138183594

> <b_mmod_Minimization_Converged-OPLS-2005>
0

> <r_mmod_RMS_Derivative-OPLS-2005>
2.61451554298401

$$$$
95
                    3D
 Structure written by MMmdl.
175184  0  0  1  0            999 V2000
  -30.6677  -14.4868   20.5946 C   0  0  0  0  0  0
  -30.4347  -12.3269   19.4091 C   0  0  0  0  0  0
  -29.4938  -12.5133   18.1994 C   0  0  0  0  0  0
  -28.0172  -12.3592   18.6185 C   0  0  0  0  0  0
  -27.6628  -13.1974   19.8756 C   0  0  2  0  0  0
  -28.7033  -12.9559   20.9917 C   0  0  0  0  0  0
  -25.2601  -13.8148   20.5674 C   0  0  0  0  0  0
  -24.1834  -13.0443   20.9172 C   0  0  0  0  0  0
  -24.6365  -11.6902   20.8728 C   0  0  0  0  0  0
  -23.9033  -10.4290   21.0396 C   0  0  0  0  0  0
  -24.3588   -9.4206   21.9172 C   0  0  0  0  0  0
  -23.6273   -8.2239   22.0755 C   0  0  0  0  0  0
  -22.4250   -8.0272   21.3546 C   0  0  0  0  0  0
  -21.9876   -9.0248   20.4649 C   0  0  0  0  0  0
  -22.7204  -10.2131   20.3049 C   0  0  0  0  0  0
  -21.6846   -6.0726   22.5277 C   0  0  0  0  0  0
  -21.4018   -6.5632   23.8210 C   0  0  0  0  0  0
  -21.3660   -5.6788   24.9174 C   0  0  0  0  0  0
  -21.6039   -4.3051   24.7223 C   0  0  0  0  0  0
  -21.8817   -3.8140   23.4347 C   0  0  0  0  0  0
  -21.9191   -4.6957   22.3402 C   0  0  0  0  0  0
  -22.7859  -13.5251   21.1834 C   0  0  0  0  0  0
  -22.1660   -4.2148   21.0978 F   0  0  0  0  0  0
  -21.5629   -3.4531   25.7739 F   0  0  0  0  0  0
  -30.0342  -13.2908   20.4463 N   0  0  0  0  0  0
  -26.3018  -12.9293   20.3350 N   0  0  0  0  0  0
  -25.9285  -11.6461   20.5732 N   0  0  0  0  0  0
  -22.0491  -12.8260   22.0398 N   0  0  0  0  0  0
  -25.4361  -15.1864   20.4107 N   0  0  0  0  0  0
  -31.7686  -14.7296   20.0925 O   0  0  0  0  0  0
  -21.6624   -6.8868   21.4236 O   0  0  0  0  0  0
  -22.3553  -14.5561   20.6690 O   0  0  0  0  0  0
  -24.6180  -31.8665   23.2078 C   0  0  0  0  0  0
  -25.9061  -32.4820   23.8381 C   0  0  1  0  0  0
  -27.2396  -27.4159   20.1086 C   0  0  0  0  0  0
  -25.5897  -33.8615   24.2317 N   0  0  0  0  0  0
  -23.4079  -30.4887   21.5489 C   0  0  2  0  0  0
  -24.8570  -28.9506   20.1159 C   0  0  0  0  0  0
  -22.7430  -29.4658   22.4988 C   0  0  0  0  0  0
  -18.0277  -28.1370   22.8502 C   0  0  0  0  0  0
  -24.1481  -36.7311   23.2639 C   0  0  0  0  0  0
  -25.9376  -30.8283   21.3619 C   0  0  0  0  0  0
  -26.0185  -29.4601   20.7117 C   0  0  0  0  0  0
  -27.2156  -28.7028   20.7008 C   0  0  0  0  0  0
  -26.0639  -26.9283   19.5006 C   0  0  0  0  0  0
  -24.8758  -27.6843   19.5055 C   0  0  0  0  0  0
  -23.6189  -29.8188   20.1647 C   0  0  0  0  0  0
  -25.4103  -36.3114   24.0342 C   0  0  1  0  0  0
  -20.5870  -28.3666   23.1318 C   0  0  2  0  0  0
  -20.6765  -26.9397   22.5421 C   0  0  0  0  0  0
  -19.5742  -26.6387   21.5216 C   0  0  0  0  0  0
  -18.1921  -26.7921   22.1629 C   0  0  0  0  0  0
  -19.1527  -28.8835   23.2907 C   0  0  0  0  0  0
  -18.9448  -30.1441   23.8921 C   0  0  0  0  0  0
  -17.6450  -30.6579   24.0570 C   0  0  0  0  0  0
  -25.9031  -34.9479   23.5129 C   0  0  0  0  0  0
  -16.5346  -29.9083   23.6324 C   0  0  0  0  0  0
  -16.7267  -28.6497   23.0353 C   0  0  0  0  0  0
  -26.4477  -31.6600   25.0713 C   0  0  0  0  0  0
  -25.3743  -31.3708   26.1463 C   0  0  0  0  0  0
  -27.0294  -30.3043   24.6081 C   0  0  0  0  0  0
  -27.6063  -32.4311   25.7462 C   0  0  0  0  0  0
  -27.5579  -37.1805   24.8466 C   0  0  0  0  0  0
  -21.4154  -29.3034   22.3722 N   0  0  0  0  0  0
  -26.4291  -37.3798   23.9410 N   0  0  0  0  0  0
  -24.6729  -31.0751   22.0986 N   0  0  0  0  0  0
  -23.4189  -28.8208   23.3050 O   0  0  0  0  0  0
  -28.3818  -26.6371   20.1094 O   0  0  0  0  0  0
  -26.5602  -34.8937   22.4694 O   0  0  0  0  0  0
  -23.5367  -32.1421   23.7463 O   0  0  0  0  0  0
  -30.3547  -22.5803   18.9838 C   0  0  0  0  0  0
  -31.3471  -23.3098   18.2643 C   0  0  0  0  0  0
  -30.4905  -21.1486   19.0538 C   0  0  0  0  0  0
  -32.4161  -22.6069   17.6713 C   0  0  0  0  0  0
  -31.5296  -20.5556   18.2828 C   0  0  0  0  0  0
  -29.3655  -17.8140   20.4949 C   0  0  0  0  0  0
  -31.1876  -18.9826   21.3259 C   0  0  0  0  0  0
  -30.0866  -16.8683   21.4497 C   0  0  2  0  0  0
  -31.4838  -17.4823   21.5800 C   0  0  2  0  0  0
  -31.2894  -24.8287   18.0851 C   0  0  0  0  0  0
  -33.5532  -23.3044   16.9456 C   0  0  0  0  0  0
  -31.6372  -19.0653   17.9930 C   0  0  0  0  0  0
  -32.1831  -17.2026   22.9166 C   0  0  0  0  0  0
  -29.1275  -23.3453   19.5375 C   0  0  0  0  0  0
  -29.4965  -20.2642   19.8557 C   0  0  0  0  0  0
  -29.4048  -24.3848   20.6631 C   0  0  0  0  0  0
  -28.2721  -25.4274   20.8919 C   0  0  0  0  0  0
  -32.4802  -21.2689   17.6567 N   0  0  0  0  0  0
  -29.9927  -19.0096   20.4745 N   0  0  0  0  0  0
  -29.9356  -15.4143   21.2374 N   0  0  0  0  0  0
  -28.3397  -17.5005   19.8853 O   0  0  0  0  0  0
  -31.4743  -12.4573   19.1037 H   0  0  0  0  0  0
  -30.3665  -11.3092   19.7967 H   0  0  0  0  0  0
  -29.7356  -11.7890   17.4204 H   0  0  0  0  0  0
  -29.6483  -13.4988   17.7568 H   0  0  0  0  0  0
  -27.8409  -11.3026   18.8229 H   0  0  0  0  0  0
  -27.3579  -12.6219   17.7900 H   0  0  0  0  0  0
  -27.7143  -14.2466   19.5837 H   0  0  0  0  0  0
  -28.6874  -11.9099   21.2999 H   0  0  0  0  0  0
  -28.4502  -13.5148   21.8936 H   0  0  0  0  0  0
  -25.2744   -9.5689   22.4741 H   0  0  0  0  0  0
  -23.9999   -7.4622   22.7466 H   0  0  0  0  0  0
  -21.0816   -8.8747   19.8948 H   0  0  0  0  0  0
  -22.3656  -10.9659   19.6151 H   0  0  0  0  0  0
  -21.2012   -7.6142   23.9718 H   0  0  0  0  0  0
  -21.1484   -6.0516   25.9080 H   0  0  0  0  0  0
  -22.0596   -2.7605   23.2836 H   0  0  0  0  0  0
  -22.4109  -11.9940   22.4822 H   0  0  0  0  0  0
  -21.1110  -13.1296   22.2585 H   0  0  0  0  0  0
  -24.6735  -15.8450   20.5237 H   0  0  0  0  0  0
  -26.2941  -15.6292   20.1015 H   0  0  0  0  0  0
  -26.7138  -32.5535   23.1149 H   0  0  0  0  0  0
  -25.0044  -33.9761   25.0462 H   0  0  0  0  0  0
  -22.6994  -31.3071   21.4076 H   0  0  0  0  0  0
  -23.3747  -35.9639   23.3312 H   0  0  0  0  0  0
  -24.3582  -36.8914   22.2051 H   0  0  0  0  0  0
  -23.7227  -37.6517   23.6645 H   0  0  0  0  0  0
  -26.0477  -31.5916   20.5901 H   0  0  0  0  0  0
  -26.8272  -30.8870   21.9774 H   0  0  0  0  0  0
  -28.1120  -29.0932   21.1618 H   0  0  0  0  0  0
  -26.0668  -25.9570   19.0259 H   0  0  0  0  0  0
  -23.9852  -27.2862   19.0390 H   0  0  0  0  0  0
  -23.7300  -30.5932   19.4047 H   0  0  0  0  0  0
  -22.7427  -29.2397   19.8677 H   0  0  0  0  0  0
  -25.1278  -36.1978   25.0838 H   0  0  0  0  0  0
  -20.9966  -28.3226   24.1438 H   0  0  0  0  0  0
  -20.5666  -26.2269   23.3609 H   0  0  0  0  0  0
  -21.6634  -26.7434   22.1215 H   0  0  0  0  0  0
  -19.6899  -25.6306   21.1227 H   0  0  0  0  0  0
  -19.6672  -27.3220   20.6764 H   0  0  0  0  0  0
  -17.4191  -26.6688   21.4026 H   0  0  0  0  0  0
  -18.0308  -26.0050   22.9011 H   0  0  0  0  0  0
  -19.7923  -30.7249   24.2303 H   0  0  0  0  0  0
  -17.5005  -31.6263   24.5164 H   0  0  0  0  0  0
  -15.5347  -30.2991   23.7628 H   0  0  0  0  0  0
  -15.8671  -28.0821   22.7059 H   0  0  0  0  0  0
  -24.5912  -30.7060   25.7797 H   0  0  0  0  0  0
  -24.8936  -32.2863   26.4922 H   0  0  0  0  0  0
  -25.8099  -30.8865   27.0212 H   0  0  0  0  0  0
  -26.2820  -29.6808   24.1162 H   0  0  0  0  0  0
  -27.4094  -29.7278   25.4524 H   0  0  0  0  0  0
  -27.8646  -30.4360   23.9199 H   0  0  0  0  0  0
  -27.2702  -33.3611   26.2055 H   0  0  0  0  0  0
  -28.3854  -32.6870   25.0269 H   0  0  0  0  0  0
  -28.0751  -31.8423   26.5356 H   0  0  0  0  0  0
  -28.2613  -38.0088   24.7518 H   0  0  0  0  0  0
  -28.1060  -36.2627   24.6285 H   0  0  0  0  0  0
  -27.2305  -37.1453   25.8872 H   0  0  0  0  0  0
  -20.9319  -29.8749   21.6933 H   0  0  0  0  0  0
  -26.0186  -38.2879   24.1416 H   0  0  0  0  0  0
  -32.0384  -19.4924   20.8763 H   0  0  0  0  0  0
  -30.9546  -19.5009   22.2568 H   0  0  0  0  0  0
  -29.5813  -17.0399   22.4010 H   0  0  0  0  0  0
  -32.1195  -17.1308   20.7673 H   0  0  0  0  0  0
  -30.2829  -25.2389   18.1434 H   0  0  0  0  0  0
  -31.6648  -25.1285   17.1066 H   0  0  0  0  0  0
  -31.9024  -25.3211   18.8411 H   0  0  0  0  0  0
  -33.9383  -24.1375   17.5338 H   0  0  0  0  0  0
  -33.2138  -23.6851   15.9821 H   0  0  0  0  0  0
  -34.3865  -22.6253   16.7596 H   0  0  0  0  0  0
  -30.6542  -18.6104   17.8786 H   0  0  0  0  0  0
  -32.1857  -18.5437   18.7742 H   0  0  0  0  0  0
  -32.1679  -18.8860   17.0572 H   0  0  0  0  0  0
  -31.6068  -17.5861   23.7590 H   0  0  0  0  0  0
  -33.1679  -17.6706   22.9463 H   0  0  0  0  0  0
  -32.3206  -16.1315   23.0677 H   0  0  0  0  0  0
  -28.3473  -22.6644   19.8713 H   0  0  0  0  0  0
  -28.6639  -23.8537   18.6915 H   0  0  0  0  0  0
  -28.6498  -20.0467   19.2028 H   0  0  0  0  0  0
  -29.0964  -20.8358   20.6923 H   0  0  0  0  0  0
  -30.3359  -24.9233   20.5068 H   0  0  0  0  0  0
  -29.5636  -23.8267   21.5866 H   0  0  0  0  0  0
  -28.3048  -25.7369   21.9382 H   0  0  0  0  0  0
  -27.3055  -24.9380   20.7627 H   0  0  0  0  0  0
  -29.0485  -15.0567   21.5585 H   0  0  0  0  0  0
  1 25  1  0  0  0
  1 30  2  0  0  0
  1 90  1  0  0  0
  2  3  1  0  0  0
  2 25  1  0  0  0
  2 92  1  0  0  0
  2 93  1  0  0  0
  3  4  1  0  0  0
  3 94  1  0  0  0
  3 95  1  0  0  0
  4  5  1  0  0  0
  4 96  1  0  0  0
  4 97  1  0  0  0
  5  6  1  0  0  0
  5 26  1  0  0  0
  5 98  1  0  0  0
  6 25  1  0  0  0
  6 99  1  0  0  0
  6100  1  0  0  0
  7  8  2  0  0  0
  7 26  1  0  0  0
  7 29  1  0  0  0
  8  9  1  0  0  0
  8 22  1  0  0  0
  9 10  1  0  0  0
  9 27  2  0  0  0
 10 11  2  0  0  0
 10 15  1  0  0  0
 11 12  1  0  0  0
 11101  1  0  0  0
 12 13  2  0  0  0
 12102  1  0  0  0
 13 14  1  0  0  0
 13 31  1  0  0  0
 14 15  2  0  0  0
 14103  1  0  0  0
 15104  1  0  0  0
 16 17  2  0  0  0
 16 21  1  0  0  0
 16 31  1  0  0  0
 17 18  1  0  0  0
 17105  1  0  0  0
 18 19  2  0  0  0
 18106  1  0  0  0
 19 20  1  0  0  0
 19 24  1  0  0  0
 20 21  2  0  0  0
 20107  1  0  0  0
 21 23  1  0  0  0
 22 28  1  0  0  0
 22 32  2  0  0  0
 26 27  1  0  0  0
 28108  1  0  0  0
 28109  1  0  0  0
 29110  1  0  0  0
 29111  1  0  0  0
 33 34  1  0  0  0
 33 66  1  0  0  0
 33 70  2  0  0  0
 34 36  1  0  0  0
 34 59  1  0  0  0
 34112  1  0  0  0
 35 44  2  0  0  0
 35 45  1  0  0  0
 35 68  1  0  0  0
 36 56  1  0  0  0
 36113  1  0  0  0
 37 39  1  0  0  0
 37 47  1  0  0  0
 37 66  1  0  0  0
 37114  1  0  0  0
 38 43  2  0  0  0
 38 46  1  0  0  0
 38 47  1  0  0  0
 39 64  1  0  0  0
 39 67  2  0  0  0
 40 52  1  0  0  0
 40 53  2  0  0  0
 40 58  1  0  0  0
 41115  1  0  0  0
 41116  1  0  0  0
 41117  1  0  0  0
 41 48  1  0  0  0
 42 43  1  0  0  0
 42 66  1  0  0  0
 42118  1  0  0  0
 42119  1  0  0  0
 43 44  1  0  0  0
 44120  1  0  0  0
 45 46  2  0  0  0
 45121  1  0  0  0
 46122  1  0  0  0
 47123  1  0  0  0
 47124  1  0  0  0
 48 56  1  0  0  0
 48 65  1  0  0  0
 48125  1  0  0  0
 49 50  1  0  0  0
 49 53  1  0  0  0
 49 64  1  0  0  0
 49126  1  0  0  0
 50 51  1  0  0  0
 50127  1  0  0  0
 50128  1  0  0  0
 51 52  1  0  0  0
 51129  1  0  0  0
 51130  1  0  0  0
 52131  1  0  0  0
 52132  1  0  0  0
 53 54  1  0  0  0
 54 55  2  0  0  0
 54133  1  0  0  0
 55 57  1  0  0  0
 55134  1  0  0  0
 56 69  2  0  0  0
 57 58  2  0  0  0
 57135  1  0  0  0
 58136  1  0  0  0
 59 60  1  0  0  0
 59 61  1  0  0  0
 59 62  1  0  0  0
 60137  1  0  0  0
 60138  1  0  0  0
 60139  1  0  0  0
 61140  1  0  0  0
 61141  1  0  0  0
 61142  1  0  0  0
 62143  1  0  0  0
 62144  1  0  0  0
 62145  1  0  0  0
 63 65  1  0  0  0
 63146  1  0  0  0
 63147  1  0  0  0
 63148  1  0  0  0
 64149  1  0  0  0
 65150  1  0  0  0
 68 87  1  0  0  0
 71 72  2  0  0  0
 71 73  1  0  0  0
 71 84  1  0  0  0
 72 74  1  0  0  0
 72 80  1  0  0  0
 73 75  2  0  0  0
 73 85  1  0  0  0
 74 81  1  0  0  0
 74 88  2  0  0  0
 75 82  1  0  0  0
 75 88  1  0  0  0
 76 78  1  0  0  0
 76 89  1  0  0  0
 76 91  2  0  0  0
 77 79  1  0  0  0
 77 89  1  0  0  0
 77151  1  0  0  0
 77152  1  0  0  0
 78 79  1  0  0  0
 78 90  1  0  0  0
 78153  1  0  0  0
 79 83  1  0  0  0
 79154  1  0  0  0
 80155  1  0  0  0
 80156  1  0  0  0
 80157  1  0  0  0
 81158  1  0  0  0
 81159  1  0  0  0
 81160  1  0  0  0
 82161  1  0  0  0
 82162  1  0  0  0
 82163  1  0  0  0
 83164  1  0  0  0
 83165  1  0  0  0
 83166  1  0  0  0
 84 86  1  0  0  0
 84167  1  0  0  0
 84168  1  0  0  0
 85 89  1  0  0  0
 85169  1  0  0  0
 85170  1  0  0  0
 86 87  1  0  0  0
 86171  1  0  0  0
 86172  1  0  0  0
 87173  1  0  0  0
 87174  1  0  0  0
 90175  1  0  0  0
M  ISO  4   1 100  68 101  87 101  90 100
M  END
> <chiral flag>
0

> <version>
0

> <s_m_source_file>
/data/baiqing/PycharmProjects/Reinvent-master-3.2/result/LINK_invent/BTK/process_docking_weight1_custom_sum_contain_oxygen_bond_distance_aromatic_linkinvent_7_9_3/rearranged_h_0162.sdf

> <i_m_source_file_index>
95

> <r_mmod_Potential_Energy-OPLS-2005>
-237.49723815918

> <r_mmod_Stretch_Energy-OPLS-2005>
49.8684158325195

> <r_mmod_Bend_Energy-OPLS-2005>
169.471694946289

> <r_mmod_Torsional_Energy-OPLS-2005>
250.178634643555

> <r_mmod_Improper_Torsional_Energy-OPLS-2005>
3.92399573326111

> <r_mmod_Van_der_Waal_Energy-OPLS-2005>
153.128204345703

> <r_mmod_Electrostatic_Energy-OPLS-2005>
-645.098815917969

> <r_mmod_Solvation_Energy-OPLS-2005>
-233.788543701172

> <b_mmod_Minimization_Converged-OPLS-2005>
0

> <r_mmod_RMS_Derivative-OPLS-2005>
1.83869576454163

$$$$
96
                    3D
 Structure written by MMmdl.
169178  0  0  1  0            999 V2000
  -30.7061  -14.4418   20.5653 C   0  0  0  0  0  0
  -30.4170  -12.2852   19.4200 C   0  0  0  0  0  0
  -29.4933  -12.4985   18.2034 C   0  0  0  0  0  0
  -28.0129  -12.3672   18.6134 C   0  0  0  0  0  0
  -27.6593  -13.2047   19.8727 C   0  0  2  0  0  0
  -28.6990  -12.9848   20.9948 C   0  0  0  0  0  0
  -25.2576  -13.8149   20.5688 C   0  0  0  0  0  0
  -24.1822  -13.0434   20.9167 C   0  0  0  0  0  0
  -24.6370  -11.6901   20.8715 C   0  0  0  0  0  0
  -23.9036  -10.4286   21.0391 C   0  0  0  0  0  0
  -24.3591   -9.4208   21.9175 C   0  0  0  0  0  0
  -23.6271   -8.2243   22.0756 C   0  0  0  0  0  0
  -22.4256   -8.0272   21.3541 C   0  0  0  0  0  0
  -21.9875   -9.0244   20.4647 C   0  0  0  0  0  0
  -22.7202  -10.2125   20.3049 C   0  0  0  0  0  0
  -21.6853   -6.0721   22.5272 C   0  0  0  0  0  0
  -21.4023   -6.5625   23.8206 C   0  0  0  0  0  0
  -21.3663   -5.6779   24.9166 C   0  0  0  0  0  0
  -21.6045   -4.3043   24.7221 C   0  0  0  0  0  0
  -21.8823   -3.8131   23.4346 C   0  0  0  0  0  0
  -21.9198   -4.6947   22.3399 C   0  0  0  0  0  0
  -22.7851  -13.5248   21.1831 C   0  0  0  0  0  0
  -22.1665   -4.2132   21.0978 F   0  0  0  0  0  0
  -21.5627   -3.4534   25.7737 F   0  0  0  0  0  0
  -30.0314  -13.2696   20.4391 N   0  0  0  0  0  0
  -26.3004  -12.9321   20.3345 N   0  0  0  0  0  0
  -25.9291  -11.6486   20.5737 N   0  0  0  0  0  0
  -22.0483  -12.8257   22.0395 N   0  0  0  0  0  0
  -25.4300  -15.1862   20.4142 N   0  0  0  0  0  0
  -31.8491  -14.6109   20.1223 O   0  0  0  0  0  0
  -21.6632   -6.8865   21.4233 O   0  0  0  0  0  0
  -22.3546  -14.5556   20.6677 O   0  0  0  0  0  0
  -24.6109  -31.8695   23.2134 C   0  0  0  0  0  0
  -25.9010  -32.4835   23.8426 C   0  0  1  0  0  0
  -27.2428  -27.4750   20.0917 C   0  0  0  0  0  0
  -25.5875  -33.8635   24.2357 N   0  0  0  0  0  0
  -23.3992  -30.4907   21.5523 C   0  0  2  0  0  0
  -24.8487  -28.9572   20.1193 C   0  0  0  0  0  0
  -22.7399  -29.4657   22.5018 C   0  0  0  0  0  0
  -18.0269  -28.1381   22.8499 C   0  0  0  0  0  0
  -24.1474  -36.7337   23.2641 C   0  0  0  0  0  0
  -25.9230  -30.8456   21.3622 C   0  0  0  0  0  0
  -26.0032  -29.4801   20.7164 C   0  0  0  0  0  0
  -27.2042  -28.7421   20.7083 C   0  0  0  0  0  0
  -26.0806  -26.9548   19.4901 C   0  0  0  0  0  0
  -24.8790  -27.6901   19.5080 C   0  0  0  0  0  0
  -23.6072  -29.8183   20.1676 C   0  0  0  0  0  0
  -25.4094  -36.3130   24.0340 C   0  0  1  0  0  0
  -20.5863  -28.3654   23.1341 C   0  0  2  0  0  0
  -20.6766  -26.9398   22.5429 C   0  0  0  0  0  0
  -19.5738  -26.6390   21.5228 C   0  0  0  0  0  0
  -18.1916  -26.7928   22.1633 C   0  0  0  0  0  0
  -19.1519  -28.8834   23.2917 C   0  0  0  0  0  0
  -18.9446  -30.1449   23.8917 C   0  0  0  0  0  0
  -17.6448  -30.6588   24.0577 C   0  0  0  0  0  0
  -25.9010  -34.9485   23.5145 C   0  0  0  0  0  0
  -16.5340  -29.9094   23.6332 C   0  0  0  0  0  0
  -16.7259  -28.6515   23.0342 C   0  0  0  0  0  0
  -26.4459  -31.6603   25.0734 C   0  0  0  0  0  0
  -25.3750  -31.3684   26.1499 C   0  0  0  0  0  0
  -27.0296  -30.3056   24.6082 C   0  0  0  0  0  0
  -27.6060  -32.4316   25.7475 C   0  0  0  0  0  0
  -27.5573  -37.1827   24.8462 C   0  0  0  0  0  0
  -21.4129  -29.3021   22.3750 N   0  0  0  0  0  0
  -26.4286  -37.3807   23.9402 N   0  0  0  0  0  0
  -24.6624  -31.0824   22.1020 N   0  0  0  0  0  0
  -23.4184  -28.8202   23.3053 O   0  0  0  0  0  0
  -28.4019  -26.7460   20.0567 O   0  0  0  0  0  0
  -26.5575  -34.8926   22.4709 O   0  0  0  0  0  0
  -23.5305  -32.1432   23.7540 O   0  0  0  0  0  0
  -29.8693  -21.4340   22.3326 C   0  0  0  0  0  0
  -27.5422  -21.6984   21.7357 C   0  0  0  0  0  0
  -28.5313  -19.4343   21.7751 C   0  0  0  0  0  0
  -28.7585  -22.2693   22.1358 C   0  0  0  0  0  0
  -29.7718  -20.0350   22.1567 C   0  0  0  0  0  0
  -27.4226  -20.3074   21.5411 C   0  0  0  0  0  0
  -28.5819  -17.4263   20.1249 C   0  0  0  0  0  0
  -28.8591  -16.9265   22.6634 C   0  0  0  0  0  0
  -29.8614  -16.5998   19.9306 C   0  0  0  0  0  0
  -30.0643  -16.0346   22.2721 C   0  0  0  0  0  0
  -28.3388  -17.9051   21.5727 C   0  0  0  0  0  0
  -31.0473  -19.2471   22.3825 C   0  0  0  0  0  0
  -26.0661  -19.8076   21.0598 C   0  0  0  0  0  0
  -28.8579  -23.7717   22.3563 C   0  0  0  0  0  0
  -28.6921  -24.5763   21.0556 C   0  0  0  0  0  0
  -28.7118  -26.0940   21.2851 C   0  0  0  0  0  0
  -29.9466  -15.5073   20.9090 N   0  0  0  0  0  0
  -31.4640  -12.3746   19.1231 H   0  0  0  0  0  0
  -30.3044  -11.2751   19.8167 H   0  0  0  0  0  0
  -29.7289  -11.7756   17.4205 H   0  0  0  0  0  0
  -29.6698  -13.4854   17.7719 H   0  0  0  0  0  0
  -27.8171  -11.3116   18.8046 H   0  0  0  0  0  0
  -27.3652  -12.6486   17.7814 H   0  0  0  0  0  0
  -27.7040  -14.2524   19.5758 H   0  0  0  0  0  0
  -28.6628  -11.9560   21.3553 H   0  0  0  0  0  0
  -28.4690  -13.6109   21.8586 H   0  0  0  0  0  0
  -25.2743   -9.5699   22.4741 H   0  0  0  0  0  0
  -23.9989   -7.4644   22.7481 H   0  0  0  0  0  0
  -21.0805   -8.8757   19.8960 H   0  0  0  0  0  0
  -22.3652  -10.9659   19.6157 H   0  0  0  0  0  0
  -21.2020   -7.6135   23.9707 H   0  0  0  0  0  0
  -21.1481   -6.0505   25.9069 H   0  0  0  0  0  0
  -22.0600   -2.7594   23.2846 H   0  0  0  0  0  0
  -22.4078  -11.9916   22.4800 H   0  0  0  0  0  0
  -21.1110  -13.1313   22.2603 H   0  0  0  0  0  0
  -24.6671  -15.8437   20.5292 H   0  0  0  0  0  0
  -26.2951  -15.6210   20.1222 H   0  0  0  0  0  0
  -26.7088  -32.5557   23.1205 H   0  0  0  0  0  0
  -25.0044  -33.9809   25.0516 H   0  0  0  0  0  0
  -22.6876  -31.3073   21.4130 H   0  0  0  0  0  0
  -23.3714  -35.9691   23.3322 H   0  0  0  0  0  0
  -24.3572  -36.8931   22.2054 H   0  0  0  0  0  0
  -23.7246  -37.6555   23.6643 H   0  0  0  0  0  0
  -26.0278  -31.6102   20.5904 H   0  0  0  0  0  0
  -26.8148  -30.9056   21.9743 H   0  0  0  0  0  0
  -28.0988  -29.1438   21.1635 H   0  0  0  0  0  0
  -26.1076  -25.9847   19.0137 H   0  0  0  0  0  0
  -23.9918  -27.2793   19.0462 H   0  0  0  0  0  0
  -23.7118  -30.5917   19.4060 H   0  0  0  0  0  0
  -22.7336  -29.2330   19.8743 H   0  0  0  0  0  0
  -25.1272  -36.2012   25.0833 H   0  0  0  0  0  0
  -20.9957  -28.3211   24.1460 H   0  0  0  0  0  0
  -20.5696  -26.2253   23.3606 H   0  0  0  0  0  0
  -21.6634  -26.7462   22.1207 H   0  0  0  0  0  0
  -19.6897  -25.6306   21.1240 H   0  0  0  0  0  0
  -19.6678  -27.3218   20.6773 H   0  0  0  0  0  0
  -17.4199  -26.6692   21.4026 H   0  0  0  0  0  0
  -18.0297  -26.0073   22.9025 H   0  0  0  0  0  0
  -19.7921  -30.7271   24.2285 H   0  0  0  0  0  0
  -17.5000  -31.6264   24.5182 H   0  0  0  0  0  0
  -15.5339  -30.3000   23.7647 H   0  0  0  0  0  0
  -15.8659  -28.0852   22.7025 H   0  0  0  0  0  0
  -24.5909  -30.7037   25.7849 H   0  0  0  0  0  0
  -24.8941  -32.2818   26.5011 H   0  0  0  0  0  0
  -25.8128  -30.8819   27.0220 H   0  0  0  0  0  0
  -26.2824  -29.6799   24.1176 H   0  0  0  0  0  0
  -27.4129  -29.7312   25.4526 H   0  0  0  0  0  0
  -27.8631  -30.4407   23.9184 H   0  0  0  0  0  0
  -27.2698  -33.3604   26.2097 H   0  0  0  0  0  0
  -28.3831  -32.6898   25.0269 H   0  0  0  0  0  0
  -28.0770  -31.8412   26.5343 H   0  0  0  0  0  0
  -28.2619  -38.0102   24.7497 H   0  0  0  0  0  0
  -28.1043  -36.2636   24.6302 H   0  0  0  0  0  0
  -27.2292  -37.1503   25.8868 H   0  0  0  0  0  0
  -20.9290  -29.8732   21.6960 H   0  0  0  0  0  0
  -26.0176  -38.2884   24.1399 H   0  0  0  0  0  0
  -30.8115  -21.8771   22.6262 H   0  0  0  0  0  0
  -26.6903  -22.3440   21.5709 H   0  0  0  0  0  0
  -27.7431  -16.7972   19.8282 H   0  0  0  0  0  0
  -28.5631  -18.2686   19.4326 H   0  0  0  0  0  0
  -29.0330  -17.4447   23.6071 H   0  0  0  0  0  0
  -28.0438  -16.2347   22.8843 H   0  0  0  0  0  0
  -30.7487  -17.2273   19.9830 H   0  0  0  0  0  0
  -29.8503  -16.1930   18.9162 H   0  0  0  0  0  0
  -30.1312  -15.2114   22.9859 H   0  0  0  0  0  0
  -31.0096  -16.5643   22.3622 H   0  0  0  0  0  0
  -27.2685  -17.7676   21.7074 H   0  0  0  0  0  0
  -31.9055  -19.9047   22.5223 H   0  0  0  0  0  0
  -31.2769  -18.6292   21.5204 H   0  0  0  0  0  0
  -30.9758  -18.6332   23.2786 H   0  0  0  0  0  0
  -25.4023  -20.6326   20.8009 H   0  0  0  0  0  0
  -25.5682  -19.2263   21.8364 H   0  0  0  0  0  0
  -26.1703  -19.1906   20.1664 H   0  0  0  0  0  0
  -29.8090  -24.0180   22.8307 H   0  0  0  0  0  0
  -28.0828  -24.0591   23.0675 H   0  0  0  0  0  0
  -27.7486  -24.3079   20.5797 H   0  0  0  0  0  0
  -29.4789  -24.3044   20.3522 H   0  0  0  0  0  0
  -29.6980  -26.4164   21.6218 H   0  0  0  0  0  0
  -28.0092  -26.3554   22.0804 H   0  0  0  0  0  0
  1 25  1  0  0  0
  1 30  2  0  0  0
  1 87  1  0  0  0
  2  3  1  0  0  0
  2 25  1  0  0  0
  2 88  1  0  0  0
  2 89  1  0  0  0
  3  4  1  0  0  0
  3 90  1  0  0  0
  3 91  1  0  0  0
  4  5  1  0  0  0
  4 92  1  0  0  0
  4 93  1  0  0  0
  5  6  1  0  0  0
  5 26  1  0  0  0
  5 94  1  0  0  0
  6 25  1  0  0  0
  6 95  1  0  0  0
  6 96  1  0  0  0
  7  8  2  0  0  0
  7 26  1  0  0  0
  7 29  1  0  0  0
  8  9  1  0  0  0
  8 22  1  0  0  0
  9 10  1  0  0  0
  9 27  2  0  0  0
 10 11  2  0  0  0
 10 15  1  0  0  0
 11 12  1  0  0  0
 11 97  1  0  0  0
 12 13  2  0  0  0
 12 98  1  0  0  0
 13 14  1  0  0  0
 13 31  1  0  0  0
 14 15  2  0  0  0
 14 99  1  0  0  0
 15100  1  0  0  0
 16 17  2  0  0  0
 16 21  1  0  0  0
 16 31  1  0  0  0
 17 18  1  0  0  0
 17101  1  0  0  0
 18 19  2  0  0  0
 18102  1  0  0  0
 19 20  1  0  0  0
 19 24  1  0  0  0
 20 21  2  0  0  0
 20103  1  0  0  0
 21 23  1  0  0  0
 22 28  1  0  0  0
 22 32  2  0  0  0
 26 27  1  0  0  0
 28104  1  0  0  0
 28105  1  0  0  0
 29106  1  0  0  0
 29107  1  0  0  0
 33 34  1  0  0  0
 33 66  1  0  0  0
 33 70  2  0  0  0
 34 36  1  0  0  0
 34 59  1  0  0  0
 34108  1  0  0  0
 35 44  2  0  0  0
 35 45  1  0  0  0
 35 68  1  0  0  0
 36 56  1  0  0  0
 36109  1  0  0  0
 37 39  1  0  0  0
 37 47  1  0  0  0
 37 66  1  0  0  0
 37110  1  0  0  0
 38 43  2  0  0  0
 38 46  1  0  0  0
 38 47  1  0  0  0
 39 64  1  0  0  0
 39 67  2  0  0  0
 40 52  1  0  0  0
 40 53  2  0  0  0
 40 58  1  0  0  0
 41111  1  0  0  0
 41112  1  0  0  0
 41113  1  0  0  0
 41 48  1  0  0  0
 42 43  1  0  0  0
 42 66  1  0  0  0
 42114  1  0  0  0
 42115  1  0  0  0
 43 44  1  0  0  0
 44116  1  0  0  0
 45 46  2  0  0  0
 45117  1  0  0  0
 46118  1  0  0  0
 47119  1  0  0  0
 47120  1  0  0  0
 48 56  1  0  0  0
 48 65  1  0  0  0
 48121  1  0  0  0
 49 50  1  0  0  0
 49 53  1  0  0  0
 49 64  1  0  0  0
 49122  1  0  0  0
 50 51  1  0  0  0
 50123  1  0  0  0
 50124  1  0  0  0
 51 52  1  0  0  0
 51125  1  0  0  0
 51126  1  0  0  0
 52127  1  0  0  0
 52128  1  0  0  0
 53 54  1  0  0  0
 54 55  2  0  0  0
 54129  1  0  0  0
 55 57  1  0  0  0
 55130  1  0  0  0
 56 69  2  0  0  0
 57 58  2  0  0  0
 57131  1  0  0  0
 58132  1  0  0  0
 59 60  1  0  0  0
 59 61  1  0  0  0
 59 62  1  0  0  0
 60133  1  0  0  0
 60134  1  0  0  0
 60135  1  0  0  0
 61136  1  0  0  0
 61137  1  0  0  0
 61138  1  0  0  0
 62139  1  0  0  0
 62140  1  0  0  0
 62141  1  0  0  0
 63 65  1  0  0  0
 63142  1  0  0  0
 63143  1  0  0  0
 63144  1  0  0  0
 64145  1  0  0  0
 65146  1  0  0  0
 68 86  1  0  0  0
 71 74  2  0  0  0
 71 75  1  0  0  0
 71147  1  0  0  0
 72 74  1  0  0  0
 72 76  2  0  0  0
 72148  1  0  0  0
 73 75  2  0  0  0
 73 76  1  0  0  0
 73 81  1  0  0  0
 74 84  1  0  0  0
 75 82  1  0  0  0
 76 83  1  0  0  0
 77 79  1  0  0  0
 77 81  1  0  0  0
 77149  1  0  0  0
 77150  1  0  0  0
 78 80  1  0  0  0
 78 81  1  0  0  0
 78151  1  0  0  0
 78152  1  0  0  0
 79 87  1  0  0  0
 79153  1  0  0  0
 79154  1  0  0  0
 80 87  1  0  0  0
 80155  1  0  0  0
 80156  1  0  0  0
 81157  1  0  0  0
 82158  1  0  0  0
 82159  1  0  0  0
 82160  1  0  0  0
 83161  1  0  0  0
 83162  1  0  0  0
 83163  1  0  0  0
 84 85  1  0  0  0
 84164  1  0  0  0
 84165  1  0  0  0
 85 86  1  0  0  0
 85166  1  0  0  0
 85167  1  0  0  0
 86168  1  0  0  0
 86169  1  0  0  0
M  ISO  4   1 100  68 101  86 101  87 100
M  END
> <chiral flag>
0

> <version>
0

> <s_m_source_file>
/data/baiqing/PycharmProjects/Reinvent-master-3.2/result/LINK_invent/BTK/process_docking_weight1_custom_sum_contain_oxygen_bond_distance_aromatic_linkinvent_7_9_3/rearranged_h_0162.sdf

> <i_m_source_file_index>
96

> <r_mmod_Potential_Energy-OPLS-2005>
195.291442871094

> <r_mmod_Stretch_Energy-OPLS-2005>
39.0983848571777

> <r_mmod_Bend_Energy-OPLS-2005>
113.691673278809

> <r_mmod_Torsional_Energy-OPLS-2005>
360.228912353516

> <r_mmod_Improper_Torsional_Energy-OPLS-2005>
11.7341175079346

> <r_mmod_Van_der_Waal_Energy-OPLS-2005>
154.229476928711

> <r_mmod_Electrostatic_Energy-OPLS-2005>
-308.210479736328

> <r_mmod_Solvation_Energy-OPLS-2005>
-185.549407958984

> <b_mmod_Minimization_Converged-OPLS-2005>
0

> <r_mmod_RMS_Derivative-OPLS-2005>
1.61477077007294

$$$$
