0
     RDKit          3D

173183  0  0  0  0  0  0  0  0999 V2000
  -30.7652  -14.3608   20.6636 C   0  0  0  0  0  0  0  0  0100  0  0
  -30.4392  -12.2669   19.3775 C   0  0  0  0  0  0  0  0  0101  0  0
  -29.4791  -12.5281   18.1977 C   0  0  0  0  0  0  0  0  0102  0  0
  -27.9985  -12.3963   18.6038 C   0  0  0  0  0  0  0  0  0103  0  0
  -27.6639  -13.2170   19.8820 C   0  0  2  0  0  0  0  0  0104  0  0
  -28.6795  -12.9602   21.0279 C   0  0  0  0  0  0  0  0  0105  0  0
  -25.2633  -13.8245   20.5754 C   0  0  0  0  0  0  0  0  0106  0  0
  -24.1645  -13.0409   20.9408 C   0  0  0  0  0  0  0  0  0107  0  0
  -24.6400  -11.7009   20.8697 C   0  0  0  0  0  0  0  0  0108  0  0
  -23.9005  -10.4085   21.0420 C   0  0  0  0  0  0  0  0  0109  0  0
  -24.3588   -9.4123   21.9123 C   0  0  0  0  0  0  0  0  0110  0  0
  -23.6296   -8.2350   22.0803 C   0  0  0  0  0  0  0  0  0111  0  0
  -22.4385   -8.0419   21.3657 C   0  0  0  0  0  0  0  0  0112  0  0
  -22.0103   -9.0167   20.4678 C   0  0  0  0  0  0  0  0  0113  0  0
  -22.7317  -10.1925   20.3102 C   0  0  0  0  0  0  0  0  0114  0  0
  -21.6857   -6.0709   22.5391 C   0  0  0  0  0  0  0  0  0115  0  0
  -21.4064   -6.5490   23.8264 C   0  0  0  0  0  0  0  0  0116  0  0
  -21.3635   -5.6677   24.9085 C   0  0  0  0  0  0  0  0  0117  0  0
  -21.5973   -4.3067   24.7088 C   0  0  0  0  0  0  0  0  0118  0  0
  -21.8700   -3.8284   23.4282 C   0  0  0  0  0  0  0  0  0119  0  0
  -21.9144   -4.7056   22.3460 C   0  0  0  0  0  0  0  0  0120  0  0
  -22.8194  -13.5263   21.1763 C   0  0  0  0  0  0  0  0  0121  0  0
  -22.1559   -4.2206   21.1063 F   0  0  0  0  0  0  0  0  0122  0  0
  -21.5628   -3.4510   25.7555 F   0  0  0  0  0  0  0  0  0123  0  0
  -30.0261  -13.1803   20.4553 N   0  0  0  0  0  0  0  0  0124  0  0
  -26.2911  -12.9356   20.3443 N   0  0  0  0  0  0  0  0  0125  0  0
  -25.9236  -11.6675   20.5847 N   0  0  0  0  0  0  0  0  0126  0  0
  -22.0708  -12.7905   22.0005 N   0  0  0  0  0  0  0  0  0127  0  0
  -25.4117  -15.1773   20.4097 N   0  0  0  0  0  0  0  0  0128  0  0
  -31.7916  -14.6724   20.0536 O   0  0  0  0  0  0  0  0  0129  0  0
  -21.6670   -6.9022   21.4423 O   0  0  0  0  0  0  0  0  0130  0  0
  -22.3946  -14.5564   20.6568 O   0  0  0  0  0  0  0  0  0131  0  0
  -24.6048  -31.8614   23.2223 C   0  0  0  0  0  0  0  0  0100  0  0
  -25.8822  -32.4841   23.8616 C   0  0  1  0  0  0  0  0  0101  0  0
  -27.2536  -27.5042   20.1156 C   0  0  0  0  0  0  0  0  0102  0  0
  -25.5726  -33.8762   24.2210 N   0  0  0  0  0  0  0  0  0103  0  0
  -23.4066  -30.4859   21.5461 C   0  0  2  0  0  0  0  0  0104  0  0
  -24.8467  -28.9636   20.1247 C   0  0  0  0  0  0  0  0  0105  0  0
  -22.7412  -29.4652   22.5052 C   0  0  0  0  0  0  0  0  0106  0  0
  -18.0167  -28.1302   22.8626 C   0  0  0  0  0  0  0  0  0107  0  0
  -24.1342  -36.7390   23.2568 C   0  0  0  0  0  0  0  0  0108  0  0
  -25.9141  -30.8882   21.3456 C   0  0  0  0  0  0  0  0  0109  0  0
  -25.9930  -29.5029   20.7208 C   0  0  0  0  0  0  0  0  0110  0  0
  -27.1758  -28.7612   20.7331 C   0  0  0  0  0  0  0  0  0111  0  0
  -26.1032  -26.9836   19.5230 C   0  0  0  0  0  0  0  0  0112  0  0
  -24.9097  -27.7011   19.5331 C   0  0  0  0  0  0  0  0  0113  0  0
  -23.5715  -29.7899   20.1582 C   0  0  0  0  0  0  0  0  0114  0  0
  -25.3990  -36.3212   24.0232 C   0  0  1  0  0  0  0  0  0115  0  0
  -20.5793  -28.3813   23.1004 C   0  0  2  0  0  0  0  0  0116  0  0
  -20.6548  -26.9392   22.5411 C   0  0  0  0  0  0  0  0  0117  0  0
  -19.5615  -26.6407   21.5143 C   0  0  0  0  0  0  0  0  0118  0  0
  -18.1797  -26.7818   22.1673 C   0  0  0  0  0  0  0  0  0119  0  0
  -19.1385  -28.8769   23.2988 C   0  0  0  0  0  0  0  0  0120  0  0
  -18.9183  -30.1286   23.8878 C   0  0  0  0  0  0  0  0  0121  0  0
  -17.6396  -30.6493   24.0352 C   0  0  0  0  0  0  0  0  0122  0  0
  -25.9153  -34.9582   23.4993 C   0  0  0  0  0  0  0  0  0123  0  0
  -16.5415  -29.9068   23.6254 C   0  0  0  0  0  0  0  0  0124  0  0
  -16.7331  -28.6521   23.0586 C   0  0  0  0  0  0  0  0  0125  0  0
  -26.4583  -31.6439   25.0683 C   0  0  0  0  0  0  0  0  0126  0  0
  -25.3807  -31.3179   26.1374 C   0  0  0  0  0  0  0  0  0127  0  0
  -27.0530  -30.3024   24.5680 C   0  0  0  0  0  0  0  0  0128  0  0
  -27.6014  -32.4281   25.7651 C   0  0  0  0  0  0  0  0  0129  0  0
  -27.5629  -37.2220   24.8621 C   0  0  0  0  0  0  0  0  0130  0  0
  -21.4133  -29.3375   22.3735 N   0  0  0  0  0  0  0  0  0131  0  0
  -26.4706  -37.3372   23.9061 N   0  0  0  0  0  0  0  0  0132  0  0
  -24.6674  -31.0544   22.1178 N   0  0  0  0  0  0  0  0  0133  0  0
  -23.4259  -28.8150   23.2971 O   0  0  0  0  0  0  0  0  0134  0  0
  -28.3948  -26.7345   20.0089 O   0  0  0  0  0  0  0  0  0135  0  0
  -26.5870  -34.9065   22.4671 O   0  0  0  0  0  0  0  0  0136  0  0
  -23.5365  -32.1254   23.7833 O   0  0  0  0  0  0  0  0  0137  0  0
  -25.6518  -16.9918   26.9703 C   0  0  0  0  0  0  0  0  0  0  0  0
  -27.7627  -17.9028   27.6213 C   0  0  0  0  0  0  0  0  0  0  0  0
  -28.0470  -18.2048   26.2821 C   0  0  0  0  0  0  0  0  0  0  0  0
  -26.5687  -17.2963   27.9783 C   0  0  0  0  0  0  0  0  0  0  0  0
  -25.9392  -17.2876   25.6287 C   0  0  0  0  0  0  0  0  0  0  0  0
  -27.1470  -17.8935   25.2756 C   0  0  0  0  0  0  0  0  0  0  0  0
  -29.0614  -17.8468   21.9205 C   0  0  0  0  0  0  0  0  0  0  0  0
  -28.5865  -15.9683   23.5313 C   0  0  0  0  0  0  0  0  0  0  0  0
  -29.6633  -19.2768   27.6017 C   0  0  0  0  0  0  0  0  0  0  0  0
  -30.2772  -17.0778   21.4111 C   0  0  0  0  0  0  0  0  0  0  0  0
  -29.8135  -15.2377   22.9958 C   0  0  0  0  0  0  0  0  0  0  0  0
  -28.8984  -18.3031   28.5215 C   0  0  2  0  0  0  0  0  0  0  0  0
  -29.4097  -18.8153   26.1564 C   0  0  2  0  0  0  0  0  0  1  0  0
  -28.7317  -17.4881   23.3753 C   0  0  0  0  0  0  0  0  0  0  0  0
  -26.2100  -16.9869   29.3892 C   0  0  0  0  0  0  0  0  0  0  0  0
  -24.9230  -16.9478   24.5863 C   0  0  0  0  0  0  0  0  0  0  0  0
  -29.7446  -17.1073   28.9414 C   0  0  0  0  0  0  0  0  0  0  0  0
  -27.4661  -18.2052   23.8390 C   0  0  0  0  0  0  0  0  0  0  0  0
  -30.1248  -15.6382   21.6171 N   0  0  0  0  0  0  0  0  0  0  0  0
  -31.4485  -12.4701   19.0860 H   0  0  0  0  0  0  0  0  0  0  0  0
  -30.3970  -11.2460   19.6950 H   0  0  0  0  0  0  0  0  0  0  0  0
  -29.6870  -11.8204   17.4226 H   0  0  0  0  0  0  0  0  0  0  0  0
  -29.6375  -13.5326   17.8649 H   0  0  0  0  0  0  0  0  0  0  0  0
  -27.7830  -11.3650   18.7904 H   0  0  0  0  0  0  0  0  0  0  0  0
  -27.4028  -12.7801   17.8021 H   0  0  0  0  0  0  0  0  0  0  0  0
  -27.7353  -14.2503   19.6136 H   0  0  0  0  0  0  0  0  0  0  0  0
  -28.5890  -11.9550   21.3832 H   0  0  0  0  0  0  0  0  0  0  0  0
  -28.5005  -13.6134   21.8562 H   0  0  0  0  0  0  0  0  0  0  0  0
  -25.2399   -9.5495   22.4318 H   0  0  0  0  0  0  0  0  0  0  0  0
  -23.9663   -7.5070   22.7297 H   0  0  0  0  0  0  0  0  0  0  0  0
  -21.1515   -8.8641   19.9162 H   0  0  0  0  0  0  0  0  0  0  0  0
  -22.4016  -10.9115   19.6476 H   0  0  0  0  0  0  0  0  0  0  0  0
  -21.2319   -7.5552   23.9750 H   0  0  0  0  0  0  0  0  0  0  0  0
  -21.1589   -6.0228   25.8556 H   0  0  0  0  0  0  0  0  0  0  0  0
  -22.0396   -2.8212   23.2809 H   0  0  0  0  0  0  0  0  0  0  0  0
  -22.4401  -11.9703   22.4008 H   0  0  0  0  0  0  0  0  0  0  0  0
  -21.1493  -13.0679   22.2082 H   0  0  0  0  0  0  0  0  0  0  0  0
  -24.6538  -15.7807   20.5848 H   0  0  0  0  0  0  0  0  0  0  0  0
  -26.2762  -15.5453   20.1156 H   0  0  0  0  0  0  0  0  0  0  0  0
  -26.6778  -32.4663   23.1464 H   0  0  0  0  0  0  0  0  0  0  0  0
  -25.0747  -34.0282   25.0566 H   0  0  0  0  0  0  0  0  0  0  0  0
  -22.7881  -31.3489   21.4131 H   0  0  0  0  0  0  0  0  0  0  0  0
  -23.3854  -35.9823   23.3648 H   0  0  0  0  0  0  0  0  0  0  0  0
  -24.3696  -36.8624   22.2204 H   0  0  0  0  0  0  0  0  0  0  0  0
  -23.7669  -37.6632   23.6516 H   0  0  0  0  0  0  0  0  0  0  0  0
  -25.9445  -31.6237   20.5691 H   0  0  0  0  0  0  0  0  0  0  0  0
  -26.7436  -31.0079   22.0108 H   0  0  0  0  0  0  0  0  0  0  0  0
  -28.0090  -29.1452   21.2057 H   0  0  0  0  0  0  0  0  0  0  0  0
  -26.1369  -26.0560   19.0719 H   0  0  0  0  0  0  0  0  0  0  0  0
  -24.0652  -27.2961   19.0997 H   0  0  0  0  0  0  0  0  0  0  0  0
  -23.6156  -30.5365   19.3930 H   0  0  0  0  0  0  0  0  0  0  0  0
  -22.7355  -29.1425   19.9945 H   0  0  0  0  0  0  0  0  0  0  0  0
  -25.1353  -36.2335   25.0565 H   0  0  0  0  0  0  0  0  0  0  0  0
  -21.0070  -28.3206   24.0793 H   0  0  0  0  0  0  0  0  0  0  0  0
  -20.5555  -26.2518   23.3550 H   0  0  0  0  0  0  0  0  0  0  0  0
  -21.5974  -26.8362   22.0454 H   0  0  0  0  0  0  0  0  0  0  0  0
  -19.6810  -25.6422   21.1488 H   0  0  0  0  0  0  0  0  0  0  0  0
  -19.6406  -27.3343   20.7034 H   0  0  0  0  0  0  0  0  0  0  0  0
  -17.4282  -26.6888   21.4113 H   0  0  0  0  0  0  0  0  0  0  0  0
  -18.0803  -26.0130   22.9049 H   0  0  0  0  0  0  0  0  0  0  0  0
  -19.7265  -30.6774   24.2204 H   0  0  0  0  0  0  0  0  0  0  0  0
  -17.5064  -31.5856   24.4483 H   0  0  0  0  0  0  0  0  0  0  0  0
  -15.5878  -30.2839   23.7407 H   0  0  0  0  0  0  0  0  0  0  0  0
  -15.9120  -28.0941   22.7766 H   0  0  0  0  0  0  0  0  0  0  0  0
  -24.5787  -30.7757   25.6817 H   0  0  0  0  0  0  0  0  0  0  0  0
  -25.0041  -32.2289   26.5536 H   0  0  0  0  0  0  0  0  0  0  0  0
  -25.8166  -30.7245   26.9138 H   0  0  0  0  0  0  0  0  0  0  0  0
  -26.2892  -29.7335   24.0803 H   0  0  0  0  0  0  0  0  0  0  0  0
  -27.4336  -29.7484   25.4006 H   0  0  0  0  0  0  0  0  0  0  0  0
  -27.8466  -30.4994   23.8779 H   0  0  0  0  0  0  0  0  0  0  0  0
  -27.2251  -33.3632   26.1242 H   0  0  0  0  0  0  0  0  0  0  0  0
  -28.3902  -32.6065   25.0645 H   0  0  0  0  0  0  0  0  0  0  0  0
  -27.9772  -31.8555   26.5872 H   0  0  0  0  0  0  0  0  0  0  0  0
  -28.2744  -38.0016   24.6863 H   0  0  0  0  0  0  0  0  0  0  0  0
  -28.0396  -36.2711   24.7461 H   0  0  0  0  0  0  0  0  0  0  0  0
  -27.1773  -37.3087   25.8564 H   0  0  0  0  0  0  0  0  0  0  0  0
  -20.9627  -29.9365   21.7352 H   0  0  0  0  0  0  0  0  0  0  0  0
  -26.0447  -38.2561   24.0273 H   0  0  0  0  0  0  0  0  0  0  0  0
  -24.7541  -16.5449   27.2141 H   0  0  0  0  0  0  0  0  0  0  0  0
  -28.2186  -17.6098   21.3054 H   0  0  0  0  0  0  0  0  0  0  0  0
  -29.2858  -18.8921   21.8774 H   0  0  0  0  0  0  0  0  0  0  0  0
  -28.4662  -15.7341   24.5684 H   0  0  0  0  0  0  0  0  0  0  0  0
  -27.7323  -15.6508   22.9705 H   0  0  0  0  0  0  0  0  0  0  0  0
  -30.7102  -19.2444   27.8203 H   0  0  0  0  0  0  0  0  0  0  0  0
  -29.3308  -20.2834   27.7471 H   0  0  0  0  0  0  0  0  0  0  0  0
  -31.1466  -17.4142   21.9363 H   0  0  0  0  0  0  0  0  0  0  0  0
  -30.3733  -17.2586   20.3609 H   0  0  0  0  0  0  0  0  0  0  0  0
  -29.6268  -14.1843   23.0173 H   0  0  0  0  0  0  0  0  0  0  0  0
  -30.6493  -15.4913   23.6139 H   0  0  0  0  0  0  0  0  0  0  0  0
  -28.5979  -18.7295   29.4557 H   0  0  0  0  0  0  0  0  0  0  0  0
  -30.1893  -18.1895   25.7751 H   0  0  0  0  0  0  0  0  0  0  0  0
  -29.5404  -17.8154   23.9948 H   0  0  0  0  0  0  0  0  0  0  0  0
  -25.2464  -16.5227   29.4186 H   0  0  0  0  0  0  0  0  0  0  0  0
  -26.1870  -17.8928   29.9582 H   0  0  0  0  0  0  0  0  0  0  0  0
  -26.9387  -16.3228   29.8051 H   0  0  0  0  0  0  0  0  0  0  0  0
  -24.0730  -16.4939   25.0514 H   0  0  0  0  0  0  0  0  0  0  0  0
  -25.3500  -16.2660   23.8808 H   0  0  0  0  0  0  0  0  0  0  0  0
  -24.6187  -17.8403   24.0806 H   0  0  0  0  0  0  0  0  0  0  0  0
  -30.1024  -16.6000   28.0699 H   0  0  0  0  0  0  0  0  0  0  0  0
  -29.1495  -16.4367   29.5254 H   0  0  0  0  0  0  0  0  0  0  0  0
  -30.5760  -17.4456   29.5238 H   0  0  0  0  0  0  0  0  0  0  0  0
  -27.6077  -19.2608   23.7360 H   0  0  0  0  0  0  0  0  0  0  0  0
  -26.6502  -17.8680   23.2345 H   0  0  0  0  0  0  0  0  0  0  0  0
  1 25  1  0
  1 30  2  0
  1 89  1  0
  2  3  1  0
  2 25  1  0
  2 90  1  0
  2 91  1  0
  3  4  1  0
  3 92  1  0
  3 93  1  0
  4  5  1  0
  4 94  1  0
  4 95  1  0
  5  6  1  0
  5 26  1  0
  5 96  1  6
  6 25  1  0
  6 97  1  0
  6 98  1  0
  7  8  2  0
  7 26  1  0
  7 29  1  0
  8  9  1  0
  8 22  1  0
  9 10  1  0
  9 27  2  0
 10 11  2  0
 10 15  1  0
 11 12  1  0
 11 99  1  0
 12 13  2  0
 12100  1  0
 13 14  1  0
 13 31  1  0
 14 15  2  0
 14101  1  0
 15102  1  0
 16 17  2  0
 16 21  1  0
 16 31  1  0
 17 18  1  0
 17103  1  0
 18 19  2  0
 18104  1  0
 19 20  1  0
 19 24  1  0
 20 21  2  0
 20105  1  0
 21 23  1  0
 22 28  1  0
 22 32  2  0
 26 27  1  0
 28106  1  0
 28107  1  0
 29108  1  0
 29109  1  0
 33 34  1  0
 33 66  1  0
 33 70  2  0
 34 36  1  0
 34 59  1  0
 34110  1  6
 35 44  2  0
 35 45  1  0
 35 68  1  0
 36 56  1  0
 36111  1  0
 37 39  1  0
 37 47  1  0
 37 66  1  0
 37112  1  6
 38 43  2  0
 38 46  1  0
 38 47  1  0
 39 64  1  0
 39 67  2  0
 40 52  1  0
 40 53  2  0
 40 58  1  0
 41113  1  0
 41114  1  0
 41115  1  0
 42 43  1  0
 42 66  1  0
 42116  1  0
 42117  1  0
 43 44  1  0
 44118  1  0
 45 46  2  0
 45119  1  0
 46120  1  0
 47121  1  0
 47122  1  0
 48 41  1  0
 48 56  1  0
 48 65  1  0
 48123  1  1
 49 50  1  0
 49 53  1  0
 49 64  1  0
 49124  1  1
 50 51  1  0
 50125  1  0
 50126  1  0
 51 52  1  0
 51127  1  0
 51128  1  0
 52129  1  0
 52130  1  0
 53 54  1  0
 54 55  2  0
 54131  1  0
 55 57  1  0
 55132  1  0
 56 69  2  0
 57 58  2  0
 57133  1  0
 58134  1  0
 59 60  1  0
 59 61  1  0
 59 62  1  0
 60135  1  0
 60136  1  0
 60137  1  0
 61138  1  0
 61139  1  0
 61140  1  0
 62141  1  0
 62142  1  0
 62143  1  0
 63 65  1  0
 63144  1  0
 63145  1  0
 63146  1  0
 64147  1  0
 65148  1  0
 71 74  2  0
 71 75  1  0
 71149  1  0
 72 73  2  0
 72 74  1  0
 72 82  1  0
 73 76  1  0
 73 83  1  0
 74 85  1  0
 75 76  2  0
 75 86  1  0
 76 88  1  0
 77 80  1  0
 77 84  1  0
 77150  1  0
 77151  1  0
 78 81  1  0
 78 84  1  0
 78152  1  0
 78153  1  0
 79 82  1  0
 79 83  1  0
 79154  1  0
 79155  1  0
 80 89  1  0
 80156  1  0
 80157  1  0
 81 89  1  0
 81158  1  0
 81159  1  0
 82 87  1  0
 82160  1  1
 83 68  1  0
 83161  1  6
 84 88  1  0
 84162  1  0
 85163  1  0
 85164  1  0
 85165  1  0
 86166  1  0
 86167  1  0
 86168  1  0
 87169  1  0
 87170  1  0
 87171  1  0
 88172  1  0
 88173  1  0
M  ISO  4   1 100  68 101  83 101  89 100
M  END
$$$$
1
     RDKit          3D

153161  0  0  0  0  0  0  0  0999 V2000
  -30.7652  -14.3608   20.6636 C   0  0  0  0  0  0  0  0  0100  0  0
  -30.4392  -12.2669   19.3775 C   0  0  0  0  0  0  0  0  0101  0  0
  -29.4791  -12.5281   18.1977 C   0  0  0  0  0  0  0  0  0102  0  0
  -27.9985  -12.3963   18.6038 C   0  0  0  0  0  0  0  0  0103  0  0
  -27.6639  -13.2170   19.8820 C   0  0  2  0  0  0  0  0  0104  0  0
  -28.6795  -12.9602   21.0279 C   0  0  0  0  0  0  0  0  0105  0  0
  -25.2633  -13.8245   20.5754 C   0  0  0  0  0  0  0  0  0106  0  0
  -24.1645  -13.0409   20.9408 C   0  0  0  0  0  0  0  0  0107  0  0
  -24.6400  -11.7009   20.8697 C   0  0  0  0  0  0  0  0  0108  0  0
  -23.9005  -10.4085   21.0420 C   0  0  0  0  0  0  0  0  0109  0  0
  -24.3588   -9.4123   21.9123 C   0  0  0  0  0  0  0  0  0110  0  0
  -23.6296   -8.2350   22.0803 C   0  0  0  0  0  0  0  0  0111  0  0
  -22.4385   -8.0419   21.3657 C   0  0  0  0  0  0  0  0  0112  0  0
  -22.0103   -9.0167   20.4678 C   0  0  0  0  0  0  0  0  0113  0  0
  -22.7317  -10.1925   20.3102 C   0  0  0  0  0  0  0  0  0114  0  0
  -21.6857   -6.0709   22.5391 C   0  0  0  0  0  0  0  0  0115  0  0
  -21.4064   -6.5490   23.8264 C   0  0  0  0  0  0  0  0  0116  0  0
  -21.3635   -5.6677   24.9085 C   0  0  0  0  0  0  0  0  0117  0  0
  -21.5973   -4.3067   24.7088 C   0  0  0  0  0  0  0  0  0118  0  0
  -21.8700   -3.8284   23.4282 C   0  0  0  0  0  0  0  0  0119  0  0
  -21.9144   -4.7056   22.3460 C   0  0  0  0  0  0  0  0  0120  0  0
  -22.8194  -13.5263   21.1763 C   0  0  0  0  0  0  0  0  0121  0  0
  -22.1559   -4.2206   21.1063 F   0  0  0  0  0  0  0  0  0122  0  0
  -21.5628   -3.4510   25.7555 F   0  0  0  0  0  0  0  0  0123  0  0
  -30.0261  -13.1803   20.4553 N   0  0  0  0  0  0  0  0  0124  0  0
  -26.2911  -12.9356   20.3443 N   0  0  0  0  0  0  0  0  0125  0  0
  -25.9236  -11.6675   20.5847 N   0  0  0  0  0  0  0  0  0126  0  0
  -22.0708  -12.7905   22.0005 N   0  0  0  0  0  0  0  0  0127  0  0
  -25.4117  -15.1773   20.4097 N   0  0  0  0  0  0  0  0  0128  0  0
  -31.7916  -14.6724   20.0536 O   0  0  0  0  0  0  0  0  0129  0  0
  -21.6670   -6.9022   21.4423 O   0  0  0  0  0  0  0  0  0130  0  0
  -22.3946  -14.5564   20.6568 O   0  0  0  0  0  0  0  0  0131  0  0
  -24.6048  -31.8614   23.2223 C   0  0  0  0  0  0  0  0  0100  0  0
  -25.8822  -32.4841   23.8616 C   0  0  1  0  0  0  0  0  0101  0  0
  -27.2536  -27.5042   20.1156 C   0  0  0  0  0  0  0  0  0102  0  0
  -25.5726  -33.8762   24.2210 N   0  0  0  0  0  0  0  0  0103  0  0
  -23.4066  -30.4859   21.5461 C   0  0  2  0  0  0  0  0  0104  0  0
  -24.8467  -28.9636   20.1247 C   0  0  0  0  0  0  0  0  0105  0  0
  -22.7412  -29.4652   22.5052 C   0  0  0  0  0  0  0  0  0106  0  0
  -18.0167  -28.1302   22.8626 C   0  0  0  0  0  0  0  0  0107  0  0
  -24.1342  -36.7390   23.2568 C   0  0  0  0  0  0  0  0  0108  0  0
  -25.9141  -30.8882   21.3456 C   0  0  0  0  0  0  0  0  0109  0  0
  -25.9930  -29.5029   20.7208 C   0  0  0  0  0  0  0  0  0110  0  0
  -27.1758  -28.7612   20.7331 C   0  0  0  0  0  0  0  0  0111  0  0
  -26.1032  -26.9836   19.5230 C   0  0  0  0  0  0  0  0  0112  0  0
  -24.9097  -27.7011   19.5331 C   0  0  0  0  0  0  0  0  0113  0  0
  -23.5715  -29.7899   20.1582 C   0  0  0  0  0  0  0  0  0114  0  0
  -25.3990  -36.3212   24.0232 C   0  0  1  0  0  0  0  0  0115  0  0
  -20.5793  -28.3813   23.1004 C   0  0  2  0  0  0  0  0  0116  0  0
  -20.6548  -26.9392   22.5411 C   0  0  0  0  0  0  0  0  0117  0  0
  -19.5615  -26.6407   21.5143 C   0  0  0  0  0  0  0  0  0118  0  0
  -18.1797  -26.7818   22.1673 C   0  0  0  0  0  0  0  0  0119  0  0
  -19.1385  -28.8769   23.2988 C   0  0  0  0  0  0  0  0  0120  0  0
  -18.9183  -30.1286   23.8878 C   0  0  0  0  0  0  0  0  0121  0  0
  -17.6396  -30.6493   24.0352 C   0  0  0  0  0  0  0  0  0122  0  0
  -25.9153  -34.9582   23.4993 C   0  0  0  0  0  0  0  0  0123  0  0
  -16.5415  -29.9068   23.6254 C   0  0  0  0  0  0  0  0  0124  0  0
  -16.7331  -28.6521   23.0586 C   0  0  0  0  0  0  0  0  0125  0  0
  -26.4583  -31.6439   25.0683 C   0  0  0  0  0  0  0  0  0126  0  0
  -25.3807  -31.3179   26.1374 C   0  0  0  0  0  0  0  0  0127  0  0
  -27.0530  -30.3024   24.5680 C   0  0  0  0  0  0  0  0  0128  0  0
  -27.6014  -32.4281   25.7651 C   0  0  0  0  0  0  0  0  0129  0  0
  -27.5629  -37.2220   24.8621 C   0  0  0  0  0  0  0  0  0130  0  0
  -21.4133  -29.3375   22.3735 N   0  0  0  0  0  0  0  0  0131  0  0
  -26.4706  -37.3372   23.9061 N   0  0  0  0  0  0  0  0  0132  0  0
  -24.6674  -31.0544   22.1178 N   0  0  0  0  0  0  0  0  0133  0  0
  -23.4259  -28.8150   23.2971 O   0  0  0  0  0  0  0  0  0134  0  0
  -28.3948  -26.7345   20.0089 O   0  0  0  0  0  0  0  0  0135  0  0
  -26.5870  -34.9065   22.4671 O   0  0  0  0  0  0  0  0  0136  0  0
  -23.5365  -32.1254   23.7833 O   0  0  0  0  0  0  0  0  0137  0  0
  -28.2136  -19.7831   21.4221 C   0  0  0  0  0  0  0  0  0  0  0  0
  -27.2093  -20.5986   21.9435 C   0  0  0  0  0  0  0  0  0  0  0  0
  -28.8644  -18.8648   22.2461 C   0  0  0  0  0  0  0  0  0  0  0  0
  -26.8557  -20.4958   23.2889 C   0  0  0  0  0  0  0  0  0  0  0  0
  -27.5064  -19.5775   24.1129 C   0  0  0  0  0  0  0  0  0  0  0  0
  -28.5108  -18.7620   23.5915 C   0  0  0  0  0  0  0  0  0  0  0  0
  -26.5284  -21.5735   21.0401 C   0  0  0  0  0  0  0  0  0  0  0  0
  -27.1118  -19.4813   25.5544 C   0  0  0  0  0  0  0  0  0  0  0  0
  -29.9346  -18.0119   21.6437 C   0  0  0  0  0  0  0  0  0  0  0  0
  -25.7736  -21.3743   23.8445 C   0  0  0  0  0  0  0  0  0  1  0  0
  -29.4895  -16.6548   21.4180 N   0  0  0  0  0  0  0  0  0  0  0  0
  -29.3219  -17.6210   24.6120 Cl  0  0  0  0  0  0  0  0  0  0  0  0
  -31.4485  -12.4701   19.0860 H   0  0  0  0  0  0  0  0  0  0  0  0
  -30.3970  -11.2460   19.6950 H   0  0  0  0  0  0  0  0  0  0  0  0
  -29.6870  -11.8204   17.4226 H   0  0  0  0  0  0  0  0  0  0  0  0
  -29.6375  -13.5326   17.8649 H   0  0  0  0  0  0  0  0  0  0  0  0
  -27.7830  -11.3650   18.7904 H   0  0  0  0  0  0  0  0  0  0  0  0
  -27.4028  -12.7801   17.8021 H   0  0  0  0  0  0  0  0  0  0  0  0
  -27.7353  -14.2503   19.6136 H   0  0  0  0  0  0  0  0  0  0  0  0
  -28.5890  -11.9550   21.3832 H   0  0  0  0  0  0  0  0  0  0  0  0
  -28.5005  -13.6134   21.8562 H   0  0  0  0  0  0  0  0  0  0  0  0
  -25.2399   -9.5495   22.4318 H   0  0  0  0  0  0  0  0  0  0  0  0
  -23.9663   -7.5070   22.7297 H   0  0  0  0  0  0  0  0  0  0  0  0
  -21.1515   -8.8641   19.9162 H   0  0  0  0  0  0  0  0  0  0  0  0
  -22.4016  -10.9115   19.6476 H   0  0  0  0  0  0  0  0  0  0  0  0
  -21.2319   -7.5552   23.9750 H   0  0  0  0  0  0  0  0  0  0  0  0
  -21.1589   -6.0228   25.8556 H   0  0  0  0  0  0  0  0  0  0  0  0
  -22.0396   -2.8212   23.2809 H   0  0  0  0  0  0  0  0  0  0  0  0
  -22.4401  -11.9703   22.4008 H   0  0  0  0  0  0  0  0  0  0  0  0
  -21.1493  -13.0679   22.2082 H   0  0  0  0  0  0  0  0  0  0  0  0
  -24.6538  -15.7807   20.5848 H   0  0  0  0  0  0  0  0  0  0  0  0
  -26.2762  -15.5453   20.1156 H   0  0  0  0  0  0  0  0  0  0  0  0
  -26.6778  -32.4663   23.1464 H   0  0  0  0  0  0  0  0  0  0  0  0
  -25.0747  -34.0282   25.0566 H   0  0  0  0  0  0  0  0  0  0  0  0
  -22.7881  -31.3489   21.4131 H   0  0  0  0  0  0  0  0  0  0  0  0
  -23.3854  -35.9823   23.3648 H   0  0  0  0  0  0  0  0  0  0  0  0
  -24.3696  -36.8624   22.2204 H   0  0  0  0  0  0  0  0  0  0  0  0
  -23.7669  -37.6632   23.6516 H   0  0  0  0  0  0  0  0  0  0  0  0
  -25.9445  -31.6237   20.5691 H   0  0  0  0  0  0  0  0  0  0  0  0
  -26.7436  -31.0079   22.0108 H   0  0  0  0  0  0  0  0  0  0  0  0
  -28.0090  -29.1452   21.2057 H   0  0  0  0  0  0  0  0  0  0  0  0
  -26.1369  -26.0560   19.0719 H   0  0  0  0  0  0  0  0  0  0  0  0
  -24.0652  -27.2961   19.0997 H   0  0  0  0  0  0  0  0  0  0  0  0
  -23.6156  -30.5365   19.3930 H   0  0  0  0  0  0  0  0  0  0  0  0
  -22.7355  -29.1425   19.9945 H   0  0  0  0  0  0  0  0  0  0  0  0
  -25.1353  -36.2335   25.0565 H   0  0  0  0  0  0  0  0  0  0  0  0
  -21.0070  -28.3206   24.0793 H   0  0  0  0  0  0  0  0  0  0  0  0
  -20.5555  -26.2518   23.3550 H   0  0  0  0  0  0  0  0  0  0  0  0
  -21.5974  -26.8362   22.0454 H   0  0  0  0  0  0  0  0  0  0  0  0
  -19.6810  -25.6422   21.1488 H   0  0  0  0  0  0  0  0  0  0  0  0
  -19.6406  -27.3343   20.7034 H   0  0  0  0  0  0  0  0  0  0  0  0
  -17.4282  -26.6888   21.4113 H   0  0  0  0  0  0  0  0  0  0  0  0
  -18.0803  -26.0130   22.9049 H   0  0  0  0  0  0  0  0  0  0  0  0
  -19.7265  -30.6774   24.2204 H   0  0  0  0  0  0  0  0  0  0  0  0
  -17.5064  -31.5856   24.4483 H   0  0  0  0  0  0  0  0  0  0  0  0
  -15.5878  -30.2839   23.7407 H   0  0  0  0  0  0  0  0  0  0  0  0
  -15.9120  -28.0941   22.7766 H   0  0  0  0  0  0  0  0  0  0  0  0
  -24.5787  -30.7757   25.6817 H   0  0  0  0  0  0  0  0  0  0  0  0
  -25.0041  -32.2289   26.5536 H   0  0  0  0  0  0  0  0  0  0  0  0
  -25.8166  -30.7245   26.9138 H   0  0  0  0  0  0  0  0  0  0  0  0
  -26.2892  -29.7335   24.0803 H   0  0  0  0  0  0  0  0  0  0  0  0
  -27.4336  -29.7484   25.4006 H   0  0  0  0  0  0  0  0  0  0  0  0
  -27.8466  -30.4994   23.8779 H   0  0  0  0  0  0  0  0  0  0  0  0
  -27.2251  -33.3632   26.1242 H   0  0  0  0  0  0  0  0  0  0  0  0
  -28.3902  -32.6065   25.0645 H   0  0  0  0  0  0  0  0  0  0  0  0
  -27.9772  -31.8555   26.5872 H   0  0  0  0  0  0  0  0  0  0  0  0
  -28.2744  -38.0016   24.6863 H   0  0  0  0  0  0  0  0  0  0  0  0
  -28.0396  -36.2711   24.7461 H   0  0  0  0  0  0  0  0  0  0  0  0
  -27.1773  -37.3087   25.8564 H   0  0  0  0  0  0  0  0  0  0  0  0
  -20.9627  -29.9365   21.7352 H   0  0  0  0  0  0  0  0  0  0  0  0
  -26.0447  -38.2561   24.0273 H   0  0  0  0  0  0  0  0  0  0  0  0
  -28.4752  -19.8591   20.4267 H   0  0  0  0  0  0  0  0  0  0  0  0
  -26.9414  -21.4964   20.0560 H   0  0  0  0  0  0  0  0  0  0  0  0
  -26.6747  -22.5662   21.4115 H   0  0  0  0  0  0  0  0  0  0  0  0
  -25.4812  -21.3564   21.0054 H   0  0  0  0  0  0  0  0  0  0  0  0
  -26.3306  -20.1836   25.7580 H   0  0  0  0  0  0  0  0  0  0  0  0
  -27.9582  -19.7005   26.1713 H   0  0  0  0  0  0  0  0  0  0  0  0
  -26.7647  -18.4911   25.7639 H   0  0  0  0  0  0  0  0  0  0  0  0
  -30.7743  -17.9933   22.3066 H   0  0  0  0  0  0  0  0  0  0  0  0
  -30.1959  -18.4337   20.6957 H   0  0  0  0  0  0  0  0  0  0  0  0
  -25.8240  -21.5221   24.9030 H   0  0  0  0  0  0  0  0  0  0  0  0
  -24.7431  -21.0951   23.7736 H   0  0  0  0  0  0  0  0  0  0  0  0
  -28.5242  -16.5320   21.5676 H   0  0  0  0  0  0  0  0  0  0  0  0
  1 25  1  0
  1 30  2  0
  1 81  1  0
  2  3  1  0
  2 25  1  0
  2 83  1  0
  2 84  1  0
  3  4  1  0
  3 85  1  0
  3 86  1  0
  4  5  1  0
  4 87  1  0
  4 88  1  0
  5  6  1  0
  5 26  1  0
  5 89  1  6
  6 25  1  0
  6 90  1  0
  6 91  1  0
  7  8  2  0
  7 26  1  0
  7 29  1  0
  8  9  1  0
  8 22  1  0
  9 10  1  0
  9 27  2  0
 10 11  2  0
 10 15  1  0
 11 12  1  0
 11 92  1  0
 12 13  2  0
 12 93  1  0
 13 14  1  0
 13 31  1  0
 14 15  2  0
 14 94  1  0
 15 95  1  0
 16 17  2  0
 16 21  1  0
 16 31  1  0
 17 18  1  0
 17 96  1  0
 18 19  2  0
 18 97  1  0
 19 20  1  0
 19 24  1  0
 20 21  2  0
 20 98  1  0
 21 23  1  0
 22 28  1  0
 22 32  2  0
 26 27  1  0
 28 99  1  0
 28100  1  0
 29101  1  0
 29102  1  0
 33 34  1  0
 33 66  1  0
 33 70  2  0
 34 36  1  0
 34 59  1  0
 34103  1  6
 35 44  2  0
 35 45  1  0
 35 68  1  0
 36 56  1  0
 36104  1  0
 37 39  1  0
 37 47  1  0
 37 66  1  0
 37105  1  6
 38 43  2  0
 38 46  1  0
 38 47  1  0
 39 64  1  0
 39 67  2  0
 40 52  1  0
 40 53  2  0
 40 58  1  0
 41106  1  0
 41107  1  0
 41108  1  0
 42 43  1  0
 42 66  1  0
 42109  1  0
 42110  1  0
 43 44  1  0
 44111  1  0
 45 46  2  0
 45112  1  0
 46113  1  0
 47114  1  0
 47115  1  0
 48 41  1  0
 48 56  1  0
 48 65  1  0
 48116  1  1
 49 50  1  0
 49 53  1  0
 49 64  1  0
 49117  1  1
 50 51  1  0
 50118  1  0
 50119  1  0
 51 52  1  0
 51120  1  0
 51121  1  0
 52122  1  0
 52123  1  0
 53 54  1  0
 54 55  2  0
 54124  1  0
 55 57  1  0
 55125  1  0
 56 69  2  0
 57 58  2  0
 57126  1  0
 58127  1  0
 59 60  1  0
 59 61  1  0
 59 62  1  0
 60128  1  0
 60129  1  0
 60130  1  0
 61131  1  0
 61132  1  0
 61133  1  0
 62134  1  0
 62135  1  0
 62136  1  0
 63 65  1  0
 63137  1  0
 63138  1  0
 63139  1  0
 64140  1  0
 65141  1  0
 68 80  1  0
 71 72  2  0
 71 73  1  0
 71142  1  0
 72 74  1  0
 72 77  1  0
 73 76  2  0
 73 79  1  0
 74 75  2  0
 74 80  1  0
 75 76  1  0
 75 78  1  0
 76 82  1  0
 77143  1  0
 77144  1  0
 77145  1  0
 78146  1  0
 78147  1  0
 78148  1  0
 79 81  1  0
 79149  1  0
 79150  1  0
 80151  1  0
 80152  1  0
 81153  1  0
M  ISO  4   1 100  68 101  80 101  81 100
M  END
$$$$
2
     RDKit          3D

159167  0  0  0  0  0  0  0  0999 V2000
  -30.7652  -14.3608   20.6636 C   0  0  0  0  0  0  0  0  0100  0  0
  -30.4392  -12.2669   19.3775 C   0  0  0  0  0  0  0  0  0101  0  0
  -29.4791  -12.5281   18.1977 C   0  0  0  0  0  0  0  0  0102  0  0
  -27.9985  -12.3963   18.6038 C   0  0  0  0  0  0  0  0  0103  0  0
  -27.6639  -13.2170   19.8820 C   0  0  2  0  0  0  0  0  0104  0  0
  -28.6795  -12.9602   21.0279 C   0  0  0  0  0  0  0  0  0105  0  0
  -25.2633  -13.8245   20.5754 C   0  0  0  0  0  0  0  0  0106  0  0
  -24.1645  -13.0409   20.9408 C   0  0  0  0  0  0  0  0  0107  0  0
  -24.6400  -11.7009   20.8697 C   0  0  0  0  0  0  0  0  0108  0  0
  -23.9005  -10.4085   21.0420 C   0  0  0  0  0  0  0  0  0109  0  0
  -24.3588   -9.4123   21.9123 C   0  0  0  0  0  0  0  0  0110  0  0
  -23.6296   -8.2350   22.0803 C   0  0  0  0  0  0  0  0  0111  0  0
  -22.4385   -8.0419   21.3657 C   0  0  0  0  0  0  0  0  0112  0  0
  -22.0103   -9.0167   20.4678 C   0  0  0  0  0  0  0  0  0113  0  0
  -22.7317  -10.1925   20.3102 C   0  0  0  0  0  0  0  0  0114  0  0
  -21.6857   -6.0709   22.5391 C   0  0  0  0  0  0  0  0  0115  0  0
  -21.4064   -6.5490   23.8264 C   0  0  0  0  0  0  0  0  0116  0  0
  -21.3635   -5.6677   24.9085 C   0  0  0  0  0  0  0  0  0117  0  0
  -21.5973   -4.3067   24.7088 C   0  0  0  0  0  0  0  0  0118  0  0
  -21.8700   -3.8284   23.4282 C   0  0  0  0  0  0  0  0  0119  0  0
  -21.9144   -4.7056   22.3460 C   0  0  0  0  0  0  0  0  0120  0  0
  -22.8194  -13.5263   21.1763 C   0  0  0  0  0  0  0  0  0121  0  0
  -22.1559   -4.2206   21.1063 F   0  0  0  0  0  0  0  0  0122  0  0
  -21.5628   -3.4510   25.7555 F   0  0  0  0  0  0  0  0  0123  0  0
  -30.0261  -13.1803   20.4553 N   0  0  0  0  0  0  0  0  0124  0  0
  -26.2911  -12.9356   20.3443 N   0  0  0  0  0  0  0  0  0125  0  0
  -25.9236  -11.6675   20.5847 N   0  0  0  0  0  0  0  0  0126  0  0
  -22.0708  -12.7905   22.0005 N   0  0  0  0  0  0  0  0  0127  0  0
  -25.4117  -15.1773   20.4097 N   0  0  0  0  0  0  0  0  0128  0  0
  -31.7916  -14.6724   20.0536 O   0  0  0  0  0  0  0  0  0129  0  0
  -21.6670   -6.9022   21.4423 O   0  0  0  0  0  0  0  0  0130  0  0
  -22.3946  -14.5564   20.6568 O   0  0  0  0  0  0  0  0  0131  0  0
  -24.6048  -31.8614   23.2223 C   0  0  0  0  0  0  0  0  0100  0  0
  -25.8822  -32.4841   23.8616 C   0  0  1  0  0  0  0  0  0101  0  0
  -27.2536  -27.5042   20.1156 C   0  0  0  0  0  0  0  0  0102  0  0
  -25.5726  -33.8762   24.2210 N   0  0  0  0  0  0  0  0  0103  0  0
  -23.4066  -30.4859   21.5461 C   0  0  2  0  0  0  0  0  0104  0  0
  -24.8467  -28.9636   20.1247 C   0  0  0  0  0  0  0  0  0105  0  0
  -22.7412  -29.4652   22.5052 C   0  0  0  0  0  0  0  0  0106  0  0
  -18.0167  -28.1302   22.8626 C   0  0  0  0  0  0  0  0  0107  0  0
  -24.1342  -36.7390   23.2568 C   0  0  0  0  0  0  0  0  0108  0  0
  -25.9141  -30.8882   21.3456 C   0  0  0  0  0  0  0  0  0109  0  0
  -25.9930  -29.5029   20.7208 C   0  0  0  0  0  0  0  0  0110  0  0
  -27.1758  -28.7612   20.7331 C   0  0  0  0  0  0  0  0  0111  0  0
  -26.1032  -26.9836   19.5230 C   0  0  0  0  0  0  0  0  0112  0  0
  -24.9097  -27.7011   19.5331 C   0  0  0  0  0  0  0  0  0113  0  0
  -23.5715  -29.7899   20.1582 C   0  0  0  0  0  0  0  0  0114  0  0
  -25.3990  -36.3212   24.0232 C   0  0  1  0  0  0  0  0  0115  0  0
  -20.5793  -28.3813   23.1004 C   0  0  2  0  0  0  0  0  0116  0  0
  -20.6548  -26.9392   22.5411 C   0  0  0  0  0  0  0  0  0117  0  0
  -19.5615  -26.6407   21.5143 C   0  0  0  0  0  0  0  0  0118  0  0
  -18.1797  -26.7818   22.1673 C   0  0  0  0  0  0  0  0  0119  0  0
  -19.1385  -28.8769   23.2988 C   0  0  0  0  0  0  0  0  0120  0  0
  -18.9183  -30.1286   23.8878 C   0  0  0  0  0  0  0  0  0121  0  0
  -17.6396  -30.6493   24.0352 C   0  0  0  0  0  0  0  0  0122  0  0
  -25.9153  -34.9582   23.4993 C   0  0  0  0  0  0  0  0  0123  0  0
  -16.5415  -29.9068   23.6254 C   0  0  0  0  0  0  0  0  0124  0  0
  -16.7331  -28.6521   23.0586 C   0  0  0  0  0  0  0  0  0125  0  0
  -26.4583  -31.6439   25.0683 C   0  0  0  0  0  0  0  0  0126  0  0
  -25.3807  -31.3179   26.1374 C   0  0  0  0  0  0  0  0  0127  0  0
  -27.0530  -30.3024   24.5680 C   0  0  0  0  0  0  0  0  0128  0  0
  -27.6014  -32.4281   25.7651 C   0  0  0  0  0  0  0  0  0129  0  0
  -27.5629  -37.2220   24.8621 C   0  0  0  0  0  0  0  0  0130  0  0
  -21.4133  -29.3375   22.3735 N   0  0  0  0  0  0  0  0  0131  0  0
  -26.4706  -37.3372   23.9061 N   0  0  0  0  0  0  0  0  0132  0  0
  -24.6674  -31.0544   22.1178 N   0  0  0  0  0  0  0  0  0133  0  0
  -23.4259  -28.8150   23.2971 O   0  0  0  0  0  0  0  0  0134  0  0
  -28.3948  -26.7345   20.0089 O   0  0  0  0  0  0  0  0  0135  0  0
  -26.5870  -34.9065   22.4671 O   0  0  0  0  0  0  0  0  0136  0  0
  -23.5365  -32.1254   23.7833 O   0  0  0  0  0  0  0  0  0137  0  0
  -25.0486  -24.4850   21.3207 C   0  0  0  0  0  0  0  0  0  0  0  0
  -23.4196  -23.6358   23.4201 C   0  0  0  0  0  0  0  0  0  0  0  0
  -25.6062  -23.8122   22.4078 C   0  0  0  0  0  0  0  0  0  0  0  0
  -22.8620  -24.3086   22.3329 C   0  0  0  0  0  0  0  0  0  0  0  0
  -24.7917  -23.3875   23.4576 C   0  0  0  0  0  0  0  0  0  0  0  0
  -23.6765  -24.7333   21.2832 C   0  0  0  0  0  0  0  0  0  0  0  0
  -27.0804  -23.5656   22.4093 C   0  0  0  0  0  0  0  0  0  0  0  0
  -21.3824  -24.5570   22.3304 C   0  0  0  0  0  0  0  0  0  0  0  0
  -21.0459  -27.8879   24.1886 C   0  0  0  0  0  0  0  0  0  0  0  0
  -21.4360  -26.4325   23.9791 C   0  0  0  0  0  0  0  0  0  0  0  0
  -21.7219  -28.8495   23.2189 C   0  0  0  0  0  0  0  0  0  1  0  0
  -27.4053  -22.1905   22.1022 N   0  0  0  0  0  0  0  0  0  0  0  0
  -21.0277  -25.9716   22.6314 N   0  0  0  0  0  0  0  0  0  0  0  0
  -25.4466  -22.5511   24.8180 Cl  0  0  0  0  0  0  0  0  0  0  0  0
  -23.0218  -25.5686   19.9219 Cl  0  0  0  0  0  0  0  0  0  0  0  0
  -31.4485  -12.4701   19.0860 H   0  0  0  0  0  0  0  0  0  0  0  0
  -30.3970  -11.2460   19.6950 H   0  0  0  0  0  0  0  0  0  0  0  0
  -29.6870  -11.8204   17.4226 H   0  0  0  0  0  0  0  0  0  0  0  0
  -29.6375  -13.5326   17.8649 H   0  0  0  0  0  0  0  0  0  0  0  0
  -27.7830  -11.3650   18.7904 H   0  0  0  0  0  0  0  0  0  0  0  0
  -27.4028  -12.7801   17.8021 H   0  0  0  0  0  0  0  0  0  0  0  0
  -27.7353  -14.2503   19.6136 H   0  0  0  0  0  0  0  0  0  0  0  0
  -28.5890  -11.9550   21.3832 H   0  0  0  0  0  0  0  0  0  0  0  0
  -28.5005  -13.6134   21.8562 H   0  0  0  0  0  0  0  0  0  0  0  0
  -25.2399   -9.5495   22.4318 H   0  0  0  0  0  0  0  0  0  0  0  0
  -23.9663   -7.5070   22.7297 H   0  0  0  0  0  0  0  0  0  0  0  0
  -21.1515   -8.8641   19.9162 H   0  0  0  0  0  0  0  0  0  0  0  0
  -22.4016  -10.9115   19.6476 H   0  0  0  0  0  0  0  0  0  0  0  0
  -21.2319   -7.5552   23.9750 H   0  0  0  0  0  0  0  0  0  0  0  0
  -21.1589   -6.0228   25.8556 H   0  0  0  0  0  0  0  0  0  0  0  0
  -22.0396   -2.8212   23.2809 H   0  0  0  0  0  0  0  0  0  0  0  0
  -22.4401  -11.9703   22.4008 H   0  0  0  0  0  0  0  0  0  0  0  0
  -21.1493  -13.0679   22.2082 H   0  0  0  0  0  0  0  0  0  0  0  0
  -24.6538  -15.7807   20.5848 H   0  0  0  0  0  0  0  0  0  0  0  0
  -26.2762  -15.5453   20.1156 H   0  0  0  0  0  0  0  0  0  0  0  0
  -26.6778  -32.4663   23.1464 H   0  0  0  0  0  0  0  0  0  0  0  0
  -25.0747  -34.0282   25.0566 H   0  0  0  0  0  0  0  0  0  0  0  0
  -22.7881  -31.3489   21.4131 H   0  0  0  0  0  0  0  0  0  0  0  0
  -23.3854  -35.9823   23.3648 H   0  0  0  0  0  0  0  0  0  0  0  0
  -24.3696  -36.8624   22.2204 H   0  0  0  0  0  0  0  0  0  0  0  0
  -23.7669  -37.6632   23.6516 H   0  0  0  0  0  0  0  0  0  0  0  0
  -25.9445  -31.6237   20.5691 H   0  0  0  0  0  0  0  0  0  0  0  0
  -26.7436  -31.0079   22.0108 H   0  0  0  0  0  0  0  0  0  0  0  0
  -28.0090  -29.1452   21.2057 H   0  0  0  0  0  0  0  0  0  0  0  0
  -26.1369  -26.0560   19.0719 H   0  0  0  0  0  0  0  0  0  0  0  0
  -24.0652  -27.2961   19.0997 H   0  0  0  0  0  0  0  0  0  0  0  0
  -23.6156  -30.5365   19.3930 H   0  0  0  0  0  0  0  0  0  0  0  0
  -22.7355  -29.1425   19.9945 H   0  0  0  0  0  0  0  0  0  0  0  0
  -25.1353  -36.2335   25.0565 H   0  0  0  0  0  0  0  0  0  0  0  0
  -21.0070  -28.3206   24.0793 H   0  0  0  0  0  0  0  0  0  0  0  0
  -20.5555  -26.2518   23.3550 H   0  0  0  0  0  0  0  0  0  0  0  0
  -21.5974  -26.8362   22.0454 H   0  0  0  0  0  0  0  0  0  0  0  0
  -19.6810  -25.6422   21.1488 H   0  0  0  0  0  0  0  0  0  0  0  0
  -19.6406  -27.3343   20.7034 H   0  0  0  0  0  0  0  0  0  0  0  0
  -17.4282  -26.6888   21.4113 H   0  0  0  0  0  0  0  0  0  0  0  0
  -18.0803  -26.0130   22.9049 H   0  0  0  0  0  0  0  0  0  0  0  0
  -19.7265  -30.6774   24.2204 H   0  0  0  0  0  0  0  0  0  0  0  0
  -17.5064  -31.5856   24.4483 H   0  0  0  0  0  0  0  0  0  0  0  0
  -15.5878  -30.2839   23.7407 H   0  0  0  0  0  0  0  0  0  0  0  0
  -15.9120  -28.0941   22.7766 H   0  0  0  0  0  0  0  0  0  0  0  0
  -24.5787  -30.7757   25.6817 H   0  0  0  0  0  0  0  0  0  0  0  0
  -25.0041  -32.2289   26.5536 H   0  0  0  0  0  0  0  0  0  0  0  0
  -25.8166  -30.7245   26.9138 H   0  0  0  0  0  0  0  0  0  0  0  0
  -26.2892  -29.7335   24.0803 H   0  0  0  0  0  0  0  0  0  0  0  0
  -27.4336  -29.7484   25.4006 H   0  0  0  0  0  0  0  0  0  0  0  0
  -27.8466  -30.4994   23.8779 H   0  0  0  0  0  0  0  0  0  0  0  0
  -27.2251  -33.3632   26.1242 H   0  0  0  0  0  0  0  0  0  0  0  0
  -28.3902  -32.6065   25.0645 H   0  0  0  0  0  0  0  0  0  0  0  0
  -27.9772  -31.8555   26.5872 H   0  0  0  0  0  0  0  0  0  0  0  0
  -28.2744  -38.0016   24.6863 H   0  0  0  0  0  0  0  0  0  0  0  0
  -28.0396  -36.2711   24.7461 H   0  0  0  0  0  0  0  0  0  0  0  0
  -27.1773  -37.3087   25.8564 H   0  0  0  0  0  0  0  0  0  0  0  0
  -20.9627  -29.9365   21.7352 H   0  0  0  0  0  0  0  0  0  0  0  0
  -26.0447  -38.2561   24.0273 H   0  0  0  0  0  0  0  0  0  0  0  0
  -25.6512  -24.7991   20.5440 H   0  0  0  0  0  0  0  0  0  0  0  0
  -22.8170  -23.3217   24.1968 H   0  0  0  0  0  0  0  0  0  0  0  0
  -27.4684  -23.8031   23.3778 H   0  0  0  0  0  0  0  0  0  0  0  0
  -27.5171  -24.1829   21.6522 H   0  0  0  0  0  0  0  0  0  0  0  0
  -20.9301  -23.9280   23.0684 H   0  0  0  0  0  0  0  0  0  0  0  0
  -21.0239  -24.3405   21.3458 H   0  0  0  0  0  0  0  0  0  0  0  0
  -21.3143  -28.1693   25.1854 H   0  0  0  0  0  0  0  0  0  0  0  0
  -19.9925  -27.9573   24.0141 H   0  0  0  0  0  0  0  0  0  0  0  0
  -20.9524  -25.8289   24.7186 H   0  0  0  0  0  0  0  0  0  0  0  0
  -22.4988  -26.3444   24.0663 H   0  0  0  0  0  0  0  0  0  0  0  0
  -21.9017  -29.7604   23.7508 H   0  0  0  0  0  0  0  0  0  0  0  0
  -21.0424  -28.9121   22.3948 H   0  0  0  0  0  0  0  0  0  0  0  0
  -26.4884  -21.9399   21.8458 H   0  0  0  0  0  0  0  0  0  0  0  0
  -20.0154  -26.0699   22.5539 H   0  0  0  0  0  0  0  0  0  0  0  0
  -21.5361  -26.5478   21.9607 H   0  0  0  0  0  0  0  0  0  0  0  0
  1 25  1  0
  1 30  2  0
  1 82  1  0
  2  3  1  0
  2 25  1  0
  2 86  1  0
  2 87  1  0
  3  4  1  0
  3 88  1  0
  3 89  1  0
  4  5  1  0
  4 90  1  0
  4 91  1  0
  5  6  1  0
  5 26  1  0
  5 92  1  6
  6 25  1  0
  6 93  1  0
  6 94  1  0
  7  8  2  0
  7 26  1  0
  7 29  1  0
  8  9  1  0
  8 22  1  0
  9 10  1  0
  9 27  2  0
 10 11  2  0
 10 15  1  0
 11 12  1  0
 11 95  1  0
 12 13  2  0
 12 96  1  0
 13 14  1  0
 13 31  1  0
 14 15  2  0
 14 97  1  0
 15 98  1  0
 16 17  2  0
 16 21  1  0
 16 31  1  0
 17 18  1  0
 17 99  1  0
 18 19  2  0
 18100  1  0
 19 20  1  0
 19 24  1  0
 20 21  2  0
 20101  1  0
 21 23  1  0
 22 28  1  0
 22 32  2  0
 26 27  1  0
 28102  1  0
 28103  1  0
 29104  1  0
 29105  1  0
 33 34  1  0
 33 66  1  0
 33 70  2  0
 34 36  1  0
 34 59  1  0
 34106  1  6
 35 44  2  0
 35 45  1  0
 35 68  1  0
 36 56  1  0
 36107  1  0
 37 39  1  0
 37 47  1  0
 37 66  1  0
 37108  1  6
 38 43  2  0
 38 46  1  0
 38 47  1  0
 39 64  1  0
 39 67  2  0
 40 52  1  0
 40 53  2  0
 40 58  1  0
 41109  1  0
 41110  1  0
 41111  1  0
 42 43  1  0
 42 66  1  0
 42112  1  0
 42113  1  0
 43 44  1  0
 44114  1  0
 45 46  2  0
 45115  1  0
 46116  1  0
 47117  1  0
 47118  1  0
 48 41  1  0
 48 56  1  0
 48 65  1  0
 48119  1  1
 49 50  1  0
 49 53  1  0
 49 64  1  0
 49120  1  1
 50 51  1  0
 50121  1  0
 50122  1  0
 51 52  1  0
 51123  1  0
 51124  1  0
 52125  1  0
 52126  1  0
 53 54  1  0
 54 55  2  0
 54127  1  0
 55 57  1  0
 55128  1  0
 56 69  2  0
 57 58  2  0
 57129  1  0
 58130  1  0
 59 60  1  0
 59 61  1  0
 59 62  1  0
 60131  1  0
 60132  1  0
 60133  1  0
 61134  1  0
 61135  1  0
 61136  1  0
 62137  1  0
 62138  1  0
 62139  1  0
 63 65  1  0
 63140  1  0
 63141  1  0
 63142  1  0
 64143  1  0
 65144  1  0
 68 81  1  0
 71 73  2  0
 71 76  1  0
 71145  1  0
 72 74  1  0
 72 75  2  0
 72146  1  0
 73 75  1  0
 73 77  1  0
 74 76  2  0
 74 78  1  0
 75 84  1  0
 76 85  1  0
 77 82  1  0
 77147  1  0
 77148  1  0
 78 83  1  0
 78149  1  0
 78150  1  0
 79 80  1  0
 79 81  1  0
 79151  1  0
 79152  1  0
 80 83  1  0
 80153  1  0
 80154  1  0
 81155  1  0
 81156  1  0
 82157  1  0
 83158  1  0
 83159  1  0
M  CHG  1  83   1
M  ISO  4   1 100  68 101  81 101  82 100
M  END
$$$$
3
     RDKit          3D

153161  0  0  0  0  0  0  0  0999 V2000
  -30.7652  -14.3608   20.6636 C   0  0  0  0  0  0  0  0  0100  0  0
  -30.4392  -12.2669   19.3775 C   0  0  0  0  0  0  0  0  0101  0  0
  -29.4791  -12.5281   18.1977 C   0  0  0  0  0  0  0  0  0102  0  0
  -27.9985  -12.3963   18.6038 C   0  0  0  0  0  0  0  0  0103  0  0
  -27.6639  -13.2170   19.8820 C   0  0  2  0  0  0  0  0  0104  0  0
  -28.6795  -12.9602   21.0279 C   0  0  0  0  0  0  0  0  0105  0  0
  -25.2633  -13.8245   20.5754 C   0  0  0  0  0  0  0  0  0106  0  0
  -24.1645  -13.0409   20.9408 C   0  0  0  0  0  0  0  0  0107  0  0
  -24.6400  -11.7009   20.8697 C   0  0  0  0  0  0  0  0  0108  0  0
  -23.9005  -10.4085   21.0420 C   0  0  0  0  0  0  0  0  0109  0  0
  -24.3588   -9.4123   21.9123 C   0  0  0  0  0  0  0  0  0110  0  0
  -23.6296   -8.2350   22.0803 C   0  0  0  0  0  0  0  0  0111  0  0
  -22.4385   -8.0419   21.3657 C   0  0  0  0  0  0  0  0  0112  0  0
  -22.0103   -9.0167   20.4678 C   0  0  0  0  0  0  0  0  0113  0  0
  -22.7317  -10.1925   20.3102 C   0  0  0  0  0  0  0  0  0114  0  0
  -21.6857   -6.0709   22.5391 C   0  0  0  0  0  0  0  0  0115  0  0
  -21.4064   -6.5490   23.8264 C   0  0  0  0  0  0  0  0  0116  0  0
  -21.3635   -5.6677   24.9085 C   0  0  0  0  0  0  0  0  0117  0  0
  -21.5973   -4.3067   24.7088 C   0  0  0  0  0  0  0  0  0118  0  0
  -21.8700   -3.8284   23.4282 C   0  0  0  0  0  0  0  0  0119  0  0
  -21.9144   -4.7056   22.3460 C   0  0  0  0  0  0  0  0  0120  0  0
  -22.8194  -13.5263   21.1763 C   0  0  0  0  0  0  0  0  0121  0  0
  -22.1559   -4.2206   21.1063 F   0  0  0  0  0  0  0  0  0122  0  0
  -21.5628   -3.4510   25.7555 F   0  0  0  0  0  0  0  0  0123  0  0
  -30.0261  -13.1803   20.4553 N   0  0  0  0  0  0  0  0  0124  0  0
  -26.2911  -12.9356   20.3443 N   0  0  0  0  0  0  0  0  0125  0  0
  -25.9236  -11.6675   20.5847 N   0  0  0  0  0  0  0  0  0126  0  0
  -22.0708  -12.7905   22.0005 N   0  0  0  0  0  0  0  0  0127  0  0
  -25.4117  -15.1773   20.4097 N   0  0  0  0  0  0  0  0  0128  0  0
  -31.7916  -14.6724   20.0536 O   0  0  0  0  0  0  0  0  0129  0  0
  -21.6670   -6.9022   21.4423 O   0  0  0  0  0  0  0  0  0130  0  0
  -22.3946  -14.5564   20.6568 O   0  0  0  0  0  0  0  0  0131  0  0
  -24.6048  -31.8614   23.2223 C   0  0  0  0  0  0  0  0  0100  0  0
  -25.8822  -32.4841   23.8616 C   0  0  1  0  0  0  0  0  0101  0  0
  -27.2536  -27.5042   20.1156 C   0  0  0  0  0  0  0  0  0102  0  0
  -25.5726  -33.8762   24.2210 N   0  0  0  0  0  0  0  0  0103  0  0
  -23.4066  -30.4859   21.5461 C   0  0  2  0  0  0  0  0  0104  0  0
  -24.8467  -28.9636   20.1247 C   0  0  0  0  0  0  0  0  0105  0  0
  -22.7412  -29.4652   22.5052 C   0  0  0  0  0  0  0  0  0106  0  0
  -18.0167  -28.1302   22.8626 C   0  0  0  0  0  0  0  0  0107  0  0
  -24.1342  -36.7390   23.2568 C   0  0  0  0  0  0  0  0  0108  0  0
  -25.9141  -30.8882   21.3456 C   0  0  0  0  0  0  0  0  0109  0  0
  -25.9930  -29.5029   20.7208 C   0  0  0  0  0  0  0  0  0110  0  0
  -27.1758  -28.7612   20.7331 C   0  0  0  0  0  0  0  0  0111  0  0
  -26.1032  -26.9836   19.5230 C   0  0  0  0  0  0  0  0  0112  0  0
  -24.9097  -27.7011   19.5331 C   0  0  0  0  0  0  0  0  0113  0  0
  -23.5715  -29.7899   20.1582 C   0  0  0  0  0  0  0  0  0114  0  0
  -25.3990  -36.3212   24.0232 C   0  0  1  0  0  0  0  0  0115  0  0
  -20.5793  -28.3813   23.1004 C   0  0  2  0  0  0  0  0  0116  0  0
  -20.6548  -26.9392   22.5411 C   0  0  0  0  0  0  0  0  0117  0  0
  -19.5615  -26.6407   21.5143 C   0  0  0  0  0  0  0  0  0118  0  0
  -18.1797  -26.7818   22.1673 C   0  0  0  0  0  0  0  0  0119  0  0
  -19.1385  -28.8769   23.2988 C   0  0  0  0  0  0  0  0  0120  0  0
  -18.9183  -30.1286   23.8878 C   0  0  0  0  0  0  0  0  0121  0  0
  -17.6396  -30.6493   24.0352 C   0  0  0  0  0  0  0  0  0122  0  0
  -25.9153  -34.9582   23.4993 C   0  0  0  0  0  0  0  0  0123  0  0
  -16.5415  -29.9068   23.6254 C   0  0  0  0  0  0  0  0  0124  0  0
  -16.7331  -28.6521   23.0586 C   0  0  0  0  0  0  0  0  0125  0  0
  -26.4583  -31.6439   25.0683 C   0  0  0  0  0  0  0  0  0126  0  0
  -25.3807  -31.3179   26.1374 C   0  0  0  0  0  0  0  0  0127  0  0
  -27.0530  -30.3024   24.5680 C   0  0  0  0  0  0  0  0  0128  0  0
  -27.6014  -32.4281   25.7651 C   0  0  0  0  0  0  0  0  0129  0  0
  -27.5629  -37.2220   24.8621 C   0  0  0  0  0  0  0  0  0130  0  0
  -21.4133  -29.3375   22.3735 N   0  0  0  0  0  0  0  0  0131  0  0
  -26.4706  -37.3372   23.9061 N   0  0  0  0  0  0  0  0  0132  0  0
  -24.6674  -31.0544   22.1178 N   0  0  0  0  0  0  0  0  0133  0  0
  -23.4259  -28.8150   23.2971 O   0  0  0  0  0  0  0  0  0134  0  0
  -28.3948  -26.7345   20.0089 O   0  0  0  0  0  0  0  0  0135  0  0
  -26.5870  -34.9065   22.4671 O   0  0  0  0  0  0  0  0  0136  0  0
  -23.5365  -32.1254   23.7833 O   0  0  0  0  0  0  0  0  0137  0  0
  -29.9693  -26.6445   20.5621 C   0  0  0  0  0  0  0  0  0  0  0  0
  -30.5275  -25.3768   20.7261 C   0  0  0  0  0  0  0  0  0  0  0  0
  -31.1211  -27.4081   22.5439 C   0  0  0  0  0  0  0  0  0  0  0  0
  -30.2662  -27.6602   21.4710 C   0  0  0  0  0  0  0  0  0  0  0  0
  -31.3825  -25.1247   21.7990 C   0  0  0  0  0  0  0  0  0  0  0  0
  -31.6793  -26.1403   22.7079 C   0  0  0  0  0  0  0  0  0  0  0  0
  -31.4356  -28.5127   23.5209 C   0  0  0  0  0  0  0  0  0  0  0  0
  -30.1779  -24.3220   19.7253 C   0  0  0  0  0  0  0  0  0  0  0  0
  -30.6923  -28.3871   24.8526 C   0  0  0  0  0  0  0  0  0  0  0  0
  -29.1784  -28.4953   24.7116 C   0  0  0  0  0  0  0  0  0  1  0  0
  -29.2288  -23.3651   20.2491 N   0  0  0  0  0  0  0  0  0  0  0  0
  -29.5539  -29.2147   21.2284 Cl  0  0  0  0  0  0  0  0  0  0  0  0
  -32.0590  -23.5353   21.9743 Cl  0  0  0  0  0  0  0  0  0  0  0  0
  -32.7407  -25.8521   24.0526 Cl  0  0  0  0  0  0  0  0  0  0  0  0
  -31.4485  -12.4701   19.0860 H   0  0  0  0  0  0  0  0  0  0  0  0
  -30.3970  -11.2460   19.6950 H   0  0  0  0  0  0  0  0  0  0  0  0
  -29.6870  -11.8204   17.4226 H   0  0  0  0  0  0  0  0  0  0  0  0
  -29.6375  -13.5326   17.8649 H   0  0  0  0  0  0  0  0  0  0  0  0
  -27.7830  -11.3650   18.7904 H   0  0  0  0  0  0  0  0  0  0  0  0
  -27.4028  -12.7801   17.8021 H   0  0  0  0  0  0  0  0  0  0  0  0
  -27.7353  -14.2503   19.6136 H   0  0  0  0  0  0  0  0  0  0  0  0
  -28.5890  -11.9550   21.3832 H   0  0  0  0  0  0  0  0  0  0  0  0
  -28.5005  -13.6134   21.8562 H   0  0  0  0  0  0  0  0  0  0  0  0
  -25.2399   -9.5495   22.4318 H   0  0  0  0  0  0  0  0  0  0  0  0
  -23.9663   -7.5070   22.7297 H   0  0  0  0  0  0  0  0  0  0  0  0
  -21.1515   -8.8641   19.9162 H   0  0  0  0  0  0  0  0  0  0  0  0
  -22.4016  -10.9115   19.6476 H   0  0  0  0  0  0  0  0  0  0  0  0
  -21.2319   -7.5552   23.9750 H   0  0  0  0  0  0  0  0  0  0  0  0
  -21.1589   -6.0228   25.8556 H   0  0  0  0  0  0  0  0  0  0  0  0
  -22.0396   -2.8212   23.2809 H   0  0  0  0  0  0  0  0  0  0  0  0
  -22.4401  -11.9703   22.4008 H   0  0  0  0  0  0  0  0  0  0  0  0
  -21.1493  -13.0679   22.2082 H   0  0  0  0  0  0  0  0  0  0  0  0
  -24.6538  -15.7807   20.5848 H   0  0  0  0  0  0  0  0  0  0  0  0
  -26.2762  -15.5453   20.1156 H   0  0  0  0  0  0  0  0  0  0  0  0
  -26.6778  -32.4663   23.1464 H   0  0  0  0  0  0  0  0  0  0  0  0
  -25.0747  -34.0282   25.0566 H   0  0  0  0  0  0  0  0  0  0  0  0
  -22.7881  -31.3489   21.4131 H   0  0  0  0  0  0  0  0  0  0  0  0
  -23.3854  -35.9823   23.3648 H   0  0  0  0  0  0  0  0  0  0  0  0
  -24.3696  -36.8624   22.2204 H   0  0  0  0  0  0  0  0  0  0  0  0
  -23.7669  -37.6632   23.6516 H   0  0  0  0  0  0  0  0  0  0  0  0
  -25.9445  -31.6237   20.5691 H   0  0  0  0  0  0  0  0  0  0  0  0
  -26.7436  -31.0079   22.0108 H   0  0  0  0  0  0  0  0  0  0  0  0
  -28.0090  -29.1452   21.2057 H   0  0  0  0  0  0  0  0  0  0  0  0
  -26.1369  -26.0560   19.0719 H   0  0  0  0  0  0  0  0  0  0  0  0
  -24.0652  -27.2961   19.0997 H   0  0  0  0  0  0  0  0  0  0  0  0
  -23.6156  -30.5365   19.3930 H   0  0  0  0  0  0  0  0  0  0  0  0
  -22.7355  -29.1425   19.9945 H   0  0  0  0  0  0  0  0  0  0  0  0
  -25.1353  -36.2335   25.0565 H   0  0  0  0  0  0  0  0  0  0  0  0
  -21.0070  -28.3206   24.0793 H   0  0  0  0  0  0  0  0  0  0  0  0
  -20.5555  -26.2518   23.3550 H   0  0  0  0  0  0  0  0  0  0  0  0
  -21.5974  -26.8362   22.0454 H   0  0  0  0  0  0  0  0  0  0  0  0
  -19.6810  -25.6422   21.1488 H   0  0  0  0  0  0  0  0  0  0  0  0
  -19.6406  -27.3343   20.7034 H   0  0  0  0  0  0  0  0  0  0  0  0
  -17.4282  -26.6888   21.4113 H   0  0  0  0  0  0  0  0  0  0  0  0
  -18.0803  -26.0130   22.9049 H   0  0  0  0  0  0  0  0  0  0  0  0
  -19.7265  -30.6774   24.2204 H   0  0  0  0  0  0  0  0  0  0  0  0
  -17.5064  -31.5856   24.4483 H   0  0  0  0  0  0  0  0  0  0  0  0
  -15.5878  -30.2839   23.7407 H   0  0  0  0  0  0  0  0  0  0  0  0
  -15.9120  -28.0941   22.7766 H   0  0  0  0  0  0  0  0  0  0  0  0
  -24.5787  -30.7757   25.6817 H   0  0  0  0  0  0  0  0  0  0  0  0
  -25.0041  -32.2289   26.5536 H   0  0  0  0  0  0  0  0  0  0  0  0
  -25.8166  -30.7245   26.9138 H   0  0  0  0  0  0  0  0  0  0  0  0
  -26.2892  -29.7335   24.0803 H   0  0  0  0  0  0  0  0  0  0  0  0
  -27.4336  -29.7484   25.4006 H   0  0  0  0  0  0  0  0  0  0  0  0
  -27.8466  -30.4994   23.8779 H   0  0  0  0  0  0  0  0  0  0  0  0
  -27.2251  -33.3632   26.1242 H   0  0  0  0  0  0  0  0  0  0  0  0
  -28.3902  -32.6065   25.0645 H   0  0  0  0  0  0  0  0  0  0  0  0
  -27.9772  -31.8555   26.5872 H   0  0  0  0  0  0  0  0  0  0  0  0
  -28.2744  -38.0016   24.6863 H   0  0  0  0  0  0  0  0  0  0  0  0
  -28.0396  -36.2711   24.7461 H   0  0  0  0  0  0  0  0  0  0  0  0
  -27.1773  -37.3087   25.8564 H   0  0  0  0  0  0  0  0  0  0  0  0
  -20.9627  -29.9365   21.7352 H   0  0  0  0  0  0  0  0  0  0  0  0
  -26.0447  -38.2561   24.0273 H   0  0  0  0  0  0  0  0  0  0  0  0
  -29.3367  -26.8310   19.7684 H   0  0  0  0  0  0  0  0  0  0  0  0
  -31.1688  -29.4466   23.0720 H   0  0  0  0  0  0  0  0  0  0  0  0
  -32.4811  -28.4482   23.7394 H   0  0  0  0  0  0  0  0  0  0  0  0
  -31.0709  -23.8035   19.4450 H   0  0  0  0  0  0  0  0  0  0  0  0
  -29.7271  -24.8046   18.8834 H   0  0  0  0  0  0  0  0  0  0  0  0
  -31.0291  -29.1662   25.5041 H   0  0  0  0  0  0  0  0  0  0  0  0
  -30.9051  -27.4140   25.2433 H   0  0  0  0  0  0  0  0  0  0  0  0
  -28.8524  -29.5102   24.8044 H   0  0  0  0  0  0  0  0  0  0  0  0
  -28.6392  -27.9594   25.4645 H   0  0  0  0  0  0  0  0  0  0  0  0
  -28.3658  -23.7032   20.5809 H   0  0  0  0  0  0  0  0  0  0  0  0
  1 25  1  0
  1 30  2  0
  1 81  1  0
  2  3  1  0
  2 25  1  0
  2 85  1  0
  2 86  1  0
  3  4  1  0
  3 87  1  0
  3 88  1  0
  4  5  1  0
  4 89  1  0
  4 90  1  0
  5  6  1  0
  5 26  1  0
  5 91  1  6
  6 25  1  0
  6 92  1  0
  6 93  1  0
  7  8  2  0
  7 26  1  0
  7 29  1  0
  8  9  1  0
  8 22  1  0
  9 10  1  0
  9 27  2  0
 10 11  2  0
 10 15  1  0
 11 12  1  0
 11 94  1  0
 12 13  2  0
 12 95  1  0
 13 14  1  0
 13 31  1  0
 14 15  2  0
 14 96  1  0
 15 97  1  0
 16 17  2  0
 16 21  1  0
 16 31  1  0
 17 18  1  0
 17 98  1  0
 18 19  2  0
 18 99  1  0
 19 20  1  0
 19 24  1  0
 20 21  2  0
 20100  1  0
 21 23  1  0
 22 28  1  0
 22 32  2  0
 26 27  1  0
 28101  1  0
 28102  1  0
 29103  1  0
 29104  1  0
 33 34  1  0
 33 66  1  0
 33 70  2  0
 34 36  1  0
 34 59  1  0
 34105  1  6
 35 44  2  0
 35 45  1  0
 35 68  1  0
 36 56  1  0
 36106  1  0
 37 39  1  0
 37 47  1  0
 37 66  1  0
 37107  1  6
 38 43  2  0
 38 46  1  0
 38 47  1  0
 39 64  1  0
 39 67  2  0
 40 52  1  0
 40 53  2  0
 40 58  1  0
 41108  1  0
 41109  1  0
 41110  1  0
 42 43  1  0
 42 66  1  0
 42111  1  0
 42112  1  0
 43 44  1  0
 44113  1  0
 45 46  2  0
 45114  1  0
 46115  1  0
 47116  1  0
 47117  1  0
 48 41  1  0
 48 56  1  0
 48 65  1  0
 48118  1  1
 49 50  1  0
 49 53  1  0
 49 64  1  0
 49119  1  1
 50 51  1  0
 50120  1  0
 50121  1  0
 51 52  1  0
 51122  1  0
 51123  1  0
 52124  1  0
 52125  1  0
 53 54  1  0
 54 55  2  0
 54126  1  0
 55 57  1  0
 55127  1  0
 56 69  2  0
 57 58  2  0
 57128  1  0
 58129  1  0
 59 60  1  0
 59 61  1  0
 59 62  1  0
 60130  1  0
 60131  1  0
 60132  1  0
 61133  1  0
 61134  1  0
 61135  1  0
 62136  1  0
 62137  1  0
 62138  1  0
 63 65  1  0
 63139  1  0
 63140  1  0
 63141  1  0
 64142  1  0
 65143  1  0
 68 80  1  0
 71 72  2  0
 71 74  1  0
 71144  1  0
 72 75  1  0
 72 78  1  0
 73 74  2  0
 73 76  1  0
 73 77  1  0
 74 82  1  0
 75 76  2  0
 75 83  1  0
 76 84  1  0
 77 79  1  0
 77145  1  0
 77146  1  0
 78 81  1  0
 78147  1  0
 78148  1  0
 79 80  1  0
 79149  1  0
 79150  1  0
 80151  1  0
 80152  1  0
 81153  1  0
M  ISO  4   1 100  68 101  80 101  81 100
M  END
$$$$
4
     RDKit          3D

162170  0  0  0  0  0  0  0  0999 V2000
  -30.7652  -14.3608   20.6636 C   0  0  0  0  0  0  0  0  0100  0  0
  -30.4392  -12.2669   19.3775 C   0  0  0  0  0  0  0  0  0101  0  0
  -29.4791  -12.5281   18.1977 C   0  0  0  0  0  0  0  0  0102  0  0
  -27.9985  -12.3963   18.6038 C   0  0  0  0  0  0  0  0  0103  0  0
  -27.6639  -13.2170   19.8820 C   0  0  2  0  0  0  0  0  0104  0  0
  -28.6795  -12.9602   21.0279 C   0  0  0  0  0  0  0  0  0105  0  0
  -25.2633  -13.8245   20.5754 C   0  0  0  0  0  0  0  0  0106  0  0
  -24.1645  -13.0409   20.9408 C   0  0  0  0  0  0  0  0  0107  0  0
  -24.6400  -11.7009   20.8697 C   0  0  0  0  0  0  0  0  0108  0  0
  -23.9005  -10.4085   21.0420 C   0  0  0  0  0  0  0  0  0109  0  0
  -24.3588   -9.4123   21.9123 C   0  0  0  0  0  0  0  0  0110  0  0
  -23.6296   -8.2350   22.0803 C   0  0  0  0  0  0  0  0  0111  0  0
  -22.4385   -8.0419   21.3657 C   0  0  0  0  0  0  0  0  0112  0  0
  -22.0103   -9.0167   20.4678 C   0  0  0  0  0  0  0  0  0113  0  0
  -22.7317  -10.1925   20.3102 C   0  0  0  0  0  0  0  0  0114  0  0
  -21.6857   -6.0709   22.5391 C   0  0  0  0  0  0  0  0  0115  0  0
  -21.4064   -6.5490   23.8264 C   0  0  0  0  0  0  0  0  0116  0  0
  -21.3635   -5.6677   24.9085 C   0  0  0  0  0  0  0  0  0117  0  0
  -21.5973   -4.3067   24.7088 C   0  0  0  0  0  0  0  0  0118  0  0
  -21.8700   -3.8284   23.4282 C   0  0  0  0  0  0  0  0  0119  0  0
  -21.9144   -4.7056   22.3460 C   0  0  0  0  0  0  0  0  0120  0  0
  -22.8194  -13.5263   21.1763 C   0  0  0  0  0  0  0  0  0121  0  0
  -22.1559   -4.2206   21.1063 F   0  0  0  0  0  0  0  0  0122  0  0
  -21.5628   -3.4510   25.7555 F   0  0  0  0  0  0  0  0  0123  0  0
  -30.0261  -13.1803   20.4553 N   0  0  0  0  0  0  0  0  0124  0  0
  -26.2911  -12.9356   20.3443 N   0  0  0  0  0  0  0  0  0125  0  0
  -25.9236  -11.6675   20.5847 N   0  0  0  0  0  0  0  0  0126  0  0
  -22.0708  -12.7905   22.0005 N   0  0  0  0  0  0  0  0  0127  0  0
  -25.4117  -15.1773   20.4097 N   0  0  0  0  0  0  0  0  0128  0  0
  -31.7916  -14.6724   20.0536 O   0  0  0  0  0  0  0  0  0129  0  0
  -21.6670   -6.9022   21.4423 O   0  0  0  0  0  0  0  0  0130  0  0
  -22.3946  -14.5564   20.6568 O   0  0  0  0  0  0  0  0  0131  0  0
  -24.6048  -31.8614   23.2223 C   0  0  0  0  0  0  0  0  0100  0  0
  -25.8822  -32.4841   23.8616 C   0  0  1  0  0  0  0  0  0101  0  0
  -27.2536  -27.5042   20.1156 C   0  0  0  0  0  0  0  0  0102  0  0
  -25.5726  -33.8762   24.2210 N   0  0  0  0  0  0  0  0  0103  0  0
  -23.4066  -30.4859   21.5461 C   0  0  2  0  0  0  0  0  0104  0  0
  -24.8467  -28.9636   20.1247 C   0  0  0  0  0  0  0  0  0105  0  0
  -22.7412  -29.4652   22.5052 C   0  0  0  0  0  0  0  0  0106  0  0
  -18.0167  -28.1302   22.8626 C   0  0  0  0  0  0  0  0  0107  0  0
  -24.1342  -36.7390   23.2568 C   0  0  0  0  0  0  0  0  0108  0  0
  -25.9141  -30.8882   21.3456 C   0  0  0  0  0  0  0  0  0109  0  0
  -25.9930  -29.5029   20.7208 C   0  0  0  0  0  0  0  0  0110  0  0
  -27.1758  -28.7612   20.7331 C   0  0  0  0  0  0  0  0  0111  0  0
  -26.1032  -26.9836   19.5230 C   0  0  0  0  0  0  0  0  0112  0  0
  -24.9097  -27.7011   19.5331 C   0  0  0  0  0  0  0  0  0113  0  0
  -23.5715  -29.7899   20.1582 C   0  0  0  0  0  0  0  0  0114  0  0
  -25.3990  -36.3212   24.0232 C   0  0  1  0  0  0  0  0  0115  0  0
  -20.5793  -28.3813   23.1004 C   0  0  2  0  0  0  0  0  0116  0  0
  -20.6548  -26.9392   22.5411 C   0  0  0  0  0  0  0  0  0117  0  0
  -19.5615  -26.6407   21.5143 C   0  0  0  0  0  0  0  0  0118  0  0
  -18.1797  -26.7818   22.1673 C   0  0  0  0  0  0  0  0  0119  0  0
  -19.1385  -28.8769   23.2988 C   0  0  0  0  0  0  0  0  0120  0  0
  -18.9183  -30.1286   23.8878 C   0  0  0  0  0  0  0  0  0121  0  0
  -17.6396  -30.6493   24.0352 C   0  0  0  0  0  0  0  0  0122  0  0
  -25.9153  -34.9582   23.4993 C   0  0  0  0  0  0  0  0  0123  0  0
  -16.5415  -29.9068   23.6254 C   0  0  0  0  0  0  0  0  0124  0  0
  -16.7331  -28.6521   23.0586 C   0  0  0  0  0  0  0  0  0125  0  0
  -26.4583  -31.6439   25.0683 C   0  0  0  0  0  0  0  0  0126  0  0
  -25.3807  -31.3179   26.1374 C   0  0  0  0  0  0  0  0  0127  0  0
  -27.0530  -30.3024   24.5680 C   0  0  0  0  0  0  0  0  0128  0  0
  -27.6014  -32.4281   25.7651 C   0  0  0  0  0  0  0  0  0129  0  0
  -27.5629  -37.2220   24.8621 C   0  0  0  0  0  0  0  0  0130  0  0
  -21.4133  -29.3375   22.3735 N   0  0  0  0  0  0  0  0  0131  0  0
  -26.4706  -37.3372   23.9061 N   0  0  0  0  0  0  0  0  0132  0  0
  -24.6674  -31.0544   22.1178 N   0  0  0  0  0  0  0  0  0133  0  0
  -23.4259  -28.8150   23.2971 O   0  0  0  0  0  0  0  0  0134  0  0
  -28.3948  -26.7345   20.0089 O   0  0  0  0  0  0  0  0  0135  0  0
  -26.5870  -34.9065   22.4671 O   0  0  0  0  0  0  0  0  0136  0  0
  -23.5365  -32.1254   23.7833 O   0  0  0  0  0  0  0  0  0137  0  0
  -31.8797  -27.4629   19.8062 C   0  0  0  0  0  0  0  0  0  0  0  0
  -33.0727  -26.7536   19.9444 C   0  0  0  0  0  0  0  0  0  0  0  0
  -31.1304  -26.6188   21.9424 C   0  0  0  0  0  0  0  0  0  0  0  0
  -30.9085  -27.3955   20.8053 C   0  0  0  0  0  0  0  0  0  0  0  0
  -32.3234  -25.9094   22.0805 C   0  0  0  0  0  0  0  0  0  0  0  0
  -33.2946  -25.9768   21.0815 C   0  0  0  0  0  0  0  0  0  0  0  0
  -32.5231  -25.0895   23.3141 C   0  0  0  0  0  0  0  0  0  0  0  0
  -29.6252  -28.1585   20.6562 C   0  0  0  0  0  0  0  0  0  1  0  0
  -31.9143  -21.2258   21.3010 C   0  0  0  0  0  0  0  0  0  0  0  0
  -30.9559  -21.7149   22.3934 C   0  0  0  0  0  0  0  0  0  0  0  0
  -31.6739  -21.9174   19.9622 C   0  0  0  0  0  0  0  0  0  0  0  0
  -31.0176  -23.2207   22.6213 C   0  0  0  0  0  0  0  0  0  0  0  0
  -30.3449  -21.6739   19.4471 N   0  0  0  0  0  0  0  0  0  0  0  0
  -32.3719  -23.6281   23.0794 N   0  0  0  0  0  0  0  0  0  0  0  0
  -34.7826  -25.1129   21.2184 Cl  0  0  0  0  0  0  0  0  0  0  0  0
  -31.4485  -12.4701   19.0860 H   0  0  0  0  0  0  0  0  0  0  0  0
  -30.3970  -11.2460   19.6950 H   0  0  0  0  0  0  0  0  0  0  0  0
  -29.6870  -11.8204   17.4226 H   0  0  0  0  0  0  0  0  0  0  0  0
  -29.6375  -13.5326   17.8649 H   0  0  0  0  0  0  0  0  0  0  0  0
  -27.7830  -11.3650   18.7904 H   0  0  0  0  0  0  0  0  0  0  0  0
  -27.4028  -12.7801   17.8021 H   0  0  0  0  0  0  0  0  0  0  0  0
  -27.7353  -14.2503   19.6136 H   0  0  0  0  0  0  0  0  0  0  0  0
  -28.5890  -11.9550   21.3832 H   0  0  0  0  0  0  0  0  0  0  0  0
  -28.5005  -13.6134   21.8562 H   0  0  0  0  0  0  0  0  0  0  0  0
  -25.2399   -9.5495   22.4318 H   0  0  0  0  0  0  0  0  0  0  0  0
  -23.9663   -7.5070   22.7297 H   0  0  0  0  0  0  0  0  0  0  0  0
  -21.1515   -8.8641   19.9162 H   0  0  0  0  0  0  0  0  0  0  0  0
  -22.4016  -10.9115   19.6476 H   0  0  0  0  0  0  0  0  0  0  0  0
  -21.2319   -7.5552   23.9750 H   0  0  0  0  0  0  0  0  0  0  0  0
  -21.1589   -6.0228   25.8556 H   0  0  0  0  0  0  0  0  0  0  0  0
  -22.0396   -2.8212   23.2809 H   0  0  0  0  0  0  0  0  0  0  0  0
  -22.4401  -11.9703   22.4008 H   0  0  0  0  0  0  0  0  0  0  0  0
  -21.1493  -13.0679   22.2082 H   0  0  0  0  0  0  0  0  0  0  0  0
  -24.6538  -15.7807   20.5848 H   0  0  0  0  0  0  0  0  0  0  0  0
  -26.2762  -15.5453   20.1156 H   0  0  0  0  0  0  0  0  0  0  0  0
  -26.6778  -32.4663   23.1464 H   0  0  0  0  0  0  0  0  0  0  0  0
  -25.0747  -34.0282   25.0566 H   0  0  0  0  0  0  0  0  0  0  0  0
  -22.7881  -31.3489   21.4131 H   0  0  0  0  0  0  0  0  0  0  0  0
  -23.3854  -35.9823   23.3648 H   0  0  0  0  0  0  0  0  0  0  0  0
  -24.3696  -36.8624   22.2204 H   0  0  0  0  0  0  0  0  0  0  0  0
  -23.7669  -37.6632   23.6516 H   0  0  0  0  0  0  0  0  0  0  0  0
  -25.9445  -31.6237   20.5691 H   0  0  0  0  0  0  0  0  0  0  0  0
  -26.7436  -31.0079   22.0108 H   0  0  0  0  0  0  0  0  0  0  0  0
  -28.0090  -29.1452   21.2057 H   0  0  0  0  0  0  0  0  0  0  0  0
  -26.1369  -26.0560   19.0719 H   0  0  0  0  0  0  0  0  0  0  0  0
  -24.0652  -27.2961   19.0997 H   0  0  0  0  0  0  0  0  0  0  0  0
  -23.6156  -30.5365   19.3930 H   0  0  0  0  0  0  0  0  0  0  0  0
  -22.7355  -29.1425   19.9945 H   0  0  0  0  0  0  0  0  0  0  0  0
  -25.1353  -36.2335   25.0565 H   0  0  0  0  0  0  0  0  0  0  0  0
  -21.0070  -28.3206   24.0793 H   0  0  0  0  0  0  0  0  0  0  0  0
  -20.5555  -26.2518   23.3550 H   0  0  0  0  0  0  0  0  0  0  0  0
  -21.5974  -26.8362   22.0454 H   0  0  0  0  0  0  0  0  0  0  0  0
  -19.6810  -25.6422   21.1488 H   0  0  0  0  0  0  0  0  0  0  0  0
  -19.6406  -27.3343   20.7034 H   0  0  0  0  0  0  0  0  0  0  0  0
  -17.4282  -26.6888   21.4113 H   0  0  0  0  0  0  0  0  0  0  0  0
  -18.0803  -26.0130   22.9049 H   0  0  0  0  0  0  0  0  0  0  0  0
  -19.7265  -30.6774   24.2204 H   0  0  0  0  0  0  0  0  0  0  0  0
  -17.5064  -31.5856   24.4483 H   0  0  0  0  0  0  0  0  0  0  0  0
  -15.5878  -30.2839   23.7407 H   0  0  0  0  0  0  0  0  0  0  0  0
  -15.9120  -28.0941   22.7766 H   0  0  0  0  0  0  0  0  0  0  0  0
  -24.5787  -30.7757   25.6817 H   0  0  0  0  0  0  0  0  0  0  0  0
  -25.0041  -32.2289   26.5536 H   0  0  0  0  0  0  0  0  0  0  0  0
  -25.8166  -30.7245   26.9138 H   0  0  0  0  0  0  0  0  0  0  0  0
  -26.2892  -29.7335   24.0803 H   0  0  0  0  0  0  0  0  0  0  0  0
  -27.4336  -29.7484   25.4006 H   0  0  0  0  0  0  0  0  0  0  0  0
  -27.8466  -30.4994   23.8779 H   0  0  0  0  0  0  0  0  0  0  0  0
  -27.2251  -33.3632   26.1242 H   0  0  0  0  0  0  0  0  0  0  0  0
  -28.3902  -32.6065   25.0645 H   0  0  0  0  0  0  0  0  0  0  0  0
  -27.9772  -31.8555   26.5872 H   0  0  0  0  0  0  0  0  0  0  0  0
  -28.2744  -38.0016   24.6863 H   0  0  0  0  0  0  0  0  0  0  0  0
  -28.0396  -36.2711   24.7461 H   0  0  0  0  0  0  0  0  0  0  0  0
  -27.1773  -37.3087   25.8564 H   0  0  0  0  0  0  0  0  0  0  0  0
  -20.9627  -29.9365   21.7352 H   0  0  0  0  0  0  0  0  0  0  0  0
  -26.0447  -38.2561   24.0273 H   0  0  0  0  0  0  0  0  0  0  0  0
  -31.7155  -28.0375   18.9649 H   0  0  0  0  0  0  0  0  0  0  0  0
  -33.7912  -26.8035   19.2053 H   0  0  0  0  0  0  0  0  0  0  0  0
  -30.4119  -26.5690   22.6815 H   0  0  0  0  0  0  0  0  0  0  0  0
  -31.8019  -25.3928   24.0441 H   0  0  0  0  0  0  0  0  0  0  0  0
  -33.5266  -25.2553   23.6462 H   0  0  0  0  0  0  0  0  0  0  0  0
  -29.7204  -28.9484   19.9408 H   0  0  0  0  0  0  0  0  0  0  0  0
  -29.2988  -28.6448   21.5517 H   0  0  0  0  0  0  0  0  0  0  0  0
  -31.7793  -20.1722   21.1723 H   0  0  0  0  0  0  0  0  0  0  0  0
  -32.9107  -21.4588   21.6137 H   0  0  0  0  0  0  0  0  0  0  0  0
  -31.2061  -21.2224   23.3098 H   0  0  0  0  0  0  0  0  0  0  0  0
  -29.9626  -21.4844   22.0692 H   0  0  0  0  0  0  0  0  0  0  0  0
  -32.3889  -21.5536   19.2542 H   0  0  0  0  0  0  0  0  0  0  0  0
  -31.7762  -22.9713   20.1163 H   0  0  0  0  0  0  0  0  0  0  0  0
  -30.2985  -23.4930   23.3654 H   0  0  0  0  0  0  0  0  0  0  0  0
  -30.8030  -23.7173   21.6981 H   0  0  0  0  0  0  0  0  0  0  0  0
  -29.6460  -22.2587   19.0746 H   0  0  0  0  0  0  0  0  0  0  0  0
  -32.5739  -23.1414   23.9527 H   0  0  0  0  0  0  0  0  0  0  0  0
  -33.0202  -23.3831   22.3310 H   0  0  0  0  0  0  0  0  0  0  0  0
  1 25  1  0
  1 30  2  0
  1 83  1  0
  2  3  1  0
  2 25  1  0
  2 86  1  0
  2 87  1  0
  3  4  1  0
  3 88  1  0
  3 89  1  0
  4  5  1  0
  4 90  1  0
  4 91  1  0
  5  6  1  0
  5 26  1  0
  5 92  1  6
  6 25  1  0
  6 93  1  0
  6 94  1  0
  7  8  2  0
  7 26  1  0
  7 29  1  0
  8  9  1  0
  8 22  1  0
  9 10  1  0
  9 27  2  0
 10 11  2  0
 10 15  1  0
 11 12  1  0
 11 95  1  0
 12 13  2  0
 12 96  1  0
 13 14  1  0
 13 31  1  0
 14 15  2  0
 14 97  1  0
 15 98  1  0
 16 17  2  0
 16 21  1  0
 16 31  1  0
 17 18  1  0
 17 99  1  0
 18 19  2  0
 18100  1  0
 19 20  1  0
 19 24  1  0
 20 21  2  0
 20101  1  0
 21 23  1  0
 22 28  1  0
 22 32  2  0
 26 27  1  0
 28102  1  0
 28103  1  0
 29104  1  0
 29105  1  0
 33 34  1  0
 33 66  1  0
 33 70  2  0
 34 36  1  0
 34 59  1  0
 34106  1  6
 35 44  2  0
 35 45  1  0
 35 68  1  0
 36 56  1  0
 36107  1  0
 37 39  1  0
 37 47  1  0
 37 66  1  0
 37108  1  6
 38 43  2  0
 38 46  1  0
 38 47  1  0
 39 64  1  0
 39 67  2  0
 40 52  1  0
 40 53  2  0
 40 58  1  0
 41109  1  0
 41110  1  0
 41111  1  0
 42 43  1  0
 42 66  1  0
 42112  1  0
 42113  1  0
 43 44  1  0
 44114  1  0
 45 46  2  0
 45115  1  0
 46116  1  0
 47117  1  0
 47118  1  0
 48 41  1  0
 48 56  1  0
 48 65  1  0
 48119  1  1
 49 50  1  0
 49 53  1  0
 49 64  1  0
 49120  1  1
 50 51  1  0
 50121  1  0
 50122  1  0
 51 52  1  0
 51123  1  0
 51124  1  0
 52125  1  0
 52126  1  0
 53 54  1  0
 54 55  2  0
 54127  1  0
 55 57  1  0
 55128  1  0
 56 69  2  0
 57 58  2  0
 57129  1  0
 58130  1  0
 59 60  1  0
 59 61  1  0
 59 62  1  0
 60131  1  0
 60132  1  0
 60133  1  0
 61134  1  0
 61135  1  0
 61136  1  0
 62137  1  0
 62138  1  0
 62139  1  0
 63 65  1  0
 63140  1  0
 63141  1  0
 63142  1  0
 64143  1  0
 65144  1  0
 68 78  1  0
 71 72  2  0
 71 74  1  0
 71145  1  0
 72 76  1  0
 72146  1  0
 73 74  2  0
 73 75  1  0
 73147  1  0
 74 78  1  0
 75 76  2  0
 75 77  1  0
 76 85  1  0
 77 84  1  0
 77148  1  0
 77149  1  0
 78150  1  0
 78151  1  0
 79 80  1  0
 79 81  1  0
 79152  1  0
 79153  1  0
 80 82  1  0
 80154  1  0
 80155  1  0
 81 83  1  0
 81156  1  0
 81157  1  0
 82 84  1  0
 82158  1  0
 82159  1  0
 83160  1  0
 84161  1  0
 84162  1  0
M  CHG  1  84   1
M  ISO  4   1 100  68 101  78 101  83 100
M  END
$$$$
5
     RDKit          3D

165174  0  0  0  0  0  0  0  0999 V2000
  -30.7652  -14.3608   20.6636 C   0  0  0  0  0  0  0  0  0100  0  0
  -30.4392  -12.2669   19.3775 C   0  0  0  0  0  0  0  0  0101  0  0
  -29.4791  -12.5281   18.1977 C   0  0  0  0  0  0  0  0  0102  0  0
  -27.9985  -12.3963   18.6038 C   0  0  0  0  0  0  0  0  0103  0  0
  -27.6639  -13.2170   19.8820 C   0  0  2  0  0  0  0  0  0104  0  0
  -28.6795  -12.9602   21.0279 C   0  0  0  0  0  0  0  0  0105  0  0
  -25.2633  -13.8245   20.5754 C   0  0  0  0  0  0  0  0  0106  0  0
  -24.1645  -13.0409   20.9408 C   0  0  0  0  0  0  0  0  0107  0  0
  -24.6400  -11.7009   20.8697 C   0  0  0  0  0  0  0  0  0108  0  0
  -23.9005  -10.4085   21.0420 C   0  0  0  0  0  0  0  0  0109  0  0
  -24.3588   -9.4123   21.9123 C   0  0  0  0  0  0  0  0  0110  0  0
  -23.6296   -8.2350   22.0803 C   0  0  0  0  0  0  0  0  0111  0  0
  -22.4385   -8.0419   21.3657 C   0  0  0  0  0  0  0  0  0112  0  0
  -22.0103   -9.0167   20.4678 C   0  0  0  0  0  0  0  0  0113  0  0
  -22.7317  -10.1925   20.3102 C   0  0  0  0  0  0  0  0  0114  0  0
  -21.6857   -6.0709   22.5391 C   0  0  0  0  0  0  0  0  0115  0  0
  -21.4064   -6.5490   23.8264 C   0  0  0  0  0  0  0  0  0116  0  0
  -21.3635   -5.6677   24.9085 C   0  0  0  0  0  0  0  0  0117  0  0
  -21.5973   -4.3067   24.7088 C   0  0  0  0  0  0  0  0  0118  0  0
  -21.8700   -3.8284   23.4282 C   0  0  0  0  0  0  0  0  0119  0  0
  -21.9144   -4.7056   22.3460 C   0  0  0  0  0  0  0  0  0120  0  0
  -22.8194  -13.5263   21.1763 C   0  0  0  0  0  0  0  0  0121  0  0
  -22.1559   -4.2206   21.1063 F   0  0  0  0  0  0  0  0  0122  0  0
  -21.5628   -3.4510   25.7555 F   0  0  0  0  0  0  0  0  0123  0  0
  -30.0261  -13.1803   20.4553 N   0  0  0  0  0  0  0  0  0124  0  0
  -26.2911  -12.9356   20.3443 N   0  0  0  0  0  0  0  0  0125  0  0
  -25.9236  -11.6675   20.5847 N   0  0  0  0  0  0  0  0  0126  0  0
  -22.0708  -12.7905   22.0005 N   0  0  0  0  0  0  0  0  0127  0  0
  -25.4117  -15.1773   20.4097 N   0  0  0  0  0  0  0  0  0128  0  0
  -31.7916  -14.6724   20.0536 O   0  0  0  0  0  0  0  0  0129  0  0
  -21.6670   -6.9022   21.4423 O   0  0  0  0  0  0  0  0  0130  0  0
  -22.3946  -14.5564   20.6568 O   0  0  0  0  0  0  0  0  0131  0  0
  -24.6048  -31.8614   23.2223 C   0  0  0  0  0  0  0  0  0100  0  0
  -25.8822  -32.4841   23.8616 C   0  0  1  0  0  0  0  0  0101  0  0
  -27.2536  -27.5042   20.1156 C   0  0  0  0  0  0  0  0  0102  0  0
  -25.5726  -33.8762   24.2210 N   0  0  0  0  0  0  0  0  0103  0  0
  -23.4066  -30.4859   21.5461 C   0  0  2  0  0  0  0  0  0104  0  0
  -24.8467  -28.9636   20.1247 C   0  0  0  0  0  0  0  0  0105  0  0
  -22.7412  -29.4652   22.5052 C   0  0  0  0  0  0  0  0  0106  0  0
  -18.0167  -28.1302   22.8626 C   0  0  0  0  0  0  0  0  0107  0  0
  -24.1342  -36.7390   23.2568 C   0  0  0  0  0  0  0  0  0108  0  0
  -25.9141  -30.8882   21.3456 C   0  0  0  0  0  0  0  0  0109  0  0
  -25.9930  -29.5029   20.7208 C   0  0  0  0  0  0  0  0  0110  0  0
  -27.1758  -28.7612   20.7331 C   0  0  0  0  0  0  0  0  0111  0  0
  -26.1032  -26.9836   19.5230 C   0  0  0  0  0  0  0  0  0112  0  0
  -24.9097  -27.7011   19.5331 C   0  0  0  0  0  0  0  0  0113  0  0
  -23.5715  -29.7899   20.1582 C   0  0  0  0  0  0  0  0  0114  0  0
  -25.3990  -36.3212   24.0232 C   0  0  1  0  0  0  0  0  0115  0  0
  -20.5793  -28.3813   23.1004 C   0  0  2  0  0  0  0  0  0116  0  0
  -20.6548  -26.9392   22.5411 C   0  0  0  0  0  0  0  0  0117  0  0
  -19.5615  -26.6407   21.5143 C   0  0  0  0  0  0  0  0  0118  0  0
  -18.1797  -26.7818   22.1673 C   0  0  0  0  0  0  0  0  0119  0  0
  -19.1385  -28.8769   23.2988 C   0  0  0  0  0  0  0  0  0120  0  0
  -18.9183  -30.1286   23.8878 C   0  0  0  0  0  0  0  0  0121  0  0
  -17.6396  -30.6493   24.0352 C   0  0  0  0  0  0  0  0  0122  0  0
  -25.9153  -34.9582   23.4993 C   0  0  0  0  0  0  0  0  0123  0  0
  -16.5415  -29.9068   23.6254 C   0  0  0  0  0  0  0  0  0124  0  0
  -16.7331  -28.6521   23.0586 C   0  0  0  0  0  0  0  0  0125  0  0
  -26.4583  -31.6439   25.0683 C   0  0  0  0  0  0  0  0  0126  0  0
  -25.3807  -31.3179   26.1374 C   0  0  0  0  0  0  0  0  0127  0  0
  -27.0530  -30.3024   24.5680 C   0  0  0  0  0  0  0  0  0128  0  0
  -27.6014  -32.4281   25.7651 C   0  0  0  0  0  0  0  0  0129  0  0
  -27.5629  -37.2220   24.8621 C   0  0  0  0  0  0  0  0  0130  0  0
  -21.4133  -29.3375   22.3735 N   0  0  0  0  0  0  0  0  0131  0  0
  -26.4706  -37.3372   23.9061 N   0  0  0  0  0  0  0  0  0132  0  0
  -24.6674  -31.0544   22.1178 N   0  0  0  0  0  0  0  0  0133  0  0
  -23.4259  -28.8150   23.2971 O   0  0  0  0  0  0  0  0  0134  0  0
  -28.3948  -26.7345   20.0089 O   0  0  0  0  0  0  0  0  0135  0  0
  -26.5870  -34.9065   22.4671 O   0  0  0  0  0  0  0  0  0136  0  0
  -23.5365  -32.1254   23.7833 O   0  0  0  0  0  0  0  0  0137  0  0
  -29.8379  -18.0451   22.0712 C   0  0  0  0  0  0  0  0  0  0  0  0
  -29.9441  -18.9384   23.1496 C   0  0  0  0  0  0  0  0  0  0  0  0
  -28.8561  -18.2838   21.0989 C   0  0  0  0  0  0  0  0  0  0  0  0
  -28.0082  -19.3690   21.2537 C   0  0  0  0  0  0  0  0  0  0  0  0
  -29.0360  -19.9982   23.2010 C   0  0  0  0  0  0  0  0  0  0  0  0
  -31.6730  -16.6164   23.1288 C   0  0  0  0  0  0  0  0  0  0  0  0
  -30.9820  -18.7837   24.2408 C   0  0  2  0  0  0  0  0  0  0  0  0
  -30.8104  -16.8966   21.8922 C   0  0  1  0  0  0  0  0  0  0  0  0
  -32.1741  -17.8991   23.8047 C   0  0  2  0  0  0  0  0  0  0  0  0
  -30.3184  -18.2327   25.5119 C   0  0  0  0  0  0  0  0  0  0  0  0
  -27.5069  -20.3418   18.9979 C   0  0  0  0  0  0  0  0  0  0  0  0
  -26.9432  -19.6816   20.2518 C   0  0  0  0  0  0  0  0  0  0  0  0
  -33.1499  -18.6705   22.9061 C   0  0  0  0  0  0  0  0  0  0  0  0
  -33.9657  -19.6639   23.7074 C   0  0  0  0  0  0  0  0  0  1  0  0
  -28.0709  -20.2331   22.2854 N   0  0  0  0  0  0  0  0  0  0  0  0
  -30.1453  -15.6746   21.4986 N   0  0  0  0  0  0  0  0  0  0  0  0
  -28.7216  -17.3576   19.6353 Cl  0  0  0  0  0  0  0  0  0  0  0  0
  -29.0496  -21.2238   24.4181 Cl  0  0  0  0  0  0  0  0  0  0  0  0
  -31.4485  -12.4701   19.0860 H   0  0  0  0  0  0  0  0  0  0  0  0
  -30.3970  -11.2460   19.6950 H   0  0  0  0  0  0  0  0  0  0  0  0
  -29.6870  -11.8204   17.4226 H   0  0  0  0  0  0  0  0  0  0  0  0
  -29.6375  -13.5326   17.8649 H   0  0  0  0  0  0  0  0  0  0  0  0
  -27.7830  -11.3650   18.7904 H   0  0  0  0  0  0  0  0  0  0  0  0
  -27.4028  -12.7801   17.8021 H   0  0  0  0  0  0  0  0  0  0  0  0
  -27.7353  -14.2503   19.6136 H   0  0  0  0  0  0  0  0  0  0  0  0
  -28.5890  -11.9550   21.3832 H   0  0  0  0  0  0  0  0  0  0  0  0
  -28.5005  -13.6134   21.8562 H   0  0  0  0  0  0  0  0  0  0  0  0
  -25.2399   -9.5495   22.4318 H   0  0  0  0  0  0  0  0  0  0  0  0
  -23.9663   -7.5070   22.7297 H   0  0  0  0  0  0  0  0  0  0  0  0
  -21.1515   -8.8641   19.9162 H   0  0  0  0  0  0  0  0  0  0  0  0
  -22.4016  -10.9115   19.6476 H   0  0  0  0  0  0  0  0  0  0  0  0
  -21.2319   -7.5552   23.9750 H   0  0  0  0  0  0  0  0  0  0  0  0
  -21.1589   -6.0228   25.8556 H   0  0  0  0  0  0  0  0  0  0  0  0
  -22.0396   -2.8212   23.2809 H   0  0  0  0  0  0  0  0  0  0  0  0
  -22.4401  -11.9703   22.4008 H   0  0  0  0  0  0  0  0  0  0  0  0
  -21.1493  -13.0679   22.2082 H   0  0  0  0  0  0  0  0  0  0  0  0
  -24.6538  -15.7807   20.5848 H   0  0  0  0  0  0  0  0  0  0  0  0
  -26.2762  -15.5453   20.1156 H   0  0  0  0  0  0  0  0  0  0  0  0
  -26.6778  -32.4663   23.1464 H   0  0  0  0  0  0  0  0  0  0  0  0
  -25.0747  -34.0282   25.0566 H   0  0  0  0  0  0  0  0  0  0  0  0
  -22.7881  -31.3489   21.4131 H   0  0  0  0  0  0  0  0  0  0  0  0
  -23.3854  -35.9823   23.3648 H   0  0  0  0  0  0  0  0  0  0  0  0
  -24.3696  -36.8624   22.2204 H   0  0  0  0  0  0  0  0  0  0  0  0
  -23.7669  -37.6632   23.6516 H   0  0  0  0  0  0  0  0  0  0  0  0
  -25.9445  -31.6237   20.5691 H   0  0  0  0  0  0  0  0  0  0  0  0
  -26.7436  -31.0079   22.0108 H   0  0  0  0  0  0  0  0  0  0  0  0
  -28.0090  -29.1452   21.2057 H   0  0  0  0  0  0  0  0  0  0  0  0
  -26.1369  -26.0560   19.0719 H   0  0  0  0  0  0  0  0  0  0  0  0
  -24.0652  -27.2961   19.0997 H   0  0  0  0  0  0  0  0  0  0  0  0
  -23.6156  -30.5365   19.3930 H   0  0  0  0  0  0  0  0  0  0  0  0
  -22.7355  -29.1425   19.9945 H   0  0  0  0  0  0  0  0  0  0  0  0
  -25.1353  -36.2335   25.0565 H   0  0  0  0  0  0  0  0  0  0  0  0
  -21.0070  -28.3206   24.0793 H   0  0  0  0  0  0  0  0  0  0  0  0
  -20.5555  -26.2518   23.3550 H   0  0  0  0  0  0  0  0  0  0  0  0
  -21.5974  -26.8362   22.0454 H   0  0  0  0  0  0  0  0  0  0  0  0
  -19.6810  -25.6422   21.1488 H   0  0  0  0  0  0  0  0  0  0  0  0
  -19.6406  -27.3343   20.7034 H   0  0  0  0  0  0  0  0  0  0  0  0
  -17.4282  -26.6888   21.4113 H   0  0  0  0  0  0  0  0  0  0  0  0
  -18.0803  -26.0130   22.9049 H   0  0  0  0  0  0  0  0  0  0  0  0
  -19.7265  -30.6774   24.2204 H   0  0  0  0  0  0  0  0  0  0  0  0
  -17.5064  -31.5856   24.4483 H   0  0  0  0  0  0  0  0  0  0  0  0
  -15.5878  -30.2839   23.7407 H   0  0  0  0  0  0  0  0  0  0  0  0
  -15.9120  -28.0941   22.7766 H   0  0  0  0  0  0  0  0  0  0  0  0
  -24.5787  -30.7757   25.6817 H   0  0  0  0  0  0  0  0  0  0  0  0
  -25.0041  -32.2289   26.5536 H   0  0  0  0  0  0  0  0  0  0  0  0
  -25.8166  -30.7245   26.9138 H   0  0  0  0  0  0  0  0  0  0  0  0
  -26.2892  -29.7335   24.0803 H   0  0  0  0  0  0  0  0  0  0  0  0
  -27.4336  -29.7484   25.4006 H   0  0  0  0  0  0  0  0  0  0  0  0
  -27.8466  -30.4994   23.8779 H   0  0  0  0  0  0  0  0  0  0  0  0
  -27.2251  -33.3632   26.1242 H   0  0  0  0  0  0  0  0  0  0  0  0
  -28.3902  -32.6065   25.0645 H   0  0  0  0  0  0  0  0  0  0  0  0
  -27.9772  -31.8555   26.5872 H   0  0  0  0  0  0  0  0  0  0  0  0
  -28.2744  -38.0016   24.6863 H   0  0  0  0  0  0  0  0  0  0  0  0
  -28.0396  -36.2711   24.7461 H   0  0  0  0  0  0  0  0  0  0  0  0
  -27.1773  -37.3087   25.8564 H   0  0  0  0  0  0  0  0  0  0  0  0
  -20.9627  -29.9365   21.7352 H   0  0  0  0  0  0  0  0  0  0  0  0
  -26.0447  -38.2561   24.0273 H   0  0  0  0  0  0  0  0  0  0  0  0
  -32.5194  -16.0335   22.8307 H   0  0  0  0  0  0  0  0  0  0  0  0
  -31.0630  -16.0954   23.8368 H   0  0  0  0  0  0  0  0  0  0  0  0
  -31.3879  -19.7523   24.4457 H   0  0  0  0  0  0  0  0  0  0  0  0
  -31.4599  -17.2219   21.1065 H   0  0  0  0  0  0  0  0  0  0  0  0
  -32.7179  -17.6181   24.6823 H   0  0  0  0  0  0  0  0  0  0  0  0
  -29.9113  -17.2639   25.3104 H   0  0  0  0  0  0  0  0  0  0  0  0
  -29.5340  -18.8923   25.8193 H   0  0  0  0  0  0  0  0  0  0  0  0
  -31.0477  -18.1581   26.2913 H   0  0  0  0  0  0  0  0  0  0  0  0
  -26.7103  -20.5456   18.3133 H   0  0  0  0  0  0  0  0  0  0  0  0
  -28.2145  -19.6851   18.5364 H   0  0  0  0  0  0  0  0  0  0  0  0
  -27.9914  -21.2579   19.2642 H   0  0  0  0  0  0  0  0  0  0  0  0
  -26.2324  -20.3440   20.7000 H   0  0  0  0  0  0  0  0  0  0  0  0
  -26.4862  -18.7592   19.9599 H   0  0  0  0  0  0  0  0  0  0  0  0
  -32.5939  -19.1977   22.1592 H   0  0  0  0  0  0  0  0  0  0  0  0
  -33.8198  -17.9693   22.4538 H   0  0  0  0  0  0  0  0  0  0  0  0
  -34.9971  -19.7193   23.4279 H   0  0  0  0  0  0  0  0  0  0  0  0
  -34.0985  -19.5534   24.7634 H   0  0  0  0  0  0  0  0  0  0  0  0
  -29.1978  -15.6049   21.7567 H   0  0  0  0  0  0  0  0  0  0  0  0
  1 25  1  0
  1 30  2  0
  1 86  1  0
  2  3  1  0
  2 25  1  0
  2 89  1  0
  2 90  1  0
  3  4  1  0
  3 91  1  0
  3 92  1  0
  4  5  1  0
  4 93  1  0
  4 94  1  0
  5  6  1  0
  5 26  1  0
  5 95  1  6
  6 25  1  0
  6 96  1  0
  6 97  1  0
  7  8  2  0
  7 26  1  0
  7 29  1  0
  8  9  1  0
  8 22  1  0
  9 10  1  0
  9 27  2  0
 10 11  2  0
 10 15  1  0
 11 12  1  0
 11 98  1  0
 12 13  2  0
 12 99  1  0
 13 14  1  0
 13 31  1  0
 14 15  2  0
 14100  1  0
 15101  1  0
 16 17  2  0
 16 21  1  0
 16 31  1  0
 17 18  1  0
 17102  1  0
 18 19  2  0
 18103  1  0
 19 20  1  0
 19 24  1  0
 20 21  2  0
 20104  1  0
 21 23  1  0
 22 28  1  0
 22 32  2  0
 26 27  1  0
 28105  1  0
 28106  1  0
 29107  1  0
 29108  1  0
 33 34  1  0
 33 66  1  0
 33 70  2  0
 34 36  1  0
 34 59  1  0
 34109  1  6
 35 44  2  0
 35 45  1  0
 35 68  1  0
 36 56  1  0
 36110  1  0
 37 39  1  0
 37 47  1  0
 37 66  1  0
 37111  1  6
 38 43  2  0
 38 46  1  0
 38 47  1  0
 39 64  1  0
 39 67  2  0
 40 52  1  0
 40 53  2  0
 40 58  1  0
 41112  1  0
 41113  1  0
 41114  1  0
 42 43  1  0
 42 66  1  0
 42115  1  0
 42116  1  0
 43 44  1  0
 44117  1  0
 45 46  2  0
 45118  1  0
 46119  1  0
 47120  1  0
 47121  1  0
 48 41  1  0
 48 56  1  0
 48 65  1  0
 48122  1  1
 49 50  1  0
 49 53  1  0
 49 64  1  0
 49123  1  1
 50 51  1  0
 50124  1  0
 50125  1  0
 51 52  1  0
 51126  1  0
 51127  1  0
 52128  1  0
 52129  1  0
 53 54  1  0
 54 55  2  0
 54130  1  0
 55 57  1  0
 55131  1  0
 56 69  2  0
 57 58  2  0
 57132  1  0
 58133  1  0
 59 60  1  0
 59 61  1  0
 59 62  1  0
 60134  1  0
 60135  1  0
 60136  1  0
 61137  1  0
 61138  1  0
 61139  1  0
 62140  1  0
 62141  1  0
 62142  1  0
 63 65  1  0
 63143  1  0
 63144  1  0
 63145  1  0
 64146  1  0
 65147  1  0
 68 84  1  0
 71 72  1  0
 71 73  2  0
 71 78  1  0
 72 75  2  0
 72 77  1  0
 73 74  1  0
 73 87  1  0
 74 82  1  0
 74 85  2  0
 75 85  1  0
 75 88  1  0
 76 78  1  0
 76 79  1  0
 76148  1  0
 76149  1  0
 77 79  1  0
 77 80  1  0
 77150  1  1
 78 86  1  0
 78151  1  6
 79 83  1  0
 79152  1  1
 80153  1  0
 80154  1  0
 80155  1  0
 81 82  1  0
 81156  1  0
 81157  1  0
 81158  1  0
 82159  1  0
 82160  1  0
 83 84  1  0
 83161  1  0
 83162  1  0
 84163  1  0
 84164  1  0
 86165  1  0
M  ISO  4   1 100  68 101  84 101  86 100
M  END
$$$$
6
     RDKit          3D

197206  0  0  0  0  0  0  0  0999 V2000
  -30.7652  -14.3608   20.6636 C   0  0  0  0  0  0  0  0  0100  0  0
  -30.4392  -12.2669   19.3775 C   0  0  0  0  0  0  0  0  0101  0  0
  -29.4791  -12.5281   18.1977 C   0  0  0  0  0  0  0  0  0102  0  0
  -27.9985  -12.3963   18.6038 C   0  0  0  0  0  0  0  0  0103  0  0
  -27.6639  -13.2170   19.8820 C   0  0  2  0  0  0  0  0  0104  0  0
  -28.6795  -12.9602   21.0279 C   0  0  0  0  0  0  0  0  0105  0  0
  -25.2633  -13.8245   20.5754 C   0  0  0  0  0  0  0  0  0106  0  0
  -24.1645  -13.0409   20.9408 C   0  0  0  0  0  0  0  0  0107  0  0
  -24.6400  -11.7009   20.8697 C   0  0  0  0  0  0  0  0  0108  0  0
  -23.9005  -10.4085   21.0420 C   0  0  0  0  0  0  0  0  0109  0  0
  -24.3588   -9.4123   21.9123 C   0  0  0  0  0  0  0  0  0110  0  0
  -23.6296   -8.2350   22.0803 C   0  0  0  0  0  0  0  0  0111  0  0
  -22.4385   -8.0419   21.3657 C   0  0  0  0  0  0  0  0  0112  0  0
  -22.0103   -9.0167   20.4678 C   0  0  0  0  0  0  0  0  0113  0  0
  -22.7317  -10.1925   20.3102 C   0  0  0  0  0  0  0  0  0114  0  0
  -21.6857   -6.0709   22.5391 C   0  0  0  0  0  0  0  0  0115  0  0
  -21.4064   -6.5490   23.8264 C   0  0  0  0  0  0  0  0  0116  0  0
  -21.3635   -5.6677   24.9085 C   0  0  0  0  0  0  0  0  0117  0  0
  -21.5973   -4.3067   24.7088 C   0  0  0  0  0  0  0  0  0118  0  0
  -21.8700   -3.8284   23.4282 C   0  0  0  0  0  0  0  0  0119  0  0
  -21.9144   -4.7056   22.3460 C   0  0  0  0  0  0  0  0  0120  0  0
  -22.8194  -13.5263   21.1763 C   0  0  0  0  0  0  0  0  0121  0  0
  -22.1559   -4.2206   21.1063 F   0  0  0  0  0  0  0  0  0122  0  0
  -21.5628   -3.4510   25.7555 F   0  0  0  0  0  0  0  0  0123  0  0
  -30.0261  -13.1803   20.4553 N   0  0  0  0  0  0  0  0  0124  0  0
  -26.2911  -12.9356   20.3443 N   0  0  0  0  0  0  0  0  0125  0  0
  -25.9236  -11.6675   20.5847 N   0  0  0  0  0  0  0  0  0126  0  0
  -22.0708  -12.7905   22.0005 N   0  0  0  0  0  0  0  0  0127  0  0
  -25.4117  -15.1773   20.4097 N   0  0  0  0  0  0  0  0  0128  0  0
  -31.7916  -14.6724   20.0536 O   0  0  0  0  0  0  0  0  0129  0  0
  -21.6670   -6.9022   21.4423 O   0  0  0  0  0  0  0  0  0130  0  0
  -22.3946  -14.5564   20.6568 O   0  0  0  0  0  0  0  0  0131  0  0
  -24.6048  -31.8614   23.2223 C   0  0  0  0  0  0  0  0  0100  0  0
  -25.8822  -32.4841   23.8616 C   0  0  1  0  0  0  0  0  0101  0  0
  -27.2536  -27.5042   20.1156 C   0  0  0  0  0  0  0  0  0102  0  0
  -25.5726  -33.8762   24.2210 N   0  0  0  0  0  0  0  0  0103  0  0
  -23.4066  -30.4859   21.5461 C   0  0  2  0  0  0  0  0  0104  0  0
  -24.8467  -28.9636   20.1247 C   0  0  0  0  0  0  0  0  0105  0  0
  -22.7412  -29.4652   22.5052 C   0  0  0  0  0  0  0  0  0106  0  0
  -18.0167  -28.1302   22.8626 C   0  0  0  0  0  0  0  0  0107  0  0
  -24.1342  -36.7390   23.2568 C   0  0  0  0  0  0  0  0  0108  0  0
  -25.9141  -30.8882   21.3456 C   0  0  0  0  0  0  0  0  0109  0  0
  -25.9930  -29.5029   20.7208 C   0  0  0  0  0  0  0  0  0110  0  0
  -27.1758  -28.7612   20.7331 C   0  0  0  0  0  0  0  0  0111  0  0
  -26.1032  -26.9836   19.5230 C   0  0  0  0  0  0  0  0  0112  0  0
  -24.9097  -27.7011   19.5331 C   0  0  0  0  0  0  0  0  0113  0  0
  -23.5715  -29.7899   20.1582 C   0  0  0  0  0  0  0  0  0114  0  0
  -25.3990  -36.3212   24.0232 C   0  0  1  0  0  0  0  0  0115  0  0
  -20.5793  -28.3813   23.1004 C   0  0  2  0  0  0  0  0  0116  0  0
  -20.6548  -26.9392   22.5411 C   0  0  0  0  0  0  0  0  0117  0  0
  -19.5615  -26.6407   21.5143 C   0  0  0  0  0  0  0  0  0118  0  0
  -18.1797  -26.7818   22.1673 C   0  0  0  0  0  0  0  0  0119  0  0
  -19.1385  -28.8769   23.2988 C   0  0  0  0  0  0  0  0  0120  0  0
  -18.9183  -30.1286   23.8878 C   0  0  0  0  0  0  0  0  0121  0  0
  -17.6396  -30.6493   24.0352 C   0  0  0  0  0  0  0  0  0122  0  0
  -25.9153  -34.9582   23.4993 C   0  0  0  0  0  0  0  0  0123  0  0
  -16.5415  -29.9068   23.6254 C   0  0  0  0  0  0  0  0  0124  0  0
  -16.7331  -28.6521   23.0586 C   0  0  0  0  0  0  0  0  0125  0  0
  -26.4583  -31.6439   25.0683 C   0  0  0  0  0  0  0  0  0126  0  0
  -25.3807  -31.3179   26.1374 C   0  0  0  0  0  0  0  0  0127  0  0
  -27.0530  -30.3024   24.5680 C   0  0  0  0  0  0  0  0  0128  0  0
  -27.6014  -32.4281   25.7651 C   0  0  0  0  0  0  0  0  0129  0  0
  -27.5629  -37.2220   24.8621 C   0  0  0  0  0  0  0  0  0130  0  0
  -21.4133  -29.3375   22.3735 N   0  0  0  0  0  0  0  0  0131  0  0
  -26.4706  -37.3372   23.9061 N   0  0  0  0  0  0  0  0  0132  0  0
  -24.6674  -31.0544   22.1178 N   0  0  0  0  0  0  0  0  0133  0  0
  -23.4259  -28.8150   23.2971 O   0  0  0  0  0  0  0  0  0134  0  0
  -28.3948  -26.7345   20.0089 O   0  0  0  0  0  0  0  0  0135  0  0
  -26.5870  -34.9065   22.4671 O   0  0  0  0  0  0  0  0  0136  0  0
  -23.5365  -32.1254   23.7833 O   0  0  0  0  0  0  0  0  0137  0  0
  -17.0825  -20.4715   10.4966 C   0  0  0  0  0  0  0  0  0  0  0  0
  -18.1202  -20.4614   11.4286 C   0  0  0  0  0  0  0  0  0  0  0  0
  -19.4364  -20.2774   11.0050 C   0  0  0  0  0  0  0  0  0  0  0  0
  -18.6772  -20.1134    8.7173 C   0  0  0  0  0  0  0  0  0  0  0  0
  -17.3610  -20.2974    9.1409 C   0  0  0  0  0  0  0  0  0  0  0  0
  -19.7149  -20.1034    9.6493 C   0  0  0  0  0  0  0  0  0  0  0  0
  -15.3854  -20.8649   14.9546 C   0  0  0  0  0  0  0  0  0  0  0  0
  -15.0747  -21.2972   16.3803 C   0  0  0  0  0  0  0  0  0  0  0  0
  -17.4116  -20.7146   17.0724 C   0  0  0  0  0  0  0  0  0  0  0  0
  -17.7459  -20.2650   15.6426 C   0  0  2  0  0  0  0  0  0  0  0  0
  -16.4856  -19.7783   14.8591 C   0  0  2  0  0  0  0  0  0  0  0  0
  -18.9742  -19.9286    7.2673 C   0  0  0  0  0  0  0  0  0  0  0  0
  -23.8099  -23.0522   14.7222 C   0  0  0  0  0  0  0  0  0  0  0  0
  -17.7932  -20.6507   12.8884 C   0  0  0  0  0  0  0  0  0  0  0  0
  -20.5610  -20.2651   11.9881 C   0  0  0  0  0  0  0  0  0  0  0  0
  -18.0628  -24.8875   20.6022 C   0  0  0  0  0  0  0  0  0  0  0  0
  -18.8849  -19.2394   15.7024 C   0  0  0  0  0  0  0  0  0  1  0  0
  -16.8210  -19.5814   13.3649 C   0  0  0  0  0  0  0  0  0  0  0  0
  -22.5926  -23.0614   13.8113 C   0  0  0  0  0  0  0  0  0  0  0  0
  -20.9879  -21.6636   12.4504 C   0  0  0  0  0  0  0  0  0  0  0  0
  -16.9762  -23.8817   20.2316 C   0  0  0  0  0  0  0  0  0  0  0  0
  -22.1908  -21.6448   13.3990 C   0  0  0  0  0  0  0  0  0  0  0  0
  -17.1840  -23.2843   18.8345 C   0  0  0  0  0  0  0  0  0  0  0  0
  -16.0714  -22.3315   18.4135 C   0  0  0  0  0  0  0  0  0  0  0  0
  -15.9392  -18.4386   15.3961 C   0  0  0  0  0  0  0  0  0  0  0  0
  -16.3398  -21.7743   17.0418 N   0  0  2  0  0  0  0  0  0  0  0  0
  -16.3571  -20.3083    8.2529 F   0  0  0  0  0  0  0  0  0  0  0  0
  -20.9804  -19.9269    9.2410 F   0  0  0  0  0  0  0  0  0  0  0  0
  -16.9047  -17.5125   15.2678 F   0  0  0  0  0  0  0  0  0  0  0  0
  -14.9012  -18.0720   14.6254 F   0  0  0  0  0  0  0  0  0  0  0  0
  -31.4485  -12.4701   19.0860 H   0  0  0  0  0  0  0  0  0  0  0  0
  -30.3970  -11.2460   19.6950 H   0  0  0  0  0  0  0  0  0  0  0  0
  -29.6870  -11.8204   17.4226 H   0  0  0  0  0  0  0  0  0  0  0  0
  -29.6375  -13.5326   17.8649 H   0  0  0  0  0  0  0  0  0  0  0  0
  -27.7830  -11.3650   18.7904 H   0  0  0  0  0  0  0  0  0  0  0  0
  -27.4028  -12.7801   17.8021 H   0  0  0  0  0  0  0  0  0  0  0  0
  -27.7353  -14.2503   19.6136 H   0  0  0  0  0  0  0  0  0  0  0  0
  -28.5890  -11.9550   21.3832 H   0  0  0  0  0  0  0  0  0  0  0  0
  -28.5005  -13.6134   21.8562 H   0  0  0  0  0  0  0  0  0  0  0  0
  -25.2399   -9.5495   22.4318 H   0  0  0  0  0  0  0  0  0  0  0  0
  -23.9663   -7.5070   22.7297 H   0  0  0  0  0  0  0  0  0  0  0  0
  -21.1515   -8.8641   19.9162 H   0  0  0  0  0  0  0  0  0  0  0  0
  -22.4016  -10.9115   19.6476 H   0  0  0  0  0  0  0  0  0  0  0  0
  -21.2319   -7.5552   23.9750 H   0  0  0  0  0  0  0  0  0  0  0  0
  -21.1589   -6.0228   25.8556 H   0  0  0  0  0  0  0  0  0  0  0  0
  -22.0396   -2.8212   23.2809 H   0  0  0  0  0  0  0  0  0  0  0  0
  -22.4401  -11.9703   22.4008 H   0  0  0  0  0  0  0  0  0  0  0  0
  -21.1493  -13.0679   22.2082 H   0  0  0  0  0  0  0  0  0  0  0  0
  -24.6538  -15.7807   20.5848 H   0  0  0  0  0  0  0  0  0  0  0  0
  -26.2762  -15.5453   20.1156 H   0  0  0  0  0  0  0  0  0  0  0  0
  -26.6778  -32.4663   23.1464 H   0  0  0  0  0  0  0  0  0  0  0  0
  -25.0747  -34.0282   25.0566 H   0  0  0  0  0  0  0  0  0  0  0  0
  -22.7881  -31.3489   21.4131 H   0  0  0  0  0  0  0  0  0  0  0  0
  -23.3854  -35.9823   23.3648 H   0  0  0  0  0  0  0  0  0  0  0  0
  -24.3696  -36.8624   22.2204 H   0  0  0  0  0  0  0  0  0  0  0  0
  -23.7669  -37.6632   23.6516 H   0  0  0  0  0  0  0  0  0  0  0  0
  -25.9445  -31.6237   20.5691 H   0  0  0  0  0  0  0  0  0  0  0  0
  -26.7436  -31.0079   22.0108 H   0  0  0  0  0  0  0  0  0  0  0  0
  -28.0090  -29.1452   21.2057 H   0  0  0  0  0  0  0  0  0  0  0  0
  -26.1369  -26.0560   19.0719 H   0  0  0  0  0  0  0  0  0  0  0  0
  -24.0652  -27.2961   19.0997 H   0  0  0  0  0  0  0  0  0  0  0  0
  -23.6156  -30.5365   19.3930 H   0  0  0  0  0  0  0  0  0  0  0  0
  -22.7355  -29.1425   19.9945 H   0  0  0  0  0  0  0  0  0  0  0  0
  -25.1353  -36.2335   25.0565 H   0  0  0  0  0  0  0  0  0  0  0  0
  -21.0070  -28.3206   24.0793 H   0  0  0  0  0  0  0  0  0  0  0  0
  -20.5555  -26.2518   23.3550 H   0  0  0  0  0  0  0  0  0  0  0  0
  -21.5974  -26.8362   22.0454 H   0  0  0  0  0  0  0  0  0  0  0  0
  -19.6810  -25.6422   21.1488 H   0  0  0  0  0  0  0  0  0  0  0  0
  -19.6406  -27.3343   20.7034 H   0  0  0  0  0  0  0  0  0  0  0  0
  -17.4282  -26.6888   21.4113 H   0  0  0  0  0  0  0  0  0  0  0  0
  -18.0803  -26.0130   22.9049 H   0  0  0  0  0  0  0  0  0  0  0  0
  -19.7265  -30.6774   24.2204 H   0  0  0  0  0  0  0  0  0  0  0  0
  -17.5064  -31.5856   24.4483 H   0  0  0  0  0  0  0  0  0  0  0  0
  -15.5878  -30.2839   23.7407 H   0  0  0  0  0  0  0  0  0  0  0  0
  -15.9120  -28.0941   22.7766 H   0  0  0  0  0  0  0  0  0  0  0  0
  -24.5787  -30.7757   25.6817 H   0  0  0  0  0  0  0  0  0  0  0  0
  -25.0041  -32.2289   26.5536 H   0  0  0  0  0  0  0  0  0  0  0  0
  -25.8166  -30.7245   26.9138 H   0  0  0  0  0  0  0  0  0  0  0  0
  -26.2892  -29.7335   24.0803 H   0  0  0  0  0  0  0  0  0  0  0  0
  -27.4336  -29.7484   25.4006 H   0  0  0  0  0  0  0  0  0  0  0  0
  -27.8466  -30.4994   23.8779 H   0  0  0  0  0  0  0  0  0  0  0  0
  -27.2251  -33.3632   26.1242 H   0  0  0  0  0  0  0  0  0  0  0  0
  -28.3902  -32.6065   25.0645 H   0  0  0  0  0  0  0  0  0  0  0  0
  -27.9772  -31.8555   26.5872 H   0  0  0  0  0  0  0  0  0  0  0  0
  -28.2744  -38.0016   24.6863 H   0  0  0  0  0  0  0  0  0  0  0  0
  -28.0396  -36.2711   24.7461 H   0  0  0  0  0  0  0  0  0  0  0  0
  -27.1773  -37.3087   25.8564 H   0  0  0  0  0  0  0  0  0  0  0  0
  -20.9627  -29.9365   21.7352 H   0  0  0  0  0  0  0  0  0  0  0  0
  -26.0447  -38.2561   24.0273 H   0  0  0  0  0  0  0  0  0  0  0  0
  -16.1087  -20.6078   10.8100 H   0  0  0  0  0  0  0  0  0  0  0  0
  -15.7098  -21.7234   14.4044 H   0  0  0  0  0  0  0  0  0  0  0  0
  -14.4892  -20.4385   14.5548 H   0  0  0  0  0  0  0  0  0  0  0  0
  -14.6764  -20.4678   16.9266 H   0  0  0  0  0  0  0  0  0  0  0  0
  -14.3563  -22.0901   16.3662 H   0  0  0  0  0  0  0  0  0  0  0  0
  -18.2911  -21.1132   17.5334 H   0  0  0  0  0  0  0  0  0  0  0  0
  -17.0584  -19.8736   17.6317 H   0  0  0  0  0  0  0  0  0  0  0  0
  -18.0895  -21.1024   15.0721 H   0  0  0  0  0  0  0  0  0  0  0  0
  -18.0622  -19.9650    6.7090 H   0  0  0  0  0  0  0  0  0  0  0  0
  -19.4462  -18.9800    7.1180 H   0  0  0  0  0  0  0  0  0  0  0  0
  -19.6273  -20.7082    6.9348 H   0  0  0  0  0  0  0  0  0  0  0  0
  -24.0624  -24.0568   14.9903 H   0  0  0  0  0  0  0  0  0  0  0  0
  -24.6347  -22.6015   14.2108 H   0  0  0  0  0  0  0  0  0  0  0  0
  -23.5894  -22.4918   15.6066 H   0  0  0  0  0  0  0  0  0  0  0  0
  -17.3504  -21.6149   13.0270 H   0  0  0  0  0  0  0  0  0  0  0  0
  -18.6966  -20.5719   13.4563 H   0  0  0  0  0  0  0  0  0  0  0  0
  -21.4033  -19.7877   11.5325 H   0  0  0  0  0  0  0  0  0  0  0  0
  -20.2149  -19.7405   12.8541 H   0  0  0  0  0  0  0  0  0  0  0  0
  -17.8970  -25.3321   21.5612 H   0  0  0  0  0  0  0  0  0  0  0  0
  -18.1567  -25.7420   19.9651 H   0  0  0  0  0  0  0  0  0  0  0  0
  -19.1050  -18.8333   14.7372 H   0  0  0  0  0  0  0  0  0  0  0  0
  -18.6839  -18.3762   16.3019 H   0  0  0  0  0  0  0  0  0  0  0  0
  -15.9201  -19.6445   12.7911 H   0  0  0  0  0  0  0  0  0  0  0  0
  -17.2750  -18.6210   13.2371 H   0  0  0  0  0  0  0  0  0  0  0  0
  -22.8201  -23.6280   12.9326 H   0  0  0  0  0  0  0  0  0  0  0  0
  -21.7762  -23.4998   14.3463 H   0  0  0  0  0  0  0  0  0  0  0  0
  -20.1633  -22.1211   12.9560 H   0  0  0  0  0  0  0  0  0  0  0  0
  -21.2790  -22.2115   11.5787 H   0  0  0  0  0  0  0  0  0  0  0  0
  -16.0276  -24.3761   20.2562 H   0  0  0  0  0  0  0  0  0  0  0  0
  -17.0191  -23.0799   20.9388 H   0  0  0  0  0  0  0  0  0  0  0  0
  -21.9358  -21.0856   14.2749 H   0  0  0  0  0  0  0  0  0  0  0  0
  -23.0165  -21.1932   12.8899 H   0  0  0  0  0  0  0  0  0  0  0  0
  -18.1101  -22.7484   18.8288 H   0  0  0  0  0  0  0  0  0  0  0  0
  -17.1840  -24.0977   18.1393 H   0  0  0  0  0  0  0  0  0  0  0  0
  -15.1414  -22.8605   18.4020 H   0  0  0  0  0  0  0  0  0  0  0  0
  -16.0290  -21.5218   19.1117 H   0  0  0  0  0  0  0  0  0  0  0  0
  -15.6376  -18.5329   16.4184 H   0  0  0  0  0  0  0  0  0  0  0  0
  -16.7002  -22.5347   16.4653 H   0  0  0  0  0  0  0  0  0  0  0  0
  1 25  1  0
  1 30  2  0
  1 86  1  0
  2  3  1  0
  2 25  1  0
  2101  1  0
  2102  1  0
  3  4  1  0
  3103  1  0
  3104  1  0
  4  5  1  0
  4105  1  0
  4106  1  0
  5  6  1  0
  5 26  1  0
  5107  1  6
  6 25  1  0
  6108  1  0
  6109  1  0
  7  8  2  0
  7 26  1  0
  7 29  1  0
  8  9  1  0
  8 22  1  0
  9 10  1  0
  9 27  2  0
 10 11  2  0
 10 15  1  0
 11 12  1  0
 11110  1  0
 12 13  2  0
 12111  1  0
 13 14  1  0
 13 31  1  0
 14 15  2  0
 14112  1  0
 15113  1  0
 16 17  2  0
 16 21  1  0
 16 31  1  0
 17 18  1  0
 17114  1  0
 18 19  2  0
 18115  1  0
 19 20  1  0
 19 24  1  0
 20 21  2  0
 20116  1  0
 21 23  1  0
 22 28  1  0
 22 32  2  0
 26 27  1  0
 28117  1  0
 28118  1  0
 29119  1  0
 29120  1  0
 33 34  1  0
 33 66  1  0
 33 70  2  0
 34 36  1  0
 34 59  1  0
 34121  1  6
 35 44  2  0
 35 45  1  0
 35 68  1  0
 36 56  1  0
 36122  1  0
 37 39  1  0
 37 47  1  0
 37 66  1  0
 37123  1  6
 38 43  2  0
 38 46  1  0
 38 47  1  0
 39 64  1  0
 39 67  2  0
 40 52  1  0
 40 53  2  0
 40 58  1  0
 41124  1  0
 41125  1  0
 41126  1  0
 42 43  1  0
 42 66  1  0
 42127  1  0
 42128  1  0
 43 44  1  0
 44129  1  0
 45 46  2  0
 45130  1  0
 46131  1  0
 47132  1  0
 47133  1  0
 48 41  1  0
 48 56  1  0
 48 65  1  0
 48134  1  1
 49 50  1  0
 49 53  1  0
 49 64  1  0
 49135  1  1
 50 51  1  0
 50136  1  0
 50137  1  0
 51 52  1  0
 51138  1  0
 51139  1  0
 52140  1  0
 52141  1  0
 53 54  1  0
 54 55  2  0
 54142  1  0
 55 57  1  0
 55143  1  0
 56 69  2  0
 57 58  2  0
 57144  1  0
 58145  1  0
 59 60  1  0
 59 61  1  0
 59 62  1  0
 60146  1  0
 60147  1  0
 60148  1  0
 61149  1  0
 61150  1  0
 61151  1  0
 62152  1  0
 62153  1  0
 62154  1  0
 63 65  1  0
 63155  1  0
 63156  1  0
 63157  1  0
 64158  1  0
 65159  1  0
 68 87  1  0
 71 72  2  0
 71 75  1  0
 71160  1  0
 72 73  1  0
 72 84  1  0
 73 76  2  0
 73 85  1  0
 74 75  2  0
 74 76  1  0
 74 82  1  0
 75 97  1  0
 76 98  1  0
 77 78  1  0
 77 81  1  0
 77161  1  0
 77162  1  0
 78 96  1  0
 78163  1  0
 78164  1  0
 79 80  1  0
 79 96  1  0
 79165  1  0
 79166  1  0
 80 81  1  0
 80 87  1  0
 80167  1  6
 81 88  1  6
 81 95  1  0
 82168  1  0
 82169  1  0
 82170  1  0
 83 89  1  0
 83171  1  0
 83172  1  0
 83173  1  0
 84 88  1  0
 84174  1  0
 84175  1  0
 85 90  1  0
 85176  1  0
 85177  1  0
 86 91  1  0
 86178  1  0
 86179  1  0
 87180  1  0
 87181  1  0
 88182  1  0
 88183  1  0
 89 92  1  0
 89184  1  0
 89185  1  0
 90 92  1  0
 90186  1  0
 90187  1  0
 91 93  1  0
 91188  1  0
 91189  1  0
 92190  1  0
 92191  1  0
 93 94  1  0
 93192  1  0
 93193  1  0
 94194  1  0
 94195  1  0
 95 99  1  0
 95100  1  0
 95196  1  0
 96 94  1  0
 96197  1  6
M  CHG  1  96   1
M  ISO  4   1 100  68 101  86 100  87 101
M  END
$$$$
7
     RDKit          3D

165173  0  0  0  0  0  0  0  0999 V2000
  -30.7652  -14.3608   20.6636 C   0  0  0  0  0  0  0  0  0100  0  0
  -30.4392  -12.2669   19.3775 C   0  0  0  0  0  0  0  0  0101  0  0
  -29.4791  -12.5281   18.1977 C   0  0  0  0  0  0  0  0  0102  0  0
  -27.9985  -12.3963   18.6038 C   0  0  0  0  0  0  0  0  0103  0  0
  -27.6639  -13.2170   19.8820 C   0  0  2  0  0  0  0  0  0104  0  0
  -28.6795  -12.9602   21.0279 C   0  0  0  0  0  0  0  0  0105  0  0
  -25.2633  -13.8245   20.5754 C   0  0  0  0  0  0  0  0  0106  0  0
  -24.1645  -13.0409   20.9408 C   0  0  0  0  0  0  0  0  0107  0  0
  -24.6400  -11.7009   20.8697 C   0  0  0  0  0  0  0  0  0108  0  0
  -23.9005  -10.4085   21.0420 C   0  0  0  0  0  0  0  0  0109  0  0
  -24.3588   -9.4123   21.9123 C   0  0  0  0  0  0  0  0  0110  0  0
  -23.6296   -8.2350   22.0803 C   0  0  0  0  0  0  0  0  0111  0  0
  -22.4385   -8.0419   21.3657 C   0  0  0  0  0  0  0  0  0112  0  0
  -22.0103   -9.0167   20.4678 C   0  0  0  0  0  0  0  0  0113  0  0
  -22.7317  -10.1925   20.3102 C   0  0  0  0  0  0  0  0  0114  0  0
  -21.6857   -6.0709   22.5391 C   0  0  0  0  0  0  0  0  0115  0  0
  -21.4064   -6.5490   23.8264 C   0  0  0  0  0  0  0  0  0116  0  0
  -21.3635   -5.6677   24.9085 C   0  0  0  0  0  0  0  0  0117  0  0
  -21.5973   -4.3067   24.7088 C   0  0  0  0  0  0  0  0  0118  0  0
  -21.8700   -3.8284   23.4282 C   0  0  0  0  0  0  0  0  0119  0  0
  -21.9144   -4.7056   22.3460 C   0  0  0  0  0  0  0  0  0120  0  0
  -22.8194  -13.5263   21.1763 C   0  0  0  0  0  0  0  0  0121  0  0
  -22.1559   -4.2206   21.1063 F   0  0  0  0  0  0  0  0  0122  0  0
  -21.5628   -3.4510   25.7555 F   0  0  0  0  0  0  0  0  0123  0  0
  -30.0261  -13.1803   20.4553 N   0  0  0  0  0  0  0  0  0124  0  0
  -26.2911  -12.9356   20.3443 N   0  0  0  0  0  0  0  0  0125  0  0
  -25.9236  -11.6675   20.5847 N   0  0  0  0  0  0  0  0  0126  0  0
  -22.0708  -12.7905   22.0005 N   0  0  0  0  0  0  0  0  0127  0  0
  -25.4117  -15.1773   20.4097 N   0  0  0  0  0  0  0  0  0128  0  0
  -31.7916  -14.6724   20.0536 O   0  0  0  0  0  0  0  0  0129  0  0
  -21.6670   -6.9022   21.4423 O   0  0  0  0  0  0  0  0  0130  0  0
  -22.3946  -14.5564   20.6568 O   0  0  0  0  0  0  0  0  0131  0  0
  -24.6048  -31.8614   23.2223 C   0  0  0  0  0  0  0  0  0100  0  0
  -25.8822  -32.4841   23.8616 C   0  0  1  0  0  0  0  0  0101  0  0
  -27.2536  -27.5042   20.1156 C   0  0  0  0  0  0  0  0  0102  0  0
  -25.5726  -33.8762   24.2210 N   0  0  0  0  0  0  0  0  0103  0  0
  -23.4066  -30.4859   21.5461 C   0  0  2  0  0  0  0  0  0104  0  0
  -24.8467  -28.9636   20.1247 C   0  0  0  0  0  0  0  0  0105  0  0
  -22.7412  -29.4652   22.5052 C   0  0  0  0  0  0  0  0  0106  0  0
  -18.0167  -28.1302   22.8626 C   0  0  0  0  0  0  0  0  0107  0  0
  -24.1342  -36.7390   23.2568 C   0  0  0  0  0  0  0  0  0108  0  0
  -25.9141  -30.8882   21.3456 C   0  0  0  0  0  0  0  0  0109  0  0
  -25.9930  -29.5029   20.7208 C   0  0  0  0  0  0  0  0  0110  0  0
  -27.1758  -28.7612   20.7331 C   0  0  0  0  0  0  0  0  0111  0  0
  -26.1032  -26.9836   19.5230 C   0  0  0  0  0  0  0  0  0112  0  0
  -24.9097  -27.7011   19.5331 C   0  0  0  0  0  0  0  0  0113  0  0
  -23.5715  -29.7899   20.1582 C   0  0  0  0  0  0  0  0  0114  0  0
  -25.3990  -36.3212   24.0232 C   0  0  1  0  0  0  0  0  0115  0  0
  -20.5793  -28.3813   23.1004 C   0  0  2  0  0  0  0  0  0116  0  0
  -20.6548  -26.9392   22.5411 C   0  0  0  0  0  0  0  0  0117  0  0
  -19.5615  -26.6407   21.5143 C   0  0  0  0  0  0  0  0  0118  0  0
  -18.1797  -26.7818   22.1673 C   0  0  0  0  0  0  0  0  0119  0  0
  -19.1385  -28.8769   23.2988 C   0  0  0  0  0  0  0  0  0120  0  0
  -18.9183  -30.1286   23.8878 C   0  0  0  0  0  0  0  0  0121  0  0
  -17.6396  -30.6493   24.0352 C   0  0  0  0  0  0  0  0  0122  0  0
  -25.9153  -34.9582   23.4993 C   0  0  0  0  0  0  0  0  0123  0  0
  -16.5415  -29.9068   23.6254 C   0  0  0  0  0  0  0  0  0124  0  0
  -16.7331  -28.6521   23.0586 C   0  0  0  0  0  0  0  0  0125  0  0
  -26.4583  -31.6439   25.0683 C   0  0  0  0  0  0  0  0  0126  0  0
  -25.3807  -31.3179   26.1374 C   0  0  0  0  0  0  0  0  0127  0  0
  -27.0530  -30.3024   24.5680 C   0  0  0  0  0  0  0  0  0128  0  0
  -27.6014  -32.4281   25.7651 C   0  0  0  0  0  0  0  0  0129  0  0
  -27.5629  -37.2220   24.8621 C   0  0  0  0  0  0  0  0  0130  0  0
  -21.4133  -29.3375   22.3735 N   0  0  0  0  0  0  0  0  0131  0  0
  -26.4706  -37.3372   23.9061 N   0  0  0  0  0  0  0  0  0132  0  0
  -24.6674  -31.0544   22.1178 N   0  0  0  0  0  0  0  0  0133  0  0
  -23.4259  -28.8150   23.2971 O   0  0  0  0  0  0  0  0  0134  0  0
  -28.3948  -26.7345   20.0089 O   0  0  0  0  0  0  0  0  0135  0  0
  -26.5870  -34.9065   22.4671 O   0  0  0  0  0  0  0  0  0136  0  0
  -23.5365  -32.1254   23.7833 O   0  0  0  0  0  0  0  0  0137  0  0
  -24.8374  -10.9284   17.9869 C   0  0  0  0  0  0  0  0  0  0  0  0
  -24.5346  -10.8115   19.3434 C   0  0  0  0  0  0  0  0  0  0  0  0
  -25.8763  -11.7624   17.5735 C   0  0  0  0  0  0  0  0  0  0  0  0
  -25.2706  -11.5286   20.2866 C   0  0  0  0  0  0  0  0  0  0  0  0
  -26.6122  -12.4796   18.5168 C   0  0  0  0  0  0  0  0  0  0  0  0
  -26.3094  -12.3627   19.8733 C   0  0  0  0  0  0  0  0  0  0  0  0
  -23.4170   -9.9119   19.7594 C   0  0  0  0  0  0  0  0  0  0  0  0
  -26.1808  -11.8691   16.1150 C   0  0  0  0  0  0  0  0  0  0  0  0
  -24.9438  -11.4013   21.7410 C   0  0  0  0  0  0  0  0  0  0  0  0
  -27.7253  -13.3740   18.0705 C   0  0  0  0  0  0  0  0  0  0  0  0
  -27.1062  -13.1383   20.8941 C   0  0  0  0  0  0  0  0  0  0  0  0
  -29.1307  -12.7675   18.2367 C   0  0  0  0  0  0  0  0  0  0  0  0
  -30.2646  -13.6575   17.7323 C   0  0  0  0  0  0  0  0  0  0  0  0
  -26.3578  -14.3654   21.4032 C   0  0  0  0  0  0  0  0  0  1  0  0
  -30.2923  -14.9444   18.3911 N   0  0  0  0  0  0  0  0  0  0  0  0
  -31.4485  -12.4701   19.0860 H   0  0  0  0  0  0  0  0  0  0  0  0
  -30.3970  -11.2460   19.6950 H   0  0  0  0  0  0  0  0  0  0  0  0
  -29.6870  -11.8204   17.4226 H   0  0  0  0  0  0  0  0  0  0  0  0
  -29.6375  -13.5326   17.8649 H   0  0  0  0  0  0  0  0  0  0  0  0
  -27.7830  -11.3650   18.7904 H   0  0  0  0  0  0  0  0  0  0  0  0
  -27.4028  -12.7801   17.8021 H   0  0  0  0  0  0  0  0  0  0  0  0
  -27.7353  -14.2503   19.6136 H   0  0  0  0  0  0  0  0  0  0  0  0
  -28.5890  -11.9550   21.3832 H   0  0  0  0  0  0  0  0  0  0  0  0
  -28.5005  -13.6134   21.8562 H   0  0  0  0  0  0  0  0  0  0  0  0
  -25.2399   -9.5495   22.4318 H   0  0  0  0  0  0  0  0  0  0  0  0
  -23.9663   -7.5070   22.7297 H   0  0  0  0  0  0  0  0  0  0  0  0
  -21.1515   -8.8641   19.9162 H   0  0  0  0  0  0  0  0  0  0  0  0
  -22.4016  -10.9115   19.6476 H   0  0  0  0  0  0  0  0  0  0  0  0
  -21.2319   -7.5552   23.9750 H   0  0  0  0  0  0  0  0  0  0  0  0
  -21.1589   -6.0228   25.8556 H   0  0  0  0  0  0  0  0  0  0  0  0
  -22.0396   -2.8212   23.2809 H   0  0  0  0  0  0  0  0  0  0  0  0
  -22.4401  -11.9703   22.4008 H   0  0  0  0  0  0  0  0  0  0  0  0
  -21.1493  -13.0679   22.2082 H   0  0  0  0  0  0  0  0  0  0  0  0
  -24.6538  -15.7807   20.5848 H   0  0  0  0  0  0  0  0  0  0  0  0
  -26.2762  -15.5453   20.1156 H   0  0  0  0  0  0  0  0  0  0  0  0
  -26.6778  -32.4663   23.1464 H   0  0  0  0  0  0  0  0  0  0  0  0
  -25.0747  -34.0282   25.0566 H   0  0  0  0  0  0  0  0  0  0  0  0
  -22.7881  -31.3489   21.4131 H   0  0  0  0  0  0  0  0  0  0  0  0
  -23.3854  -35.9823   23.3648 H   0  0  0  0  0  0  0  0  0  0  0  0
  -24.3696  -36.8624   22.2204 H   0  0  0  0  0  0  0  0  0  0  0  0
  -23.7669  -37.6632   23.6516 H   0  0  0  0  0  0  0  0  0  0  0  0
  -25.9445  -31.6237   20.5691 H   0  0  0  0  0  0  0  0  0  0  0  0
  -26.7436  -31.0079   22.0108 H   0  0  0  0  0  0  0  0  0  0  0  0
  -28.0090  -29.1452   21.2057 H   0  0  0  0  0  0  0  0  0  0  0  0
  -26.1369  -26.0560   19.0719 H   0  0  0  0  0  0  0  0  0  0  0  0
  -24.0652  -27.2961   19.0997 H   0  0  0  0  0  0  0  0  0  0  0  0
  -23.6156  -30.5365   19.3930 H   0  0  0  0  0  0  0  0  0  0  0  0
  -22.7355  -29.1425   19.9945 H   0  0  0  0  0  0  0  0  0  0  0  0
  -25.1353  -36.2335   25.0565 H   0  0  0  0  0  0  0  0  0  0  0  0
  -21.0070  -28.3206   24.0793 H   0  0  0  0  0  0  0  0  0  0  0  0
  -20.5555  -26.2518   23.3550 H   0  0  0  0  0  0  0  0  0  0  0  0
  -21.5974  -26.8362   22.0454 H   0  0  0  0  0  0  0  0  0  0  0  0
  -19.6810  -25.6422   21.1488 H   0  0  0  0  0  0  0  0  0  0  0  0
  -19.6406  -27.3343   20.7034 H   0  0  0  0  0  0  0  0  0  0  0  0
  -17.4282  -26.6888   21.4113 H   0  0  0  0  0  0  0  0  0  0  0  0
  -18.0803  -26.0130   22.9049 H   0  0  0  0  0  0  0  0  0  0  0  0
  -19.7265  -30.6774   24.2204 H   0  0  0  0  0  0  0  0  0  0  0  0
  -17.5064  -31.5856   24.4483 H   0  0  0  0  0  0  0  0  0  0  0  0
  -15.5878  -30.2839   23.7407 H   0  0  0  0  0  0  0  0  0  0  0  0
  -15.9120  -28.0941   22.7766 H   0  0  0  0  0  0  0  0  0  0  0  0
  -24.5787  -30.7757   25.6817 H   0  0  0  0  0  0  0  0  0  0  0  0
  -25.0041  -32.2289   26.5536 H   0  0  0  0  0  0  0  0  0  0  0  0
  -25.8166  -30.7245   26.9138 H   0  0  0  0  0  0  0  0  0  0  0  0
  -26.2892  -29.7335   24.0803 H   0  0  0  0  0  0  0  0  0  0  0  0
  -27.4336  -29.7484   25.4006 H   0  0  0  0  0  0  0  0  0  0  0  0
  -27.8466  -30.4994   23.8779 H   0  0  0  0  0  0  0  0  0  0  0  0
  -27.2251  -33.3632   26.1242 H   0  0  0  0  0  0  0  0  0  0  0  0
  -28.3902  -32.6065   25.0645 H   0  0  0  0  0  0  0  0  0  0  0  0
  -27.9772  -31.8555   26.5872 H   0  0  0  0  0  0  0  0  0  0  0  0
  -28.2744  -38.0016   24.6863 H   0  0  0  0  0  0  0  0  0  0  0  0
  -28.0396  -36.2711   24.7461 H   0  0  0  0  0  0  0  0  0  0  0  0
  -27.1773  -37.3087   25.8564 H   0  0  0  0  0  0  0  0  0  0  0  0
  -20.9627  -29.9365   21.7352 H   0  0  0  0  0  0  0  0  0  0  0  0
  -26.0447  -38.2561   24.0273 H   0  0  0  0  0  0  0  0  0  0  0  0
  -24.2928  -10.3979   17.2891 H   0  0  0  0  0  0  0  0  0  0  0  0
  -22.9834   -9.4577   18.8930 H   0  0  0  0  0  0  0  0  0  0  0  0
  -22.6721  -10.4827   20.2734 H   0  0  0  0  0  0  0  0  0  0  0  0
  -23.7949   -9.1509   20.4098 H   0  0  0  0  0  0  0  0  0  0  0  0
  -25.5083  -11.2456   15.5637 H   0  0  0  0  0  0  0  0  0  0  0  0
  -27.1874  -11.5531   15.9367 H   0  0  0  0  0  0  0  0  0  0  0  0
  -26.0648  -12.8850   15.7998 H   0  0  0  0  0  0  0  0  0  0  0  0
  -24.1252  -10.7234   21.8646 H   0  0  0  0  0  0  0  0  0  0  0  0
  -24.6746  -12.3605   22.1314 H   0  0  0  0  0  0  0  0  0  0  0  0
  -25.7978  -11.0290   22.2672 H   0  0  0  0  0  0  0  0  0  0  0  0
  -27.6800  -14.2767   18.6432 H   0  0  0  0  0  0  0  0  0  0  0  0
  -27.5846  -13.5388   17.0227 H   0  0  0  0  0  0  0  0  0  0  0  0
  -28.0235  -13.4569   20.4446 H   0  0  0  0  0  0  0  0  0  0  0  0
  -27.2831  -12.4934   21.7294 H   0  0  0  0  0  0  0  0  0  0  0  0
  -29.1633  -11.8449   17.6958 H   0  0  0  0  0  0  0  0  0  0  0  0
  -29.2864  -12.6401   19.2876 H   0  0  0  0  0  0  0  0  0  0  0  0
  -30.1377  -13.8126   16.6812 H   0  0  0  0  0  0  0  0  0  0  0  0
  -31.1880  -13.1616   17.9477 H   0  0  0  0  0  0  0  0  0  0  0  0
  -26.3513  -14.2314   22.4648 H   0  0  0  0  0  0  0  0  0  0  0  0
  -25.5430  -14.3015   20.7126 H   0  0  0  0  0  0  0  0  0  0  0  0
  -30.1517  -15.8377   18.0020 H   0  0  0  0  0  0  0  0  0  0  0  0
  1 25  1  0
  1 30  2  0
  1 85  1  0
  2  3  1  0
  2 25  1  0
  2 86  1  0
  2 87  1  0
  3  4  1  0
  3 88  1  0
  3 89  1  0
  4  5  1  0
  4 90  1  0
  4 91  1  0
  5  6  1  0
  5 26  1  0
  5 92  1  6
  6 25  1  0
  6 93  1  0
  6 94  1  0
  7  8  2  0
  7 26  1  0
  7 29  1  0
  8  9  1  0
  8 22  1  0
  9 10  1  0
  9 27  2  0
 10 11  2  0
 10 15  1  0
 11 12  1  0
 11 95  1  0
 12 13  2  0
 12 96  1  0
 13 14  1  0
 13 31  1  0
 14 15  2  0
 14 97  1  0
 15 98  1  0
 16 17  2  0
 16 21  1  0
 16 31  1  0
 17 18  1  0
 17 99  1  0
 18 19  2  0
 18100  1  0
 19 20  1  0
 19 24  1  0
 20 21  2  0
 20101  1  0
 21 23  1  0
 22 28  1  0
 22 32  2  0
 26 27  1  0
 28102  1  0
 28103  1  0
 29104  1  0
 29105  1  0
 33 34  1  0
 33 66  1  0
 33 70  2  0
 34 36  1  0
 34 59  1  0
 34106  1  6
 35 44  2  0
 35 45  1  0
 35 68  1  0
 36 56  1  0
 36107  1  0
 37 39  1  0
 37 47  1  0
 37 66  1  0
 37108  1  6
 38 43  2  0
 38 46  1  0
 38 47  1  0
 39 64  1  0
 39 67  2  0
 40 52  1  0
 40 53  2  0
 40 58  1  0
 41109  1  0
 41110  1  0
 41111  1  0
 42 43  1  0
 42 66  1  0
 42112  1  0
 42113  1  0
 43 44  1  0
 44114  1  0
 45 46  2  0
 45115  1  0
 46116  1  0
 47117  1  0
 47118  1  0
 48 41  1  0
 48 56  1  0
 48 65  1  0
 48119  1  1
 49 50  1  0
 49 53  1  0
 49 64  1  0
 49120  1  1
 50 51  1  0
 50121  1  0
 50122  1  0
 51 52  1  0
 51123  1  0
 51124  1  0
 52125  1  0
 52126  1  0
 53 54  1  0
 54 55  2  0
 54127  1  0
 55 57  1  0
 55128  1  0
 56 69  2  0
 57 58  2  0
 57129  1  0
 58130  1  0
 59 60  1  0
 59 61  1  0
 59 62  1  0
 60131  1  0
 60132  1  0
 60133  1  0
 61134  1  0
 61135  1  0
 61136  1  0
 62137  1  0
 62138  1  0
 62139  1  0
 63 65  1  0
 63140  1  0
 63141  1  0
 63142  1  0
 64143  1  0
 65144  1  0
 68 84  1  0
 71 72  2  0
 71 73  1  0
 71145  1  0
 72 74  1  0
 72 77  1  0
 73 75  2  0
 73 78  1  0
 74 76  2  0
 74 79  1  0
 75 76  1  0
 75 80  1  0
 76 81  1  0
 77146  1  0
 77147  1  0
 77148  1  0
 78149  1  0
 78150  1  0
 78151  1  0
 79152  1  0
 79153  1  0
 79154  1  0
 80 82  1  0
 80155  1  0
 80156  1  0
 81 84  1  0
 81157  1  0
 81158  1  0
 82 83  1  0
 82159  1  0
 82160  1  0
 83 85  1  0
 83161  1  0
 83162  1  0
 84163  1  0
 84164  1  0
 85165  1  0
M  ISO  4   1 100  68 101  84 101  85 100
M  END
$$$$
8
     RDKit          3D

149157  0  0  0  0  0  0  0  0999 V2000
  -30.7652  -14.3608   20.6636 C   0  0  0  0  0  0  0  0  0100  0  0
  -30.4392  -12.2669   19.3775 C   0  0  0  0  0  0  0  0  0101  0  0
  -29.4791  -12.5281   18.1977 C   0  0  0  0  0  0  0  0  0102  0  0
  -27.9985  -12.3963   18.6038 C   0  0  0  0  0  0  0  0  0103  0  0
  -27.6639  -13.2170   19.8820 C   0  0  2  0  0  0  0  0  0104  0  0
  -28.6795  -12.9602   21.0279 C   0  0  0  0  0  0  0  0  0105  0  0
  -25.2633  -13.8245   20.5754 C   0  0  0  0  0  0  0  0  0106  0  0
  -24.1645  -13.0409   20.9408 C   0  0  0  0  0  0  0  0  0107  0  0
  -24.6400  -11.7009   20.8697 C   0  0  0  0  0  0  0  0  0108  0  0
  -23.9005  -10.4085   21.0420 C   0  0  0  0  0  0  0  0  0109  0  0
  -24.3588   -9.4123   21.9123 C   0  0  0  0  0  0  0  0  0110  0  0
  -23.6296   -8.2350   22.0803 C   0  0  0  0  0  0  0  0  0111  0  0
  -22.4385   -8.0419   21.3657 C   0  0  0  0  0  0  0  0  0112  0  0
  -22.0103   -9.0167   20.4678 C   0  0  0  0  0  0  0  0  0113  0  0
  -22.7317  -10.1925   20.3102 C   0  0  0  0  0  0  0  0  0114  0  0
  -21.6857   -6.0709   22.5391 C   0  0  0  0  0  0  0  0  0115  0  0
  -21.4064   -6.5490   23.8264 C   0  0  0  0  0  0  0  0  0116  0  0
  -21.3635   -5.6677   24.9085 C   0  0  0  0  0  0  0  0  0117  0  0
  -21.5973   -4.3067   24.7088 C   0  0  0  0  0  0  0  0  0118  0  0
  -21.8700   -3.8284   23.4282 C   0  0  0  0  0  0  0  0  0119  0  0
  -21.9144   -4.7056   22.3460 C   0  0  0  0  0  0  0  0  0120  0  0
  -22.8194  -13.5263   21.1763 C   0  0  0  0  0  0  0  0  0121  0  0
  -22.1559   -4.2206   21.1063 F   0  0  0  0  0  0  0  0  0122  0  0
  -21.5628   -3.4510   25.7555 F   0  0  0  0  0  0  0  0  0123  0  0
  -30.0261  -13.1803   20.4553 N   0  0  0  0  0  0  0  0  0124  0  0
  -26.2911  -12.9356   20.3443 N   0  0  0  0  0  0  0  0  0125  0  0
  -25.9236  -11.6675   20.5847 N   0  0  0  0  0  0  0  0  0126  0  0
  -22.0708  -12.7905   22.0005 N   0  0  0  0  0  0  0  0  0127  0  0
  -25.4117  -15.1773   20.4097 N   0  0  0  0  0  0  0  0  0128  0  0
  -31.7916  -14.6724   20.0536 O   0  0  0  0  0  0  0  0  0129  0  0
  -21.6670   -6.9022   21.4423 O   0  0  0  0  0  0  0  0  0130  0  0
  -22.3946  -14.5564   20.6568 O   0  0  0  0  0  0  0  0  0131  0  0
  -24.6048  -31.8614   23.2223 C   0  0  0  0  0  0  0  0  0100  0  0
  -25.8822  -32.4841   23.8616 C   0  0  1  0  0  0  0  0  0101  0  0
  -27.2536  -27.5042   20.1156 C   0  0  0  0  0  0  0  0  0102  0  0
  -25.5726  -33.8762   24.2210 N   0  0  0  0  0  0  0  0  0103  0  0
  -23.4066  -30.4859   21.5461 C   0  0  2  0  0  0  0  0  0104  0  0
  -24.8467  -28.9636   20.1247 C   0  0  0  0  0  0  0  0  0105  0  0
  -22.7412  -29.4652   22.5052 C   0  0  0  0  0  0  0  0  0106  0  0
  -18.0167  -28.1302   22.8626 C   0  0  0  0  0  0  0  0  0107  0  0
  -24.1342  -36.7390   23.2568 C   0  0  0  0  0  0  0  0  0108  0  0
  -25.9141  -30.8882   21.3456 C   0  0  0  0  0  0  0  0  0109  0  0
  -25.9930  -29.5029   20.7208 C   0  0  0  0  0  0  0  0  0110  0  0
  -27.1758  -28.7612   20.7331 C   0  0  0  0  0  0  0  0  0111  0  0
  -26.1032  -26.9836   19.5230 C   0  0  0  0  0  0  0  0  0112  0  0
  -24.9097  -27.7011   19.5331 C   0  0  0  0  0  0  0  0  0113  0  0
  -23.5715  -29.7899   20.1582 C   0  0  0  0  0  0  0  0  0114  0  0
  -25.3990  -36.3212   24.0232 C   0  0  1  0  0  0  0  0  0115  0  0
  -20.5793  -28.3813   23.1004 C   0  0  2  0  0  0  0  0  0116  0  0
  -20.6548  -26.9392   22.5411 C   0  0  0  0  0  0  0  0  0117  0  0
  -19.5615  -26.6407   21.5143 C   0  0  0  0  0  0  0  0  0118  0  0
  -18.1797  -26.7818   22.1673 C   0  0  0  0  0  0  0  0  0119  0  0
  -19.1385  -28.8769   23.2988 C   0  0  0  0  0  0  0  0  0120  0  0
  -18.9183  -30.1286   23.8878 C   0  0  0  0  0  0  0  0  0121  0  0
  -17.6396  -30.6493   24.0352 C   0  0  0  0  0  0  0  0  0122  0  0
  -25.9153  -34.9582   23.4993 C   0  0  0  0  0  0  0  0  0123  0  0
  -16.5415  -29.9068   23.6254 C   0  0  0  0  0  0  0  0  0124  0  0
  -16.7331  -28.6521   23.0586 C   0  0  0  0  0  0  0  0  0125  0  0
  -26.4583  -31.6439   25.0683 C   0  0  0  0  0  0  0  0  0126  0  0
  -25.3807  -31.3179   26.1374 C   0  0  0  0  0  0  0  0  0127  0  0
  -27.0530  -30.3024   24.5680 C   0  0  0  0  0  0  0  0  0128  0  0
  -27.6014  -32.4281   25.7651 C   0  0  0  0  0  0  0  0  0129  0  0
  -27.5629  -37.2220   24.8621 C   0  0  0  0  0  0  0  0  0130  0  0
  -21.4133  -29.3375   22.3735 N   0  0  0  0  0  0  0  0  0131  0  0
  -26.4706  -37.3372   23.9061 N   0  0  0  0  0  0  0  0  0132  0  0
  -24.6674  -31.0544   22.1178 N   0  0  0  0  0  0  0  0  0133  0  0
  -23.4259  -28.8150   23.2971 O   0  0  0  0  0  0  0  0  0134  0  0
  -28.3948  -26.7345   20.0089 O   0  0  0  0  0  0  0  0  0135  0  0
  -26.5870  -34.9065   22.4671 O   0  0  0  0  0  0  0  0  0136  0  0
  -23.5365  -32.1254   23.7833 O   0  0  0  0  0  0  0  0  0137  0  0
  -27.1459  -21.8970   17.3158 C   0  0  0  0  0  0  0  0  0  0  0  0
  -26.9631  -21.7063   19.6795 C   0  0  0  0  0  0  0  0  0  0  0  0
  -28.3462  -21.8200   19.7651 C   0  0  0  0  0  0  0  0  0  0  0  0
  -26.3437  -21.7445   18.4352 C   0  0  0  0  0  0  0  0  0  0  0  0
  -29.0588  -21.9689   18.5862 C   0  0  0  0  0  0  0  0  0  0  0  0
  -26.1481  -21.5421   20.9393 C   0  0  0  0  0  0  0  0  0  0  0  0
  -29.0318  -21.7814   21.0904 C   0  0  0  0  0  0  0  0  0  0  0  0
  -25.4607  -22.8371   21.3581 C   0  0  0  0  0  0  0  0  0  1  0  0
  -28.4923  -22.0105   17.3594 N   0  0  0  0  0  0  0  0  0  0  0  0
  -29.1002  -20.4433   21.6341 N   0  0  0  0  0  0  0  0  0  0  0  0
  -24.6391  -21.6083   18.2490 Cl  0  0  0  0  0  0  0  0  0  0  0  0
  -30.7723  -22.1193   18.5573 Cl  0  0  0  0  0  0  0  0  0  0  0  0
  -31.4485  -12.4701   19.0860 H   0  0  0  0  0  0  0  0  0  0  0  0
  -30.3970  -11.2460   19.6950 H   0  0  0  0  0  0  0  0  0  0  0  0
  -29.6870  -11.8204   17.4226 H   0  0  0  0  0  0  0  0  0  0  0  0
  -29.6375  -13.5326   17.8649 H   0  0  0  0  0  0  0  0  0  0  0  0
  -27.7830  -11.3650   18.7904 H   0  0  0  0  0  0  0  0  0  0  0  0
  -27.4028  -12.7801   17.8021 H   0  0  0  0  0  0  0  0  0  0  0  0
  -27.7353  -14.2503   19.6136 H   0  0  0  0  0  0  0  0  0  0  0  0
  -28.5890  -11.9550   21.3832 H   0  0  0  0  0  0  0  0  0  0  0  0
  -28.5005  -13.6134   21.8562 H   0  0  0  0  0  0  0  0  0  0  0  0
  -25.2399   -9.5495   22.4318 H   0  0  0  0  0  0  0  0  0  0  0  0
  -23.9663   -7.5070   22.7297 H   0  0  0  0  0  0  0  0  0  0  0  0
  -21.1515   -8.8641   19.9162 H   0  0  0  0  0  0  0  0  0  0  0  0
  -22.4016  -10.9115   19.6476 H   0  0  0  0  0  0  0  0  0  0  0  0
  -21.2319   -7.5552   23.9750 H   0  0  0  0  0  0  0  0  0  0  0  0
  -21.1589   -6.0228   25.8556 H   0  0  0  0  0  0  0  0  0  0  0  0
  -22.0396   -2.8212   23.2809 H   0  0  0  0  0  0  0  0  0  0  0  0
  -22.4401  -11.9703   22.4008 H   0  0  0  0  0  0  0  0  0  0  0  0
  -21.1493  -13.0679   22.2082 H   0  0  0  0  0  0  0  0  0  0  0  0
  -24.6538  -15.7807   20.5848 H   0  0  0  0  0  0  0  0  0  0  0  0
  -26.2762  -15.5453   20.1156 H   0  0  0  0  0  0  0  0  0  0  0  0
  -26.6778  -32.4663   23.1464 H   0  0  0  0  0  0  0  0  0  0  0  0
  -25.0747  -34.0282   25.0566 H   0  0  0  0  0  0  0  0  0  0  0  0
  -22.7881  -31.3489   21.4131 H   0  0  0  0  0  0  0  0  0  0  0  0
  -23.3854  -35.9823   23.3648 H   0  0  0  0  0  0  0  0  0  0  0  0
  -24.3696  -36.8624   22.2204 H   0  0  0  0  0  0  0  0  0  0  0  0
  -23.7669  -37.6632   23.6516 H   0  0  0  0  0  0  0  0  0  0  0  0
  -25.9445  -31.6237   20.5691 H   0  0  0  0  0  0  0  0  0  0  0  0
  -26.7436  -31.0079   22.0108 H   0  0  0  0  0  0  0  0  0  0  0  0
  -28.0090  -29.1452   21.2057 H   0  0  0  0  0  0  0  0  0  0  0  0
  -26.1369  -26.0560   19.0719 H   0  0  0  0  0  0  0  0  0  0  0  0
  -24.0652  -27.2961   19.0997 H   0  0  0  0  0  0  0  0  0  0  0  0
  -23.6156  -30.5365   19.3930 H   0  0  0  0  0  0  0  0  0  0  0  0
  -22.7355  -29.1425   19.9945 H   0  0  0  0  0  0  0  0  0  0  0  0
  -25.1353  -36.2335   25.0565 H   0  0  0  0  0  0  0  0  0  0  0  0
  -21.0070  -28.3206   24.0793 H   0  0  0  0  0  0  0  0  0  0  0  0
  -20.5555  -26.2518   23.3550 H   0  0  0  0  0  0  0  0  0  0  0  0
  -21.5974  -26.8362   22.0454 H   0  0  0  0  0  0  0  0  0  0  0  0
  -19.6810  -25.6422   21.1488 H   0  0  0  0  0  0  0  0  0  0  0  0
  -19.6406  -27.3343   20.7034 H   0  0  0  0  0  0  0  0  0  0  0  0
  -17.4282  -26.6888   21.4113 H   0  0  0  0  0  0  0  0  0  0  0  0
  -18.0803  -26.0130   22.9049 H   0  0  0  0  0  0  0  0  0  0  0  0
  -19.7265  -30.6774   24.2204 H   0  0  0  0  0  0  0  0  0  0  0  0
  -17.5064  -31.5856   24.4483 H   0  0  0  0  0  0  0  0  0  0  0  0
  -15.5878  -30.2839   23.7407 H   0  0  0  0  0  0  0  0  0  0  0  0
  -15.9120  -28.0941   22.7766 H   0  0  0  0  0  0  0  0  0  0  0  0
  -24.5787  -30.7757   25.6817 H   0  0  0  0  0  0  0  0  0  0  0  0
  -25.0041  -32.2289   26.5536 H   0  0  0  0  0  0  0  0  0  0  0  0
  -25.8166  -30.7245   26.9138 H   0  0  0  0  0  0  0  0  0  0  0  0
  -26.2892  -29.7335   24.0803 H   0  0  0  0  0  0  0  0  0  0  0  0
  -27.4336  -29.7484   25.4006 H   0  0  0  0  0  0  0  0  0  0  0  0
  -27.8466  -30.4994   23.8779 H   0  0  0  0  0  0  0  0  0  0  0  0
  -27.2251  -33.3632   26.1242 H   0  0  0  0  0  0  0  0  0  0  0  0
  -28.3902  -32.6065   25.0645 H   0  0  0  0  0  0  0  0  0  0  0  0
  -27.9772  -31.8555   26.5872 H   0  0  0  0  0  0  0  0  0  0  0  0
  -28.2744  -38.0016   24.6863 H   0  0  0  0  0  0  0  0  0  0  0  0
  -28.0396  -36.2711   24.7461 H   0  0  0  0  0  0  0  0  0  0  0  0
  -27.1773  -37.3087   25.8564 H   0  0  0  0  0  0  0  0  0  0  0  0
  -20.9627  -29.9365   21.7352 H   0  0  0  0  0  0  0  0  0  0  0  0
  -26.0447  -38.2561   24.0273 H   0  0  0  0  0  0  0  0  0  0  0  0
  -26.6873  -21.9257   16.3918 H   0  0  0  0  0  0  0  0  0  0  0  0
  -26.7965  -21.2258   21.7295 H   0  0  0  0  0  0  0  0  0  0  0  0
  -25.3866  -20.8163   20.7437 H   0  0  0  0  0  0  0  0  0  0  0  0
  -28.4936  -22.4037   21.7745 H   0  0  0  0  0  0  0  0  0  0  0  0
  -30.0339  -22.1296   20.9508 H   0  0  0  0  0  0  0  0  0  0  0  0
  -25.3187  -22.8431   22.4186 H   0  0  0  0  0  0  0  0  0  0  0  0
  -24.5067  -22.9154   20.8800 H   0  0  0  0  0  0  0  0  0  0  0  0
  -28.7314  -20.4914   22.5457 H   0  0  0  0  0  0  0  0  0  0  0  0
  1 25  1  0
  1 30  2  0
  1 80  1  0
  2  3  1  0
  2 25  1  0
  2 83  1  0
  2 84  1  0
  3  4  1  0
  3 85  1  0
  3 86  1  0
  4  5  1  0
  4 87  1  0
  4 88  1  0
  5  6  1  0
  5 26  1  0
  5 89  1  6
  6 25  1  0
  6 90  1  0
  6 91  1  0
  7  8  2  0
  7 26  1  0
  7 29  1  0
  8  9  1  0
  8 22  1  0
  9 10  1  0
  9 27  2  0
 10 11  2  0
 10 15  1  0
 11 12  1  0
 11 92  1  0
 12 13  2  0
 12 93  1  0
 13 14  1  0
 13 31  1  0
 14 15  2  0
 14 94  1  0
 15 95  1  0
 16 17  2  0
 16 21  1  0
 16 31  1  0
 17 18  1  0
 17 96  1  0
 18 19  2  0
 18 97  1  0
 19 20  1  0
 19 24  1  0
 20 21  2  0
 20 98  1  0
 21 23  1  0
 22 28  1  0
 22 32  2  0
 26 27  1  0
 28 99  1  0
 28100  1  0
 29101  1  0
 29102  1  0
 33 34  1  0
 33 66  1  0
 33 70  2  0
 34 36  1  0
 34 59  1  0
 34103  1  6
 35 44  2  0
 35 45  1  0
 35 68  1  0
 36 56  1  0
 36104  1  0
 37 39  1  0
 37 47  1  0
 37 66  1  0
 37105  1  6
 38 43  2  0
 38 46  1  0
 38 47  1  0
 39 64  1  0
 39 67  2  0
 40 52  1  0
 40 53  2  0
 40 58  1  0
 41106  1  0
 41107  1  0
 41108  1  0
 42 43  1  0
 42 66  1  0
 42109  1  0
 42110  1  0
 43 44  1  0
 44111  1  0
 45 46  2  0
 45112  1  0
 46113  1  0
 47114  1  0
 47115  1  0
 48 41  1  0
 48 56  1  0
 48 65  1  0
 48116  1  1
 49 50  1  0
 49 53  1  0
 49 64  1  0
 49117  1  1
 50 51  1  0
 50118  1  0
 50119  1  0
 51 52  1  0
 51120  1  0
 51121  1  0
 52122  1  0
 52123  1  0
 53 54  1  0
 54 55  2  0
 54124  1  0
 55 57  1  0
 55125  1  0
 56 69  2  0
 57 58  2  0
 57126  1  0
 58127  1  0
 59 60  1  0
 59 61  1  0
 59 62  1  0
 60128  1  0
 60129  1  0
 60130  1  0
 61131  1  0
 61132  1  0
 61133  1  0
 62134  1  0
 62135  1  0
 62136  1  0
 63 65  1  0
 63137  1  0
 63138  1  0
 63139  1  0
 64140  1  0
 65141  1  0
 68 78  1  0
 71 74  2  0
 71 79  1  0
 71142  1  0
 72 73  2  0
 72 74  1  0
 72 76  1  0
 73 75  1  0
 73 77  1  0
 74 81  1  0
 75 79  2  0
 75 82  1  0
 76 78  1  0
 76143  1  0
 76144  1  0
 77 80  1  0
 77145  1  0
 77146  1  0
 78147  1  0
 78148  1  0
 80149  1  0
M  ISO  4   1 100  68 101  78 101  80 100
M  END
$$$$
9
     RDKit          3D

156164  0  0  0  0  0  0  0  0999 V2000
  -30.7652  -14.3608   20.6636 C   0  0  0  0  0  0  0  0  0100  0  0
  -30.4392  -12.2669   19.3775 C   0  0  0  0  0  0  0  0  0101  0  0
  -29.4791  -12.5281   18.1977 C   0  0  0  0  0  0  0  0  0102  0  0
  -27.9985  -12.3963   18.6038 C   0  0  0  0  0  0  0  0  0103  0  0
  -27.6639  -13.2170   19.8820 C   0  0  2  0  0  0  0  0  0104  0  0
  -28.6795  -12.9602   21.0279 C   0  0  0  0  0  0  0  0  0105  0  0
  -25.2633  -13.8245   20.5754 C   0  0  0  0  0  0  0  0  0106  0  0
  -24.1645  -13.0409   20.9408 C   0  0  0  0  0  0  0  0  0107  0  0
  -24.6400  -11.7009   20.8697 C   0  0  0  0  0  0  0  0  0108  0  0
  -23.9005  -10.4085   21.0420 C   0  0  0  0  0  0  0  0  0109  0  0
  -24.3588   -9.4123   21.9123 C   0  0  0  0  0  0  0  0  0110  0  0
  -23.6296   -8.2350   22.0803 C   0  0  0  0  0  0  0  0  0111  0  0
  -22.4385   -8.0419   21.3657 C   0  0  0  0  0  0  0  0  0112  0  0
  -22.0103   -9.0167   20.4678 C   0  0  0  0  0  0  0  0  0113  0  0
  -22.7317  -10.1925   20.3102 C   0  0  0  0  0  0  0  0  0114  0  0
  -21.6857   -6.0709   22.5391 C   0  0  0  0  0  0  0  0  0115  0  0
  -21.4064   -6.5490   23.8264 C   0  0  0  0  0  0  0  0  0116  0  0
  -21.3635   -5.6677   24.9085 C   0  0  0  0  0  0  0  0  0117  0  0
  -21.5973   -4.3067   24.7088 C   0  0  0  0  0  0  0  0  0118  0  0
  -21.8700   -3.8284   23.4282 C   0  0  0  0  0  0  0  0  0119  0  0
  -21.9144   -4.7056   22.3460 C   0  0  0  0  0  0  0  0  0120  0  0
  -22.8194  -13.5263   21.1763 C   0  0  0  0  0  0  0  0  0121  0  0
  -22.1559   -4.2206   21.1063 F   0  0  0  0  0  0  0  0  0122  0  0
  -21.5628   -3.4510   25.7555 F   0  0  0  0  0  0  0  0  0123  0  0
  -30.0261  -13.1803   20.4553 N   0  0  0  0  0  0  0  0  0124  0  0
  -26.2911  -12.9356   20.3443 N   0  0  0  0  0  0  0  0  0125  0  0
  -25.9236  -11.6675   20.5847 N   0  0  0  0  0  0  0  0  0126  0  0
  -22.0708  -12.7905   22.0005 N   0  0  0  0  0  0  0  0  0127  0  0
  -25.4117  -15.1773   20.4097 N   0  0  0  0  0  0  0  0  0128  0  0
  -31.7916  -14.6724   20.0536 O   0  0  0  0  0  0  0  0  0129  0  0
  -21.6670   -6.9022   21.4423 O   0  0  0  0  0  0  0  0  0130  0  0
  -22.3946  -14.5564   20.6568 O   0  0  0  0  0  0  0  0  0131  0  0
  -24.6048  -31.8614   23.2223 C   0  0  0  0  0  0  0  0  0100  0  0
  -25.8822  -32.4841   23.8616 C   0  0  1  0  0  0  0  0  0101  0  0
  -27.2536  -27.5042   20.1156 C   0  0  0  0  0  0  0  0  0102  0  0
  -25.5726  -33.8762   24.2210 N   0  0  0  0  0  0  0  0  0103  0  0
  -23.4066  -30.4859   21.5461 C   0  0  2  0  0  0  0  0  0104  0  0
  -24.8467  -28.9636   20.1247 C   0  0  0  0  0  0  0  0  0105  0  0
  -22.7412  -29.4652   22.5052 C   0  0  0  0  0  0  0  0  0106  0  0
  -18.0167  -28.1302   22.8626 C   0  0  0  0  0  0  0  0  0107  0  0
  -24.1342  -36.7390   23.2568 C   0  0  0  0  0  0  0  0  0108  0  0
  -25.9141  -30.8882   21.3456 C   0  0  0  0  0  0  0  0  0109  0  0
  -25.9930  -29.5029   20.7208 C   0  0  0  0  0  0  0  0  0110  0  0
  -27.1758  -28.7612   20.7331 C   0  0  0  0  0  0  0  0  0111  0  0
  -26.1032  -26.9836   19.5230 C   0  0  0  0  0  0  0  0  0112  0  0
  -24.9097  -27.7011   19.5331 C   0  0  0  0  0  0  0  0  0113  0  0
  -23.5715  -29.7899   20.1582 C   0  0  0  0  0  0  0  0  0114  0  0
  -25.3990  -36.3212   24.0232 C   0  0  1  0  0  0  0  0  0115  0  0
  -20.5793  -28.3813   23.1004 C   0  0  2  0  0  0  0  0  0116  0  0
  -20.6548  -26.9392   22.5411 C   0  0  0  0  0  0  0  0  0117  0  0
  -19.5615  -26.6407   21.5143 C   0  0  0  0  0  0  0  0  0118  0  0
  -18.1797  -26.7818   22.1673 C   0  0  0  0  0  0  0  0  0119  0  0
  -19.1385  -28.8769   23.2988 C   0  0  0  0  0  0  0  0  0120  0  0
  -18.9183  -30.1286   23.8878 C   0  0  0  0  0  0  0  0  0121  0  0
  -17.6396  -30.6493   24.0352 C   0  0  0  0  0  0  0  0  0122  0  0
  -25.9153  -34.9582   23.4993 C   0  0  0  0  0  0  0  0  0123  0  0
  -16.5415  -29.9068   23.6254 C   0  0  0  0  0  0  0  0  0124  0  0
  -16.7331  -28.6521   23.0586 C   0  0  0  0  0  0  0  0  0125  0  0
  -26.4583  -31.6439   25.0683 C   0  0  0  0  0  0  0  0  0126  0  0
  -25.3807  -31.3179   26.1374 C   0  0  0  0  0  0  0  0  0127  0  0
  -27.0530  -30.3024   24.5680 C   0  0  0  0  0  0  0  0  0128  0  0
  -27.6014  -32.4281   25.7651 C   0  0  0  0  0  0  0  0  0129  0  0
  -27.5629  -37.2220   24.8621 C   0  0  0  0  0  0  0  0  0130  0  0
  -21.4133  -29.3375   22.3735 N   0  0  0  0  0  0  0  0  0131  0  0
  -26.4706  -37.3372   23.9061 N   0  0  0  0  0  0  0  0  0132  0  0
  -24.6674  -31.0544   22.1178 N   0  0  0  0  0  0  0  0  0133  0  0
  -23.4259  -28.8150   23.2971 O   0  0  0  0  0  0  0  0  0134  0  0
  -28.3948  -26.7345   20.0089 O   0  0  0  0  0  0  0  0  0135  0  0
  -26.5870  -34.9065   22.4671 O   0  0  0  0  0  0  0  0  0136  0  0
  -23.5365  -32.1254   23.7833 O   0  0  0  0  0  0  0  0  0137  0  0
  -20.5082  -26.1359   23.4854 C   0  0  0  0  0  0  0  0  0  0  0  0
  -19.1935  -26.6893   21.5355 C   0  0  0  0  0  0  0  0  0  0  0  0
  -19.9790  -27.0899   22.6163 C   0  0  0  0  0  0  0  0  0  0  0  0
  -20.2519  -24.7812   23.2737 C   0  0  0  0  0  0  0  0  0  0  0  0
  -19.4663  -24.3806   22.1929 C   0  0  0  0  0  0  0  0  0  0  0  0
  -18.9371  -25.3346   21.3238 C   0  0  0  0  0  0  0  0  0  0  0  0
  -19.2014  -22.9227   21.9796 C   0  0  0  0  0  0  0  0  0  0  0  0
  -20.8381  -23.7721   24.2284 C   0  0  0  0  0  0  0  0  0  0  0  0
  -20.2527  -28.5383   22.8439 C   0  0  0  0  0  0  0  0  0  0  0  0
  -22.3312  -23.5152   24.0129 C   0  0  0  0  0  0  0  0  0  0  0  0
  -22.6485  -22.9031   22.6535 C   0  0  0  0  0  0  0  0  0  1  0  0
  -21.5957  -28.9111   22.4591 N   0  0  0  0  0  0  0  0  0  0  0  0
  -17.9588  -24.8793   19.9759 Cl  0  0  0  0  0  0  0  0  0  0  0  0
  -31.4485  -12.4701   19.0860 H   0  0  0  0  0  0  0  0  0  0  0  0
  -30.3970  -11.2460   19.6950 H   0  0  0  0  0  0  0  0  0  0  0  0
  -29.6870  -11.8204   17.4226 H   0  0  0  0  0  0  0  0  0  0  0  0
  -29.6375  -13.5326   17.8649 H   0  0  0  0  0  0  0  0  0  0  0  0
  -27.7830  -11.3650   18.7904 H   0  0  0  0  0  0  0  0  0  0  0  0
  -27.4028  -12.7801   17.8021 H   0  0  0  0  0  0  0  0  0  0  0  0
  -27.7353  -14.2503   19.6136 H   0  0  0  0  0  0  0  0  0  0  0  0
  -28.5890  -11.9550   21.3832 H   0  0  0  0  0  0  0  0  0  0  0  0
  -28.5005  -13.6134   21.8562 H   0  0  0  0  0  0  0  0  0  0  0  0
  -25.2399   -9.5495   22.4318 H   0  0  0  0  0  0  0  0  0  0  0  0
  -23.9663   -7.5070   22.7297 H   0  0  0  0  0  0  0  0  0  0  0  0
  -21.1515   -8.8641   19.9162 H   0  0  0  0  0  0  0  0  0  0  0  0
  -22.4016  -10.9115   19.6476 H   0  0  0  0  0  0  0  0  0  0  0  0
  -21.2319   -7.5552   23.9750 H   0  0  0  0  0  0  0  0  0  0  0  0
  -21.1589   -6.0228   25.8556 H   0  0  0  0  0  0  0  0  0  0  0  0
  -22.0396   -2.8212   23.2809 H   0  0  0  0  0  0  0  0  0  0  0  0
  -22.4401  -11.9703   22.4008 H   0  0  0  0  0  0  0  0  0  0  0  0
  -21.1493  -13.0679   22.2082 H   0  0  0  0  0  0  0  0  0  0  0  0
  -24.6538  -15.7807   20.5848 H   0  0  0  0  0  0  0  0  0  0  0  0
  -26.2762  -15.5453   20.1156 H   0  0  0  0  0  0  0  0  0  0  0  0
  -26.6778  -32.4663   23.1464 H   0  0  0  0  0  0  0  0  0  0  0  0
  -25.0747  -34.0282   25.0566 H   0  0  0  0  0  0  0  0  0  0  0  0
  -22.7881  -31.3489   21.4131 H   0  0  0  0  0  0  0  0  0  0  0  0
  -23.3854  -35.9823   23.3648 H   0  0  0  0  0  0  0  0  0  0  0  0
  -24.3696  -36.8624   22.2204 H   0  0  0  0  0  0  0  0  0  0  0  0
  -23.7669  -37.6632   23.6516 H   0  0  0  0  0  0  0  0  0  0  0  0
  -25.9445  -31.6237   20.5691 H   0  0  0  0  0  0  0  0  0  0  0  0
  -26.7436  -31.0079   22.0108 H   0  0  0  0  0  0  0  0  0  0  0  0
  -28.0090  -29.1452   21.2057 H   0  0  0  0  0  0  0  0  0  0  0  0
  -26.1369  -26.0560   19.0719 H   0  0  0  0  0  0  0  0  0  0  0  0
  -24.0652  -27.2961   19.0997 H   0  0  0  0  0  0  0  0  0  0  0  0
  -23.6156  -30.5365   19.3930 H   0  0  0  0  0  0  0  0  0  0  0  0
  -22.7355  -29.1425   19.9945 H   0  0  0  0  0  0  0  0  0  0  0  0
  -25.1353  -36.2335   25.0565 H   0  0  0  0  0  0  0  0  0  0  0  0
  -21.0070  -28.3206   24.0793 H   0  0  0  0  0  0  0  0  0  0  0  0
  -20.5555  -26.2518   23.3550 H   0  0  0  0  0  0  0  0  0  0  0  0
  -21.5974  -26.8362   22.0454 H   0  0  0  0  0  0  0  0  0  0  0  0
  -19.6810  -25.6422   21.1488 H   0  0  0  0  0  0  0  0  0  0  0  0
  -19.6406  -27.3343   20.7034 H   0  0  0  0  0  0  0  0  0  0  0  0
  -17.4282  -26.6888   21.4113 H   0  0  0  0  0  0  0  0  0  0  0  0
  -18.0803  -26.0130   22.9049 H   0  0  0  0  0  0  0  0  0  0  0  0
  -19.7265  -30.6774   24.2204 H   0  0  0  0  0  0  0  0  0  0  0  0
  -17.5064  -31.5856   24.4483 H   0  0  0  0  0  0  0  0  0  0  0  0
  -15.5878  -30.2839   23.7407 H   0  0  0  0  0  0  0  0  0  0  0  0
  -15.9120  -28.0941   22.7766 H   0  0  0  0  0  0  0  0  0  0  0  0
  -24.5787  -30.7757   25.6817 H   0  0  0  0  0  0  0  0  0  0  0  0
  -25.0041  -32.2289   26.5536 H   0  0  0  0  0  0  0  0  0  0  0  0
  -25.8166  -30.7245   26.9138 H   0  0  0  0  0  0  0  0  0  0  0  0
  -26.2892  -29.7335   24.0803 H   0  0  0  0  0  0  0  0  0  0  0  0
  -27.4336  -29.7484   25.4006 H   0  0  0  0  0  0  0  0  0  0  0  0
  -27.8466  -30.4994   23.8779 H   0  0  0  0  0  0  0  0  0  0  0  0
  -27.2251  -33.3632   26.1242 H   0  0  0  0  0  0  0  0  0  0  0  0
  -28.3902  -32.6065   25.0645 H   0  0  0  0  0  0  0  0  0  0  0  0
  -27.9772  -31.8555   26.5872 H   0  0  0  0  0  0  0  0  0  0  0  0
  -28.2744  -38.0016   24.6863 H   0  0  0  0  0  0  0  0  0  0  0  0
  -28.0396  -36.2711   24.7461 H   0  0  0  0  0  0  0  0  0  0  0  0
  -27.1773  -37.3087   25.8564 H   0  0  0  0  0  0  0  0  0  0  0  0
  -20.9627  -29.9365   21.7352 H   0  0  0  0  0  0  0  0  0  0  0  0
  -26.0447  -38.2561   24.0273 H   0  0  0  0  0  0  0  0  0  0  0  0
  -21.0894  -26.4323   24.2850 H   0  0  0  0  0  0  0  0  0  0  0  0
  -18.8020  -27.3952   20.8925 H   0  0  0  0  0  0  0  0  0  0  0  0
  -19.6892  -22.3559   22.7449 H   0  0  0  0  0  0  0  0  0  0  0  0
  -19.5782  -22.6280   21.0225 H   0  0  0  0  0  0  0  0  0  0  0  0
  -18.1475  -22.7422   22.0190 H   0  0  0  0  0  0  0  0  0  0  0  0
  -20.3150  -22.8469   24.1049 H   0  0  0  0  0  0  0  0  0  0  0  0
  -20.7295  -24.1746   25.2138 H   0  0  0  0  0  0  0  0  0  0  0  0
  -20.1204  -28.7541   23.8835 H   0  0  0  0  0  0  0  0  0  0  0  0
  -19.5716  -29.0988   22.2382 H   0  0  0  0  0  0  0  0  0  0  0  0
  -22.6740  -22.8465   24.7746 H   0  0  0  0  0  0  0  0  0  0  0  0
  -22.8250  -24.4634   24.0561 H   0  0  0  0  0  0  0  0  0  0  0  0
  -21.8072  -22.9937   21.9986 H   0  0  0  0  0  0  0  0  0  0  0  0
  -22.8743  -21.8603   22.7343 H   0  0  0  0  0  0  0  0  0  0  0  0
  -21.9281  -29.8279   22.3238 H   0  0  0  0  0  0  0  0  0  0  0  0
  1 25  1  0
  1 30  2  0
  1 82  1  0
  2  3  1  0
  2 25  1  0
  2 84  1  0
  2 85  1  0
  3  4  1  0
  3 86  1  0
  3 87  1  0
  4  5  1  0
  4 88  1  0
  4 89  1  0
  5  6  1  0
  5 26  1  0
  5 90  1  6
  6 25  1  0
  6 91  1  0
  6 92  1  0
  7  8  2  0
  7 26  1  0
  7 29  1  0
  8  9  1  0
  8 22  1  0
  9 10  1  0
  9 27  2  0
 10 11  2  0
 10 15  1  0
 11 12  1  0
 11 93  1  0
 12 13  2  0
 12 94  1  0
 13 14  1  0
 13 31  1  0
 14 15  2  0
 14 95  1  0
 15 96  1  0
 16 17  2  0
 16 21  1  0
 16 31  1  0
 17 18  1  0
 17 97  1  0
 18 19  2  0
 18 98  1  0
 19 20  1  0
 19 24  1  0
 20 21  2  0
 20 99  1  0
 21 23  1  0
 22 28  1  0
 22 32  2  0
 26 27  1  0
 28100  1  0
 28101  1  0
 29102  1  0
 29103  1  0
 33 34  1  0
 33 66  1  0
 33 70  2  0
 34 36  1  0
 34 59  1  0
 34104  1  6
 35 44  2  0
 35 45  1  0
 35 68  1  0
 36 56  1  0
 36105  1  0
 37 39  1  0
 37 47  1  0
 37 66  1  0
 37106  1  6
 38 43  2  0
 38 46  1  0
 38 47  1  0
 39 64  1  0
 39 67  2  0
 40 52  1  0
 40 53  2  0
 40 58  1  0
 41107  1  0
 41108  1  0
 41109  1  0
 42 43  1  0
 42 66  1  0
 42110  1  0
 42111  1  0
 43 44  1  0
 44112  1  0
 45 46  2  0
 45113  1  0
 46114  1  0
 47115  1  0
 47116  1  0
 48 41  1  0
 48 56  1  0
 48 65  1  0
 48117  1  1
 49 50  1  0
 49 53  1  0
 49 64  1  0
 49118  1  1
 50 51  1  0
 50119  1  0
 50120  1  0
 51 52  1  0
 51121  1  0
 51122  1  0
 52123  1  0
 52124  1  0
 53 54  1  0
 54 55  2  0
 54125  1  0
 55 57  1  0
 55126  1  0
 56 69  2  0
 57 58  2  0
 57127  1  0
 58128  1  0
 59 60  1  0
 59 61  1  0
 59 62  1  0
 60129  1  0
 60130  1  0
 60131  1  0
 61132  1  0
 61133  1  0
 61134  1  0
 62135  1  0
 62136  1  0
 62137  1  0
 63 65  1  0
 63138  1  0
 63139  1  0
 63140  1  0
 64141  1  0
 65142  1  0
 68 81  1  0
 71 73  2  0
 71 74  1  0
 71143  1  0
 72 73  1  0
 72 76  2  0
 72144  1  0
 73 79  1  0
 74 75  2  0
 74 78  1  0
 75 76  1  0
 75 77  1  0
 76 83  1  0
 77145  1  0
 77146  1  0
 77147  1  0
 78 80  1  0
 78148  1  0
 78149  1  0
 79 82  1  0
 79150  1  0
 79151  1  0
 80 81  1  0
 80152  1  0
 80153  1  0
 81154  1  0
 81155  1  0
 82156  1  0
M  ISO  4   1 100  68 101  81 101  82 100
M  END
$$$$
10
     RDKit          3D

165173  0  0  0  0  0  0  0  0999 V2000
  -30.7652  -14.3608   20.6636 C   0  0  0  0  0  0  0  0  0100  0  0
  -30.4392  -12.2669   19.3775 C   0  0  0  0  0  0  0  0  0101  0  0
  -29.4791  -12.5281   18.1977 C   0  0  0  0  0  0  0  0  0102  0  0
  -27.9985  -12.3963   18.6038 C   0  0  0  0  0  0  0  0  0103  0  0
  -27.6639  -13.2170   19.8820 C   0  0  2  0  0  0  0  0  0104  0  0
  -28.6795  -12.9602   21.0279 C   0  0  0  0  0  0  0  0  0105  0  0
  -25.2633  -13.8245   20.5754 C   0  0  0  0  0  0  0  0  0106  0  0
  -24.1645  -13.0409   20.9408 C   0  0  0  0  0  0  0  0  0107  0  0
  -24.6400  -11.7009   20.8697 C   0  0  0  0  0  0  0  0  0108  0  0
  -23.9005  -10.4085   21.0420 C   0  0  0  0  0  0  0  0  0109  0  0
  -24.3588   -9.4123   21.9123 C   0  0  0  0  0  0  0  0  0110  0  0
  -23.6296   -8.2350   22.0803 C   0  0  0  0  0  0  0  0  0111  0  0
  -22.4385   -8.0419   21.3657 C   0  0  0  0  0  0  0  0  0112  0  0
  -22.0103   -9.0167   20.4678 C   0  0  0  0  0  0  0  0  0113  0  0
  -22.7317  -10.1925   20.3102 C   0  0  0  0  0  0  0  0  0114  0  0
  -21.6857   -6.0709   22.5391 C   0  0  0  0  0  0  0  0  0115  0  0
  -21.4064   -6.5490   23.8264 C   0  0  0  0  0  0  0  0  0116  0  0
  -21.3635   -5.6677   24.9085 C   0  0  0  0  0  0  0  0  0117  0  0
  -21.5973   -4.3067   24.7088 C   0  0  0  0  0  0  0  0  0118  0  0
  -21.8700   -3.8284   23.4282 C   0  0  0  0  0  0  0  0  0119  0  0
  -21.9144   -4.7056   22.3460 C   0  0  0  0  0  0  0  0  0120  0  0
  -22.8194  -13.5263   21.1763 C   0  0  0  0  0  0  0  0  0121  0  0
  -22.1559   -4.2206   21.1063 F   0  0  0  0  0  0  0  0  0122  0  0
  -21.5628   -3.4510   25.7555 F   0  0  0  0  0  0  0  0  0123  0  0
  -30.0261  -13.1803   20.4553 N   0  0  0  0  0  0  0  0  0124  0  0
  -26.2911  -12.9356   20.3443 N   0  0  0  0  0  0  0  0  0125  0  0
  -25.9236  -11.6675   20.5847 N   0  0  0  0  0  0  0  0  0126  0  0
  -22.0708  -12.7905   22.0005 N   0  0  0  0  0  0  0  0  0127  0  0
  -25.4117  -15.1773   20.4097 N   0  0  0  0  0  0  0  0  0128  0  0
  -31.7916  -14.6724   20.0536 O   0  0  0  0  0  0  0  0  0129  0  0
  -21.6670   -6.9022   21.4423 O   0  0  0  0  0  0  0  0  0130  0  0
  -22.3946  -14.5564   20.6568 O   0  0  0  0  0  0  0  0  0131  0  0
  -24.6048  -31.8614   23.2223 C   0  0  0  0  0  0  0  0  0100  0  0
  -25.8822  -32.4841   23.8616 C   0  0  1  0  0  0  0  0  0101  0  0
  -27.2536  -27.5042   20.1156 C   0  0  0  0  0  0  0  0  0102  0  0
  -25.5726  -33.8762   24.2210 N   0  0  0  0  0  0  0  0  0103  0  0
  -23.4066  -30.4859   21.5461 C   0  0  2  0  0  0  0  0  0104  0  0
  -24.8467  -28.9636   20.1247 C   0  0  0  0  0  0  0  0  0105  0  0
  -22.7412  -29.4652   22.5052 C   0  0  0  0  0  0  0  0  0106  0  0
  -18.0167  -28.1302   22.8626 C   0  0  0  0  0  0  0  0  0107  0  0
  -24.1342  -36.7390   23.2568 C   0  0  0  0  0  0  0  0  0108  0  0
  -25.9141  -30.8882   21.3456 C   0  0  0  0  0  0  0  0  0109  0  0
  -25.9930  -29.5029   20.7208 C   0  0  0  0  0  0  0  0  0110  0  0
  -27.1758  -28.7612   20.7331 C   0  0  0  0  0  0  0  0  0111  0  0
  -26.1032  -26.9836   19.5230 C   0  0  0  0  0  0  0  0  0112  0  0
  -24.9097  -27.7011   19.5331 C   0  0  0  0  0  0  0  0  0113  0  0
  -23.5715  -29.7899   20.1582 C   0  0  0  0  0  0  0  0  0114  0  0
  -25.3990  -36.3212   24.0232 C   0  0  1  0  0  0  0  0  0115  0  0
  -20.5793  -28.3813   23.1004 C   0  0  2  0  0  0  0  0  0116  0  0
  -20.6548  -26.9392   22.5411 C   0  0  0  0  0  0  0  0  0117  0  0
  -19.5615  -26.6407   21.5143 C   0  0  0  0  0  0  0  0  0118  0  0
  -18.1797  -26.7818   22.1673 C   0  0  0  0  0  0  0  0  0119  0  0
  -19.1385  -28.8769   23.2988 C   0  0  0  0  0  0  0  0  0120  0  0
  -18.9183  -30.1286   23.8878 C   0  0  0  0  0  0  0  0  0121  0  0
  -17.6396  -30.6493   24.0352 C   0  0  0  0  0  0  0  0  0122  0  0
  -25.9153  -34.9582   23.4993 C   0  0  0  0  0  0  0  0  0123  0  0
  -16.5415  -29.9068   23.6254 C   0  0  0  0  0  0  0  0  0124  0  0
  -16.7331  -28.6521   23.0586 C   0  0  0  0  0  0  0  0  0125  0  0
  -26.4583  -31.6439   25.0683 C   0  0  0  0  0  0  0  0  0126  0  0
  -25.3807  -31.3179   26.1374 C   0  0  0  0  0  0  0  0  0127  0  0
  -27.0530  -30.3024   24.5680 C   0  0  0  0  0  0  0  0  0128  0  0
  -27.6014  -32.4281   25.7651 C   0  0  0  0  0  0  0  0  0129  0  0
  -27.5629  -37.2220   24.8621 C   0  0  0  0  0  0  0  0  0130  0  0
  -21.4133  -29.3375   22.3735 N   0  0  0  0  0  0  0  0  0131  0  0
  -26.4706  -37.3372   23.9061 N   0  0  0  0  0  0  0  0  0132  0  0
  -24.6674  -31.0544   22.1178 N   0  0  0  0  0  0  0  0  0133  0  0
  -23.4259  -28.8150   23.2971 O   0  0  0  0  0  0  0  0  0134  0  0
  -28.3948  -26.7345   20.0089 O   0  0  0  0  0  0  0  0  0135  0  0
  -26.5870  -34.9065   22.4671 O   0  0  0  0  0  0  0  0  0136  0  0
  -23.5365  -32.1254   23.7833 O   0  0  0  0  0  0  0  0  0137  0  0
  -17.1790  -21.2834   24.8580 C   0  0  0  0  0  0  0  0  0  0  0  0
  -18.3559  -20.6993   25.3264 C   0  0  0  0  0  0  0  0  0  0  0  0
  -16.9299  -22.6356   25.0930 C   0  0  0  0  0  0  0  0  0  0  0  0
  -19.0345  -22.8195   26.2651 C   0  0  0  0  0  0  0  0  0  0  0  0
  -19.2836  -21.4674   26.0300 C   0  0  0  0  0  0  0  0  0  0  0  0
  -17.8576  -23.4036   25.7966 C   0  0  0  0  0  0  0  0  0  0  0  0
  -16.1846  -20.4601   24.1014 C   0  0  0  0  0  0  0  0  0  0  0  0
  -18.6238  -19.2492   25.0722 C   0  0  0  0  0  0  0  0  0  0  0  0
  -15.6679  -23.2626   24.5896 C   0  0  0  0  0  0  0  0  0  0  0  0
  -20.0301  -23.6430   27.0199 C   0  0  0  0  0  0  0  0  0  0  0  0
  -20.5553  -20.8355   26.5370 C   0  0  0  0  0  0  0  0  0  0  0  0
  -17.5914  -24.8545   26.0481 C   0  0  0  0  0  0  0  0  0  0  0  0
  -21.7909  -21.1843   25.7043 C   0  0  0  0  0  0  0  0  0  0  0  0
  -21.7181  -20.6702   24.2712 C   0  0  0  0  0  0  0  0  0  1  0  0
  -18.3795  -25.7105   25.1896 N   0  0  0  0  0  0  0  0  0  0  0  0
  -31.4485  -12.4701   19.0860 H   0  0  0  0  0  0  0  0  0  0  0  0
  -30.3970  -11.2460   19.6950 H   0  0  0  0  0  0  0  0  0  0  0  0
  -29.6870  -11.8204   17.4226 H   0  0  0  0  0  0  0  0  0  0  0  0
  -29.6375  -13.5326   17.8649 H   0  0  0  0  0  0  0  0  0  0  0  0
  -27.7830  -11.3650   18.7904 H   0  0  0  0  0  0  0  0  0  0  0  0
  -27.4028  -12.7801   17.8021 H   0  0  0  0  0  0  0  0  0  0  0  0
  -27.7353  -14.2503   19.6136 H   0  0  0  0  0  0  0  0  0  0  0  0
  -28.5890  -11.9550   21.3832 H   0  0  0  0  0  0  0  0  0  0  0  0
  -28.5005  -13.6134   21.8562 H   0  0  0  0  0  0  0  0  0  0  0  0
  -25.2399   -9.5495   22.4318 H   0  0  0  0  0  0  0  0  0  0  0  0
  -23.9663   -7.5070   22.7297 H   0  0  0  0  0  0  0  0  0  0  0  0
  -21.1515   -8.8641   19.9162 H   0  0  0  0  0  0  0  0  0  0  0  0
  -22.4016  -10.9115   19.6476 H   0  0  0  0  0  0  0  0  0  0  0  0
  -21.2319   -7.5552   23.9750 H   0  0  0  0  0  0  0  0  0  0  0  0
  -21.1589   -6.0228   25.8556 H   0  0  0  0  0  0  0  0  0  0  0  0
  -22.0396   -2.8212   23.2809 H   0  0  0  0  0  0  0  0  0  0  0  0
  -22.4401  -11.9703   22.4008 H   0  0  0  0  0  0  0  0  0  0  0  0
  -21.1493  -13.0679   22.2082 H   0  0  0  0  0  0  0  0  0  0  0  0
  -24.6538  -15.7807   20.5848 H   0  0  0  0  0  0  0  0  0  0  0  0
  -26.2762  -15.5453   20.1156 H   0  0  0  0  0  0  0  0  0  0  0  0
  -26.6778  -32.4663   23.1464 H   0  0  0  0  0  0  0  0  0  0  0  0
  -25.0747  -34.0282   25.0566 H   0  0  0  0  0  0  0  0  0  0  0  0
  -22.7881  -31.3489   21.4131 H   0  0  0  0  0  0  0  0  0  0  0  0
  -23.3854  -35.9823   23.3648 H   0  0  0  0  0  0  0  0  0  0  0  0
  -24.3696  -36.8624   22.2204 H   0  0  0  0  0  0  0  0  0  0  0  0
  -23.7669  -37.6632   23.6516 H   0  0  0  0  0  0  0  0  0  0  0  0
  -25.9445  -31.6237   20.5691 H   0  0  0  0  0  0  0  0  0  0  0  0
  -26.7436  -31.0079   22.0108 H   0  0  0  0  0  0  0  0  0  0  0  0
  -28.0090  -29.1452   21.2057 H   0  0  0  0  0  0  0  0  0  0  0  0
  -26.1369  -26.0560   19.0719 H   0  0  0  0  0  0  0  0  0  0  0  0
  -24.0652  -27.2961   19.0997 H   0  0  0  0  0  0  0  0  0  0  0  0
  -23.6156  -30.5365   19.3930 H   0  0  0  0  0  0  0  0  0  0  0  0
  -22.7355  -29.1425   19.9945 H   0  0  0  0  0  0  0  0  0  0  0  0
  -25.1353  -36.2335   25.0565 H   0  0  0  0  0  0  0  0  0  0  0  0
  -21.0070  -28.3206   24.0793 H   0  0  0  0  0  0  0  0  0  0  0  0
  -20.5555  -26.2518   23.3550 H   0  0  0  0  0  0  0  0  0  0  0  0
  -21.5974  -26.8362   22.0454 H   0  0  0  0  0  0  0  0  0  0  0  0
  -19.6810  -25.6422   21.1488 H   0  0  0  0  0  0  0  0  0  0  0  0
  -19.6406  -27.3343   20.7034 H   0  0  0  0  0  0  0  0  0  0  0  0
  -17.4282  -26.6888   21.4113 H   0  0  0  0  0  0  0  0  0  0  0  0
  -18.0803  -26.0130   22.9049 H   0  0  0  0  0  0  0  0  0  0  0  0
  -19.7265  -30.6774   24.2204 H   0  0  0  0  0  0  0  0  0  0  0  0
  -17.5064  -31.5856   24.4483 H   0  0  0  0  0  0  0  0  0  0  0  0
  -15.5878  -30.2839   23.7407 H   0  0  0  0  0  0  0  0  0  0  0  0
  -15.9120  -28.0941   22.7766 H   0  0  0  0  0  0  0  0  0  0  0  0
  -24.5787  -30.7757   25.6817 H   0  0  0  0  0  0  0  0  0  0  0  0
  -25.0041  -32.2289   26.5536 H   0  0  0  0  0  0  0  0  0  0  0  0
  -25.8166  -30.7245   26.9138 H   0  0  0  0  0  0  0  0  0  0  0  0
  -26.2892  -29.7335   24.0803 H   0  0  0  0  0  0  0  0  0  0  0  0
  -27.4336  -29.7484   25.4006 H   0  0  0  0  0  0  0  0  0  0  0  0
  -27.8466  -30.4994   23.8779 H   0  0  0  0  0  0  0  0  0  0  0  0
  -27.2251  -33.3632   26.1242 H   0  0  0  0  0  0  0  0  0  0  0  0
  -28.3902  -32.6065   25.0645 H   0  0  0  0  0  0  0  0  0  0  0  0
  -27.9772  -31.8555   26.5872 H   0  0  0  0  0  0  0  0  0  0  0  0
  -28.2744  -38.0016   24.6863 H   0  0  0  0  0  0  0  0  0  0  0  0
  -28.0396  -36.2711   24.7461 H   0  0  0  0  0  0  0  0  0  0  0  0
  -27.1773  -37.3087   25.8564 H   0  0  0  0  0  0  0  0  0  0  0  0
  -20.9627  -29.9365   21.7352 H   0  0  0  0  0  0  0  0  0  0  0  0
  -26.0447  -38.2561   24.0273 H   0  0  0  0  0  0  0  0  0  0  0  0
  -16.5425  -19.4551   24.0192 H   0  0  0  0  0  0  0  0  0  0  0  0
  -16.0510  -20.8723   23.1230 H   0  0  0  0  0  0  0  0  0  0  0  0
  -15.2492  -20.4642   24.6209 H   0  0  0  0  0  0  0  0  0  0  0  0
  -17.8085  -18.8268   24.5229 H   0  0  0  0  0  0  0  0  0  0  0  0
  -18.7284  -18.7368   26.0057 H   0  0  0  0  0  0  0  0  0  0  0  0
  -19.5261  -19.1471   24.5062 H   0  0  0  0  0  0  0  0  0  0  0  0
  -15.0835  -22.5267   24.0779 H   0  0  0  0  0  0  0  0  0  0  0  0
  -15.9090  -24.0582   23.9159 H   0  0  0  0  0  0  0  0  0  0  0  0
  -15.1088  -23.6513   25.4150 H   0  0  0  0  0  0  0  0  0  0  0  0
  -20.8626  -23.0306   27.2971 H   0  0  0  0  0  0  0  0  0  0  0  0
  -19.5702  -24.0397   27.9008 H   0  0  0  0  0  0  0  0  0  0  0  0
  -20.3695  -24.4476   26.4015 H   0  0  0  0  0  0  0  0  0  0  0  0
  -20.4311  -19.7728   26.5281 H   0  0  0  0  0  0  0  0  0  0  0  0
  -20.7237  -21.2191   27.5216 H   0  0  0  0  0  0  0  0  0  0  0  0
  -17.8281  -25.0767   27.0676 H   0  0  0  0  0  0  0  0  0  0  0  0
  -16.5586  -25.0404   25.8391 H   0  0  0  0  0  0  0  0  0  0  0  0
  -22.6502  -20.7550   26.1757 H   0  0  0  0  0  0  0  0  0  0  0  0
  -21.8485  -22.2516   25.6551 H   0  0  0  0  0  0  0  0  0  0  0  0
  -20.7415  -20.7939   23.8518 H   0  0  0  0  0  0  0  0  0  0  0  0
  -21.9110  -19.6245   24.1519 H   0  0  0  0  0  0  0  0  0  0  0  0
  -18.2530  -26.6535   24.9368 H   0  0  0  0  0  0  0  0  0  0  0  0
  1 25  1  0
  1 30  2  0
  1 85  1  0
  2  3  1  0
  2 25  1  0
  2 86  1  0
  2 87  1  0
  3  4  1  0
  3 88  1  0
  3 89  1  0
  4  5  1  0
  4 90  1  0
  4 91  1  0
  5  6  1  0
  5 26  1  0
  5 92  1  6
  6 25  1  0
  6 93  1  0
  6 94  1  0
  7  8  2  0
  7 26  1  0
  7 29  1  0
  8  9  1  0
  8 22  1  0
  9 10  1  0
  9 27  2  0
 10 11  2  0
 10 15  1  0
 11 12  1  0
 11 95  1  0
 12 13  2  0
 12 96  1  0
 13 14  1  0
 13 31  1  0
 14 15  2  0
 14 97  1  0
 15 98  1  0
 16 17  2  0
 16 21  1  0
 16 31  1  0
 17 18  1  0
 17 99  1  0
 18 19  2  0
 18100  1  0
 19 20  1  0
 19 24  1  0
 20 21  2  0
 20101  1  0
 21 23  1  0
 22 28  1  0
 22 32  2  0
 26 27  1  0
 28102  1  0
 28103  1  0
 29104  1  0
 29105  1  0
 33 34  1  0
 33 66  1  0
 33 70  2  0
 34 36  1  0
 34 59  1  0
 34106  1  6
 35 44  2  0
 35 45  1  0
 35 68  1  0
 36 56  1  0
 36107  1  0
 37 39  1  0
 37 47  1  0
 37 66  1  0
 37108  1  6
 38 43  2  0
 38 46  1  0
 38 47  1  0
 39 64  1  0
 39 67  2  0
 40 52  1  0
 40 53  2  0
 40 58  1  0
 41109  1  0
 41110  1  0
 41111  1  0
 42 43  1  0
 42 66  1  0
 42112  1  0
 42113  1  0
 43 44  1  0
 44114  1  0
 45 46  2  0
 45115  1  0
 46116  1  0
 47117  1  0
 47118  1  0
 48 41  1  0
 48 56  1  0
 48 65  1  0
 48119  1  1
 49 50  1  0
 49 53  1  0
 49 64  1  0
 49120  1  1
 50 51  1  0
 50121  1  0
 50122  1  0
 51 52  1  0
 51123  1  0
 51124  1  0
 52125  1  0
 52126  1  0
 53 54  1  0
 54 55  2  0
 54127  1  0
 55 57  1  0
 55128  1  0
 56 69  2  0
 57 58  2  0
 57129  1  0
 58130  1  0
 59 60  1  0
 59 61  1  0
 59 62  1  0
 60131  1  0
 60132  1  0
 60133  1  0
 61134  1  0
 61135  1  0
 61136  1  0
 62137  1  0
 62138  1  0
 62139  1  0
 63 65  1  0
 63140  1  0
 63141  1  0
 63142  1  0
 64143  1  0
 65144  1  0
 68 84  1  0
 71 72  2  0
 71 73  1  0
 71 77  1  0
 72 75  1  0
 72 78  1  0
 73 76  2  0
 73 79  1  0
 74 75  2  0
 74 76  1  0
 74 80  1  0
 75 81  1  0
 76 82  1  0
 77145  1  0
 77146  1  0
 77147  1  0
 78148  1  0
 78149  1  0
 78150  1  0
 79151  1  0
 79152  1  0
 79153  1  0
 80154  1  0
 80155  1  0
 80156  1  0
 81 83  1  0
 81157  1  0
 81158  1  0
 82 85  1  0
 82159  1  0
 82160  1  0
 83 84  1  0
 83161  1  0
 83162  1  0
 84163  1  0
 84164  1  0
 85165  1  0
M  ISO  4   1 100  68 101  84 101  85 100
M  END
$$$$
11
     RDKit          3D

146154  0  0  0  0  0  0  0  0999 V2000
  -30.7652  -14.3608   20.6636 C   0  0  0  0  0  0  0  0  0100  0  0
  -30.4392  -12.2669   19.3775 C   0  0  0  0  0  0  0  0  0101  0  0
  -29.4791  -12.5281   18.1977 C   0  0  0  0  0  0  0  0  0102  0  0
  -27.9985  -12.3963   18.6038 C   0  0  0  0  0  0  0  0  0103  0  0
  -27.6639  -13.2170   19.8820 C   0  0  2  0  0  0  0  0  0104  0  0
  -28.6795  -12.9602   21.0279 C   0  0  0  0  0  0  0  0  0105  0  0
  -25.2633  -13.8245   20.5754 C   0  0  0  0  0  0  0  0  0106  0  0
  -24.1645  -13.0409   20.9408 C   0  0  0  0  0  0  0  0  0107  0  0
  -24.6400  -11.7009   20.8697 C   0  0  0  0  0  0  0  0  0108  0  0
  -23.9005  -10.4085   21.0420 C   0  0  0  0  0  0  0  0  0109  0  0
  -24.3588   -9.4123   21.9123 C   0  0  0  0  0  0  0  0  0110  0  0
  -23.6296   -8.2350   22.0803 C   0  0  0  0  0  0  0  0  0111  0  0
  -22.4385   -8.0419   21.3657 C   0  0  0  0  0  0  0  0  0112  0  0
  -22.0103   -9.0167   20.4678 C   0  0  0  0  0  0  0  0  0113  0  0
  -22.7317  -10.1925   20.3102 C   0  0  0  0  0  0  0  0  0114  0  0
  -21.6857   -6.0709   22.5391 C   0  0  0  0  0  0  0  0  0115  0  0
  -21.4064   -6.5490   23.8264 C   0  0  0  0  0  0  0  0  0116  0  0
  -21.3635   -5.6677   24.9085 C   0  0  0  0  0  0  0  0  0117  0  0
  -21.5973   -4.3067   24.7088 C   0  0  0  0  0  0  0  0  0118  0  0
  -21.8700   -3.8284   23.4282 C   0  0  0  0  0  0  0  0  0119  0  0
  -21.9144   -4.7056   22.3460 C   0  0  0  0  0  0  0  0  0120  0  0
  -22.8194  -13.5263   21.1763 C   0  0  0  0  0  0  0  0  0121  0  0
  -22.1559   -4.2206   21.1063 F   0  0  0  0  0  0  0  0  0122  0  0
  -21.5628   -3.4510   25.7555 F   0  0  0  0  0  0  0  0  0123  0  0
  -30.0261  -13.1803   20.4553 N   0  0  0  0  0  0  0  0  0124  0  0
  -26.2911  -12.9356   20.3443 N   0  0  0  0  0  0  0  0  0125  0  0
  -25.9236  -11.6675   20.5847 N   0  0  0  0  0  0  0  0  0126  0  0
  -22.0708  -12.7905   22.0005 N   0  0  0  0  0  0  0  0  0127  0  0
  -25.4117  -15.1773   20.4097 N   0  0  0  0  0  0  0  0  0128  0  0
  -31.7916  -14.6724   20.0536 O   0  0  0  0  0  0  0  0  0129  0  0
  -21.6670   -6.9022   21.4423 O   0  0  0  0  0  0  0  0  0130  0  0
  -22.3946  -14.5564   20.6568 O   0  0  0  0  0  0  0  0  0131  0  0
  -24.6048  -31.8614   23.2223 C   0  0  0  0  0  0  0  0  0100  0  0
  -25.8822  -32.4841   23.8616 C   0  0  1  0  0  0  0  0  0101  0  0
  -27.2536  -27.5042   20.1156 C   0  0  0  0  0  0  0  0  0102  0  0
  -25.5726  -33.8762   24.2210 N   0  0  0  0  0  0  0  0  0103  0  0
  -23.4066  -30.4859   21.5461 C   0  0  2  0  0  0  0  0  0104  0  0
  -24.8467  -28.9636   20.1247 C   0  0  0  0  0  0  0  0  0105  0  0
  -22.7412  -29.4652   22.5052 C   0  0  0  0  0  0  0  0  0106  0  0
  -18.0167  -28.1302   22.8626 C   0  0  0  0  0  0  0  0  0107  0  0
  -24.1342  -36.7390   23.2568 C   0  0  0  0  0  0  0  0  0108  0  0
  -25.9141  -30.8882   21.3456 C   0  0  0  0  0  0  0  0  0109  0  0
  -25.9930  -29.5029   20.7208 C   0  0  0  0  0  0  0  0  0110  0  0
  -27.1758  -28.7612   20.7331 C   0  0  0  0  0  0  0  0  0111  0  0
  -26.1032  -26.9836   19.5230 C   0  0  0  0  0  0  0  0  0112  0  0
  -24.9097  -27.7011   19.5331 C   0  0  0  0  0  0  0  0  0113  0  0
  -23.5715  -29.7899   20.1582 C   0  0  0  0  0  0  0  0  0114  0  0
  -25.3990  -36.3212   24.0232 C   0  0  1  0  0  0  0  0  0115  0  0
  -20.5793  -28.3813   23.1004 C   0  0  2  0  0  0  0  0  0116  0  0
  -20.6548  -26.9392   22.5411 C   0  0  0  0  0  0  0  0  0117  0  0
  -19.5615  -26.6407   21.5143 C   0  0  0  0  0  0  0  0  0118  0  0
  -18.1797  -26.7818   22.1673 C   0  0  0  0  0  0  0  0  0119  0  0
  -19.1385  -28.8769   23.2988 C   0  0  0  0  0  0  0  0  0120  0  0
  -18.9183  -30.1286   23.8878 C   0  0  0  0  0  0  0  0  0121  0  0
  -17.6396  -30.6493   24.0352 C   0  0  0  0  0  0  0  0  0122  0  0
  -25.9153  -34.9582   23.4993 C   0  0  0  0  0  0  0  0  0123  0  0
  -16.5415  -29.9068   23.6254 C   0  0  0  0  0  0  0  0  0124  0  0
  -16.7331  -28.6521   23.0586 C   0  0  0  0  0  0  0  0  0125  0  0
  -26.4583  -31.6439   25.0683 C   0  0  0  0  0  0  0  0  0126  0  0
  -25.3807  -31.3179   26.1374 C   0  0  0  0  0  0  0  0  0127  0  0
  -27.0530  -30.3024   24.5680 C   0  0  0  0  0  0  0  0  0128  0  0
  -27.6014  -32.4281   25.7651 C   0  0  0  0  0  0  0  0  0129  0  0
  -27.5629  -37.2220   24.8621 C   0  0  0  0  0  0  0  0  0130  0  0
  -21.4133  -29.3375   22.3735 N   0  0  0  0  0  0  0  0  0131  0  0
  -26.4706  -37.3372   23.9061 N   0  0  0  0  0  0  0  0  0132  0  0
  -24.6674  -31.0544   22.1178 N   0  0  0  0  0  0  0  0  0133  0  0
  -23.4259  -28.8150   23.2971 O   0  0  0  0  0  0  0  0  0134  0  0
  -28.3948  -26.7345   20.0089 O   0  0  0  0  0  0  0  0  0135  0  0
  -26.5870  -34.9065   22.4671 O   0  0  0  0  0  0  0  0  0136  0  0
  -23.5365  -32.1254   23.7833 O   0  0  0  0  0  0  0  0  0137  0  0
  -27.2099  -20.5577   21.7387 C   0  0  0  0  0  0  0  0  0  0  0  0
  -28.8642  -18.8454   22.0792 C   0  0  0  0  0  0  0  0  0  0  0  0
  -28.2185  -19.7431   21.2362 C   0  0  0  0  0  0  0  0  0  0  0  0
  -26.8869  -20.4369   23.0807 C   0  0  0  0  0  0  0  0  0  0  0  0
  -28.4672  -18.8014   23.4059 C   0  0  0  0  0  0  0  0  0  0  0  0
  -29.9518  -17.9557   21.5720 C   0  0  0  0  0  0  0  0  0  0  0  0
  -25.8036  -21.3004   23.6572 C   0  0  0  0  0  0  0  0  0  1  0  0
  -27.4917  -19.5767   23.9303 N   0  0  0  0  0  0  0  0  0  0  0  0
  -29.5067  -16.5910   21.3983 N   0  0  0  0  0  0  0  0  0  0  0  0
  -28.6381  -19.8765   19.5678 Cl  0  0  0  0  0  0  0  0  0  0  0  0
  -29.1862  -17.7360   24.5501 Cl  0  0  0  0  0  0  0  0  0  0  0  0
  -31.4485  -12.4701   19.0860 H   0  0  0  0  0  0  0  0  0  0  0  0
  -30.3970  -11.2460   19.6950 H   0  0  0  0  0  0  0  0  0  0  0  0
  -29.6870  -11.8204   17.4226 H   0  0  0  0  0  0  0  0  0  0  0  0
  -29.6375  -13.5326   17.8649 H   0  0  0  0  0  0  0  0  0  0  0  0
  -27.7830  -11.3650   18.7904 H   0  0  0  0  0  0  0  0  0  0  0  0
  -27.4028  -12.7801   17.8021 H   0  0  0  0  0  0  0  0  0  0  0  0
  -27.7353  -14.2503   19.6136 H   0  0  0  0  0  0  0  0  0  0  0  0
  -28.5890  -11.9550   21.3832 H   0  0  0  0  0  0  0  0  0  0  0  0
  -28.5005  -13.6134   21.8562 H   0  0  0  0  0  0  0  0  0  0  0  0
  -25.2399   -9.5495   22.4318 H   0  0  0  0  0  0  0  0  0  0  0  0
  -23.9663   -7.5070   22.7297 H   0  0  0  0  0  0  0  0  0  0  0  0
  -21.1515   -8.8641   19.9162 H   0  0  0  0  0  0  0  0  0  0  0  0
  -22.4016  -10.9115   19.6476 H   0  0  0  0  0  0  0  0  0  0  0  0
  -21.2319   -7.5552   23.9750 H   0  0  0  0  0  0  0  0  0  0  0  0
  -21.1589   -6.0228   25.8556 H   0  0  0  0  0  0  0  0  0  0  0  0
  -22.0396   -2.8212   23.2809 H   0  0  0  0  0  0  0  0  0  0  0  0
  -22.4401  -11.9703   22.4008 H   0  0  0  0  0  0  0  0  0  0  0  0
  -21.1493  -13.0679   22.2082 H   0  0  0  0  0  0  0  0  0  0  0  0
  -24.6538  -15.7807   20.5848 H   0  0  0  0  0  0  0  0  0  0  0  0
  -26.2762  -15.5453   20.1156 H   0  0  0  0  0  0  0  0  0  0  0  0
  -26.6778  -32.4663   23.1464 H   0  0  0  0  0  0  0  0  0  0  0  0
  -25.0747  -34.0282   25.0566 H   0  0  0  0  0  0  0  0  0  0  0  0
  -22.7881  -31.3489   21.4131 H   0  0  0  0  0  0  0  0  0  0  0  0
  -23.3854  -35.9823   23.3648 H   0  0  0  0  0  0  0  0  0  0  0  0
  -24.3696  -36.8624   22.2204 H   0  0  0  0  0  0  0  0  0  0  0  0
  -23.7669  -37.6632   23.6516 H   0  0  0  0  0  0  0  0  0  0  0  0
  -25.9445  -31.6237   20.5691 H   0  0  0  0  0  0  0  0  0  0  0  0
  -26.7436  -31.0079   22.0108 H   0  0  0  0  0  0  0  0  0  0  0  0
  -28.0090  -29.1452   21.2057 H   0  0  0  0  0  0  0  0  0  0  0  0
  -26.1369  -26.0560   19.0719 H   0  0  0  0  0  0  0  0  0  0  0  0
  -24.0652  -27.2961   19.0997 H   0  0  0  0  0  0  0  0  0  0  0  0
  -23.6156  -30.5365   19.3930 H   0  0  0  0  0  0  0  0  0  0  0  0
  -22.7355  -29.1425   19.9945 H   0  0  0  0  0  0  0  0  0  0  0  0
  -25.1353  -36.2335   25.0565 H   0  0  0  0  0  0  0  0  0  0  0  0
  -21.0070  -28.3206   24.0793 H   0  0  0  0  0  0  0  0  0  0  0  0
  -20.5555  -26.2518   23.3550 H   0  0  0  0  0  0  0  0  0  0  0  0
  -21.5974  -26.8362   22.0454 H   0  0  0  0  0  0  0  0  0  0  0  0
  -19.6810  -25.6422   21.1488 H   0  0  0  0  0  0  0  0  0  0  0  0
  -19.6406  -27.3343   20.7034 H   0  0  0  0  0  0  0  0  0  0  0  0
  -17.4282  -26.6888   21.4113 H   0  0  0  0  0  0  0  0  0  0  0  0
  -18.0803  -26.0130   22.9049 H   0  0  0  0  0  0  0  0  0  0  0  0
  -19.7265  -30.6774   24.2204 H   0  0  0  0  0  0  0  0  0  0  0  0
  -17.5064  -31.5856   24.4483 H   0  0  0  0  0  0  0  0  0  0  0  0
  -15.5878  -30.2839   23.7407 H   0  0  0  0  0  0  0  0  0  0  0  0
  -15.9120  -28.0941   22.7766 H   0  0  0  0  0  0  0  0  0  0  0  0
  -24.5787  -30.7757   25.6817 H   0  0  0  0  0  0  0  0  0  0  0  0
  -25.0041  -32.2289   26.5536 H   0  0  0  0  0  0  0  0  0  0  0  0
  -25.8166  -30.7245   26.9138 H   0  0  0  0  0  0  0  0  0  0  0  0
  -26.2892  -29.7335   24.0803 H   0  0  0  0  0  0  0  0  0  0  0  0
  -27.4336  -29.7484   25.4006 H   0  0  0  0  0  0  0  0  0  0  0  0
  -27.8466  -30.4994   23.8779 H   0  0  0  0  0  0  0  0  0  0  0  0
  -27.2251  -33.3632   26.1242 H   0  0  0  0  0  0  0  0  0  0  0  0
  -28.3902  -32.6065   25.0645 H   0  0  0  0  0  0  0  0  0  0  0  0
  -27.9772  -31.8555   26.5872 H   0  0  0  0  0  0  0  0  0  0  0  0
  -28.2744  -38.0016   24.6863 H   0  0  0  0  0  0  0  0  0  0  0  0
  -28.0396  -36.2711   24.7461 H   0  0  0  0  0  0  0  0  0  0  0  0
  -27.1773  -37.3087   25.8564 H   0  0  0  0  0  0  0  0  0  0  0  0
  -20.9627  -29.9365   21.7352 H   0  0  0  0  0  0  0  0  0  0  0  0
  -26.0447  -38.2561   24.0273 H   0  0  0  0  0  0  0  0  0  0  0  0
  -26.7174  -21.2311   21.1312 H   0  0  0  0  0  0  0  0  0  0  0  0
  -30.7609  -17.9675   22.2721 H   0  0  0  0  0  0  0  0  0  0  0  0
  -30.2580  -18.3249   20.6155 H   0  0  0  0  0  0  0  0  0  0  0  0
  -25.8521  -21.4188   24.7195 H   0  0  0  0  0  0  0  0  0  0  0  0
  -24.7738  -21.0218   23.5752 H   0  0  0  0  0  0  0  0  0  0  0  0
  -28.5498  -16.4601   21.5892 H   0  0  0  0  0  0  0  0  0  0  0  0
  1 25  1  0
  1 30  2  0
  1 79  1  0
  2  3  1  0
  2 25  1  0
  2 82  1  0
  2 83  1  0
  3  4  1  0
  3 84  1  0
  3 85  1  0
  4  5  1  0
  4 86  1  0
  4 87  1  0
  5  6  1  0
  5 26  1  0
  5 88  1  6
  6 25  1  0
  6 89  1  0
  6 90  1  0
  7  8  2  0
  7 26  1  0
  7 29  1  0
  8  9  1  0
  8 22  1  0
  9 10  1  0
  9 27  2  0
 10 11  2  0
 10 15  1  0
 11 12  1  0
 11 91  1  0
 12 13  2  0
 12 92  1  0
 13 14  1  0
 13 31  1  0
 14 15  2  0
 14 93  1  0
 15 94  1  0
 16 17  2  0
 16 21  1  0
 16 31  1  0
 17 18  1  0
 17 95  1  0
 18 19  2  0
 18 96  1  0
 19 20  1  0
 19 24  1  0
 20 21  2  0
 20 97  1  0
 21 23  1  0
 22 28  1  0
 22 32  2  0
 26 27  1  0
 28 98  1  0
 28 99  1  0
 29100  1  0
 29101  1  0
 33 34  1  0
 33 66  1  0
 33 70  2  0
 34 36  1  0
 34 59  1  0
 34102  1  6
 35 44  2  0
 35 45  1  0
 35 68  1  0
 36 56  1  0
 36103  1  0
 37 39  1  0
 37 47  1  0
 37 66  1  0
 37104  1  6
 38 43  2  0
 38 46  1  0
 38 47  1  0
 39 64  1  0
 39 67  2  0
 40 52  1  0
 40 53  2  0
 40 58  1  0
 41105  1  0
 41106  1  0
 41107  1  0
 42 43  1  0
 42 66  1  0
 42108  1  0
 42109  1  0
 43 44  1  0
 44110  1  0
 45 46  2  0
 45111  1  0
 46112  1  0
 47113  1  0
 47114  1  0
 48 41  1  0
 48 56  1  0
 48 65  1  0
 48115  1  1
 49 50  1  0
 49 53  1  0
 49 64  1  0
 49116  1  1
 50 51  1  0
 50117  1  0
 50118  1  0
 51 52  1  0
 51119  1  0
 51120  1  0
 52121  1  0
 52122  1  0
 53 54  1  0
 54 55  2  0
 54123  1  0
 55 57  1  0
 55124  1  0
 56 69  2  0
 57 58  2  0
 57125  1  0
 58126  1  0
 59 60  1  0
 59 61  1  0
 59 62  1  0
 60127  1  0
 60128  1  0
 60129  1  0
 61130  1  0
 61131  1  0
 61132  1  0
 62133  1  0
 62134  1  0
 62135  1  0
 63 65  1  0
 63136  1  0
 63137  1  0
 63138  1  0
 64139  1  0
 65140  1  0
 68 77  1  0
 71 73  2  0
 71 74  1  0
 71141  1  0
 72 73  1  0
 72 75  2  0
 72 76  1  0
 73 80  1  0
 74 77  1  0
 74 78  2  0
 75 78  1  0
 75 81  1  0
 76 79  1  0
 76142  1  0
 76143  1  0
 77144  1  0
 77145  1  0
 79146  1  0
M  ISO  4   1 100  68 101  77 101  79 100
M  END
$$$$
12
     RDKit          3D

163172  0  0  0  0  0  0  0  0999 V2000
  -30.7652  -14.3608   20.6636 C   0  0  0  0  0  0  0  0  0100  0  0
  -30.4392  -12.2669   19.3775 C   0  0  0  0  0  0  0  0  0101  0  0
  -29.4791  -12.5281   18.1977 C   0  0  0  0  0  0  0  0  0102  0  0
  -27.9985  -12.3963   18.6038 C   0  0  0  0  0  0  0  0  0103  0  0
  -27.6639  -13.2170   19.8820 C   0  0  2  0  0  0  0  0  0104  0  0
  -28.6795  -12.9602   21.0279 C   0  0  0  0  0  0  0  0  0105  0  0
  -25.2633  -13.8245   20.5754 C   0  0  0  0  0  0  0  0  0106  0  0
  -24.1645  -13.0409   20.9408 C   0  0  0  0  0  0  0  0  0107  0  0
  -24.6400  -11.7009   20.8697 C   0  0  0  0  0  0  0  0  0108  0  0
  -23.9005  -10.4085   21.0420 C   0  0  0  0  0  0  0  0  0109  0  0
  -24.3588   -9.4123   21.9123 C   0  0  0  0  0  0  0  0  0110  0  0
  -23.6296   -8.2350   22.0803 C   0  0  0  0  0  0  0  0  0111  0  0
  -22.4385   -8.0419   21.3657 C   0  0  0  0  0  0  0  0  0112  0  0
  -22.0103   -9.0167   20.4678 C   0  0  0  0  0  0  0  0  0113  0  0
  -22.7317  -10.1925   20.3102 C   0  0  0  0  0  0  0  0  0114  0  0
  -21.6857   -6.0709   22.5391 C   0  0  0  0  0  0  0  0  0115  0  0
  -21.4064   -6.5490   23.8264 C   0  0  0  0  0  0  0  0  0116  0  0
  -21.3635   -5.6677   24.9085 C   0  0  0  0  0  0  0  0  0117  0  0
  -21.5973   -4.3067   24.7088 C   0  0  0  0  0  0  0  0  0118  0  0
  -21.8700   -3.8284   23.4282 C   0  0  0  0  0  0  0  0  0119  0  0
  -21.9144   -4.7056   22.3460 C   0  0  0  0  0  0  0  0  0120  0  0
  -22.8194  -13.5263   21.1763 C   0  0  0  0  0  0  0  0  0121  0  0
  -22.1559   -4.2206   21.1063 F   0  0  0  0  0  0  0  0  0122  0  0
  -21.5628   -3.4510   25.7555 F   0  0  0  0  0  0  0  0  0123  0  0
  -30.0261  -13.1803   20.4553 N   0  0  0  0  0  0  0  0  0124  0  0
  -26.2911  -12.9356   20.3443 N   0  0  0  0  0  0  0  0  0125  0  0
  -25.9236  -11.6675   20.5847 N   0  0  0  0  0  0  0  0  0126  0  0
  -22.0708  -12.7905   22.0005 N   0  0  0  0  0  0  0  0  0127  0  0
  -25.4117  -15.1773   20.4097 N   0  0  0  0  0  0  0  0  0128  0  0
  -31.7916  -14.6724   20.0536 O   0  0  0  0  0  0  0  0  0129  0  0
  -21.6670   -6.9022   21.4423 O   0  0  0  0  0  0  0  0  0130  0  0
  -22.3946  -14.5564   20.6568 O   0  0  0  0  0  0  0  0  0131  0  0
  -24.6048  -31.8614   23.2223 C   0  0  0  0  0  0  0  0  0100  0  0
  -25.8822  -32.4841   23.8616 C   0  0  1  0  0  0  0  0  0101  0  0
  -27.2536  -27.5042   20.1156 C   0  0  0  0  0  0  0  0  0102  0  0
  -25.5726  -33.8762   24.2210 N   0  0  0  0  0  0  0  0  0103  0  0
  -23.4066  -30.4859   21.5461 C   0  0  2  0  0  0  0  0  0104  0  0
  -24.8467  -28.9636   20.1247 C   0  0  0  0  0  0  0  0  0105  0  0
  -22.7412  -29.4652   22.5052 C   0  0  0  0  0  0  0  0  0106  0  0
  -18.0167  -28.1302   22.8626 C   0  0  0  0  0  0  0  0  0107  0  0
  -24.1342  -36.7390   23.2568 C   0  0  0  0  0  0  0  0  0108  0  0
  -25.9141  -30.8882   21.3456 C   0  0  0  0  0  0  0  0  0109  0  0
  -25.9930  -29.5029   20.7208 C   0  0  0  0  0  0  0  0  0110  0  0
  -27.1758  -28.7612   20.7331 C   0  0  0  0  0  0  0  0  0111  0  0
  -26.1032  -26.9836   19.5230 C   0  0  0  0  0  0  0  0  0112  0  0
  -24.9097  -27.7011   19.5331 C   0  0  0  0  0  0  0  0  0113  0  0
  -23.5715  -29.7899   20.1582 C   0  0  0  0  0  0  0  0  0114  0  0
  -25.3990  -36.3212   24.0232 C   0  0  1  0  0  0  0  0  0115  0  0
  -20.5793  -28.3813   23.1004 C   0  0  2  0  0  0  0  0  0116  0  0
  -20.6548  -26.9392   22.5411 C   0  0  0  0  0  0  0  0  0117  0  0
  -19.5615  -26.6407   21.5143 C   0  0  0  0  0  0  0  0  0118  0  0
  -18.1797  -26.7818   22.1673 C   0  0  0  0  0  0  0  0  0119  0  0
  -19.1385  -28.8769   23.2988 C   0  0  0  0  0  0  0  0  0120  0  0
  -18.9183  -30.1286   23.8878 C   0  0  0  0  0  0  0  0  0121  0  0
  -17.6396  -30.6493   24.0352 C   0  0  0  0  0  0  0  0  0122  0  0
  -25.9153  -34.9582   23.4993 C   0  0  0  0  0  0  0  0  0123  0  0
  -16.5415  -29.9068   23.6254 C   0  0  0  0  0  0  0  0  0124  0  0
  -16.7331  -28.6521   23.0586 C   0  0  0  0  0  0  0  0  0125  0  0
  -26.4583  -31.6439   25.0683 C   0  0  0  0  0  0  0  0  0126  0  0
  -25.3807  -31.3179   26.1374 C   0  0  0  0  0  0  0  0  0127  0  0
  -27.0530  -30.3024   24.5680 C   0  0  0  0  0  0  0  0  0128  0  0
  -27.6014  -32.4281   25.7651 C   0  0  0  0  0  0  0  0  0129  0  0
  -27.5629  -37.2220   24.8621 C   0  0  0  0  0  0  0  0  0130  0  0
  -21.4133  -29.3375   22.3735 N   0  0  0  0  0  0  0  0  0131  0  0
  -26.4706  -37.3372   23.9061 N   0  0  0  0  0  0  0  0  0132  0  0
  -24.6674  -31.0544   22.1178 N   0  0  0  0  0  0  0  0  0133  0  0
  -23.4259  -28.8150   23.2971 O   0  0  0  0  0  0  0  0  0134  0  0
  -28.3948  -26.7345   20.0089 O   0  0  0  0  0  0  0  0  0135  0  0
  -26.5870  -34.9065   22.4671 O   0  0  0  0  0  0  0  0  0136  0  0
  -23.5365  -32.1254   23.7833 O   0  0  0  0  0  0  0  0  0137  0  0
  -29.8054  -25.3410   23.7476 C   0  0  0  0  0  0  0  0  0  0  0  0
  -28.6637  -25.0767   24.4996 C   0  0  0  0  0  0  0  0  0  0  0  0
  -27.3550  -24.9669   22.4694 C   0  0  0  0  0  0  0  0  0  0  0  0
  -29.7305  -25.4060   22.3501 C   0  0  0  0  0  0  0  0  0  0  0  0
  -28.4954  -25.2200   21.6941 C   0  0  0  0  0  0  0  0  0  0  0  0
  -27.4409  -24.8915   23.8615 C   0  0  0  0  0  0  0  0  0  0  0  0
  -30.9491  -25.7619   21.5375 C   0  0  0  0  0  0  0  0  0  0  0  0
  -29.6913  -24.5270   19.6321 C   0  0  0  0  0  0  0  0  0  0  0  0
  -28.4772  -25.3111   20.1773 C   0  0  2  0  0  0  0  0  0  1  0  0
  -31.0701  -24.9651   20.2126 C   0  0  0  0  0  0  0  0  0  0  0  0
  -27.1995  -24.7830   19.5096 C   0  0  0  0  0  0  0  0  0  0  0  0
  -31.9211  -23.7001   20.4549 C   0  0  0  0  0  0  0  0  0  0  0  0
  -31.8148  -25.8389   19.1829 C   0  0  0  0  0  0  0  0  0  0  0  0
  -26.2163  -24.6124   24.6686 C   0  0  0  0  0  0  0  0  0  0  0  0
  -25.8195  -23.2235   24.6038 N   0  0  0  0  0  0  0  0  0  0  0  0
  -31.4485  -12.4701   19.0860 H   0  0  0  0  0  0  0  0  0  0  0  0
  -30.3970  -11.2460   19.6950 H   0  0  0  0  0  0  0  0  0  0  0  0
  -29.6870  -11.8204   17.4226 H   0  0  0  0  0  0  0  0  0  0  0  0
  -29.6375  -13.5326   17.8649 H   0  0  0  0  0  0  0  0  0  0  0  0
  -27.7830  -11.3650   18.7904 H   0  0  0  0  0  0  0  0  0  0  0  0
  -27.4028  -12.7801   17.8021 H   0  0  0  0  0  0  0  0  0  0  0  0
  -27.7353  -14.2503   19.6136 H   0  0  0  0  0  0  0  0  0  0  0  0
  -28.5890  -11.9550   21.3832 H   0  0  0  0  0  0  0  0  0  0  0  0
  -28.5005  -13.6134   21.8562 H   0  0  0  0  0  0  0  0  0  0  0  0
  -25.2399   -9.5495   22.4318 H   0  0  0  0  0  0  0  0  0  0  0  0
  -23.9663   -7.5070   22.7297 H   0  0  0  0  0  0  0  0  0  0  0  0
  -21.1515   -8.8641   19.9162 H   0  0  0  0  0  0  0  0  0  0  0  0
  -22.4016  -10.9115   19.6476 H   0  0  0  0  0  0  0  0  0  0  0  0
  -21.2319   -7.5552   23.9750 H   0  0  0  0  0  0  0  0  0  0  0  0
  -21.1589   -6.0228   25.8556 H   0  0  0  0  0  0  0  0  0  0  0  0
  -22.0396   -2.8212   23.2809 H   0  0  0  0  0  0  0  0  0  0  0  0
  -22.4401  -11.9703   22.4008 H   0  0  0  0  0  0  0  0  0  0  0  0
  -21.1493  -13.0679   22.2082 H   0  0  0  0  0  0  0  0  0  0  0  0
  -24.6538  -15.7807   20.5848 H   0  0  0  0  0  0  0  0  0  0  0  0
  -26.2762  -15.5453   20.1156 H   0  0  0  0  0  0  0  0  0  0  0  0
  -26.6778  -32.4663   23.1464 H   0  0  0  0  0  0  0  0  0  0  0  0
  -25.0747  -34.0282   25.0566 H   0  0  0  0  0  0  0  0  0  0  0  0
  -22.7881  -31.3489   21.4131 H   0  0  0  0  0  0  0  0  0  0  0  0
  -23.3854  -35.9823   23.3648 H   0  0  0  0  0  0  0  0  0  0  0  0
  -24.3696  -36.8624   22.2204 H   0  0  0  0  0  0  0  0  0  0  0  0
  -23.7669  -37.6632   23.6516 H   0  0  0  0  0  0  0  0  0  0  0  0
  -25.9445  -31.6237   20.5691 H   0  0  0  0  0  0  0  0  0  0  0  0
  -26.7436  -31.0079   22.0108 H   0  0  0  0  0  0  0  0  0  0  0  0
  -28.0090  -29.1452   21.2057 H   0  0  0  0  0  0  0  0  0  0  0  0
  -26.1369  -26.0560   19.0719 H   0  0  0  0  0  0  0  0  0  0  0  0
  -24.0652  -27.2961   19.0997 H   0  0  0  0  0  0  0  0  0  0  0  0
  -23.6156  -30.5365   19.3930 H   0  0  0  0  0  0  0  0  0  0  0  0
  -22.7355  -29.1425   19.9945 H   0  0  0  0  0  0  0  0  0  0  0  0
  -25.1353  -36.2335   25.0565 H   0  0  0  0  0  0  0  0  0  0  0  0
  -21.0070  -28.3206   24.0793 H   0  0  0  0  0  0  0  0  0  0  0  0
  -20.5555  -26.2518   23.3550 H   0  0  0  0  0  0  0  0  0  0  0  0
  -21.5974  -26.8362   22.0454 H   0  0  0  0  0  0  0  0  0  0  0  0
  -19.6810  -25.6422   21.1488 H   0  0  0  0  0  0  0  0  0  0  0  0
  -19.6406  -27.3343   20.7034 H   0  0  0  0  0  0  0  0  0  0  0  0
  -17.4282  -26.6888   21.4113 H   0  0  0  0  0  0  0  0  0  0  0  0
  -18.0803  -26.0130   22.9049 H   0  0  0  0  0  0  0  0  0  0  0  0
  -19.7265  -30.6774   24.2204 H   0  0  0  0  0  0  0  0  0  0  0  0
  -17.5064  -31.5856   24.4483 H   0  0  0  0  0  0  0  0  0  0  0  0
  -15.5878  -30.2839   23.7407 H   0  0  0  0  0  0  0  0  0  0  0  0
  -15.9120  -28.0941   22.7766 H   0  0  0  0  0  0  0  0  0  0  0  0
  -24.5787  -30.7757   25.6817 H   0  0  0  0  0  0  0  0  0  0  0  0
  -25.0041  -32.2289   26.5536 H   0  0  0  0  0  0  0  0  0  0  0  0
  -25.8166  -30.7245   26.9138 H   0  0  0  0  0  0  0  0  0  0  0  0
  -26.2892  -29.7335   24.0803 H   0  0  0  0  0  0  0  0  0  0  0  0
  -27.4336  -29.7484   25.4006 H   0  0  0  0  0  0  0  0  0  0  0  0
  -27.8466  -30.4994   23.8779 H   0  0  0  0  0  0  0  0  0  0  0  0
  -27.2251  -33.3632   26.1242 H   0  0  0  0  0  0  0  0  0  0  0  0
  -28.3902  -32.6065   25.0645 H   0  0  0  0  0  0  0  0  0  0  0  0
  -27.9772  -31.8555   26.5872 H   0  0  0  0  0  0  0  0  0  0  0  0
  -28.2744  -38.0016   24.6863 H   0  0  0  0  0  0  0  0  0  0  0  0
  -28.0396  -36.2711   24.7461 H   0  0  0  0  0  0  0  0  0  0  0  0
  -27.1773  -37.3087   25.8564 H   0  0  0  0  0  0  0  0  0  0  0  0
  -20.9627  -29.9365   21.7352 H   0  0  0  0  0  0  0  0  0  0  0  0
  -26.0447  -38.2561   24.0273 H   0  0  0  0  0  0  0  0  0  0  0  0
  -30.7101  -25.4896   24.2214 H   0  0  0  0  0  0  0  0  0  0  0  0
  -28.7242  -25.0183   25.5282 H   0  0  0  0  0  0  0  0  0  0  0  0
  -26.4421  -24.8349   22.0065 H   0  0  0  0  0  0  0  0  0  0  0  0
  -31.8187  -25.5666   22.1296 H   0  0  0  0  0  0  0  0  0  0  0  0
  -30.8580  -26.7949   21.2737 H   0  0  0  0  0  0  0  0  0  0  0  0
  -29.7213  -24.6568   18.5704 H   0  0  0  0  0  0  0  0  0  0  0  0
  -29.5498  -23.5093   19.9306 H   0  0  0  0  0  0  0  0  0  0  0  0
  -27.1720  -23.7161   19.5860 H   0  0  0  0  0  0  0  0  0  0  0  0
  -27.1926  -25.0670   18.4780 H   0  0  0  0  0  0  0  0  0  0  0  0
  -26.3434  -25.1979   19.9995 H   0  0  0  0  0  0  0  0  0  0  0  0
  -31.4298  -23.0708   21.1673 H   0  0  0  0  0  0  0  0  0  0  0  0
  -32.8817  -23.9832   20.8317 H   0  0  0  0  0  0  0  0  0  0  0  0
  -32.0416  -23.1695   19.5336 H   0  0  0  0  0  0  0  0  0  0  0  0
  -31.2487  -26.7267   18.9927 H   0  0  0  0  0  0  0  0  0  0  0  0
  -31.9362  -25.2912   18.2717 H   0  0  0  0  0  0  0  0  0  0  0  0
  -32.7762  -26.1050   19.5699 H   0  0  0  0  0  0  0  0  0  0  0  0
  -25.4149  -25.2166   24.2976 H   0  0  0  0  0  0  0  0  0  0  0  0
  -26.4389  -24.8413   25.6899 H   0  0  0  0  0  0  0  0  0  0  0  0
  -24.9317  -23.0450   24.9901 H   0  0  0  0  0  0  0  0  0  0  0  0
  1 25  1  0
  1 30  2  0
  1 85  1  0
  2  3  1  0
  2 25  1  0
  2 86  1  0
  2 87  1  0
  3  4  1  0
  3 88  1  0
  3 89  1  0
  4  5  1  0
  4 90  1  0
  4 91  1  0
  5  6  1  0
  5 26  1  0
  5 92  1  6
  6 25  1  0
  6 93  1  0
  6 94  1  0
  7  8  2  0
  7 26  1  0
  7 29  1  0
  8  9  1  0
  8 22  1  0
  9 10  1  0
  9 27  2  0
 10 11  2  0
 10 15  1  0
 11 12  1  0
 11 95  1  0
 12 13  2  0
 12 96  1  0
 13 14  1  0
 13 31  1  0
 14 15  2  0
 14 97  1  0
 15 98  1  0
 16 17  2  0
 16 21  1  0
 16 31  1  0
 17 18  1  0
 17 99  1  0
 18 19  2  0
 18100  1  0
 19 20  1  0
 19 24  1  0
 20 21  2  0
 20101  1  0
 21 23  1  0
 22 28  1  0
 22 32  2  0
 26 27  1  0
 28102  1  0
 28103  1  0
 29104  1  0
 29105  1  0
 33 34  1  0
 33 66  1  0
 33 70  2  0
 34 36  1  0
 34 59  1  0
 34106  1  6
 35 44  2  0
 35 45  1  0
 35 68  1  0
 36 56  1  0
 36107  1  0
 37 39  1  0
 37 47  1  0
 37 66  1  0
 37108  1  6
 38 43  2  0
 38 46  1  0
 38 47  1  0
 39 64  1  0
 39 67  2  0
 40 52  1  0
 40 53  2  0
 40 58  1  0
 41109  1  0
 41110  1  0
 41111  1  0
 42 43  1  0
 42 66  1  0
 42112  1  0
 42113  1  0
 43 44  1  0
 44114  1  0
 45 46  2  0
 45115  1  0
 46116  1  0
 47117  1  0
 47118  1  0
 48 41  1  0
 48 56  1  0
 48 65  1  0
 48119  1  1
 49 50  1  0
 49 53  1  0
 49 64  1  0
 49120  1  1
 50 51  1  0
 50121  1  0
 50122  1  0
 51 52  1  0
 51123  1  0
 51124  1  0
 52125  1  0
 52126  1  0
 53 54  1  0
 54 55  2  0
 54127  1  0
 55 57  1  0
 55128  1  0
 56 69  2  0
 57 58  2  0
 57129  1  0
 58130  1  0
 59 60  1  0
 59 61  1  0
 59 62  1  0
 60131  1  0
 60132  1  0
 60133  1  0
 61134  1  0
 61135  1  0
 61136  1  0
 62137  1  0
 62138  1  0
 62139  1  0
 63 65  1  0
 63140  1  0
 63141  1  0
 63142  1  0
 64143  1  0
 65144  1  0
 71 72  2  0
 71 74  1  0
 71145  1  0
 72 76  1  0
 72146  1  0
 73 75  1  0
 73 76  2  0
 73147  1  0
 74 75  2  0
 74 77  1  0
 75 79  1  0
 76 84  1  0
 77 80  1  0
 77148  1  0
 77149  1  0
 78 79  1  0
 78 80  1  0
 78150  1  0
 78151  1  0
 79 81  1  0
 79 68  1  1
 80 82  1  0
 80 83  1  0
 81152  1  0
 81153  1  0
 81154  1  0
 82155  1  0
 82156  1  0
 82157  1  0
 83158  1  0
 83159  1  0
 83160  1  0
 84 85  1  0
 84161  1  0
 84162  1  0
 85163  1  0
M  ISO  4   1 100  68 101  79 101  85 100
M  END
$$$$
13
     RDKit          3D

162170  0  0  0  0  0  0  0  0999 V2000
  -30.7652  -14.3608   20.6636 C   0  0  0  0  0  0  0  0  0100  0  0
  -30.4392  -12.2669   19.3775 C   0  0  0  0  0  0  0  0  0101  0  0
  -29.4791  -12.5281   18.1977 C   0  0  0  0  0  0  0  0  0102  0  0
  -27.9985  -12.3963   18.6038 C   0  0  0  0  0  0  0  0  0103  0  0
  -27.6639  -13.2170   19.8820 C   0  0  2  0  0  0  0  0  0104  0  0
  -28.6795  -12.9602   21.0279 C   0  0  0  0  0  0  0  0  0105  0  0
  -25.2633  -13.8245   20.5754 C   0  0  0  0  0  0  0  0  0106  0  0
  -24.1645  -13.0409   20.9408 C   0  0  0  0  0  0  0  0  0107  0  0
  -24.6400  -11.7009   20.8697 C   0  0  0  0  0  0  0  0  0108  0  0
  -23.9005  -10.4085   21.0420 C   0  0  0  0  0  0  0  0  0109  0  0
  -24.3588   -9.4123   21.9123 C   0  0  0  0  0  0  0  0  0110  0  0
  -23.6296   -8.2350   22.0803 C   0  0  0  0  0  0  0  0  0111  0  0
  -22.4385   -8.0419   21.3657 C   0  0  0  0  0  0  0  0  0112  0  0
  -22.0103   -9.0167   20.4678 C   0  0  0  0  0  0  0  0  0113  0  0
  -22.7317  -10.1925   20.3102 C   0  0  0  0  0  0  0  0  0114  0  0
  -21.6857   -6.0709   22.5391 C   0  0  0  0  0  0  0  0  0115  0  0
  -21.4064   -6.5490   23.8264 C   0  0  0  0  0  0  0  0  0116  0  0
  -21.3635   -5.6677   24.9085 C   0  0  0  0  0  0  0  0  0117  0  0
  -21.5973   -4.3067   24.7088 C   0  0  0  0  0  0  0  0  0118  0  0
  -21.8700   -3.8284   23.4282 C   0  0  0  0  0  0  0  0  0119  0  0
  -21.9144   -4.7056   22.3460 C   0  0  0  0  0  0  0  0  0120  0  0
  -22.8194  -13.5263   21.1763 C   0  0  0  0  0  0  0  0  0121  0  0
  -22.1559   -4.2206   21.1063 F   0  0  0  0  0  0  0  0  0122  0  0
  -21.5628   -3.4510   25.7555 F   0  0  0  0  0  0  0  0  0123  0  0
  -30.0261  -13.1803   20.4553 N   0  0  0  0  0  0  0  0  0124  0  0
  -26.2911  -12.9356   20.3443 N   0  0  0  0  0  0  0  0  0125  0  0
  -25.9236  -11.6675   20.5847 N   0  0  0  0  0  0  0  0  0126  0  0
  -22.0708  -12.7905   22.0005 N   0  0  0  0  0  0  0  0  0127  0  0
  -25.4117  -15.1773   20.4097 N   0  0  0  0  0  0  0  0  0128  0  0
  -31.7916  -14.6724   20.0536 O   0  0  0  0  0  0  0  0  0129  0  0
  -21.6670   -6.9022   21.4423 O   0  0  0  0  0  0  0  0  0130  0  0
  -22.3946  -14.5564   20.6568 O   0  0  0  0  0  0  0  0  0131  0  0
  -24.6048  -31.8614   23.2223 C   0  0  0  0  0  0  0  0  0100  0  0
  -25.8822  -32.4841   23.8616 C   0  0  1  0  0  0  0  0  0101  0  0
  -27.2536  -27.5042   20.1156 C   0  0  0  0  0  0  0  0  0102  0  0
  -25.5726  -33.8762   24.2210 N   0  0  0  0  0  0  0  0  0103  0  0
  -23.4066  -30.4859   21.5461 C   0  0  2  0  0  0  0  0  0104  0  0
  -24.8467  -28.9636   20.1247 C   0  0  0  0  0  0  0  0  0105  0  0
  -22.7412  -29.4652   22.5052 C   0  0  0  0  0  0  0  0  0106  0  0
  -18.0167  -28.1302   22.8626 C   0  0  0  0  0  0  0  0  0107  0  0
  -24.1342  -36.7390   23.2568 C   0  0  0  0  0  0  0  0  0108  0  0
  -25.9141  -30.8882   21.3456 C   0  0  0  0  0  0  0  0  0109  0  0
  -25.9930  -29.5029   20.7208 C   0  0  0  0  0  0  0  0  0110  0  0
  -27.1758  -28.7612   20.7331 C   0  0  0  0  0  0  0  0  0111  0  0
  -26.1032  -26.9836   19.5230 C   0  0  0  0  0  0  0  0  0112  0  0
  -24.9097  -27.7011   19.5331 C   0  0  0  0  0  0  0  0  0113  0  0
  -23.5715  -29.7899   20.1582 C   0  0  0  0  0  0  0  0  0114  0  0
  -25.3990  -36.3212   24.0232 C   0  0  1  0  0  0  0  0  0115  0  0
  -20.5793  -28.3813   23.1004 C   0  0  2  0  0  0  0  0  0116  0  0
  -20.6548  -26.9392   22.5411 C   0  0  0  0  0  0  0  0  0117  0  0
  -19.5615  -26.6407   21.5143 C   0  0  0  0  0  0  0  0  0118  0  0
  -18.1797  -26.7818   22.1673 C   0  0  0  0  0  0  0  0  0119  0  0
  -19.1385  -28.8769   23.2988 C   0  0  0  0  0  0  0  0  0120  0  0
  -18.9183  -30.1286   23.8878 C   0  0  0  0  0  0  0  0  0121  0  0
  -17.6396  -30.6493   24.0352 C   0  0  0  0  0  0  0  0  0122  0  0
  -25.9153  -34.9582   23.4993 C   0  0  0  0  0  0  0  0  0123  0  0
  -16.5415  -29.9068   23.6254 C   0  0  0  0  0  0  0  0  0124  0  0
  -16.7331  -28.6521   23.0586 C   0  0  0  0  0  0  0  0  0125  0  0
  -26.4583  -31.6439   25.0683 C   0  0  0  0  0  0  0  0  0126  0  0
  -25.3807  -31.3179   26.1374 C   0  0  0  0  0  0  0  0  0127  0  0
  -27.0530  -30.3024   24.5680 C   0  0  0  0  0  0  0  0  0128  0  0
  -27.6014  -32.4281   25.7651 C   0  0  0  0  0  0  0  0  0129  0  0
  -27.5629  -37.2220   24.8621 C   0  0  0  0  0  0  0  0  0130  0  0
  -21.4133  -29.3375   22.3735 N   0  0  0  0  0  0  0  0  0131  0  0
  -26.4706  -37.3372   23.9061 N   0  0  0  0  0  0  0  0  0132  0  0
  -24.6674  -31.0544   22.1178 N   0  0  0  0  0  0  0  0  0133  0  0
  -23.4259  -28.8150   23.2971 O   0  0  0  0  0  0  0  0  0134  0  0
  -28.3948  -26.7345   20.0089 O   0  0  0  0  0  0  0  0  0135  0  0
  -26.5870  -34.9065   22.4671 O   0  0  0  0  0  0  0  0  0136  0  0
  -23.5365  -32.1254   23.7833 O   0  0  0  0  0  0  0  0  0137  0  0
  -17.1827  -21.2828   24.8568 C   0  0  0  0  0  0  0  0  0  0  0  0
  -18.3592  -20.6995   25.3270 C   0  0  0  0  0  0  0  0  0  0  0  0
  -16.9330  -22.6352   25.0903 C   0  0  0  0  0  0  0  0  0  0  0  0
  -19.0364  -22.8208   26.2643 C   0  0  0  0  0  0  0  0  0  0  0  0
  -19.2861  -21.4685   26.0308 C   0  0  0  0  0  0  0  0  0  0  0  0
  -17.8598  -23.4042   25.7941 C   0  0  0  0  0  0  0  0  0  0  0  0
  -18.6024  -19.2493   25.0639 C   0  0  0  0  0  0  0  0  0  0  0  0
  -15.6655  -23.2355   24.5754 C   0  0  0  0  0  0  0  0  0  0  0  0
  -20.0308  -23.6457   27.0192 C   0  0  0  0  0  0  0  0  0  0  0  0
  -20.5568  -20.8352   26.5383 C   0  0  0  0  0  0  0  0  0  0  0  0
  -17.5904  -24.8546   26.0420 C   0  0  0  0  0  0  0  0  0  0  0  0
  -21.7932  -21.1827   25.7063 C   0  0  0  0  0  0  0  0  0  0  0  0
  -21.7204  -20.6687   24.2731 C   0  0  0  0  0  0  0  0  0  1  0  0
  -18.3781  -25.7107   25.1832 N   0  0  0  0  0  0  0  0  0  0  0  0
  -31.4485  -12.4701   19.0860 H   0  0  0  0  0  0  0  0  0  0  0  0
  -30.3970  -11.2460   19.6950 H   0  0  0  0  0  0  0  0  0  0  0  0
  -29.6870  -11.8204   17.4226 H   0  0  0  0  0  0  0  0  0  0  0  0
  -29.6375  -13.5326   17.8649 H   0  0  0  0  0  0  0  0  0  0  0  0
  -27.7830  -11.3650   18.7904 H   0  0  0  0  0  0  0  0  0  0  0  0
  -27.4028  -12.7801   17.8021 H   0  0  0  0  0  0  0  0  0  0  0  0
  -27.7353  -14.2503   19.6136 H   0  0  0  0  0  0  0  0  0  0  0  0
  -28.5890  -11.9550   21.3832 H   0  0  0  0  0  0  0  0  0  0  0  0
  -28.5005  -13.6134   21.8562 H   0  0  0  0  0  0  0  0  0  0  0  0
  -25.2399   -9.5495   22.4318 H   0  0  0  0  0  0  0  0  0  0  0  0
  -23.9663   -7.5070   22.7297 H   0  0  0  0  0  0  0  0  0  0  0  0
  -21.1515   -8.8641   19.9162 H   0  0  0  0  0  0  0  0  0  0  0  0
  -22.4016  -10.9115   19.6476 H   0  0  0  0  0  0  0  0  0  0  0  0
  -21.2319   -7.5552   23.9750 H   0  0  0  0  0  0  0  0  0  0  0  0
  -21.1589   -6.0228   25.8556 H   0  0  0  0  0  0  0  0  0  0  0  0
  -22.0396   -2.8212   23.2809 H   0  0  0  0  0  0  0  0  0  0  0  0
  -22.4401  -11.9703   22.4008 H   0  0  0  0  0  0  0  0  0  0  0  0
  -21.1493  -13.0679   22.2082 H   0  0  0  0  0  0  0  0  0  0  0  0
  -24.6538  -15.7807   20.5848 H   0  0  0  0  0  0  0  0  0  0  0  0
  -26.2762  -15.5453   20.1156 H   0  0  0  0  0  0  0  0  0  0  0  0
  -26.6778  -32.4663   23.1464 H   0  0  0  0  0  0  0  0  0  0  0  0
  -25.0747  -34.0282   25.0566 H   0  0  0  0  0  0  0  0  0  0  0  0
  -22.7881  -31.3489   21.4131 H   0  0  0  0  0  0  0  0  0  0  0  0
  -23.3854  -35.9823   23.3648 H   0  0  0  0  0  0  0  0  0  0  0  0
  -24.3696  -36.8624   22.2204 H   0  0  0  0  0  0  0  0  0  0  0  0
  -23.7669  -37.6632   23.6516 H   0  0  0  0  0  0  0  0  0  0  0  0
  -25.9445  -31.6237   20.5691 H   0  0  0  0  0  0  0  0  0  0  0  0
  -26.7436  -31.0079   22.0108 H   0  0  0  0  0  0  0  0  0  0  0  0
  -28.0090  -29.1452   21.2057 H   0  0  0  0  0  0  0  0  0  0  0  0
  -26.1369  -26.0560   19.0719 H   0  0  0  0  0  0  0  0  0  0  0  0
  -24.0652  -27.2961   19.0997 H   0  0  0  0  0  0  0  0  0  0  0  0
  -23.6156  -30.5365   19.3930 H   0  0  0  0  0  0  0  0  0  0  0  0
  -22.7355  -29.1425   19.9945 H   0  0  0  0  0  0  0  0  0  0  0  0
  -25.1353  -36.2335   25.0565 H   0  0  0  0  0  0  0  0  0  0  0  0
  -21.0070  -28.3206   24.0793 H   0  0  0  0  0  0  0  0  0  0  0  0
  -20.5555  -26.2518   23.3550 H   0  0  0  0  0  0  0  0  0  0  0  0
  -21.5974  -26.8362   22.0454 H   0  0  0  0  0  0  0  0  0  0  0  0
  -19.6810  -25.6422   21.1488 H   0  0  0  0  0  0  0  0  0  0  0  0
  -19.6406  -27.3343   20.7034 H   0  0  0  0  0  0  0  0  0  0  0  0
  -17.4282  -26.6888   21.4113 H   0  0  0  0  0  0  0  0  0  0  0  0
  -18.0803  -26.0130   22.9049 H   0  0  0  0  0  0  0  0  0  0  0  0
  -19.7265  -30.6774   24.2204 H   0  0  0  0  0  0  0  0  0  0  0  0
  -17.5064  -31.5856   24.4483 H   0  0  0  0  0  0  0  0  0  0  0  0
  -15.5878  -30.2839   23.7407 H   0  0  0  0  0  0  0  0  0  0  0  0
  -15.9120  -28.0941   22.7766 H   0  0  0  0  0  0  0  0  0  0  0  0
  -24.5787  -30.7757   25.6817 H   0  0  0  0  0  0  0  0  0  0  0  0
  -25.0041  -32.2289   26.5536 H   0  0  0  0  0  0  0  0  0  0  0  0
  -25.8166  -30.7245   26.9138 H   0  0  0  0  0  0  0  0  0  0  0  0
  -26.2892  -29.7335   24.0803 H   0  0  0  0  0  0  0  0  0  0  0  0
  -27.4336  -29.7484   25.4006 H   0  0  0  0  0  0  0  0  0  0  0  0
  -27.8466  -30.4994   23.8779 H   0  0  0  0  0  0  0  0  0  0  0  0
  -27.2251  -33.3632   26.1242 H   0  0  0  0  0  0  0  0  0  0  0  0
  -28.3902  -32.6065   25.0645 H   0  0  0  0  0  0  0  0  0  0  0  0
  -27.9772  -31.8555   26.5872 H   0  0  0  0  0  0  0  0  0  0  0  0
  -28.2744  -38.0016   24.6863 H   0  0  0  0  0  0  0  0  0  0  0  0
  -28.0396  -36.2711   24.7461 H   0  0  0  0  0  0  0  0  0  0  0  0
  -27.1773  -37.3087   25.8564 H   0  0  0  0  0  0  0  0  0  0  0  0
  -20.9627  -29.9365   21.7352 H   0  0  0  0  0  0  0  0  0  0  0  0
  -26.0447  -38.2561   24.0273 H   0  0  0  0  0  0  0  0  0  0  0  0
  -16.4970  -20.7138   24.3362 H   0  0  0  0  0  0  0  0  0  0  0  0
  -17.7791  -18.8436   24.5139 H   0  0  0  0  0  0  0  0  0  0  0  0
  -18.7007  -18.7296   25.9941 H   0  0  0  0  0  0  0  0  0  0  0  0
  -19.5017  -19.1359   24.4953 H   0  0  0  0  0  0  0  0  0  0  0  0
  -15.0960  -22.4853   24.0677 H   0  0  0  0  0  0  0  0  0  0  0  0
  -15.8969  -24.0286   23.8955 H   0  0  0  0  0  0  0  0  0  0  0  0
  -15.0958  -23.6225   25.3942 H   0  0  0  0  0  0  0  0  0  0  0  0
  -20.8633  -23.0340   27.2979 H   0  0  0  0  0  0  0  0  0  0  0  0
  -19.5698  -24.0432   27.8992 H   0  0  0  0  0  0  0  0  0  0  0  0
  -20.3704  -24.4498   26.4003 H   0  0  0  0  0  0  0  0  0  0  0  0
  -20.4315  -19.7726   26.5292 H   0  0  0  0  0  0  0  0  0  0  0  0
  -20.7251  -21.2185   27.5230 H   0  0  0  0  0  0  0  0  0  0  0  0
  -17.8250  -25.0794   27.0615 H   0  0  0  0  0  0  0  0  0  0  0  0
  -16.5576  -25.0378   25.8307 H   0  0  0  0  0  0  0  0  0  0  0  0
  -22.6518  -20.7524   26.1781 H   0  0  0  0  0  0  0  0  0  0  0  0
  -21.8521  -22.2500   25.6573 H   0  0  0  0  0  0  0  0  0  0  0  0
  -20.7437  -20.7921   23.8539 H   0  0  0  0  0  0  0  0  0  0  0  0
  -21.9136  -19.6231   24.1538 H   0  0  0  0  0  0  0  0  0  0  0  0
  -18.2514  -26.6536   24.9300 H   0  0  0  0  0  0  0  0  0  0  0  0
  1 25  1  0
  1 30  2  0
  1 84  1  0
  2  3  1  0
  2 25  1  0
  2 85  1  0
  2 86  1  0
  3  4  1  0
  3 87  1  0
  3 88  1  0
  4  5  1  0
  4 89  1  0
  4 90  1  0
  5  6  1  0
  5 26  1  0
  5 91  1  6
  6 25  1  0
  6 92  1  0
  6 93  1  0
  7  8  2  0
  7 26  1  0
  7 29  1  0
  8  9  1  0
  8 22  1  0
  9 10  1  0
  9 27  2  0
 10 11  2  0
 10 15  1  0
 11 12  1  0
 11 94  1  0
 12 13  2  0
 12 95  1  0
 13 14  1  0
 13 31  1  0
 14 15  2  0
 14 96  1  0
 15 97  1  0
 16 17  2  0
 16 21  1  0
 16 31  1  0
 17 18  1  0
 17 98  1  0
 18 19  2  0
 18 99  1  0
 19 20  1  0
 19 24  1  0
 20 21  2  0
 20100  1  0
 21 23  1  0
 22 28  1  0
 22 32  2  0
 26 27  1  0
 28101  1  0
 28102  1  0
 29103  1  0
 29104  1  0
 33 34  1  0
 33 66  1  0
 33 70  2  0
 34 36  1  0
 34 59  1  0
 34105  1  6
 35 44  2  0
 35 45  1  0
 35 68  1  0
 36 56  1  0
 36106  1  0
 37 39  1  0
 37 47  1  0
 37 66  1  0
 37107  1  6
 38 43  2  0
 38 46  1  0
 38 47  1  0
 39 64  1  0
 39 67  2  0
 40 52  1  0
 40 53  2  0
 40 58  1  0
 41108  1  0
 41109  1  0
 41110  1  0
 42 43  1  0
 42 66  1  0
 42111  1  0
 42112  1  0
 43 44  1  0
 44113  1  0
 45 46  2  0
 45114  1  0
 46115  1  0
 47116  1  0
 47117  1  0
 48 41  1  0
 48 56  1  0
 48 65  1  0
 48118  1  1
 49 50  1  0
 49 53  1  0
 49 64  1  0
 49119  1  1
 50 51  1  0
 50120  1  0
 50121  1  0
 51 52  1  0
 51122  1  0
 51123  1  0
 52124  1  0
 52125  1  0
 53 54  1  0
 54 55  2  0
 54126  1  0
 55 57  1  0
 55127  1  0
 56 69  2  0
 57 58  2  0
 57128  1  0
 58129  1  0
 59 60  1  0
 59 61  1  0
 59 62  1  0
 60130  1  0
 60131  1  0
 60132  1  0
 61133  1  0
 61134  1  0
 61135  1  0
 62136  1  0
 62137  1  0
 62138  1  0
 63 65  1  0
 63139  1  0
 63140  1  0
 63141  1  0
 64142  1  0
 65143  1  0
 68 83  1  0
 71 72  2  0
 71 73  1  0
 71144  1  0
 72 75  1  0
 72 77  1  0
 73 76  2  0
 73 78  1  0
 74 75  2  0
 74 76  1  0
 74 79  1  0
 75 80  1  0
 76 81  1  0
 77145  1  0
 77146  1  0
 77147  1  0
 78148  1  0
 78149  1  0
 78150  1  0
 79151  1  0
 79152  1  0
 79153  1  0
 80 82  1  0
 80154  1  0
 80155  1  0
 81 84  1  0
 81156  1  0
 81157  1  0
 82 83  1  0
 82158  1  0
 82159  1  0
 83160  1  0
 83161  1  0
 84162  1  0
M  ISO  4   1 100  68 101  83 101  84 100
M  END
$$$$
14
     RDKit          3D

153161  0  0  0  0  0  0  0  0999 V2000
  -30.7652  -14.3608   20.6636 C   0  0  0  0  0  0  0  0  0100  0  0
  -30.4392  -12.2669   19.3775 C   0  0  0  0  0  0  0  0  0101  0  0
  -29.4791  -12.5281   18.1977 C   0  0  0  0  0  0  0  0  0102  0  0
  -27.9985  -12.3963   18.6038 C   0  0  0  0  0  0  0  0  0103  0  0
  -27.6639  -13.2170   19.8820 C   0  0  2  0  0  0  0  0  0104  0  0
  -28.6795  -12.9602   21.0279 C   0  0  0  0  0  0  0  0  0105  0  0
  -25.2633  -13.8245   20.5754 C   0  0  0  0  0  0  0  0  0106  0  0
  -24.1645  -13.0409   20.9408 C   0  0  0  0  0  0  0  0  0107  0  0
  -24.6400  -11.7009   20.8697 C   0  0  0  0  0  0  0  0  0108  0  0
  -23.9005  -10.4085   21.0420 C   0  0  0  0  0  0  0  0  0109  0  0
  -24.3588   -9.4123   21.9123 C   0  0  0  0  0  0  0  0  0110  0  0
  -23.6296   -8.2350   22.0803 C   0  0  0  0  0  0  0  0  0111  0  0
  -22.4385   -8.0419   21.3657 C   0  0  0  0  0  0  0  0  0112  0  0
  -22.0103   -9.0167   20.4678 C   0  0  0  0  0  0  0  0  0113  0  0
  -22.7317  -10.1925   20.3102 C   0  0  0  0  0  0  0  0  0114  0  0
  -21.6857   -6.0709   22.5391 C   0  0  0  0  0  0  0  0  0115  0  0
  -21.4064   -6.5490   23.8264 C   0  0  0  0  0  0  0  0  0116  0  0
  -21.3635   -5.6677   24.9085 C   0  0  0  0  0  0  0  0  0117  0  0
  -21.5973   -4.3067   24.7088 C   0  0  0  0  0  0  0  0  0118  0  0
  -21.8700   -3.8284   23.4282 C   0  0  0  0  0  0  0  0  0119  0  0
  -21.9144   -4.7056   22.3460 C   0  0  0  0  0  0  0  0  0120  0  0
  -22.8194  -13.5263   21.1763 C   0  0  0  0  0  0  0  0  0121  0  0
  -22.1559   -4.2206   21.1063 F   0  0  0  0  0  0  0  0  0122  0  0
  -21.5628   -3.4510   25.7555 F   0  0  0  0  0  0  0  0  0123  0  0
  -30.0261  -13.1803   20.4553 N   0  0  0  0  0  0  0  0  0124  0  0
  -26.2911  -12.9356   20.3443 N   0  0  0  0  0  0  0  0  0125  0  0
  -25.9236  -11.6675   20.5847 N   0  0  0  0  0  0  0  0  0126  0  0
  -22.0708  -12.7905   22.0005 N   0  0  0  0  0  0  0  0  0127  0  0
  -25.4117  -15.1773   20.4097 N   0  0  0  0  0  0  0  0  0128  0  0
  -31.7916  -14.6724   20.0536 O   0  0  0  0  0  0  0  0  0129  0  0
  -21.6670   -6.9022   21.4423 O   0  0  0  0  0  0  0  0  0130  0  0
  -22.3946  -14.5564   20.6568 O   0  0  0  0  0  0  0  0  0131  0  0
  -24.6048  -31.8614   23.2223 C   0  0  0  0  0  0  0  0  0100  0  0
  -25.8822  -32.4841   23.8616 C   0  0  1  0  0  0  0  0  0101  0  0
  -27.2536  -27.5042   20.1156 C   0  0  0  0  0  0  0  0  0102  0  0
  -25.5726  -33.8762   24.2210 N   0  0  0  0  0  0  0  0  0103  0  0
  -23.4066  -30.4859   21.5461 C   0  0  2  0  0  0  0  0  0104  0  0
  -24.8467  -28.9636   20.1247 C   0  0  0  0  0  0  0  0  0105  0  0
  -22.7412  -29.4652   22.5052 C   0  0  0  0  0  0  0  0  0106  0  0
  -18.0167  -28.1302   22.8626 C   0  0  0  0  0  0  0  0  0107  0  0
  -24.1342  -36.7390   23.2568 C   0  0  0  0  0  0  0  0  0108  0  0
  -25.9141  -30.8882   21.3456 C   0  0  0  0  0  0  0  0  0109  0  0
  -25.9930  -29.5029   20.7208 C   0  0  0  0  0  0  0  0  0110  0  0
  -27.1758  -28.7612   20.7331 C   0  0  0  0  0  0  0  0  0111  0  0
  -26.1032  -26.9836   19.5230 C   0  0  0  0  0  0  0  0  0112  0  0
  -24.9097  -27.7011   19.5331 C   0  0  0  0  0  0  0  0  0113  0  0
  -23.5715  -29.7899   20.1582 C   0  0  0  0  0  0  0  0  0114  0  0
  -25.3990  -36.3212   24.0232 C   0  0  1  0  0  0  0  0  0115  0  0
  -20.5793  -28.3813   23.1004 C   0  0  2  0  0  0  0  0  0116  0  0
  -20.6548  -26.9392   22.5411 C   0  0  0  0  0  0  0  0  0117  0  0
  -19.5615  -26.6407   21.5143 C   0  0  0  0  0  0  0  0  0118  0  0
  -18.1797  -26.7818   22.1673 C   0  0  0  0  0  0  0  0  0119  0  0
  -19.1385  -28.8769   23.2988 C   0  0  0  0  0  0  0  0  0120  0  0
  -18.9183  -30.1286   23.8878 C   0  0  0  0  0  0  0  0  0121  0  0
  -17.6396  -30.6493   24.0352 C   0  0  0  0  0  0  0  0  0122  0  0
  -25.9153  -34.9582   23.4993 C   0  0  0  0  0  0  0  0  0123  0  0
  -16.5415  -29.9068   23.6254 C   0  0  0  0  0  0  0  0  0124  0  0
  -16.7331  -28.6521   23.0586 C   0  0  0  0  0  0  0  0  0125  0  0
  -26.4583  -31.6439   25.0683 C   0  0  0  0  0  0  0  0  0126  0  0
  -25.3807  -31.3179   26.1374 C   0  0  0  0  0  0  0  0  0127  0  0
  -27.0530  -30.3024   24.5680 C   0  0  0  0  0  0  0  0  0128  0  0
  -27.6014  -32.4281   25.7651 C   0  0  0  0  0  0  0  0  0129  0  0
  -27.5629  -37.2220   24.8621 C   0  0  0  0  0  0  0  0  0130  0  0
  -21.4133  -29.3375   22.3735 N   0  0  0  0  0  0  0  0  0131  0  0
  -26.4706  -37.3372   23.9061 N   0  0  0  0  0  0  0  0  0132  0  0
  -24.6674  -31.0544   22.1178 N   0  0  0  0  0  0  0  0  0133  0  0
  -23.4259  -28.8150   23.2971 O   0  0  0  0  0  0  0  0  0134  0  0
  -28.3948  -26.7345   20.0089 O   0  0  0  0  0  0  0  0  0135  0  0
  -26.5870  -34.9065   22.4671 O   0  0  0  0  0  0  0  0  0136  0  0
  -23.5365  -32.1254   23.7833 O   0  0  0  0  0  0  0  0  0137  0  0
  -31.6764  -18.2487   20.0194 C   0  0  0  0  0  0  0  0  0  0  0  0
  -30.6256  -17.9309   20.8800 C   0  0  0  0  0  0  0  0  0  0  0  0
  -29.4187  -18.6248   20.7930 C   0  0  0  0  0  0  0  0  0  0  0  0
  -29.2625  -19.6364   19.8454 C   0  0  0  0  0  0  0  0  0  0  0  0
  -30.3133  -19.9542   18.9848 C   0  0  0  0  0  0  0  0  0  0  0  0
  -31.5202  -19.2603   19.0718 C   0  0  0  0  0  0  0  0  0  0  0  0
  -28.2937  -18.2817   21.7177 C   0  0  0  0  0  0  0  0  0  0  0  0
  -30.1317  -21.0426   17.9723 C   0  0  0  0  0  0  0  0  0  0  0  0
  -30.8184  -16.8436   21.8858 C   0  0  0  0  0  0  0  0  0  0  0  0
  -27.9634  -20.3814   19.7529 C   0  0  0  0  0  0  0  0  0  1  0  0
  -30.1396  -15.6234   21.5102 N   0  0  0  0  0  0  0  0  0  0  0  0
  -32.8447  -19.6224   18.0249 Cl  0  0  0  0  0  0  0  0  0  0  0  0
  -31.4485  -12.4701   19.0860 H   0  0  0  0  0  0  0  0  0  0  0  0
  -30.3970  -11.2460   19.6950 H   0  0  0  0  0  0  0  0  0  0  0  0
  -29.6870  -11.8204   17.4226 H   0  0  0  0  0  0  0  0  0  0  0  0
  -29.6375  -13.5326   17.8649 H   0  0  0  0  0  0  0  0  0  0  0  0
  -27.7830  -11.3650   18.7904 H   0  0  0  0  0  0  0  0  0  0  0  0
  -27.4028  -12.7801   17.8021 H   0  0  0  0  0  0  0  0  0  0  0  0
  -27.7353  -14.2503   19.6136 H   0  0  0  0  0  0  0  0  0  0  0  0
  -28.5890  -11.9550   21.3832 H   0  0  0  0  0  0  0  0  0  0  0  0
  -28.5005  -13.6134   21.8562 H   0  0  0  0  0  0  0  0  0  0  0  0
  -25.2399   -9.5495   22.4318 H   0  0  0  0  0  0  0  0  0  0  0  0
  -23.9663   -7.5070   22.7297 H   0  0  0  0  0  0  0  0  0  0  0  0
  -21.1515   -8.8641   19.9162 H   0  0  0  0  0  0  0  0  0  0  0  0
  -22.4016  -10.9115   19.6476 H   0  0  0  0  0  0  0  0  0  0  0  0
  -21.2319   -7.5552   23.9750 H   0  0  0  0  0  0  0  0  0  0  0  0
  -21.1589   -6.0228   25.8556 H   0  0  0  0  0  0  0  0  0  0  0  0
  -22.0396   -2.8212   23.2809 H   0  0  0  0  0  0  0  0  0  0  0  0
  -22.4401  -11.9703   22.4008 H   0  0  0  0  0  0  0  0  0  0  0  0
  -21.1493  -13.0679   22.2082 H   0  0  0  0  0  0  0  0  0  0  0  0
  -24.6538  -15.7807   20.5848 H   0  0  0  0  0  0  0  0  0  0  0  0
  -26.2762  -15.5453   20.1156 H   0  0  0  0  0  0  0  0  0  0  0  0
  -26.6778  -32.4663   23.1464 H   0  0  0  0  0  0  0  0  0  0  0  0
  -25.0747  -34.0282   25.0566 H   0  0  0  0  0  0  0  0  0  0  0  0
  -22.7881  -31.3489   21.4131 H   0  0  0  0  0  0  0  0  0  0  0  0
  -23.3854  -35.9823   23.3648 H   0  0  0  0  0  0  0  0  0  0  0  0
  -24.3696  -36.8624   22.2204 H   0  0  0  0  0  0  0  0  0  0  0  0
  -23.7669  -37.6632   23.6516 H   0  0  0  0  0  0  0  0  0  0  0  0
  -25.9445  -31.6237   20.5691 H   0  0  0  0  0  0  0  0  0  0  0  0
  -26.7436  -31.0079   22.0108 H   0  0  0  0  0  0  0  0  0  0  0  0
  -28.0090  -29.1452   21.2057 H   0  0  0  0  0  0  0  0  0  0  0  0
  -26.1369  -26.0560   19.0719 H   0  0  0  0  0  0  0  0  0  0  0  0
  -24.0652  -27.2961   19.0997 H   0  0  0  0  0  0  0  0  0  0  0  0
  -23.6156  -30.5365   19.3930 H   0  0  0  0  0  0  0  0  0  0  0  0
  -22.7355  -29.1425   19.9945 H   0  0  0  0  0  0  0  0  0  0  0  0
  -25.1353  -36.2335   25.0565 H   0  0  0  0  0  0  0  0  0  0  0  0
  -21.0070  -28.3206   24.0793 H   0  0  0  0  0  0  0  0  0  0  0  0
  -20.5555  -26.2518   23.3550 H   0  0  0  0  0  0  0  0  0  0  0  0
  -21.5974  -26.8362   22.0454 H   0  0  0  0  0  0  0  0  0  0  0  0
  -19.6810  -25.6422   21.1488 H   0  0  0  0  0  0  0  0  0  0  0  0
  -19.6406  -27.3343   20.7034 H   0  0  0  0  0  0  0  0  0  0  0  0
  -17.4282  -26.6888   21.4113 H   0  0  0  0  0  0  0  0  0  0  0  0
  -18.0803  -26.0130   22.9049 H   0  0  0  0  0  0  0  0  0  0  0  0
  -19.7265  -30.6774   24.2204 H   0  0  0  0  0  0  0  0  0  0  0  0
  -17.5064  -31.5856   24.4483 H   0  0  0  0  0  0  0  0  0  0  0  0
  -15.5878  -30.2839   23.7407 H   0  0  0  0  0  0  0  0  0  0  0  0
  -15.9120  -28.0941   22.7766 H   0  0  0  0  0  0  0  0  0  0  0  0
  -24.5787  -30.7757   25.6817 H   0  0  0  0  0  0  0  0  0  0  0  0
  -25.0041  -32.2289   26.5536 H   0  0  0  0  0  0  0  0  0  0  0  0
  -25.8166  -30.7245   26.9138 H   0  0  0  0  0  0  0  0  0  0  0  0
  -26.2892  -29.7335   24.0803 H   0  0  0  0  0  0  0  0  0  0  0  0
  -27.4336  -29.7484   25.4006 H   0  0  0  0  0  0  0  0  0  0  0  0
  -27.8466  -30.4994   23.8779 H   0  0  0  0  0  0  0  0  0  0  0  0
  -27.2251  -33.3632   26.1242 H   0  0  0  0  0  0  0  0  0  0  0  0
  -28.3902  -32.6065   25.0645 H   0  0  0  0  0  0  0  0  0  0  0  0
  -27.9772  -31.8555   26.5872 H   0  0  0  0  0  0  0  0  0  0  0  0
  -28.2744  -38.0016   24.6863 H   0  0  0  0  0  0  0  0  0  0  0  0
  -28.0396  -36.2711   24.7461 H   0  0  0  0  0  0  0  0  0  0  0  0
  -27.1773  -37.3087   25.8564 H   0  0  0  0  0  0  0  0  0  0  0  0
  -20.9627  -29.9365   21.7352 H   0  0  0  0  0  0  0  0  0  0  0  0
  -26.0447  -38.2561   24.0273 H   0  0  0  0  0  0  0  0  0  0  0  0
  -32.5694  -17.7354   20.0838 H   0  0  0  0  0  0  0  0  0  0  0  0
  -28.5964  -17.4883   22.3686 H   0  0  0  0  0  0  0  0  0  0  0  0
  -27.4447  -17.9698   21.1461 H   0  0  0  0  0  0  0  0  0  0  0  0
  -28.0355  -19.1416   22.2997 H   0  0  0  0  0  0  0  0  0  0  0  0
  -29.1469  -21.4516   18.0610 H   0  0  0  0  0  0  0  0  0  0  0  0
  -30.2639  -20.6410   16.9894 H   0  0  0  0  0  0  0  0  0  0  0  0
  -30.8545  -21.8129   18.1431 H   0  0  0  0  0  0  0  0  0  0  0  0
  -30.4352  -17.1746   22.8284 H   0  0  0  0  0  0  0  0  0  0  0  0
  -31.8657  -16.6319   21.9430 H   0  0  0  0  0  0  0  0  0  0  0  0
  -27.3425  -20.0612   20.5634 H   0  0  0  0  0  0  0  0  0  0  0  0
  -27.5658  -20.1550   18.7857 H   0  0  0  0  0  0  0  0  0  0  0  0
  -29.2001  -15.5396   21.7923 H   0  0  0  0  0  0  0  0  0  0  0  0
  1 25  1  0
  1 30  2  0
  1 81  1  0
  2  3  1  0
  2 25  1  0
  2 83  1  0
  2 84  1  0
  3  4  1  0
  3 85  1  0
  3 86  1  0
  4  5  1  0
  4 87  1  0
  4 88  1  0
  5  6  1  0
  5 26  1  0
  5 89  1  6
  6 25  1  0
  6 90  1  0
  6 91  1  0
  7  8  2  0
  7 26  1  0
  7 29  1  0
  8  9  1  0
  8 22  1  0
  9 10  1  0
  9 27  2  0
 10 11  2  0
 10 15  1  0
 11 12  1  0
 11 92  1  0
 12 13  2  0
 12 93  1  0
 13 14  1  0
 13 31  1  0
 14 15  2  0
 14 94  1  0
 15 95  1  0
 16 17  2  0
 16 21  1  0
 16 31  1  0
 17 18  1  0
 17 96  1  0
 18 19  2  0
 18 97  1  0
 19 20  1  0
 19 24  1  0
 20 21  2  0
 20 98  1  0
 21 23  1  0
 22 28  1  0
 22 32  2  0
 26 27  1  0
 28 99  1  0
 28100  1  0
 29101  1  0
 29102  1  0
 33 34  1  0
 33 66  1  0
 33 70  2  0
 34 36  1  0
 34 59  1  0
 34103  1  6
 35 44  2  0
 35 45  1  0
 35 68  1  0
 36 56  1  0
 36104  1  0
 37 39  1  0
 37 47  1  0
 37 66  1  0
 37105  1  6
 38 43  2  0
 38 46  1  0
 38 47  1  0
 39 64  1  0
 39 67  2  0
 40 52  1  0
 40 53  2  0
 40 58  1  0
 41106  1  0
 41107  1  0
 41108  1  0
 42 43  1  0
 42 66  1  0
 42109  1  0
 42110  1  0
 43 44  1  0
 44111  1  0
 45 46  2  0
 45112  1  0
 46113  1  0
 47114  1  0
 47115  1  0
 48 41  1  0
 48 56  1  0
 48 65  1  0
 48116  1  1
 49 50  1  0
 49 53  1  0
 49 64  1  0
 49117  1  1
 50 51  1  0
 50118  1  0
 50119  1  0
 51 52  1  0
 51120  1  0
 51121  1  0
 52122  1  0
 52123  1  0
 53 54  1  0
 54 55  2  0
 54124  1  0
 55 57  1  0
 55125  1  0
 56 69  2  0
 57 58  2  0
 57126  1  0
 58127  1  0
 59 60  1  0
 59 61  1  0
 59 62  1  0
 60128  1  0
 60129  1  0
 60130  1  0
 61131  1  0
 61132  1  0
 61133  1  0
 62134  1  0
 62135  1  0
 62136  1  0
 63 65  1  0
 63137  1  0
 63138  1  0
 63139  1  0
 64140  1  0
 65141  1  0
 68 80  1  0
 71 72  2  0
 71 76  1  0
 71142  1  0
 72 73  1  0
 72 79  1  0
 73 74  2  0
 73 77  1  0
 74 75  1  0
 74 80  1  0
 75 76  2  0
 75 78  1  0
 76 82  1  0
 77143  1  0
 77144  1  0
 77145  1  0
 78146  1  0
 78147  1  0
 78148  1  0
 79 81  1  0
 79149  1  0
 79150  1  0
 80151  1  0
 80152  1  0
 81153  1  0
M  ISO  4   1 100  68 101  80 101  81 100
M  END
$$$$
15
     RDKit          3D

156164  0  0  0  0  0  0  0  0999 V2000
  -30.7652  -14.3608   20.6636 C   0  0  0  0  0  0  0  0  0100  0  0
  -30.4392  -12.2669   19.3775 C   0  0  0  0  0  0  0  0  0101  0  0
  -29.4791  -12.5281   18.1977 C   0  0  0  0  0  0  0  0  0102  0  0
  -27.9985  -12.3963   18.6038 C   0  0  0  0  0  0  0  0  0103  0  0
  -27.6639  -13.2170   19.8820 C   0  0  2  0  0  0  0  0  0104  0  0
  -28.6795  -12.9602   21.0279 C   0  0  0  0  0  0  0  0  0105  0  0
  -25.2633  -13.8245   20.5754 C   0  0  0  0  0  0  0  0  0106  0  0
  -24.1645  -13.0409   20.9408 C   0  0  0  0  0  0  0  0  0107  0  0
  -24.6400  -11.7009   20.8697 C   0  0  0  0  0  0  0  0  0108  0  0
  -23.9005  -10.4085   21.0420 C   0  0  0  0  0  0  0  0  0109  0  0
  -24.3588   -9.4123   21.9123 C   0  0  0  0  0  0  0  0  0110  0  0
  -23.6296   -8.2350   22.0803 C   0  0  0  0  0  0  0  0  0111  0  0
  -22.4385   -8.0419   21.3657 C   0  0  0  0  0  0  0  0  0112  0  0
  -22.0103   -9.0167   20.4678 C   0  0  0  0  0  0  0  0  0113  0  0
  -22.7317  -10.1925   20.3102 C   0  0  0  0  0  0  0  0  0114  0  0
  -21.6857   -6.0709   22.5391 C   0  0  0  0  0  0  0  0  0115  0  0
  -21.4064   -6.5490   23.8264 C   0  0  0  0  0  0  0  0  0116  0  0
  -21.3635   -5.6677   24.9085 C   0  0  0  0  0  0  0  0  0117  0  0
  -21.5973   -4.3067   24.7088 C   0  0  0  0  0  0  0  0  0118  0  0
  -21.8700   -3.8284   23.4282 C   0  0  0  0  0  0  0  0  0119  0  0
  -21.9144   -4.7056   22.3460 C   0  0  0  0  0  0  0  0  0120  0  0
  -22.8194  -13.5263   21.1763 C   0  0  0  0  0  0  0  0  0121  0  0
  -22.1559   -4.2206   21.1063 F   0  0  0  0  0  0  0  0  0122  0  0
  -21.5628   -3.4510   25.7555 F   0  0  0  0  0  0  0  0  0123  0  0
  -30.0261  -13.1803   20.4553 N   0  0  0  0  0  0  0  0  0124  0  0
  -26.2911  -12.9356   20.3443 N   0  0  0  0  0  0  0  0  0125  0  0
  -25.9236  -11.6675   20.5847 N   0  0  0  0  0  0  0  0  0126  0  0
  -22.0708  -12.7905   22.0005 N   0  0  0  0  0  0  0  0  0127  0  0
  -25.4117  -15.1773   20.4097 N   0  0  0  0  0  0  0  0  0128  0  0
  -31.7916  -14.6724   20.0536 O   0  0  0  0  0  0  0  0  0129  0  0
  -21.6670   -6.9022   21.4423 O   0  0  0  0  0  0  0  0  0130  0  0
  -22.3946  -14.5564   20.6568 O   0  0  0  0  0  0  0  0  0131  0  0
  -24.6048  -31.8614   23.2223 C   0  0  0  0  0  0  0  0  0100  0  0
  -25.8822  -32.4841   23.8616 C   0  0  1  0  0  0  0  0  0101  0  0
  -27.2536  -27.5042   20.1156 C   0  0  0  0  0  0  0  0  0102  0  0
  -25.5726  -33.8762   24.2210 N   0  0  0  0  0  0  0  0  0103  0  0
  -23.4066  -30.4859   21.5461 C   0  0  2  0  0  0  0  0  0104  0  0
  -24.8467  -28.9636   20.1247 C   0  0  0  0  0  0  0  0  0105  0  0
  -22.7412  -29.4652   22.5052 C   0  0  0  0  0  0  0  0  0106  0  0
  -18.0167  -28.1302   22.8626 C   0  0  0  0  0  0  0  0  0107  0  0
  -24.1342  -36.7390   23.2568 C   0  0  0  0  0  0  0  0  0108  0  0
  -25.9141  -30.8882   21.3456 C   0  0  0  0  0  0  0  0  0109  0  0
  -25.9930  -29.5029   20.7208 C   0  0  0  0  0  0  0  0  0110  0  0
  -27.1758  -28.7612   20.7331 C   0  0  0  0  0  0  0  0  0111  0  0
  -26.1032  -26.9836   19.5230 C   0  0  0  0  0  0  0  0  0112  0  0
  -24.9097  -27.7011   19.5331 C   0  0  0  0  0  0  0  0  0113  0  0
  -23.5715  -29.7899   20.1582 C   0  0  0  0  0  0  0  0  0114  0  0
  -25.3990  -36.3212   24.0232 C   0  0  1  0  0  0  0  0  0115  0  0
  -20.5793  -28.3813   23.1004 C   0  0  2  0  0  0  0  0  0116  0  0
  -20.6548  -26.9392   22.5411 C   0  0  0  0  0  0  0  0  0117  0  0
  -19.5615  -26.6407   21.5143 C   0  0  0  0  0  0  0  0  0118  0  0
  -18.1797  -26.7818   22.1673 C   0  0  0  0  0  0  0  0  0119  0  0
  -19.1385  -28.8769   23.2988 C   0  0  0  0  0  0  0  0  0120  0  0
  -18.9183  -30.1286   23.8878 C   0  0  0  0  0  0  0  0  0121  0  0
  -17.6396  -30.6493   24.0352 C   0  0  0  0  0  0  0  0  0122  0  0
  -25.9153  -34.9582   23.4993 C   0  0  0  0  0  0  0  0  0123  0  0
  -16.5415  -29.9068   23.6254 C   0  0  0  0  0  0  0  0  0124  0  0
  -16.7331  -28.6521   23.0586 C   0  0  0  0  0  0  0  0  0125  0  0
  -26.4583  -31.6439   25.0683 C   0  0  0  0  0  0  0  0  0126  0  0
  -25.3807  -31.3179   26.1374 C   0  0  0  0  0  0  0  0  0127  0  0
  -27.0530  -30.3024   24.5680 C   0  0  0  0  0  0  0  0  0128  0  0
  -27.6014  -32.4281   25.7651 C   0  0  0  0  0  0  0  0  0129  0  0
  -27.5629  -37.2220   24.8621 C   0  0  0  0  0  0  0  0  0130  0  0
  -21.4133  -29.3375   22.3735 N   0  0  0  0  0  0  0  0  0131  0  0
  -26.4706  -37.3372   23.9061 N   0  0  0  0  0  0  0  0  0132  0  0
  -24.6674  -31.0544   22.1178 N   0  0  0  0  0  0  0  0  0133  0  0
  -23.4259  -28.8150   23.2971 O   0  0  0  0  0  0  0  0  0134  0  0
  -28.3948  -26.7345   20.0089 O   0  0  0  0  0  0  0  0  0135  0  0
  -26.5870  -34.9065   22.4671 O   0  0  0  0  0  0  0  0  0136  0  0
  -23.5365  -32.1254   23.7833 O   0  0  0  0  0  0  0  0  0137  0  0
  -25.8518  -24.4661   20.6144 C   0  0  0  0  0  0  0  0  0  0  0  0
  -27.0569  -23.6509   20.1571 C   0  0  0  0  0  0  0  0  0  0  0  0
  -24.2534  -22.8311   19.3768 C   0  0  0  0  0  0  0  0  0  0  0  0
  -26.0306  -21.2709   20.3126 C   0  0  0  0  0  0  0  0  0  0  0  0
  -24.5749  -21.7615   20.4356 C   0  0  2  0  0  0  0  0  0  0  0  0
  -24.5823  -24.2643   19.7924 C   0  0  2  0  0  0  0  0  0  1  0  0
  -27.1172  -22.2486   20.7768 C   0  0  1  0  0  0  0  0  0  0  0  0
  -23.6342  -20.5631   20.2439 C   0  0  0  0  0  0  0  0  0  0  0  0
  -28.4954  -21.6312   20.5220 C   0  0  0  0  0  0  0  0  0  0  0  0
  -28.5844  -20.3046   21.0903 N   0  0  0  0  0  0  0  0  0  0  0  0
  -26.9992  -22.3833   22.1341 F   0  0  0  0  0  0  0  0  0  0  0  0
  -31.4485  -12.4701   19.0860 H   0  0  0  0  0  0  0  0  0  0  0  0
  -30.3970  -11.2460   19.6950 H   0  0  0  0  0  0  0  0  0  0  0  0
  -29.6870  -11.8204   17.4226 H   0  0  0  0  0  0  0  0  0  0  0  0
  -29.6375  -13.5326   17.8649 H   0  0  0  0  0  0  0  0  0  0  0  0
  -27.7830  -11.3650   18.7904 H   0  0  0  0  0  0  0  0  0  0  0  0
  -27.4028  -12.7801   17.8021 H   0  0  0  0  0  0  0  0  0  0  0  0
  -27.7353  -14.2503   19.6136 H   0  0  0  0  0  0  0  0  0  0  0  0
  -28.5890  -11.9550   21.3832 H   0  0  0  0  0  0  0  0  0  0  0  0
  -28.5005  -13.6134   21.8562 H   0  0  0  0  0  0  0  0  0  0  0  0
  -25.2399   -9.5495   22.4318 H   0  0  0  0  0  0  0  0  0  0  0  0
  -23.9663   -7.5070   22.7297 H   0  0  0  0  0  0  0  0  0  0  0  0
  -21.1515   -8.8641   19.9162 H   0  0  0  0  0  0  0  0  0  0  0  0
  -22.4016  -10.9115   19.6476 H   0  0  0  0  0  0  0  0  0  0  0  0
  -21.2319   -7.5552   23.9750 H   0  0  0  0  0  0  0  0  0  0  0  0
  -21.1589   -6.0228   25.8556 H   0  0  0  0  0  0  0  0  0  0  0  0
  -22.0396   -2.8212   23.2809 H   0  0  0  0  0  0  0  0  0  0  0  0
  -22.4401  -11.9703   22.4008 H   0  0  0  0  0  0  0  0  0  0  0  0
  -21.1493  -13.0679   22.2082 H   0  0  0  0  0  0  0  0  0  0  0  0
  -24.6538  -15.7807   20.5848 H   0  0  0  0  0  0  0  0  0  0  0  0
  -26.2762  -15.5453   20.1156 H   0  0  0  0  0  0  0  0  0  0  0  0
  -26.6778  -32.4663   23.1464 H   0  0  0  0  0  0  0  0  0  0  0  0
  -25.0747  -34.0282   25.0566 H   0  0  0  0  0  0  0  0  0  0  0  0
  -22.7881  -31.3489   21.4131 H   0  0  0  0  0  0  0  0  0  0  0  0
  -23.3854  -35.9823   23.3648 H   0  0  0  0  0  0  0  0  0  0  0  0
  -24.3696  -36.8624   22.2204 H   0  0  0  0  0  0  0  0  0  0  0  0
  -23.7669  -37.6632   23.6516 H   0  0  0  0  0  0  0  0  0  0  0  0
  -25.9445  -31.6237   20.5691 H   0  0  0  0  0  0  0  0  0  0  0  0
  -26.7436  -31.0079   22.0108 H   0  0  0  0  0  0  0  0  0  0  0  0
  -28.0090  -29.1452   21.2057 H   0  0  0  0  0  0  0  0  0  0  0  0
  -26.1369  -26.0560   19.0719 H   0  0  0  0  0  0  0  0  0  0  0  0
  -24.0652  -27.2961   19.0997 H   0  0  0  0  0  0  0  0  0  0  0  0
  -23.6156  -30.5365   19.3930 H   0  0  0  0  0  0  0  0  0  0  0  0
  -22.7355  -29.1425   19.9945 H   0  0  0  0  0  0  0  0  0  0  0  0
  -25.1353  -36.2335   25.0565 H   0  0  0  0  0  0  0  0  0  0  0  0
  -21.0070  -28.3206   24.0793 H   0  0  0  0  0  0  0  0  0  0  0  0
  -20.5555  -26.2518   23.3550 H   0  0  0  0  0  0  0  0  0  0  0  0
  -21.5974  -26.8362   22.0454 H   0  0  0  0  0  0  0  0  0  0  0  0
  -19.6810  -25.6422   21.1488 H   0  0  0  0  0  0  0  0  0  0  0  0
  -19.6406  -27.3343   20.7034 H   0  0  0  0  0  0  0  0  0  0  0  0
  -17.4282  -26.6888   21.4113 H   0  0  0  0  0  0  0  0  0  0  0  0
  -18.0803  -26.0130   22.9049 H   0  0  0  0  0  0  0  0  0  0  0  0
  -19.7265  -30.6774   24.2204 H   0  0  0  0  0  0  0  0  0  0  0  0
  -17.5064  -31.5856   24.4483 H   0  0  0  0  0  0  0  0  0  0  0  0
  -15.5878  -30.2839   23.7407 H   0  0  0  0  0  0  0  0  0  0  0  0
  -15.9120  -28.0941   22.7766 H   0  0  0  0  0  0  0  0  0  0  0  0
  -24.5787  -30.7757   25.6817 H   0  0  0  0  0  0  0  0  0  0  0  0
  -25.0041  -32.2289   26.5536 H   0  0  0  0  0  0  0  0  0  0  0  0
  -25.8166  -30.7245   26.9138 H   0  0  0  0  0  0  0  0  0  0  0  0
  -26.2892  -29.7335   24.0803 H   0  0  0  0  0  0  0  0  0  0  0  0
  -27.4336  -29.7484   25.4006 H   0  0  0  0  0  0  0  0  0  0  0  0
  -27.8466  -30.4994   23.8779 H   0  0  0  0  0  0  0  0  0  0  0  0
  -27.2251  -33.3632   26.1242 H   0  0  0  0  0  0  0  0  0  0  0  0
  -28.3902  -32.6065   25.0645 H   0  0  0  0  0  0  0  0  0  0  0  0
  -27.9772  -31.8555   26.5872 H   0  0  0  0  0  0  0  0  0  0  0  0
  -28.2744  -38.0016   24.6863 H   0  0  0  0  0  0  0  0  0  0  0  0
  -28.0396  -36.2711   24.7461 H   0  0  0  0  0  0  0  0  0  0  0  0
  -27.1773  -37.3087   25.8564 H   0  0  0  0  0  0  0  0  0  0  0  0
  -20.9627  -29.9365   21.7352 H   0  0  0  0  0  0  0  0  0  0  0  0
  -26.0447  -38.2561   24.0273 H   0  0  0  0  0  0  0  0  0  0  0  0
  -26.1156  -25.5020   20.5674 H   0  0  0  0  0  0  0  0  0  0  0  0
  -25.6224  -24.1284   21.6034 H   0  0  0  0  0  0  0  0  0  0  0  0
  -27.9465  -24.1798   20.4286 H   0  0  0  0  0  0  0  0  0  0  0  0
  -26.9679  -23.5239   19.0984 H   0  0  0  0  0  0  0  0  0  0  0  0
  -23.2071  -22.7796   19.1589 H   0  0  0  0  0  0  0  0  0  0  0  0
  -24.8723  -22.6134   18.5315 H   0  0  0  0  0  0  0  0  0  0  0  0
  -26.2130  -21.0454   19.2826 H   0  0  0  0  0  0  0  0  0  0  0  0
  -26.1048  -20.4286   20.9683 H   0  0  0  0  0  0  0  0  0  0  0  0
  -24.4415  -22.1991   21.4029 H   0  0  0  0  0  0  0  0  0  0  0  0
  -23.5523  -24.4501   19.5699 H   0  0  0  0  0  0  0  0  0  0  0  0
  -23.7854  -20.1429   19.2715 H   0  0  0  0  0  0  0  0  0  0  0  0
  -22.6190  -20.8879   20.3382 H   0  0  0  0  0  0  0  0  0  0  0  0
  -23.8426  -19.8234   20.9884 H   0  0  0  0  0  0  0  0  0  0  0  0
  -29.2444  -22.2528   20.9664 H   0  0  0  0  0  0  0  0  0  0  0  0
  -28.6454  -21.5590   19.4650 H   0  0  0  0  0  0  0  0  0  0  0  0
  -28.0702  -20.3396   21.9291 H   0  0  0  0  0  0  0  0  0  0  0  0
  1 25  1  0
  1 30  2  0
  1 80  1  0
  2  3  1  0
  2 25  1  0
  2 82  1  0
  2 83  1  0
  3  4  1  0
  3 84  1  0
  3 85  1  0
  4  5  1  0
  4 86  1  0
  4 87  1  0
  5  6  1  0
  5 26  1  0
  5 88  1  6
  6 25  1  0
  6 89  1  0
  6 90  1  0
  7  8  2  0
  7 26  1  0
  7 29  1  0
  8  9  1  0
  8 22  1  0
  9 10  1  0
  9 27  2  0
 10 11  2  0
 10 15  1  0
 11 12  1  0
 11 91  1  0
 12 13  2  0
 12 92  1  0
 13 14  1  0
 13 31  1  0
 14 15  2  0
 14 93  1  0
 15 94  1  0
 16 17  2  0
 16 21  1  0
 16 31  1  0
 17 18  1  0
 17 95  1  0
 18 19  2  0
 18 96  1  0
 19 20  1  0
 19 24  1  0
 20 21  2  0
 20 97  1  0
 21 23  1  0
 22 28  1  0
 22 32  2  0
 26 27  1  0
 28 98  1  0
 28 99  1  0
 29100  1  0
 29101  1  0
 33 34  1  0
 33 66  1  0
 33 70  2  0
 34 36  1  0
 34 59  1  0
 34102  1  6
 35 44  2  0
 35 45  1  0
 35 68  1  0
 36 56  1  0
 36103  1  0
 37 39  1  0
 37 47  1  0
 37 66  1  0
 37104  1  6
 38 43  2  0
 38 46  1  0
 38 47  1  0
 39 64  1  0
 39 67  2  0
 40 52  1  0
 40 53  2  0
 40 58  1  0
 41105  1  0
 41106  1  0
 41107  1  0
 42 43  1  0
 42 66  1  0
 42108  1  0
 42109  1  0
 43 44  1  0
 44110  1  0
 45 46  2  0
 45111  1  0
 46112  1  0
 47113  1  0
 47114  1  0
 48 41  1  0
 48 56  1  0
 48 65  1  0
 48115  1  1
 49 50  1  0
 49 53  1  0
 49 64  1  0
 49116  1  1
 50 51  1  0
 50117  1  0
 50118  1  0
 51 52  1  0
 51119  1  0
 51120  1  0
 52121  1  0
 52122  1  0
 53 54  1  0
 54 55  2  0
 54123  1  0
 55 57  1  0
 55124  1  0
 56 69  2  0
 57 58  2  0
 57125  1  0
 58126  1  0
 59 60  1  0
 59 61  1  0
 59 62  1  0
 60127  1  0
 60128  1  0
 60129  1  0
 61130  1  0
 61131  1  0
 61132  1  0
 62133  1  0
 62134  1  0
 62135  1  0
 63 65  1  0
 63136  1  0
 63137  1  0
 63138  1  0
 64139  1  0
 65140  1  0
 71 72  1  0
 71 76  1  0
 71141  1  0
 71142  1  0
 72 77  1  0
 72143  1  0
 72144  1  0
 73 75  1  0
 73 76  1  0
 73145  1  0
 73146  1  0
 74 75  1  0
 74 77  1  0
 74147  1  0
 74148  1  0
 75 78  1  0
 75149  1  1
 76 68  1  0
 76150  1  1
 77 79  1  0
 77 81  1  1
 78151  1  0
 78152  1  0
 78153  1  0
 79 80  1  0
 79154  1  0
 79155  1  0
 80156  1  0
M  ISO  4   1 100  68 101  76 101  80 100
M  END
$$$$
16
     RDKit          3D

159167  0  0  0  0  0  0  0  0999 V2000
  -30.7652  -14.3608   20.6636 C   0  0  0  0  0  0  0  0  0100  0  0
  -30.4392  -12.2669   19.3775 C   0  0  0  0  0  0  0  0  0101  0  0
  -29.4791  -12.5281   18.1977 C   0  0  0  0  0  0  0  0  0102  0  0
  -27.9985  -12.3963   18.6038 C   0  0  0  0  0  0  0  0  0103  0  0
  -27.6639  -13.2170   19.8820 C   0  0  2  0  0  0  0  0  0104  0  0
  -28.6795  -12.9602   21.0279 C   0  0  0  0  0  0  0  0  0105  0  0
  -25.2633  -13.8245   20.5754 C   0  0  0  0  0  0  0  0  0106  0  0
  -24.1645  -13.0409   20.9408 C   0  0  0  0  0  0  0  0  0107  0  0
  -24.6400  -11.7009   20.8697 C   0  0  0  0  0  0  0  0  0108  0  0
  -23.9005  -10.4085   21.0420 C   0  0  0  0  0  0  0  0  0109  0  0
  -24.3588   -9.4123   21.9123 C   0  0  0  0  0  0  0  0  0110  0  0
  -23.6296   -8.2350   22.0803 C   0  0  0  0  0  0  0  0  0111  0  0
  -22.4385   -8.0419   21.3657 C   0  0  0  0  0  0  0  0  0112  0  0
  -22.0103   -9.0167   20.4678 C   0  0  0  0  0  0  0  0  0113  0  0
  -22.7317  -10.1925   20.3102 C   0  0  0  0  0  0  0  0  0114  0  0
  -21.6857   -6.0709   22.5391 C   0  0  0  0  0  0  0  0  0115  0  0
  -21.4064   -6.5490   23.8264 C   0  0  0  0  0  0  0  0  0116  0  0
  -21.3635   -5.6677   24.9085 C   0  0  0  0  0  0  0  0  0117  0  0
  -21.5973   -4.3067   24.7088 C   0  0  0  0  0  0  0  0  0118  0  0
  -21.8700   -3.8284   23.4282 C   0  0  0  0  0  0  0  0  0119  0  0
  -21.9144   -4.7056   22.3460 C   0  0  0  0  0  0  0  0  0120  0  0
  -22.8194  -13.5263   21.1763 C   0  0  0  0  0  0  0  0  0121  0  0
  -22.1559   -4.2206   21.1063 F   0  0  0  0  0  0  0  0  0122  0  0
  -21.5628   -3.4510   25.7555 F   0  0  0  0  0  0  0  0  0123  0  0
  -30.0261  -13.1803   20.4553 N   0  0  0  0  0  0  0  0  0124  0  0
  -26.2911  -12.9356   20.3443 N   0  0  0  0  0  0  0  0  0125  0  0
  -25.9236  -11.6675   20.5847 N   0  0  0  0  0  0  0  0  0126  0  0
  -22.0708  -12.7905   22.0005 N   0  0  0  0  0  0  0  0  0127  0  0
  -25.4117  -15.1773   20.4097 N   0  0  0  0  0  0  0  0  0128  0  0
  -31.7916  -14.6724   20.0536 O   0  0  0  0  0  0  0  0  0129  0  0
  -21.6670   -6.9022   21.4423 O   0  0  0  0  0  0  0  0  0130  0  0
  -22.3946  -14.5564   20.6568 O   0  0  0  0  0  0  0  0  0131  0  0
  -24.6048  -31.8614   23.2223 C   0  0  0  0  0  0  0  0  0100  0  0
  -25.8822  -32.4841   23.8616 C   0  0  1  0  0  0  0  0  0101  0  0
  -27.2536  -27.5042   20.1156 C   0  0  0  0  0  0  0  0  0102  0  0
  -25.5726  -33.8762   24.2210 N   0  0  0  0  0  0  0  0  0103  0  0
  -23.4066  -30.4859   21.5461 C   0  0  2  0  0  0  0  0  0104  0  0
  -24.8467  -28.9636   20.1247 C   0  0  0  0  0  0  0  0  0105  0  0
  -22.7412  -29.4652   22.5052 C   0  0  0  0  0  0  0  0  0106  0  0
  -18.0167  -28.1302   22.8626 C   0  0  0  0  0  0  0  0  0107  0  0
  -24.1342  -36.7390   23.2568 C   0  0  0  0  0  0  0  0  0108  0  0
  -25.9141  -30.8882   21.3456 C   0  0  0  0  0  0  0  0  0109  0  0
  -25.9930  -29.5029   20.7208 C   0  0  0  0  0  0  0  0  0110  0  0
  -27.1758  -28.7612   20.7331 C   0  0  0  0  0  0  0  0  0111  0  0
  -26.1032  -26.9836   19.5230 C   0  0  0  0  0  0  0  0  0112  0  0
  -24.9097  -27.7011   19.5331 C   0  0  0  0  0  0  0  0  0113  0  0
  -23.5715  -29.7899   20.1582 C   0  0  0  0  0  0  0  0  0114  0  0
  -25.3990  -36.3212   24.0232 C   0  0  1  0  0  0  0  0  0115  0  0
  -20.5793  -28.3813   23.1004 C   0  0  2  0  0  0  0  0  0116  0  0
  -20.6548  -26.9392   22.5411 C   0  0  0  0  0  0  0  0  0117  0  0
  -19.5615  -26.6407   21.5143 C   0  0  0  0  0  0  0  0  0118  0  0
  -18.1797  -26.7818   22.1673 C   0  0  0  0  0  0  0  0  0119  0  0
  -19.1385  -28.8769   23.2988 C   0  0  0  0  0  0  0  0  0120  0  0
  -18.9183  -30.1286   23.8878 C   0  0  0  0  0  0  0  0  0121  0  0
  -17.6396  -30.6493   24.0352 C   0  0  0  0  0  0  0  0  0122  0  0
  -25.9153  -34.9582   23.4993 C   0  0  0  0  0  0  0  0  0123  0  0
  -16.5415  -29.9068   23.6254 C   0  0  0  0  0  0  0  0  0124  0  0
  -16.7331  -28.6521   23.0586 C   0  0  0  0  0  0  0  0  0125  0  0
  -26.4583  -31.6439   25.0683 C   0  0  0  0  0  0  0  0  0126  0  0
  -25.3807  -31.3179   26.1374 C   0  0  0  0  0  0  0  0  0127  0  0
  -27.0530  -30.3024   24.5680 C   0  0  0  0  0  0  0  0  0128  0  0
  -27.6014  -32.4281   25.7651 C   0  0  0  0  0  0  0  0  0129  0  0
  -27.5629  -37.2220   24.8621 C   0  0  0  0  0  0  0  0  0130  0  0
  -21.4133  -29.3375   22.3735 N   0  0  0  0  0  0  0  0  0131  0  0
  -26.4706  -37.3372   23.9061 N   0  0  0  0  0  0  0  0  0132  0  0
  -24.6674  -31.0544   22.1178 N   0  0  0  0  0  0  0  0  0133  0  0
  -23.4259  -28.8150   23.2971 O   0  0  0  0  0  0  0  0  0134  0  0
  -28.3948  -26.7345   20.0089 O   0  0  0  0  0  0  0  0  0135  0  0
  -26.5870  -34.9065   22.4671 O   0  0  0  0  0  0  0  0  0136  0  0
  -23.5365  -32.1254   23.7833 O   0  0  0  0  0  0  0  0  0137  0  0
  -31.3863  -26.2522   19.3243 C   0  0  0  0  0  0  0  0  0  0  0  0
  -32.4067  -25.3689   18.9717 C   0  0  0  0  0  0  0  0  0  0  0  0
  -30.3758  -25.8397   20.1928 C   0  0  0  0  0  0  0  0  0  0  0  0
  -32.4164  -24.0730   19.4876 C   0  0  0  0  0  0  0  0  0  0  0  0
  -30.3856  -24.5437   20.7087 C   0  0  0  0  0  0  0  0  0  0  0  0
  -31.4059  -23.6604   20.3561 C   0  0  0  0  0  0  0  0  0  0  0  0
  -29.2899  -24.1213   21.6378 C   0  0  0  0  0  0  0  0  0  0  0  0
  -33.5293  -23.1611   19.0806 C   0  0  0  0  0  0  0  0  0  0  0  0
  -29.2907  -26.8109   20.5543 C   0  0  0  0  0  0  0  0  0  1  0  0
  -33.0842  -22.1436   18.0205 C   0  0  0  0  0  0  0  0  0  0  0  0
  -32.6196  -22.8354   16.7354 C   0  0  0  0  0  0  0  0  0  0  0  0
  -32.1842  -21.8446   15.6607 C   0  0  0  0  0  0  0  0  0  0  0  0
  -31.0984  -20.9964   16.0993 N   0  0  0  0  0  0  0  0  0  0  0  0
  -31.4191  -22.0488   20.9914 Cl  0  0  0  0  0  0  0  0  0  0  0  0
  -31.4485  -12.4701   19.0860 H   0  0  0  0  0  0  0  0  0  0  0  0
  -30.3970  -11.2460   19.6950 H   0  0  0  0  0  0  0  0  0  0  0  0
  -29.6870  -11.8204   17.4226 H   0  0  0  0  0  0  0  0  0  0  0  0
  -29.6375  -13.5326   17.8649 H   0  0  0  0  0  0  0  0  0  0  0  0
  -27.7830  -11.3650   18.7904 H   0  0  0  0  0  0  0  0  0  0  0  0
  -27.4028  -12.7801   17.8021 H   0  0  0  0  0  0  0  0  0  0  0  0
  -27.7353  -14.2503   19.6136 H   0  0  0  0  0  0  0  0  0  0  0  0
  -28.5890  -11.9550   21.3832 H   0  0  0  0  0  0  0  0  0  0  0  0
  -28.5005  -13.6134   21.8562 H   0  0  0  0  0  0  0  0  0  0  0  0
  -25.2399   -9.5495   22.4318 H   0  0  0  0  0  0  0  0  0  0  0  0
  -23.9663   -7.5070   22.7297 H   0  0  0  0  0  0  0  0  0  0  0  0
  -21.1515   -8.8641   19.9162 H   0  0  0  0  0  0  0  0  0  0  0  0
  -22.4016  -10.9115   19.6476 H   0  0  0  0  0  0  0  0  0  0  0  0
  -21.2319   -7.5552   23.9750 H   0  0  0  0  0  0  0  0  0  0  0  0
  -21.1589   -6.0228   25.8556 H   0  0  0  0  0  0  0  0  0  0  0  0
  -22.0396   -2.8212   23.2809 H   0  0  0  0  0  0  0  0  0  0  0  0
  -22.4401  -11.9703   22.4008 H   0  0  0  0  0  0  0  0  0  0  0  0
  -21.1493  -13.0679   22.2082 H   0  0  0  0  0  0  0  0  0  0  0  0
  -24.6538  -15.7807   20.5848 H   0  0  0  0  0  0  0  0  0  0  0  0
  -26.2762  -15.5453   20.1156 H   0  0  0  0  0  0  0  0  0  0  0  0
  -26.6778  -32.4663   23.1464 H   0  0  0  0  0  0  0  0  0  0  0  0
  -25.0747  -34.0282   25.0566 H   0  0  0  0  0  0  0  0  0  0  0  0
  -22.7881  -31.3489   21.4131 H   0  0  0  0  0  0  0  0  0  0  0  0
  -23.3854  -35.9823   23.3648 H   0  0  0  0  0  0  0  0  0  0  0  0
  -24.3696  -36.8624   22.2204 H   0  0  0  0  0  0  0  0  0  0  0  0
  -23.7669  -37.6632   23.6516 H   0  0  0  0  0  0  0  0  0  0  0  0
  -25.9445  -31.6237   20.5691 H   0  0  0  0  0  0  0  0  0  0  0  0
  -26.7436  -31.0079   22.0108 H   0  0  0  0  0  0  0  0  0  0  0  0
  -28.0090  -29.1452   21.2057 H   0  0  0  0  0  0  0  0  0  0  0  0
  -26.1369  -26.0560   19.0719 H   0  0  0  0  0  0  0  0  0  0  0  0
  -24.0652  -27.2961   19.0997 H   0  0  0  0  0  0  0  0  0  0  0  0
  -23.6156  -30.5365   19.3930 H   0  0  0  0  0  0  0  0  0  0  0  0
  -22.7355  -29.1425   19.9945 H   0  0  0  0  0  0  0  0  0  0  0  0
  -25.1353  -36.2335   25.0565 H   0  0  0  0  0  0  0  0  0  0  0  0
  -21.0070  -28.3206   24.0793 H   0  0  0  0  0  0  0  0  0  0  0  0
  -20.5555  -26.2518   23.3550 H   0  0  0  0  0  0  0  0  0  0  0  0
  -21.5974  -26.8362   22.0454 H   0  0  0  0  0  0  0  0  0  0  0  0
  -19.6810  -25.6422   21.1488 H   0  0  0  0  0  0  0  0  0  0  0  0
  -19.6406  -27.3343   20.7034 H   0  0  0  0  0  0  0  0  0  0  0  0
  -17.4282  -26.6888   21.4113 H   0  0  0  0  0  0  0  0  0  0  0  0
  -18.0803  -26.0130   22.9049 H   0  0  0  0  0  0  0  0  0  0  0  0
  -19.7265  -30.6774   24.2204 H   0  0  0  0  0  0  0  0  0  0  0  0
  -17.5064  -31.5856   24.4483 H   0  0  0  0  0  0  0  0  0  0  0  0
  -15.5878  -30.2839   23.7407 H   0  0  0  0  0  0  0  0  0  0  0  0
  -15.9120  -28.0941   22.7766 H   0  0  0  0  0  0  0  0  0  0  0  0
  -24.5787  -30.7757   25.6817 H   0  0  0  0  0  0  0  0  0  0  0  0
  -25.0041  -32.2289   26.5536 H   0  0  0  0  0  0  0  0  0  0  0  0
  -25.8166  -30.7245   26.9138 H   0  0  0  0  0  0  0  0  0  0  0  0
  -26.2892  -29.7335   24.0803 H   0  0  0  0  0  0  0  0  0  0  0  0
  -27.4336  -29.7484   25.4006 H   0  0  0  0  0  0  0  0  0  0  0  0
  -27.8466  -30.4994   23.8779 H   0  0  0  0  0  0  0  0  0  0  0  0
  -27.2251  -33.3632   26.1242 H   0  0  0  0  0  0  0  0  0  0  0  0
  -28.3902  -32.6065   25.0645 H   0  0  0  0  0  0  0  0  0  0  0  0
  -27.9772  -31.8555   26.5872 H   0  0  0  0  0  0  0  0  0  0  0  0
  -28.2744  -38.0016   24.6863 H   0  0  0  0  0  0  0  0  0  0  0  0
  -28.0396  -36.2711   24.7461 H   0  0  0  0  0  0  0  0  0  0  0  0
  -27.1773  -37.3087   25.8564 H   0  0  0  0  0  0  0  0  0  0  0  0
  -20.9627  -29.9365   21.7352 H   0  0  0  0  0  0  0  0  0  0  0  0
  -26.0447  -38.2561   24.0273 H   0  0  0  0  0  0  0  0  0  0  0  0
  -31.3790  -27.2110   18.9426 H   0  0  0  0  0  0  0  0  0  0  0  0
  -33.1544  -25.6742   18.3292 H   0  0  0  0  0  0  0  0  0  0  0  0
  -28.6107  -24.9354   21.7817 H   0  0  0  0  0  0  0  0  0  0  0  0
  -29.7107  -23.8371   22.5796 H   0  0  0  0  0  0  0  0  0  0  0  0
  -28.7654  -23.2895   21.2159 H   0  0  0  0  0  0  0  0  0  0  0  0
  -33.8744  -22.6313   19.9438 H   0  0  0  0  0  0  0  0  0  0  0  0
  -34.3074  -23.7602   18.6559 H   0  0  0  0  0  0  0  0  0  0  0  0
  -29.6764  -27.7985   20.4104 H   0  0  0  0  0  0  0  0  0  0  0  0
  -29.0285  -26.5811   21.5659 H   0  0  0  0  0  0  0  0  0  0  0  0
  -32.2761  -21.5631   18.4140 H   0  0  0  0  0  0  0  0  0  0  0  0
  -33.9211  -21.5210   17.7818 H   0  0  0  0  0  0  0  0  0  0  0  0
  -33.4267  -23.4241   16.3521 H   0  0  0  0  0  0  0  0  0  0  0  0
  -31.7719  -23.4404   16.9811 H   0  0  0  0  0  0  0  0  0  0  0  0
  -33.0197  -21.2276   15.4036 H   0  0  0  0  0  0  0  0  0  0  0  0
  -31.8384  -22.4077   14.8191 H   0  0  0  0  0  0  0  0  0  0  0  0
  -30.2173  -21.2902   15.7728 H   0  0  0  0  0  0  0  0  0  0  0  0
  1 25  1  0
  1 30  2  0
  1 83  1  0
  2  3  1  0
  2 25  1  0
  2 85  1  0
  2 86  1  0
  3  4  1  0
  3 87  1  0
  3 88  1  0
  4  5  1  0
  4 89  1  0
  4 90  1  0
  5  6  1  0
  5 26  1  0
  5 91  1  6
  6 25  1  0
  6 92  1  0
  6 93  1  0
  7  8  2  0
  7 26  1  0
  7 29  1  0
  8  9  1  0
  8 22  1  0
  9 10  1  0
  9 27  2  0
 10 11  2  0
 10 15  1  0
 11 12  1  0
 11 94  1  0
 12 13  2  0
 12 95  1  0
 13 14  1  0
 13 31  1  0
 14 15  2  0
 14 96  1  0
 15 97  1  0
 16 17  2  0
 16 21  1  0
 16 31  1  0
 17 18  1  0
 17 98  1  0
 18 19  2  0
 18 99  1  0
 19 20  1  0
 19 24  1  0
 20 21  2  0
 20100  1  0
 21 23  1  0
 22 28  1  0
 22 32  2  0
 26 27  1  0
 28101  1  0
 28102  1  0
 29103  1  0
 29104  1  0
 33 34  1  0
 33 66  1  0
 33 70  2  0
 34 36  1  0
 34 59  1  0
 34105  1  6
 35 44  2  0
 35 45  1  0
 35 68  1  0
 36 56  1  0
 36106  1  0
 37 39  1  0
 37 47  1  0
 37 66  1  0
 37107  1  6
 38 43  2  0
 38 46  1  0
 38 47  1  0
 39 64  1  0
 39 67  2  0
 40 52  1  0
 40 53  2  0
 40 58  1  0
 41108  1  0
 41109  1  0
 41110  1  0
 42 43  1  0
 42 66  1  0
 42111  1  0
 42112  1  0
 43 44  1  0
 44113  1  0
 45 46  2  0
 45114  1  0
 46115  1  0
 47116  1  0
 47117  1  0
 48 41  1  0
 48 56  1  0
 48 65  1  0
 48118  1  1
 49 50  1  0
 49 53  1  0
 49 64  1  0
 49119  1  1
 50 51  1  0
 50120  1  0
 50121  1  0
 51 52  1  0
 51122  1  0
 51123  1  0
 52124  1  0
 52125  1  0
 53 54  1  0
 54 55  2  0
 54126  1  0
 55 57  1  0
 55127  1  0
 56 69  2  0
 57 58  2  0
 57128  1  0
 58129  1  0
 59 60  1  0
 59 61  1  0
 59 62  1  0
 60130  1  0
 60131  1  0
 60132  1  0
 61133  1  0
 61134  1  0
 61135  1  0
 62136  1  0
 62137  1  0
 62138  1  0
 63 65  1  0
 63139  1  0
 63140  1  0
 63141  1  0
 64142  1  0
 65143  1  0
 68 79  1  0
 71 72  2  0
 71 73  1  0
 71144  1  0
 72 74  1  0
 72145  1  0
 73 75  2  0
 73 79  1  0
 74 76  2  0
 74 78  1  0
 75 76  1  0
 75 77  1  0
 76 84  1  0
 77146  1  0
 77147  1  0
 77148  1  0
 78 80  1  0
 78149  1  0
 78150  1  0
 79151  1  0
 79152  1  0
 80 81  1  0
 80153  1  0
 80154  1  0
 81 82  1  0
 81155  1  0
 81156  1  0
 82 83  1  0
 82157  1  0
 82158  1  0
 83159  1  0
M  ISO  4   1 100  68 101  79 101  83 100
M  END
$$$$
17
     RDKit          3D

151159  0  0  0  0  0  0  0  0999 V2000
  -30.7652  -14.3608   20.6636 C   0  0  0  0  0  0  0  0  0100  0  0
  -30.4392  -12.2669   19.3775 C   0  0  0  0  0  0  0  0  0101  0  0
  -29.4791  -12.5281   18.1977 C   0  0  0  0  0  0  0  0  0102  0  0
  -27.9985  -12.3963   18.6038 C   0  0  0  0  0  0  0  0  0103  0  0
  -27.6639  -13.2170   19.8820 C   0  0  2  0  0  0  0  0  0104  0  0
  -28.6795  -12.9602   21.0279 C   0  0  0  0  0  0  0  0  0105  0  0
  -25.2633  -13.8245   20.5754 C   0  0  0  0  0  0  0  0  0106  0  0
  -24.1645  -13.0409   20.9408 C   0  0  0  0  0  0  0  0  0107  0  0
  -24.6400  -11.7009   20.8697 C   0  0  0  0  0  0  0  0  0108  0  0
  -23.9005  -10.4085   21.0420 C   0  0  0  0  0  0  0  0  0109  0  0
  -24.3588   -9.4123   21.9123 C   0  0  0  0  0  0  0  0  0110  0  0
  -23.6296   -8.2350   22.0803 C   0  0  0  0  0  0  0  0  0111  0  0
  -22.4385   -8.0419   21.3657 C   0  0  0  0  0  0  0  0  0112  0  0
  -22.0103   -9.0167   20.4678 C   0  0  0  0  0  0  0  0  0113  0  0
  -22.7317  -10.1925   20.3102 C   0  0  0  0  0  0  0  0  0114  0  0
  -21.6857   -6.0709   22.5391 C   0  0  0  0  0  0  0  0  0115  0  0
  -21.4064   -6.5490   23.8264 C   0  0  0  0  0  0  0  0  0116  0  0
  -21.3635   -5.6677   24.9085 C   0  0  0  0  0  0  0  0  0117  0  0
  -21.5973   -4.3067   24.7088 C   0  0  0  0  0  0  0  0  0118  0  0
  -21.8700   -3.8284   23.4282 C   0  0  0  0  0  0  0  0  0119  0  0
  -21.9144   -4.7056   22.3460 C   0  0  0  0  0  0  0  0  0120  0  0
  -22.8194  -13.5263   21.1763 C   0  0  0  0  0  0  0  0  0121  0  0
  -22.1559   -4.2206   21.1063 F   0  0  0  0  0  0  0  0  0122  0  0
  -21.5628   -3.4510   25.7555 F   0  0  0  0  0  0  0  0  0123  0  0
  -30.0261  -13.1803   20.4553 N   0  0  0  0  0  0  0  0  0124  0  0
  -26.2911  -12.9356   20.3443 N   0  0  0  0  0  0  0  0  0125  0  0
  -25.9236  -11.6675   20.5847 N   0  0  0  0  0  0  0  0  0126  0  0
  -22.0708  -12.7905   22.0005 N   0  0  0  0  0  0  0  0  0127  0  0
  -25.4117  -15.1773   20.4097 N   0  0  0  0  0  0  0  0  0128  0  0
  -31.7916  -14.6724   20.0536 O   0  0  0  0  0  0  0  0  0129  0  0
  -21.6670   -6.9022   21.4423 O   0  0  0  0  0  0  0  0  0130  0  0
  -22.3946  -14.5564   20.6568 O   0  0  0  0  0  0  0  0  0131  0  0
  -24.6048  -31.8614   23.2223 C   0  0  0  0  0  0  0  0  0100  0  0
  -25.8822  -32.4841   23.8616 C   0  0  1  0  0  0  0  0  0101  0  0
  -27.2536  -27.5042   20.1156 C   0  0  0  0  0  0  0  0  0102  0  0
  -25.5726  -33.8762   24.2210 N   0  0  0  0  0  0  0  0  0103  0  0
  -23.4066  -30.4859   21.5461 C   0  0  2  0  0  0  0  0  0104  0  0
  -24.8467  -28.9636   20.1247 C   0  0  0  0  0  0  0  0  0105  0  0
  -22.7412  -29.4652   22.5052 C   0  0  0  0  0  0  0  0  0106  0  0
  -18.0167  -28.1302   22.8626 C   0  0  0  0  0  0  0  0  0107  0  0
  -24.1342  -36.7390   23.2568 C   0  0  0  0  0  0  0  0  0108  0  0
  -25.9141  -30.8882   21.3456 C   0  0  0  0  0  0  0  0  0109  0  0
  -25.9930  -29.5029   20.7208 C   0  0  0  0  0  0  0  0  0110  0  0
  -27.1758  -28.7612   20.7331 C   0  0  0  0  0  0  0  0  0111  0  0
  -26.1032  -26.9836   19.5230 C   0  0  0  0  0  0  0  0  0112  0  0
  -24.9097  -27.7011   19.5331 C   0  0  0  0  0  0  0  0  0113  0  0
  -23.5715  -29.7899   20.1582 C   0  0  0  0  0  0  0  0  0114  0  0
  -25.3990  -36.3212   24.0232 C   0  0  1  0  0  0  0  0  0115  0  0
  -20.5793  -28.3813   23.1004 C   0  0  2  0  0  0  0  0  0116  0  0
  -20.6548  -26.9392   22.5411 C   0  0  0  0  0  0  0  0  0117  0  0
  -19.5615  -26.6407   21.5143 C   0  0  0  0  0  0  0  0  0118  0  0
  -18.1797  -26.7818   22.1673 C   0  0  0  0  0  0  0  0  0119  0  0
  -19.1385  -28.8769   23.2988 C   0  0  0  0  0  0  0  0  0120  0  0
  -18.9183  -30.1286   23.8878 C   0  0  0  0  0  0  0  0  0121  0  0
  -17.6396  -30.6493   24.0352 C   0  0  0  0  0  0  0  0  0122  0  0
  -25.9153  -34.9582   23.4993 C   0  0  0  0  0  0  0  0  0123  0  0
  -16.5415  -29.9068   23.6254 C   0  0  0  0  0  0  0  0  0124  0  0
  -16.7331  -28.6521   23.0586 C   0  0  0  0  0  0  0  0  0125  0  0
  -26.4583  -31.6439   25.0683 C   0  0  0  0  0  0  0  0  0126  0  0
  -25.3807  -31.3179   26.1374 C   0  0  0  0  0  0  0  0  0127  0  0
  -27.0530  -30.3024   24.5680 C   0  0  0  0  0  0  0  0  0128  0  0
  -27.6014  -32.4281   25.7651 C   0  0  0  0  0  0  0  0  0129  0  0
  -27.5629  -37.2220   24.8621 C   0  0  0  0  0  0  0  0  0130  0  0
  -21.4133  -29.3375   22.3735 N   0  0  0  0  0  0  0  0  0131  0  0
  -26.4706  -37.3372   23.9061 N   0  0  0  0  0  0  0  0  0132  0  0
  -24.6674  -31.0544   22.1178 N   0  0  0  0  0  0  0  0  0133  0  0
  -23.4259  -28.8150   23.2971 O   0  0  0  0  0  0  0  0  0134  0  0
  -28.3948  -26.7345   20.0089 O   0  0  0  0  0  0  0  0  0135  0  0
  -26.5870  -34.9065   22.4671 O   0  0  0  0  0  0  0  0  0136  0  0
  -23.5365  -32.1254   23.7833 O   0  0  0  0  0  0  0  0  0137  0  0
  -29.9156  -23.8372   21.5113 C   0  0  0  0  0  0  0  0  0  0  0  0
  -29.1747  -22.8766   20.7797 C   0  0  0  0  0  0  0  0  0  0  0  0
  -30.0375  -24.9553   20.7162 C   0  0  0  0  0  0  0  0  0  0  0  0
  -28.8665  -23.4369   19.5597 C   0  0  0  0  0  0  0  0  0  0  0  0
  -28.1134  -22.8798   18.4149 C   0  0  0  0  0  0  0  0  0  0  0  0
  -29.2944  -25.6252   18.4225 C   0  0  0  0  0  0  0  0  0  0  0  0
  -30.7256  -26.2697   20.9943 C   0  0  0  0  0  0  0  0  0  0  0  0
  -29.7918  -27.2879   21.6395 C   0  0  0  0  0  0  0  0  0  1  0  0
  -29.3962  -24.7005   19.5321 N   0  0  0  0  0  0  0  0  0  0  0  0
  -28.8079  -21.5762   21.2065 N   0  0  0  0  0  0  0  0  0  0  0  0
  -31.4485  -12.4701   19.0860 H   0  0  0  0  0  0  0  0  0  0  0  0
  -30.3970  -11.2460   19.6950 H   0  0  0  0  0  0  0  0  0  0  0  0
  -29.6870  -11.8204   17.4226 H   0  0  0  0  0  0  0  0  0  0  0  0
  -29.6375  -13.5326   17.8649 H   0  0  0  0  0  0  0  0  0  0  0  0
  -27.7830  -11.3650   18.7904 H   0  0  0  0  0  0  0  0  0  0  0  0
  -27.4028  -12.7801   17.8021 H   0  0  0  0  0  0  0  0  0  0  0  0
  -27.7353  -14.2503   19.6136 H   0  0  0  0  0  0  0  0  0  0  0  0
  -28.5890  -11.9550   21.3832 H   0  0  0  0  0  0  0  0  0  0  0  0
  -28.5005  -13.6134   21.8562 H   0  0  0  0  0  0  0  0  0  0  0  0
  -25.2399   -9.5495   22.4318 H   0  0  0  0  0  0  0  0  0  0  0  0
  -23.9663   -7.5070   22.7297 H   0  0  0  0  0  0  0  0  0  0  0  0
  -21.1515   -8.8641   19.9162 H   0  0  0  0  0  0  0  0  0  0  0  0
  -22.4016  -10.9115   19.6476 H   0  0  0  0  0  0  0  0  0  0  0  0
  -21.2319   -7.5552   23.9750 H   0  0  0  0  0  0  0  0  0  0  0  0
  -21.1589   -6.0228   25.8556 H   0  0  0  0  0  0  0  0  0  0  0  0
  -22.0396   -2.8212   23.2809 H   0  0  0  0  0  0  0  0  0  0  0  0
  -22.4401  -11.9703   22.4008 H   0  0  0  0  0  0  0  0  0  0  0  0
  -21.1493  -13.0679   22.2082 H   0  0  0  0  0  0  0  0  0  0  0  0
  -24.6538  -15.7807   20.5848 H   0  0  0  0  0  0  0  0  0  0  0  0
  -26.2762  -15.5453   20.1156 H   0  0  0  0  0  0  0  0  0  0  0  0
  -26.6778  -32.4663   23.1464 H   0  0  0  0  0  0  0  0  0  0  0  0
  -25.0747  -34.0282   25.0566 H   0  0  0  0  0  0  0  0  0  0  0  0
  -22.7881  -31.3489   21.4131 H   0  0  0  0  0  0  0  0  0  0  0  0
  -23.3854  -35.9823   23.3648 H   0  0  0  0  0  0  0  0  0  0  0  0
  -24.3696  -36.8624   22.2204 H   0  0  0  0  0  0  0  0  0  0  0  0
  -23.7669  -37.6632   23.6516 H   0  0  0  0  0  0  0  0  0  0  0  0
  -25.9445  -31.6237   20.5691 H   0  0  0  0  0  0  0  0  0  0  0  0
  -26.7436  -31.0079   22.0108 H   0  0  0  0  0  0  0  0  0  0  0  0
  -28.0090  -29.1452   21.2057 H   0  0  0  0  0  0  0  0  0  0  0  0
  -26.1369  -26.0560   19.0719 H   0  0  0  0  0  0  0  0  0  0  0  0
  -24.0652  -27.2961   19.0997 H   0  0  0  0  0  0  0  0  0  0  0  0
  -23.6156  -30.5365   19.3930 H   0  0  0  0  0  0  0  0  0  0  0  0
  -22.7355  -29.1425   19.9945 H   0  0  0  0  0  0  0  0  0  0  0  0
  -25.1353  -36.2335   25.0565 H   0  0  0  0  0  0  0  0  0  0  0  0
  -21.0070  -28.3206   24.0793 H   0  0  0  0  0  0  0  0  0  0  0  0
  -20.5555  -26.2518   23.3550 H   0  0  0  0  0  0  0  0  0  0  0  0
  -21.5974  -26.8362   22.0454 H   0  0  0  0  0  0  0  0  0  0  0  0
  -19.6810  -25.6422   21.1488 H   0  0  0  0  0  0  0  0  0  0  0  0
  -19.6406  -27.3343   20.7034 H   0  0  0  0  0  0  0  0  0  0  0  0
  -17.4282  -26.6888   21.4113 H   0  0  0  0  0  0  0  0  0  0  0  0
  -18.0803  -26.0130   22.9049 H   0  0  0  0  0  0  0  0  0  0  0  0
  -19.7265  -30.6774   24.2204 H   0  0  0  0  0  0  0  0  0  0  0  0
  -17.5064  -31.5856   24.4483 H   0  0  0  0  0  0  0  0  0  0  0  0
  -15.5878  -30.2839   23.7407 H   0  0  0  0  0  0  0  0  0  0  0  0
  -15.9120  -28.0941   22.7766 H   0  0  0  0  0  0  0  0  0  0  0  0
  -24.5787  -30.7757   25.6817 H   0  0  0  0  0  0  0  0  0  0  0  0
  -25.0041  -32.2289   26.5536 H   0  0  0  0  0  0  0  0  0  0  0  0
  -25.8166  -30.7245   26.9138 H   0  0  0  0  0  0  0  0  0  0  0  0
  -26.2892  -29.7335   24.0803 H   0  0  0  0  0  0  0  0  0  0  0  0
  -27.4336  -29.7484   25.4006 H   0  0  0  0  0  0  0  0  0  0  0  0
  -27.8466  -30.4994   23.8779 H   0  0  0  0  0  0  0  0  0  0  0  0
  -27.2251  -33.3632   26.1242 H   0  0  0  0  0  0  0  0  0  0  0  0
  -28.3902  -32.6065   25.0645 H   0  0  0  0  0  0  0  0  0  0  0  0
  -27.9772  -31.8555   26.5872 H   0  0  0  0  0  0  0  0  0  0  0  0
  -28.2744  -38.0016   24.6863 H   0  0  0  0  0  0  0  0  0  0  0  0
  -28.0396  -36.2711   24.7461 H   0  0  0  0  0  0  0  0  0  0  0  0
  -27.1773  -37.3087   25.8564 H   0  0  0  0  0  0  0  0  0  0  0  0
  -20.9627  -29.9365   21.7352 H   0  0  0  0  0  0  0  0  0  0  0  0
  -26.0447  -38.2561   24.0273 H   0  0  0  0  0  0  0  0  0  0  0  0
  -30.2942  -23.7207   22.4643 H   0  0  0  0  0  0  0  0  0  0  0  0
  -27.7922  -21.8863   18.6488 H   0  0  0  0  0  0  0  0  0  0  0  0
  -28.7438  -22.8567   17.5506 H   0  0  0  0  0  0  0  0  0  0  0  0
  -27.2594  -23.4935   18.2172 H   0  0  0  0  0  0  0  0  0  0  0  0
  -29.7969  -26.5367   18.6706 H   0  0  0  0  0  0  0  0  0  0  0  0
  -28.2634  -25.8295   18.2219 H   0  0  0  0  0  0  0  0  0  0  0  0
  -29.7477  -25.1927   17.5551 H   0  0  0  0  0  0  0  0  0  0  0  0
  -31.0865  -26.6711   20.0705 H   0  0  0  0  0  0  0  0  0  0  0  0
  -31.5264  -26.0811   21.6785 H   0  0  0  0  0  0  0  0  0  0  0  0
  -30.1373  -28.3004   21.6206 H   0  0  0  0  0  0  0  0  0  0  0  0
  -29.5230  -27.2624   22.6749 H   0  0  0  0  0  0  0  0  0  0  0  0
  -28.0104  -21.6450   21.7796 H   0  0  0  0  0  0  0  0  0  0  0  0
  1 25  1  0
  1 30  2  0
  1 80  1  0
  2  3  1  0
  2 25  1  0
  2 81  1  0
  2 82  1  0
  3  4  1  0
  3 83  1  0
  3 84  1  0
  4  5  1  0
  4 85  1  0
  4 86  1  0
  5  6  1  0
  5 26  1  0
  5 87  1  6
  6 25  1  0
  6 88  1  0
  6 89  1  0
  7  8  2  0
  7 26  1  0
  7 29  1  0
  8  9  1  0
  8 22  1  0
  9 10  1  0
  9 27  2  0
 10 11  2  0
 10 15  1  0
 11 12  1  0
 11 90  1  0
 12 13  2  0
 12 91  1  0
 13 14  1  0
 13 31  1  0
 14 15  2  0
 14 92  1  0
 15 93  1  0
 16 17  2  0
 16 21  1  0
 16 31  1  0
 17 18  1  0
 17 94  1  0
 18 19  2  0
 18 95  1  0
 19 20  1  0
 19 24  1  0
 20 21  2  0
 20 96  1  0
 21 23  1  0
 22 28  1  0
 22 32  2  0
 26 27  1  0
 28 97  1  0
 28 98  1  0
 29 99  1  0
 29100  1  0
 33 34  1  0
 33 66  1  0
 33 70  2  0
 34 36  1  0
 34 59  1  0
 34101  1  6
 35 44  2  0
 35 45  1  0
 35 68  1  0
 36 56  1  0
 36102  1  0
 37 39  1  0
 37 47  1  0
 37 66  1  0
 37103  1  6
 38 43  2  0
 38 46  1  0
 38 47  1  0
 39 64  1  0
 39 67  2  0
 40 52  1  0
 40 53  2  0
 40 58  1  0
 41104  1  0
 41105  1  0
 41106  1  0
 42 43  1  0
 42 66  1  0
 42107  1  0
 42108  1  0
 43 44  1  0
 44109  1  0
 45 46  2  0
 45110  1  0
 46111  1  0
 47112  1  0
 47113  1  0
 48 41  1  0
 48 56  1  0
 48 65  1  0
 48114  1  1
 49 50  1  0
 49 53  1  0
 49 64  1  0
 49115  1  1
 50 51  1  0
 50116  1  0
 50117  1  0
 51 52  1  0
 51118  1  0
 51119  1  0
 52120  1  0
 52121  1  0
 53 54  1  0
 54 55  2  0
 54122  1  0
 55 57  1  0
 55123  1  0
 56 69  2  0
 57 58  2  0
 57124  1  0
 58125  1  0
 59 60  1  0
 59 61  1  0
 59 62  1  0
 60126  1  0
 60127  1  0
 60128  1  0
 61129  1  0
 61130  1  0
 61131  1  0
 62132  1  0
 62133  1  0
 62134  1  0
 63 65  1  0
 63135  1  0
 63136  1  0
 63137  1  0
 64138  1  0
 65139  1  0
 68 78  1  0
 71 72  1  0
 71 73  2  0
 71140  1  0
 72 74  2  0
 72 80  1  0
 73 77  1  0
 73 79  1  0
 74 75  1  0
 74 79  1  0
 75141  1  0
 75142  1  0
 75143  1  0
 76 79  1  0
 76144  1  0
 76145  1  0
 76146  1  0
 77 78  1  0
 77147  1  0
 77148  1  0
 78149  1  0
 78150  1  0
 80151  1  0
M  ISO  4   1 100  68 101  78 101  80 100
M  END
$$$$
18
     RDKit          3D

155164  0  0  0  0  0  0  0  0999 V2000
  -30.7652  -14.3608   20.6636 C   0  0  0  0  0  0  0  0  0100  0  0
  -30.4392  -12.2669   19.3775 C   0  0  0  0  0  0  0  0  0101  0  0
  -29.4791  -12.5281   18.1977 C   0  0  0  0  0  0  0  0  0102  0  0
  -27.9985  -12.3963   18.6038 C   0  0  0  0  0  0  0  0  0103  0  0
  -27.6639  -13.2170   19.8820 C   0  0  2  0  0  0  0  0  0104  0  0
  -28.6795  -12.9602   21.0279 C   0  0  0  0  0  0  0  0  0105  0  0
  -25.2633  -13.8245   20.5754 C   0  0  0  0  0  0  0  0  0106  0  0
  -24.1645  -13.0409   20.9408 C   0  0  0  0  0  0  0  0  0107  0  0
  -24.6400  -11.7009   20.8697 C   0  0  0  0  0  0  0  0  0108  0  0
  -23.9005  -10.4085   21.0420 C   0  0  0  0  0  0  0  0  0109  0  0
  -24.3588   -9.4123   21.9123 C   0  0  0  0  0  0  0  0  0110  0  0
  -23.6296   -8.2350   22.0803 C   0  0  0  0  0  0  0  0  0111  0  0
  -22.4385   -8.0419   21.3657 C   0  0  0  0  0  0  0  0  0112  0  0
  -22.0103   -9.0167   20.4678 C   0  0  0  0  0  0  0  0  0113  0  0
  -22.7317  -10.1925   20.3102 C   0  0  0  0  0  0  0  0  0114  0  0
  -21.6857   -6.0709   22.5391 C   0  0  0  0  0  0  0  0  0115  0  0
  -21.4064   -6.5490   23.8264 C   0  0  0  0  0  0  0  0  0116  0  0
  -21.3635   -5.6677   24.9085 C   0  0  0  0  0  0  0  0  0117  0  0
  -21.5973   -4.3067   24.7088 C   0  0  0  0  0  0  0  0  0118  0  0
  -21.8700   -3.8284   23.4282 C   0  0  0  0  0  0  0  0  0119  0  0
  -21.9144   -4.7056   22.3460 C   0  0  0  0  0  0  0  0  0120  0  0
  -22.8194  -13.5263   21.1763 C   0  0  0  0  0  0  0  0  0121  0  0
  -22.1559   -4.2206   21.1063 F   0  0  0  0  0  0  0  0  0122  0  0
  -21.5628   -3.4510   25.7555 F   0  0  0  0  0  0  0  0  0123  0  0
  -30.0261  -13.1803   20.4553 N   0  0  0  0  0  0  0  0  0124  0  0
  -26.2911  -12.9356   20.3443 N   0  0  0  0  0  0  0  0  0125  0  0
  -25.9236  -11.6675   20.5847 N   0  0  0  0  0  0  0  0  0126  0  0
  -22.0708  -12.7905   22.0005 N   0  0  0  0  0  0  0  0  0127  0  0
  -25.4117  -15.1773   20.4097 N   0  0  0  0  0  0  0  0  0128  0  0
  -31.7916  -14.6724   20.0536 O   0  0  0  0  0  0  0  0  0129  0  0
  -21.6670   -6.9022   21.4423 O   0  0  0  0  0  0  0  0  0130  0  0
  -22.3946  -14.5564   20.6568 O   0  0  0  0  0  0  0  0  0131  0  0
  -24.6048  -31.8614   23.2223 C   0  0  0  0  0  0  0  0  0100  0  0
  -25.8822  -32.4841   23.8616 C   0  0  1  0  0  0  0  0  0101  0  0
  -27.2536  -27.5042   20.1156 C   0  0  0  0  0  0  0  0  0102  0  0
  -25.5726  -33.8762   24.2210 N   0  0  0  0  0  0  0  0  0103  0  0
  -23.4066  -30.4859   21.5461 C   0  0  2  0  0  0  0  0  0104  0  0
  -24.8467  -28.9636   20.1247 C   0  0  0  0  0  0  0  0  0105  0  0
  -22.7412  -29.4652   22.5052 C   0  0  0  0  0  0  0  0  0106  0  0
  -18.0167  -28.1302   22.8626 C   0  0  0  0  0  0  0  0  0107  0  0
  -24.1342  -36.7390   23.2568 C   0  0  0  0  0  0  0  0  0108  0  0
  -25.9141  -30.8882   21.3456 C   0  0  0  0  0  0  0  0  0109  0  0
  -25.9930  -29.5029   20.7208 C   0  0  0  0  0  0  0  0  0110  0  0
  -27.1758  -28.7612   20.7331 C   0  0  0  0  0  0  0  0  0111  0  0
  -26.1032  -26.9836   19.5230 C   0  0  0  0  0  0  0  0  0112  0  0
  -24.9097  -27.7011   19.5331 C   0  0  0  0  0  0  0  0  0113  0  0
  -23.5715  -29.7899   20.1582 C   0  0  0  0  0  0  0  0  0114  0  0
  -25.3990  -36.3212   24.0232 C   0  0  1  0  0  0  0  0  0115  0  0
  -20.5793  -28.3813   23.1004 C   0  0  2  0  0  0  0  0  0116  0  0
  -20.6548  -26.9392   22.5411 C   0  0  0  0  0  0  0  0  0117  0  0
  -19.5615  -26.6407   21.5143 C   0  0  0  0  0  0  0  0  0118  0  0
  -18.1797  -26.7818   22.1673 C   0  0  0  0  0  0  0  0  0119  0  0
  -19.1385  -28.8769   23.2988 C   0  0  0  0  0  0  0  0  0120  0  0
  -18.9183  -30.1286   23.8878 C   0  0  0  0  0  0  0  0  0121  0  0
  -17.6396  -30.6493   24.0352 C   0  0  0  0  0  0  0  0  0122  0  0
  -25.9153  -34.9582   23.4993 C   0  0  0  0  0  0  0  0  0123  0  0
  -16.5415  -29.9068   23.6254 C   0  0  0  0  0  0  0  0  0124  0  0
  -16.7331  -28.6521   23.0586 C   0  0  0  0  0  0  0  0  0125  0  0
  -26.4583  -31.6439   25.0683 C   0  0  0  0  0  0  0  0  0126  0  0
  -25.3807  -31.3179   26.1374 C   0  0  0  0  0  0  0  0  0127  0  0
  -27.0530  -30.3024   24.5680 C   0  0  0  0  0  0  0  0  0128  0  0
  -27.6014  -32.4281   25.7651 C   0  0  0  0  0  0  0  0  0129  0  0
  -27.5629  -37.2220   24.8621 C   0  0  0  0  0  0  0  0  0130  0  0
  -21.4133  -29.3375   22.3735 N   0  0  0  0  0  0  0  0  0131  0  0
  -26.4706  -37.3372   23.9061 N   0  0  0  0  0  0  0  0  0132  0  0
  -24.6674  -31.0544   22.1178 N   0  0  0  0  0  0  0  0  0133  0  0
  -23.4259  -28.8150   23.2971 O   0  0  0  0  0  0  0  0  0134  0  0
  -28.3948  -26.7345   20.0089 O   0  0  0  0  0  0  0  0  0135  0  0
  -26.5870  -34.9065   22.4671 O   0  0  0  0  0  0  0  0  0136  0  0
  -23.5365  -32.1254   23.7833 O   0  0  0  0  0  0  0  0  0137  0  0
  -33.2420  -29.0041   22.3050 C   0  0  0  0  0  0  0  0  0  0  0  0
  -35.1321  -27.6135   21.7265 C   0  0  0  0  0  0  0  0  0  0  0  0
  -34.5980  -28.6864   22.4289 C   0  0  0  0  0  0  0  0  0  0  0  0
  -32.4682  -28.2231   21.4415 C   0  0  0  0  0  0  0  0  0  0  0  0
  -34.2830  -26.8916   20.9091 C   0  0  0  0  0  0  0  0  0  0  0  0
  -32.6799  -30.1933   23.0344 C   0  0  0  0  0  0  0  0  0  0  0  0
  -30.9915  -28.4763   21.2756 C   0  0  0  0  0  0  0  0  0  0  0  0
  -31.1511  -30.2107   23.0786 C   0  0  0  0  0  0  0  0  0  0  0  0
  -30.5732  -29.8896   21.6984 C   0  0  2  0  0  0  0  0  0  0  0  0
  -34.8146  -25.7297   20.1381 C   0  0  0  0  0  0  0  0  0  0  0  0
  -32.9698  -27.1673   20.7518 N   0  0  0  0  0  0  0  0  0  0  0  0
  -33.7605  -24.8937   19.6085 N   0  0  0  0  0  0  0  0  0  0  0  0
  -29.1152  -29.9834   21.7282 N   0  0  0  0  0  0  0  0  0  1  0  0
  -36.4278  -27.2865   21.8276 F   0  0  0  0  0  0  0  0  0  0  0  0
  -35.6743  -29.6053   23.4261 Cl  0  0  0  0  0  0  0  0  0  0  0  0
  -31.4485  -12.4701   19.0860 H   0  0  0  0  0  0  0  0  0  0  0  0
  -30.3970  -11.2460   19.6950 H   0  0  0  0  0  0  0  0  0  0  0  0
  -29.6870  -11.8204   17.4226 H   0  0  0  0  0  0  0  0  0  0  0  0
  -29.6375  -13.5326   17.8649 H   0  0  0  0  0  0  0  0  0  0  0  0
  -27.7830  -11.3650   18.7904 H   0  0  0  0  0  0  0  0  0  0  0  0
  -27.4028  -12.7801   17.8021 H   0  0  0  0  0  0  0  0  0  0  0  0
  -27.7353  -14.2503   19.6136 H   0  0  0  0  0  0  0  0  0  0  0  0
  -28.5890  -11.9550   21.3832 H   0  0  0  0  0  0  0  0  0  0  0  0
  -28.5005  -13.6134   21.8562 H   0  0  0  0  0  0  0  0  0  0  0  0
  -25.2399   -9.5495   22.4318 H   0  0  0  0  0  0  0  0  0  0  0  0
  -23.9663   -7.5070   22.7297 H   0  0  0  0  0  0  0  0  0  0  0  0
  -21.1515   -8.8641   19.9162 H   0  0  0  0  0  0  0  0  0  0  0  0
  -22.4016  -10.9115   19.6476 H   0  0  0  0  0  0  0  0  0  0  0  0
  -21.2319   -7.5552   23.9750 H   0  0  0  0  0  0  0  0  0  0  0  0
  -21.1589   -6.0228   25.8556 H   0  0  0  0  0  0  0  0  0  0  0  0
  -22.0396   -2.8212   23.2809 H   0  0  0  0  0  0  0  0  0  0  0  0
  -22.4401  -11.9703   22.4008 H   0  0  0  0  0  0  0  0  0  0  0  0
  -21.1493  -13.0679   22.2082 H   0  0  0  0  0  0  0  0  0  0  0  0
  -24.6538  -15.7807   20.5848 H   0  0  0  0  0  0  0  0  0  0  0  0
  -26.2762  -15.5453   20.1156 H   0  0  0  0  0  0  0  0  0  0  0  0
  -26.6778  -32.4663   23.1464 H   0  0  0  0  0  0  0  0  0  0  0  0
  -25.0747  -34.0282   25.0566 H   0  0  0  0  0  0  0  0  0  0  0  0
  -22.7881  -31.3489   21.4131 H   0  0  0  0  0  0  0  0  0  0  0  0
  -23.3854  -35.9823   23.3648 H   0  0  0  0  0  0  0  0  0  0  0  0
  -24.3696  -36.8624   22.2204 H   0  0  0  0  0  0  0  0  0  0  0  0
  -23.7669  -37.6632   23.6516 H   0  0  0  0  0  0  0  0  0  0  0  0
  -25.9445  -31.6237   20.5691 H   0  0  0  0  0  0  0  0  0  0  0  0
  -26.7436  -31.0079   22.0108 H   0  0  0  0  0  0  0  0  0  0  0  0
  -28.0090  -29.1452   21.2057 H   0  0  0  0  0  0  0  0  0  0  0  0
  -26.1369  -26.0560   19.0719 H   0  0  0  0  0  0  0  0  0  0  0  0
  -24.0652  -27.2961   19.0997 H   0  0  0  0  0  0  0  0  0  0  0  0
  -23.6156  -30.5365   19.3930 H   0  0  0  0  0  0  0  0  0  0  0  0
  -22.7355  -29.1425   19.9945 H   0  0  0  0  0  0  0  0  0  0  0  0
  -25.1353  -36.2335   25.0565 H   0  0  0  0  0  0  0  0  0  0  0  0
  -21.0070  -28.3206   24.0793 H   0  0  0  0  0  0  0  0  0  0  0  0
  -20.5555  -26.2518   23.3550 H   0  0  0  0  0  0  0  0  0  0  0  0
  -21.5974  -26.8362   22.0454 H   0  0  0  0  0  0  0  0  0  0  0  0
  -19.6810  -25.6422   21.1488 H   0  0  0  0  0  0  0  0  0  0  0  0
  -19.6406  -27.3343   20.7034 H   0  0  0  0  0  0  0  0  0  0  0  0
  -17.4282  -26.6888   21.4113 H   0  0  0  0  0  0  0  0  0  0  0  0
  -18.0803  -26.0130   22.9049 H   0  0  0  0  0  0  0  0  0  0  0  0
  -19.7265  -30.6774   24.2204 H   0  0  0  0  0  0  0  0  0  0  0  0
  -17.5064  -31.5856   24.4483 H   0  0  0  0  0  0  0  0  0  0  0  0
  -15.5878  -30.2839   23.7407 H   0  0  0  0  0  0  0  0  0  0  0  0
  -15.9120  -28.0941   22.7766 H   0  0  0  0  0  0  0  0  0  0  0  0
  -24.5787  -30.7757   25.6817 H   0  0  0  0  0  0  0  0  0  0  0  0
  -25.0041  -32.2289   26.5536 H   0  0  0  0  0  0  0  0  0  0  0  0
  -25.8166  -30.7245   26.9138 H   0  0  0  0  0  0  0  0  0  0  0  0
  -26.2892  -29.7335   24.0803 H   0  0  0  0  0  0  0  0  0  0  0  0
  -27.4336  -29.7484   25.4006 H   0  0  0  0  0  0  0  0  0  0  0  0
  -27.8466  -30.4994   23.8779 H   0  0  0  0  0  0  0  0  0  0  0  0
  -27.2251  -33.3632   26.1242 H   0  0  0  0  0  0  0  0  0  0  0  0
  -28.3902  -32.6065   25.0645 H   0  0  0  0  0  0  0  0  0  0  0  0
  -27.9772  -31.8555   26.5872 H   0  0  0  0  0  0  0  0  0  0  0  0
  -28.2744  -38.0016   24.6863 H   0  0  0  0  0  0  0  0  0  0  0  0
  -28.0396  -36.2711   24.7461 H   0  0  0  0  0  0  0  0  0  0  0  0
  -27.1773  -37.3087   25.8564 H   0  0  0  0  0  0  0  0  0  0  0  0
  -20.9627  -29.9365   21.7352 H   0  0  0  0  0  0  0  0  0  0  0  0
  -26.0447  -38.2561   24.0273 H   0  0  0  0  0  0  0  0  0  0  0  0
  -33.0153  -31.0825   22.5428 H   0  0  0  0  0  0  0  0  0  0  0  0
  -33.0249  -30.1361   24.0456 H   0  0  0  0  0  0  0  0  0  0  0  0
  -30.4553  -27.7691   21.8734 H   0  0  0  0  0  0  0  0  0  0  0  0
  -30.7648  -28.3740   20.2349 H   0  0  0  0  0  0  0  0  0  0  0  0
  -30.8183  -31.1810   23.3830 H   0  0  0  0  0  0  0  0  0  0  0  0
  -30.8158  -29.4713   23.7756 H   0  0  0  0  0  0  0  0  0  0  0  0
  -30.9528  -30.5976   20.9917 H   0  0  0  0  0  0  0  0  0  0  0  0
  -35.4293  -25.1396   20.7853 H   0  0  0  0  0  0  0  0  0  0  0  0
  -35.3740  -26.1142   19.3110 H   0  0  0  0  0  0  0  0  0  0  0  0
  -33.1628  -25.3899   19.0037 H   0  0  0  0  0  0  0  0  0  0  0  0
  -28.7662  -30.7863   21.2049 H   0  0  0  0  0  0  0  0  0  0  0  0
  1 25  1  0
  1 30  2  0
  1 82  1  0
  2  3  1  0
  2 25  1  0
  2 86  1  0
  2 87  1  0
  3  4  1  0
  3 88  1  0
  3 89  1  0
  4  5  1  0
  4 90  1  0
  4 91  1  0
  5  6  1  0
  5 26  1  0
  5 92  1  6
  6 25  1  0
  6 93  1  0
  6 94  1  0
  7  8  2  0
  7 26  1  0
  7 29  1  0
  8  9  1  0
  8 22  1  0
  9 10  1  0
  9 27  2  0
 10 11  2  0
 10 15  1  0
 11 12  1  0
 11 95  1  0
 12 13  2  0
 12 96  1  0
 13 14  1  0
 13 31  1  0
 14 15  2  0
 14 97  1  0
 15 98  1  0
 16 17  2  0
 16 21  1  0
 16 31  1  0
 17 18  1  0
 17 99  1  0
 18 19  2  0
 18100  1  0
 19 20  1  0
 19 24  1  0
 20 21  2  0
 20101  1  0
 21 23  1  0
 22 28  1  0
 22 32  2  0
 26 27  1  0
 28102  1  0
 28103  1  0
 29104  1  0
 29105  1  0
 33 34  1  0
 33 66  1  0
 33 70  2  0
 34 36  1  0
 34 59  1  0
 34106  1  6
 35 44  2  0
 35 45  1  0
 35 68  1  0
 36 56  1  0
 36107  1  0
 37 39  1  0
 37 47  1  0
 37 66  1  0
 37108  1  6
 38 43  2  0
 38 46  1  0
 38 47  1  0
 39 64  1  0
 39 67  2  0
 40 52  1  0
 40 53  2  0
 40 58  1  0
 41109  1  0
 41110  1  0
 41111  1  0
 42 43  1  0
 42 66  1  0
 42112  1  0
 42113  1  0
 43 44  1  0
 44114  1  0
 45 46  2  0
 45115  1  0
 46116  1  0
 47117  1  0
 47118  1  0
 48 41  1  0
 48 56  1  0
 48 65  1  0
 48119  1  1
 49 50  1  0
 49 53  1  0
 49 64  1  0
 49120  1  1
 50 51  1  0
 50121  1  0
 50122  1  0
 51 52  1  0
 51123  1  0
 51124  1  0
 52125  1  0
 52126  1  0
 53 54  1  0
 54 55  2  0
 54127  1  0
 55 57  1  0
 55128  1  0
 56 69  2  0
 57 58  2  0
 57129  1  0
 58130  1  0
 59 60  1  0
 59 61  1  0
 59 62  1  0
 60131  1  0
 60132  1  0
 60133  1  0
 61134  1  0
 61135  1  0
 61136  1  0
 62137  1  0
 62138  1  0
 62139  1  0
 63 65  1  0
 63140  1  0
 63141  1  0
 63142  1  0
 64143  1  0
 65144  1  0
 68 83  1  0
 71 73  1  0
 71 74  2  0
 71 76  1  0
 72 73  2  0
 72 75  1  0
 72 84  1  0
 73 85  1  0
 74 77  1  0
 74 81  1  0
 75 80  1  0
 75 81  2  0
 76 78  1  0
 76145  1  0
 76146  1  0
 77 79  1  0
 77147  1  0
 77148  1  0
 78 79  1  0
 78149  1  0
 78150  1  0
 79 83  1  0
 79151  1  6
 80 82  1  0
 80152  1  0
 80153  1  0
 82154  1  0
 83155  1  0
M  ISO  4   1 100  68 101  82 100  83 101
M  END
$$$$
19
     RDKit          3D

159167  0  0  0  0  0  0  0  0999 V2000
  -30.7652  -14.3608   20.6636 C   0  0  0  0  0  0  0  0  0100  0  0
  -30.4392  -12.2669   19.3775 C   0  0  0  0  0  0  0  0  0101  0  0
  -29.4791  -12.5281   18.1977 C   0  0  0  0  0  0  0  0  0102  0  0
  -27.9985  -12.3963   18.6038 C   0  0  0  0  0  0  0  0  0103  0  0
  -27.6639  -13.2170   19.8820 C   0  0  2  0  0  0  0  0  0104  0  0
  -28.6795  -12.9602   21.0279 C   0  0  0  0  0  0  0  0  0105  0  0
  -25.2633  -13.8245   20.5754 C   0  0  0  0  0  0  0  0  0106  0  0
  -24.1645  -13.0409   20.9408 C   0  0  0  0  0  0  0  0  0107  0  0
  -24.6400  -11.7009   20.8697 C   0  0  0  0  0  0  0  0  0108  0  0
  -23.9005  -10.4085   21.0420 C   0  0  0  0  0  0  0  0  0109  0  0
  -24.3588   -9.4123   21.9123 C   0  0  0  0  0  0  0  0  0110  0  0
  -23.6296   -8.2350   22.0803 C   0  0  0  0  0  0  0  0  0111  0  0
  -22.4385   -8.0419   21.3657 C   0  0  0  0  0  0  0  0  0112  0  0
  -22.0103   -9.0167   20.4678 C   0  0  0  0  0  0  0  0  0113  0  0
  -22.7317  -10.1925   20.3102 C   0  0  0  0  0  0  0  0  0114  0  0
  -21.6857   -6.0709   22.5391 C   0  0  0  0  0  0  0  0  0115  0  0
  -21.4064   -6.5490   23.8264 C   0  0  0  0  0  0  0  0  0116  0  0
  -21.3635   -5.6677   24.9085 C   0  0  0  0  0  0  0  0  0117  0  0
  -21.5973   -4.3067   24.7088 C   0  0  0  0  0  0  0  0  0118  0  0
  -21.8700   -3.8284   23.4282 C   0  0  0  0  0  0  0  0  0119  0  0
  -21.9144   -4.7056   22.3460 C   0  0  0  0  0  0  0  0  0120  0  0
  -22.8194  -13.5263   21.1763 C   0  0  0  0  0  0  0  0  0121  0  0
  -22.1559   -4.2206   21.1063 F   0  0  0  0  0  0  0  0  0122  0  0
  -21.5628   -3.4510   25.7555 F   0  0  0  0  0  0  0  0  0123  0  0
  -30.0261  -13.1803   20.4553 N   0  0  0  0  0  0  0  0  0124  0  0
  -26.2911  -12.9356   20.3443 N   0  0  0  0  0  0  0  0  0125  0  0
  -25.9236  -11.6675   20.5847 N   0  0  0  0  0  0  0  0  0126  0  0
  -22.0708  -12.7905   22.0005 N   0  0  0  0  0  0  0  0  0127  0  0
  -25.4117  -15.1773   20.4097 N   0  0  0  0  0  0  0  0  0128  0  0
  -31.7916  -14.6724   20.0536 O   0  0  0  0  0  0  0  0  0129  0  0
  -21.6670   -6.9022   21.4423 O   0  0  0  0  0  0  0  0  0130  0  0
  -22.3946  -14.5564   20.6568 O   0  0  0  0  0  0  0  0  0131  0  0
  -24.6048  -31.8614   23.2223 C   0  0  0  0  0  0  0  0  0100  0  0
  -25.8822  -32.4841   23.8616 C   0  0  1  0  0  0  0  0  0101  0  0
  -27.2536  -27.5042   20.1156 C   0  0  0  0  0  0  0  0  0102  0  0
  -25.5726  -33.8762   24.2210 N   0  0  0  0  0  0  0  0  0103  0  0
  -23.4066  -30.4859   21.5461 C   0  0  2  0  0  0  0  0  0104  0  0
  -24.8467  -28.9636   20.1247 C   0  0  0  0  0  0  0  0  0105  0  0
  -22.7412  -29.4652   22.5052 C   0  0  0  0  0  0  0  0  0106  0  0
  -18.0167  -28.1302   22.8626 C   0  0  0  0  0  0  0  0  0107  0  0
  -24.1342  -36.7390   23.2568 C   0  0  0  0  0  0  0  0  0108  0  0
  -25.9141  -30.8882   21.3456 C   0  0  0  0  0  0  0  0  0109  0  0
  -25.9930  -29.5029   20.7208 C   0  0  0  0  0  0  0  0  0110  0  0
  -27.1758  -28.7612   20.7331 C   0  0  0  0  0  0  0  0  0111  0  0
  -26.1032  -26.9836   19.5230 C   0  0  0  0  0  0  0  0  0112  0  0
  -24.9097  -27.7011   19.5331 C   0  0  0  0  0  0  0  0  0113  0  0
  -23.5715  -29.7899   20.1582 C   0  0  0  0  0  0  0  0  0114  0  0
  -25.3990  -36.3212   24.0232 C   0  0  1  0  0  0  0  0  0115  0  0
  -20.5793  -28.3813   23.1004 C   0  0  2  0  0  0  0  0  0116  0  0
  -20.6548  -26.9392   22.5411 C   0  0  0  0  0  0  0  0  0117  0  0
  -19.5615  -26.6407   21.5143 C   0  0  0  0  0  0  0  0  0118  0  0
  -18.1797  -26.7818   22.1673 C   0  0  0  0  0  0  0  0  0119  0  0
  -19.1385  -28.8769   23.2988 C   0  0  0  0  0  0  0  0  0120  0  0
  -18.9183  -30.1286   23.8878 C   0  0  0  0  0  0  0  0  0121  0  0
  -17.6396  -30.6493   24.0352 C   0  0  0  0  0  0  0  0  0122  0  0
  -25.9153  -34.9582   23.4993 C   0  0  0  0  0  0  0  0  0123  0  0
  -16.5415  -29.9068   23.6254 C   0  0  0  0  0  0  0  0  0124  0  0
  -16.7331  -28.6521   23.0586 C   0  0  0  0  0  0  0  0  0125  0  0
  -26.4583  -31.6439   25.0683 C   0  0  0  0  0  0  0  0  0126  0  0
  -25.3807  -31.3179   26.1374 C   0  0  0  0  0  0  0  0  0127  0  0
  -27.0530  -30.3024   24.5680 C   0  0  0  0  0  0  0  0  0128  0  0
  -27.6014  -32.4281   25.7651 C   0  0  0  0  0  0  0  0  0129  0  0
  -27.5629  -37.2220   24.8621 C   0  0  0  0  0  0  0  0  0130  0  0
  -21.4133  -29.3375   22.3735 N   0  0  0  0  0  0  0  0  0131  0  0
  -26.4706  -37.3372   23.9061 N   0  0  0  0  0  0  0  0  0132  0  0
  -24.6674  -31.0544   22.1178 N   0  0  0  0  0  0  0  0  0133  0  0
  -23.4259  -28.8150   23.2971 O   0  0  0  0  0  0  0  0  0134  0  0
  -28.3948  -26.7345   20.0089 O   0  0  0  0  0  0  0  0  0135  0  0
  -26.5870  -34.9065   22.4671 O   0  0  0  0  0  0  0  0  0136  0  0
  -23.5365  -32.1254   23.7833 O   0  0  0  0  0  0  0  0  0137  0  0
  -27.5602  -17.8189   22.5907 C   0  0  0  0  0  0  0  0  0  0  0  0
  -28.3739  -18.7497   21.9447 C   0  0  0  0  0  0  0  0  0  0  0  0
  -28.5212  -20.0324   22.4725 C   0  0  0  0  0  0  0  0  0  0  0  0
  -27.8548  -20.3844   23.6463 C   0  0  0  0  0  0  0  0  0  0  0  0
  -27.0411  -19.4536   24.2923 C   0  0  0  0  0  0  0  0  0  0  0  0
  -26.8938  -18.1709   23.7644 C   0  0  0  0  0  0  0  0  0  0  0  0
  -29.3945  -21.0285   21.7771 C   0  0  0  0  0  0  0  0  0  0  0  0
  -26.3315  -19.8451   25.5516 C   0  0  0  0  0  0  0  0  0  0  0  0
  -29.0764  -18.3478   20.6894 C   0  0  0  0  0  0  0  0  0  0  0  0
  -28.0148  -21.7645   24.2128 C   0  0  0  0  0  0  0  0  0  1  0  0
  -30.5616  -17.9854   20.8800 C   0  0  0  0  0  0  0  0  0  0  0  0
  -30.8104  -16.8542   21.8754 C   0  0  0  0  0  0  0  0  0  0  0  0
  -30.1335  -15.6317   21.5038 N   0  0  0  0  0  0  0  0  0  0  0  0
  -25.8968  -16.9895   24.5337 Cl  0  0  0  0  0  0  0  0  0  0  0  0
  -31.4485  -12.4701   19.0860 H   0  0  0  0  0  0  0  0  0  0  0  0
  -30.3970  -11.2460   19.6950 H   0  0  0  0  0  0  0  0  0  0  0  0
  -29.6870  -11.8204   17.4226 H   0  0  0  0  0  0  0  0  0  0  0  0
  -29.6375  -13.5326   17.8649 H   0  0  0  0  0  0  0  0  0  0  0  0
  -27.7830  -11.3650   18.7904 H   0  0  0  0  0  0  0  0  0  0  0  0
  -27.4028  -12.7801   17.8021 H   0  0  0  0  0  0  0  0  0  0  0  0
  -27.7353  -14.2503   19.6136 H   0  0  0  0  0  0  0  0  0  0  0  0
  -28.5890  -11.9550   21.3832 H   0  0  0  0  0  0  0  0  0  0  0  0
  -28.5005  -13.6134   21.8562 H   0  0  0  0  0  0  0  0  0  0  0  0
  -25.2399   -9.5495   22.4318 H   0  0  0  0  0  0  0  0  0  0  0  0
  -23.9663   -7.5070   22.7297 H   0  0  0  0  0  0  0  0  0  0  0  0
  -21.1515   -8.8641   19.9162 H   0  0  0  0  0  0  0  0  0  0  0  0
  -22.4016  -10.9115   19.6476 H   0  0  0  0  0  0  0  0  0  0  0  0
  -21.2319   -7.5552   23.9750 H   0  0  0  0  0  0  0  0  0  0  0  0
  -21.1589   -6.0228   25.8556 H   0  0  0  0  0  0  0  0  0  0  0  0
  -22.0396   -2.8212   23.2809 H   0  0  0  0  0  0  0  0  0  0  0  0
  -22.4401  -11.9703   22.4008 H   0  0  0  0  0  0  0  0  0  0  0  0
  -21.1493  -13.0679   22.2082 H   0  0  0  0  0  0  0  0  0  0  0  0
  -24.6538  -15.7807   20.5848 H   0  0  0  0  0  0  0  0  0  0  0  0
  -26.2762  -15.5453   20.1156 H   0  0  0  0  0  0  0  0  0  0  0  0
  -26.6778  -32.4663   23.1464 H   0  0  0  0  0  0  0  0  0  0  0  0
  -25.0747  -34.0282   25.0566 H   0  0  0  0  0  0  0  0  0  0  0  0
  -22.7881  -31.3489   21.4131 H   0  0  0  0  0  0  0  0  0  0  0  0
  -23.3854  -35.9823   23.3648 H   0  0  0  0  0  0  0  0  0  0  0  0
  -24.3696  -36.8624   22.2204 H   0  0  0  0  0  0  0  0  0  0  0  0
  -23.7669  -37.6632   23.6516 H   0  0  0  0  0  0  0  0  0  0  0  0
  -25.9445  -31.6237   20.5691 H   0  0  0  0  0  0  0  0  0  0  0  0
  -26.7436  -31.0079   22.0108 H   0  0  0  0  0  0  0  0  0  0  0  0
  -28.0090  -29.1452   21.2057 H   0  0  0  0  0  0  0  0  0  0  0  0
  -26.1369  -26.0560   19.0719 H   0  0  0  0  0  0  0  0  0  0  0  0
  -24.0652  -27.2961   19.0997 H   0  0  0  0  0  0  0  0  0  0  0  0
  -23.6156  -30.5365   19.3930 H   0  0  0  0  0  0  0  0  0  0  0  0
  -22.7355  -29.1425   19.9945 H   0  0  0  0  0  0  0  0  0  0  0  0
  -25.1353  -36.2335   25.0565 H   0  0  0  0  0  0  0  0  0  0  0  0
  -21.0070  -28.3206   24.0793 H   0  0  0  0  0  0  0  0  0  0  0  0
  -20.5555  -26.2518   23.3550 H   0  0  0  0  0  0  0  0  0  0  0  0
  -21.5974  -26.8362   22.0454 H   0  0  0  0  0  0  0  0  0  0  0  0
  -19.6810  -25.6422   21.1488 H   0  0  0  0  0  0  0  0  0  0  0  0
  -19.6406  -27.3343   20.7034 H   0  0  0  0  0  0  0  0  0  0  0  0
  -17.4282  -26.6888   21.4113 H   0  0  0  0  0  0  0  0  0  0  0  0
  -18.0803  -26.0130   22.9049 H   0  0  0  0  0  0  0  0  0  0  0  0
  -19.7265  -30.6774   24.2204 H   0  0  0  0  0  0  0  0  0  0  0  0
  -17.5064  -31.5856   24.4483 H   0  0  0  0  0  0  0  0  0  0  0  0
  -15.5878  -30.2839   23.7407 H   0  0  0  0  0  0  0  0  0  0  0  0
  -15.9120  -28.0941   22.7766 H   0  0  0  0  0  0  0  0  0  0  0  0
  -24.5787  -30.7757   25.6817 H   0  0  0  0  0  0  0  0  0  0  0  0
  -25.0041  -32.2289   26.5536 H   0  0  0  0  0  0  0  0  0  0  0  0
  -25.8166  -30.7245   26.9138 H   0  0  0  0  0  0  0  0  0  0  0  0
  -26.2892  -29.7335   24.0803 H   0  0  0  0  0  0  0  0  0  0  0  0
  -27.4336  -29.7484   25.4006 H   0  0  0  0  0  0  0  0  0  0  0  0
  -27.8466  -30.4994   23.8779 H   0  0  0  0  0  0  0  0  0  0  0  0
  -27.2251  -33.3632   26.1242 H   0  0  0  0  0  0  0  0  0  0  0  0
  -28.3902  -32.6065   25.0645 H   0  0  0  0  0  0  0  0  0  0  0  0
  -27.9772  -31.8555   26.5872 H   0  0  0  0  0  0  0  0  0  0  0  0
  -28.2744  -38.0016   24.6863 H   0  0  0  0  0  0  0  0  0  0  0  0
  -28.0396  -36.2711   24.7461 H   0  0  0  0  0  0  0  0  0  0  0  0
  -27.1773  -37.3087   25.8564 H   0  0  0  0  0  0  0  0  0  0  0  0
  -20.9627  -29.9365   21.7352 H   0  0  0  0  0  0  0  0  0  0  0  0
  -26.0447  -38.2561   24.0273 H   0  0  0  0  0  0  0  0  0  0  0  0
  -27.4513  -16.8698   22.2002 H   0  0  0  0  0  0  0  0  0  0  0  0
  -29.8182  -20.5818   20.9020 H   0  0  0  0  0  0  0  0  0  0  0  0
  -30.1793  -21.3362   22.4361 H   0  0  0  0  0  0  0  0  0  0  0  0
  -28.8106  -21.8799   21.4959 H   0  0  0  0  0  0  0  0  0  0  0  0
  -26.5686  -20.8600   25.7938 H   0  0  0  0  0  0  0  0  0  0  0  0
  -26.6437  -19.2054   26.3505 H   0  0  0  0  0  0  0  0  0  0  0  0
  -25.2752  -19.7496   25.4102 H   0  0  0  0  0  0  0  0  0  0  0  0
  -29.0165  -19.1615   19.9971 H   0  0  0  0  0  0  0  0  0  0  0  0
  -28.5889  -17.4632   20.3362 H   0  0  0  0  0  0  0  0  0  0  0  0
  -28.9123  -21.7690   24.7954 H   0  0  0  0  0  0  0  0  0  0  0  0
  -27.1115  -21.9398   24.7589 H   0  0  0  0  0  0  0  0  0  0  0  0
  -31.0771  -18.8564   21.2271 H   0  0  0  0  0  0  0  0  0  0  0  0
  -30.9171  -17.6419   19.9311 H   0  0  0  0  0  0  0  0  0  0  0  0
  -30.4601  -17.1614   22.8387 H   0  0  0  0  0  0  0  0  0  0  0  0
  -31.8615  -16.6543   21.8848 H   0  0  0  0  0  0  0  0  0  0  0  0
  -29.1930  -15.5489   21.7827 H   0  0  0  0  0  0  0  0  0  0  0  0
  1 25  1  0
  1 30  2  0
  1 83  1  0
  2  3  1  0
  2 25  1  0
  2 85  1  0
  2 86  1  0
  3  4  1  0
  3 87  1  0
  3 88  1  0
  4  5  1  0
  4 89  1  0
  4 90  1  0
  5  6  1  0
  5 26  1  0
  5 91  1  6
  6 25  1  0
  6 92  1  0
  6 93  1  0
  7  8  2  0
  7 26  1  0
  7 29  1  0
  8  9  1  0
  8 22  1  0
  9 10  1  0
  9 27  2  0
 10 11  2  0
 10 15  1  0
 11 12  1  0
 11 94  1  0
 12 13  2  0
 12 95  1  0
 13 14  1  0
 13 31  1  0
 14 15  2  0
 14 96  1  0
 15 97  1  0
 16 17  2  0
 16 21  1  0
 16 31  1  0
 17 18  1  0
 17 98  1  0
 18 19  2  0
 18 99  1  0
 19 20  1  0
 19 24  1  0
 20 21  2  0
 20100  1  0
 21 23  1  0
 22 28  1  0
 22 32  2  0
 26 27  1  0
 28101  1  0
 28102  1  0
 29103  1  0
 29104  1  0
 33 34  1  0
 33 66  1  0
 33 70  2  0
 34 36  1  0
 34 59  1  0
 34105  1  6
 35 44  2  0
 35 45  1  0
 35 68  1  0
 36 56  1  0
 36106  1  0
 37 39  1  0
 37 47  1  0
 37 66  1  0
 37107  1  6
 38 43  2  0
 38 46  1  0
 38 47  1  0
 39 64  1  0
 39 67  2  0
 40 52  1  0
 40 53  2  0
 40 58  1  0
 41108  1  0
 41109  1  0
 41110  1  0
 42 43  1  0
 42 66  1  0
 42111  1  0
 42112  1  0
 43 44  1  0
 44113  1  0
 45 46  2  0
 45114  1  0
 46115  1  0
 47116  1  0
 47117  1  0
 48 41  1  0
 48 56  1  0
 48 65  1  0
 48118  1  1
 49 50  1  0
 49 53  1  0
 49 64  1  0
 49119  1  1
 50 51  1  0
 50120  1  0
 50121  1  0
 51 52  1  0
 51122  1  0
 51123  1  0
 52124  1  0
 52125  1  0
 53 54  1  0
 54 55  2  0
 54126  1  0
 55 57  1  0
 55127  1  0
 56 69  2  0
 57 58  2  0
 57128  1  0
 58129  1  0
 59 60  1  0
 59 61  1  0
 59 62  1  0
 60130  1  0
 60131  1  0
 60132  1  0
 61133  1  0
 61134  1  0
 61135  1  0
 62136  1  0
 62137  1  0
 62138  1  0
 63 65  1  0
 63139  1  0
 63140  1  0
 63141  1  0
 64142  1  0
 65143  1  0
 68 80  1  0
 71 72  2  0
 71 76  1  0
 71144  1  0
 72 73  1  0
 72 79  1  0
 73 74  2  0
 73 77  1  0
 74 75  1  0
 74 80  1  0
 75 76  2  0
 75 78  1  0
 76 84  1  0
 77145  1  0
 77146  1  0
 77147  1  0
 78148  1  0
 78149  1  0
 78150  1  0
 79 81  1  0
 79151  1  0
 79152  1  0
 80153  1  0
 80154  1  0
 81 82  1  0
 81155  1  0
 81156  1  0
 82 83  1  0
 82157  1  0
 82158  1  0
 83159  1  0
M  ISO  4   1 100  68 101  80 101  83 100
M  END
$$$$
20
     RDKit          3D

153161  0  0  0  0  0  0  0  0999 V2000
  -30.7652  -14.3608   20.6636 C   0  0  0  0  0  0  0  0  0100  0  0
  -30.4392  -12.2669   19.3775 C   0  0  0  0  0  0  0  0  0101  0  0
  -29.4791  -12.5281   18.1977 C   0  0  0  0  0  0  0  0  0102  0  0
  -27.9985  -12.3963   18.6038 C   0  0  0  0  0  0  0  0  0103  0  0
  -27.6639  -13.2170   19.8820 C   0  0  2  0  0  0  0  0  0104  0  0
  -28.6795  -12.9602   21.0279 C   0  0  0  0  0  0  0  0  0105  0  0
  -25.2633  -13.8245   20.5754 C   0  0  0  0  0  0  0  0  0106  0  0
  -24.1645  -13.0409   20.9408 C   0  0  0  0  0  0  0  0  0107  0  0
  -24.6400  -11.7009   20.8697 C   0  0  0  0  0  0  0  0  0108  0  0
  -23.9005  -10.4085   21.0420 C   0  0  0  0  0  0  0  0  0109  0  0
  -24.3588   -9.4123   21.9123 C   0  0  0  0  0  0  0  0  0110  0  0
  -23.6296   -8.2350   22.0803 C   0  0  0  0  0  0  0  0  0111  0  0
  -22.4385   -8.0419   21.3657 C   0  0  0  0  0  0  0  0  0112  0  0
  -22.0103   -9.0167   20.4678 C   0  0  0  0  0  0  0  0  0113  0  0
  -22.7317  -10.1925   20.3102 C   0  0  0  0  0  0  0  0  0114  0  0
  -21.6857   -6.0709   22.5391 C   0  0  0  0  0  0  0  0  0115  0  0
  -21.4064   -6.5490   23.8264 C   0  0  0  0  0  0  0  0  0116  0  0
  -21.3635   -5.6677   24.9085 C   0  0  0  0  0  0  0  0  0117  0  0
  -21.5973   -4.3067   24.7088 C   0  0  0  0  0  0  0  0  0118  0  0
  -21.8700   -3.8284   23.4282 C   0  0  0  0  0  0  0  0  0119  0  0
  -21.9144   -4.7056   22.3460 C   0  0  0  0  0  0  0  0  0120  0  0
  -22.8194  -13.5263   21.1763 C   0  0  0  0  0  0  0  0  0121  0  0
  -22.1559   -4.2206   21.1063 F   0  0  0  0  0  0  0  0  0122  0  0
  -21.5628   -3.4510   25.7555 F   0  0  0  0  0  0  0  0  0123  0  0
  -30.0261  -13.1803   20.4553 N   0  0  0  0  0  0  0  0  0124  0  0
  -26.2911  -12.9356   20.3443 N   0  0  0  0  0  0  0  0  0125  0  0
  -25.9236  -11.6675   20.5847 N   0  0  0  0  0  0  0  0  0126  0  0
  -22.0708  -12.7905   22.0005 N   0  0  0  0  0  0  0  0  0127  0  0
  -25.4117  -15.1773   20.4097 N   0  0  0  0  0  0  0  0  0128  0  0
  -31.7916  -14.6724   20.0536 O   0  0  0  0  0  0  0  0  0129  0  0
  -21.6670   -6.9022   21.4423 O   0  0  0  0  0  0  0  0  0130  0  0
  -22.3946  -14.5564   20.6568 O   0  0  0  0  0  0  0  0  0131  0  0
  -24.6048  -31.8614   23.2223 C   0  0  0  0  0  0  0  0  0100  0  0
  -25.8822  -32.4841   23.8616 C   0  0  1  0  0  0  0  0  0101  0  0
  -27.2536  -27.5042   20.1156 C   0  0  0  0  0  0  0  0  0102  0  0
  -25.5726  -33.8762   24.2210 N   0  0  0  0  0  0  0  0  0103  0  0
  -23.4066  -30.4859   21.5461 C   0  0  2  0  0  0  0  0  0104  0  0
  -24.8467  -28.9636   20.1247 C   0  0  0  0  0  0  0  0  0105  0  0
  -22.7412  -29.4652   22.5052 C   0  0  0  0  0  0  0  0  0106  0  0
  -18.0167  -28.1302   22.8626 C   0  0  0  0  0  0  0  0  0107  0  0
  -24.1342  -36.7390   23.2568 C   0  0  0  0  0  0  0  0  0108  0  0
  -25.9141  -30.8882   21.3456 C   0  0  0  0  0  0  0  0  0109  0  0
  -25.9930  -29.5029   20.7208 C   0  0  0  0  0  0  0  0  0110  0  0
  -27.1758  -28.7612   20.7331 C   0  0  0  0  0  0  0  0  0111  0  0
  -26.1032  -26.9836   19.5230 C   0  0  0  0  0  0  0  0  0112  0  0
  -24.9097  -27.7011   19.5331 C   0  0  0  0  0  0  0  0  0113  0  0
  -23.5715  -29.7899   20.1582 C   0  0  0  0  0  0  0  0  0114  0  0
  -25.3990  -36.3212   24.0232 C   0  0  1  0  0  0  0  0  0115  0  0
  -20.5793  -28.3813   23.1004 C   0  0  2  0  0  0  0  0  0116  0  0
  -20.6548  -26.9392   22.5411 C   0  0  0  0  0  0  0  0  0117  0  0
  -19.5615  -26.6407   21.5143 C   0  0  0  0  0  0  0  0  0118  0  0
  -18.1797  -26.7818   22.1673 C   0  0  0  0  0  0  0  0  0119  0  0
  -19.1385  -28.8769   23.2988 C   0  0  0  0  0  0  0  0  0120  0  0
  -18.9183  -30.1286   23.8878 C   0  0  0  0  0  0  0  0  0121  0  0
  -17.6396  -30.6493   24.0352 C   0  0  0  0  0  0  0  0  0122  0  0
  -25.9153  -34.9582   23.4993 C   0  0  0  0  0  0  0  0  0123  0  0
  -16.5415  -29.9068   23.6254 C   0  0  0  0  0  0  0  0  0124  0  0
  -16.7331  -28.6521   23.0586 C   0  0  0  0  0  0  0  0  0125  0  0
  -26.4583  -31.6439   25.0683 C   0  0  0  0  0  0  0  0  0126  0  0
  -25.3807  -31.3179   26.1374 C   0  0  0  0  0  0  0  0  0127  0  0
  -27.0530  -30.3024   24.5680 C   0  0  0  0  0  0  0  0  0128  0  0
  -27.6014  -32.4281   25.7651 C   0  0  0  0  0  0  0  0  0129  0  0
  -27.5629  -37.2220   24.8621 C   0  0  0  0  0  0  0  0  0130  0  0
  -21.4133  -29.3375   22.3735 N   0  0  0  0  0  0  0  0  0131  0  0
  -26.4706  -37.3372   23.9061 N   0  0  0  0  0  0  0  0  0132  0  0
  -24.6674  -31.0544   22.1178 N   0  0  0  0  0  0  0  0  0133  0  0
  -23.4259  -28.8150   23.2971 O   0  0  0  0  0  0  0  0  0134  0  0
  -28.3948  -26.7345   20.0089 O   0  0  0  0  0  0  0  0  0135  0  0
  -26.5870  -34.9065   22.4671 O   0  0  0  0  0  0  0  0  0136  0  0
  -23.5365  -32.1254   23.7833 O   0  0  0  0  0  0  0  0  0137  0  0
  -31.5550  -18.4164   20.2100 C   0  0  0  0  0  0  0  0  0  0  0  0
  -31.3707  -19.4716   19.3166 C   0  0  0  0  0  0  0  0  0  0  0  0
  -30.5231  -18.0435   21.0713 C   0  0  0  0  0  0  0  0  0  0  0  0
  -30.1547  -20.1540   19.2846 C   0  0  0  0  0  0  0  0  0  0  0  0
  -29.1228  -19.7812   20.1459 C   0  0  0  0  0  0  0  0  0  0  0  0
  -29.3070  -18.7259   21.0393 C   0  0  0  0  0  0  0  0  0  0  0  0
  -32.4914  -19.8509   18.4053 C   0  0  0  0  0  0  0  0  0  0  0  0
  -29.9616  -21.2843   18.3234 C   0  0  0  0  0  0  0  0  0  0  0  0
  -30.7660  -16.9068   22.0118 C   0  0  0  0  0  0  0  0  0  0  0  0
  -27.8217  -20.5269   20.0956 C   0  0  0  0  0  0  0  0  0  1  0  0
  -30.1024  -15.6945   21.5868 N   0  0  0  0  0  0  0  0  0  0  0  0
  -28.0280  -18.2607   22.1112 Cl  0  0  0  0  0  0  0  0  0  0  0  0
  -31.4485  -12.4701   19.0860 H   0  0  0  0  0  0  0  0  0  0  0  0
  -30.3970  -11.2460   19.6950 H   0  0  0  0  0  0  0  0  0  0  0  0
  -29.6870  -11.8204   17.4226 H   0  0  0  0  0  0  0  0  0  0  0  0
  -29.6375  -13.5326   17.8649 H   0  0  0  0  0  0  0  0  0  0  0  0
  -27.7830  -11.3650   18.7904 H   0  0  0  0  0  0  0  0  0  0  0  0
  -27.4028  -12.7801   17.8021 H   0  0  0  0  0  0  0  0  0  0  0  0
  -27.7353  -14.2503   19.6136 H   0  0  0  0  0  0  0  0  0  0  0  0
  -28.5890  -11.9550   21.3832 H   0  0  0  0  0  0  0  0  0  0  0  0
  -28.5005  -13.6134   21.8562 H   0  0  0  0  0  0  0  0  0  0  0  0
  -25.2399   -9.5495   22.4318 H   0  0  0  0  0  0  0  0  0  0  0  0
  -23.9663   -7.5070   22.7297 H   0  0  0  0  0  0  0  0  0  0  0  0
  -21.1515   -8.8641   19.9162 H   0  0  0  0  0  0  0  0  0  0  0  0
  -22.4016  -10.9115   19.6476 H   0  0  0  0  0  0  0  0  0  0  0  0
  -21.2319   -7.5552   23.9750 H   0  0  0  0  0  0  0  0  0  0  0  0
  -21.1589   -6.0228   25.8556 H   0  0  0  0  0  0  0  0  0  0  0  0
  -22.0396   -2.8212   23.2809 H   0  0  0  0  0  0  0  0  0  0  0  0
  -22.4401  -11.9703   22.4008 H   0  0  0  0  0  0  0  0  0  0  0  0
  -21.1493  -13.0679   22.2082 H   0  0  0  0  0  0  0  0  0  0  0  0
  -24.6538  -15.7807   20.5848 H   0  0  0  0  0  0  0  0  0  0  0  0
  -26.2762  -15.5453   20.1156 H   0  0  0  0  0  0  0  0  0  0  0  0
  -26.6778  -32.4663   23.1464 H   0  0  0  0  0  0  0  0  0  0  0  0
  -25.0747  -34.0282   25.0566 H   0  0  0  0  0  0  0  0  0  0  0  0
  -22.7881  -31.3489   21.4131 H   0  0  0  0  0  0  0  0  0  0  0  0
  -23.3854  -35.9823   23.3648 H   0  0  0  0  0  0  0  0  0  0  0  0
  -24.3696  -36.8624   22.2204 H   0  0  0  0  0  0  0  0  0  0  0  0
  -23.7669  -37.6632   23.6516 H   0  0  0  0  0  0  0  0  0  0  0  0
  -25.9445  -31.6237   20.5691 H   0  0  0  0  0  0  0  0  0  0  0  0
  -26.7436  -31.0079   22.0108 H   0  0  0  0  0  0  0  0  0  0  0  0
  -28.0090  -29.1452   21.2057 H   0  0  0  0  0  0  0  0  0  0  0  0
  -26.1369  -26.0560   19.0719 H   0  0  0  0  0  0  0  0  0  0  0  0
  -24.0652  -27.2961   19.0997 H   0  0  0  0  0  0  0  0  0  0  0  0
  -23.6156  -30.5365   19.3930 H   0  0  0  0  0  0  0  0  0  0  0  0
  -22.7355  -29.1425   19.9945 H   0  0  0  0  0  0  0  0  0  0  0  0
  -25.1353  -36.2335   25.0565 H   0  0  0  0  0  0  0  0  0  0  0  0
  -21.0070  -28.3206   24.0793 H   0  0  0  0  0  0  0  0  0  0  0  0
  -20.5555  -26.2518   23.3550 H   0  0  0  0  0  0  0  0  0  0  0  0
  -21.5974  -26.8362   22.0454 H   0  0  0  0  0  0  0  0  0  0  0  0
  -19.6810  -25.6422   21.1488 H   0  0  0  0  0  0  0  0  0  0  0  0
  -19.6406  -27.3343   20.7034 H   0  0  0  0  0  0  0  0  0  0  0  0
  -17.4282  -26.6888   21.4113 H   0  0  0  0  0  0  0  0  0  0  0  0
  -18.0803  -26.0130   22.9049 H   0  0  0  0  0  0  0  0  0  0  0  0
  -19.7265  -30.6774   24.2204 H   0  0  0  0  0  0  0  0  0  0  0  0
  -17.5064  -31.5856   24.4483 H   0  0  0  0  0  0  0  0  0  0  0  0
  -15.5878  -30.2839   23.7407 H   0  0  0  0  0  0  0  0  0  0  0  0
  -15.9120  -28.0941   22.7766 H   0  0  0  0  0  0  0  0  0  0  0  0
  -24.5787  -30.7757   25.6817 H   0  0  0  0  0  0  0  0  0  0  0  0
  -25.0041  -32.2289   26.5536 H   0  0  0  0  0  0  0  0  0  0  0  0
  -25.8166  -30.7245   26.9138 H   0  0  0  0  0  0  0  0  0  0  0  0
  -26.2892  -29.7335   24.0803 H   0  0  0  0  0  0  0  0  0  0  0  0
  -27.4336  -29.7484   25.4006 H   0  0  0  0  0  0  0  0  0  0  0  0
  -27.8466  -30.4994   23.8779 H   0  0  0  0  0  0  0  0  0  0  0  0
  -27.2251  -33.3632   26.1242 H   0  0  0  0  0  0  0  0  0  0  0  0
  -28.3902  -32.6065   25.0645 H   0  0  0  0  0  0  0  0  0  0  0  0
  -27.9772  -31.8555   26.5872 H   0  0  0  0  0  0  0  0  0  0  0  0
  -28.2744  -38.0016   24.6863 H   0  0  0  0  0  0  0  0  0  0  0  0
  -28.0396  -36.2711   24.7461 H   0  0  0  0  0  0  0  0  0  0  0  0
  -27.1773  -37.3087   25.8564 H   0  0  0  0  0  0  0  0  0  0  0  0
  -20.9627  -29.9365   21.7352 H   0  0  0  0  0  0  0  0  0  0  0  0
  -26.0447  -38.2561   24.0273 H   0  0  0  0  0  0  0  0  0  0  0  0
  -32.4548  -17.9116   20.2338 H   0  0  0  0  0  0  0  0  0  0  0  0
  -33.3298  -19.2110   18.5855 H   0  0  0  0  0  0  0  0  0  0  0  0
  -32.7722  -20.8669   18.5890 H   0  0  0  0  0  0  0  0  0  0  0  0
  -32.1751  -19.7466   17.3884 H   0  0  0  0  0  0  0  0  0  0  0  0
  -30.8549  -21.4221   17.7508 H   0  0  0  0  0  0  0  0  0  0  0  0
  -29.7439  -22.1805   18.8658 H   0  0  0  0  0  0  0  0  0  0  0  0
  -29.1479  -21.0586   17.6662 H   0  0  0  0  0  0  0  0  0  0  0  0
  -30.4016  -17.1775   22.9808 H   0  0  0  0  0  0  0  0  0  0  0  0
  -31.8186  -16.7156   22.0308 H   0  0  0  0  0  0  0  0  0  0  0  0
  -27.2483  -20.2565   20.9576 H   0  0  0  0  0  0  0  0  0  0  0  0
  -27.3498  -20.2526   19.1753 H   0  0  0  0  0  0  0  0  0  0  0  0
  -29.1577  -15.6073   21.8497 H   0  0  0  0  0  0  0  0  0  0  0  0
  1 25  1  0
  1 30  2  0
  1 81  1  0
  2  3  1  0
  2 25  1  0
  2 83  1  0
  2 84  1  0
  3  4  1  0
  3 85  1  0
  3 86  1  0
  4  5  1  0
  4 87  1  0
  4 88  1  0
  5  6  1  0
  5 26  1  0
  5 89  1  6
  6 25  1  0
  6 90  1  0
  6 91  1  0
  7  8  2  0
  7 26  1  0
  7 29  1  0
  8  9  1  0
  8 22  1  0
  9 10  1  0
  9 27  2  0
 10 11  2  0
 10 15  1  0
 11 12  1  0
 11 92  1  0
 12 13  2  0
 12 93  1  0
 13 14  1  0
 13 31  1  0
 14 15  2  0
 14 94  1  0
 15 95  1  0
 16 17  2  0
 16 21  1  0
 16 31  1  0
 17 18  1  0
 17 96  1  0
 18 19  2  0
 18 97  1  0
 19 20  1  0
 19 24  1  0
 20 21  2  0
 20 98  1  0
 21 23  1  0
 22 28  1  0
 22 32  2  0
 26 27  1  0
 28 99  1  0
 28100  1  0
 29101  1  0
 29102  1  0
 33 34  1  0
 33 66  1  0
 33 70  2  0
 34 36  1  0
 34 59  1  0
 34103  1  6
 35 44  2  0
 35 45  1  0
 35 68  1  0
 36 56  1  0
 36104  1  0
 37 39  1  0
 37 47  1  0
 37 66  1  0
 37105  1  6
 38 43  2  0
 38 46  1  0
 38 47  1  0
 39 64  1  0
 39 67  2  0
 40 52  1  0
 40 53  2  0
 40 58  1  0
 41106  1  0
 41107  1  0
 41108  1  0
 42 43  1  0
 42 66  1  0
 42109  1  0
 42110  1  0
 43 44  1  0
 44111  1  0
 45 46  2  0
 45112  1  0
 46113  1  0
 47114  1  0
 47115  1  0
 48 41  1  0
 48 56  1  0
 48 65  1  0
 48116  1  1
 49 50  1  0
 49 53  1  0
 49 64  1  0
 49117  1  1
 50 51  1  0
 50118  1  0
 50119  1  0
 51 52  1  0
 51120  1  0
 51121  1  0
 52122  1  0
 52123  1  0
 53 54  1  0
 54 55  2  0
 54124  1  0
 55 57  1  0
 55125  1  0
 56 69  2  0
 57 58  2  0
 57126  1  0
 58127  1  0
 59 60  1  0
 59 61  1  0
 59 62  1  0
 60128  1  0
 60129  1  0
 60130  1  0
 61131  1  0
 61132  1  0
 61133  1  0
 62134  1  0
 62135  1  0
 62136  1  0
 63 65  1  0
 63137  1  0
 63138  1  0
 63139  1  0
 64140  1  0
 65141  1  0
 68 80  1  0
 71 72  2  0
 71 73  1  0
 71142  1  0
 72 74  1  0
 72 77  1  0
 73 76  2  0
 73 79  1  0
 74 75  2  0
 74 78  1  0
 75 76  1  0
 75 80  1  0
 76 82  1  0
 77143  1  0
 77144  1  0
 77145  1  0
 78146  1  0
 78147  1  0
 78148  1  0
 79 81  1  0
 79149  1  0
 79150  1  0
 80151  1  0
 80152  1  0
 81153  1  0
M  ISO  4   1 100  68 101  80 101  81 100
M  END
$$$$
21
     RDKit          3D

158167  0  0  0  0  0  0  0  0999 V2000
  -30.7652  -14.3608   20.6636 C   0  0  0  0  0  0  0  0  0100  0  0
  -30.4392  -12.2669   19.3775 C   0  0  0  0  0  0  0  0  0101  0  0
  -29.4791  -12.5281   18.1977 C   0  0  0  0  0  0  0  0  0102  0  0
  -27.9985  -12.3963   18.6038 C   0  0  0  0  0  0  0  0  0103  0  0
  -27.6639  -13.2170   19.8820 C   0  0  2  0  0  0  0  0  0104  0  0
  -28.6795  -12.9602   21.0279 C   0  0  0  0  0  0  0  0  0105  0  0
  -25.2633  -13.8245   20.5754 C   0  0  0  0  0  0  0  0  0106  0  0
  -24.1645  -13.0409   20.9408 C   0  0  0  0  0  0  0  0  0107  0  0
  -24.6400  -11.7009   20.8697 C   0  0  0  0  0  0  0  0  0108  0  0
  -23.9005  -10.4085   21.0420 C   0  0  0  0  0  0  0  0  0109  0  0
  -24.3588   -9.4123   21.9123 C   0  0  0  0  0  0  0  0  0110  0  0
  -23.6296   -8.2350   22.0803 C   0  0  0  0  0  0  0  0  0111  0  0
  -22.4385   -8.0419   21.3657 C   0  0  0  0  0  0  0  0  0112  0  0
  -22.0103   -9.0167   20.4678 C   0  0  0  0  0  0  0  0  0113  0  0
  -22.7317  -10.1925   20.3102 C   0  0  0  0  0  0  0  0  0114  0  0
  -21.6857   -6.0709   22.5391 C   0  0  0  0  0  0  0  0  0115  0  0
  -21.4064   -6.5490   23.8264 C   0  0  0  0  0  0  0  0  0116  0  0
  -21.3635   -5.6677   24.9085 C   0  0  0  0  0  0  0  0  0117  0  0
  -21.5973   -4.3067   24.7088 C   0  0  0  0  0  0  0  0  0118  0  0
  -21.8700   -3.8284   23.4282 C   0  0  0  0  0  0  0  0  0119  0  0
  -21.9144   -4.7056   22.3460 C   0  0  0  0  0  0  0  0  0120  0  0
  -22.8194  -13.5263   21.1763 C   0  0  0  0  0  0  0  0  0121  0  0
  -22.1559   -4.2206   21.1063 F   0  0  0  0  0  0  0  0  0122  0  0
  -21.5628   -3.4510   25.7555 F   0  0  0  0  0  0  0  0  0123  0  0
  -30.0261  -13.1803   20.4553 N   0  0  0  0  0  0  0  0  0124  0  0
  -26.2911  -12.9356   20.3443 N   0  0  0  0  0  0  0  0  0125  0  0
  -25.9236  -11.6675   20.5847 N   0  0  0  0  0  0  0  0  0126  0  0
  -22.0708  -12.7905   22.0005 N   0  0  0  0  0  0  0  0  0127  0  0
  -25.4117  -15.1773   20.4097 N   0  0  0  0  0  0  0  0  0128  0  0
  -31.7916  -14.6724   20.0536 O   0  0  0  0  0  0  0  0  0129  0  0
  -21.6670   -6.9022   21.4423 O   0  0  0  0  0  0  0  0  0130  0  0
  -22.3946  -14.5564   20.6568 O   0  0  0  0  0  0  0  0  0131  0  0
  -24.6048  -31.8614   23.2223 C   0  0  0  0  0  0  0  0  0100  0  0
  -25.8822  -32.4841   23.8616 C   0  0  1  0  0  0  0  0  0101  0  0
  -27.2536  -27.5042   20.1156 C   0  0  0  0  0  0  0  0  0102  0  0
  -25.5726  -33.8762   24.2210 N   0  0  0  0  0  0  0  0  0103  0  0
  -23.4066  -30.4859   21.5461 C   0  0  2  0  0  0  0  0  0104  0  0
  -24.8467  -28.9636   20.1247 C   0  0  0  0  0  0  0  0  0105  0  0
  -22.7412  -29.4652   22.5052 C   0  0  0  0  0  0  0  0  0106  0  0
  -18.0167  -28.1302   22.8626 C   0  0  0  0  0  0  0  0  0107  0  0
  -24.1342  -36.7390   23.2568 C   0  0  0  0  0  0  0  0  0108  0  0
  -25.9141  -30.8882   21.3456 C   0  0  0  0  0  0  0  0  0109  0  0
  -25.9930  -29.5029   20.7208 C   0  0  0  0  0  0  0  0  0110  0  0
  -27.1758  -28.7612   20.7331 C   0  0  0  0  0  0  0  0  0111  0  0
  -26.1032  -26.9836   19.5230 C   0  0  0  0  0  0  0  0  0112  0  0
  -24.9097  -27.7011   19.5331 C   0  0  0  0  0  0  0  0  0113  0  0
  -23.5715  -29.7899   20.1582 C   0  0  0  0  0  0  0  0  0114  0  0
  -25.3990  -36.3212   24.0232 C   0  0  1  0  0  0  0  0  0115  0  0
  -20.5793  -28.3813   23.1004 C   0  0  2  0  0  0  0  0  0116  0  0
  -20.6548  -26.9392   22.5411 C   0  0  0  0  0  0  0  0  0117  0  0
  -19.5615  -26.6407   21.5143 C   0  0  0  0  0  0  0  0  0118  0  0
  -18.1797  -26.7818   22.1673 C   0  0  0  0  0  0  0  0  0119  0  0
  -19.1385  -28.8769   23.2988 C   0  0  0  0  0  0  0  0  0120  0  0
  -18.9183  -30.1286   23.8878 C   0  0  0  0  0  0  0  0  0121  0  0
  -17.6396  -30.6493   24.0352 C   0  0  0  0  0  0  0  0  0122  0  0
  -25.9153  -34.9582   23.4993 C   0  0  0  0  0  0  0  0  0123  0  0
  -16.5415  -29.9068   23.6254 C   0  0  0  0  0  0  0  0  0124  0  0
  -16.7331  -28.6521   23.0586 C   0  0  0  0  0  0  0  0  0125  0  0
  -26.4583  -31.6439   25.0683 C   0  0  0  0  0  0  0  0  0126  0  0
  -25.3807  -31.3179   26.1374 C   0  0  0  0  0  0  0  0  0127  0  0
  -27.0530  -30.3024   24.5680 C   0  0  0  0  0  0  0  0  0128  0  0
  -27.6014  -32.4281   25.7651 C   0  0  0  0  0  0  0  0  0129  0  0
  -27.5629  -37.2220   24.8621 C   0  0  0  0  0  0  0  0  0130  0  0
  -21.4133  -29.3375   22.3735 N   0  0  0  0  0  0  0  0  0131  0  0
  -26.4706  -37.3372   23.9061 N   0  0  0  0  0  0  0  0  0132  0  0
  -24.6674  -31.0544   22.1178 N   0  0  0  0  0  0  0  0  0133  0  0
  -23.4259  -28.8150   23.2971 O   0  0  0  0  0  0  0  0  0134  0  0
  -28.3948  -26.7345   20.0089 O   0  0  0  0  0  0  0  0  0135  0  0
  -26.5870  -34.9065   22.4671 O   0  0  0  0  0  0  0  0  0136  0  0
  -23.5365  -32.1254   23.7833 O   0  0  0  0  0  0  0  0  0137  0  0
  -29.7678  -21.0881   19.5516 C   0  0  0  0  0  0  0  0  0  0  0  0
  -29.8604  -22.4751   19.3523 C   0  0  0  0  0  0  0  0  0  0  0  0
  -29.6245  -23.3466   20.4329 C   0  0  0  0  0  0  0  0  0  0  0  0
  -29.1941  -21.4270   21.8686 C   0  0  0  0  0  0  0  0  0  0  0  0
  -29.2909  -22.8062   21.6869 C   0  0  0  0  0  0  0  0  0  0  0  0
  -29.4318  -20.5680   20.8008 C   0  0  0  0  0  0  0  0  0  0  0  0
  -30.2813  -22.9824   17.9959 C   0  0  0  0  0  0  0  0  0  0  0  0
  -30.0190  -24.4712   17.7896 C   0  0  0  0  0  0  0  0  0  0  0  0
  -30.4709  -25.2666   19.0084 C   0  0  0  0  0  0  0  0  0  0  0  0
  -29.6983  -24.8540   20.2722 C   0  0  1  0  0  0  0  0  0  0  0  0
  -28.8380  -20.8898   23.2198 C   0  0  0  0  0  0  0  0  0  0  0  0
  -28.2912  -25.4650   20.2861 C   0  0  0  0  0  0  0  0  0  1  0  0
  -27.6262  -20.1013   23.1907 N   0  0  0  0  0  0  0  0  0  0  0  0
  -29.0736  -23.6291   22.7567 O   0  0  0  0  0  0  0  0  0  0  0  0
  -29.3292  -18.8543   20.9822 Cl  0  0  0  0  0  0  0  0  0  0  0  0
  -31.4485  -12.4701   19.0860 H   0  0  0  0  0  0  0  0  0  0  0  0
  -30.3970  -11.2460   19.6950 H   0  0  0  0  0  0  0  0  0  0  0  0
  -29.6870  -11.8204   17.4226 H   0  0  0  0  0  0  0  0  0  0  0  0
  -29.6375  -13.5326   17.8649 H   0  0  0  0  0  0  0  0  0  0  0  0
  -27.7830  -11.3650   18.7904 H   0  0  0  0  0  0  0  0  0  0  0  0
  -27.4028  -12.7801   17.8021 H   0  0  0  0  0  0  0  0  0  0  0  0
  -27.7353  -14.2503   19.6136 H   0  0  0  0  0  0  0  0  0  0  0  0
  -28.5890  -11.9550   21.3832 H   0  0  0  0  0  0  0  0  0  0  0  0
  -28.5005  -13.6134   21.8562 H   0  0  0  0  0  0  0  0  0  0  0  0
  -25.2399   -9.5495   22.4318 H   0  0  0  0  0  0  0  0  0  0  0  0
  -23.9663   -7.5070   22.7297 H   0  0  0  0  0  0  0  0  0  0  0  0
  -21.1515   -8.8641   19.9162 H   0  0  0  0  0  0  0  0  0  0  0  0
  -22.4016  -10.9115   19.6476 H   0  0  0  0  0  0  0  0  0  0  0  0
  -21.2319   -7.5552   23.9750 H   0  0  0  0  0  0  0  0  0  0  0  0
  -21.1589   -6.0228   25.8556 H   0  0  0  0  0  0  0  0  0  0  0  0
  -22.0396   -2.8212   23.2809 H   0  0  0  0  0  0  0  0  0  0  0  0
  -22.4401  -11.9703   22.4008 H   0  0  0  0  0  0  0  0  0  0  0  0
  -21.1493  -13.0679   22.2082 H   0  0  0  0  0  0  0  0  0  0  0  0
  -24.6538  -15.7807   20.5848 H   0  0  0  0  0  0  0  0  0  0  0  0
  -26.2762  -15.5453   20.1156 H   0  0  0  0  0  0  0  0  0  0  0  0
  -26.6778  -32.4663   23.1464 H   0  0  0  0  0  0  0  0  0  0  0  0
  -25.0747  -34.0282   25.0566 H   0  0  0  0  0  0  0  0  0  0  0  0
  -22.7881  -31.3489   21.4131 H   0  0  0  0  0  0  0  0  0  0  0  0
  -23.3854  -35.9823   23.3648 H   0  0  0  0  0  0  0  0  0  0  0  0
  -24.3696  -36.8624   22.2204 H   0  0  0  0  0  0  0  0  0  0  0  0
  -23.7669  -37.6632   23.6516 H   0  0  0  0  0  0  0  0  0  0  0  0
  -25.9445  -31.6237   20.5691 H   0  0  0  0  0  0  0  0  0  0  0  0
  -26.7436  -31.0079   22.0108 H   0  0  0  0  0  0  0  0  0  0  0  0
  -28.0090  -29.1452   21.2057 H   0  0  0  0  0  0  0  0  0  0  0  0
  -26.1369  -26.0560   19.0719 H   0  0  0  0  0  0  0  0  0  0  0  0
  -24.0652  -27.2961   19.0997 H   0  0  0  0  0  0  0  0  0  0  0  0
  -23.6156  -30.5365   19.3930 H   0  0  0  0  0  0  0  0  0  0  0  0
  -22.7355  -29.1425   19.9945 H   0  0  0  0  0  0  0  0  0  0  0  0
  -25.1353  -36.2335   25.0565 H   0  0  0  0  0  0  0  0  0  0  0  0
  -21.0070  -28.3206   24.0793 H   0  0  0  0  0  0  0  0  0  0  0  0
  -20.5555  -26.2518   23.3550 H   0  0  0  0  0  0  0  0  0  0  0  0
  -21.5974  -26.8362   22.0454 H   0  0  0  0  0  0  0  0  0  0  0  0
  -19.6810  -25.6422   21.1488 H   0  0  0  0  0  0  0  0  0  0  0  0
  -19.6406  -27.3343   20.7034 H   0  0  0  0  0  0  0  0  0  0  0  0
  -17.4282  -26.6888   21.4113 H   0  0  0  0  0  0  0  0  0  0  0  0
  -18.0803  -26.0130   22.9049 H   0  0  0  0  0  0  0  0  0  0  0  0
  -19.7265  -30.6774   24.2204 H   0  0  0  0  0  0  0  0  0  0  0  0
  -17.5064  -31.5856   24.4483 H   0  0  0  0  0  0  0  0  0  0  0  0
  -15.5878  -30.2839   23.7407 H   0  0  0  0  0  0  0  0  0  0  0  0
  -15.9120  -28.0941   22.7766 H   0  0  0  0  0  0  0  0  0  0  0  0
  -24.5787  -30.7757   25.6817 H   0  0  0  0  0  0  0  0  0  0  0  0
  -25.0041  -32.2289   26.5536 H   0  0  0  0  0  0  0  0  0  0  0  0
  -25.8166  -30.7245   26.9138 H   0  0  0  0  0  0  0  0  0  0  0  0
  -26.2892  -29.7335   24.0803 H   0  0  0  0  0  0  0  0  0  0  0  0
  -27.4336  -29.7484   25.4006 H   0  0  0  0  0  0  0  0  0  0  0  0
  -27.8466  -30.4994   23.8779 H   0  0  0  0  0  0  0  0  0  0  0  0
  -27.2251  -33.3632   26.1242 H   0  0  0  0  0  0  0  0  0  0  0  0
  -28.3902  -32.6065   25.0645 H   0  0  0  0  0  0  0  0  0  0  0  0
  -27.9772  -31.8555   26.5872 H   0  0  0  0  0  0  0  0  0  0  0  0
  -28.2744  -38.0016   24.6863 H   0  0  0  0  0  0  0  0  0  0  0  0
  -28.0396  -36.2711   24.7461 H   0  0  0  0  0  0  0  0  0  0  0  0
  -27.1773  -37.3087   25.8564 H   0  0  0  0  0  0  0  0  0  0  0  0
  -20.9627  -29.9365   21.7352 H   0  0  0  0  0  0  0  0  0  0  0  0
  -26.0447  -38.2561   24.0273 H   0  0  0  0  0  0  0  0  0  0  0  0
  -29.9506  -20.4464   18.7643 H   0  0  0  0  0  0  0  0  0  0  0  0
  -29.7421  -22.4377   17.2493 H   0  0  0  0  0  0  0  0  0  0  0  0
  -31.3390  -22.8380   17.9224 H   0  0  0  0  0  0  0  0  0  0  0  0
  -28.9714  -24.6263   17.6365 H   0  0  0  0  0  0  0  0  0  0  0  0
  -30.5700  -24.8045   16.9351 H   0  0  0  0  0  0  0  0  0  0  0  0
  -30.3052  -26.3076   18.8246 H   0  0  0  0  0  0  0  0  0  0  0  0
  -31.5095  -25.0677   19.1714 H   0  0  0  0  0  0  0  0  0  0  0  0
  -30.2455  -25.2396   21.1070 H   0  0  0  0  0  0  0  0  0  0  0  0
  -28.6991  -21.7109   23.8917 H   0  0  0  0  0  0  0  0  0  0  0  0
  -29.6363  -20.2545   23.5422 H   0  0  0  0  0  0  0  0  0  0  0  0
  -27.8519  -25.3404   21.2538 H   0  0  0  0  0  0  0  0  0  0  0  0
  -27.6703  -24.9787   19.5630 H   0  0  0  0  0  0  0  0  0  0  0  0
  -26.6939  -20.2994   23.4374 H   0  0  0  0  0  0  0  0  0  0  0  0
  -29.1345  -24.5583   22.6530 H   0  0  0  0  0  0  0  0  0  0  0  0
  1 25  1  0
  1 30  2  0
  1 83  1  0
  2  3  1  0
  2 25  1  0
  2 86  1  0
  2 87  1  0
  3  4  1  0
  3 88  1  0
  3 89  1  0
  4  5  1  0
  4 90  1  0
  4 91  1  0
  5  6  1  0
  5 26  1  0
  5 92  1  6
  6 25  1  0
  6 93  1  0
  6 94  1  0
  7  8  2  0
  7 26  1  0
  7 29  1  0
  8  9  1  0
  8 22  1  0
  9 10  1  0
  9 27  2  0
 10 11  2  0
 10 15  1  0
 11 12  1  0
 11 95  1  0
 12 13  2  0
 12 96  1  0
 13 14  1  0
 13 31  1  0
 14 15  2  0
 14 97  1  0
 15 98  1  0
 16 17  2  0
 16 21  1  0
 16 31  1  0
 17 18  1  0
 17 99  1  0
 18 19  2  0
 18100  1  0
 19 20  1  0
 19 24  1  0
 20 21  2  0
 20101  1  0
 21 23  1  0
 22 28  1  0
 22 32  2  0
 26 27  1  0
 28102  1  0
 28103  1  0
 29104  1  0
 29105  1  0
 33 34  1  0
 33 66  1  0
 33 70  2  0
 34 36  1  0
 34 59  1  0
 34106  1  6
 35 44  2  0
 35 45  1  0
 35 68  1  0
 36 56  1  0
 36107  1  0
 37 39  1  0
 37 47  1  0
 37 66  1  0
 37108  1  6
 38 43  2  0
 38 46  1  0
 38 47  1  0
 39 64  1  0
 39 67  2  0
 40 52  1  0
 40 53  2  0
 40 58  1  0
 41109  1  0
 41110  1  0
 41111  1  0
 42 43  1  0
 42 66  1  0
 42112  1  0
 42113  1  0
 43 44  1  0
 44114  1  0
 45 46  2  0
 45115  1  0
 46116  1  0
 47117  1  0
 47118  1  0
 48 41  1  0
 48 56  1  0
 48 65  1  0
 48119  1  1
 49 50  1  0
 49 53  1  0
 49 64  1  0
 49120  1  1
 50 51  1  0
 50121  1  0
 50122  1  0
 51 52  1  0
 51123  1  0
 51124  1  0
 52125  1  0
 52126  1  0
 53 54  1  0
 54 55  2  0
 54127  1  0
 55 57  1  0
 55128  1  0
 56 69  2  0
 57 58  2  0
 57129  1  0
 58130  1  0
 59 60  1  0
 59 61  1  0
 59 62  1  0
 60131  1  0
 60132  1  0
 60133  1  0
 61134  1  0
 61135  1  0
 61136  1  0
 62137  1  0
 62138  1  0
 62139  1  0
 63 65  1  0
 63140  1  0
 63141  1  0
 63142  1  0
 64143  1  0
 65144  1  0
 68 82  1  0
 71 72  2  0
 71 76  1  0
 71145  1  0
 72 73  1  0
 72 77  1  0
 73 75  2  0
 73 80  1  0
 74 75  1  0
 74 76  2  0
 74 81  1  0
 75 84  1  0
 76 85  1  0
 77 78  1  0
 77146  1  0
 77147  1  0
 78 79  1  0
 78148  1  0
 78149  1  0
 79 80  1  0
 79150  1  0
 79151  1  0
 80 82  1  0
 80152  1  1
 81 83  1  0
 81153  1  0
 81154  1  0
 82155  1  0
 82156  1  0
 83157  1  0
 84158  1  0
M  ISO  4   1 100  68 101  82 101  83 100
M  END
$$$$
22
     RDKit          3D

167176  0  0  0  0  0  0  0  0999 V2000
  -30.7652  -14.3608   20.6636 C   0  0  0  0  0  0  0  0  0100  0  0
  -30.4392  -12.2669   19.3775 C   0  0  0  0  0  0  0  0  0101  0  0
  -29.4791  -12.5281   18.1977 C   0  0  0  0  0  0  0  0  0102  0  0
  -27.9985  -12.3963   18.6038 C   0  0  0  0  0  0  0  0  0103  0  0
  -27.6639  -13.2170   19.8820 C   0  0  2  0  0  0  0  0  0104  0  0
  -28.6795  -12.9602   21.0279 C   0  0  0  0  0  0  0  0  0105  0  0
  -25.2633  -13.8245   20.5754 C   0  0  0  0  0  0  0  0  0106  0  0
  -24.1645  -13.0409   20.9408 C   0  0  0  0  0  0  0  0  0107  0  0
  -24.6400  -11.7009   20.8697 C   0  0  0  0  0  0  0  0  0108  0  0
  -23.9005  -10.4085   21.0420 C   0  0  0  0  0  0  0  0  0109  0  0
  -24.3588   -9.4123   21.9123 C   0  0  0  0  0  0  0  0  0110  0  0
  -23.6296   -8.2350   22.0803 C   0  0  0  0  0  0  0  0  0111  0  0
  -22.4385   -8.0419   21.3657 C   0  0  0  0  0  0  0  0  0112  0  0
  -22.0103   -9.0167   20.4678 C   0  0  0  0  0  0  0  0  0113  0  0
  -22.7317  -10.1925   20.3102 C   0  0  0  0  0  0  0  0  0114  0  0
  -21.6857   -6.0709   22.5391 C   0  0  0  0  0  0  0  0  0115  0  0
  -21.4064   -6.5490   23.8264 C   0  0  0  0  0  0  0  0  0116  0  0
  -21.3635   -5.6677   24.9085 C   0  0  0  0  0  0  0  0  0117  0  0
  -21.5973   -4.3067   24.7088 C   0  0  0  0  0  0  0  0  0118  0  0
  -21.8700   -3.8284   23.4282 C   0  0  0  0  0  0  0  0  0119  0  0
  -21.9144   -4.7056   22.3460 C   0  0  0  0  0  0  0  0  0120  0  0
  -22.8194  -13.5263   21.1763 C   0  0  0  0  0  0  0  0  0121  0  0
  -22.1559   -4.2206   21.1063 F   0  0  0  0  0  0  0  0  0122  0  0
  -21.5628   -3.4510   25.7555 F   0  0  0  0  0  0  0  0  0123  0  0
  -30.0261  -13.1803   20.4553 N   0  0  0  0  0  0  0  0  0124  0  0
  -26.2911  -12.9356   20.3443 N   0  0  0  0  0  0  0  0  0125  0  0
  -25.9236  -11.6675   20.5847 N   0  0  0  0  0  0  0  0  0126  0  0
  -22.0708  -12.7905   22.0005 N   0  0  0  0  0  0  0  0  0127  0  0
  -25.4117  -15.1773   20.4097 N   0  0  0  0  0  0  0  0  0128  0  0
  -31.7916  -14.6724   20.0536 O   0  0  0  0  0  0  0  0  0129  0  0
  -21.6670   -6.9022   21.4423 O   0  0  0  0  0  0  0  0  0130  0  0
  -22.3946  -14.5564   20.6568 O   0  0  0  0  0  0  0  0  0131  0  0
  -24.6048  -31.8614   23.2223 C   0  0  0  0  0  0  0  0  0100  0  0
  -25.8822  -32.4841   23.8616 C   0  0  1  0  0  0  0  0  0101  0  0
  -27.2536  -27.5042   20.1156 C   0  0  0  0  0  0  0  0  0102  0  0
  -25.5726  -33.8762   24.2210 N   0  0  0  0  0  0  0  0  0103  0  0
  -23.4066  -30.4859   21.5461 C   0  0  2  0  0  0  0  0  0104  0  0
  -24.8467  -28.9636   20.1247 C   0  0  0  0  0  0  0  0  0105  0  0
  -22.7412  -29.4652   22.5052 C   0  0  0  0  0  0  0  0  0106  0  0
  -18.0167  -28.1302   22.8626 C   0  0  0  0  0  0  0  0  0107  0  0
  -24.1342  -36.7390   23.2568 C   0  0  0  0  0  0  0  0  0108  0  0
  -25.9141  -30.8882   21.3456 C   0  0  0  0  0  0  0  0  0109  0  0
  -25.9930  -29.5029   20.7208 C   0  0  0  0  0  0  0  0  0110  0  0
  -27.1758  -28.7612   20.7331 C   0  0  0  0  0  0  0  0  0111  0  0
  -26.1032  -26.9836   19.5230 C   0  0  0  0  0  0  0  0  0112  0  0
  -24.9097  -27.7011   19.5331 C   0  0  0  0  0  0  0  0  0113  0  0
  -23.5715  -29.7899   20.1582 C   0  0  0  0  0  0  0  0  0114  0  0
  -25.3990  -36.3212   24.0232 C   0  0  1  0  0  0  0  0  0115  0  0
  -20.5793  -28.3813   23.1004 C   0  0  2  0  0  0  0  0  0116  0  0
  -20.6548  -26.9392   22.5411 C   0  0  0  0  0  0  0  0  0117  0  0
  -19.5615  -26.6407   21.5143 C   0  0  0  0  0  0  0  0  0118  0  0
  -18.1797  -26.7818   22.1673 C   0  0  0  0  0  0  0  0  0119  0  0
  -19.1385  -28.8769   23.2988 C   0  0  0  0  0  0  0  0  0120  0  0
  -18.9183  -30.1286   23.8878 C   0  0  0  0  0  0  0  0  0121  0  0
  -17.6396  -30.6493   24.0352 C   0  0  0  0  0  0  0  0  0122  0  0
  -25.9153  -34.9582   23.4993 C   0  0  0  0  0  0  0  0  0123  0  0
  -16.5415  -29.9068   23.6254 C   0  0  0  0  0  0  0  0  0124  0  0
  -16.7331  -28.6521   23.0586 C   0  0  0  0  0  0  0  0  0125  0  0
  -26.4583  -31.6439   25.0683 C   0  0  0  0  0  0  0  0  0126  0  0
  -25.3807  -31.3179   26.1374 C   0  0  0  0  0  0  0  0  0127  0  0
  -27.0530  -30.3024   24.5680 C   0  0  0  0  0  0  0  0  0128  0  0
  -27.6014  -32.4281   25.7651 C   0  0  0  0  0  0  0  0  0129  0  0
  -27.5629  -37.2220   24.8621 C   0  0  0  0  0  0  0  0  0130  0  0
  -21.4133  -29.3375   22.3735 N   0  0  0  0  0  0  0  0  0131  0  0
  -26.4706  -37.3372   23.9061 N   0  0  0  0  0  0  0  0  0132  0  0
  -24.6674  -31.0544   22.1178 N   0  0  0  0  0  0  0  0  0133  0  0
  -23.4259  -28.8150   23.2971 O   0  0  0  0  0  0  0  0  0134  0  0
  -28.3948  -26.7345   20.0089 O   0  0  0  0  0  0  0  0  0135  0  0
  -26.5870  -34.9065   22.4671 O   0  0  0  0  0  0  0  0  0136  0  0
  -23.5365  -32.1254   23.7833 O   0  0  0  0  0  0  0  0  0137  0  0
  -19.4636  -25.7561   20.7874 C   0  0  0  0  0  0  0  0  0  0  0  0
  -24.2049  -22.6715   25.2799 C   0  0  0  0  0  0  0  0  0  0  0  0
  -25.0130  -24.5098   23.9366 C   0  0  0  0  0  0  0  0  0  0  0  0
  -19.1803  -26.4724   23.4687 C   0  0  0  0  0  0  0  0  0  0  0  0
  -20.0527  -24.9773   21.7833 C   0  0  0  0  0  0  0  0  0  0  0  0
  -18.7328  -26.8932   21.1321 C   0  0  0  0  0  0  0  0  0  0  0  0
  -25.2254  -23.2713   24.5421 C   0  0  0  0  0  0  0  0  0  0  0  0
  -22.7595  -24.5488   24.8068 C   0  0  0  0  0  0  0  0  0  0  0  0
  -19.9111  -25.3354   23.1239 C   0  0  0  0  0  0  0  0  0  0  0  0
  -22.9719  -23.3102   25.4123 C   0  0  0  0  0  0  0  0  0  0  0  0
  -23.7800  -25.1486   24.0690 C   0  0  0  0  0  0  0  0  0  0  0  0
  -18.5911  -27.2513   22.4727 C   0  0  0  0  0  0  0  0  0  0  0  0
  -20.8328  -23.7646   21.3964 C   0  0  0  0  0  0  0  0  0  0  0  0
  -18.1113  -27.7098   20.0252 C   0  0  0  0  0  0  0  0  0  0  0  0
  -26.5434  -22.5880   24.4000 C   0  0  0  0  0  0  0  0  0  0  0  0
  -21.4330  -25.2356   24.9487 C   0  0  0  0  0  0  0  0  0  0  0  0
  -19.1313  -28.5904   19.3116 C   0  0  0  0  0  0  0  0  0  1  0  0
  -26.4939  -21.4871   23.4639 N   0  0  0  0  0  0  0  0  0  0  0  0
  -20.4804  -24.5861   24.1092 O   0  0  0  0  0  0  0  0  0  0  0  0
  -21.7361  -22.5320   26.3342 Cl  0  0  0  0  0  0  0  0  0  0  0  0
  -23.5597  -26.6803   23.3023 Cl  0  0  0  0  0  0  0  0  0  0  0  0
  -17.6947  -28.6513   22.9373 Cl  0  0  0  0  0  0  0  0  0  0  0  0
  -31.4485  -12.4701   19.0860 H   0  0  0  0  0  0  0  0  0  0  0  0
  -30.3970  -11.2460   19.6950 H   0  0  0  0  0  0  0  0  0  0  0  0
  -29.6870  -11.8204   17.4226 H   0  0  0  0  0  0  0  0  0  0  0  0
  -29.6375  -13.5326   17.8649 H   0  0  0  0  0  0  0  0  0  0  0  0
  -27.7830  -11.3650   18.7904 H   0  0  0  0  0  0  0  0  0  0  0  0
  -27.4028  -12.7801   17.8021 H   0  0  0  0  0  0  0  0  0  0  0  0
  -27.7353  -14.2503   19.6136 H   0  0  0  0  0  0  0  0  0  0  0  0
  -28.5890  -11.9550   21.3832 H   0  0  0  0  0  0  0  0  0  0  0  0
  -28.5005  -13.6134   21.8562 H   0  0  0  0  0  0  0  0  0  0  0  0
  -25.2399   -9.5495   22.4318 H   0  0  0  0  0  0  0  0  0  0  0  0
  -23.9663   -7.5070   22.7297 H   0  0  0  0  0  0  0  0  0  0  0  0
  -21.1515   -8.8641   19.9162 H   0  0  0  0  0  0  0  0  0  0  0  0
  -22.4016  -10.9115   19.6476 H   0  0  0  0  0  0  0  0  0  0  0  0
  -21.2319   -7.5552   23.9750 H   0  0  0  0  0  0  0  0  0  0  0  0
  -21.1589   -6.0228   25.8556 H   0  0  0  0  0  0  0  0  0  0  0  0
  -22.0396   -2.8212   23.2809 H   0  0  0  0  0  0  0  0  0  0  0  0
  -22.4401  -11.9703   22.4008 H   0  0  0  0  0  0  0  0  0  0  0  0
  -21.1493  -13.0679   22.2082 H   0  0  0  0  0  0  0  0  0  0  0  0
  -24.6538  -15.7807   20.5848 H   0  0  0  0  0  0  0  0  0  0  0  0
  -26.2762  -15.5453   20.1156 H   0  0  0  0  0  0  0  0  0  0  0  0
  -26.6778  -32.4663   23.1464 H   0  0  0  0  0  0  0  0  0  0  0  0
  -25.0747  -34.0282   25.0566 H   0  0  0  0  0  0  0  0  0  0  0  0
  -22.7881  -31.3489   21.4131 H   0  0  0  0  0  0  0  0  0  0  0  0
  -23.3854  -35.9823   23.3648 H   0  0  0  0  0  0  0  0  0  0  0  0
  -24.3696  -36.8624   22.2204 H   0  0  0  0  0  0  0  0  0  0  0  0
  -23.7669  -37.6632   23.6516 H   0  0  0  0  0  0  0  0  0  0  0  0
  -25.9445  -31.6237   20.5691 H   0  0  0  0  0  0  0  0  0  0  0  0
  -26.7436  -31.0079   22.0108 H   0  0  0  0  0  0  0  0  0  0  0  0
  -28.0090  -29.1452   21.2057 H   0  0  0  0  0  0  0  0  0  0  0  0
  -26.1369  -26.0560   19.0719 H   0  0  0  0  0  0  0  0  0  0  0  0
  -24.0652  -27.2961   19.0997 H   0  0  0  0  0  0  0  0  0  0  0  0
  -23.6156  -30.5365   19.3930 H   0  0  0  0  0  0  0  0  0  0  0  0
  -22.7355  -29.1425   19.9945 H   0  0  0  0  0  0  0  0  0  0  0  0
  -25.1353  -36.2335   25.0565 H   0  0  0  0  0  0  0  0  0  0  0  0
  -21.0070  -28.3206   24.0793 H   0  0  0  0  0  0  0  0  0  0  0  0
  -20.5555  -26.2518   23.3550 H   0  0  0  0  0  0  0  0  0  0  0  0
  -21.5974  -26.8362   22.0454 H   0  0  0  0  0  0  0  0  0  0  0  0
  -19.6810  -25.6422   21.1488 H   0  0  0  0  0  0  0  0  0  0  0  0
  -19.6406  -27.3343   20.7034 H   0  0  0  0  0  0  0  0  0  0  0  0
  -17.4282  -26.6888   21.4113 H   0  0  0  0  0  0  0  0  0  0  0  0
  -18.0803  -26.0130   22.9049 H   0  0  0  0  0  0  0  0  0  0  0  0
  -19.7265  -30.6774   24.2204 H   0  0  0  0  0  0  0  0  0  0  0  0
  -17.5064  -31.5856   24.4483 H   0  0  0  0  0  0  0  0  0  0  0  0
  -15.5878  -30.2839   23.7407 H   0  0  0  0  0  0  0  0  0  0  0  0
  -15.9120  -28.0941   22.7766 H   0  0  0  0  0  0  0  0  0  0  0  0
  -24.5787  -30.7757   25.6817 H   0  0  0  0  0  0  0  0  0  0  0  0
  -25.0041  -32.2289   26.5536 H   0  0  0  0  0  0  0  0  0  0  0  0
  -25.8166  -30.7245   26.9138 H   0  0  0  0  0  0  0  0  0  0  0  0
  -26.2892  -29.7335   24.0803 H   0  0  0  0  0  0  0  0  0  0  0  0
  -27.4336  -29.7484   25.4006 H   0  0  0  0  0  0  0  0  0  0  0  0
  -27.8466  -30.4994   23.8779 H   0  0  0  0  0  0  0  0  0  0  0  0
  -27.2251  -33.3632   26.1242 H   0  0  0  0  0  0  0  0  0  0  0  0
  -28.3902  -32.6065   25.0645 H   0  0  0  0  0  0  0  0  0  0  0  0
  -27.9772  -31.8555   26.5872 H   0  0  0  0  0  0  0  0  0  0  0  0
  -28.2744  -38.0016   24.6863 H   0  0  0  0  0  0  0  0  0  0  0  0
  -28.0396  -36.2711   24.7461 H   0  0  0  0  0  0  0  0  0  0  0  0
  -27.1773  -37.3087   25.8564 H   0  0  0  0  0  0  0  0  0  0  0  0
  -20.9627  -29.9365   21.7352 H   0  0  0  0  0  0  0  0  0  0  0  0
  -26.0447  -38.2561   24.0273 H   0  0  0  0  0  0  0  0  0  0  0  0
  -19.5684  -25.4911   19.7955 H   0  0  0  0  0  0  0  0  0  0  0  0
  -24.3621  -21.7552   25.7278 H   0  0  0  0  0  0  0  0  0  0  0  0
  -25.7680  -24.9535   23.3907 H   0  0  0  0  0  0  0  0  0  0  0  0
  -19.0755  -26.7373   24.4606 H   0  0  0  0  0  0  0  0  0  0  0  0
  -20.8252  -23.6604   20.3315 H   0  0  0  0  0  0  0  0  0  0  0  0
  -20.3904  -22.8986   21.8427 H   0  0  0  0  0  0  0  0  0  0  0  0
  -21.8419  -23.8657   21.7377 H   0  0  0  0  0  0  0  0  0  0  0  0
  -17.3508  -28.3349   20.4444 H   0  0  0  0  0  0  0  0  0  0  0  0
  -17.7060  -27.0298   19.3053 H   0  0  0  0  0  0  0  0  0  0  0  0
  -26.8411  -22.2127   25.3568 H   0  0  0  0  0  0  0  0  0  0  0  0
  -27.2443  -23.3044   24.0253 H   0  0  0  0  0  0  0  0  0  0  0  0
  -21.5272  -26.2609   24.6576 H   0  0  0  0  0  0  0  0  0  0  0  0
  -21.1087  -25.1875   25.9672 H   0  0  0  0  0  0  0  0  0  0  0  0
  -18.9890  -29.5849   19.6798 H   0  0  0  0  0  0  0  0  0  0  0  0
  -18.9259  -28.4082   18.2774 H   0  0  0  0  0  0  0  0  0  0  0  0
  -25.6635  -21.5690   22.9415 H   0  0  0  0  0  0  0  0  0  0  0  0
  1 25  1  0
  1 30  2  0
  1 88  1  0
  2  3  1  0
  2 25  1  0
  2 93  1  0
  2 94  1  0
  3  4  1  0
  3 95  1  0
  3 96  1  0
  4  5  1  0
  4 97  1  0
  4 98  1  0
  5  6  1  0
  5 26  1  0
  5 99  1  6
  6 25  1  0
  6100  1  0
  6101  1  0
  7  8  2  0
  7 26  1  0
  7 29  1  0
  8  9  1  0
  8 22  1  0
  9 10  1  0
  9 27  2  0
 10 11  2  0
 10 15  1  0
 11 12  1  0
 11102  1  0
 12 13  2  0
 12103  1  0
 13 14  1  0
 13 31  1  0
 14 15  2  0
 14104  1  0
 15105  1  0
 16 17  2  0
 16 21  1  0
 16 31  1  0
 17 18  1  0
 17106  1  0
 18 19  2  0
 18107  1  0
 19 20  1  0
 19 24  1  0
 20 21  2  0
 20108  1  0
 21 23  1  0
 22 28  1  0
 22 32  2  0
 26 27  1  0
 28109  1  0
 28110  1  0
 29111  1  0
 29112  1  0
 33 34  1  0
 33 66  1  0
 33 70  2  0
 34 36  1  0
 34 59  1  0
 34113  1  6
 35 44  2  0
 35 45  1  0
 35 68  1  0
 36 56  1  0
 36114  1  0
 37 39  1  0
 37 47  1  0
 37 66  1  0
 37115  1  6
 38 43  2  0
 38 46  1  0
 38 47  1  0
 39 64  1  0
 39 67  2  0
 40 52  1  0
 40 53  2  0
 40 58  1  0
 41116  1  0
 41117  1  0
 41118  1  0
 42 43  1  0
 42 66  1  0
 42119  1  0
 42120  1  0
 43 44  1  0
 44121  1  0
 45 46  2  0
 45122  1  0
 46123  1  0
 47124  1  0
 47125  1  0
 48 41  1  0
 48 56  1  0
 48 65  1  0
 48126  1  1
 49 50  1  0
 49 53  1  0
 49 64  1  0
 49127  1  1
 50 51  1  0
 50128  1  0
 50129  1  0
 51 52  1  0
 51130  1  0
 51131  1  0
 52132  1  0
 52133  1  0
 53 54  1  0
 54 55  2  0
 54134  1  0
 55 57  1  0
 55135  1  0
 56 69  2  0
 57 58  2  0
 57136  1  0
 58137  1  0
 59 60  1  0
 59 61  1  0
 59 62  1  0
 60138  1  0
 60139  1  0
 60140  1  0
 61141  1  0
 61142  1  0
 61143  1  0
 62144  1  0
 62145  1  0
 62146  1  0
 63 65  1  0
 63147  1  0
 63148  1  0
 63149  1  0
 64150  1  0
 65151  1  0
 68 87  1  0
 71 75  2  0
 71 76  1  0
 71152  1  0
 72 77  2  0
 72 80  1  0
 72153  1  0
 73 77  1  0
 73 81  2  0
 73154  1  0
 74 79  2  0
 74 82  1  0
 74155  1  0
 75 79  1  0
 75 83  1  0
 76 82  2  0
 76 84  1  0
 77 85  1  0
 78 80  2  0
 78 81  1  0
 78 86  1  0
 79 89  1  0
 80 90  1  0
 81 91  1  0
 82 92  1  0
 83156  1  0
 83157  1  0
 83158  1  0
 84 87  1  0
 84159  1  0
 84160  1  0
 85 88  1  0
 85161  1  0
 85162  1  0
 86 89  1  0
 86163  1  0
 86164  1  0
 87165  1  0
 87166  1  0
 88167  1  0
M  ISO  4   1 100  68 101  87 101  88 100
M  END
$$$$
23
     RDKit          3D

164172  0  0  0  0  0  0  0  0999 V2000
  -30.7652  -14.3608   20.6636 C   0  0  0  0  0  0  0  0  0100  0  0
  -30.4392  -12.2669   19.3775 C   0  0  0  0  0  0  0  0  0101  0  0
  -29.4791  -12.5281   18.1977 C   0  0  0  0  0  0  0  0  0102  0  0
  -27.9985  -12.3963   18.6038 C   0  0  0  0  0  0  0  0  0103  0  0
  -27.6639  -13.2170   19.8820 C   0  0  2  0  0  0  0  0  0104  0  0
  -28.6795  -12.9602   21.0279 C   0  0  0  0  0  0  0  0  0105  0  0
  -25.2633  -13.8245   20.5754 C   0  0  0  0  0  0  0  0  0106  0  0
  -24.1645  -13.0409   20.9408 C   0  0  0  0  0  0  0  0  0107  0  0
  -24.6400  -11.7009   20.8697 C   0  0  0  0  0  0  0  0  0108  0  0
  -23.9005  -10.4085   21.0420 C   0  0  0  0  0  0  0  0  0109  0  0
  -24.3588   -9.4123   21.9123 C   0  0  0  0  0  0  0  0  0110  0  0
  -23.6296   -8.2350   22.0803 C   0  0  0  0  0  0  0  0  0111  0  0
  -22.4385   -8.0419   21.3657 C   0  0  0  0  0  0  0  0  0112  0  0
  -22.0103   -9.0167   20.4678 C   0  0  0  0  0  0  0  0  0113  0  0
  -22.7317  -10.1925   20.3102 C   0  0  0  0  0  0  0  0  0114  0  0
  -21.6857   -6.0709   22.5391 C   0  0  0  0  0  0  0  0  0115  0  0
  -21.4064   -6.5490   23.8264 C   0  0  0  0  0  0  0  0  0116  0  0
  -21.3635   -5.6677   24.9085 C   0  0  0  0  0  0  0  0  0117  0  0
  -21.5973   -4.3067   24.7088 C   0  0  0  0  0  0  0  0  0118  0  0
  -21.8700   -3.8284   23.4282 C   0  0  0  0  0  0  0  0  0119  0  0
  -21.9144   -4.7056   22.3460 C   0  0  0  0  0  0  0  0  0120  0  0
  -22.8194  -13.5263   21.1763 C   0  0  0  0  0  0  0  0  0121  0  0
  -22.1559   -4.2206   21.1063 F   0  0  0  0  0  0  0  0  0122  0  0
  -21.5628   -3.4510   25.7555 F   0  0  0  0  0  0  0  0  0123  0  0
  -30.0261  -13.1803   20.4553 N   0  0  0  0  0  0  0  0  0124  0  0
  -26.2911  -12.9356   20.3443 N   0  0  0  0  0  0  0  0  0125  0  0
  -25.9236  -11.6675   20.5847 N   0  0  0  0  0  0  0  0  0126  0  0
  -22.0708  -12.7905   22.0005 N   0  0  0  0  0  0  0  0  0127  0  0
  -25.4117  -15.1773   20.4097 N   0  0  0  0  0  0  0  0  0128  0  0
  -31.7916  -14.6724   20.0536 O   0  0  0  0  0  0  0  0  0129  0  0
  -21.6670   -6.9022   21.4423 O   0  0  0  0  0  0  0  0  0130  0  0
  -22.3946  -14.5564   20.6568 O   0  0  0  0  0  0  0  0  0131  0  0
  -24.6048  -31.8614   23.2223 C   0  0  0  0  0  0  0  0  0100  0  0
  -25.8822  -32.4841   23.8616 C   0  0  1  0  0  0  0  0  0101  0  0
  -27.2536  -27.5042   20.1156 C   0  0  0  0  0  0  0  0  0102  0  0
  -25.5726  -33.8762   24.2210 N   0  0  0  0  0  0  0  0  0103  0  0
  -23.4066  -30.4859   21.5461 C   0  0  2  0  0  0  0  0  0104  0  0
  -24.8467  -28.9636   20.1247 C   0  0  0  0  0  0  0  0  0105  0  0
  -22.7412  -29.4652   22.5052 C   0  0  0  0  0  0  0  0  0106  0  0
  -18.0167  -28.1302   22.8626 C   0  0  0  0  0  0  0  0  0107  0  0
  -24.1342  -36.7390   23.2568 C   0  0  0  0  0  0  0  0  0108  0  0
  -25.9141  -30.8882   21.3456 C   0  0  0  0  0  0  0  0  0109  0  0
  -25.9930  -29.5029   20.7208 C   0  0  0  0  0  0  0  0  0110  0  0
  -27.1758  -28.7612   20.7331 C   0  0  0  0  0  0  0  0  0111  0  0
  -26.1032  -26.9836   19.5230 C   0  0  0  0  0  0  0  0  0112  0  0
  -24.9097  -27.7011   19.5331 C   0  0  0  0  0  0  0  0  0113  0  0
  -23.5715  -29.7899   20.1582 C   0  0  0  0  0  0  0  0  0114  0  0
  -25.3990  -36.3212   24.0232 C   0  0  1  0  0  0  0  0  0115  0  0
  -20.5793  -28.3813   23.1004 C   0  0  2  0  0  0  0  0  0116  0  0
  -20.6548  -26.9392   22.5411 C   0  0  0  0  0  0  0  0  0117  0  0
  -19.5615  -26.6407   21.5143 C   0  0  0  0  0  0  0  0  0118  0  0
  -18.1797  -26.7818   22.1673 C   0  0  0  0  0  0  0  0  0119  0  0
  -19.1385  -28.8769   23.2988 C   0  0  0  0  0  0  0  0  0120  0  0
  -18.9183  -30.1286   23.8878 C   0  0  0  0  0  0  0  0  0121  0  0
  -17.6396  -30.6493   24.0352 C   0  0  0  0  0  0  0  0  0122  0  0
  -25.9153  -34.9582   23.4993 C   0  0  0  0  0  0  0  0  0123  0  0
  -16.5415  -29.9068   23.6254 C   0  0  0  0  0  0  0  0  0124  0  0
  -16.7331  -28.6521   23.0586 C   0  0  0  0  0  0  0  0  0125  0  0
  -26.4583  -31.6439   25.0683 C   0  0  0  0  0  0  0  0  0126  0  0
  -25.3807  -31.3179   26.1374 C   0  0  0  0  0  0  0  0  0127  0  0
  -27.0530  -30.3024   24.5680 C   0  0  0  0  0  0  0  0  0128  0  0
  -27.6014  -32.4281   25.7651 C   0  0  0  0  0  0  0  0  0129  0  0
  -27.5629  -37.2220   24.8621 C   0  0  0  0  0  0  0  0  0130  0  0
  -21.4133  -29.3375   22.3735 N   0  0  0  0  0  0  0  0  0131  0  0
  -26.4706  -37.3372   23.9061 N   0  0  0  0  0  0  0  0  0132  0  0
  -24.6674  -31.0544   22.1178 N   0  0  0  0  0  0  0  0  0133  0  0
  -23.4259  -28.8150   23.2971 O   0  0  0  0  0  0  0  0  0134  0  0
  -28.3948  -26.7345   20.0089 O   0  0  0  0  0  0  0  0  0135  0  0
  -26.5870  -34.9065   22.4671 O   0  0  0  0  0  0  0  0  0136  0  0
  -23.5365  -32.1254   23.7833 O   0  0  0  0  0  0  0  0  0137  0  0
  -27.5415  -17.8574   22.5190 C   0  0  0  0  0  0  0  0  0  0  0  0
  -26.8780  -18.2456   23.6776 C   0  0  0  0  0  0  0  0  0  0  0  0
  -28.3582  -18.7657   21.8547 C   0  0  0  0  0  0  0  0  0  0  0  0
  -27.0630  -19.5431   24.1271 C   0  0  0  0  0  0  0  0  0  0  0  0
  -28.4768  -20.0400   22.3857 C   0  0  0  0  0  0  0  0  0  0  0  0
  -26.0013  -17.2772   24.3934 C   0  0  0  0  0  0  0  0  0  0  0  0
  -29.0673  -18.3451   20.6129 C   0  0  0  0  0  0  0  0  0  0  0  0
  -26.3680  -20.0198   25.3775 C   0  0  0  0  0  0  0  0  0  0  0  0
  -30.5533  -17.9873   20.8157 C   0  0  0  0  0  0  0  0  0  0  0  0
  -26.9181  -21.3410   25.9263 C   0  0  0  0  0  0  0  0  0  0  0  0
  -26.2535  -21.7684   27.2356 C   0  0  0  0  0  0  0  0  0  0  0  0
  -30.7980  -16.8712   21.8289 C   0  0  0  0  0  0  0  0  0  0  0  0
  -26.7966  -23.1027   27.7287 C   0  0  0  0  0  0  0  0  0  1  0  0
  -27.8481  -20.4536   23.5088 N   0  0  0  0  0  0  0  0  0  0  0  0
  -30.1237  -15.6428   21.4720 N   0  0  0  0  0  0  0  0  0  0  0  0
  -29.4554  -21.2517   21.6559 Cl  0  0  0  0  0  0  0  0  0  0  0  0
  -31.4485  -12.4701   19.0860 H   0  0  0  0  0  0  0  0  0  0  0  0
  -30.3970  -11.2460   19.6950 H   0  0  0  0  0  0  0  0  0  0  0  0
  -29.6870  -11.8204   17.4226 H   0  0  0  0  0  0  0  0  0  0  0  0
  -29.6375  -13.5326   17.8649 H   0  0  0  0  0  0  0  0  0  0  0  0
  -27.7830  -11.3650   18.7904 H   0  0  0  0  0  0  0  0  0  0  0  0
  -27.4028  -12.7801   17.8021 H   0  0  0  0  0  0  0  0  0  0  0  0
  -27.7353  -14.2503   19.6136 H   0  0  0  0  0  0  0  0  0  0  0  0
  -28.5890  -11.9550   21.3832 H   0  0  0  0  0  0  0  0  0  0  0  0
  -28.5005  -13.6134   21.8562 H   0  0  0  0  0  0  0  0  0  0  0  0
  -25.2399   -9.5495   22.4318 H   0  0  0  0  0  0  0  0  0  0  0  0
  -23.9663   -7.5070   22.7297 H   0  0  0  0  0  0  0  0  0  0  0  0
  -21.1515   -8.8641   19.9162 H   0  0  0  0  0  0  0  0  0  0  0  0
  -22.4016  -10.9115   19.6476 H   0  0  0  0  0  0  0  0  0  0  0  0
  -21.2319   -7.5552   23.9750 H   0  0  0  0  0  0  0  0  0  0  0  0
  -21.1589   -6.0228   25.8556 H   0  0  0  0  0  0  0  0  0  0  0  0
  -22.0396   -2.8212   23.2809 H   0  0  0  0  0  0  0  0  0  0  0  0
  -22.4401  -11.9703   22.4008 H   0  0  0  0  0  0  0  0  0  0  0  0
  -21.1493  -13.0679   22.2082 H   0  0  0  0  0  0  0  0  0  0  0  0
  -24.6538  -15.7807   20.5848 H   0  0  0  0  0  0  0  0  0  0  0  0
  -26.2762  -15.5453   20.1156 H   0  0  0  0  0  0  0  0  0  0  0  0
  -26.6778  -32.4663   23.1464 H   0  0  0  0  0  0  0  0  0  0  0  0
  -25.0747  -34.0282   25.0566 H   0  0  0  0  0  0  0  0  0  0  0  0
  -22.7881  -31.3489   21.4131 H   0  0  0  0  0  0  0  0  0  0  0  0
  -23.3854  -35.9823   23.3648 H   0  0  0  0  0  0  0  0  0  0  0  0
  -24.3696  -36.8624   22.2204 H   0  0  0  0  0  0  0  0  0  0  0  0
  -23.7669  -37.6632   23.6516 H   0  0  0  0  0  0  0  0  0  0  0  0
  -25.9445  -31.6237   20.5691 H   0  0  0  0  0  0  0  0  0  0  0  0
  -26.7436  -31.0079   22.0108 H   0  0  0  0  0  0  0  0  0  0  0  0
  -28.0090  -29.1452   21.2057 H   0  0  0  0  0  0  0  0  0  0  0  0
  -26.1369  -26.0560   19.0719 H   0  0  0  0  0  0  0  0  0  0  0  0
  -24.0652  -27.2961   19.0997 H   0  0  0  0  0  0  0  0  0  0  0  0
  -23.6156  -30.5365   19.3930 H   0  0  0  0  0  0  0  0  0  0  0  0
  -22.7355  -29.1425   19.9945 H   0  0  0  0  0  0  0  0  0  0  0  0
  -25.1353  -36.2335   25.0565 H   0  0  0  0  0  0  0  0  0  0  0  0
  -21.0070  -28.3206   24.0793 H   0  0  0  0  0  0  0  0  0  0  0  0
  -20.5555  -26.2518   23.3550 H   0  0  0  0  0  0  0  0  0  0  0  0
  -21.5974  -26.8362   22.0454 H   0  0  0  0  0  0  0  0  0  0  0  0
  -19.6810  -25.6422   21.1488 H   0  0  0  0  0  0  0  0  0  0  0  0
  -19.6406  -27.3343   20.7034 H   0  0  0  0  0  0  0  0  0  0  0  0
  -17.4282  -26.6888   21.4113 H   0  0  0  0  0  0  0  0  0  0  0  0
  -18.0803  -26.0130   22.9049 H   0  0  0  0  0  0  0  0  0  0  0  0
  -19.7265  -30.6774   24.2204 H   0  0  0  0  0  0  0  0  0  0  0  0
  -17.5064  -31.5856   24.4483 H   0  0  0  0  0  0  0  0  0  0  0  0
  -15.5878  -30.2839   23.7407 H   0  0  0  0  0  0  0  0  0  0  0  0
  -15.9120  -28.0941   22.7766 H   0  0  0  0  0  0  0  0  0  0  0  0
  -24.5787  -30.7757   25.6817 H   0  0  0  0  0  0  0  0  0  0  0  0
  -25.0041  -32.2289   26.5536 H   0  0  0  0  0  0  0  0  0  0  0  0
  -25.8166  -30.7245   26.9138 H   0  0  0  0  0  0  0  0  0  0  0  0
  -26.2892  -29.7335   24.0803 H   0  0  0  0  0  0  0  0  0  0  0  0
  -27.4336  -29.7484   25.4006 H   0  0  0  0  0  0  0  0  0  0  0  0
  -27.8466  -30.4994   23.8779 H   0  0  0  0  0  0  0  0  0  0  0  0
  -27.2251  -33.3632   26.1242 H   0  0  0  0  0  0  0  0  0  0  0  0
  -28.3902  -32.6065   25.0645 H   0  0  0  0  0  0  0  0  0  0  0  0
  -27.9772  -31.8555   26.5872 H   0  0  0  0  0  0  0  0  0  0  0  0
  -28.2744  -38.0016   24.6863 H   0  0  0  0  0  0  0  0  0  0  0  0
  -28.0396  -36.2711   24.7461 H   0  0  0  0  0  0  0  0  0  0  0  0
  -27.1773  -37.3087   25.8564 H   0  0  0  0  0  0  0  0  0  0  0  0
  -20.9627  -29.9365   21.7352 H   0  0  0  0  0  0  0  0  0  0  0  0
  -26.0447  -38.2561   24.0273 H   0  0  0  0  0  0  0  0  0  0  0  0
  -27.4282  -16.8989   22.1536 H   0  0  0  0  0  0  0  0  0  0  0  0
  -26.0049  -16.3416   23.8743 H   0  0  0  0  0  0  0  0  0  0  0  0
  -25.0029  -17.6603   24.4311 H   0  0  0  0  0  0  0  0  0  0  0  0
  -26.3663  -17.1341   25.3890 H   0  0  0  0  0  0  0  0  0  0  0  0
  -29.0099  -19.1473   19.9072 H   0  0  0  0  0  0  0  0  0  0  0  0
  -28.5831  -17.4536   20.2729 H   0  0  0  0  0  0  0  0  0  0  0  0
  -26.4787  -19.2691   26.1319 H   0  0  0  0  0  0  0  0  0  0  0  0
  -25.3444  -20.1925   25.1182 H   0  0  0  0  0  0  0  0  0  0  0  0
  -31.0662  -18.8639   21.1523 H   0  0  0  0  0  0  0  0  0  0  0  0
  -30.9141  -17.6306   19.8736 H   0  0  0  0  0  0  0  0  0  0  0  0
  -26.7568  -22.1067   25.1965 H   0  0  0  0  0  0  0  0  0  0  0  0
  -27.9584  -21.1944   26.1290 H   0  0  0  0  0  0  0  0  0  0  0  0
  -26.4387  -21.0217   27.9792 H   0  0  0  0  0  0  0  0  0  0  0  0
  -25.2040  -21.8784   27.0586 H   0  0  0  0  0  0  0  0  0  0  0  0
  -30.4428  -17.1923   22.7858 H   0  0  0  0  0  0  0  0  0  0  0  0
  -31.8492  -16.6722   21.8464 H   0  0  0  0  0  0  0  0  0  0  0  0
  -27.6858  -22.9862   28.3123 H   0  0  0  0  0  0  0  0  0  0  0  0
  -26.1536  -23.6561   28.3808 H   0  0  0  0  0  0  0  0  0  0  0  0
  -29.1800  -15.5651   21.7414 H   0  0  0  0  0  0  0  0  0  0  0  0
  1 25  1  0
  1 30  2  0
  1 85  1  0
  2  3  1  0
  2 25  1  0
  2 87  1  0
  2 88  1  0
  3  4  1  0
  3 89  1  0
  3 90  1  0
  4  5  1  0
  4 91  1  0
  4 92  1  0
  5  6  1  0
  5 26  1  0
  5 93  1  6
  6 25  1  0
  6 94  1  0
  6 95  1  0
  7  8  2  0
  7 26  1  0
  7 29  1  0
  8  9  1  0
  8 22  1  0
  9 10  1  0
  9 27  2  0
 10 11  2  0
 10 15  1  0
 11 12  1  0
 11 96  1  0
 12 13  2  0
 12 97  1  0
 13 14  1  0
 13 31  1  0
 14 15  2  0
 14 98  1  0
 15 99  1  0
 16 17  2  0
 16 21  1  0
 16 31  1  0
 17 18  1  0
 17100  1  0
 18 19  2  0
 18101  1  0
 19 20  1  0
 19 24  1  0
 20 21  2  0
 20102  1  0
 21 23  1  0
 22 28  1  0
 22 32  2  0
 26 27  1  0
 28103  1  0
 28104  1  0
 29105  1  0
 29106  1  0
 33 34  1  0
 33 66  1  0
 33 70  2  0
 34 36  1  0
 34 59  1  0
 34107  1  6
 35 44  2  0
 35 45  1  0
 35 68  1  0
 36 56  1  0
 36108  1  0
 37 39  1  0
 37 47  1  0
 37 66  1  0
 37109  1  6
 38 43  2  0
 38 46  1  0
 38 47  1  0
 39 64  1  0
 39 67  2  0
 40 52  1  0
 40 53  2  0
 40 58  1  0
 41110  1  0
 41111  1  0
 41112  1  0
 42 43  1  0
 42 66  1  0
 42113  1  0
 42114  1  0
 43 44  1  0
 44115  1  0
 45 46  2  0
 45116  1  0
 46117  1  0
 47118  1  0
 47119  1  0
 48 41  1  0
 48 56  1  0
 48 65  1  0
 48120  1  1
 49 50  1  0
 49 53  1  0
 49 64  1  0
 49121  1  1
 50 51  1  0
 50122  1  0
 50123  1  0
 51 52  1  0
 51124  1  0
 51125  1  0
 52126  1  0
 52127  1  0
 53 54  1  0
 54 55  2  0
 54128  1  0
 55 57  1  0
 55129  1  0
 56 69  2  0
 57 58  2  0
 57130  1  0
 58131  1  0
 59 60  1  0
 59 61  1  0
 59 62  1  0
 60132  1  0
 60133  1  0
 60134  1  0
 61135  1  0
 61136  1  0
 61137  1  0
 62138  1  0
 62139  1  0
 62140  1  0
 63 65  1  0
 63141  1  0
 63142  1  0
 63143  1  0
 64144  1  0
 65145  1  0
 68 83  1  0
 71 72  2  0
 71 73  1  0
 71146  1  0
 72 74  1  0
 72 76  1  0
 73 75  2  0
 73 77  1  0
 74 78  1  0
 74 84  2  0
 75 84  1  0
 75 86  1  0
 76147  1  0
 76148  1  0
 76149  1  0
 77 79  1  0
 77150  1  0
 77151  1  0
 78 80  1  0
 78152  1  0
 78153  1  0
 79 82  1  0
 79154  1  0
 79155  1  0
 80 81  1  0
 80156  1  0
 80157  1  0
 81 83  1  0
 81158  1  0
 81159  1  0
 82 85  1  0
 82160  1  0
 82161  1  0
 83162  1  0
 83163  1  0
 85164  1  0
M  ISO  4   1 100  68 101  83 101  85 100
M  END
$$$$
24
     RDKit          3D

153161  0  0  0  0  0  0  0  0999 V2000
  -30.7652  -14.3608   20.6636 C   0  0  0  0  0  0  0  0  0100  0  0
  -30.4392  -12.2669   19.3775 C   0  0  0  0  0  0  0  0  0101  0  0
  -29.4791  -12.5281   18.1977 C   0  0  0  0  0  0  0  0  0102  0  0
  -27.9985  -12.3963   18.6038 C   0  0  0  0  0  0  0  0  0103  0  0
  -27.6639  -13.2170   19.8820 C   0  0  2  0  0  0  0  0  0104  0  0
  -28.6795  -12.9602   21.0279 C   0  0  0  0  0  0  0  0  0105  0  0
  -25.2633  -13.8245   20.5754 C   0  0  0  0  0  0  0  0  0106  0  0
  -24.1645  -13.0409   20.9408 C   0  0  0  0  0  0  0  0  0107  0  0
  -24.6400  -11.7009   20.8697 C   0  0  0  0  0  0  0  0  0108  0  0
  -23.9005  -10.4085   21.0420 C   0  0  0  0  0  0  0  0  0109  0  0
  -24.3588   -9.4123   21.9123 C   0  0  0  0  0  0  0  0  0110  0  0
  -23.6296   -8.2350   22.0803 C   0  0  0  0  0  0  0  0  0111  0  0
  -22.4385   -8.0419   21.3657 C   0  0  0  0  0  0  0  0  0112  0  0
  -22.0103   -9.0167   20.4678 C   0  0  0  0  0  0  0  0  0113  0  0
  -22.7317  -10.1925   20.3102 C   0  0  0  0  0  0  0  0  0114  0  0
  -21.6857   -6.0709   22.5391 C   0  0  0  0  0  0  0  0  0115  0  0
  -21.4064   -6.5490   23.8264 C   0  0  0  0  0  0  0  0  0116  0  0
  -21.3635   -5.6677   24.9085 C   0  0  0  0  0  0  0  0  0117  0  0
  -21.5973   -4.3067   24.7088 C   0  0  0  0  0  0  0  0  0118  0  0
  -21.8700   -3.8284   23.4282 C   0  0  0  0  0  0  0  0  0119  0  0
  -21.9144   -4.7056   22.3460 C   0  0  0  0  0  0  0  0  0120  0  0
  -22.8194  -13.5263   21.1763 C   0  0  0  0  0  0  0  0  0121  0  0
  -22.1559   -4.2206   21.1063 F   0  0  0  0  0  0  0  0  0122  0  0
  -21.5628   -3.4510   25.7555 F   0  0  0  0  0  0  0  0  0123  0  0
  -30.0261  -13.1803   20.4553 N   0  0  0  0  0  0  0  0  0124  0  0
  -26.2911  -12.9356   20.3443 N   0  0  0  0  0  0  0  0  0125  0  0
  -25.9236  -11.6675   20.5847 N   0  0  0  0  0  0  0  0  0126  0  0
  -22.0708  -12.7905   22.0005 N   0  0  0  0  0  0  0  0  0127  0  0
  -25.4117  -15.1773   20.4097 N   0  0  0  0  0  0  0  0  0128  0  0
  -31.7916  -14.6724   20.0536 O   0  0  0  0  0  0  0  0  0129  0  0
  -21.6670   -6.9022   21.4423 O   0  0  0  0  0  0  0  0  0130  0  0
  -22.3946  -14.5564   20.6568 O   0  0  0  0  0  0  0  0  0131  0  0
  -24.6048  -31.8614   23.2223 C   0  0  0  0  0  0  0  0  0100  0  0
  -25.8822  -32.4841   23.8616 C   0  0  1  0  0  0  0  0  0101  0  0
  -27.2536  -27.5042   20.1156 C   0  0  0  0  0  0  0  0  0102  0  0
  -25.5726  -33.8762   24.2210 N   0  0  0  0  0  0  0  0  0103  0  0
  -23.4066  -30.4859   21.5461 C   0  0  2  0  0  0  0  0  0104  0  0
  -24.8467  -28.9636   20.1247 C   0  0  0  0  0  0  0  0  0105  0  0
  -22.7412  -29.4652   22.5052 C   0  0  0  0  0  0  0  0  0106  0  0
  -18.0167  -28.1302   22.8626 C   0  0  0  0  0  0  0  0  0107  0  0
  -24.1342  -36.7390   23.2568 C   0  0  0  0  0  0  0  0  0108  0  0
  -25.9141  -30.8882   21.3456 C   0  0  0  0  0  0  0  0  0109  0  0
  -25.9930  -29.5029   20.7208 C   0  0  0  0  0  0  0  0  0110  0  0
  -27.1758  -28.7612   20.7331 C   0  0  0  0  0  0  0  0  0111  0  0
  -26.1032  -26.9836   19.5230 C   0  0  0  0  0  0  0  0  0112  0  0
  -24.9097  -27.7011   19.5331 C   0  0  0  0  0  0  0  0  0113  0  0
  -23.5715  -29.7899   20.1582 C   0  0  0  0  0  0  0  0  0114  0  0
  -25.3990  -36.3212   24.0232 C   0  0  1  0  0  0  0  0  0115  0  0
  -20.5793  -28.3813   23.1004 C   0  0  2  0  0  0  0  0  0116  0  0
  -20.6548  -26.9392   22.5411 C   0  0  0  0  0  0  0  0  0117  0  0
  -19.5615  -26.6407   21.5143 C   0  0  0  0  0  0  0  0  0118  0  0
  -18.1797  -26.7818   22.1673 C   0  0  0  0  0  0  0  0  0119  0  0
  -19.1385  -28.8769   23.2988 C   0  0  0  0  0  0  0  0  0120  0  0
  -18.9183  -30.1286   23.8878 C   0  0  0  0  0  0  0  0  0121  0  0
  -17.6396  -30.6493   24.0352 C   0  0  0  0  0  0  0  0  0122  0  0
  -25.9153  -34.9582   23.4993 C   0  0  0  0  0  0  0  0  0123  0  0
  -16.5415  -29.9068   23.6254 C   0  0  0  0  0  0  0  0  0124  0  0
  -16.7331  -28.6521   23.0586 C   0  0  0  0  0  0  0  0  0125  0  0
  -26.4583  -31.6439   25.0683 C   0  0  0  0  0  0  0  0  0126  0  0
  -25.3807  -31.3179   26.1374 C   0  0  0  0  0  0  0  0  0127  0  0
  -27.0530  -30.3024   24.5680 C   0  0  0  0  0  0  0  0  0128  0  0
  -27.6014  -32.4281   25.7651 C   0  0  0  0  0  0  0  0  0129  0  0
  -27.5629  -37.2220   24.8621 C   0  0  0  0  0  0  0  0  0130  0  0
  -21.4133  -29.3375   22.3735 N   0  0  0  0  0  0  0  0  0131  0  0
  -26.4706  -37.3372   23.9061 N   0  0  0  0  0  0  0  0  0132  0  0
  -24.6674  -31.0544   22.1178 N   0  0  0  0  0  0  0  0  0133  0  0
  -23.4259  -28.8150   23.2971 O   0  0  0  0  0  0  0  0  0134  0  0
  -28.3948  -26.7345   20.0089 O   0  0  0  0  0  0  0  0  0135  0  0
  -26.5870  -34.9065   22.4671 O   0  0  0  0  0  0  0  0  0136  0  0
  -23.5365  -32.1254   23.7833 O   0  0  0  0  0  0  0  0  0137  0  0
  -29.3875  -23.2162   19.0841 C   0  0  0  0  0  0  0  0  0  0  0  0
  -30.9890  -21.4504   19.4765 C   0  0  0  0  0  0  0  0  0  0  0  0
  -30.3579  -23.9432   18.3946 C   0  0  0  0  0  0  0  0  0  0  0  0
  -31.6438  -23.4237   18.2460 C   0  0  0  0  0  0  0  0  0  0  0  0
  -29.7031  -21.9698   19.6251 C   0  0  0  0  0  0  0  0  0  0  0  0
  -31.9594  -22.1773   18.7869 C   0  0  0  0  0  0  0  0  0  0  0  0
  -32.6968  -24.1857   17.5102 C   0  0  0  0  0  0  0  0  0  0  0  0
  -29.9932  -25.2879   17.8181 C   0  0  0  0  0  0  0  0  0  0  0  0
  -30.5277  -26.4708   18.6284 C   0  0  0  0  0  0  0  0  0  0  0  0
  -29.9481  -26.5496   20.0360 C   0  0  0  0  0  0  0  0  0  1  0  0
  -28.7174  -21.2310   20.3254 N   0  0  0  0  0  0  0  0  0  0  0  0
  -33.1916  -21.6680   18.6474 F   0  0  0  0  0  0  0  0  0  0  0  0
  -31.4485  -12.4701   19.0860 H   0  0  0  0  0  0  0  0  0  0  0  0
  -30.3970  -11.2460   19.6950 H   0  0  0  0  0  0  0  0  0  0  0  0
  -29.6870  -11.8204   17.4226 H   0  0  0  0  0  0  0  0  0  0  0  0
  -29.6375  -13.5326   17.8649 H   0  0  0  0  0  0  0  0  0  0  0  0
  -27.7830  -11.3650   18.7904 H   0  0  0  0  0  0  0  0  0  0  0  0
  -27.4028  -12.7801   17.8021 H   0  0  0  0  0  0  0  0  0  0  0  0
  -27.7353  -14.2503   19.6136 H   0  0  0  0  0  0  0  0  0  0  0  0
  -28.5890  -11.9550   21.3832 H   0  0  0  0  0  0  0  0  0  0  0  0
  -28.5005  -13.6134   21.8562 H   0  0  0  0  0  0  0  0  0  0  0  0
  -25.2399   -9.5495   22.4318 H   0  0  0  0  0  0  0  0  0  0  0  0
  -23.9663   -7.5070   22.7297 H   0  0  0  0  0  0  0  0  0  0  0  0
  -21.1515   -8.8641   19.9162 H   0  0  0  0  0  0  0  0  0  0  0  0
  -22.4016  -10.9115   19.6476 H   0  0  0  0  0  0  0  0  0  0  0  0
  -21.2319   -7.5552   23.9750 H   0  0  0  0  0  0  0  0  0  0  0  0
  -21.1589   -6.0228   25.8556 H   0  0  0  0  0  0  0  0  0  0  0  0
  -22.0396   -2.8212   23.2809 H   0  0  0  0  0  0  0  0  0  0  0  0
  -22.4401  -11.9703   22.4008 H   0  0  0  0  0  0  0  0  0  0  0  0
  -21.1493  -13.0679   22.2082 H   0  0  0  0  0  0  0  0  0  0  0  0
  -24.6538  -15.7807   20.5848 H   0  0  0  0  0  0  0  0  0  0  0  0
  -26.2762  -15.5453   20.1156 H   0  0  0  0  0  0  0  0  0  0  0  0
  -26.6778  -32.4663   23.1464 H   0  0  0  0  0  0  0  0  0  0  0  0
  -25.0747  -34.0282   25.0566 H   0  0  0  0  0  0  0  0  0  0  0  0
  -22.7881  -31.3489   21.4131 H   0  0  0  0  0  0  0  0  0  0  0  0
  -23.3854  -35.9823   23.3648 H   0  0  0  0  0  0  0  0  0  0  0  0
  -24.3696  -36.8624   22.2204 H   0  0  0  0  0  0  0  0  0  0  0  0
  -23.7669  -37.6632   23.6516 H   0  0  0  0  0  0  0  0  0  0  0  0
  -25.9445  -31.6237   20.5691 H   0  0  0  0  0  0  0  0  0  0  0  0
  -26.7436  -31.0079   22.0108 H   0  0  0  0  0  0  0  0  0  0  0  0
  -28.0090  -29.1452   21.2057 H   0  0  0  0  0  0  0  0  0  0  0  0
  -26.1369  -26.0560   19.0719 H   0  0  0  0  0  0  0  0  0  0  0  0
  -24.0652  -27.2961   19.0997 H   0  0  0  0  0  0  0  0  0  0  0  0
  -23.6156  -30.5365   19.3930 H   0  0  0  0  0  0  0  0  0  0  0  0
  -22.7355  -29.1425   19.9945 H   0  0  0  0  0  0  0  0  0  0  0  0
  -25.1353  -36.2335   25.0565 H   0  0  0  0  0  0  0  0  0  0  0  0
  -21.0070  -28.3206   24.0793 H   0  0  0  0  0  0  0  0  0  0  0  0
  -20.5555  -26.2518   23.3550 H   0  0  0  0  0  0  0  0  0  0  0  0
  -21.5974  -26.8362   22.0454 H   0  0  0  0  0  0  0  0  0  0  0  0
  -19.6810  -25.6422   21.1488 H   0  0  0  0  0  0  0  0  0  0  0  0
  -19.6406  -27.3343   20.7034 H   0  0  0  0  0  0  0  0  0  0  0  0
  -17.4282  -26.6888   21.4113 H   0  0  0  0  0  0  0  0  0  0  0  0
  -18.0803  -26.0130   22.9049 H   0  0  0  0  0  0  0  0  0  0  0  0
  -19.7265  -30.6774   24.2204 H   0  0  0  0  0  0  0  0  0  0  0  0
  -17.5064  -31.5856   24.4483 H   0  0  0  0  0  0  0  0  0  0  0  0
  -15.5878  -30.2839   23.7407 H   0  0  0  0  0  0  0  0  0  0  0  0
  -15.9120  -28.0941   22.7766 H   0  0  0  0  0  0  0  0  0  0  0  0
  -24.5787  -30.7757   25.6817 H   0  0  0  0  0  0  0  0  0  0  0  0
  -25.0041  -32.2289   26.5536 H   0  0  0  0  0  0  0  0  0  0  0  0
  -25.8166  -30.7245   26.9138 H   0  0  0  0  0  0  0  0  0  0  0  0
  -26.2892  -29.7335   24.0803 H   0  0  0  0  0  0  0  0  0  0  0  0
  -27.4336  -29.7484   25.4006 H   0  0  0  0  0  0  0  0  0  0  0  0
  -27.8466  -30.4994   23.8779 H   0  0  0  0  0  0  0  0  0  0  0  0
  -27.2251  -33.3632   26.1242 H   0  0  0  0  0  0  0  0  0  0  0  0
  -28.3902  -32.6065   25.0645 H   0  0  0  0  0  0  0  0  0  0  0  0
  -27.9772  -31.8555   26.5872 H   0  0  0  0  0  0  0  0  0  0  0  0
  -28.2744  -38.0016   24.6863 H   0  0  0  0  0  0  0  0  0  0  0  0
  -28.0396  -36.2711   24.7461 H   0  0  0  0  0  0  0  0  0  0  0  0
  -27.1773  -37.3087   25.8564 H   0  0  0  0  0  0  0  0  0  0  0  0
  -20.9627  -29.9365   21.7352 H   0  0  0  0  0  0  0  0  0  0  0  0
  -26.0447  -38.2561   24.0273 H   0  0  0  0  0  0  0  0  0  0  0  0
  -28.4360  -23.6004   19.1940 H   0  0  0  0  0  0  0  0  0  0  0  0
  -31.2225  -20.5283   19.8768 H   0  0  0  0  0  0  0  0  0  0  0  0
  -32.2899  -25.1127   17.1639 H   0  0  0  0  0  0  0  0  0  0  0  0
  -33.0350  -23.6101   16.6740 H   0  0  0  0  0  0  0  0  0  0  0  0
  -33.5199  -24.3802   18.1656 H   0  0  0  0  0  0  0  0  0  0  0  0
  -28.9264  -25.3602   17.7785 H   0  0  0  0  0  0  0  0  0  0  0  0
  -30.4428  -25.3446   16.8488 H   0  0  0  0  0  0  0  0  0  0  0  0
  -30.2846  -27.3748   18.1101 H   0  0  0  0  0  0  0  0  0  0  0  0
  -31.5843  -26.3344   18.7283 H   0  0  0  0  0  0  0  0  0  0  0  0
  -30.3880  -27.3806   20.5468 H   0  0  0  0  0  0  0  0  0  0  0  0
  -30.1674  -25.6318   20.5404 H   0  0  0  0  0  0  0  0  0  0  0  0
  -27.8869  -21.6000   20.7039 H   0  0  0  0  0  0  0  0  0  0  0  0
  1 25  1  0
  1 30  2  0
  1 81  1  0
  2  3  1  0
  2 25  1  0
  2 83  1  0
  2 84  1  0
  3  4  1  0
  3 85  1  0
  3 86  1  0
  4  5  1  0
  4 87  1  0
  4 88  1  0
  5  6  1  0
  5 26  1  0
  5 89  1  6
  6 25  1  0
  6 90  1  0
  6 91  1  0
  7  8  2  0
  7 26  1  0
  7 29  1  0
  8  9  1  0
  8 22  1  0
  9 10  1  0
  9 27  2  0
 10 11  2  0
 10 15  1  0
 11 12  1  0
 11 92  1  0
 12 13  2  0
 12 93  1  0
 13 14  1  0
 13 31  1  0
 14 15  2  0
 14 94  1  0
 15 95  1  0
 16 17  2  0
 16 21  1  0
 16 31  1  0
 17 18  1  0
 17 96  1  0
 18 19  2  0
 18 97  1  0
 19 20  1  0
 19 24  1  0
 20 21  2  0
 20 98  1  0
 21 23  1  0
 22 28  1  0
 22 32  2  0
 26 27  1  0
 28 99  1  0
 28100  1  0
 29101  1  0
 29102  1  0
 33 34  1  0
 33 66  1  0
 33 70  2  0
 34 36  1  0
 34 59  1  0
 34103  1  6
 35 44  2  0
 35 45  1  0
 35 68  1  0
 36 56  1  0
 36104  1  0
 37 39  1  0
 37 47  1  0
 37 66  1  0
 37105  1  6
 38 43  2  0
 38 46  1  0
 38 47  1  0
 39 64  1  0
 39 67  2  0
 40 52  1  0
 40 53  2  0
 40 58  1  0
 41106  1  0
 41107  1  0
 41108  1  0
 42 43  1  0
 42 66  1  0
 42109  1  0
 42110  1  0
 43 44  1  0
 44111  1  0
 45 46  2  0
 45112  1  0
 46113  1  0
 47114  1  0
 47115  1  0
 48 41  1  0
 48 56  1  0
 48 65  1  0
 48116  1  1
 49 50  1  0
 49 53  1  0
 49 64  1  0
 49117  1  1
 50 51  1  0
 50118  1  0
 50119  1  0
 51 52  1  0
 51120  1  0
 51121  1  0
 52122  1  0
 52123  1  0
 53 54  1  0
 54 55  2  0
 54124  1  0
 55 57  1  0
 55125  1  0
 56 69  2  0
 57 58  2  0
 57126  1  0
 58127  1  0
 59 60  1  0
 59 61  1  0
 59 62  1  0
 60128  1  0
 60129  1  0
 60130  1  0
 61131  1  0
 61132  1  0
 61133  1  0
 62134  1  0
 62135  1  0
 62136  1  0
 63 65  1  0
 63137  1  0
 63138  1  0
 63139  1  0
 64140  1  0
 65141  1  0
 68 80  1  0
 71 73  2  0
 71 75  1  0
 71142  1  0
 72 75  2  0
 72 76  1  0
 72143  1  0
 73 74  1  0
 73 78  1  0
 74 76  2  0
 74 77  1  0
 75 81  1  0
 76 82  1  0
 77144  1  0
 77145  1  0
 77146  1  0
 78 79  1  0
 78147  1  0
 78148  1  0
 79 80  1  0
 79149  1  0
 79150  1  0
 80151  1  0
 80152  1  0
 81153  1  0
M  ISO  4   1 100  68 101  80 101  81 100
M  END
$$$$
25
     RDKit          3D

169178  0  0  0  0  0  0  0  0999 V2000
  -30.7652  -14.3608   20.6636 C   0  0  0  0  0  0  0  0  0100  0  0
  -30.4392  -12.2669   19.3775 C   0  0  0  0  0  0  0  0  0101  0  0
  -29.4791  -12.5281   18.1977 C   0  0  0  0  0  0  0  0  0102  0  0
  -27.9985  -12.3963   18.6038 C   0  0  0  0  0  0  0  0  0103  0  0
  -27.6639  -13.2170   19.8820 C   0  0  2  0  0  0  0  0  0104  0  0
  -28.6795  -12.9602   21.0279 C   0  0  0  0  0  0  0  0  0105  0  0
  -25.2633  -13.8245   20.5754 C   0  0  0  0  0  0  0  0  0106  0  0
  -24.1645  -13.0409   20.9408 C   0  0  0  0  0  0  0  0  0107  0  0
  -24.6400  -11.7009   20.8697 C   0  0  0  0  0  0  0  0  0108  0  0
  -23.9005  -10.4085   21.0420 C   0  0  0  0  0  0  0  0  0109  0  0
  -24.3588   -9.4123   21.9123 C   0  0  0  0  0  0  0  0  0110  0  0
  -23.6296   -8.2350   22.0803 C   0  0  0  0  0  0  0  0  0111  0  0
  -22.4385   -8.0419   21.3657 C   0  0  0  0  0  0  0  0  0112  0  0
  -22.0103   -9.0167   20.4678 C   0  0  0  0  0  0  0  0  0113  0  0
  -22.7317  -10.1925   20.3102 C   0  0  0  0  0  0  0  0  0114  0  0
  -21.6857   -6.0709   22.5391 C   0  0  0  0  0  0  0  0  0115  0  0
  -21.4064   -6.5490   23.8264 C   0  0  0  0  0  0  0  0  0116  0  0
  -21.3635   -5.6677   24.9085 C   0  0  0  0  0  0  0  0  0117  0  0
  -21.5973   -4.3067   24.7088 C   0  0  0  0  0  0  0  0  0118  0  0
  -21.8700   -3.8284   23.4282 C   0  0  0  0  0  0  0  0  0119  0  0
  -21.9144   -4.7056   22.3460 C   0  0  0  0  0  0  0  0  0120  0  0
  -22.8194  -13.5263   21.1763 C   0  0  0  0  0  0  0  0  0121  0  0
  -22.1559   -4.2206   21.1063 F   0  0  0  0  0  0  0  0  0122  0  0
  -21.5628   -3.4510   25.7555 F   0  0  0  0  0  0  0  0  0123  0  0
  -30.0261  -13.1803   20.4553 N   0  0  0  0  0  0  0  0  0124  0  0
  -26.2911  -12.9356   20.3443 N   0  0  0  0  0  0  0  0  0125  0  0
  -25.9236  -11.6675   20.5847 N   0  0  0  0  0  0  0  0  0126  0  0
  -22.0708  -12.7905   22.0005 N   0  0  0  0  0  0  0  0  0127  0  0
  -25.4117  -15.1773   20.4097 N   0  0  0  0  0  0  0  0  0128  0  0
  -31.7916  -14.6724   20.0536 O   0  0  0  0  0  0  0  0  0129  0  0
  -21.6670   -6.9022   21.4423 O   0  0  0  0  0  0  0  0  0130  0  0
  -22.3946  -14.5564   20.6568 O   0  0  0  0  0  0  0  0  0131  0  0
  -24.6048  -31.8614   23.2223 C   0  0  0  0  0  0  0  0  0100  0  0
  -25.8822  -32.4841   23.8616 C   0  0  1  0  0  0  0  0  0101  0  0
  -27.2536  -27.5042   20.1156 C   0  0  0  0  0  0  0  0  0102  0  0
  -25.5726  -33.8762   24.2210 N   0  0  0  0  0  0  0  0  0103  0  0
  -23.4066  -30.4859   21.5461 C   0  0  2  0  0  0  0  0  0104  0  0
  -24.8467  -28.9636   20.1247 C   0  0  0  0  0  0  0  0  0105  0  0
  -22.7412  -29.4652   22.5052 C   0  0  0  0  0  0  0  0  0106  0  0
  -18.0167  -28.1302   22.8626 C   0  0  0  0  0  0  0  0  0107  0  0
  -24.1342  -36.7390   23.2568 C   0  0  0  0  0  0  0  0  0108  0  0
  -25.9141  -30.8882   21.3456 C   0  0  0  0  0  0  0  0  0109  0  0
  -25.9930  -29.5029   20.7208 C   0  0  0  0  0  0  0  0  0110  0  0
  -27.1758  -28.7612   20.7331 C   0  0  0  0  0  0  0  0  0111  0  0
  -26.1032  -26.9836   19.5230 C   0  0  0  0  0  0  0  0  0112  0  0
  -24.9097  -27.7011   19.5331 C   0  0  0  0  0  0  0  0  0113  0  0
  -23.5715  -29.7899   20.1582 C   0  0  0  0  0  0  0  0  0114  0  0
  -25.3990  -36.3212   24.0232 C   0  0  1  0  0  0  0  0  0115  0  0
  -20.5793  -28.3813   23.1004 C   0  0  2  0  0  0  0  0  0116  0  0
  -20.6548  -26.9392   22.5411 C   0  0  0  0  0  0  0  0  0117  0  0
  -19.5615  -26.6407   21.5143 C   0  0  0  0  0  0  0  0  0118  0  0
  -18.1797  -26.7818   22.1673 C   0  0  0  0  0  0  0  0  0119  0  0
  -19.1385  -28.8769   23.2988 C   0  0  0  0  0  0  0  0  0120  0  0
  -18.9183  -30.1286   23.8878 C   0  0  0  0  0  0  0  0  0121  0  0
  -17.6396  -30.6493   24.0352 C   0  0  0  0  0  0  0  0  0122  0  0
  -25.9153  -34.9582   23.4993 C   0  0  0  0  0  0  0  0  0123  0  0
  -16.5415  -29.9068   23.6254 C   0  0  0  0  0  0  0  0  0124  0  0
  -16.7331  -28.6521   23.0586 C   0  0  0  0  0  0  0  0  0125  0  0
  -26.4583  -31.6439   25.0683 C   0  0  0  0  0  0  0  0  0126  0  0
  -25.3807  -31.3179   26.1374 C   0  0  0  0  0  0  0  0  0127  0  0
  -27.0530  -30.3024   24.5680 C   0  0  0  0  0  0  0  0  0128  0  0
  -27.6014  -32.4281   25.7651 C   0  0  0  0  0  0  0  0  0129  0  0
  -27.5629  -37.2220   24.8621 C   0  0  0  0  0  0  0  0  0130  0  0
  -21.4133  -29.3375   22.3735 N   0  0  0  0  0  0  0  0  0131  0  0
  -26.4706  -37.3372   23.9061 N   0  0  0  0  0  0  0  0  0132  0  0
  -24.6674  -31.0544   22.1178 N   0  0  0  0  0  0  0  0  0133  0  0
  -23.4259  -28.8150   23.2971 O   0  0  0  0  0  0  0  0  0134  0  0
  -28.3948  -26.7345   20.0089 O   0  0  0  0  0  0  0  0  0135  0  0
  -26.5870  -34.9065   22.4671 O   0  0  0  0  0  0  0  0  0136  0  0
  -23.5365  -32.1254   23.7833 O   0  0  0  0  0  0  0  0  0137  0  0
  -18.6310  -17.9055   17.5589 C   0  0  0  0  0  0  0  0  0  0  0  0
  -20.4686  -18.7328   15.6459 C   0  0  0  0  0  0  0  0  0  0  0  0
  -18.7357  -19.2739   17.2551 C   0  0  0  0  0  0  0  0  0  0  0  0
  -19.6660  -19.6927   16.2863 C   0  0  0  0  0  0  0  0  0  0  0  0
  -19.4355  -16.9653   16.9165 C   0  0  0  0  0  0  0  0  0  0  0  0
  -20.3548  -17.3791   15.9598 C   0  0  0  0  0  0  0  0  0  0  0  0
  -17.8407  -20.2545   17.9711 C   0  0  0  0  0  0  0  0  0  0  0  0
  -19.8192  -21.1454   15.9101 C   0  0  0  0  0  0  0  0  0  0  0  0
  -18.6124  -21.2452   18.8449 C   0  0  0  0  0  0  0  0  0  0  0  0
  -20.3220  -22.0155   17.0637 C   0  0  0  0  0  0  0  0  0  0  0  0
  -19.2251  -22.4053   18.0570 C   0  0  2  0  0  0  0  0  0  0  0  0
  -19.2780  -15.5254   17.2843 C   0  0  0  0  0  0  0  0  0  0  0  0
  -19.5480  -25.2030   20.6562 C   0  0  0  0  0  0  0  0  0  0  0  0
  -18.8576  -24.2899   19.6542 C   0  0  0  0  0  0  0  0  0  0  0  0
  -20.6881  -26.0184   20.0584 C   0  0  0  0  0  0  0  0  0  1  0  0
  -20.3572  -15.0538   18.1232 N   0  0  0  0  0  0  0  0  0  0  0  0
  -19.8309  -23.3502   19.0469 N   0  0  0  0  0  0  0  0  0  0  0  0
  -21.3689  -16.2484   15.1403 Cl  0  0  0  0  0  0  0  0  0  0  0  0
  -31.4485  -12.4701   19.0860 H   0  0  0  0  0  0  0  0  0  0  0  0
  -30.3970  -11.2460   19.6950 H   0  0  0  0  0  0  0  0  0  0  0  0
  -29.6870  -11.8204   17.4226 H   0  0  0  0  0  0  0  0  0  0  0  0
  -29.6375  -13.5326   17.8649 H   0  0  0  0  0  0  0  0  0  0  0  0
  -27.7830  -11.3650   18.7904 H   0  0  0  0  0  0  0  0  0  0  0  0
  -27.4028  -12.7801   17.8021 H   0  0  0  0  0  0  0  0  0  0  0  0
  -27.7353  -14.2503   19.6136 H   0  0  0  0  0  0  0  0  0  0  0  0
  -28.5890  -11.9550   21.3832 H   0  0  0  0  0  0  0  0  0  0  0  0
  -28.5005  -13.6134   21.8562 H   0  0  0  0  0  0  0  0  0  0  0  0
  -25.2399   -9.5495   22.4318 H   0  0  0  0  0  0  0  0  0  0  0  0
  -23.9663   -7.5070   22.7297 H   0  0  0  0  0  0  0  0  0  0  0  0
  -21.1515   -8.8641   19.9162 H   0  0  0  0  0  0  0  0  0  0  0  0
  -22.4016  -10.9115   19.6476 H   0  0  0  0  0  0  0  0  0  0  0  0
  -21.2319   -7.5552   23.9750 H   0  0  0  0  0  0  0  0  0  0  0  0
  -21.1589   -6.0228   25.8556 H   0  0  0  0  0  0  0  0  0  0  0  0
  -22.0396   -2.8212   23.2809 H   0  0  0  0  0  0  0  0  0  0  0  0
  -22.4401  -11.9703   22.4008 H   0  0  0  0  0  0  0  0  0  0  0  0
  -21.1493  -13.0679   22.2082 H   0  0  0  0  0  0  0  0  0  0  0  0
  -24.6538  -15.7807   20.5848 H   0  0  0  0  0  0  0  0  0  0  0  0
  -26.2762  -15.5453   20.1156 H   0  0  0  0  0  0  0  0  0  0  0  0
  -26.6778  -32.4663   23.1464 H   0  0  0  0  0  0  0  0  0  0  0  0
  -25.0747  -34.0282   25.0566 H   0  0  0  0  0  0  0  0  0  0  0  0
  -22.7881  -31.3489   21.4131 H   0  0  0  0  0  0  0  0  0  0  0  0
  -23.3854  -35.9823   23.3648 H   0  0  0  0  0  0  0  0  0  0  0  0
  -24.3696  -36.8624   22.2204 H   0  0  0  0  0  0  0  0  0  0  0  0
  -23.7669  -37.6632   23.6516 H   0  0  0  0  0  0  0  0  0  0  0  0
  -25.9445  -31.6237   20.5691 H   0  0  0  0  0  0  0  0  0  0  0  0
  -26.7436  -31.0079   22.0108 H   0  0  0  0  0  0  0  0  0  0  0  0
  -28.0090  -29.1452   21.2057 H   0  0  0  0  0  0  0  0  0  0  0  0
  -26.1369  -26.0560   19.0719 H   0  0  0  0  0  0  0  0  0  0  0  0
  -24.0652  -27.2961   19.0997 H   0  0  0  0  0  0  0  0  0  0  0  0
  -23.6156  -30.5365   19.3930 H   0  0  0  0  0  0  0  0  0  0  0  0
  -22.7355  -29.1425   19.9945 H   0  0  0  0  0  0  0  0  0  0  0  0
  -25.1353  -36.2335   25.0565 H   0  0  0  0  0  0  0  0  0  0  0  0
  -21.0070  -28.3206   24.0793 H   0  0  0  0  0  0  0  0  0  0  0  0
  -20.5555  -26.2518   23.3550 H   0  0  0  0  0  0  0  0  0  0  0  0
  -21.5974  -26.8362   22.0454 H   0  0  0  0  0  0  0  0  0  0  0  0
  -19.6810  -25.6422   21.1488 H   0  0  0  0  0  0  0  0  0  0  0  0
  -19.6406  -27.3343   20.7034 H   0  0  0  0  0  0  0  0  0  0  0  0
  -17.4282  -26.6888   21.4113 H   0  0  0  0  0  0  0  0  0  0  0  0
  -18.0803  -26.0130   22.9049 H   0  0  0  0  0  0  0  0  0  0  0  0
  -19.7265  -30.6774   24.2204 H   0  0  0  0  0  0  0  0  0  0  0  0
  -17.5064  -31.5856   24.4483 H   0  0  0  0  0  0  0  0  0  0  0  0
  -15.5878  -30.2839   23.7407 H   0  0  0  0  0  0  0  0  0  0  0  0
  -15.9120  -28.0941   22.7766 H   0  0  0  0  0  0  0  0  0  0  0  0
  -24.5787  -30.7757   25.6817 H   0  0  0  0  0  0  0  0  0  0  0  0
  -25.0041  -32.2289   26.5536 H   0  0  0  0  0  0  0  0  0  0  0  0
  -25.8166  -30.7245   26.9138 H   0  0  0  0  0  0  0  0  0  0  0  0
  -26.2892  -29.7335   24.0803 H   0  0  0  0  0  0  0  0  0  0  0  0
  -27.4336  -29.7484   25.4006 H   0  0  0  0  0  0  0  0  0  0  0  0
  -27.8466  -30.4994   23.8779 H   0  0  0  0  0  0  0  0  0  0  0  0
  -27.2251  -33.3632   26.1242 H   0  0  0  0  0  0  0  0  0  0  0  0
  -28.3902  -32.6065   25.0645 H   0  0  0  0  0  0  0  0  0  0  0  0
  -27.9772  -31.8555   26.5872 H   0  0  0  0  0  0  0  0  0  0  0  0
  -28.2744  -38.0016   24.6863 H   0  0  0  0  0  0  0  0  0  0  0  0
  -28.0396  -36.2711   24.7461 H   0  0  0  0  0  0  0  0  0  0  0  0
  -27.1773  -37.3087   25.8564 H   0  0  0  0  0  0  0  0  0  0  0  0
  -20.9627  -29.9365   21.7352 H   0  0  0  0  0  0  0  0  0  0  0  0
  -26.0447  -38.2561   24.0273 H   0  0  0  0  0  0  0  0  0  0  0  0
  -17.9491  -17.5924   18.2674 H   0  0  0  0  0  0  0  0  0  0  0  0
  -21.1516  -19.0342   14.9334 H   0  0  0  0  0  0  0  0  0  0  0  0
  -17.1646  -19.7065   18.5936 H   0  0  0  0  0  0  0  0  0  0  0  0
  -17.3271  -20.8219   17.2234 H   0  0  0  0  0  0  0  0  0  0  0  0
  -18.8672  -21.5171   15.5933 H   0  0  0  0  0  0  0  0  0  0  0  0
  -20.5499  -21.1971   15.1301 H   0  0  0  0  0  0  0  0  0  0  0  0
  -19.4011  -20.7177   19.3394 H   0  0  0  0  0  0  0  0  0  0  0  0
  -17.9123  -21.6682   19.5347 H   0  0  0  0  0  0  0  0  0  0  0  0
  -20.7422  -22.9105   16.6547 H   0  0  0  0  0  0  0  0  0  0  0  0
  -21.0437  -21.4378   17.6024 H   0  0  0  0  0  0  0  0  0  0  0  0
  -18.4306  -22.8254   17.4763 H   0  0  0  0  0  0  0  0  0  0  0  0
  -19.2579  -14.9412   16.3881 H   0  0  0  0  0  0  0  0  0  0  0  0
  -18.3663  -15.4254   17.8354 H   0  0  0  0  0  0  0  0  0  0  0  0
  -19.9427  -24.5996   21.4468 H   0  0  0  0  0  0  0  0  0  0  0  0
  -18.8133  -25.8998   21.0019 H   0  0  0  0  0  0  0  0  0  0  0  0
  -18.4152  -24.8851   18.8828 H   0  0  0  0  0  0  0  0  0  0  0  0
  -18.1050  -23.7252   20.1638 H   0  0  0  0  0  0  0  0  0  0  0  0
  -20.4006  -27.0055   20.3548 H   0  0  0  0  0  0  0  0  0  0  0  0
  -20.7158  -25.3911   19.1920 H   0  0  0  0  0  0  0  0  0  0  0  0
  -19.9053  -14.5239   18.8191 H   0  0  0  0  0  0  0  0  0  0  0  0
  -20.5502  -23.8955   18.5718 H   0  0  0  0  0  0  0  0  0  0  0  0
  -20.2074  -22.7824   19.8060 H   0  0  0  0  0  0  0  0  0  0  0  0
  1 25  1  0
  1 30  2  0
  1 86  1  0
  2  3  1  0
  2 25  1  0
  2 89  1  0
  2 90  1  0
  3  4  1  0
  3 91  1  0
  3 92  1  0
  4  5  1  0
  4 93  1  0
  4 94  1  0
  5  6  1  0
  5 26  1  0
  5 95  1  6
  6 25  1  0
  6 96  1  0
  6 97  1  0
  7  8  2  0
  7 26  1  0
  7 29  1  0
  8  9  1  0
  8 22  1  0
  9 10  1  0
  9 27  2  0
 10 11  2  0
 10 15  1  0
 11 12  1  0
 11 98  1  0
 12 13  2  0
 12 99  1  0
 13 14  1  0
 13 31  1  0
 14 15  2  0
 14100  1  0
 15101  1  0
 16 17  2  0
 16 21  1  0
 16 31  1  0
 17 18  1  0
 17102  1  0
 18 19  2  0
 18103  1  0
 19 20  1  0
 19 24  1  0
 20 21  2  0
 20104  1  0
 21 23  1  0
 22 28  1  0
 22 32  2  0
 26 27  1  0
 28105  1  0
 28106  1  0
 29107  1  0
 29108  1  0
 33 34  1  0
 33 66  1  0
 33 70  2  0
 34 36  1  0
 34 59  1  0
 34109  1  6
 35 44  2  0
 35 45  1  0
 35 68  1  0
 36 56  1  0
 36110  1  0
 37 39  1  0
 37 47  1  0
 37 66  1  0
 37111  1  6
 38 43  2  0
 38 46  1  0
 38 47  1  0
 39 64  1  0
 39 67  2  0
 40 52  1  0
 40 53  2  0
 40 58  1  0
 41112  1  0
 41113  1  0
 41114  1  0
 42 43  1  0
 42 66  1  0
 42115  1  0
 42116  1  0
 43 44  1  0
 44117  1  0
 45 46  2  0
 45118  1  0
 46119  1  0
 47120  1  0
 47121  1  0
 48 41  1  0
 48 56  1  0
 48 65  1  0
 48122  1  1
 49 50  1  0
 49 53  1  0
 49 64  1  0
 49123  1  1
 50 51  1  0
 50124  1  0
 50125  1  0
 51 52  1  0
 51126  1  0
 51127  1  0
 52128  1  0
 52129  1  0
 53 54  1  0
 54 55  2  0
 54130  1  0
 55 57  1  0
 55131  1  0
 56 69  2  0
 57 58  2  0
 57132  1  0
 58133  1  0
 59 60  1  0
 59 61  1  0
 59 62  1  0
 60134  1  0
 60135  1  0
 60136  1  0
 61137  1  0
 61138  1  0
 61139  1  0
 62140  1  0
 62141  1  0
 62142  1  0
 63 65  1  0
 63143  1  0
 63144  1  0
 63145  1  0
 64146  1  0
 65147  1  0
 68 85  1  0
 71 73  2  0
 71 75  1  0
 71148  1  0
 72 74  2  0
 72 76  1  0
 72149  1  0
 73 74  1  0
 73 77  1  0
 74 78  1  0
 75 76  2  0
 75 82  1  0
 76 88  1  0
 77 79  1  0
 77150  1  0
 77151  1  0
 78 80  1  0
 78152  1  0
 78153  1  0
 79 81  1  0
 79154  1  0
 79155  1  0
 80 81  1  0
 80156  1  0
 80157  1  0
 81 87  1  0
 81158  1  6
 82 86  1  0
 82159  1  0
 82160  1  0
 83 84  1  0
 83 85  1  0
 83161  1  0
 83162  1  0
 84 87  1  0
 84163  1  0
 84164  1  0
 85165  1  0
 85166  1  0
 86167  1  0
 87168  1  0
 87169  1  0
M  CHG  1  87   1
M  ISO  4   1 100  68 101  85 101  86 100
M  END
$$$$
26
     RDKit          3D

159167  0  0  0  0  0  0  0  0999 V2000
  -30.7652  -14.3608   20.6636 C   0  0  0  0  0  0  0  0  0100  0  0
  -30.4392  -12.2669   19.3775 C   0  0  0  0  0  0  0  0  0101  0  0
  -29.4791  -12.5281   18.1977 C   0  0  0  0  0  0  0  0  0102  0  0
  -27.9985  -12.3963   18.6038 C   0  0  0  0  0  0  0  0  0103  0  0
  -27.6639  -13.2170   19.8820 C   0  0  2  0  0  0  0  0  0104  0  0
  -28.6795  -12.9602   21.0279 C   0  0  0  0  0  0  0  0  0105  0  0
  -25.2633  -13.8245   20.5754 C   0  0  0  0  0  0  0  0  0106  0  0
  -24.1645  -13.0409   20.9408 C   0  0  0  0  0  0  0  0  0107  0  0
  -24.6400  -11.7009   20.8697 C   0  0  0  0  0  0  0  0  0108  0  0
  -23.9005  -10.4085   21.0420 C   0  0  0  0  0  0  0  0  0109  0  0
  -24.3588   -9.4123   21.9123 C   0  0  0  0  0  0  0  0  0110  0  0
  -23.6296   -8.2350   22.0803 C   0  0  0  0  0  0  0  0  0111  0  0
  -22.4385   -8.0419   21.3657 C   0  0  0  0  0  0  0  0  0112  0  0
  -22.0103   -9.0167   20.4678 C   0  0  0  0  0  0  0  0  0113  0  0
  -22.7317  -10.1925   20.3102 C   0  0  0  0  0  0  0  0  0114  0  0
  -21.6857   -6.0709   22.5391 C   0  0  0  0  0  0  0  0  0115  0  0
  -21.4064   -6.5490   23.8264 C   0  0  0  0  0  0  0  0  0116  0  0
  -21.3635   -5.6677   24.9085 C   0  0  0  0  0  0  0  0  0117  0  0
  -21.5973   -4.3067   24.7088 C   0  0  0  0  0  0  0  0  0118  0  0
  -21.8700   -3.8284   23.4282 C   0  0  0  0  0  0  0  0  0119  0  0
  -21.9144   -4.7056   22.3460 C   0  0  0  0  0  0  0  0  0120  0  0
  -22.8194  -13.5263   21.1763 C   0  0  0  0  0  0  0  0  0121  0  0
  -22.1559   -4.2206   21.1063 F   0  0  0  0  0  0  0  0  0122  0  0
  -21.5628   -3.4510   25.7555 F   0  0  0  0  0  0  0  0  0123  0  0
  -30.0261  -13.1803   20.4553 N   0  0  0  0  0  0  0  0  0124  0  0
  -26.2911  -12.9356   20.3443 N   0  0  0  0  0  0  0  0  0125  0  0
  -25.9236  -11.6675   20.5847 N   0  0  0  0  0  0  0  0  0126  0  0
  -22.0708  -12.7905   22.0005 N   0  0  0  0  0  0  0  0  0127  0  0
  -25.4117  -15.1773   20.4097 N   0  0  0  0  0  0  0  0  0128  0  0
  -31.7916  -14.6724   20.0536 O   0  0  0  0  0  0  0  0  0129  0  0
  -21.6670   -6.9022   21.4423 O   0  0  0  0  0  0  0  0  0130  0  0
  -22.3946  -14.5564   20.6568 O   0  0  0  0  0  0  0  0  0131  0  0
  -24.6048  -31.8614   23.2223 C   0  0  0  0  0  0  0  0  0100  0  0
  -25.8822  -32.4841   23.8616 C   0  0  1  0  0  0  0  0  0101  0  0
  -27.2536  -27.5042   20.1156 C   0  0  0  0  0  0  0  0  0102  0  0
  -25.5726  -33.8762   24.2210 N   0  0  0  0  0  0  0  0  0103  0  0
  -23.4066  -30.4859   21.5461 C   0  0  2  0  0  0  0  0  0104  0  0
  -24.8467  -28.9636   20.1247 C   0  0  0  0  0  0  0  0  0105  0  0
  -22.7412  -29.4652   22.5052 C   0  0  0  0  0  0  0  0  0106  0  0
  -18.0167  -28.1302   22.8626 C   0  0  0  0  0  0  0  0  0107  0  0
  -24.1342  -36.7390   23.2568 C   0  0  0  0  0  0  0  0  0108  0  0
  -25.9141  -30.8882   21.3456 C   0  0  0  0  0  0  0  0  0109  0  0
  -25.9930  -29.5029   20.7208 C   0  0  0  0  0  0  0  0  0110  0  0
  -27.1758  -28.7612   20.7331 C   0  0  0  0  0  0  0  0  0111  0  0
  -26.1032  -26.9836   19.5230 C   0  0  0  0  0  0  0  0  0112  0  0
  -24.9097  -27.7011   19.5331 C   0  0  0  0  0  0  0  0  0113  0  0
  -23.5715  -29.7899   20.1582 C   0  0  0  0  0  0  0  0  0114  0  0
  -25.3990  -36.3212   24.0232 C   0  0  1  0  0  0  0  0  0115  0  0
  -20.5793  -28.3813   23.1004 C   0  0  2  0  0  0  0  0  0116  0  0
  -20.6548  -26.9392   22.5411 C   0  0  0  0  0  0  0  0  0117  0  0
  -19.5615  -26.6407   21.5143 C   0  0  0  0  0  0  0  0  0118  0  0
  -18.1797  -26.7818   22.1673 C   0  0  0  0  0  0  0  0  0119  0  0
  -19.1385  -28.8769   23.2988 C   0  0  0  0  0  0  0  0  0120  0  0
  -18.9183  -30.1286   23.8878 C   0  0  0  0  0  0  0  0  0121  0  0
  -17.6396  -30.6493   24.0352 C   0  0  0  0  0  0  0  0  0122  0  0
  -25.9153  -34.9582   23.4993 C   0  0  0  0  0  0  0  0  0123  0  0
  -16.5415  -29.9068   23.6254 C   0  0  0  0  0  0  0  0  0124  0  0
  -16.7331  -28.6521   23.0586 C   0  0  0  0  0  0  0  0  0125  0  0
  -26.4583  -31.6439   25.0683 C   0  0  0  0  0  0  0  0  0126  0  0
  -25.3807  -31.3179   26.1374 C   0  0  0  0  0  0  0  0  0127  0  0
  -27.0530  -30.3024   24.5680 C   0  0  0  0  0  0  0  0  0128  0  0
  -27.6014  -32.4281   25.7651 C   0  0  0  0  0  0  0  0  0129  0  0
  -27.5629  -37.2220   24.8621 C   0  0  0  0  0  0  0  0  0130  0  0
  -21.4133  -29.3375   22.3735 N   0  0  0  0  0  0  0  0  0131  0  0
  -26.4706  -37.3372   23.9061 N   0  0  0  0  0  0  0  0  0132  0  0
  -24.6674  -31.0544   22.1178 N   0  0  0  0  0  0  0  0  0133  0  0
  -23.4259  -28.8150   23.2971 O   0  0  0  0  0  0  0  0  0134  0  0
  -28.3948  -26.7345   20.0089 O   0  0  0  0  0  0  0  0  0135  0  0
  -26.5870  -34.9065   22.4671 O   0  0  0  0  0  0  0  0  0136  0  0
  -23.5365  -32.1254   23.7833 O   0  0  0  0  0  0  0  0  0137  0  0
  -21.4261  -24.2675   26.0346 C   0  0  0  0  0  0  0  0  0  0  0  0
  -20.1895  -22.5087   24.2570 C   0  0  0  0  0  0  0  0  0  0  0  0
  -20.6211  -24.7637   25.0092 C   0  0  0  0  0  0  0  0  0  0  0  0
  -21.6129  -22.8919   26.1712 C   0  0  0  0  0  0  0  0  0  0  0  0
  -20.0028  -23.8843   24.1204 C   0  0  0  0  0  0  0  0  0  0  0  0
  -20.9945  -22.0125   25.2823 C   0  0  0  0  0  0  0  0  0  0  0  0
  -20.4369  -26.2401   24.8803 C   0  0  0  0  0  0  0  0  0  0  0  0
  -22.4829  -22.4007   27.2828 C   0  0  0  0  0  0  0  0  0  0  0  0
  -19.1349  -24.3951   23.0083 C   0  0  0  0  0  0  0  0  0  0  0  0
  -19.0424  -25.7684   20.9240 C   0  0  0  0  0  0  0  0  0  0  0  0
  -19.8784  -26.6947   20.0630 C   0  0  0  0  0  0  0  0  0  1  0  0
  -23.7799  -21.9683   26.8120 N   0  0  0  0  0  0  0  0  0  0  0  0
  -19.8592  -25.2939   22.0695 N   0  0  0  0  0  0  0  0  0  0  0  0
  -21.2026  -20.3046   25.4199 Cl  0  0  0  0  0  0  0  0  0  0  0  0
  -31.4485  -12.4701   19.0860 H   0  0  0  0  0  0  0  0  0  0  0  0
  -30.3970  -11.2460   19.6950 H   0  0  0  0  0  0  0  0  0  0  0  0
  -29.6870  -11.8204   17.4226 H   0  0  0  0  0  0  0  0  0  0  0  0
  -29.6375  -13.5326   17.8649 H   0  0  0  0  0  0  0  0  0  0  0  0
  -27.7830  -11.3650   18.7904 H   0  0  0  0  0  0  0  0  0  0  0  0
  -27.4028  -12.7801   17.8021 H   0  0  0  0  0  0  0  0  0  0  0  0
  -27.7353  -14.2503   19.6136 H   0  0  0  0  0  0  0  0  0  0  0  0
  -28.5890  -11.9550   21.3832 H   0  0  0  0  0  0  0  0  0  0  0  0
  -28.5005  -13.6134   21.8562 H   0  0  0  0  0  0  0  0  0  0  0  0
  -25.2399   -9.5495   22.4318 H   0  0  0  0  0  0  0  0  0  0  0  0
  -23.9663   -7.5070   22.7297 H   0  0  0  0  0  0  0  0  0  0  0  0
  -21.1515   -8.8641   19.9162 H   0  0  0  0  0  0  0  0  0  0  0  0
  -22.4016  -10.9115   19.6476 H   0  0  0  0  0  0  0  0  0  0  0  0
  -21.2319   -7.5552   23.9750 H   0  0  0  0  0  0  0  0  0  0  0  0
  -21.1589   -6.0228   25.8556 H   0  0  0  0  0  0  0  0  0  0  0  0
  -22.0396   -2.8212   23.2809 H   0  0  0  0  0  0  0  0  0  0  0  0
  -22.4401  -11.9703   22.4008 H   0  0  0  0  0  0  0  0  0  0  0  0
  -21.1493  -13.0679   22.2082 H   0  0  0  0  0  0  0  0  0  0  0  0
  -24.6538  -15.7807   20.5848 H   0  0  0  0  0  0  0  0  0  0  0  0
  -26.2762  -15.5453   20.1156 H   0  0  0  0  0  0  0  0  0  0  0  0
  -26.6778  -32.4663   23.1464 H   0  0  0  0  0  0  0  0  0  0  0  0
  -25.0747  -34.0282   25.0566 H   0  0  0  0  0  0  0  0  0  0  0  0
  -22.7881  -31.3489   21.4131 H   0  0  0  0  0  0  0  0  0  0  0  0
  -23.3854  -35.9823   23.3648 H   0  0  0  0  0  0  0  0  0  0  0  0
  -24.3696  -36.8624   22.2204 H   0  0  0  0  0  0  0  0  0  0  0  0
  -23.7669  -37.6632   23.6516 H   0  0  0  0  0  0  0  0  0  0  0  0
  -25.9445  -31.6237   20.5691 H   0  0  0  0  0  0  0  0  0  0  0  0
  -26.7436  -31.0079   22.0108 H   0  0  0  0  0  0  0  0  0  0  0  0
  -28.0090  -29.1452   21.2057 H   0  0  0  0  0  0  0  0  0  0  0  0
  -26.1369  -26.0560   19.0719 H   0  0  0  0  0  0  0  0  0  0  0  0
  -24.0652  -27.2961   19.0997 H   0  0  0  0  0  0  0  0  0  0  0  0
  -23.6156  -30.5365   19.3930 H   0  0  0  0  0  0  0  0  0  0  0  0
  -22.7355  -29.1425   19.9945 H   0  0  0  0  0  0  0  0  0  0  0  0
  -25.1353  -36.2335   25.0565 H   0  0  0  0  0  0  0  0  0  0  0  0
  -21.0070  -28.3206   24.0793 H   0  0  0  0  0  0  0  0  0  0  0  0
  -20.5555  -26.2518   23.3550 H   0  0  0  0  0  0  0  0  0  0  0  0
  -21.5974  -26.8362   22.0454 H   0  0  0  0  0  0  0  0  0  0  0  0
  -19.6810  -25.6422   21.1488 H   0  0  0  0  0  0  0  0  0  0  0  0
  -19.6406  -27.3343   20.7034 H   0  0  0  0  0  0  0  0  0  0  0  0
  -17.4282  -26.6888   21.4113 H   0  0  0  0  0  0  0  0  0  0  0  0
  -18.0803  -26.0130   22.9049 H   0  0  0  0  0  0  0  0  0  0  0  0
  -19.7265  -30.6774   24.2204 H   0  0  0  0  0  0  0  0  0  0  0  0
  -17.5064  -31.5856   24.4483 H   0  0  0  0  0  0  0  0  0  0  0  0
  -15.5878  -30.2839   23.7407 H   0  0  0  0  0  0  0  0  0  0  0  0
  -15.9120  -28.0941   22.7766 H   0  0  0  0  0  0  0  0  0  0  0  0
  -24.5787  -30.7757   25.6817 H   0  0  0  0  0  0  0  0  0  0  0  0
  -25.0041  -32.2289   26.5536 H   0  0  0  0  0  0  0  0  0  0  0  0
  -25.8166  -30.7245   26.9138 H   0  0  0  0  0  0  0  0  0  0  0  0
  -26.2892  -29.7335   24.0803 H   0  0  0  0  0  0  0  0  0  0  0  0
  -27.4336  -29.7484   25.4006 H   0  0  0  0  0  0  0  0  0  0  0  0
  -27.8466  -30.4994   23.8779 H   0  0  0  0  0  0  0  0  0  0  0  0
  -27.2251  -33.3632   26.1242 H   0  0  0  0  0  0  0  0  0  0  0  0
  -28.3902  -32.6065   25.0645 H   0  0  0  0  0  0  0  0  0  0  0  0
  -27.9772  -31.8555   26.5872 H   0  0  0  0  0  0  0  0  0  0  0  0
  -28.2744  -38.0016   24.6863 H   0  0  0  0  0  0  0  0  0  0  0  0
  -28.0396  -36.2711   24.7461 H   0  0  0  0  0  0  0  0  0  0  0  0
  -27.1773  -37.3087   25.8564 H   0  0  0  0  0  0  0  0  0  0  0  0
  -20.9627  -29.9365   21.7352 H   0  0  0  0  0  0  0  0  0  0  0  0
  -26.0447  -38.2561   24.0273 H   0  0  0  0  0  0  0  0  0  0  0  0
  -21.8835  -24.9181   26.6922 H   0  0  0  0  0  0  0  0  0  0  0  0
  -19.7320  -21.8581   23.5994 H   0  0  0  0  0  0  0  0  0  0  0  0
  -20.9886  -26.7370   25.6508 H   0  0  0  0  0  0  0  0  0  0  0  0
  -19.3983  -26.4795   24.9742 H   0  0  0  0  0  0  0  0  0  0  0  0
  -20.7919  -26.5616   23.9235 H   0  0  0  0  0  0  0  0  0  0  0  0
  -21.9976  -21.5758   27.7613 H   0  0  0  0  0  0  0  0  0  0  0  0
  -22.6347  -23.2120   27.9637 H   0  0  0  0  0  0  0  0  0  0  0  0
  -18.3170  -24.9367   23.4357 H   0  0  0  0  0  0  0  0  0  0  0  0
  -18.8033  -23.5469   22.4466 H   0  0  0  0  0  0  0  0  0  0  0  0
  -18.7228  -24.9299   20.3411 H   0  0  0  0  0  0  0  0  0  0  0  0
  -18.1847  -26.2942   21.2884 H   0  0  0  0  0  0  0  0  0  0  0  0
  -19.5850  -27.6872   20.3345 H   0  0  0  0  0  0  0  0  0  0  0  0
  -19.6696  -26.3100   19.0866 H   0  0  0  0  0  0  0  0  0  0  0  0
  -24.4070  -22.6313   27.1812 H   0  0  0  0  0  0  0  0  0  0  0  0
  -20.6640  -24.7879   21.6999 H   0  0  0  0  0  0  0  0  0  0  0  0
  -20.1223  -26.1223   22.6032 H   0  0  0  0  0  0  0  0  0  0  0  0
  1 25  1  0
  1 30  2  0
  1 82  1  0
  2  3  1  0
  2 25  1  0
  2 85  1  0
  2 86  1  0
  3  4  1  0
  3 87  1  0
  3 88  1  0
  4  5  1  0
  4 89  1  0
  4 90  1  0
  5  6  1  0
  5 26  1  0
  5 91  1  6
  6 25  1  0
  6 92  1  0
  6 93  1  0
  7  8  2  0
  7 26  1  0
  7 29  1  0
  8  9  1  0
  8 22  1  0
  9 10  1  0
  9 27  2  0
 10 11  2  0
 10 15  1  0
 11 12  1  0
 11 94  1  0
 12 13  2  0
 12 95  1  0
 13 14  1  0
 13 31  1  0
 14 15  2  0
 14 96  1  0
 15 97  1  0
 16 17  2  0
 16 21  1  0
 16 31  1  0
 17 18  1  0
 17 98  1  0
 18 19  2  0
 18 99  1  0
 19 20  1  0
 19 24  1  0
 20 21  2  0
 20100  1  0
 21 23  1  0
 22 28  1  0
 22 32  2  0
 26 27  1  0
 28101  1  0
 28102  1  0
 29103  1  0
 29104  1  0
 33 34  1  0
 33 66  1  0
 33 70  2  0
 34 36  1  0
 34 59  1  0
 34105  1  6
 35 44  2  0
 35 45  1  0
 35 68  1  0
 36 56  1  0
 36106  1  0
 37 39  1  0
 37 47  1  0
 37 66  1  0
 37107  1  6
 38 43  2  0
 38 46  1  0
 38 47  1  0
 39 64  1  0
 39 67  2  0
 40 52  1  0
 40 53  2  0
 40 58  1  0
 41108  1  0
 41109  1  0
 41110  1  0
 42 43  1  0
 42 66  1  0
 42111  1  0
 42112  1  0
 43 44  1  0
 44113  1  0
 45 46  2  0
 45114  1  0
 46115  1  0
 47116  1  0
 47117  1  0
 48 41  1  0
 48 56  1  0
 48 65  1  0
 48118  1  1
 49 50  1  0
 49 53  1  0
 49 64  1  0
 49119  1  1
 50 51  1  0
 50120  1  0
 50121  1  0
 51 52  1  0
 51122  1  0
 51123  1  0
 52124  1  0
 52125  1  0
 53 54  1  0
 54 55  2  0
 54126  1  0
 55 57  1  0
 55127  1  0
 56 69  2  0
 57 58  2  0
 57128  1  0
 58129  1  0
 59 60  1  0
 59 61  1  0
 59 62  1  0
 60130  1  0
 60131  1  0
 60132  1  0
 61133  1  0
 61134  1  0
 61135  1  0
 62136  1  0
 62137  1  0
 62138  1  0
 63 65  1  0
 63139  1  0
 63140  1  0
 63141  1  0
 64142  1  0
 65143  1  0
 68 81  1  0
 71 73  2  0
 71 74  1  0
 71144  1  0
 72 75  2  0
 72 76  1  0
 72145  1  0
 73 75  1  0
 73 77  1  0
 74 76  2  0
 74 78  1  0
 75 79  1  0
 76 84  1  0
 77146  1  0
 77147  1  0
 77148  1  0
 78 82  1  0
 78149  1  0
 78150  1  0
 79 83  1  0
 79151  1  0
 79152  1  0
 80 81  1  0
 80 83  1  0
 80153  1  0
 80154  1  0
 81155  1  0
 81156  1  0
 82157  1  0
 83158  1  0
 83159  1  0
M  CHG  1  83   1
M  ISO  4   1 100  68 101  81 101  82 100
M  END
$$$$
27
     RDKit          3D

157166  0  0  0  0  0  0  0  0999 V2000
  -30.7652  -14.3608   20.6636 C   0  0  0  0  0  0  0  0  0100  0  0
  -30.4392  -12.2669   19.3775 C   0  0  0  0  0  0  0  0  0101  0  0
  -29.4791  -12.5281   18.1977 C   0  0  0  0  0  0  0  0  0102  0  0
  -27.9985  -12.3963   18.6038 C   0  0  0  0  0  0  0  0  0103  0  0
  -27.6639  -13.2170   19.8820 C   0  0  2  0  0  0  0  0  0104  0  0
  -28.6795  -12.9602   21.0279 C   0  0  0  0  0  0  0  0  0105  0  0
  -25.2633  -13.8245   20.5754 C   0  0  0  0  0  0  0  0  0106  0  0
  -24.1645  -13.0409   20.9408 C   0  0  0  0  0  0  0  0  0107  0  0
  -24.6400  -11.7009   20.8697 C   0  0  0  0  0  0  0  0  0108  0  0
  -23.9005  -10.4085   21.0420 C   0  0  0  0  0  0  0  0  0109  0  0
  -24.3588   -9.4123   21.9123 C   0  0  0  0  0  0  0  0  0110  0  0
  -23.6296   -8.2350   22.0803 C   0  0  0  0  0  0  0  0  0111  0  0
  -22.4385   -8.0419   21.3657 C   0  0  0  0  0  0  0  0  0112  0  0
  -22.0103   -9.0167   20.4678 C   0  0  0  0  0  0  0  0  0113  0  0
  -22.7317  -10.1925   20.3102 C   0  0  0  0  0  0  0  0  0114  0  0
  -21.6857   -6.0709   22.5391 C   0  0  0  0  0  0  0  0  0115  0  0
  -21.4064   -6.5490   23.8264 C   0  0  0  0  0  0  0  0  0116  0  0
  -21.3635   -5.6677   24.9085 C   0  0  0  0  0  0  0  0  0117  0  0
  -21.5973   -4.3067   24.7088 C   0  0  0  0  0  0  0  0  0118  0  0
  -21.8700   -3.8284   23.4282 C   0  0  0  0  0  0  0  0  0119  0  0
  -21.9144   -4.7056   22.3460 C   0  0  0  0  0  0  0  0  0120  0  0
  -22.8194  -13.5263   21.1763 C   0  0  0  0  0  0  0  0  0121  0  0
  -22.1559   -4.2206   21.1063 F   0  0  0  0  0  0  0  0  0122  0  0
  -21.5628   -3.4510   25.7555 F   0  0  0  0  0  0  0  0  0123  0  0
  -30.0261  -13.1803   20.4553 N   0  0  0  0  0  0  0  0  0124  0  0
  -26.2911  -12.9356   20.3443 N   0  0  0  0  0  0  0  0  0125  0  0
  -25.9236  -11.6675   20.5847 N   0  0  0  0  0  0  0  0  0126  0  0
  -22.0708  -12.7905   22.0005 N   0  0  0  0  0  0  0  0  0127  0  0
  -25.4117  -15.1773   20.4097 N   0  0  0  0  0  0  0  0  0128  0  0
  -31.7916  -14.6724   20.0536 O   0  0  0  0  0  0  0  0  0129  0  0
  -21.6670   -6.9022   21.4423 O   0  0  0  0  0  0  0  0  0130  0  0
  -22.3946  -14.5564   20.6568 O   0  0  0  0  0  0  0  0  0131  0  0
  -24.6048  -31.8614   23.2223 C   0  0  0  0  0  0  0  0  0100  0  0
  -25.8822  -32.4841   23.8616 C   0  0  1  0  0  0  0  0  0101  0  0
  -27.2536  -27.5042   20.1156 C   0  0  0  0  0  0  0  0  0102  0  0
  -25.5726  -33.8762   24.2210 N   0  0  0  0  0  0  0  0  0103  0  0
  -23.4066  -30.4859   21.5461 C   0  0  2  0  0  0  0  0  0104  0  0
  -24.8467  -28.9636   20.1247 C   0  0  0  0  0  0  0  0  0105  0  0
  -22.7412  -29.4652   22.5052 C   0  0  0  0  0  0  0  0  0106  0  0
  -18.0167  -28.1302   22.8626 C   0  0  0  0  0  0  0  0  0107  0  0
  -24.1342  -36.7390   23.2568 C   0  0  0  0  0  0  0  0  0108  0  0
  -25.9141  -30.8882   21.3456 C   0  0  0  0  0  0  0  0  0109  0  0
  -25.9930  -29.5029   20.7208 C   0  0  0  0  0  0  0  0  0110  0  0
  -27.1758  -28.7612   20.7331 C   0  0  0  0  0  0  0  0  0111  0  0
  -26.1032  -26.9836   19.5230 C   0  0  0  0  0  0  0  0  0112  0  0
  -24.9097  -27.7011   19.5331 C   0  0  0  0  0  0  0  0  0113  0  0
  -23.5715  -29.7899   20.1582 C   0  0  0  0  0  0  0  0  0114  0  0
  -25.3990  -36.3212   24.0232 C   0  0  1  0  0  0  0  0  0115  0  0
  -20.5793  -28.3813   23.1004 C   0  0  2  0  0  0  0  0  0116  0  0
  -20.6548  -26.9392   22.5411 C   0  0  0  0  0  0  0  0  0117  0  0
  -19.5615  -26.6407   21.5143 C   0  0  0  0  0  0  0  0  0118  0  0
  -18.1797  -26.7818   22.1673 C   0  0  0  0  0  0  0  0  0119  0  0
  -19.1385  -28.8769   23.2988 C   0  0  0  0  0  0  0  0  0120  0  0
  -18.9183  -30.1286   23.8878 C   0  0  0  0  0  0  0  0  0121  0  0
  -17.6396  -30.6493   24.0352 C   0  0  0  0  0  0  0  0  0122  0  0
  -25.9153  -34.9582   23.4993 C   0  0  0  0  0  0  0  0  0123  0  0
  -16.5415  -29.9068   23.6254 C   0  0  0  0  0  0  0  0  0124  0  0
  -16.7331  -28.6521   23.0586 C   0  0  0  0  0  0  0  0  0125  0  0
  -26.4583  -31.6439   25.0683 C   0  0  0  0  0  0  0  0  0126  0  0
  -25.3807  -31.3179   26.1374 C   0  0  0  0  0  0  0  0  0127  0  0
  -27.0530  -30.3024   24.5680 C   0  0  0  0  0  0  0  0  0128  0  0
  -27.6014  -32.4281   25.7651 C   0  0  0  0  0  0  0  0  0129  0  0
  -27.5629  -37.2220   24.8621 C   0  0  0  0  0  0  0  0  0130  0  0
  -21.4133  -29.3375   22.3735 N   0  0  0  0  0  0  0  0  0131  0  0
  -26.4706  -37.3372   23.9061 N   0  0  0  0  0  0  0  0  0132  0  0
  -24.6674  -31.0544   22.1178 N   0  0  0  0  0  0  0  0  0133  0  0
  -23.4259  -28.8150   23.2971 O   0  0  0  0  0  0  0  0  0134  0  0
  -28.3948  -26.7345   20.0089 O   0  0  0  0  0  0  0  0  0135  0  0
  -26.5870  -34.9065   22.4671 O   0  0  0  0  0  0  0  0  0136  0  0
  -23.5365  -32.1254   23.7833 O   0  0  0  0  0  0  0  0  0137  0  0
  -28.1345  -23.6796   17.0230 C   0  0  0  0  0  0  0  0  0  0  0  0
  -28.9165  -24.5793   17.7641 C   0  0  0  0  0  0  0  0  0  0  0  0
  -29.9577  -24.0851   18.5705 C   0  0  0  0  0  0  0  0  0  0  0  0
  -28.3649  -22.3064   17.0987 C   0  0  0  0  0  0  0  0  0  0  0  0
  -30.1722  -22.7002   18.6464 C   0  0  0  0  0  0  0  0  0  0  0  0
  -29.3820  -21.8166   17.9122 C   0  0  0  0  0  0  0  0  0  0  0  0
  -28.6489  -26.0602   17.6271 C   0  0  0  0  0  0  0  0  0  0  0  0
  -30.8123  -25.0029   19.4064 C   0  0  0  0  0  0  0  0  0  0  0  0
  -30.7577  -26.4595   18.9456 C   0  0  0  0  0  0  0  0  0  0  0  0
  -29.3223  -26.9141   18.7043 C   0  0  2  0  0  0  0  0  0  1  0  0
  -31.2425  -22.1244   19.5194 C   0  0  0  0  0  0  0  0  0  0  0  0
  -27.5202  -21.3668   16.3062 C   0  0  0  0  0  0  0  0  0  0  0  0
  -26.5486  -20.6769   17.1252 N   0  0  0  0  0  0  0  0  0  0  0  0
  -29.5992  -20.4952   17.9902 F   0  0  0  0  0  0  0  0  0  0  0  0
  -31.4485  -12.4701   19.0860 H   0  0  0  0  0  0  0  0  0  0  0  0
  -30.3970  -11.2460   19.6950 H   0  0  0  0  0  0  0  0  0  0  0  0
  -29.6870  -11.8204   17.4226 H   0  0  0  0  0  0  0  0  0  0  0  0
  -29.6375  -13.5326   17.8649 H   0  0  0  0  0  0  0  0  0  0  0  0
  -27.7830  -11.3650   18.7904 H   0  0  0  0  0  0  0  0  0  0  0  0
  -27.4028  -12.7801   17.8021 H   0  0  0  0  0  0  0  0  0  0  0  0
  -27.7353  -14.2503   19.6136 H   0  0  0  0  0  0  0  0  0  0  0  0
  -28.5890  -11.9550   21.3832 H   0  0  0  0  0  0  0  0  0  0  0  0
  -28.5005  -13.6134   21.8562 H   0  0  0  0  0  0  0  0  0  0  0  0
  -25.2399   -9.5495   22.4318 H   0  0  0  0  0  0  0  0  0  0  0  0
  -23.9663   -7.5070   22.7297 H   0  0  0  0  0  0  0  0  0  0  0  0
  -21.1515   -8.8641   19.9162 H   0  0  0  0  0  0  0  0  0  0  0  0
  -22.4016  -10.9115   19.6476 H   0  0  0  0  0  0  0  0  0  0  0  0
  -21.2319   -7.5552   23.9750 H   0  0  0  0  0  0  0  0  0  0  0  0
  -21.1589   -6.0228   25.8556 H   0  0  0  0  0  0  0  0  0  0  0  0
  -22.0396   -2.8212   23.2809 H   0  0  0  0  0  0  0  0  0  0  0  0
  -22.4401  -11.9703   22.4008 H   0  0  0  0  0  0  0  0  0  0  0  0
  -21.1493  -13.0679   22.2082 H   0  0  0  0  0  0  0  0  0  0  0  0
  -24.6538  -15.7807   20.5848 H   0  0  0  0  0  0  0  0  0  0  0  0
  -26.2762  -15.5453   20.1156 H   0  0  0  0  0  0  0  0  0  0  0  0
  -26.6778  -32.4663   23.1464 H   0  0  0  0  0  0  0  0  0  0  0  0
  -25.0747  -34.0282   25.0566 H   0  0  0  0  0  0  0  0  0  0  0  0
  -22.7881  -31.3489   21.4131 H   0  0  0  0  0  0  0  0  0  0  0  0
  -23.3854  -35.9823   23.3648 H   0  0  0  0  0  0  0  0  0  0  0  0
  -24.3696  -36.8624   22.2204 H   0  0  0  0  0  0  0  0  0  0  0  0
  -23.7669  -37.6632   23.6516 H   0  0  0  0  0  0  0  0  0  0  0  0
  -25.9445  -31.6237   20.5691 H   0  0  0  0  0  0  0  0  0  0  0  0
  -26.7436  -31.0079   22.0108 H   0  0  0  0  0  0  0  0  0  0  0  0
  -28.0090  -29.1452   21.2057 H   0  0  0  0  0  0  0  0  0  0  0  0
  -26.1369  -26.0560   19.0719 H   0  0  0  0  0  0  0  0  0  0  0  0
  -24.0652  -27.2961   19.0997 H   0  0  0  0  0  0  0  0  0  0  0  0
  -23.6156  -30.5365   19.3930 H   0  0  0  0  0  0  0  0  0  0  0  0
  -22.7355  -29.1425   19.9945 H   0  0  0  0  0  0  0  0  0  0  0  0
  -25.1353  -36.2335   25.0565 H   0  0  0  0  0  0  0  0  0  0  0  0
  -21.0070  -28.3206   24.0793 H   0  0  0  0  0  0  0  0  0  0  0  0
  -20.5555  -26.2518   23.3550 H   0  0  0  0  0  0  0  0  0  0  0  0
  -21.5974  -26.8362   22.0454 H   0  0  0  0  0  0  0  0  0  0  0  0
  -19.6810  -25.6422   21.1488 H   0  0  0  0  0  0  0  0  0  0  0  0
  -19.6406  -27.3343   20.7034 H   0  0  0  0  0  0  0  0  0  0  0  0
  -17.4282  -26.6888   21.4113 H   0  0  0  0  0  0  0  0  0  0  0  0
  -18.0803  -26.0130   22.9049 H   0  0  0  0  0  0  0  0  0  0  0  0
  -19.7265  -30.6774   24.2204 H   0  0  0  0  0  0  0  0  0  0  0  0
  -17.5064  -31.5856   24.4483 H   0  0  0  0  0  0  0  0  0  0  0  0
  -15.5878  -30.2839   23.7407 H   0  0  0  0  0  0  0  0  0  0  0  0
  -15.9120  -28.0941   22.7766 H   0  0  0  0  0  0  0  0  0  0  0  0
  -24.5787  -30.7757   25.6817 H   0  0  0  0  0  0  0  0  0  0  0  0
  -25.0041  -32.2289   26.5536 H   0  0  0  0  0  0  0  0  0  0  0  0
  -25.8166  -30.7245   26.9138 H   0  0  0  0  0  0  0  0  0  0  0  0
  -26.2892  -29.7335   24.0803 H   0  0  0  0  0  0  0  0  0  0  0  0
  -27.4336  -29.7484   25.4006 H   0  0  0  0  0  0  0  0  0  0  0  0
  -27.8466  -30.4994   23.8779 H   0  0  0  0  0  0  0  0  0  0  0  0
  -27.2251  -33.3632   26.1242 H   0  0  0  0  0  0  0  0  0  0  0  0
  -28.3902  -32.6065   25.0645 H   0  0  0  0  0  0  0  0  0  0  0  0
  -27.9772  -31.8555   26.5872 H   0  0  0  0  0  0  0  0  0  0  0  0
  -28.2744  -38.0016   24.6863 H   0  0  0  0  0  0  0  0  0  0  0  0
  -28.0396  -36.2711   24.7461 H   0  0  0  0  0  0  0  0  0  0  0  0
  -27.1773  -37.3087   25.8564 H   0  0  0  0  0  0  0  0  0  0  0  0
  -20.9627  -29.9365   21.7352 H   0  0  0  0  0  0  0  0  0  0  0  0
  -26.0447  -38.2561   24.0273 H   0  0  0  0  0  0  0  0  0  0  0  0
  -27.3811  -24.0382   16.4157 H   0  0  0  0  0  0  0  0  0  0  0  0
  -27.5922  -26.2183   17.6836 H   0  0  0  0  0  0  0  0  0  0  0  0
  -29.0600  -26.3646   16.6873 H   0  0  0  0  0  0  0  0  0  0  0  0
  -31.8266  -24.6666   19.3524 H   0  0  0  0  0  0  0  0  0  0  0  0
  -30.4317  -24.9703   20.4059 H   0  0  0  0  0  0  0  0  0  0  0  0
  -31.3114  -26.5575   18.0353 H   0  0  0  0  0  0  0  0  0  0  0  0
  -31.1797  -27.0718   19.7150 H   0  0  0  0  0  0  0  0  0  0  0  0
  -29.4015  -27.9434   18.4230 H   0  0  0  0  0  0  0  0  0  0  0  0
  -31.7620  -22.9168   20.0165 H   0  0  0  0  0  0  0  0  0  0  0  0
  -31.9315  -21.5678   18.9190 H   0  0  0  0  0  0  0  0  0  0  0  0
  -30.7994  -21.4768   20.2469 H   0  0  0  0  0  0  0  0  0  0  0  0
  -28.1553  -20.6417   15.8417 H   0  0  0  0  0  0  0  0  0  0  0  0
  -26.9856  -21.9417   15.5792 H   0  0  0  0  0  0  0  0  0  0  0  0
  -25.5971  -20.9010   17.2419 H   0  0  0  0  0  0  0  0  0  0  0  0
  1 25  1  0
  1 30  2  0
  1 83  1  0
  2  3  1  0
  2 25  1  0
  2 85  1  0
  2 86  1  0
  3  4  1  0
  3 87  1  0
  3 88  1  0
  4  5  1  0
  4 89  1  0
  4 90  1  0
  5  6  1  0
  5 26  1  0
  5 91  1  6
  6 25  1  0
  6 92  1  0
  6 93  1  0
  7  8  2  0
  7 26  1  0
  7 29  1  0
  8  9  1  0
  8 22  1  0
  9 10  1  0
  9 27  2  0
 10 11  2  0
 10 15  1  0
 11 12  1  0
 11 94  1  0
 12 13  2  0
 12 95  1  0
 13 14  1  0
 13 31  1  0
 14 15  2  0
 14 96  1  0
 15 97  1  0
 16 17  2  0
 16 21  1  0
 16 31  1  0
 17 18  1  0
 17 98  1  0
 18 19  2  0
 18 99  1  0
 19 20  1  0
 19 24  1  0
 20 21  2  0
 20100  1  0
 21 23  1  0
 22 28  1  0
 22 32  2  0
 26 27  1  0
 28101  1  0
 28102  1  0
 29103  1  0
 29104  1  0
 33 34  1  0
 33 66  1  0
 33 70  2  0
 34 36  1  0
 34 59  1  0
 34105  1  6
 35 44  2  0
 35 45  1  0
 35 68  1  0
 36 56  1  0
 36106  1  0
 37 39  1  0
 37 47  1  0
 37 66  1  0
 37107  1  6
 38 43  2  0
 38 46  1  0
 38 47  1  0
 39 64  1  0
 39 67  2  0
 40 52  1  0
 40 53  2  0
 40 58  1  0
 41108  1  0
 41109  1  0
 41110  1  0
 42 43  1  0
 42 66  1  0
 42111  1  0
 42112  1  0
 43 44  1  0
 44113  1  0
 45 46  2  0
 45114  1  0
 46115  1  0
 47116  1  0
 47117  1  0
 48 41  1  0
 48 56  1  0
 48 65  1  0
 48118  1  1
 49 50  1  0
 49 53  1  0
 49 64  1  0
 49119  1  1
 50 51  1  0
 50120  1  0
 50121  1  0
 51 52  1  0
 51122  1  0
 51123  1  0
 52124  1  0
 52125  1  0
 53 54  1  0
 54 55  2  0
 54126  1  0
 55 57  1  0
 55127  1  0
 56 69  2  0
 57 58  2  0
 57128  1  0
 58129  1  0
 59 60  1  0
 59 61  1  0
 59 62  1  0
 60130  1  0
 60131  1  0
 60132  1  0
 61133  1  0
 61134  1  0
 61135  1  0
 62136  1  0
 62137  1  0
 62138  1  0
 63 65  1  0
 63139  1  0
 63140  1  0
 63141  1  0
 64142  1  0
 65143  1  0
 71 72  2  0
 71 74  1  0
 71144  1  0
 72 73  1  0
 72 77  1  0
 73 75  2  0
 73 78  1  0
 74 76  2  0
 74 82  1  0
 75 76  1  0
 75 81  1  0
 76 84  1  0
 77 80  1  0
 77145  1  0
 77146  1  0
 78 79  1  0
 78147  1  0
 78148  1  0
 79 80  1  0
 79149  1  0
 79150  1  0
 80 68  1  0
 80151  1  6
 81152  1  0
 81153  1  0
 81154  1  0
 82 83  1  0
 82155  1  0
 82156  1  0
 83157  1  0
M  ISO  4   1 100  68 101  80 101  83 100
M  END
$$$$
28
     RDKit          3D

171180  0  0  0  0  0  0  0  0999 V2000
  -30.7652  -14.3608   20.6636 C   0  0  0  0  0  0  0  0  0100  0  0
  -30.4392  -12.2669   19.3775 C   0  0  0  0  0  0  0  0  0101  0  0
  -29.4791  -12.5281   18.1977 C   0  0  0  0  0  0  0  0  0102  0  0
  -27.9985  -12.3963   18.6038 C   0  0  0  0  0  0  0  0  0103  0  0
  -27.6639  -13.2170   19.8820 C   0  0  2  0  0  0  0  0  0104  0  0
  -28.6795  -12.9602   21.0279 C   0  0  0  0  0  0  0  0  0105  0  0
  -25.2633  -13.8245   20.5754 C   0  0  0  0  0  0  0  0  0106  0  0
  -24.1645  -13.0409   20.9408 C   0  0  0  0  0  0  0  0  0107  0  0
  -24.6400  -11.7009   20.8697 C   0  0  0  0  0  0  0  0  0108  0  0
  -23.9005  -10.4085   21.0420 C   0  0  0  0  0  0  0  0  0109  0  0
  -24.3588   -9.4123   21.9123 C   0  0  0  0  0  0  0  0  0110  0  0
  -23.6296   -8.2350   22.0803 C   0  0  0  0  0  0  0  0  0111  0  0
  -22.4385   -8.0419   21.3657 C   0  0  0  0  0  0  0  0  0112  0  0
  -22.0103   -9.0167   20.4678 C   0  0  0  0  0  0  0  0  0113  0  0
  -22.7317  -10.1925   20.3102 C   0  0  0  0  0  0  0  0  0114  0  0
  -21.6857   -6.0709   22.5391 C   0  0  0  0  0  0  0  0  0115  0  0
  -21.4064   -6.5490   23.8264 C   0  0  0  0  0  0  0  0  0116  0  0
  -21.3635   -5.6677   24.9085 C   0  0  0  0  0  0  0  0  0117  0  0
  -21.5973   -4.3067   24.7088 C   0  0  0  0  0  0  0  0  0118  0  0
  -21.8700   -3.8284   23.4282 C   0  0  0  0  0  0  0  0  0119  0  0
  -21.9144   -4.7056   22.3460 C   0  0  0  0  0  0  0  0  0120  0  0
  -22.8194  -13.5263   21.1763 C   0  0  0  0  0  0  0  0  0121  0  0
  -22.1559   -4.2206   21.1063 F   0  0  0  0  0  0  0  0  0122  0  0
  -21.5628   -3.4510   25.7555 F   0  0  0  0  0  0  0  0  0123  0  0
  -30.0261  -13.1803   20.4553 N   0  0  0  0  0  0  0  0  0124  0  0
  -26.2911  -12.9356   20.3443 N   0  0  0  0  0  0  0  0  0125  0  0
  -25.9236  -11.6675   20.5847 N   0  0  0  0  0  0  0  0  0126  0  0
  -22.0708  -12.7905   22.0005 N   0  0  0  0  0  0  0  0  0127  0  0
  -25.4117  -15.1773   20.4097 N   0  0  0  0  0  0  0  0  0128  0  0
  -31.7916  -14.6724   20.0536 O   0  0  0  0  0  0  0  0  0129  0  0
  -21.6670   -6.9022   21.4423 O   0  0  0  0  0  0  0  0  0130  0  0
  -22.3946  -14.5564   20.6568 O   0  0  0  0  0  0  0  0  0131  0  0
  -24.6048  -31.8614   23.2223 C   0  0  0  0  0  0  0  0  0100  0  0
  -25.8822  -32.4841   23.8616 C   0  0  1  0  0  0  0  0  0101  0  0
  -27.2536  -27.5042   20.1156 C   0  0  0  0  0  0  0  0  0102  0  0
  -25.5726  -33.8762   24.2210 N   0  0  0  0  0  0  0  0  0103  0  0
  -23.4066  -30.4859   21.5461 C   0  0  2  0  0  0  0  0  0104  0  0
  -24.8467  -28.9636   20.1247 C   0  0  0  0  0  0  0  0  0105  0  0
  -22.7412  -29.4652   22.5052 C   0  0  0  0  0  0  0  0  0106  0  0
  -18.0167  -28.1302   22.8626 C   0  0  0  0  0  0  0  0  0107  0  0
  -24.1342  -36.7390   23.2568 C   0  0  0  0  0  0  0  0  0108  0  0
  -25.9141  -30.8882   21.3456 C   0  0  0  0  0  0  0  0  0109  0  0
  -25.9930  -29.5029   20.7208 C   0  0  0  0  0  0  0  0  0110  0  0
  -27.1758  -28.7612   20.7331 C   0  0  0  0  0  0  0  0  0111  0  0
  -26.1032  -26.9836   19.5230 C   0  0  0  0  0  0  0  0  0112  0  0
  -24.9097  -27.7011   19.5331 C   0  0  0  0  0  0  0  0  0113  0  0
  -23.5715  -29.7899   20.1582 C   0  0  0  0  0  0  0  0  0114  0  0
  -25.3990  -36.3212   24.0232 C   0  0  1  0  0  0  0  0  0115  0  0
  -20.5793  -28.3813   23.1004 C   0  0  2  0  0  0  0  0  0116  0  0
  -20.6548  -26.9392   22.5411 C   0  0  0  0  0  0  0  0  0117  0  0
  -19.5615  -26.6407   21.5143 C   0  0  0  0  0  0  0  0  0118  0  0
  -18.1797  -26.7818   22.1673 C   0  0  0  0  0  0  0  0  0119  0  0
  -19.1385  -28.8769   23.2988 C   0  0  0  0  0  0  0  0  0120  0  0
  -18.9183  -30.1286   23.8878 C   0  0  0  0  0  0  0  0  0121  0  0
  -17.6396  -30.6493   24.0352 C   0  0  0  0  0  0  0  0  0122  0  0
  -25.9153  -34.9582   23.4993 C   0  0  0  0  0  0  0  0  0123  0  0
  -16.5415  -29.9068   23.6254 C   0  0  0  0  0  0  0  0  0124  0  0
  -16.7331  -28.6521   23.0586 C   0  0  0  0  0  0  0  0  0125  0  0
  -26.4583  -31.6439   25.0683 C   0  0  0  0  0  0  0  0  0126  0  0
  -25.3807  -31.3179   26.1374 C   0  0  0  0  0  0  0  0  0127  0  0
  -27.0530  -30.3024   24.5680 C   0  0  0  0  0  0  0  0  0128  0  0
  -27.6014  -32.4281   25.7651 C   0  0  0  0  0  0  0  0  0129  0  0
  -27.5629  -37.2220   24.8621 C   0  0  0  0  0  0  0  0  0130  0  0
  -21.4133  -29.3375   22.3735 N   0  0  0  0  0  0  0  0  0131  0  0
  -26.4706  -37.3372   23.9061 N   0  0  0  0  0  0  0  0  0132  0  0
  -24.6674  -31.0544   22.1178 N   0  0  0  0  0  0  0  0  0133  0  0
  -23.4259  -28.8150   23.2971 O   0  0  0  0  0  0  0  0  0134  0  0
  -28.3948  -26.7345   20.0089 O   0  0  0  0  0  0  0  0  0135  0  0
  -26.5870  -34.9065   22.4671 O   0  0  0  0  0  0  0  0  0136  0  0
  -23.5365  -32.1254   23.7833 O   0  0  0  0  0  0  0  0  0137  0  0
  -25.4852  -11.9406   20.5103 C   0  0  0  0  0  0  0  0  0  0  0  0
  -24.3996  -12.5834   19.9397 C   0  0  0  0  0  0  0  0  0  0  0  0
  -26.2627  -12.9817   21.0606 C   0  0  0  0  0  0  0  0  0  0  0  0
  -22.9740  -10.5135   19.4615 C   0  0  0  0  0  0  0  0  0  0  0  0
  -22.5909   -9.6170   18.5352 C   0  0  0  0  0  0  0  0  0  0  0  0
  -23.2045  -10.0387   20.8864 C   0  0  0  0  0  0  0  0  0  0  0  0
  -25.7534  -10.4800   20.5127 C   0  0  1  0  0  0  0  0  0  0  0  0
  -24.6664   -9.6416   21.2148 C   0  0  1  0  0  0  0  0  0  0  0  0
  -23.1937  -12.0266   19.1916 C   0  0  0  0  0  0  0  0  0  0  0  0
  -24.8627   -9.6485   22.7348 C   0  0  0  0  0  0  0  0  0  0  0  0
  -21.9065  -12.7572   19.6447 C   0  0  0  0  0  0  0  0  0  0  0  0
  -23.4057  -12.3356   17.6882 C   0  0  0  0  0  0  0  0  0  0  0  0
  -27.5373  -12.8775   21.7929 C   0  0  0  0  0  0  0  0  0  0  0  0
  -24.5780  -16.4015   20.0052 C   0  0  0  0  0  0  0  0  0  0  0  0
  -23.8503  -15.0765   19.7673 C   0  0  0  0  0  0  0  0  0  0  0  0
  -23.7345  -17.6239   19.6625 C   0  0  0  0  0  0  0  0  0  1  0  0
  -25.7306  -14.1879   20.8585 N   0  0  0  0  0  0  0  0  0  0  0  0
  -24.6089  -13.9179   20.1729 N   0  0  0  0  0  0  0  0  0  0  0  0
  -25.8473  -10.0427   19.2199 F   0  0  0  0  0  0  0  0  0  0  0  0
  -31.4485  -12.4701   19.0860 H   0  0  0  0  0  0  0  0  0  0  0  0
  -30.3970  -11.2460   19.6950 H   0  0  0  0  0  0  0  0  0  0  0  0
  -29.6870  -11.8204   17.4226 H   0  0  0  0  0  0  0  0  0  0  0  0
  -29.6375  -13.5326   17.8649 H   0  0  0  0  0  0  0  0  0  0  0  0
  -27.7830  -11.3650   18.7904 H   0  0  0  0  0  0  0  0  0  0  0  0
  -27.4028  -12.7801   17.8021 H   0  0  0  0  0  0  0  0  0  0  0  0
  -27.7353  -14.2503   19.6136 H   0  0  0  0  0  0  0  0  0  0  0  0
  -28.5890  -11.9550   21.3832 H   0  0  0  0  0  0  0  0  0  0  0  0
  -28.5005  -13.6134   21.8562 H   0  0  0  0  0  0  0  0  0  0  0  0
  -25.2399   -9.5495   22.4318 H   0  0  0  0  0  0  0  0  0  0  0  0
  -23.9663   -7.5070   22.7297 H   0  0  0  0  0  0  0  0  0  0  0  0
  -21.1515   -8.8641   19.9162 H   0  0  0  0  0  0  0  0  0  0  0  0
  -22.4016  -10.9115   19.6476 H   0  0  0  0  0  0  0  0  0  0  0  0
  -21.2319   -7.5552   23.9750 H   0  0  0  0  0  0  0  0  0  0  0  0
  -21.1589   -6.0228   25.8556 H   0  0  0  0  0  0  0  0  0  0  0  0
  -22.0396   -2.8212   23.2809 H   0  0  0  0  0  0  0  0  0  0  0  0
  -22.4401  -11.9703   22.4008 H   0  0  0  0  0  0  0  0  0  0  0  0
  -21.1493  -13.0679   22.2082 H   0  0  0  0  0  0  0  0  0  0  0  0
  -24.6538  -15.7807   20.5848 H   0  0  0  0  0  0  0  0  0  0  0  0
  -26.2762  -15.5453   20.1156 H   0  0  0  0  0  0  0  0  0  0  0  0
  -26.6778  -32.4663   23.1464 H   0  0  0  0  0  0  0  0  0  0  0  0
  -25.0747  -34.0282   25.0566 H   0  0  0  0  0  0  0  0  0  0  0  0
  -22.7881  -31.3489   21.4131 H   0  0  0  0  0  0  0  0  0  0  0  0
  -23.3854  -35.9823   23.3648 H   0  0  0  0  0  0  0  0  0  0  0  0
  -24.3696  -36.8624   22.2204 H   0  0  0  0  0  0  0  0  0  0  0  0
  -23.7669  -37.6632   23.6516 H   0  0  0  0  0  0  0  0  0  0  0  0
  -25.9445  -31.6237   20.5691 H   0  0  0  0  0  0  0  0  0  0  0  0
  -26.7436  -31.0079   22.0108 H   0  0  0  0  0  0  0  0  0  0  0  0
  -28.0090  -29.1452   21.2057 H   0  0  0  0  0  0  0  0  0  0  0  0
  -26.1369  -26.0560   19.0719 H   0  0  0  0  0  0  0  0  0  0  0  0
  -24.0652  -27.2961   19.0997 H   0  0  0  0  0  0  0  0  0  0  0  0
  -23.6156  -30.5365   19.3930 H   0  0  0  0  0  0  0  0  0  0  0  0
  -22.7355  -29.1425   19.9945 H   0  0  0  0  0  0  0  0  0  0  0  0
  -25.1353  -36.2335   25.0565 H   0  0  0  0  0  0  0  0  0  0  0  0
  -21.0070  -28.3206   24.0793 H   0  0  0  0  0  0  0  0  0  0  0  0
  -20.5555  -26.2518   23.3550 H   0  0  0  0  0  0  0  0  0  0  0  0
  -21.5974  -26.8362   22.0454 H   0  0  0  0  0  0  0  0  0  0  0  0
  -19.6810  -25.6422   21.1488 H   0  0  0  0  0  0  0  0  0  0  0  0
  -19.6406  -27.3343   20.7034 H   0  0  0  0  0  0  0  0  0  0  0  0
  -17.4282  -26.6888   21.4113 H   0  0  0  0  0  0  0  0  0  0  0  0
  -18.0803  -26.0130   22.9049 H   0  0  0  0  0  0  0  0  0  0  0  0
  -19.7265  -30.6774   24.2204 H   0  0  0  0  0  0  0  0  0  0  0  0
  -17.5064  -31.5856   24.4483 H   0  0  0  0  0  0  0  0  0  0  0  0
  -15.5878  -30.2839   23.7407 H   0  0  0  0  0  0  0  0  0  0  0  0
  -15.9120  -28.0941   22.7766 H   0  0  0  0  0  0  0  0  0  0  0  0
  -24.5787  -30.7757   25.6817 H   0  0  0  0  0  0  0  0  0  0  0  0
  -25.0041  -32.2289   26.5536 H   0  0  0  0  0  0  0  0  0  0  0  0
  -25.8166  -30.7245   26.9138 H   0  0  0  0  0  0  0  0  0  0  0  0
  -26.2892  -29.7335   24.0803 H   0  0  0  0  0  0  0  0  0  0  0  0
  -27.4336  -29.7484   25.4006 H   0  0  0  0  0  0  0  0  0  0  0  0
  -27.8466  -30.4994   23.8779 H   0  0  0  0  0  0  0  0  0  0  0  0
  -27.2251  -33.3632   26.1242 H   0  0  0  0  0  0  0  0  0  0  0  0
  -28.3902  -32.6065   25.0645 H   0  0  0  0  0  0  0  0  0  0  0  0
  -27.9772  -31.8555   26.5872 H   0  0  0  0  0  0  0  0  0  0  0  0
  -28.2744  -38.0016   24.6863 H   0  0  0  0  0  0  0  0  0  0  0  0
  -28.0396  -36.2711   24.7461 H   0  0  0  0  0  0  0  0  0  0  0  0
  -27.1773  -37.3087   25.8564 H   0  0  0  0  0  0  0  0  0  0  0  0
  -20.9627  -29.9365   21.7352 H   0  0  0  0  0  0  0  0  0  0  0  0
  -26.0447  -38.2561   24.0273 H   0  0  0  0  0  0  0  0  0  0  0  0
  -22.4667   -8.6263   18.7962 H   0  0  0  0  0  0  0  0  0  0  0  0
  -22.4211   -9.9197   17.5633 H   0  0  0  0  0  0  0  0  0  0  0  0
  -22.5822   -9.1852   21.0569 H   0  0  0  0  0  0  0  0  0  0  0  0
  -22.9698  -10.8682   21.5202 H   0  0  0  0  0  0  0  0  0  0  0  0
  -26.6632  -10.3462   21.0598 H   0  0  0  0  0  0  0  0  0  0  0  0
  -24.8011   -8.6572   20.8177 H   0  0  0  0  0  0  0  0  0  0  0  0
  -24.7232  -10.6416   23.1079 H   0  0  0  0  0  0  0  0  0  0  0  0
  -25.8524   -9.3155   22.9681 H   0  0  0  0  0  0  0  0  0  0  0  0
  -24.1495   -8.9932   23.1895 H   0  0  0  0  0  0  0  0  0  0  0  0
  -21.7324  -12.5626   20.6824 H   0  0  0  0  0  0  0  0  0  0  0  0
  -21.0752  -12.4038   19.0712 H   0  0  0  0  0  0  0  0  0  0  0  0
  -22.0221  -13.8102   19.4938 H   0  0  0  0  0  0  0  0  0  0  0  0
  -24.2910  -11.8428   17.3442 H   0  0  0  0  0  0  0  0  0  0  0  0
  -23.5097  -13.3918   17.5524 H   0  0  0  0  0  0  0  0  0  0  0  0
  -22.5628  -11.9855   17.1298 H   0  0  0  0  0  0  0  0  0  0  0  0
  -27.7241  -11.8289   21.8948 H   0  0  0  0  0  0  0  0  0  0  0  0
  -27.3257  -13.4935   22.6418 H   0  0  0  0  0  0  0  0  0  0  0  0
  -25.4604  -16.4175   19.4002 H   0  0  0  0  0  0  0  0  0  0  0  0
  -24.8036  -16.4555   21.0497 H   0  0  0  0  0  0  0  0  0  0  0  0
  -23.6362  -14.9914   18.7224 H   0  0  0  0  0  0  0  0  0  0  0  0
  -22.9632  -15.0948   20.3653 H   0  0  0  0  0  0  0  0  0  0  0  0
  -22.9154  -17.6540   20.3503 H   0  0  0  0  0  0  0  0  0  0  0  0
  -23.4581  -17.4921   18.6373 H   0  0  0  0  0  0  0  0  0  0  0  0
  1 25  1  0
  1 30  2  0
  1 83  1  0
  2  3  1  0
  2 25  1  0
  2 90  1  0
  2 91  1  0
  3  4  1  0
  3 92  1  0
  3 93  1  0
  4  5  1  0
  4 94  1  0
  4 95  1  0
  5  6  1  0
  5 26  1  0
  5 96  1  6
  6 25  1  0
  6 97  1  0
  6 98  1  0
  7  8  2  0
  7 26  1  0
  7 29  1  0
  8  9  1  0
  8 22  1  0
  9 10  1  0
  9 27  2  0
 10 11  2  0
 10 15  1  0
 11 12  1  0
 11 99  1  0
 12 13  2  0
 12100  1  0
 13 14  1  0
 13 31  1  0
 14 15  2  0
 14101  1  0
 15102  1  0
 16 17  2  0
 16 21  1  0
 16 31  1  0
 17 18  1  0
 17103  1  0
 18 19  2  0
 18104  1  0
 19 20  1  0
 19 24  1  0
 20 21  2  0
 20105  1  0
 21 23  1  0
 22 28  1  0
 22 32  2  0
 26 27  1  0
 28106  1  0
 28107  1  0
 29108  1  0
 29109  1  0
 33 34  1  0
 33 66  1  0
 33 70  2  0
 34 36  1  0
 34 59  1  0
 34110  1  6
 35 44  2  0
 35 45  1  0
 35 68  1  0
 36 56  1  0
 36111  1  0
 37 39  1  0
 37 47  1  0
 37 66  1  0
 37112  1  6
 38 43  2  0
 38 46  1  0
 38 47  1  0
 39 64  1  0
 39 67  2  0
 40 52  1  0
 40 53  2  0
 40 58  1  0
 41113  1  0
 41114  1  0
 41115  1  0
 42 43  1  0
 42 66  1  0
 42116  1  0
 42117  1  0
 43 44  1  0
 44118  1  0
 45 46  2  0
 45119  1  0
 46120  1  0
 47121  1  0
 47122  1  0
 48 41  1  0
 48 56  1  0
 48 65  1  0
 48123  1  1
 49 50  1  0
 49 53  1  0
 49 64  1  0
 49124  1  1
 50 51  1  0
 50125  1  0
 50126  1  0
 51 52  1  0
 51127  1  0
 51128  1  0
 52129  1  0
 52130  1  0
 53 54  1  0
 54 55  2  0
 54131  1  0
 55 57  1  0
 55132  1  0
 56 69  2  0
 57 58  2  0
 57133  1  0
 58134  1  0
 59 60  1  0
 59 61  1  0
 59 62  1  0
 60135  1  0
 60136  1  0
 60137  1  0
 61138  1  0
 61139  1  0
 61140  1  0
 62141  1  0
 62142  1  0
 62143  1  0
 63 65  1  0
 63144  1  0
 63145  1  0
 63146  1  0
 64147  1  0
 65148  1  0
 68 86  1  0
 71 72  2  0
 71 73  1  0
 71 77  1  0
 72 79  1  0
 72 88  1  0
 73 83  1  0
 73 87  2  0
 74 75  2  0
 74 76  1  0
 74 79  1  0
 75149  1  0
 75150  1  0
 76 78  1  0
 76151  1  0
 76152  1  0
 77 78  1  0
 77 89  1  0
 77153  1  1
 78 80  1  0
 78154  1  6
 79 81  1  0
 79 82  1  0
 80155  1  0
 80156  1  0
 80157  1  0
 81158  1  0
 81159  1  0
 81160  1  0
 82161  1  0
 82162  1  0
 82163  1  0
 83164  1  0
 83165  1  0
 84 85  1  0
 84 86  1  0
 84166  1  0
 84167  1  0
 85 88  1  0
 85168  1  0
 85169  1  0
 86170  1  0
 86171  1  0
 87 88  1  0
M  ISO  4   1 100  68 101  83 100  86 101
M  END
$$$$
29
     RDKit          3D

159167  0  0  0  0  0  0  0  0999 V2000
  -30.7652  -14.3608   20.6636 C   0  0  0  0  0  0  0  0  0100  0  0
  -30.4392  -12.2669   19.3775 C   0  0  0  0  0  0  0  0  0101  0  0
  -29.4791  -12.5281   18.1977 C   0  0  0  0  0  0  0  0  0102  0  0
  -27.9985  -12.3963   18.6038 C   0  0  0  0  0  0  0  0  0103  0  0
  -27.6639  -13.2170   19.8820 C   0  0  2  0  0  0  0  0  0104  0  0
  -28.6795  -12.9602   21.0279 C   0  0  0  0  0  0  0  0  0105  0  0
  -25.2633  -13.8245   20.5754 C   0  0  0  0  0  0  0  0  0106  0  0
  -24.1645  -13.0409   20.9408 C   0  0  0  0  0  0  0  0  0107  0  0
  -24.6400  -11.7009   20.8697 C   0  0  0  0  0  0  0  0  0108  0  0
  -23.9005  -10.4085   21.0420 C   0  0  0  0  0  0  0  0  0109  0  0
  -24.3588   -9.4123   21.9123 C   0  0  0  0  0  0  0  0  0110  0  0
  -23.6296   -8.2350   22.0803 C   0  0  0  0  0  0  0  0  0111  0  0
  -22.4385   -8.0419   21.3657 C   0  0  0  0  0  0  0  0  0112  0  0
  -22.0103   -9.0167   20.4678 C   0  0  0  0  0  0  0  0  0113  0  0
  -22.7317  -10.1925   20.3102 C   0  0  0  0  0  0  0  0  0114  0  0
  -21.6857   -6.0709   22.5391 C   0  0  0  0  0  0  0  0  0115  0  0
  -21.4064   -6.5490   23.8264 C   0  0  0  0  0  0  0  0  0116  0  0
  -21.3635   -5.6677   24.9085 C   0  0  0  0  0  0  0  0  0117  0  0
  -21.5973   -4.3067   24.7088 C   0  0  0  0  0  0  0  0  0118  0  0
  -21.8700   -3.8284   23.4282 C   0  0  0  0  0  0  0  0  0119  0  0
  -21.9144   -4.7056   22.3460 C   0  0  0  0  0  0  0  0  0120  0  0
  -22.8194  -13.5263   21.1763 C   0  0  0  0  0  0  0  0  0121  0  0
  -22.1559   -4.2206   21.1063 F   0  0  0  0  0  0  0  0  0122  0  0
  -21.5628   -3.4510   25.7555 F   0  0  0  0  0  0  0  0  0123  0  0
  -30.0261  -13.1803   20.4553 N   0  0  0  0  0  0  0  0  0124  0  0
  -26.2911  -12.9356   20.3443 N   0  0  0  0  0  0  0  0  0125  0  0
  -25.9236  -11.6675   20.5847 N   0  0  0  0  0  0  0  0  0126  0  0
  -22.0708  -12.7905   22.0005 N   0  0  0  0  0  0  0  0  0127  0  0
  -25.4117  -15.1773   20.4097 N   0  0  0  0  0  0  0  0  0128  0  0
  -31.7916  -14.6724   20.0536 O   0  0  0  0  0  0  0  0  0129  0  0
  -21.6670   -6.9022   21.4423 O   0  0  0  0  0  0  0  0  0130  0  0
  -22.3946  -14.5564   20.6568 O   0  0  0  0  0  0  0  0  0131  0  0
  -24.6048  -31.8614   23.2223 C   0  0  0  0  0  0  0  0  0100  0  0
  -25.8822  -32.4841   23.8616 C   0  0  1  0  0  0  0  0  0101  0  0
  -27.2536  -27.5042   20.1156 C   0  0  0  0  0  0  0  0  0102  0  0
  -25.5726  -33.8762   24.2210 N   0  0  0  0  0  0  0  0  0103  0  0
  -23.4066  -30.4859   21.5461 C   0  0  2  0  0  0  0  0  0104  0  0
  -24.8467  -28.9636   20.1247 C   0  0  0  0  0  0  0  0  0105  0  0
  -22.7412  -29.4652   22.5052 C   0  0  0  0  0  0  0  0  0106  0  0
  -18.0167  -28.1302   22.8626 C   0  0  0  0  0  0  0  0  0107  0  0
  -24.1342  -36.7390   23.2568 C   0  0  0  0  0  0  0  0  0108  0  0
  -25.9141  -30.8882   21.3456 C   0  0  0  0  0  0  0  0  0109  0  0
  -25.9930  -29.5029   20.7208 C   0  0  0  0  0  0  0  0  0110  0  0
  -27.1758  -28.7612   20.7331 C   0  0  0  0  0  0  0  0  0111  0  0
  -26.1032  -26.9836   19.5230 C   0  0  0  0  0  0  0  0  0112  0  0
  -24.9097  -27.7011   19.5331 C   0  0  0  0  0  0  0  0  0113  0  0
  -23.5715  -29.7899   20.1582 C   0  0  0  0  0  0  0  0  0114  0  0
  -25.3990  -36.3212   24.0232 C   0  0  1  0  0  0  0  0  0115  0  0
  -20.5793  -28.3813   23.1004 C   0  0  2  0  0  0  0  0  0116  0  0
  -20.6548  -26.9392   22.5411 C   0  0  0  0  0  0  0  0  0117  0  0
  -19.5615  -26.6407   21.5143 C   0  0  0  0  0  0  0  0  0118  0  0
  -18.1797  -26.7818   22.1673 C   0  0  0  0  0  0  0  0  0119  0  0
  -19.1385  -28.8769   23.2988 C   0  0  0  0  0  0  0  0  0120  0  0
  -18.9183  -30.1286   23.8878 C   0  0  0  0  0  0  0  0  0121  0  0
  -17.6396  -30.6493   24.0352 C   0  0  0  0  0  0  0  0  0122  0  0
  -25.9153  -34.9582   23.4993 C   0  0  0  0  0  0  0  0  0123  0  0
  -16.5415  -29.9068   23.6254 C   0  0  0  0  0  0  0  0  0124  0  0
  -16.7331  -28.6521   23.0586 C   0  0  0  0  0  0  0  0  0125  0  0
  -26.4583  -31.6439   25.0683 C   0  0  0  0  0  0  0  0  0126  0  0
  -25.3807  -31.3179   26.1374 C   0  0  0  0  0  0  0  0  0127  0  0
  -27.0530  -30.3024   24.5680 C   0  0  0  0  0  0  0  0  0128  0  0
  -27.6014  -32.4281   25.7651 C   0  0  0  0  0  0  0  0  0129  0  0
  -27.5629  -37.2220   24.8621 C   0  0  0  0  0  0  0  0  0130  0  0
  -21.4133  -29.3375   22.3735 N   0  0  0  0  0  0  0  0  0131  0  0
  -26.4706  -37.3372   23.9061 N   0  0  0  0  0  0  0  0  0132  0  0
  -24.6674  -31.0544   22.1178 N   0  0  0  0  0  0  0  0  0133  0  0
  -23.4259  -28.8150   23.2971 O   0  0  0  0  0  0  0  0  0134  0  0
  -28.3948  -26.7345   20.0089 O   0  0  0  0  0  0  0  0  0135  0  0
  -26.5870  -34.9065   22.4671 O   0  0  0  0  0  0  0  0  0136  0  0
  -23.5365  -32.1254   23.7833 O   0  0  0  0  0  0  0  0  0137  0  0
  -19.8190  -25.9665   23.7571 C   0  0  0  0  0  0  0  0  0  0  0  0
  -18.7025  -27.7772   21.9522 C   0  0  0  0  0  0  0  0  0  0  0  0
  -20.1890  -27.3107   23.7988 C   0  0  0  0  0  0  0  0  0  0  0  0
  -18.8908  -25.5276   22.8129 C   0  0  0  0  0  0  0  0  0  0  0  0
  -19.6307  -28.2161   22.8964 C   0  0  0  0  0  0  0  0  0  0  0  0
  -18.3325  -26.4329   21.9105 C   0  0  0  0  0  0  0  0  0  0  0  0
  -21.1862  -27.7583   24.8165 C   0  0  0  0  0  0  0  0  0  0  0  0
  -18.5178  -24.0665   22.8009 C   0  0  0  0  0  0  0  0  0  0  0  0
  -20.0139  -29.6595   22.9206 C   0  0  0  0  0  0  0  0  0  0  0  0
  -19.1691  -23.2705   21.6645 C   0  0  0  0  0  0  0  0  0  0  0  0
  -20.6949  -23.2303   21.7597 C   0  0  0  0  0  0  0  0  0  0  0  0
  -21.3078  -22.4659   20.5942 C   0  0  0  0  0  0  0  0  0  1  0  0
  -21.3233  -29.8883   22.3516 N   0  0  0  0  0  0  0  0  0  0  0  0
  -17.1813  -25.9265   20.7282 Cl  0  0  0  0  0  0  0  0  0  0  0  0
  -31.4485  -12.4701   19.0860 H   0  0  0  0  0  0  0  0  0  0  0  0
  -30.3970  -11.2460   19.6950 H   0  0  0  0  0  0  0  0  0  0  0  0
  -29.6870  -11.8204   17.4226 H   0  0  0  0  0  0  0  0  0  0  0  0
  -29.6375  -13.5326   17.8649 H   0  0  0  0  0  0  0  0  0  0  0  0
  -27.7830  -11.3650   18.7904 H   0  0  0  0  0  0  0  0  0  0  0  0
  -27.4028  -12.7801   17.8021 H   0  0  0  0  0  0  0  0  0  0  0  0
  -27.7353  -14.2503   19.6136 H   0  0  0  0  0  0  0  0  0  0  0  0
  -28.5890  -11.9550   21.3832 H   0  0  0  0  0  0  0  0  0  0  0  0
  -28.5005  -13.6134   21.8562 H   0  0  0  0  0  0  0  0  0  0  0  0
  -25.2399   -9.5495   22.4318 H   0  0  0  0  0  0  0  0  0  0  0  0
  -23.9663   -7.5070   22.7297 H   0  0  0  0  0  0  0  0  0  0  0  0
  -21.1515   -8.8641   19.9162 H   0  0  0  0  0  0  0  0  0  0  0  0
  -22.4016  -10.9115   19.6476 H   0  0  0  0  0  0  0  0  0  0  0  0
  -21.2319   -7.5552   23.9750 H   0  0  0  0  0  0  0  0  0  0  0  0
  -21.1589   -6.0228   25.8556 H   0  0  0  0  0  0  0  0  0  0  0  0
  -22.0396   -2.8212   23.2809 H   0  0  0  0  0  0  0  0  0  0  0  0
  -22.4401  -11.9703   22.4008 H   0  0  0  0  0  0  0  0  0  0  0  0
  -21.1493  -13.0679   22.2082 H   0  0  0  0  0  0  0  0  0  0  0  0
  -24.6538  -15.7807   20.5848 H   0  0  0  0  0  0  0  0  0  0  0  0
  -26.2762  -15.5453   20.1156 H   0  0  0  0  0  0  0  0  0  0  0  0
  -26.6778  -32.4663   23.1464 H   0  0  0  0  0  0  0  0  0  0  0  0
  -25.0747  -34.0282   25.0566 H   0  0  0  0  0  0  0  0  0  0  0  0
  -22.7881  -31.3489   21.4131 H   0  0  0  0  0  0  0  0  0  0  0  0
  -23.3854  -35.9823   23.3648 H   0  0  0  0  0  0  0  0  0  0  0  0
  -24.3696  -36.8624   22.2204 H   0  0  0  0  0  0  0  0  0  0  0  0
  -23.7669  -37.6632   23.6516 H   0  0  0  0  0  0  0  0  0  0  0  0
  -25.9445  -31.6237   20.5691 H   0  0  0  0  0  0  0  0  0  0  0  0
  -26.7436  -31.0079   22.0108 H   0  0  0  0  0  0  0  0  0  0  0  0
  -28.0090  -29.1452   21.2057 H   0  0  0  0  0  0  0  0  0  0  0  0
  -26.1369  -26.0560   19.0719 H   0  0  0  0  0  0  0  0  0  0  0  0
  -24.0652  -27.2961   19.0997 H   0  0  0  0  0  0  0  0  0  0  0  0
  -23.6156  -30.5365   19.3930 H   0  0  0  0  0  0  0  0  0  0  0  0
  -22.7355  -29.1425   19.9945 H   0  0  0  0  0  0  0  0  0  0  0  0
  -25.1353  -36.2335   25.0565 H   0  0  0  0  0  0  0  0  0  0  0  0
  -21.0070  -28.3206   24.0793 H   0  0  0  0  0  0  0  0  0  0  0  0
  -20.5555  -26.2518   23.3550 H   0  0  0  0  0  0  0  0  0  0  0  0
  -21.5974  -26.8362   22.0454 H   0  0  0  0  0  0  0  0  0  0  0  0
  -19.6810  -25.6422   21.1488 H   0  0  0  0  0  0  0  0  0  0  0  0
  -19.6406  -27.3343   20.7034 H   0  0  0  0  0  0  0  0  0  0  0  0
  -17.4282  -26.6888   21.4113 H   0  0  0  0  0  0  0  0  0  0  0  0
  -18.0803  -26.0130   22.9049 H   0  0  0  0  0  0  0  0  0  0  0  0
  -19.7265  -30.6774   24.2204 H   0  0  0  0  0  0  0  0  0  0  0  0
  -17.5064  -31.5856   24.4483 H   0  0  0  0  0  0  0  0  0  0  0  0
  -15.5878  -30.2839   23.7407 H   0  0  0  0  0  0  0  0  0  0  0  0
  -15.9120  -28.0941   22.7766 H   0  0  0  0  0  0  0  0  0  0  0  0
  -24.5787  -30.7757   25.6817 H   0  0  0  0  0  0  0  0  0  0  0  0
  -25.0041  -32.2289   26.5536 H   0  0  0  0  0  0  0  0  0  0  0  0
  -25.8166  -30.7245   26.9138 H   0  0  0  0  0  0  0  0  0  0  0  0
  -26.2892  -29.7335   24.0803 H   0  0  0  0  0  0  0  0  0  0  0  0
  -27.4336  -29.7484   25.4006 H   0  0  0  0  0  0  0  0  0  0  0  0
  -27.8466  -30.4994   23.8779 H   0  0  0  0  0  0  0  0  0  0  0  0
  -27.2251  -33.3632   26.1242 H   0  0  0  0  0  0  0  0  0  0  0  0
  -28.3902  -32.6065   25.0645 H   0  0  0  0  0  0  0  0  0  0  0  0
  -27.9772  -31.8555   26.5872 H   0  0  0  0  0  0  0  0  0  0  0  0
  -28.2744  -38.0016   24.6863 H   0  0  0  0  0  0  0  0  0  0  0  0
  -28.0396  -36.2711   24.7461 H   0  0  0  0  0  0  0  0  0  0  0  0
  -27.1773  -37.3087   25.8564 H   0  0  0  0  0  0  0  0  0  0  0  0
  -20.9627  -29.9365   21.7352 H   0  0  0  0  0  0  0  0  0  0  0  0
  -26.0447  -38.2561   24.0273 H   0  0  0  0  0  0  0  0  0  0  0  0
  -20.2320  -25.2967   24.4248 H   0  0  0  0  0  0  0  0  0  0  0  0
  -18.2895  -28.4470   21.2845 H   0  0  0  0  0  0  0  0  0  0  0  0
  -21.4918  -26.9211   25.4087 H   0  0  0  0  0  0  0  0  0  0  0  0
  -20.7429  -28.4993   25.4484 H   0  0  0  0  0  0  0  0  0  0  0  0
  -22.0384  -28.1751   24.3216 H   0  0  0  0  0  0  0  0  0  0  0  0
  -17.4553  -23.9905   22.7000 H   0  0  0  0  0  0  0  0  0  0  0  0
  -18.8734  -23.6468   23.7187 H   0  0  0  0  0  0  0  0  0  0  0  0
  -20.0156  -29.9983   23.9356 H   0  0  0  0  0  0  0  0  0  0  0  0
  -19.3016  -30.1976   22.3307 H   0  0  0  0  0  0  0  0  0  0  0  0
  -18.8976  -23.7218   20.7331 H   0  0  0  0  0  0  0  0  0  0  0  0
  -18.8176  -22.2625   21.7381 H   0  0  0  0  0  0  0  0  0  0  0  0
  -20.9735  -22.7507   22.6747 H   0  0  0  0  0  0  0  0  0  0  0  0
  -21.0593  -24.2359   21.7298 H   0  0  0  0  0  0  0  0  0  0  0  0
  -20.7161  -22.5391   19.7057 H   0  0  0  0  0  0  0  0  0  0  0  0
  -21.4062  -21.4086   20.7262 H   0  0  0  0  0  0  0  0  0  0  0  0
  -21.6639  -30.7735   22.0875 H   0  0  0  0  0  0  0  0  0  0  0  0
  1 25  1  0
  1 30  2  0
  1 83  1  0
  2  3  1  0
  2 25  1  0
  2 85  1  0
  2 86  1  0
  3  4  1  0
  3 87  1  0
  3 88  1  0
  4  5  1  0
  4 89  1  0
  4 90  1  0
  5  6  1  0
  5 26  1  0
  5 91  1  6
  6 25  1  0
  6 92  1  0
  6 93  1  0
  7  8  2  0
  7 26  1  0
  7 29  1  0
  8  9  1  0
  8 22  1  0
  9 10  1  0
  9 27  2  0
 10 11  2  0
 10 15  1  0
 11 12  1  0
 11 94  1  0
 12 13  2  0
 12 95  1  0
 13 14  1  0
 13 31  1  0
 14 15  2  0
 14 96  1  0
 15 97  1  0
 16 17  2  0
 16 21  1  0
 16 31  1  0
 17 18  1  0
 17 98  1  0
 18 19  2  0
 18 99  1  0
 19 20  1  0
 19 24  1  0
 20 21  2  0
 20100  1  0
 21 23  1  0
 22 28  1  0
 22 32  2  0
 26 27  1  0
 28101  1  0
 28102  1  0
 29103  1  0
 29104  1  0
 33 34  1  0
 33 66  1  0
 33 70  2  0
 34 36  1  0
 34 59  1  0
 34105  1  6
 35 44  2  0
 35 45  1  0
 35 68  1  0
 36 56  1  0
 36106  1  0
 37 39  1  0
 37 47  1  0
 37 66  1  0
 37107  1  6
 38 43  2  0
 38 46  1  0
 38 47  1  0
 39 64  1  0
 39 67  2  0
 40 52  1  0
 40 53  2  0
 40 58  1  0
 41108  1  0
 41109  1  0
 41110  1  0
 42 43  1  0
 42 66  1  0
 42111  1  0
 42112  1  0
 43 44  1  0
 44113  1  0
 45 46  2  0
 45114  1  0
 46115  1  0
 47116  1  0
 47117  1  0
 48 41  1  0
 48 56  1  0
 48 65  1  0
 48118  1  1
 49 50  1  0
 49 53  1  0
 49 64  1  0
 49119  1  1
 50 51  1  0
 50120  1  0
 50121  1  0
 51 52  1  0
 51122  1  0
 51123  1  0
 52124  1  0
 52125  1  0
 53 54  1  0
 54 55  2  0
 54126  1  0
 55 57  1  0
 55127  1  0
 56 69  2  0
 57 58  2  0
 57128  1  0
 58129  1  0
 59 60  1  0
 59 61  1  0
 59 62  1  0
 60130  1  0
 60131  1  0
 60132  1  0
 61133  1  0
 61134  1  0
 61135  1  0
 62136  1  0
 62137  1  0
 62138  1  0
 63 65  1  0
 63139  1  0
 63140  1  0
 63141  1  0
 64142  1  0
 65143  1  0
 68 82  1  0
 71 73  2  0
 71 74  1  0
 71144  1  0
 72 75  2  0
 72 76  1  0
 72145  1  0
 73 75  1  0
 73 77  1  0
 74 76  2  0
 74 78  1  0
 75 79  1  0
 76 84  1  0
 77146  1  0
 77147  1  0
 77148  1  0
 78 80  1  0
 78149  1  0
 78150  1  0
 79 83  1  0
 79151  1  0
 79152  1  0
 80 81  1  0
 80153  1  0
 80154  1  0
 81 82  1  0
 81155  1  0
 81156  1  0
 82157  1  0
 82158  1  0
 83159  1  0
M  ISO  4   1 100  68 101  82 101  83 100
M  END
$$$$
30
     RDKit          3D

159167  0  0  0  0  0  0  0  0999 V2000
  -30.7652  -14.3608   20.6636 C   0  0  0  0  0  0  0  0  0100  0  0
  -30.4392  -12.2669   19.3775 C   0  0  0  0  0  0  0  0  0101  0  0
  -29.4791  -12.5281   18.1977 C   0  0  0  0  0  0  0  0  0102  0  0
  -27.9985  -12.3963   18.6038 C   0  0  0  0  0  0  0  0  0103  0  0
  -27.6639  -13.2170   19.8820 C   0  0  2  0  0  0  0  0  0104  0  0
  -28.6795  -12.9602   21.0279 C   0  0  0  0  0  0  0  0  0105  0  0
  -25.2633  -13.8245   20.5754 C   0  0  0  0  0  0  0  0  0106  0  0
  -24.1645  -13.0409   20.9408 C   0  0  0  0  0  0  0  0  0107  0  0
  -24.6400  -11.7009   20.8697 C   0  0  0  0  0  0  0  0  0108  0  0
  -23.9005  -10.4085   21.0420 C   0  0  0  0  0  0  0  0  0109  0  0
  -24.3588   -9.4123   21.9123 C   0  0  0  0  0  0  0  0  0110  0  0
  -23.6296   -8.2350   22.0803 C   0  0  0  0  0  0  0  0  0111  0  0
  -22.4385   -8.0419   21.3657 C   0  0  0  0  0  0  0  0  0112  0  0
  -22.0103   -9.0167   20.4678 C   0  0  0  0  0  0  0  0  0113  0  0
  -22.7317  -10.1925   20.3102 C   0  0  0  0  0  0  0  0  0114  0  0
  -21.6857   -6.0709   22.5391 C   0  0  0  0  0  0  0  0  0115  0  0
  -21.4064   -6.5490   23.8264 C   0  0  0  0  0  0  0  0  0116  0  0
  -21.3635   -5.6677   24.9085 C   0  0  0  0  0  0  0  0  0117  0  0
  -21.5973   -4.3067   24.7088 C   0  0  0  0  0  0  0  0  0118  0  0
  -21.8700   -3.8284   23.4282 C   0  0  0  0  0  0  0  0  0119  0  0
  -21.9144   -4.7056   22.3460 C   0  0  0  0  0  0  0  0  0120  0  0
  -22.8194  -13.5263   21.1763 C   0  0  0  0  0  0  0  0  0121  0  0
  -22.1559   -4.2206   21.1063 F   0  0  0  0  0  0  0  0  0122  0  0
  -21.5628   -3.4510   25.7555 F   0  0  0  0  0  0  0  0  0123  0  0
  -30.0261  -13.1803   20.4553 N   0  0  0  0  0  0  0  0  0124  0  0
  -26.2911  -12.9356   20.3443 N   0  0  0  0  0  0  0  0  0125  0  0
  -25.9236  -11.6675   20.5847 N   0  0  0  0  0  0  0  0  0126  0  0
  -22.0708  -12.7905   22.0005 N   0  0  0  0  0  0  0  0  0127  0  0
  -25.4117  -15.1773   20.4097 N   0  0  0  0  0  0  0  0  0128  0  0
  -31.7916  -14.6724   20.0536 O   0  0  0  0  0  0  0  0  0129  0  0
  -21.6670   -6.9022   21.4423 O   0  0  0  0  0  0  0  0  0130  0  0
  -22.3946  -14.5564   20.6568 O   0  0  0  0  0  0  0  0  0131  0  0
  -24.6048  -31.8614   23.2223 C   0  0  0  0  0  0  0  0  0100  0  0
  -25.8822  -32.4841   23.8616 C   0  0  1  0  0  0  0  0  0101  0  0
  -27.2536  -27.5042   20.1156 C   0  0  0  0  0  0  0  0  0102  0  0
  -25.5726  -33.8762   24.2210 N   0  0  0  0  0  0  0  0  0103  0  0
  -23.4066  -30.4859   21.5461 C   0  0  2  0  0  0  0  0  0104  0  0
  -24.8467  -28.9636   20.1247 C   0  0  0  0  0  0  0  0  0105  0  0
  -22.7412  -29.4652   22.5052 C   0  0  0  0  0  0  0  0  0106  0  0
  -18.0167  -28.1302   22.8626 C   0  0  0  0  0  0  0  0  0107  0  0
  -24.1342  -36.7390   23.2568 C   0  0  0  0  0  0  0  0  0108  0  0
  -25.9141  -30.8882   21.3456 C   0  0  0  0  0  0  0  0  0109  0  0
  -25.9930  -29.5029   20.7208 C   0  0  0  0  0  0  0  0  0110  0  0
  -27.1758  -28.7612   20.7331 C   0  0  0  0  0  0  0  0  0111  0  0
  -26.1032  -26.9836   19.5230 C   0  0  0  0  0  0  0  0  0112  0  0
  -24.9097  -27.7011   19.5331 C   0  0  0  0  0  0  0  0  0113  0  0
  -23.5715  -29.7899   20.1582 C   0  0  0  0  0  0  0  0  0114  0  0
  -25.3990  -36.3212   24.0232 C   0  0  1  0  0  0  0  0  0115  0  0
  -20.5793  -28.3813   23.1004 C   0  0  2  0  0  0  0  0  0116  0  0
  -20.6548  -26.9392   22.5411 C   0  0  0  0  0  0  0  0  0117  0  0
  -19.5615  -26.6407   21.5143 C   0  0  0  0  0  0  0  0  0118  0  0
  -18.1797  -26.7818   22.1673 C   0  0  0  0  0  0  0  0  0119  0  0
  -19.1385  -28.8769   23.2988 C   0  0  0  0  0  0  0  0  0120  0  0
  -18.9183  -30.1286   23.8878 C   0  0  0  0  0  0  0  0  0121  0  0
  -17.6396  -30.6493   24.0352 C   0  0  0  0  0  0  0  0  0122  0  0
  -25.9153  -34.9582   23.4993 C   0  0  0  0  0  0  0  0  0123  0  0
  -16.5415  -29.9068   23.6254 C   0  0  0  0  0  0  0  0  0124  0  0
  -16.7331  -28.6521   23.0586 C   0  0  0  0  0  0  0  0  0125  0  0
  -26.4583  -31.6439   25.0683 C   0  0  0  0  0  0  0  0  0126  0  0
  -25.3807  -31.3179   26.1374 C   0  0  0  0  0  0  0  0  0127  0  0
  -27.0530  -30.3024   24.5680 C   0  0  0  0  0  0  0  0  0128  0  0
  -27.6014  -32.4281   25.7651 C   0  0  0  0  0  0  0  0  0129  0  0
  -27.5629  -37.2220   24.8621 C   0  0  0  0  0  0  0  0  0130  0  0
  -21.4133  -29.3375   22.3735 N   0  0  0  0  0  0  0  0  0131  0  0
  -26.4706  -37.3372   23.9061 N   0  0  0  0  0  0  0  0  0132  0  0
  -24.6674  -31.0544   22.1178 N   0  0  0  0  0  0  0  0  0133  0  0
  -23.4259  -28.8150   23.2971 O   0  0  0  0  0  0  0  0  0134  0  0
  -28.3948  -26.7345   20.0089 O   0  0  0  0  0  0  0  0  0135  0  0
  -26.5870  -34.9065   22.4671 O   0  0  0  0  0  0  0  0  0136  0  0
  -23.5365  -32.1254   23.7833 O   0  0  0  0  0  0  0  0  0137  0  0
  -30.6266  -18.7208   17.7856 C   0  0  0  0  0  0  0  0  0  0  0  0
  -28.5864  -17.8756   19.4902 C   0  0  0  0  0  0  0  0  0  0  0  0
  -30.8543  -18.6399   19.1593 C   0  0  0  0  0  0  0  0  0  0  0  0
  -29.3787  -18.3793   17.2642 C   0  0  0  0  0  0  0  0  0  0  0  0
  -29.8342  -18.2172   20.0117 C   0  0  0  0  0  0  0  0  0  0  0  0
  -28.3586  -17.9566   18.1165 C   0  0  0  0  0  0  0  0  0  0  0  0
  -32.1985  -19.0100   19.6946 C   0  0  0  0  0  0  0  0  0  0  0  0
  -29.1579  -18.4747   15.7902 C   0  0  0  0  0  0  0  0  0  0  0  0
  -30.0550  -18.1221   21.4857 C   0  0  0  0  0  0  0  0  0  0  0  0
  -27.0000  -17.5826   17.5755 C   0  0  0  0  0  0  0  0  0  0  0  0
  -30.8312  -16.8702   21.9088 C   0  0  0  0  0  0  0  0  0  0  0  0
  -26.1566  -18.8052   17.2307 C   0  0  0  0  0  0  0  0  0  1  0  0
  -30.1611  -15.6523   21.5107 N   0  0  0  0  0  0  0  0  0  0  0  0
  -31.4485  -12.4701   19.0860 H   0  0  0  0  0  0  0  0  0  0  0  0
  -30.3970  -11.2460   19.6950 H   0  0  0  0  0  0  0  0  0  0  0  0
  -29.6870  -11.8204   17.4226 H   0  0  0  0  0  0  0  0  0  0  0  0
  -29.6375  -13.5326   17.8649 H   0  0  0  0  0  0  0  0  0  0  0  0
  -27.7830  -11.3650   18.7904 H   0  0  0  0  0  0  0  0  0  0  0  0
  -27.4028  -12.7801   17.8021 H   0  0  0  0  0  0  0  0  0  0  0  0
  -27.7353  -14.2503   19.6136 H   0  0  0  0  0  0  0  0  0  0  0  0
  -28.5890  -11.9550   21.3832 H   0  0  0  0  0  0  0  0  0  0  0  0
  -28.5005  -13.6134   21.8562 H   0  0  0  0  0  0  0  0  0  0  0  0
  -25.2399   -9.5495   22.4318 H   0  0  0  0  0  0  0  0  0  0  0  0
  -23.9663   -7.5070   22.7297 H   0  0  0  0  0  0  0  0  0  0  0  0
  -21.1515   -8.8641   19.9162 H   0  0  0  0  0  0  0  0  0  0  0  0
  -22.4016  -10.9115   19.6476 H   0  0  0  0  0  0  0  0  0  0  0  0
  -21.2319   -7.5552   23.9750 H   0  0  0  0  0  0  0  0  0  0  0  0
  -21.1589   -6.0228   25.8556 H   0  0  0  0  0  0  0  0  0  0  0  0
  -22.0396   -2.8212   23.2809 H   0  0  0  0  0  0  0  0  0  0  0  0
  -22.4401  -11.9703   22.4008 H   0  0  0  0  0  0  0  0  0  0  0  0
  -21.1493  -13.0679   22.2082 H   0  0  0  0  0  0  0  0  0  0  0  0
  -24.6538  -15.7807   20.5848 H   0  0  0  0  0  0  0  0  0  0  0  0
  -26.2762  -15.5453   20.1156 H   0  0  0  0  0  0  0  0  0  0  0  0
  -26.6778  -32.4663   23.1464 H   0  0  0  0  0  0  0  0  0  0  0  0
  -25.0747  -34.0282   25.0566 H   0  0  0  0  0  0  0  0  0  0  0  0
  -22.7881  -31.3489   21.4131 H   0  0  0  0  0  0  0  0  0  0  0  0
  -23.3854  -35.9823   23.3648 H   0  0  0  0  0  0  0  0  0  0  0  0
  -24.3696  -36.8624   22.2204 H   0  0  0  0  0  0  0  0  0  0  0  0
  -23.7669  -37.6632   23.6516 H   0  0  0  0  0  0  0  0  0  0  0  0
  -25.9445  -31.6237   20.5691 H   0  0  0  0  0  0  0  0  0  0  0  0
  -26.7436  -31.0079   22.0108 H   0  0  0  0  0  0  0  0  0  0  0  0
  -28.0090  -29.1452   21.2057 H   0  0  0  0  0  0  0  0  0  0  0  0
  -26.1369  -26.0560   19.0719 H   0  0  0  0  0  0  0  0  0  0  0  0
  -24.0652  -27.2961   19.0997 H   0  0  0  0  0  0  0  0  0  0  0  0
  -23.6156  -30.5365   19.3930 H   0  0  0  0  0  0  0  0  0  0  0  0
  -22.7355  -29.1425   19.9945 H   0  0  0  0  0  0  0  0  0  0  0  0
  -25.1353  -36.2335   25.0565 H   0  0  0  0  0  0  0  0  0  0  0  0
  -21.0070  -28.3206   24.0793 H   0  0  0  0  0  0  0  0  0  0  0  0
  -20.5555  -26.2518   23.3550 H   0  0  0  0  0  0  0  0  0  0  0  0
  -21.5974  -26.8362   22.0454 H   0  0  0  0  0  0  0  0  0  0  0  0
  -19.6810  -25.6422   21.1488 H   0  0  0  0  0  0  0  0  0  0  0  0
  -19.6406  -27.3343   20.7034 H   0  0  0  0  0  0  0  0  0  0  0  0
  -17.4282  -26.6888   21.4113 H   0  0  0  0  0  0  0  0  0  0  0  0
  -18.0803  -26.0130   22.9049 H   0  0  0  0  0  0  0  0  0  0  0  0
  -19.7265  -30.6774   24.2204 H   0  0  0  0  0  0  0  0  0  0  0  0
  -17.5064  -31.5856   24.4483 H   0  0  0  0  0  0  0  0  0  0  0  0
  -15.5878  -30.2839   23.7407 H   0  0  0  0  0  0  0  0  0  0  0  0
  -15.9120  -28.0941   22.7766 H   0  0  0  0  0  0  0  0  0  0  0  0
  -24.5787  -30.7757   25.6817 H   0  0  0  0  0  0  0  0  0  0  0  0
  -25.0041  -32.2289   26.5536 H   0  0  0  0  0  0  0  0  0  0  0  0
  -25.8166  -30.7245   26.9138 H   0  0  0  0  0  0  0  0  0  0  0  0
  -26.2892  -29.7335   24.0803 H   0  0  0  0  0  0  0  0  0  0  0  0
  -27.4336  -29.7484   25.4006 H   0  0  0  0  0  0  0  0  0  0  0  0
  -27.8466  -30.4994   23.8779 H   0  0  0  0  0  0  0  0  0  0  0  0
  -27.2251  -33.3632   26.1242 H   0  0  0  0  0  0  0  0  0  0  0  0
  -28.3902  -32.6065   25.0645 H   0  0  0  0  0  0  0  0  0  0  0  0
  -27.9772  -31.8555   26.5872 H   0  0  0  0  0  0  0  0  0  0  0  0
  -28.2744  -38.0016   24.6863 H   0  0  0  0  0  0  0  0  0  0  0  0
  -28.0396  -36.2711   24.7461 H   0  0  0  0  0  0  0  0  0  0  0  0
  -27.1773  -37.3087   25.8564 H   0  0  0  0  0  0  0  0  0  0  0  0
  -20.9627  -29.9365   21.7352 H   0  0  0  0  0  0  0  0  0  0  0  0
  -26.0447  -38.2561   24.0273 H   0  0  0  0  0  0  0  0  0  0  0  0
  -31.3814  -19.0333   17.1550 H   0  0  0  0  0  0  0  0  0  0  0  0
  -27.8317  -17.5629   20.1208 H   0  0  0  0  0  0  0  0  0  0  0  0
  -32.8352  -19.3049   18.8868 H   0  0  0  0  0  0  0  0  0  0  0  0
  -32.6266  -18.1678   20.1970 H   0  0  0  0  0  0  0  0  0  0  0  0
  -32.0968  -19.8224   20.3835 H   0  0  0  0  0  0  0  0  0  0  0  0
  -30.0548  -18.8153   15.3165 H   0  0  0  0  0  0  0  0  0  0  0  0
  -28.3654  -19.1659   15.5923 H   0  0  0  0  0  0  0  0  0  0  0  0
  -28.8952  -17.5113   15.4058 H   0  0  0  0  0  0  0  0  0  0  0  0
  -29.1013  -18.1092   21.9707 H   0  0  0  0  0  0  0  0  0  0  0  0
  -30.6442  -18.9686   21.7706 H   0  0  0  0  0  0  0  0  0  0  0  0
  -26.4831  -17.0052   18.3133 H   0  0  0  0  0  0  0  0  0  0  0  0
  -27.1491  -17.0239   16.6752 H   0  0  0  0  0  0  0  0  0  0  0  0
  -30.9366  -16.8734   22.9736 H   0  0  0  0  0  0  0  0  0  0  0  0
  -31.7844  -16.8947   21.4234 H   0  0  0  0  0  0  0  0  0  0  0  0
  -25.1755  -18.6151   17.6132 H   0  0  0  0  0  0  0  0  0  0  0  0
  -26.2814  -18.8845   16.1710 H   0  0  0  0  0  0  0  0  0  0  0  0
  -29.2167  -15.5798   21.7793 H   0  0  0  0  0  0  0  0  0  0  0  0
  1 25  1  0
  1 30  2  0
  1 83  1  0
  2  3  1  0
  2 25  1  0
  2 84  1  0
  2 85  1  0
  3  4  1  0
  3 86  1  0
  3 87  1  0
  4  5  1  0
  4 88  1  0
  4 89  1  0
  5  6  1  0
  5 26  1  0
  5 90  1  6
  6 25  1  0
  6 91  1  0
  6 92  1  0
  7  8  2  0
  7 26  1  0
  7 29  1  0
  8  9  1  0
  8 22  1  0
  9 10  1  0
  9 27  2  0
 10 11  2  0
 10 15  1  0
 11 12  1  0
 11 93  1  0
 12 13  2  0
 12 94  1  0
 13 14  1  0
 13 31  1  0
 14 15  2  0
 14 95  1  0
 15 96  1  0
 16 17  2  0
 16 21  1  0
 16 31  1  0
 17 18  1  0
 17 97  1  0
 18 19  2  0
 18 98  1  0
 19 20  1  0
 19 24  1  0
 20 21  2  0
 20 99  1  0
 21 23  1  0
 22 28  1  0
 22 32  2  0
 26 27  1  0
 28100  1  0
 28101  1  0
 29102  1  0
 29103  1  0
 33 34  1  0
 33 66  1  0
 33 70  2  0
 34 36  1  0
 34 59  1  0
 34104  1  6
 35 44  2  0
 35 45  1  0
 35 68  1  0
 36 56  1  0
 36105  1  0
 37 39  1  0
 37 47  1  0
 37 66  1  0
 37106  1  6
 38 43  2  0
 38 46  1  0
 38 47  1  0
 39 64  1  0
 39 67  2  0
 40 52  1  0
 40 53  2  0
 40 58  1  0
 41107  1  0
 41108  1  0
 41109  1  0
 42 43  1  0
 42 66  1  0
 42110  1  0
 42111  1  0
 43 44  1  0
 44112  1  0
 45 46  2  0
 45113  1  0
 46114  1  0
 47115  1  0
 47116  1  0
 48 41  1  0
 48 56  1  0
 48 65  1  0
 48117  1  1
 49 50  1  0
 49 53  1  0
 49 64  1  0
 49118  1  1
 50 51  1  0
 50119  1  0
 50120  1  0
 51 52  1  0
 51121  1  0
 51122  1  0
 52123  1  0
 52124  1  0
 53 54  1  0
 54 55  2  0
 54125  1  0
 55 57  1  0
 55126  1  0
 56 69  2  0
 57 58  2  0
 57127  1  0
 58128  1  0
 59 60  1  0
 59 61  1  0
 59 62  1  0
 60129  1  0
 60130  1  0
 60131  1  0
 61132  1  0
 61133  1  0
 61134  1  0
 62135  1  0
 62136  1  0
 62137  1  0
 63 65  1  0
 63138  1  0
 63139  1  0
 63140  1  0
 64141  1  0
 65142  1  0
 68 82  1  0
 71 73  2  0
 71 74  1  0
 71143  1  0
 72 75  2  0
 72 76  1  0
 72144  1  0
 73 75  1  0
 73 77  1  0
 74 76  2  0
 74 78  1  0
 75 79  1  0
 76 80  1  0
 77145  1  0
 77146  1  0
 77147  1  0
 78148  1  0
 78149  1  0
 78150  1  0
 79 81  1  0
 79151  1  0
 79152  1  0
 80 82  1  0
 80153  1  0
 80154  1  0
 81 83  1  0
 81155  1  0
 81156  1  0
 82157  1  0
 82158  1  0
 83159  1  0
M  ISO  4   1 100  68 101  82 101  83 100
M  END
$$$$
31
     RDKit          3D

183192  0  0  0  0  0  0  0  0999 V2000
  -30.7652  -14.3608   20.6636 C   0  0  0  0  0  0  0  0  0100  0  0
  -30.4392  -12.2669   19.3775 C   0  0  0  0  0  0  0  0  0101  0  0
  -29.4791  -12.5281   18.1977 C   0  0  0  0  0  0  0  0  0102  0  0
  -27.9985  -12.3963   18.6038 C   0  0  0  0  0  0  0  0  0103  0  0
  -27.6639  -13.2170   19.8820 C   0  0  2  0  0  0  0  0  0104  0  0
  -28.6795  -12.9602   21.0279 C   0  0  0  0  0  0  0  0  0105  0  0
  -25.2633  -13.8245   20.5754 C   0  0  0  0  0  0  0  0  0106  0  0
  -24.1645  -13.0409   20.9408 C   0  0  0  0  0  0  0  0  0107  0  0
  -24.6400  -11.7009   20.8697 C   0  0  0  0  0  0  0  0  0108  0  0
  -23.9005  -10.4085   21.0420 C   0  0  0  0  0  0  0  0  0109  0  0
  -24.3588   -9.4123   21.9123 C   0  0  0  0  0  0  0  0  0110  0  0
  -23.6296   -8.2350   22.0803 C   0  0  0  0  0  0  0  0  0111  0  0
  -22.4385   -8.0419   21.3657 C   0  0  0  0  0  0  0  0  0112  0  0
  -22.0103   -9.0167   20.4678 C   0  0  0  0  0  0  0  0  0113  0  0
  -22.7317  -10.1925   20.3102 C   0  0  0  0  0  0  0  0  0114  0  0
  -21.6857   -6.0709   22.5391 C   0  0  0  0  0  0  0  0  0115  0  0
  -21.4064   -6.5490   23.8264 C   0  0  0  0  0  0  0  0  0116  0  0
  -21.3635   -5.6677   24.9085 C   0  0  0  0  0  0  0  0  0117  0  0
  -21.5973   -4.3067   24.7088 C   0  0  0  0  0  0  0  0  0118  0  0
  -21.8700   -3.8284   23.4282 C   0  0  0  0  0  0  0  0  0119  0  0
  -21.9144   -4.7056   22.3460 C   0  0  0  0  0  0  0  0  0120  0  0
  -22.8194  -13.5263   21.1763 C   0  0  0  0  0  0  0  0  0121  0  0
  -22.1559   -4.2206   21.1063 F   0  0  0  0  0  0  0  0  0122  0  0
  -21.5628   -3.4510   25.7555 F   0  0  0  0  0  0  0  0  0123  0  0
  -30.0261  -13.1803   20.4553 N   0  0  0  0  0  0  0  0  0124  0  0
  -26.2911  -12.9356   20.3443 N   0  0  0  0  0  0  0  0  0125  0  0
  -25.9236  -11.6675   20.5847 N   0  0  0  0  0  0  0  0  0126  0  0
  -22.0708  -12.7905   22.0005 N   0  0  0  0  0  0  0  0  0127  0  0
  -25.4117  -15.1773   20.4097 N   0  0  0  0  0  0  0  0  0128  0  0
  -31.7916  -14.6724   20.0536 O   0  0  0  0  0  0  0  0  0129  0  0
  -21.6670   -6.9022   21.4423 O   0  0  0  0  0  0  0  0  0130  0  0
  -22.3946  -14.5564   20.6568 O   0  0  0  0  0  0  0  0  0131  0  0
  -24.6048  -31.8614   23.2223 C   0  0  0  0  0  0  0  0  0100  0  0
  -25.8822  -32.4841   23.8616 C   0  0  1  0  0  0  0  0  0101  0  0
  -27.2536  -27.5042   20.1156 C   0  0  0  0  0  0  0  0  0102  0  0
  -25.5726  -33.8762   24.2210 N   0  0  0  0  0  0  0  0  0103  0  0
  -23.4066  -30.4859   21.5461 C   0  0  2  0  0  0  0  0  0104  0  0
  -24.8467  -28.9636   20.1247 C   0  0  0  0  0  0  0  0  0105  0  0
  -22.7412  -29.4652   22.5052 C   0  0  0  0  0  0  0  0  0106  0  0
  -18.0167  -28.1302   22.8626 C   0  0  0  0  0  0  0  0  0107  0  0
  -24.1342  -36.7390   23.2568 C   0  0  0  0  0  0  0  0  0108  0  0
  -25.9141  -30.8882   21.3456 C   0  0  0  0  0  0  0  0  0109  0  0
  -25.9930  -29.5029   20.7208 C   0  0  0  0  0  0  0  0  0110  0  0
  -27.1758  -28.7612   20.7331 C   0  0  0  0  0  0  0  0  0111  0  0
  -26.1032  -26.9836   19.5230 C   0  0  0  0  0  0  0  0  0112  0  0
  -24.9097  -27.7011   19.5331 C   0  0  0  0  0  0  0  0  0113  0  0
  -23.5715  -29.7899   20.1582 C   0  0  0  0  0  0  0  0  0114  0  0
  -25.3990  -36.3212   24.0232 C   0  0  1  0  0  0  0  0  0115  0  0
  -20.5793  -28.3813   23.1004 C   0  0  2  0  0  0  0  0  0116  0  0
  -20.6548  -26.9392   22.5411 C   0  0  0  0  0  0  0  0  0117  0  0
  -19.5615  -26.6407   21.5143 C   0  0  0  0  0  0  0  0  0118  0  0
  -18.1797  -26.7818   22.1673 C   0  0  0  0  0  0  0  0  0119  0  0
  -19.1385  -28.8769   23.2988 C   0  0  0  0  0  0  0  0  0120  0  0
  -18.9183  -30.1286   23.8878 C   0  0  0  0  0  0  0  0  0121  0  0
  -17.6396  -30.6493   24.0352 C   0  0  0  0  0  0  0  0  0122  0  0
  -25.9153  -34.9582   23.4993 C   0  0  0  0  0  0  0  0  0123  0  0
  -16.5415  -29.9068   23.6254 C   0  0  0  0  0  0  0  0  0124  0  0
  -16.7331  -28.6521   23.0586 C   0  0  0  0  0  0  0  0  0125  0  0
  -26.4583  -31.6439   25.0683 C   0  0  0  0  0  0  0  0  0126  0  0
  -25.3807  -31.3179   26.1374 C   0  0  0  0  0  0  0  0  0127  0  0
  -27.0530  -30.3024   24.5680 C   0  0  0  0  0  0  0  0  0128  0  0
  -27.6014  -32.4281   25.7651 C   0  0  0  0  0  0  0  0  0129  0  0
  -27.5629  -37.2220   24.8621 C   0  0  0  0  0  0  0  0  0130  0  0
  -21.4133  -29.3375   22.3735 N   0  0  0  0  0  0  0  0  0131  0  0
  -26.4706  -37.3372   23.9061 N   0  0  0  0  0  0  0  0  0132  0  0
  -24.6674  -31.0544   22.1178 N   0  0  0  0  0  0  0  0  0133  0  0
  -23.4259  -28.8150   23.2971 O   0  0  0  0  0  0  0  0  0134  0  0
  -28.3948  -26.7345   20.0089 O   0  0  0  0  0  0  0  0  0135  0  0
  -26.5870  -34.9065   22.4671 O   0  0  0  0  0  0  0  0  0136  0  0
  -23.5365  -32.1254   23.7833 O   0  0  0  0  0  0  0  0  0137  0  0
  -29.7785  -15.7606   18.7010 C   0  0  0  0  0  0  0  0  0  0  0  0
  -31.6095  -15.9569   20.6955 C   0  0  0  0  0  0  0  0  0  0  0  0
  -29.9246  -17.0042   19.3385 C   0  0  0  0  0  0  0  0  0  0  0  0
  -30.8591  -17.0934   20.3857 C   0  0  0  0  0  0  0  0  0  0  0  0
  -30.5697  -14.6933   19.0998 C   0  0  0  0  0  0  0  0  0  0  0  0
  -31.1235  -18.3615   21.1450 C   0  0  0  0  0  0  0  0  0  0  0  0
  -30.0014  -19.3805   21.0097 C   0  0  0  0  0  0  0  0  0  0  0  0
  -29.6206  -19.5267   19.5398 C   0  0  1  0  0  0  0  0  0  0  0  0
  -29.0485  -18.2059   18.9301 C   0  0  0  0  0  0  0  0  0  0  0  0
  -27.6061  -17.9164   19.4101 C   0  0  0  0  0  0  0  0  0  0  0  0
  -29.0251  -18.3602   17.3882 C   0  0  0  0  0  0  0  0  0  0  0  0
  -30.4143  -13.3738   18.4197 C   0  0  0  0  0  0  0  0  0  0  0  0
  -29.3653  -12.4865   19.1071 C   0  0  0  0  0  0  0  0  0  0  0  0
  -29.2420  -11.1221   18.4223 C   0  0  0  0  0  0  0  0  0  0  0  0
  -28.1990  -23.0652   19.4187 C   0  0  0  0  0  0  0  0  0  0  0  0
  -28.8032  -24.4672   19.4392 C   0  0  0  0  0  0  0  0  0  0  0  0
  -28.2147  -10.2184   19.0963 C   0  0  0  0  0  0  0  0  0  0  0  0
  -29.2835  -22.0015   19.5034 C   0  0  0  0  0  0  0  0  0  0  0  0
  -27.7278  -25.5435   19.3983 C   0  0  0  0  0  0  0  0  0  1  0  0
  -31.4886  -14.7615   20.0809 N   0  0  0  0  0  0  0  0  0  0  0  0
  -26.8922  -10.8029   19.1132 N   0  0  0  0  0  0  0  0  0  0  0  0
  -28.6539  -20.6584   19.4345 N   0  0  0  0  0  0  0  0  0  0  0  0
  -31.4485  -12.4701   19.0860 H   0  0  0  0  0  0  0  0  0  0  0  0
  -30.3970  -11.2460   19.6950 H   0  0  0  0  0  0  0  0  0  0  0  0
  -29.6870  -11.8204   17.4226 H   0  0  0  0  0  0  0  0  0  0  0  0
  -29.6375  -13.5326   17.8649 H   0  0  0  0  0  0  0  0  0  0  0  0
  -27.7830  -11.3650   18.7904 H   0  0  0  0  0  0  0  0  0  0  0  0
  -27.4028  -12.7801   17.8021 H   0  0  0  0  0  0  0  0  0  0  0  0
  -27.7353  -14.2503   19.6136 H   0  0  0  0  0  0  0  0  0  0  0  0
  -28.5890  -11.9550   21.3832 H   0  0  0  0  0  0  0  0  0  0  0  0
  -28.5005  -13.6134   21.8562 H   0  0  0  0  0  0  0  0  0  0  0  0
  -25.2399   -9.5495   22.4318 H   0  0  0  0  0  0  0  0  0  0  0  0
  -23.9663   -7.5070   22.7297 H   0  0  0  0  0  0  0  0  0  0  0  0
  -21.1515   -8.8641   19.9162 H   0  0  0  0  0  0  0  0  0  0  0  0
  -22.4016  -10.9115   19.6476 H   0  0  0  0  0  0  0  0  0  0  0  0
  -21.2319   -7.5552   23.9750 H   0  0  0  0  0  0  0  0  0  0  0  0
  -21.1589   -6.0228   25.8556 H   0  0  0  0  0  0  0  0  0  0  0  0
  -22.0396   -2.8212   23.2809 H   0  0  0  0  0  0  0  0  0  0  0  0
  -22.4401  -11.9703   22.4008 H   0  0  0  0  0  0  0  0  0  0  0  0
  -21.1493  -13.0679   22.2082 H   0  0  0  0  0  0  0  0  0  0  0  0
  -24.6538  -15.7807   20.5848 H   0  0  0  0  0  0  0  0  0  0  0  0
  -26.2762  -15.5453   20.1156 H   0  0  0  0  0  0  0  0  0  0  0  0
  -26.6778  -32.4663   23.1464 H   0  0  0  0  0  0  0  0  0  0  0  0
  -25.0747  -34.0282   25.0566 H   0  0  0  0  0  0  0  0  0  0  0  0
  -22.7881  -31.3489   21.4131 H   0  0  0  0  0  0  0  0  0  0  0  0
  -23.3854  -35.9823   23.3648 H   0  0  0  0  0  0  0  0  0  0  0  0
  -24.3696  -36.8624   22.2204 H   0  0  0  0  0  0  0  0  0  0  0  0
  -23.7669  -37.6632   23.6516 H   0  0  0  0  0  0  0  0  0  0  0  0
  -25.9445  -31.6237   20.5691 H   0  0  0  0  0  0  0  0  0  0  0  0
  -26.7436  -31.0079   22.0108 H   0  0  0  0  0  0  0  0  0  0  0  0
  -28.0090  -29.1452   21.2057 H   0  0  0  0  0  0  0  0  0  0  0  0
  -26.1369  -26.0560   19.0719 H   0  0  0  0  0  0  0  0  0  0  0  0
  -24.0652  -27.2961   19.0997 H   0  0  0  0  0  0  0  0  0  0  0  0
  -23.6156  -30.5365   19.3930 H   0  0  0  0  0  0  0  0  0  0  0  0
  -22.7355  -29.1425   19.9945 H   0  0  0  0  0  0  0  0  0  0  0  0
  -25.1353  -36.2335   25.0565 H   0  0  0  0  0  0  0  0  0  0  0  0
  -21.0070  -28.3206   24.0793 H   0  0  0  0  0  0  0  0  0  0  0  0
  -20.5555  -26.2518   23.3550 H   0  0  0  0  0  0  0  0  0  0  0  0
  -21.5974  -26.8362   22.0454 H   0  0  0  0  0  0  0  0  0  0  0  0
  -19.6810  -25.6422   21.1488 H   0  0  0  0  0  0  0  0  0  0  0  0
  -19.6406  -27.3343   20.7034 H   0  0  0  0  0  0  0  0  0  0  0  0
  -17.4282  -26.6888   21.4113 H   0  0  0  0  0  0  0  0  0  0  0  0
  -18.0803  -26.0130   22.9049 H   0  0  0  0  0  0  0  0  0  0  0  0
  -19.7265  -30.6774   24.2204 H   0  0  0  0  0  0  0  0  0  0  0  0
  -17.5064  -31.5856   24.4483 H   0  0  0  0  0  0  0  0  0  0  0  0
  -15.5878  -30.2839   23.7407 H   0  0  0  0  0  0  0  0  0  0  0  0
  -15.9120  -28.0941   22.7766 H   0  0  0  0  0  0  0  0  0  0  0  0
  -24.5787  -30.7757   25.6817 H   0  0  0  0  0  0  0  0  0  0  0  0
  -25.0041  -32.2289   26.5536 H   0  0  0  0  0  0  0  0  0  0  0  0
  -25.8166  -30.7245   26.9138 H   0  0  0  0  0  0  0  0  0  0  0  0
  -26.2892  -29.7335   24.0803 H   0  0  0  0  0  0  0  0  0  0  0  0
  -27.4336  -29.7484   25.4006 H   0  0  0  0  0  0  0  0  0  0  0  0
  -27.8466  -30.4994   23.8779 H   0  0  0  0  0  0  0  0  0  0  0  0
  -27.2251  -33.3632   26.1242 H   0  0  0  0  0  0  0  0  0  0  0  0
  -28.3902  -32.6065   25.0645 H   0  0  0  0  0  0  0  0  0  0  0  0
  -27.9772  -31.8555   26.5872 H   0  0  0  0  0  0  0  0  0  0  0  0
  -28.2744  -38.0016   24.6863 H   0  0  0  0  0  0  0  0  0  0  0  0
  -28.0396  -36.2711   24.7461 H   0  0  0  0  0  0  0  0  0  0  0  0
  -27.1773  -37.3087   25.8564 H   0  0  0  0  0  0  0  0  0  0  0  0
  -20.9627  -29.9365   21.7352 H   0  0  0  0  0  0  0  0  0  0  0  0
  -26.0447  -38.2561   24.0273 H   0  0  0  0  0  0  0  0  0  0  0  0
  -29.0886  -15.6423   17.9427 H   0  0  0  0  0  0  0  0  0  0  0  0
  -32.3084  -16.0372   21.4506 H   0  0  0  0  0  0  0  0  0  0  0  0
  -32.0273  -18.7984   20.7748 H   0  0  0  0  0  0  0  0  0  0  0  0
  -31.1992  -18.1044   22.1809 H   0  0  0  0  0  0  0  0  0  0  0  0
  -30.3305  -20.3256   21.3884 H   0  0  0  0  0  0  0  0  0  0  0  0
  -29.1502  -19.0493   21.5670 H   0  0  0  0  0  0  0  0  0  0  0  0
  -30.4972  -19.7358   18.9629 H   0  0  0  0  0  0  0  0  0  0  0  0
  -27.5998  -17.8061   20.4744 H   0  0  0  0  0  0  0  0  0  0  0  0
  -27.2534  -17.0140   18.9559 H   0  0  0  0  0  0  0  0  0  0  0  0
  -26.9678  -18.7288   19.1319 H   0  0  0  0  0  0  0  0  0  0  0  0
  -30.0148  -18.5613   17.0348 H   0  0  0  0  0  0  0  0  0  0  0  0
  -28.3793  -19.1703   17.1206 H   0  0  0  0  0  0  0  0  0  0  0  0
  -28.6650  -17.4555   16.9446 H   0  0  0  0  0  0  0  0  0  0  0  0
  -31.3563  -12.8665   18.4324 H   0  0  0  0  0  0  0  0  0  0  0  0
  -30.0842  -13.5572   17.4186 H   0  0  0  0  0  0  0  0  0  0  0  0
  -28.4164  -12.9797   19.0710 H   0  0  0  0  0  0  0  0  0  0  0  0
  -29.6753  -12.3256   20.1185 H   0  0  0  0  0  0  0  0  0  0  0  0
  -30.1955  -10.6373   18.4500 H   0  0  0  0  0  0  0  0  0  0  0  0
  -28.9148  -11.2920   17.4178 H   0  0  0  0  0  0  0  0  0  0  0  0
  -27.6507  -22.9340   18.5093 H   0  0  0  0  0  0  0  0  0  0  0  0
  -27.5528  -22.9606   20.2651 H   0  0  0  0  0  0  0  0  0  0  0  0
  -29.4417  -24.5823   18.5883 H   0  0  0  0  0  0  0  0  0  0  0  0
  -29.3541  -24.5801   20.3495 H   0  0  0  0  0  0  0  0  0  0  0  0
  -28.5240  -10.0393   20.1048 H   0  0  0  0  0  0  0  0  0  0  0  0
  -28.1621   -9.3092   18.5346 H   0  0  0  0  0  0  0  0  0  0  0  0
  -29.8125  -22.1021   20.4280 H   0  0  0  0  0  0  0  0  0  0  0  0
  -29.9689  -22.1202   18.6903 H   0  0  0  0  0  0  0  0  0  0  0  0
  -26.8725  -25.2502   19.9704 H   0  0  0  0  0  0  0  0  0  0  0  0
  -27.3674  -25.7321   18.4086 H   0  0  0  0  0  0  0  0  0  0  0  0
  -25.9318  -10.6579   18.9526 H   0  0  0  0  0  0  0  0  0  0  0  0
  -27.9834  -20.5792   20.1991 H   0  0  0  0  0  0  0  0  0  0  0  0
  -28.2148  -20.5859   18.5167 H   0  0  0  0  0  0  0  0  0  0  0  0
  1 25  1  0
  1 30  2  0
  1 91  1  0
  2  3  1  0
  2 25  1  0
  2 93  1  0
  2 94  1  0
  3  4  1  0
  3 95  1  0
  3 96  1  0
  4  5  1  0
  4 97  1  0
  4 98  1  0
  5  6  1  0
  5 26  1  0
  5 99  1  6
  6 25  1  0
  6100  1  0
  6101  1  0
  7  8  2  0
  7 26  1  0
  7 29  1  0
  8  9  1  0
  8 22  1  0
  9 10  1  0
  9 27  2  0
 10 11  2  0
 10 15  1  0
 11 12  1  0
 11102  1  0
 12 13  2  0
 12103  1  0
 13 14  1  0
 13 31  1  0
 14 15  2  0
 14104  1  0
 15105  1  0
 16 17  2  0
 16 21  1  0
 16 31  1  0
 17 18  1  0
 17106  1  0
 18 19  2  0
 18107  1  0
 19 20  1  0
 19 24  1  0
 20 21  2  0
 20108  1  0
 21 23  1  0
 22 28  1  0
 22 32  2  0
 26 27  1  0
 28109  1  0
 28110  1  0
 29111  1  0
 29112  1  0
 33 34  1  0
 33 66  1  0
 33 70  2  0
 34 36  1  0
 34 59  1  0
 34113  1  6
 35 44  2  0
 35 45  1  0
 35 68  1  0
 36 56  1  0
 36114  1  0
 37 39  1  0
 37 47  1  0
 37 66  1  0
 37115  1  6
 38 43  2  0
 38 46  1  0
 38 47  1  0
 39 64  1  0
 39 67  2  0
 40 52  1  0
 40 53  2  0
 40 58  1  0
 41116  1  0
 41117  1  0
 41118  1  0
 42 43  1  0
 42 66  1  0
 42119  1  0
 42120  1  0
 43 44  1  0
 44121  1  0
 45 46  2  0
 45122  1  0
 46123  1  0
 47124  1  0
 47125  1  0
 48 41  1  0
 48 56  1  0
 48 65  1  0
 48126  1  1
 49 50  1  0
 49 53  1  0
 49 64  1  0
 49127  1  1
 50 51  1  0
 50128  1  0
 50129  1  0
 51 52  1  0
 51130  1  0
 51131  1  0
 52132  1  0
 52133  1  0
 53 54  1  0
 54 55  2  0
 54134  1  0
 55 57  1  0
 55135  1  0
 56 69  2  0
 57 58  2  0
 57136  1  0
 58137  1  0
 59 60  1  0
 59 61  1  0
 59 62  1  0
 60138  1  0
 60139  1  0
 60140  1  0
 61141  1  0
 61142  1  0
 61143  1  0
 62144  1  0
 62145  1  0
 62146  1  0
 63 65  1  0
 63147  1  0
 63148  1  0
 63149  1  0
 64150  1  0
 65151  1  0
 68 89  1  0
 71 73  2  0
 71 75  1  0
 71152  1  0
 72 74  2  0
 72 90  1  0
 72153  1  0
 73 74  1  0
 73 79  1  0
 74 76  1  0
 75 82  1  0
 75 90  2  0
 76 77  1  0
 76154  1  0
 76155  1  0
 77 78  1  0
 77156  1  0
 77157  1  0
 78 79  1  0
 78 92  1  0
 78158  1  6
 79 80  1  0
 79 81  1  0
 80159  1  0
 80160  1  0
 80161  1  0
 81162  1  0
 81163  1  0
 81164  1  0
 82 83  1  0
 82165  1  0
 82166  1  0
 83 84  1  0
 83167  1  0
 83168  1  0
 84 87  1  0
 84169  1  0
 84170  1  0
 85 86  1  0
 85 88  1  0
 85171  1  0
 85172  1  0
 86 89  1  0
 86173  1  0
 86174  1  0
 87 91  1  0
 87175  1  0
 87176  1  0
 88 92  1  0
 88177  1  0
 88178  1  0
 89179  1  0
 89180  1  0
 91181  1  0
 92182  1  0
 92183  1  0
M  CHG  1  92   1
M  ISO  4   1 100  68 101  89 101  91 100
M  END
$$$$
32
     RDKit          3D

156164  0  0  0  0  0  0  0  0999 V2000
  -30.7652  -14.3608   20.6636 C   0  0  0  0  0  0  0  0  0100  0  0
  -30.4392  -12.2669   19.3775 C   0  0  0  0  0  0  0  0  0101  0  0
  -29.4791  -12.5281   18.1977 C   0  0  0  0  0  0  0  0  0102  0  0
  -27.9985  -12.3963   18.6038 C   0  0  0  0  0  0  0  0  0103  0  0
  -27.6639  -13.2170   19.8820 C   0  0  2  0  0  0  0  0  0104  0  0
  -28.6795  -12.9602   21.0279 C   0  0  0  0  0  0  0  0  0105  0  0
  -25.2633  -13.8245   20.5754 C   0  0  0  0  0  0  0  0  0106  0  0
  -24.1645  -13.0409   20.9408 C   0  0  0  0  0  0  0  0  0107  0  0
  -24.6400  -11.7009   20.8697 C   0  0  0  0  0  0  0  0  0108  0  0
  -23.9005  -10.4085   21.0420 C   0  0  0  0  0  0  0  0  0109  0  0
  -24.3588   -9.4123   21.9123 C   0  0  0  0  0  0  0  0  0110  0  0
  -23.6296   -8.2350   22.0803 C   0  0  0  0  0  0  0  0  0111  0  0
  -22.4385   -8.0419   21.3657 C   0  0  0  0  0  0  0  0  0112  0  0
  -22.0103   -9.0167   20.4678 C   0  0  0  0  0  0  0  0  0113  0  0
  -22.7317  -10.1925   20.3102 C   0  0  0  0  0  0  0  0  0114  0  0
  -21.6857   -6.0709   22.5391 C   0  0  0  0  0  0  0  0  0115  0  0
  -21.4064   -6.5490   23.8264 C   0  0  0  0  0  0  0  0  0116  0  0
  -21.3635   -5.6677   24.9085 C   0  0  0  0  0  0  0  0  0117  0  0
  -21.5973   -4.3067   24.7088 C   0  0  0  0  0  0  0  0  0118  0  0
  -21.8700   -3.8284   23.4282 C   0  0  0  0  0  0  0  0  0119  0  0
  -21.9144   -4.7056   22.3460 C   0  0  0  0  0  0  0  0  0120  0  0
  -22.8194  -13.5263   21.1763 C   0  0  0  0  0  0  0  0  0121  0  0
  -22.1559   -4.2206   21.1063 F   0  0  0  0  0  0  0  0  0122  0  0
  -21.5628   -3.4510   25.7555 F   0  0  0  0  0  0  0  0  0123  0  0
  -30.0261  -13.1803   20.4553 N   0  0  0  0  0  0  0  0  0124  0  0
  -26.2911  -12.9356   20.3443 N   0  0  0  0  0  0  0  0  0125  0  0
  -25.9236  -11.6675   20.5847 N   0  0  0  0  0  0  0  0  0126  0  0
  -22.0708  -12.7905   22.0005 N   0  0  0  0  0  0  0  0  0127  0  0
  -25.4117  -15.1773   20.4097 N   0  0  0  0  0  0  0  0  0128  0  0
  -31.7916  -14.6724   20.0536 O   0  0  0  0  0  0  0  0  0129  0  0
  -21.6670   -6.9022   21.4423 O   0  0  0  0  0  0  0  0  0130  0  0
  -22.3946  -14.5564   20.6568 O   0  0  0  0  0  0  0  0  0131  0  0
  -24.6048  -31.8614   23.2223 C   0  0  0  0  0  0  0  0  0100  0  0
  -25.8822  -32.4841   23.8616 C   0  0  1  0  0  0  0  0  0101  0  0
  -27.2536  -27.5042   20.1156 C   0  0  0  0  0  0  0  0  0102  0  0
  -25.5726  -33.8762   24.2210 N   0  0  0  0  0  0  0  0  0103  0  0
  -23.4066  -30.4859   21.5461 C   0  0  2  0  0  0  0  0  0104  0  0
  -24.8467  -28.9636   20.1247 C   0  0  0  0  0  0  0  0  0105  0  0
  -22.7412  -29.4652   22.5052 C   0  0  0  0  0  0  0  0  0106  0  0
  -18.0167  -28.1302   22.8626 C   0  0  0  0  0  0  0  0  0107  0  0
  -24.1342  -36.7390   23.2568 C   0  0  0  0  0  0  0  0  0108  0  0
  -25.9141  -30.8882   21.3456 C   0  0  0  0  0  0  0  0  0109  0  0
  -25.9930  -29.5029   20.7208 C   0  0  0  0  0  0  0  0  0110  0  0
  -27.1758  -28.7612   20.7331 C   0  0  0  0  0  0  0  0  0111  0  0
  -26.1032  -26.9836   19.5230 C   0  0  0  0  0  0  0  0  0112  0  0
  -24.9097  -27.7011   19.5331 C   0  0  0  0  0  0  0  0  0113  0  0
  -23.5715  -29.7899   20.1582 C   0  0  0  0  0  0  0  0  0114  0  0
  -25.3990  -36.3212   24.0232 C   0  0  1  0  0  0  0  0  0115  0  0
  -20.5793  -28.3813   23.1004 C   0  0  2  0  0  0  0  0  0116  0  0
  -20.6548  -26.9392   22.5411 C   0  0  0  0  0  0  0  0  0117  0  0
  -19.5615  -26.6407   21.5143 C   0  0  0  0  0  0  0  0  0118  0  0
  -18.1797  -26.7818   22.1673 C   0  0  0  0  0  0  0  0  0119  0  0
  -19.1385  -28.8769   23.2988 C   0  0  0  0  0  0  0  0  0120  0  0
  -18.9183  -30.1286   23.8878 C   0  0  0  0  0  0  0  0  0121  0  0
  -17.6396  -30.6493   24.0352 C   0  0  0  0  0  0  0  0  0122  0  0
  -25.9153  -34.9582   23.4993 C   0  0  0  0  0  0  0  0  0123  0  0
  -16.5415  -29.9068   23.6254 C   0  0  0  0  0  0  0  0  0124  0  0
  -16.7331  -28.6521   23.0586 C   0  0  0  0  0  0  0  0  0125  0  0
  -26.4583  -31.6439   25.0683 C   0  0  0  0  0  0  0  0  0126  0  0
  -25.3807  -31.3179   26.1374 C   0  0  0  0  0  0  0  0  0127  0  0
  -27.0530  -30.3024   24.5680 C   0  0  0  0  0  0  0  0  0128  0  0
  -27.6014  -32.4281   25.7651 C   0  0  0  0  0  0  0  0  0129  0  0
  -27.5629  -37.2220   24.8621 C   0  0  0  0  0  0  0  0  0130  0  0
  -21.4133  -29.3375   22.3735 N   0  0  0  0  0  0  0  0  0131  0  0
  -26.4706  -37.3372   23.9061 N   0  0  0  0  0  0  0  0  0132  0  0
  -24.6674  -31.0544   22.1178 N   0  0  0  0  0  0  0  0  0133  0  0
  -23.4259  -28.8150   23.2971 O   0  0  0  0  0  0  0  0  0134  0  0
  -28.3948  -26.7345   20.0089 O   0  0  0  0  0  0  0  0  0135  0  0
  -26.5870  -34.9065   22.4671 O   0  0  0  0  0  0  0  0  0136  0  0
  -23.5365  -32.1254   23.7833 O   0  0  0  0  0  0  0  0  0137  0  0
  -29.4194  -26.5123   20.1539 C   0  0  0  0  0  0  0  0  0  0  0  0
  -28.4940  -25.9481   22.3132 C   0  0  0  0  0  0  0  0  0  0  0  0
  -30.2631  -25.4038   20.2259 C   0  0  0  0  0  0  0  0  0  0  0  0
  -29.3376  -24.8397   22.3851 C   0  0  0  0  0  0  0  0  0  0  0  0
  -30.2222  -24.5675   21.3415 C   0  0  0  0  0  0  0  0  0  0  0  0
  -28.5349  -26.7845   21.1976 C   0  0  0  0  0  0  0  0  0  0  0  0
  -31.2015  -25.1348   19.0953 C   0  0  0  0  0  0  0  0  0  0  0  0
  -29.2741  -23.9600   23.5906 C   0  0  0  0  0  0  0  0  0  0  0  0
  -31.1339  -23.3690   21.4189 C   0  0  0  0  0  0  0  0  0  0  0  0
  -30.6819  -22.1941   20.5489 C   0  0  0  0  0  0  0  0  0  0  0  0
  -29.3382  -21.6117   20.9715 C   0  0  0  0  0  0  0  0  0  1  0  0
  -27.6769  -27.9098   21.1243 N   0  0  0  0  0  0  0  0  0  0  0  0
  -31.4485  -12.4701   19.0860 H   0  0  0  0  0  0  0  0  0  0  0  0
  -30.3970  -11.2460   19.6950 H   0  0  0  0  0  0  0  0  0  0  0  0
  -29.6870  -11.8204   17.4226 H   0  0  0  0  0  0  0  0  0  0  0  0
  -29.6375  -13.5326   17.8649 H   0  0  0  0  0  0  0  0  0  0  0  0
  -27.7830  -11.3650   18.7904 H   0  0  0  0  0  0  0  0  0  0  0  0
  -27.4028  -12.7801   17.8021 H   0  0  0  0  0  0  0  0  0  0  0  0
  -27.7353  -14.2503   19.6136 H   0  0  0  0  0  0  0  0  0  0  0  0
  -28.5890  -11.9550   21.3832 H   0  0  0  0  0  0  0  0  0  0  0  0
  -28.5005  -13.6134   21.8562 H   0  0  0  0  0  0  0  0  0  0  0  0
  -25.2399   -9.5495   22.4318 H   0  0  0  0  0  0  0  0  0  0  0  0
  -23.9663   -7.5070   22.7297 H   0  0  0  0  0  0  0  0  0  0  0  0
  -21.1515   -8.8641   19.9162 H   0  0  0  0  0  0  0  0  0  0  0  0
  -22.4016  -10.9115   19.6476 H   0  0  0  0  0  0  0  0  0  0  0  0
  -21.2319   -7.5552   23.9750 H   0  0  0  0  0  0  0  0  0  0  0  0
  -21.1589   -6.0228   25.8556 H   0  0  0  0  0  0  0  0  0  0  0  0
  -22.0396   -2.8212   23.2809 H   0  0  0  0  0  0  0  0  0  0  0  0
  -22.4401  -11.9703   22.4008 H   0  0  0  0  0  0  0  0  0  0  0  0
  -21.1493  -13.0679   22.2082 H   0  0  0  0  0  0  0  0  0  0  0  0
  -24.6538  -15.7807   20.5848 H   0  0  0  0  0  0  0  0  0  0  0  0
  -26.2762  -15.5453   20.1156 H   0  0  0  0  0  0  0  0  0  0  0  0
  -26.6778  -32.4663   23.1464 H   0  0  0  0  0  0  0  0  0  0  0  0
  -25.0747  -34.0282   25.0566 H   0  0  0  0  0  0  0  0  0  0  0  0
  -22.7881  -31.3489   21.4131 H   0  0  0  0  0  0  0  0  0  0  0  0
  -23.3854  -35.9823   23.3648 H   0  0  0  0  0  0  0  0  0  0  0  0
  -24.3696  -36.8624   22.2204 H   0  0  0  0  0  0  0  0  0  0  0  0
  -23.7669  -37.6632   23.6516 H   0  0  0  0  0  0  0  0  0  0  0  0
  -25.9445  -31.6237   20.5691 H   0  0  0  0  0  0  0  0  0  0  0  0
  -26.7436  -31.0079   22.0108 H   0  0  0  0  0  0  0  0  0  0  0  0
  -28.0090  -29.1452   21.2057 H   0  0  0  0  0  0  0  0  0  0  0  0
  -26.1369  -26.0560   19.0719 H   0  0  0  0  0  0  0  0  0  0  0  0
  -24.0652  -27.2961   19.0997 H   0  0  0  0  0  0  0  0  0  0  0  0
  -23.6156  -30.5365   19.3930 H   0  0  0  0  0  0  0  0  0  0  0  0
  -22.7355  -29.1425   19.9945 H   0  0  0  0  0  0  0  0  0  0  0  0
  -25.1353  -36.2335   25.0565 H   0  0  0  0  0  0  0  0  0  0  0  0
  -21.0070  -28.3206   24.0793 H   0  0  0  0  0  0  0  0  0  0  0  0
  -20.5555  -26.2518   23.3550 H   0  0  0  0  0  0  0  0  0  0  0  0
  -21.5974  -26.8362   22.0454 H   0  0  0  0  0  0  0  0  0  0  0  0
  -19.6810  -25.6422   21.1488 H   0  0  0  0  0  0  0  0  0  0  0  0
  -19.6406  -27.3343   20.7034 H   0  0  0  0  0  0  0  0  0  0  0  0
  -17.4282  -26.6888   21.4113 H   0  0  0  0  0  0  0  0  0  0  0  0
  -18.0803  -26.0130   22.9049 H   0  0  0  0  0  0  0  0  0  0  0  0
  -19.7265  -30.6774   24.2204 H   0  0  0  0  0  0  0  0  0  0  0  0
  -17.5064  -31.5856   24.4483 H   0  0  0  0  0  0  0  0  0  0  0  0
  -15.5878  -30.2839   23.7407 H   0  0  0  0  0  0  0  0  0  0  0  0
  -15.9120  -28.0941   22.7766 H   0  0  0  0  0  0  0  0  0  0  0  0
  -24.5787  -30.7757   25.6817 H   0  0  0  0  0  0  0  0  0  0  0  0
  -25.0041  -32.2289   26.5536 H   0  0  0  0  0  0  0  0  0  0  0  0
  -25.8166  -30.7245   26.9138 H   0  0  0  0  0  0  0  0  0  0  0  0
  -26.2892  -29.7335   24.0803 H   0  0  0  0  0  0  0  0  0  0  0  0
  -27.4336  -29.7484   25.4006 H   0  0  0  0  0  0  0  0  0  0  0  0
  -27.8466  -30.4994   23.8779 H   0  0  0  0  0  0  0  0  0  0  0  0
  -27.2251  -33.3632   26.1242 H   0  0  0  0  0  0  0  0  0  0  0  0
  -28.3902  -32.6065   25.0645 H   0  0  0  0  0  0  0  0  0  0  0  0
  -27.9772  -31.8555   26.5872 H   0  0  0  0  0  0  0  0  0  0  0  0
  -28.2744  -38.0016   24.6863 H   0  0  0  0  0  0  0  0  0  0  0  0
  -28.0396  -36.2711   24.7461 H   0  0  0  0  0  0  0  0  0  0  0  0
  -27.1773  -37.3087   25.8564 H   0  0  0  0  0  0  0  0  0  0  0  0
  -20.9627  -29.9365   21.7352 H   0  0  0  0  0  0  0  0  0  0  0  0
  -26.0447  -38.2561   24.0273 H   0  0  0  0  0  0  0  0  0  0  0  0
  -29.4496  -27.1310   19.3285 H   0  0  0  0  0  0  0  0  0  0  0  0
  -27.8396  -26.1494   23.0853 H   0  0  0  0  0  0  0  0  0  0  0  0
  -31.0785  -25.8860   18.3433 H   0  0  0  0  0  0  0  0  0  0  0  0
  -30.9894  -24.1731   18.6769 H   0  0  0  0  0  0  0  0  0  0  0  0
  -32.2088  -25.1526   19.4559 H   0  0  0  0  0  0  0  0  0  0  0  0
  -28.5380  -24.3375   24.2692 H   0  0  0  0  0  0  0  0  0  0  0  0
  -30.2294  -23.9457   24.0724 H   0  0  0  0  0  0  0  0  0  0  0  0
  -29.0095  -22.9667   23.2937 H   0  0  0  0  0  0  0  0  0  0  0  0
  -31.1736  -23.0401   22.4363 H   0  0  0  0  0  0  0  0  0  0  0  0
  -32.0899  -23.6796   21.0522 H   0  0  0  0  0  0  0  0  0  0  0  0
  -31.4206  -21.4225   20.6101 H   0  0  0  0  0  0  0  0  0  0  0  0
  -30.5668  -22.5645   19.5517 H   0  0  0  0  0  0  0  0  0  0  0  0
  -29.2447  -21.2770   21.9835 H   0  0  0  0  0  0  0  0  0  0  0  0
  -28.8312  -20.7588   20.5709 H   0  0  0  0  0  0  0  0  0  0  0  0
  -27.2596  -28.8015   21.1149 H   0  0  0  0  0  0  0  0  0  0  0  0
  1 25  1  0
  1 30  2  0
  1 82  1  0
  2  3  1  0
  2 25  1  0
  2 83  1  0
  2 84  1  0
  3  4  1  0
  3 85  1  0
  3 86  1  0
  4  5  1  0
  4 87  1  0
  4 88  1  0
  5  6  1  0
  5 26  1  0
  5 89  1  6
  6 25  1  0
  6 90  1  0
  6 91  1  0
  7  8  2  0
  7 26  1  0
  7 29  1  0
  8  9  1  0
  8 22  1  0
  9 10  1  0
  9 27  2  0
 10 11  2  0
 10 15  1  0
 11 12  1  0
 11 92  1  0
 12 13  2  0
 12 93  1  0
 13 14  1  0
 13 31  1  0
 14 15  2  0
 14 94  1  0
 15 95  1  0
 16 17  2  0
 16 21  1  0
 16 31  1  0
 17 18  1  0
 17 96  1  0
 18 19  2  0
 18 97  1  0
 19 20  1  0
 19 24  1  0
 20 21  2  0
 20 98  1  0
 21 23  1  0
 22 28  1  0
 22 32  2  0
 26 27  1  0
 28 99  1  0
 28100  1  0
 29101  1  0
 29102  1  0
 33 34  1  0
 33 66  1  0
 33 70  2  0
 34 36  1  0
 34 59  1  0
 34103  1  6
 35 44  2  0
 35 45  1  0
 35 68  1  0
 36 56  1  0
 36104  1  0
 37 39  1  0
 37 47  1  0
 37 66  1  0
 37105  1  6
 38 43  2  0
 38 46  1  0
 38 47  1  0
 39 64  1  0
 39 67  2  0
 40 52  1  0
 40 53  2  0
 40 58  1  0
 41106  1  0
 41107  1  0
 41108  1  0
 42 43  1  0
 42 66  1  0
 42109  1  0
 42110  1  0
 43 44  1  0
 44111  1  0
 45 46  2  0
 45112  1  0
 46113  1  0
 47114  1  0
 47115  1  0
 48 41  1  0
 48 56  1  0
 48 65  1  0
 48116  1  1
 49 50  1  0
 49 53  1  0
 49 64  1  0
 49117  1  1
 50 51  1  0
 50118  1  0
 50119  1  0
 51 52  1  0
 51120  1  0
 51121  1  0
 52122  1  0
 52123  1  0
 53 54  1  0
 54 55  2  0
 54124  1  0
 55 57  1  0
 55125  1  0
 56 69  2  0
 57 58  2  0
 57126  1  0
 58127  1  0
 59 60  1  0
 59 61  1  0
 59 62  1  0
 60128  1  0
 60129  1  0
 60130  1  0
 61131  1  0
 61132  1  0
 61133  1  0
 62134  1  0
 62135  1  0
 62136  1  0
 63 65  1  0
 63137  1  0
 63138  1  0
 63139  1  0
 64140  1  0
 65141  1  0
 68 81  1  0
 71 73  2  0
 71 76  1  0
 71142  1  0
 72 74  1  0
 72 76  2  0
 72143  1  0
 73 75  1  0
 73 77  1  0
 74 75  2  0
 74 78  1  0
 75 79  1  0
 76 82  1  0
 77144  1  0
 77145  1  0
 77146  1  0
 78147  1  0
 78148  1  0
 78149  1  0
 79 80  1  0
 79150  1  0
 79151  1  0
 80 81  1  0
 80152  1  0
 80153  1  0
 81154  1  0
 81155  1  0
 82156  1  0
M  ISO  4   1 100  68 101  81 101  82 100
M  END
$$$$
33
     RDKit          3D

166175  0  0  0  0  0  0  0  0999 V2000
  -30.7652  -14.3608   20.6636 C   0  0  0  0  0  0  0  0  0100  0  0
  -30.4392  -12.2669   19.3775 C   0  0  0  0  0  0  0  0  0101  0  0
  -29.4791  -12.5281   18.1977 C   0  0  0  0  0  0  0  0  0102  0  0
  -27.9985  -12.3963   18.6038 C   0  0  0  0  0  0  0  0  0103  0  0
  -27.6639  -13.2170   19.8820 C   0  0  2  0  0  0  0  0  0104  0  0
  -28.6795  -12.9602   21.0279 C   0  0  0  0  0  0  0  0  0105  0  0
  -25.2633  -13.8245   20.5754 C   0  0  0  0  0  0  0  0  0106  0  0
  -24.1645  -13.0409   20.9408 C   0  0  0  0  0  0  0  0  0107  0  0
  -24.6400  -11.7009   20.8697 C   0  0  0  0  0  0  0  0  0108  0  0
  -23.9005  -10.4085   21.0420 C   0  0  0  0  0  0  0  0  0109  0  0
  -24.3588   -9.4123   21.9123 C   0  0  0  0  0  0  0  0  0110  0  0
  -23.6296   -8.2350   22.0803 C   0  0  0  0  0  0  0  0  0111  0  0
  -22.4385   -8.0419   21.3657 C   0  0  0  0  0  0  0  0  0112  0  0
  -22.0103   -9.0167   20.4678 C   0  0  0  0  0  0  0  0  0113  0  0
  -22.7317  -10.1925   20.3102 C   0  0  0  0  0  0  0  0  0114  0  0
  -21.6857   -6.0709   22.5391 C   0  0  0  0  0  0  0  0  0115  0  0
  -21.4064   -6.5490   23.8264 C   0  0  0  0  0  0  0  0  0116  0  0
  -21.3635   -5.6677   24.9085 C   0  0  0  0  0  0  0  0  0117  0  0
  -21.5973   -4.3067   24.7088 C   0  0  0  0  0  0  0  0  0118  0  0
  -21.8700   -3.8284   23.4282 C   0  0  0  0  0  0  0  0  0119  0  0
  -21.9144   -4.7056   22.3460 C   0  0  0  0  0  0  0  0  0120  0  0
  -22.8194  -13.5263   21.1763 C   0  0  0  0  0  0  0  0  0121  0  0
  -22.1559   -4.2206   21.1063 F   0  0  0  0  0  0  0  0  0122  0  0
  -21.5628   -3.4510   25.7555 F   0  0  0  0  0  0  0  0  0123  0  0
  -30.0261  -13.1803   20.4553 N   0  0  0  0  0  0  0  0  0124  0  0
  -26.2911  -12.9356   20.3443 N   0  0  0  0  0  0  0  0  0125  0  0
  -25.9236  -11.6675   20.5847 N   0  0  0  0  0  0  0  0  0126  0  0
  -22.0708  -12.7905   22.0005 N   0  0  0  0  0  0  0  0  0127  0  0
  -25.4117  -15.1773   20.4097 N   0  0  0  0  0  0  0  0  0128  0  0
  -31.7916  -14.6724   20.0536 O   0  0  0  0  0  0  0  0  0129  0  0
  -21.6670   -6.9022   21.4423 O   0  0  0  0  0  0  0  0  0130  0  0
  -22.3946  -14.5564   20.6568 O   0  0  0  0  0  0  0  0  0131  0  0
  -24.6048  -31.8614   23.2223 C   0  0  0  0  0  0  0  0  0100  0  0
  -25.8822  -32.4841   23.8616 C   0  0  1  0  0  0  0  0  0101  0  0
  -27.2536  -27.5042   20.1156 C   0  0  0  0  0  0  0  0  0102  0  0
  -25.5726  -33.8762   24.2210 N   0  0  0  0  0  0  0  0  0103  0  0
  -23.4066  -30.4859   21.5461 C   0  0  2  0  0  0  0  0  0104  0  0
  -24.8467  -28.9636   20.1247 C   0  0  0  0  0  0  0  0  0105  0  0
  -22.7412  -29.4652   22.5052 C   0  0  0  0  0  0  0  0  0106  0  0
  -18.0167  -28.1302   22.8626 C   0  0  0  0  0  0  0  0  0107  0  0
  -24.1342  -36.7390   23.2568 C   0  0  0  0  0  0  0  0  0108  0  0
  -25.9141  -30.8882   21.3456 C   0  0  0  0  0  0  0  0  0109  0  0
  -25.9930  -29.5029   20.7208 C   0  0  0  0  0  0  0  0  0110  0  0
  -27.1758  -28.7612   20.7331 C   0  0  0  0  0  0  0  0  0111  0  0
  -26.1032  -26.9836   19.5230 C   0  0  0  0  0  0  0  0  0112  0  0
  -24.9097  -27.7011   19.5331 C   0  0  0  0  0  0  0  0  0113  0  0
  -23.5715  -29.7899   20.1582 C   0  0  0  0  0  0  0  0  0114  0  0
  -25.3990  -36.3212   24.0232 C   0  0  1  0  0  0  0  0  0115  0  0
  -20.5793  -28.3813   23.1004 C   0  0  2  0  0  0  0  0  0116  0  0
  -20.6548  -26.9392   22.5411 C   0  0  0  0  0  0  0  0  0117  0  0
  -19.5615  -26.6407   21.5143 C   0  0  0  0  0  0  0  0  0118  0  0
  -18.1797  -26.7818   22.1673 C   0  0  0  0  0  0  0  0  0119  0  0
  -19.1385  -28.8769   23.2988 C   0  0  0  0  0  0  0  0  0120  0  0
  -18.9183  -30.1286   23.8878 C   0  0  0  0  0  0  0  0  0121  0  0
  -17.6396  -30.6493   24.0352 C   0  0  0  0  0  0  0  0  0122  0  0
  -25.9153  -34.9582   23.4993 C   0  0  0  0  0  0  0  0  0123  0  0
  -16.5415  -29.9068   23.6254 C   0  0  0  0  0  0  0  0  0124  0  0
  -16.7331  -28.6521   23.0586 C   0  0  0  0  0  0  0  0  0125  0  0
  -26.4583  -31.6439   25.0683 C   0  0  0  0  0  0  0  0  0126  0  0
  -25.3807  -31.3179   26.1374 C   0  0  0  0  0  0  0  0  0127  0  0
  -27.0530  -30.3024   24.5680 C   0  0  0  0  0  0  0  0  0128  0  0
  -27.6014  -32.4281   25.7651 C   0  0  0  0  0  0  0  0  0129  0  0
  -27.5629  -37.2220   24.8621 C   0  0  0  0  0  0  0  0  0130  0  0
  -21.4133  -29.3375   22.3735 N   0  0  0  0  0  0  0  0  0131  0  0
  -26.4706  -37.3372   23.9061 N   0  0  0  0  0  0  0  0  0132  0  0
  -24.6674  -31.0544   22.1178 N   0  0  0  0  0  0  0  0  0133  0  0
  -23.4259  -28.8150   23.2971 O   0  0  0  0  0  0  0  0  0134  0  0
  -28.3948  -26.7345   20.0089 O   0  0  0  0  0  0  0  0  0135  0  0
  -26.5870  -34.9065   22.4671 O   0  0  0  0  0  0  0  0  0136  0  0
  -23.5365  -32.1254   23.7833 O   0  0  0  0  0  0  0  0  0137  0  0
  -25.4585  -22.3876   19.8688 C   0  0  0  0  0  0  0  0  0  0  0  0
  -24.3224  -21.7612   19.3563 C   0  0  0  0  0  0  0  0  0  0  0  0
  -25.7047  -20.0053   18.4381 C   0  0  0  0  0  0  0  0  0  0  0  0
  -26.7177  -21.8228   19.6658 C   0  0  0  0  0  0  0  0  0  0  0  0
  -24.4455  -20.5701   18.6410 C   0  0  0  0  0  0  0  0  0  0  0  0
  -26.8408  -20.6317   18.9505 C   0  0  0  0  0  0  0  0  0  0  0  0
  -28.0416  -23.9281   19.6173 C   0  0  0  0  0  0  0  0  0  0  0  0
  -27.7976  -22.6141   21.7622 C   0  0  0  0  0  0  0  0  0  0  0  0
  -29.1997  -24.7018   20.2344 C   0  0  0  0  0  0  0  0  0  0  0  0
  -28.9578  -23.3976   22.3628 C   0  0  0  0  0  0  0  0  0  0  0  0
  -27.9097  -22.5251   20.2317 C   0  0  1  0  0  0  0  0  0  0  0  0
  -23.2304  -19.9014   18.0919 C   0  0  0  0  0  0  0  0  0  0  0  0
  -30.0674  -25.6300   22.3792 C   0  0  0  0  0  0  0  0  0  0  0  0
  -29.7000  -27.0891   22.1944 C   0  0  0  0  0  0  0  0  0  1  0  0
  -22.8475  -18.7390   18.8620 N   0  0  0  0  0  0  0  0  0  0  0  0
  -29.0320  -24.7792   21.7402 N   0  0  1  0  0  0  0  0  0  0  0  0
  -28.3830  -19.9052   18.6797 Cl  0  0  0  0  0  0  0  0  0  0  0  0
  -31.4485  -12.4701   19.0860 H   0  0  0  0  0  0  0  0  0  0  0  0
  -30.3970  -11.2460   19.6950 H   0  0  0  0  0  0  0  0  0  0  0  0
  -29.6870  -11.8204   17.4226 H   0  0  0  0  0  0  0  0  0  0  0  0
  -29.6375  -13.5326   17.8649 H   0  0  0  0  0  0  0  0  0  0  0  0
  -27.7830  -11.3650   18.7904 H   0  0  0  0  0  0  0  0  0  0  0  0
  -27.4028  -12.7801   17.8021 H   0  0  0  0  0  0  0  0  0  0  0  0
  -27.7353  -14.2503   19.6136 H   0  0  0  0  0  0  0  0  0  0  0  0
  -28.5890  -11.9550   21.3832 H   0  0  0  0  0  0  0  0  0  0  0  0
  -28.5005  -13.6134   21.8562 H   0  0  0  0  0  0  0  0  0  0  0  0
  -25.2399   -9.5495   22.4318 H   0  0  0  0  0  0  0  0  0  0  0  0
  -23.9663   -7.5070   22.7297 H   0  0  0  0  0  0  0  0  0  0  0  0
  -21.1515   -8.8641   19.9162 H   0  0  0  0  0  0  0  0  0  0  0  0
  -22.4016  -10.9115   19.6476 H   0  0  0  0  0  0  0  0  0  0  0  0
  -21.2319   -7.5552   23.9750 H   0  0  0  0  0  0  0  0  0  0  0  0
  -21.1589   -6.0228   25.8556 H   0  0  0  0  0  0  0  0  0  0  0  0
  -22.0396   -2.8212   23.2809 H   0  0  0  0  0  0  0  0  0  0  0  0
  -22.4401  -11.9703   22.4008 H   0  0  0  0  0  0  0  0  0  0  0  0
  -21.1493  -13.0679   22.2082 H   0  0  0  0  0  0  0  0  0  0  0  0
  -24.6538  -15.7807   20.5848 H   0  0  0  0  0  0  0  0  0  0  0  0
  -26.2762  -15.5453   20.1156 H   0  0  0  0  0  0  0  0  0  0  0  0
  -26.6778  -32.4663   23.1464 H   0  0  0  0  0  0  0  0  0  0  0  0
  -25.0747  -34.0282   25.0566 H   0  0  0  0  0  0  0  0  0  0  0  0
  -22.7881  -31.3489   21.4131 H   0  0  0  0  0  0  0  0  0  0  0  0
  -23.3854  -35.9823   23.3648 H   0  0  0  0  0  0  0  0  0  0  0  0
  -24.3696  -36.8624   22.2204 H   0  0  0  0  0  0  0  0  0  0  0  0
  -23.7669  -37.6632   23.6516 H   0  0  0  0  0  0  0  0  0  0  0  0
  -25.9445  -31.6237   20.5691 H   0  0  0  0  0  0  0  0  0  0  0  0
  -26.7436  -31.0079   22.0108 H   0  0  0  0  0  0  0  0  0  0  0  0
  -28.0090  -29.1452   21.2057 H   0  0  0  0  0  0  0  0  0  0  0  0
  -26.1369  -26.0560   19.0719 H   0  0  0  0  0  0  0  0  0  0  0  0
  -24.0652  -27.2961   19.0997 H   0  0  0  0  0  0  0  0  0  0  0  0
  -23.6156  -30.5365   19.3930 H   0  0  0  0  0  0  0  0  0  0  0  0
  -22.7355  -29.1425   19.9945 H   0  0  0  0  0  0  0  0  0  0  0  0
  -25.1353  -36.2335   25.0565 H   0  0  0  0  0  0  0  0  0  0  0  0
  -21.0070  -28.3206   24.0793 H   0  0  0  0  0  0  0  0  0  0  0  0
  -20.5555  -26.2518   23.3550 H   0  0  0  0  0  0  0  0  0  0  0  0
  -21.5974  -26.8362   22.0454 H   0  0  0  0  0  0  0  0  0  0  0  0
  -19.6810  -25.6422   21.1488 H   0  0  0  0  0  0  0  0  0  0  0  0
  -19.6406  -27.3343   20.7034 H   0  0  0  0  0  0  0  0  0  0  0  0
  -17.4282  -26.6888   21.4113 H   0  0  0  0  0  0  0  0  0  0  0  0
  -18.0803  -26.0130   22.9049 H   0  0  0  0  0  0  0  0  0  0  0  0
  -19.7265  -30.6774   24.2204 H   0  0  0  0  0  0  0  0  0  0  0  0
  -17.5064  -31.5856   24.4483 H   0  0  0  0  0  0  0  0  0  0  0  0
  -15.5878  -30.2839   23.7407 H   0  0  0  0  0  0  0  0  0  0  0  0
  -15.9120  -28.0941   22.7766 H   0  0  0  0  0  0  0  0  0  0  0  0
  -24.5787  -30.7757   25.6817 H   0  0  0  0  0  0  0  0  0  0  0  0
  -25.0041  -32.2289   26.5536 H   0  0  0  0  0  0  0  0  0  0  0  0
  -25.8166  -30.7245   26.9138 H   0  0  0  0  0  0  0  0  0  0  0  0
  -26.2892  -29.7335   24.0803 H   0  0  0  0  0  0  0  0  0  0  0  0
  -27.4336  -29.7484   25.4006 H   0  0  0  0  0  0  0  0  0  0  0  0
  -27.8466  -30.4994   23.8779 H   0  0  0  0  0  0  0  0  0  0  0  0
  -27.2251  -33.3632   26.1242 H   0  0  0  0  0  0  0  0  0  0  0  0
  -28.3902  -32.6065   25.0645 H   0  0  0  0  0  0  0  0  0  0  0  0
  -27.9772  -31.8555   26.5872 H   0  0  0  0  0  0  0  0  0  0  0  0
  -28.2744  -38.0016   24.6863 H   0  0  0  0  0  0  0  0  0  0  0  0
  -28.0396  -36.2711   24.7461 H   0  0  0  0  0  0  0  0  0  0  0  0
  -27.1773  -37.3087   25.8564 H   0  0  0  0  0  0  0  0  0  0  0  0
  -20.9627  -29.9365   21.7352 H   0  0  0  0  0  0  0  0  0  0  0  0
  -26.0447  -38.2561   24.0273 H   0  0  0  0  0  0  0  0  0  0  0  0
  -25.3674  -23.2688   20.3981 H   0  0  0  0  0  0  0  0  0  0  0  0
  -23.3908  -22.1790   19.5064 H   0  0  0  0  0  0  0  0  0  0  0  0
  -25.7958  -19.1240   17.9089 H   0  0  0  0  0  0  0  0  0  0  0  0
  -28.2092  -23.8323   18.5649 H   0  0  0  0  0  0  0  0  0  0  0  0
  -27.1373  -24.4659   19.8119 H   0  0  0  0  0  0  0  0  0  0  0  0
  -26.8800  -23.1027   22.0157 H   0  0  0  0  0  0  0  0  0  0  0  0
  -27.8226  -21.6206   22.1588 H   0  0  0  0  0  0  0  0  0  0  0  0
  -29.2195  -25.6919   19.8292 H   0  0  0  0  0  0  0  0  0  0  0  0
  -30.1165  -24.1979   20.0098 H   0  0  0  0  0  0  0  0  0  0  0  0
  -29.8725  -22.8752   22.1749 H   0  0  0  0  0  0  0  0  0  0  0  0
  -28.8049  -23.4965   23.4172 H   0  0  0  0  0  0  0  0  0  0  0  0
  -28.7880  -21.9646   19.9883 H   0  0  0  0  0  0  0  0  0  0  0  0
  -23.4304  -19.5969   17.0858 H   0  0  0  0  0  0  0  0  0  0  0  0
  -22.4234  -20.6027   18.1352 H   0  0  0  0  0  0  0  0  0  0  0  0
  -30.1209  -25.4043   23.4238 H   0  0  0  0  0  0  0  0  0  0  0  0
  -31.0179  -25.4393   21.9263 H   0  0  0  0  0  0  0  0  0  0  0  0
  -30.5548  -27.7206   22.0704 H   0  0  0  0  0  0  0  0  0  0  0  0
  -29.1911  -27.5759   22.9999 H   0  0  0  0  0  0  0  0  0  0  0  0
  -21.9397  -18.4728   19.1346 H   0  0  0  0  0  0  0  0  0  0  0  0
  -28.1381  -25.2368   21.9190 H   0  0  0  0  0  0  0  0  0  0  0  0
  1 25  1  0
  1 30  2  0
  1 85  1  0
  2  3  1  0
  2 25  1  0
  2 88  1  0
  2 89  1  0
  3  4  1  0
  3 90  1  0
  3 91  1  0
  4  5  1  0
  4 92  1  0
  4 93  1  0
  5  6  1  0
  5 26  1  0
  5 94  1  6
  6 25  1  0
  6 95  1  0
  6 96  1  0
  7  8  2  0
  7 26  1  0
  7 29  1  0
  8  9  1  0
  8 22  1  0
  9 10  1  0
  9 27  2  0
 10 11  2  0
 10 15  1  0
 11 12  1  0
 11 97  1  0
 12 13  2  0
 12 98  1  0
 13 14  1  0
 13 31  1  0
 14 15  2  0
 14 99  1  0
 15100  1  0
 16 17  2  0
 16 21  1  0
 16 31  1  0
 17 18  1  0
 17101  1  0
 18 19  2  0
 18102  1  0
 19 20  1  0
 19 24  1  0
 20 21  2  0
 20103  1  0
 21 23  1  0
 22 28  1  0
 22 32  2  0
 26 27  1  0
 28104  1  0
 28105  1  0
 29106  1  0
 29107  1  0
 33 34  1  0
 33 66  1  0
 33 70  2  0
 34 36  1  0
 34 59  1  0
 34108  1  6
 35 44  2  0
 35 45  1  0
 35 68  1  0
 36 56  1  0
 36109  1  0
 37 39  1  0
 37 47  1  0
 37 66  1  0
 37110  1  6
 38 43  2  0
 38 46  1  0
 38 47  1  0
 39 64  1  0
 39 67  2  0
 40 52  1  0
 40 53  2  0
 40 58  1  0
 41111  1  0
 41112  1  0
 41113  1  0
 42 43  1  0
 42 66  1  0
 42114  1  0
 42115  1  0
 43 44  1  0
 44116  1  0
 45 46  2  0
 45117  1  0
 46118  1  0
 47119  1  0
 47120  1  0
 48 41  1  0
 48 56  1  0
 48 65  1  0
 48121  1  1
 49 50  1  0
 49 53  1  0
 49 64  1  0
 49122  1  1
 50 51  1  0
 50123  1  0
 50124  1  0
 51 52  1  0
 51125  1  0
 51126  1  0
 52127  1  0
 52128  1  0
 53 54  1  0
 54 55  2  0
 54129  1  0
 55 57  1  0
 55130  1  0
 56 69  2  0
 57 58  2  0
 57131  1  0
 58132  1  0
 59 60  1  0
 59 61  1  0
 59 62  1  0
 60133  1  0
 60134  1  0
 60135  1  0
 61136  1  0
 61137  1  0
 61138  1  0
 62139  1  0
 62140  1  0
 62141  1  0
 63 65  1  0
 63142  1  0
 63143  1  0
 63144  1  0
 64145  1  0
 65146  1  0
 68 84  1  0
 71 72  2  0
 71 74  1  0
 71147  1  0
 72 75  1  0
 72148  1  0
 73 75  2  0
 73 76  1  0
 73149  1  0
 74 76  2  0
 75 82  1  0
 76 87  1  0
 77 79  1  0
 77 81  1  0
 77150  1  0
 77151  1  0
 78 80  1  0
 78 81  1  0
 78152  1  0
 78153  1  0
 79 86  1  0
 79154  1  0
 79155  1  0
 80 86  1  0
 80156  1  0
 80157  1  0
 81 74  1  0
 81158  1  1
 82 85  1  0
 82159  1  0
 82160  1  0
 83 84  1  0
 83161  1  0
 83162  1  0
 84163  1  0
 84164  1  0
 85165  1  0
 86 83  1  0
 86166  1  6
M  CHG  1  86   1
M  ISO  4   1 100  68 101  84 101  85 100
M  END
$$$$
34
     RDKit          3D

161169  0  0  0  0  0  0  0  0999 V2000
  -30.7652  -14.3608   20.6636 C   0  0  0  0  0  0  0  0  0100  0  0
  -30.4392  -12.2669   19.3775 C   0  0  0  0  0  0  0  0  0101  0  0
  -29.4791  -12.5281   18.1977 C   0  0  0  0  0  0  0  0  0102  0  0
  -27.9985  -12.3963   18.6038 C   0  0  0  0  0  0  0  0  0103  0  0
  -27.6639  -13.2170   19.8820 C   0  0  2  0  0  0  0  0  0104  0  0
  -28.6795  -12.9602   21.0279 C   0  0  0  0  0  0  0  0  0105  0  0
  -25.2633  -13.8245   20.5754 C   0  0  0  0  0  0  0  0  0106  0  0
  -24.1645  -13.0409   20.9408 C   0  0  0  0  0  0  0  0  0107  0  0
  -24.6400  -11.7009   20.8697 C   0  0  0  0  0  0  0  0  0108  0  0
  -23.9005  -10.4085   21.0420 C   0  0  0  0  0  0  0  0  0109  0  0
  -24.3588   -9.4123   21.9123 C   0  0  0  0  0  0  0  0  0110  0  0
  -23.6296   -8.2350   22.0803 C   0  0  0  0  0  0  0  0  0111  0  0
  -22.4385   -8.0419   21.3657 C   0  0  0  0  0  0  0  0  0112  0  0
  -22.0103   -9.0167   20.4678 C   0  0  0  0  0  0  0  0  0113  0  0
  -22.7317  -10.1925   20.3102 C   0  0  0  0  0  0  0  0  0114  0  0
  -21.6857   -6.0709   22.5391 C   0  0  0  0  0  0  0  0  0115  0  0
  -21.4064   -6.5490   23.8264 C   0  0  0  0  0  0  0  0  0116  0  0
  -21.3635   -5.6677   24.9085 C   0  0  0  0  0  0  0  0  0117  0  0
  -21.5973   -4.3067   24.7088 C   0  0  0  0  0  0  0  0  0118  0  0
  -21.8700   -3.8284   23.4282 C   0  0  0  0  0  0  0  0  0119  0  0
  -21.9144   -4.7056   22.3460 C   0  0  0  0  0  0  0  0  0120  0  0
  -22.8194  -13.5263   21.1763 C   0  0  0  0  0  0  0  0  0121  0  0
  -22.1559   -4.2206   21.1063 F   0  0  0  0  0  0  0  0  0122  0  0
  -21.5628   -3.4510   25.7555 F   0  0  0  0  0  0  0  0  0123  0  0
  -30.0261  -13.1803   20.4553 N   0  0  0  0  0  0  0  0  0124  0  0
  -26.2911  -12.9356   20.3443 N   0  0  0  0  0  0  0  0  0125  0  0
  -25.9236  -11.6675   20.5847 N   0  0  0  0  0  0  0  0  0126  0  0
  -22.0708  -12.7905   22.0005 N   0  0  0  0  0  0  0  0  0127  0  0
  -25.4117  -15.1773   20.4097 N   0  0  0  0  0  0  0  0  0128  0  0
  -31.7916  -14.6724   20.0536 O   0  0  0  0  0  0  0  0  0129  0  0
  -21.6670   -6.9022   21.4423 O   0  0  0  0  0  0  0  0  0130  0  0
  -22.3946  -14.5564   20.6568 O   0  0  0  0  0  0  0  0  0131  0  0
  -24.6048  -31.8614   23.2223 C   0  0  0  0  0  0  0  0  0100  0  0
  -25.8822  -32.4841   23.8616 C   0  0  1  0  0  0  0  0  0101  0  0
  -27.2536  -27.5042   20.1156 C   0  0  0  0  0  0  0  0  0102  0  0
  -25.5726  -33.8762   24.2210 N   0  0  0  0  0  0  0  0  0103  0  0
  -23.4066  -30.4859   21.5461 C   0  0  2  0  0  0  0  0  0104  0  0
  -24.8467  -28.9636   20.1247 C   0  0  0  0  0  0  0  0  0105  0  0
  -22.7412  -29.4652   22.5052 C   0  0  0  0  0  0  0  0  0106  0  0
  -18.0167  -28.1302   22.8626 C   0  0  0  0  0  0  0  0  0107  0  0
  -24.1342  -36.7390   23.2568 C   0  0  0  0  0  0  0  0  0108  0  0
  -25.9141  -30.8882   21.3456 C   0  0  0  0  0  0  0  0  0109  0  0
  -25.9930  -29.5029   20.7208 C   0  0  0  0  0  0  0  0  0110  0  0
  -27.1758  -28.7612   20.7331 C   0  0  0  0  0  0  0  0  0111  0  0
  -26.1032  -26.9836   19.5230 C   0  0  0  0  0  0  0  0  0112  0  0
  -24.9097  -27.7011   19.5331 C   0  0  0  0  0  0  0  0  0113  0  0
  -23.5715  -29.7899   20.1582 C   0  0  0  0  0  0  0  0  0114  0  0
  -25.3990  -36.3212   24.0232 C   0  0  1  0  0  0  0  0  0115  0  0
  -20.5793  -28.3813   23.1004 C   0  0  2  0  0  0  0  0  0116  0  0
  -20.6548  -26.9392   22.5411 C   0  0  0  0  0  0  0  0  0117  0  0
  -19.5615  -26.6407   21.5143 C   0  0  0  0  0  0  0  0  0118  0  0
  -18.1797  -26.7818   22.1673 C   0  0  0  0  0  0  0  0  0119  0  0
  -19.1385  -28.8769   23.2988 C   0  0  0  0  0  0  0  0  0120  0  0
  -18.9183  -30.1286   23.8878 C   0  0  0  0  0  0  0  0  0121  0  0
  -17.6396  -30.6493   24.0352 C   0  0  0  0  0  0  0  0  0122  0  0
  -25.9153  -34.9582   23.4993 C   0  0  0  0  0  0  0  0  0123  0  0
  -16.5415  -29.9068   23.6254 C   0  0  0  0  0  0  0  0  0124  0  0
  -16.7331  -28.6521   23.0586 C   0  0  0  0  0  0  0  0  0125  0  0
  -26.4583  -31.6439   25.0683 C   0  0  0  0  0  0  0  0  0126  0  0
  -25.3807  -31.3179   26.1374 C   0  0  0  0  0  0  0  0  0127  0  0
  -27.0530  -30.3024   24.5680 C   0  0  0  0  0  0  0  0  0128  0  0
  -27.6014  -32.4281   25.7651 C   0  0  0  0  0  0  0  0  0129  0  0
  -27.5629  -37.2220   24.8621 C   0  0  0  0  0  0  0  0  0130  0  0
  -21.4133  -29.3375   22.3735 N   0  0  0  0  0  0  0  0  0131  0  0
  -26.4706  -37.3372   23.9061 N   0  0  0  0  0  0  0  0  0132  0  0
  -24.6674  -31.0544   22.1178 N   0  0  0  0  0  0  0  0  0133  0  0
  -23.4259  -28.8150   23.2971 O   0  0  0  0  0  0  0  0  0134  0  0
  -28.3948  -26.7345   20.0089 O   0  0  0  0  0  0  0  0  0135  0  0
  -26.5870  -34.9065   22.4671 O   0  0  0  0  0  0  0  0  0136  0  0
  -23.5365  -32.1254   23.7833 O   0  0  0  0  0  0  0  0  0137  0  0
  -28.3742  -13.7146   18.6446 C   0  0  0  0  0  0  0  0  0  0  0  0
  -27.4747  -13.0795   19.5009 C   0  0  0  0  0  0  0  0  0  0  0  0
  -29.3022  -12.4389   20.9455 C   0  0  0  0  0  0  0  0  0  0  0  0
  -29.7377  -13.7117   18.9387 C   0  0  0  0  0  0  0  0  0  0  0  0
  -27.9387  -12.4417   20.6514 C   0  0  0  0  0  0  0  0  0  0  0  0
  -30.2017  -13.0739   20.0892 C   0  0  0  0  0  0  0  0  0  0  0  0
  -29.7576  -11.7423   22.1881 C   0  0  0  0  0  0  0  0  0  0  0  0
  -26.0175  -13.0840   19.1832 C   0  0  0  0  0  0  0  0  0  0  0  0
  -31.3729  -15.5777   16.0923 C   0  0  0  0  0  0  0  0  0  0  0  0
  -30.9653  -16.2617   14.7865 C   0  0  0  0  0  0  0  0  0  0  0  0
  -30.1768  -15.0260   16.8637 C   0  0  0  0  0  0  0  0  0  0  0  0
  -29.9951  -17.4097   15.0353 C   0  0  0  0  0  0  0  0  0  1  0  0
  -30.6039  -14.3518   18.0666 N   0  0  0  0  0  0  0  0  0  0  0  0
  -25.2772  -14.0105   20.0105 N   0  0  0  0  0  0  0  0  0  0  0  0
  -27.0719  -11.8312   21.4733 F   0  0  0  0  0  0  0  0  0  0  0  0
  -31.8953  -13.0668   20.4597 Cl  0  0  0  0  0  0  0  0  0  0  0  0
  -31.4485  -12.4701   19.0860 H   0  0  0  0  0  0  0  0  0  0  0  0
  -30.3970  -11.2460   19.6950 H   0  0  0  0  0  0  0  0  0  0  0  0
  -29.6870  -11.8204   17.4226 H   0  0  0  0  0  0  0  0  0  0  0  0
  -29.6375  -13.5326   17.8649 H   0  0  0  0  0  0  0  0  0  0  0  0
  -27.7830  -11.3650   18.7904 H   0  0  0  0  0  0  0  0  0  0  0  0
  -27.4028  -12.7801   17.8021 H   0  0  0  0  0  0  0  0  0  0  0  0
  -27.7353  -14.2503   19.6136 H   0  0  0  0  0  0  0  0  0  0  0  0
  -28.5890  -11.9550   21.3832 H   0  0  0  0  0  0  0  0  0  0  0  0
  -28.5005  -13.6134   21.8562 H   0  0  0  0  0  0  0  0  0  0  0  0
  -25.2399   -9.5495   22.4318 H   0  0  0  0  0  0  0  0  0  0  0  0
  -23.9663   -7.5070   22.7297 H   0  0  0  0  0  0  0  0  0  0  0  0
  -21.1515   -8.8641   19.9162 H   0  0  0  0  0  0  0  0  0  0  0  0
  -22.4016  -10.9115   19.6476 H   0  0  0  0  0  0  0  0  0  0  0  0
  -21.2319   -7.5552   23.9750 H   0  0  0  0  0  0  0  0  0  0  0  0
  -21.1589   -6.0228   25.8556 H   0  0  0  0  0  0  0  0  0  0  0  0
  -22.0396   -2.8212   23.2809 H   0  0  0  0  0  0  0  0  0  0  0  0
  -22.4401  -11.9703   22.4008 H   0  0  0  0  0  0  0  0  0  0  0  0
  -21.1493  -13.0679   22.2082 H   0  0  0  0  0  0  0  0  0  0  0  0
  -24.6538  -15.7807   20.5848 H   0  0  0  0  0  0  0  0  0  0  0  0
  -26.2762  -15.5453   20.1156 H   0  0  0  0  0  0  0  0  0  0  0  0
  -26.6778  -32.4663   23.1464 H   0  0  0  0  0  0  0  0  0  0  0  0
  -25.0747  -34.0282   25.0566 H   0  0  0  0  0  0  0  0  0  0  0  0
  -22.7881  -31.3489   21.4131 H   0  0  0  0  0  0  0  0  0  0  0  0
  -23.3854  -35.9823   23.3648 H   0  0  0  0  0  0  0  0  0  0  0  0
  -24.3696  -36.8624   22.2204 H   0  0  0  0  0  0  0  0  0  0  0  0
  -23.7669  -37.6632   23.6516 H   0  0  0  0  0  0  0  0  0  0  0  0
  -25.9445  -31.6237   20.5691 H   0  0  0  0  0  0  0  0  0  0  0  0
  -26.7436  -31.0079   22.0108 H   0  0  0  0  0  0  0  0  0  0  0  0
  -28.0090  -29.1452   21.2057 H   0  0  0  0  0  0  0  0  0  0  0  0
  -26.1369  -26.0560   19.0719 H   0  0  0  0  0  0  0  0  0  0  0  0
  -24.0652  -27.2961   19.0997 H   0  0  0  0  0  0  0  0  0  0  0  0
  -23.6156  -30.5365   19.3930 H   0  0  0  0  0  0  0  0  0  0  0  0
  -22.7355  -29.1425   19.9945 H   0  0  0  0  0  0  0  0  0  0  0  0
  -25.1353  -36.2335   25.0565 H   0  0  0  0  0  0  0  0  0  0  0  0
  -21.0070  -28.3206   24.0793 H   0  0  0  0  0  0  0  0  0  0  0  0
  -20.5555  -26.2518   23.3550 H   0  0  0  0  0  0  0  0  0  0  0  0
  -21.5974  -26.8362   22.0454 H   0  0  0  0  0  0  0  0  0  0  0  0
  -19.6810  -25.6422   21.1488 H   0  0  0  0  0  0  0  0  0  0  0  0
  -19.6406  -27.3343   20.7034 H   0  0  0  0  0  0  0  0  0  0  0  0
  -17.4282  -26.6888   21.4113 H   0  0  0  0  0  0  0  0  0  0  0  0
  -18.0803  -26.0130   22.9049 H   0  0  0  0  0  0  0  0  0  0  0  0
  -19.7265  -30.6774   24.2204 H   0  0  0  0  0  0  0  0  0  0  0  0
  -17.5064  -31.5856   24.4483 H   0  0  0  0  0  0  0  0  0  0  0  0
  -15.5878  -30.2839   23.7407 H   0  0  0  0  0  0  0  0  0  0  0  0
  -15.9120  -28.0941   22.7766 H   0  0  0  0  0  0  0  0  0  0  0  0
  -24.5787  -30.7757   25.6817 H   0  0  0  0  0  0  0  0  0  0  0  0
  -25.0041  -32.2289   26.5536 H   0  0  0  0  0  0  0  0  0  0  0  0
  -25.8166  -30.7245   26.9138 H   0  0  0  0  0  0  0  0  0  0  0  0
  -26.2892  -29.7335   24.0803 H   0  0  0  0  0  0  0  0  0  0  0  0
  -27.4336  -29.7484   25.4006 H   0  0  0  0  0  0  0  0  0  0  0  0
  -27.8466  -30.4994   23.8779 H   0  0  0  0  0  0  0  0  0  0  0  0
  -27.2251  -33.3632   26.1242 H   0  0  0  0  0  0  0  0  0  0  0  0
  -28.3902  -32.6065   25.0645 H   0  0  0  0  0  0  0  0  0  0  0  0
  -27.9772  -31.8555   26.5872 H   0  0  0  0  0  0  0  0  0  0  0  0
  -28.2744  -38.0016   24.6863 H   0  0  0  0  0  0  0  0  0  0  0  0
  -28.0396  -36.2711   24.7461 H   0  0  0  0  0  0  0  0  0  0  0  0
  -27.1773  -37.3087   25.8564 H   0  0  0  0  0  0  0  0  0  0  0  0
  -20.9627  -29.9365   21.7352 H   0  0  0  0  0  0  0  0  0  0  0  0
  -26.0447  -38.2561   24.0273 H   0  0  0  0  0  0  0  0  0  0  0  0
  -28.0309  -14.1866   17.7935 H   0  0  0  0  0  0  0  0  0  0  0  0
  -28.9116  -11.3267   22.6944 H   0  0  0  0  0  0  0  0  0  0  0  0
  -30.2487  -12.4432   22.8303 H   0  0  0  0  0  0  0  0  0  0  0  0
  -30.4383  -10.9586   21.9286 H   0  0  0  0  0  0  0  0  0  0  0  0
  -25.6289  -12.0991   19.3374 H   0  0  0  0  0  0  0  0  0  0  0  0
  -25.9059  -13.3938   18.1651 H   0  0  0  0  0  0  0  0  0  0  0  0
  -31.8793  -16.2905   16.7090 H   0  0  0  0  0  0  0  0  0  0  0  0
  -32.0061  -14.7522   15.8421 H   0  0  0  0  0  0  0  0  0  0  0  0
  -30.4958  -15.5419   14.1491 H   0  0  0  0  0  0  0  0  0  0  0  0
  -31.8460  -16.6605   14.3279 H   0  0  0  0  0  0  0  0  0  0  0  0
  -29.6492  -14.3327   16.2424 H   0  0  0  0  0  0  0  0  0  0  0  0
  -29.5415  -15.8423   17.1375 H   0  0  0  0  0  0  0  0  0  0  0  0
  -29.1561  -16.8599   15.4076 H   0  0  0  0  0  0  0  0  0  0  0  0
  -30.3843  -17.9273   14.1835 H   0  0  0  0  0  0  0  0  0  0  0  0
  -31.5651  -14.3464   18.2795 H   0  0  0  0  0  0  0  0  0  0  0  0
  -24.3927  -14.3503   20.2778 H   0  0  0  0  0  0  0  0  0  0  0  0
  1 25  1  0
  1 30  2  0
  1 84  1  0
  2  3  1  0
  2 25  1  0
  2 87  1  0
  2 88  1  0
  3  4  1  0
  3 89  1  0
  3 90  1  0
  4  5  1  0
  4 91  1  0
  4 92  1  0
  5  6  1  0
  5 26  1  0
  5 93  1  6
  6 25  1  0
  6 94  1  0
  6 95  1  0
  7  8  2  0
  7 26  1  0
  7 29  1  0
  8  9  1  0
  8 22  1  0
  9 10  1  0
  9 27  2  0
 10 11  2  0
 10 15  1  0
 11 12  1  0
 11 96  1  0
 12 13  2  0
 12 97  1  0
 13 14  1  0
 13 31  1  0
 14 15  2  0
 14 98  1  0
 15 99  1  0
 16 17  2  0
 16 21  1  0
 16 31  1  0
 17 18  1  0
 17100  1  0
 18 19  2  0
 18101  1  0
 19 20  1  0
 19 24  1  0
 20 21  2  0
 20102  1  0
 21 23  1  0
 22 28  1  0
 22 32  2  0
 26 27  1  0
 28103  1  0
 28104  1  0
 29105  1  0
 29106  1  0
 33 34  1  0
 33 66  1  0
 33 70  2  0
 34 36  1  0
 34 59  1  0
 34107  1  6
 35 44  2  0
 35 45  1  0
 35 68  1  0
 36 56  1  0
 36108  1  0
 37 39  1  0
 37 47  1  0
 37 66  1  0
 37109  1  6
 38 43  2  0
 38 46  1  0
 38 47  1  0
 39 64  1  0
 39 67  2  0
 40 52  1  0
 40 53  2  0
 40 58  1  0
 41110  1  0
 41111  1  0
 41112  1  0
 42 43  1  0
 42 66  1  0
 42113  1  0
 42114  1  0
 43 44  1  0
 44115  1  0
 45 46  2  0
 45116  1  0
 46117  1  0
 47118  1  0
 47119  1  0
 48 41  1  0
 48 56  1  0
 48 65  1  0
 48120  1  1
 49 50  1  0
 49 53  1  0
 49 64  1  0
 49121  1  1
 50 51  1  0
 50122  1  0
 50123  1  0
 51 52  1  0
 51124  1  0
 51125  1  0
 52126  1  0
 52127  1  0
 53 54  1  0
 54 55  2  0
 54128  1  0
 55 57  1  0
 55129  1  0
 56 69  2  0
 57 58  2  0
 57130  1  0
 58131  1  0
 59 60  1  0
 59 61  1  0
 59 62  1  0
 60132  1  0
 60133  1  0
 60134  1  0
 61135  1  0
 61136  1  0
 61137  1  0
 62138  1  0
 62139  1  0
 62140  1  0
 63 65  1  0
 63141  1  0
 63142  1  0
 63143  1  0
 64144  1  0
 65145  1  0
 68 82  1  0
 71 72  2  0
 71 74  1  0
 71146  1  0
 72 75  1  0
 72 78  1  0
 73 75  2  0
 73 76  1  0
 73 77  1  0
 74 76  2  0
 74 83  1  0
 75 85  1  0
 76 86  1  0
 77147  1  0
 77148  1  0
 77149  1  0
 78 84  1  0
 78150  1  0
 78151  1  0
 79 80  1  0
 79 81  1  0
 79152  1  0
 79153  1  0
 80 82  1  0
 80154  1  0
 80155  1  0
 81 83  1  0
 81156  1  0
 81157  1  0
 82158  1  0
 82159  1  0
 83160  1  0
 84161  1  0
M  ISO  4   1 100  68 101  82 101  84 100
M  END
$$$$
35
     RDKit          3D

167176  0  0  0  0  0  0  0  0999 V2000
  -30.7652  -14.3608   20.6636 C   0  0  0  0  0  0  0  0  0100  0  0
  -30.4392  -12.2669   19.3775 C   0  0  0  0  0  0  0  0  0101  0  0
  -29.4791  -12.5281   18.1977 C   0  0  0  0  0  0  0  0  0102  0  0
  -27.9985  -12.3963   18.6038 C   0  0  0  0  0  0  0  0  0103  0  0
  -27.6639  -13.2170   19.8820 C   0  0  2  0  0  0  0  0  0104  0  0
  -28.6795  -12.9602   21.0279 C   0  0  0  0  0  0  0  0  0105  0  0
  -25.2633  -13.8245   20.5754 C   0  0  0  0  0  0  0  0  0106  0  0
  -24.1645  -13.0409   20.9408 C   0  0  0  0  0  0  0  0  0107  0  0
  -24.6400  -11.7009   20.8697 C   0  0  0  0  0  0  0  0  0108  0  0
  -23.9005  -10.4085   21.0420 C   0  0  0  0  0  0  0  0  0109  0  0
  -24.3588   -9.4123   21.9123 C   0  0  0  0  0  0  0  0  0110  0  0
  -23.6296   -8.2350   22.0803 C   0  0  0  0  0  0  0  0  0111  0  0
  -22.4385   -8.0419   21.3657 C   0  0  0  0  0  0  0  0  0112  0  0
  -22.0103   -9.0167   20.4678 C   0  0  0  0  0  0  0  0  0113  0  0
  -22.7317  -10.1925   20.3102 C   0  0  0  0  0  0  0  0  0114  0  0
  -21.6857   -6.0709   22.5391 C   0  0  0  0  0  0  0  0  0115  0  0
  -21.4064   -6.5490   23.8264 C   0  0  0  0  0  0  0  0  0116  0  0
  -21.3635   -5.6677   24.9085 C   0  0  0  0  0  0  0  0  0117  0  0
  -21.5973   -4.3067   24.7088 C   0  0  0  0  0  0  0  0  0118  0  0
  -21.8700   -3.8284   23.4282 C   0  0  0  0  0  0  0  0  0119  0  0
  -21.9144   -4.7056   22.3460 C   0  0  0  0  0  0  0  0  0120  0  0
  -22.8194  -13.5263   21.1763 C   0  0  0  0  0  0  0  0  0121  0  0
  -22.1559   -4.2206   21.1063 F   0  0  0  0  0  0  0  0  0122  0  0
  -21.5628   -3.4510   25.7555 F   0  0  0  0  0  0  0  0  0123  0  0
  -30.0261  -13.1803   20.4553 N   0  0  0  0  0  0  0  0  0124  0  0
  -26.2911  -12.9356   20.3443 N   0  0  0  0  0  0  0  0  0125  0  0
  -25.9236  -11.6675   20.5847 N   0  0  0  0  0  0  0  0  0126  0  0
  -22.0708  -12.7905   22.0005 N   0  0  0  0  0  0  0  0  0127  0  0
  -25.4117  -15.1773   20.4097 N   0  0  0  0  0  0  0  0  0128  0  0
  -31.7916  -14.6724   20.0536 O   0  0  0  0  0  0  0  0  0129  0  0
  -21.6670   -6.9022   21.4423 O   0  0  0  0  0  0  0  0  0130  0  0
  -22.3946  -14.5564   20.6568 O   0  0  0  0  0  0  0  0  0131  0  0
  -24.6048  -31.8614   23.2223 C   0  0  0  0  0  0  0  0  0100  0  0
  -25.8822  -32.4841   23.8616 C   0  0  1  0  0  0  0  0  0101  0  0
  -27.2536  -27.5042   20.1156 C   0  0  0  0  0  0  0  0  0102  0  0
  -25.5726  -33.8762   24.2210 N   0  0  0  0  0  0  0  0  0103  0  0
  -23.4066  -30.4859   21.5461 C   0  0  2  0  0  0  0  0  0104  0  0
  -24.8467  -28.9636   20.1247 C   0  0  0  0  0  0  0  0  0105  0  0
  -22.7412  -29.4652   22.5052 C   0  0  0  0  0  0  0  0  0106  0  0
  -18.0167  -28.1302   22.8626 C   0  0  0  0  0  0  0  0  0107  0  0
  -24.1342  -36.7390   23.2568 C   0  0  0  0  0  0  0  0  0108  0  0
  -25.9141  -30.8882   21.3456 C   0  0  0  0  0  0  0  0  0109  0  0
  -25.9930  -29.5029   20.7208 C   0  0  0  0  0  0  0  0  0110  0  0
  -27.1758  -28.7612   20.7331 C   0  0  0  0  0  0  0  0  0111  0  0
  -26.1032  -26.9836   19.5230 C   0  0  0  0  0  0  0  0  0112  0  0
  -24.9097  -27.7011   19.5331 C   0  0  0  0  0  0  0  0  0113  0  0
  -23.5715  -29.7899   20.1582 C   0  0  0  0  0  0  0  0  0114  0  0
  -25.3990  -36.3212   24.0232 C   0  0  1  0  0  0  0  0  0115  0  0
  -20.5793  -28.3813   23.1004 C   0  0  2  0  0  0  0  0  0116  0  0
  -20.6548  -26.9392   22.5411 C   0  0  0  0  0  0  0  0  0117  0  0
  -19.5615  -26.6407   21.5143 C   0  0  0  0  0  0  0  0  0118  0  0
  -18.1797  -26.7818   22.1673 C   0  0  0  0  0  0  0  0  0119  0  0
  -19.1385  -28.8769   23.2988 C   0  0  0  0  0  0  0  0  0120  0  0
  -18.9183  -30.1286   23.8878 C   0  0  0  0  0  0  0  0  0121  0  0
  -17.6396  -30.6493   24.0352 C   0  0  0  0  0  0  0  0  0122  0  0
  -25.9153  -34.9582   23.4993 C   0  0  0  0  0  0  0  0  0123  0  0
  -16.5415  -29.9068   23.6254 C   0  0  0  0  0  0  0  0  0124  0  0
  -16.7331  -28.6521   23.0586 C   0  0  0  0  0  0  0  0  0125  0  0
  -26.4583  -31.6439   25.0683 C   0  0  0  0  0  0  0  0  0126  0  0
  -25.3807  -31.3179   26.1374 C   0  0  0  0  0  0  0  0  0127  0  0
  -27.0530  -30.3024   24.5680 C   0  0  0  0  0  0  0  0  0128  0  0
  -27.6014  -32.4281   25.7651 C   0  0  0  0  0  0  0  0  0129  0  0
  -27.5629  -37.2220   24.8621 C   0  0  0  0  0  0  0  0  0130  0  0
  -21.4133  -29.3375   22.3735 N   0  0  0  0  0  0  0  0  0131  0  0
  -26.4706  -37.3372   23.9061 N   0  0  0  0  0  0  0  0  0132  0  0
  -24.6674  -31.0544   22.1178 N   0  0  0  0  0  0  0  0  0133  0  0
  -23.4259  -28.8150   23.2971 O   0  0  0  0  0  0  0  0  0134  0  0
  -28.3948  -26.7345   20.0089 O   0  0  0  0  0  0  0  0  0135  0  0
  -26.5870  -34.9065   22.4671 O   0  0  0  0  0  0  0  0  0136  0  0
  -23.5365  -32.1254   23.7833 O   0  0  0  0  0  0  0  0  0137  0  0
  -33.3390  -18.8266   22.2790 C   0  0  0  0  0  0  0  0  0  0  0  0
  -33.4333  -20.8691   20.3811 C   0  0  0  0  0  0  0  0  0  0  0  0
  -32.1667  -19.2540   21.6556 C   0  0  0  0  0  0  0  0  0  0  0  0
  -34.5585  -19.4205   21.9535 C   0  0  0  0  0  0  0  0  0  0  0  0
  -32.2139  -20.2752   20.7066 C   0  0  0  0  0  0  0  0  0  0  0  0
  -34.6056  -20.4417   21.0045 C   0  0  0  0  0  0  0  0  0  0  0  0
  -29.3778  -16.6867   21.0457 C   0  0  0  0  0  0  0  0  0  0  0  0
  -31.3023  -16.1134   22.6332 C   0  0  0  0  0  0  0  0  0  0  0  0
  -30.2341  -17.9207   20.7590 C   0  0  0  0  0  0  0  0  0  0  0  0
  -30.9521  -17.4980   23.1746 C   0  0  0  0  0  0  0  0  0  0  0  0
  -30.1868  -15.5769   21.7289 C   0  0  2  0  0  0  0  0  0  0  0  0
  -30.8371  -18.5697   22.0448 C   0  0  1  0  0  0  0  0  0  0  0  0
  -29.8701  -19.6561   22.5833 C   0  0  0  0  0  0  0  0  0  0  0  0
  -30.4637  -20.3872   23.7878 C   0  0  0  0  0  0  0  0  0  0  0  0
  -29.5219  -21.4854   24.2900 C   0  0  0  0  0  0  0  0  0  0  0  0
  -30.0775  -22.2072   25.5116 C   0  0  0  0  0  0  0  0  0  1  0  0
  -35.9761  -18.8467   22.7600 Cl  0  0  0  0  0  0  0  0  0  0  0  0
  -30.7839  -20.8290   19.9143 Cl  0  0  0  0  0  0  0  0  0  0  0  0
  -36.0853  -21.2180   20.5605 Cl  0  0  0  0  0  0  0  0  0  0  0  0
  -31.4485  -12.4701   19.0860 H   0  0  0  0  0  0  0  0  0  0  0  0
  -30.3970  -11.2460   19.6950 H   0  0  0  0  0  0  0  0  0  0  0  0
  -29.6870  -11.8204   17.4226 H   0  0  0  0  0  0  0  0  0  0  0  0
  -29.6375  -13.5326   17.8649 H   0  0  0  0  0  0  0  0  0  0  0  0
  -27.7830  -11.3650   18.7904 H   0  0  0  0  0  0  0  0  0  0  0  0
  -27.4028  -12.7801   17.8021 H   0  0  0  0  0  0  0  0  0  0  0  0
  -27.7353  -14.2503   19.6136 H   0  0  0  0  0  0  0  0  0  0  0  0
  -28.5890  -11.9550   21.3832 H   0  0  0  0  0  0  0  0  0  0  0  0
  -28.5005  -13.6134   21.8562 H   0  0  0  0  0  0  0  0  0  0  0  0
  -25.2399   -9.5495   22.4318 H   0  0  0  0  0  0  0  0  0  0  0  0
  -23.9663   -7.5070   22.7297 H   0  0  0  0  0  0  0  0  0  0  0  0
  -21.1515   -8.8641   19.9162 H   0  0  0  0  0  0  0  0  0  0  0  0
  -22.4016  -10.9115   19.6476 H   0  0  0  0  0  0  0  0  0  0  0  0
  -21.2319   -7.5552   23.9750 H   0  0  0  0  0  0  0  0  0  0  0  0
  -21.1589   -6.0228   25.8556 H   0  0  0  0  0  0  0  0  0  0  0  0
  -22.0396   -2.8212   23.2809 H   0  0  0  0  0  0  0  0  0  0  0  0
  -22.4401  -11.9703   22.4008 H   0  0  0  0  0  0  0  0  0  0  0  0
  -21.1493  -13.0679   22.2082 H   0  0  0  0  0  0  0  0  0  0  0  0
  -24.6538  -15.7807   20.5848 H   0  0  0  0  0  0  0  0  0  0  0  0
  -26.2762  -15.5453   20.1156 H   0  0  0  0  0  0  0  0  0  0  0  0
  -26.6778  -32.4663   23.1464 H   0  0  0  0  0  0  0  0  0  0  0  0
  -25.0747  -34.0282   25.0566 H   0  0  0  0  0  0  0  0  0  0  0  0
  -22.7881  -31.3489   21.4131 H   0  0  0  0  0  0  0  0  0  0  0  0
  -23.3854  -35.9823   23.3648 H   0  0  0  0  0  0  0  0  0  0  0  0
  -24.3696  -36.8624   22.2204 H   0  0  0  0  0  0  0  0  0  0  0  0
  -23.7669  -37.6632   23.6516 H   0  0  0  0  0  0  0  0  0  0  0  0
  -25.9445  -31.6237   20.5691 H   0  0  0  0  0  0  0  0  0  0  0  0
  -26.7436  -31.0079   22.0108 H   0  0  0  0  0  0  0  0  0  0  0  0
  -28.0090  -29.1452   21.2057 H   0  0  0  0  0  0  0  0  0  0  0  0
  -26.1369  -26.0560   19.0719 H   0  0  0  0  0  0  0  0  0  0  0  0
  -24.0652  -27.2961   19.0997 H   0  0  0  0  0  0  0  0  0  0  0  0
  -23.6156  -30.5365   19.3930 H   0  0  0  0  0  0  0  0  0  0  0  0
  -22.7355  -29.1425   19.9945 H   0  0  0  0  0  0  0  0  0  0  0  0
  -25.1353  -36.2335   25.0565 H   0  0  0  0  0  0  0  0  0  0  0  0
  -21.0070  -28.3206   24.0793 H   0  0  0  0  0  0  0  0  0  0  0  0
  -20.5555  -26.2518   23.3550 H   0  0  0  0  0  0  0  0  0  0  0  0
  -21.5974  -26.8362   22.0454 H   0  0  0  0  0  0  0  0  0  0  0  0
  -19.6810  -25.6422   21.1488 H   0  0  0  0  0  0  0  0  0  0  0  0
  -19.6406  -27.3343   20.7034 H   0  0  0  0  0  0  0  0  0  0  0  0
  -17.4282  -26.6888   21.4113 H   0  0  0  0  0  0  0  0  0  0  0  0
  -18.0803  -26.0130   22.9049 H   0  0  0  0  0  0  0  0  0  0  0  0
  -19.7265  -30.6774   24.2204 H   0  0  0  0  0  0  0  0  0  0  0  0
  -17.5064  -31.5856   24.4483 H   0  0  0  0  0  0  0  0  0  0  0  0
  -15.5878  -30.2839   23.7407 H   0  0  0  0  0  0  0  0  0  0  0  0
  -15.9120  -28.0941   22.7766 H   0  0  0  0  0  0  0  0  0  0  0  0
  -24.5787  -30.7757   25.6817 H   0  0  0  0  0  0  0  0  0  0  0  0
  -25.0041  -32.2289   26.5536 H   0  0  0  0  0  0  0  0  0  0  0  0
  -25.8166  -30.7245   26.9138 H   0  0  0  0  0  0  0  0  0  0  0  0
  -26.2892  -29.7335   24.0803 H   0  0  0  0  0  0  0  0  0  0  0  0
  -27.4336  -29.7484   25.4006 H   0  0  0  0  0  0  0  0  0  0  0  0
  -27.8466  -30.4994   23.8779 H   0  0  0  0  0  0  0  0  0  0  0  0
  -27.2251  -33.3632   26.1242 H   0  0  0  0  0  0  0  0  0  0  0  0
  -28.3902  -32.6065   25.0645 H   0  0  0  0  0  0  0  0  0  0  0  0
  -27.9772  -31.8555   26.5872 H   0  0  0  0  0  0  0  0  0  0  0  0
  -28.2744  -38.0016   24.6863 H   0  0  0  0  0  0  0  0  0  0  0  0
  -28.0396  -36.2711   24.7461 H   0  0  0  0  0  0  0  0  0  0  0  0
  -27.1773  -37.3087   25.8564 H   0  0  0  0  0  0  0  0  0  0  0  0
  -20.9627  -29.9365   21.7352 H   0  0  0  0  0  0  0  0  0  0  0  0
  -26.0447  -38.2561   24.0273 H   0  0  0  0  0  0  0  0  0  0  0  0
  -33.3041  -18.0710   22.9810 H   0  0  0  0  0  0  0  0  0  0  0  0
  -33.4681  -21.6247   19.6791 H   0  0  0  0  0  0  0  0  0  0  0  0
  -28.9890  -16.3128   20.1216 H   0  0  0  0  0  0  0  0  0  0  0  0
  -28.5879  -16.9768   21.7066 H   0  0  0  0  0  0  0  0  0  0  0  0
  -31.4401  -15.4415   23.4544 H   0  0  0  0  0  0  0  0  0  0  0  0
  -32.2002  -16.1908   22.0563 H   0  0  0  0  0  0  0  0  0  0  0  0
  -29.6251  -18.6488   20.2653 H   0  0  0  0  0  0  0  0  0  0  0  0
  -31.0551  -17.6012   20.1518 H   0  0  0  0  0  0  0  0  0  0  0  0
  -31.7159  -17.8020   23.8596 H   0  0  0  0  0  0  0  0  0  0  0  0
  -29.9985  -17.4279   23.6548 H   0  0  0  0  0  0  0  0  0  0  0  0
  -29.4731  -15.0916   22.3613 H   0  0  0  0  0  0  0  0  0  0  0  0
  -28.9526  -19.1903   22.8768 H   0  0  0  0  0  0  0  0  0  0  0  0
  -29.7023  -20.3715   21.8056 H   0  0  0  0  0  0  0  0  0  0  0  0
  -31.3951  -20.8300   23.5027 H   0  0  0  0  0  0  0  0  0  0  0  0
  -30.6078  -19.6785   24.5764 H   0  0  0  0  0  0  0  0  0  0  0  0
  -28.5832  -21.0421   24.5492 H   0  0  0  0  0  0  0  0  0  0  0  0
  -29.4099  -22.2053   23.5063 H   0  0  0  0  0  0  0  0  0  0  0  0
  -31.1068  -22.0683   25.7687 H   0  0  0  0  0  0  0  0  0  0  0  0
  -29.7891  -22.1955   26.5419 H   0  0  0  0  0  0  0  0  0  0  0  0
  1 25  1  0
  1 30  2  0
  2  3  1  0
  2 25  1  0
  2 90  1  0
  2 91  1  0
  3  4  1  0
  3 92  1  0
  3 93  1  0
  4  5  1  0
  4 94  1  0
  4 95  1  0
  5  6  1  0
  5 26  1  0
  5 96  1  6
  6 25  1  0
  6 97  1  0
  6 98  1  0
  7  8  2  0
  7 26  1  0
  7 29  1  0
  8  9  1  0
  8 22  1  0
  9 10  1  0
  9 27  2  0
 10 11  2  0
 10 15  1  0
 11 12  1  0
 11 99  1  0
 12 13  2  0
 12100  1  0
 13 14  1  0
 13 31  1  0
 14 15  2  0
 14101  1  0
 15102  1  0
 16 17  2  0
 16 21  1  0
 16 31  1  0
 17 18  1  0
 17103  1  0
 18 19  2  0
 18104  1  0
 19 20  1  0
 19 24  1  0
 20 21  2  0
 20105  1  0
 21 23  1  0
 22 28  1  0
 22 32  2  0
 26 27  1  0
 28106  1  0
 28107  1  0
 29108  1  0
 29109  1  0
 33 34  1  0
 33 66  1  0
 33 70  2  0
 34 36  1  0
 34 59  1  0
 34110  1  6
 35 44  2  0
 35 45  1  0
 35 68  1  0
 36 56  1  0
 36111  1  0
 37 39  1  0
 37 47  1  0
 37 66  1  0
 37112  1  6
 38 43  2  0
 38 46  1  0
 38 47  1  0
 39 64  1  0
 39 67  2  0
 40 52  1  0
 40 53  2  0
 40 58  1  0
 41113  1  0
 41114  1  0
 41115  1  0
 42 43  1  0
 42 66  1  0
 42116  1  0
 42117  1  0
 43 44  1  0
 44118  1  0
 45 46  2  0
 45119  1  0
 46120  1  0
 47121  1  0
 47122  1  0
 48 41  1  0
 48 56  1  0
 48 65  1  0
 48123  1  1
 49 50  1  0
 49 53  1  0
 49 64  1  0
 49124  1  1
 50 51  1  0
 50125  1  0
 50126  1  0
 51 52  1  0
 51127  1  0
 51128  1  0
 52129  1  0
 52130  1  0
 53 54  1  0
 54 55  2  0
 54131  1  0
 55 57  1  0
 55132  1  0
 56 69  2  0
 57 58  2  0
 57133  1  0
 58134  1  0
 59 60  1  0
 59 61  1  0
 59 62  1  0
 60135  1  0
 60136  1  0
 60137  1  0
 61138  1  0
 61139  1  0
 61140  1  0
 62141  1  0
 62142  1  0
 62143  1  0
 63 65  1  0
 63144  1  0
 63145  1  0
 63146  1  0
 64147  1  0
 65148  1  0
 68 86  1  0
 71 73  2  0
 71 74  1  0
 71149  1  0
 72 75  2  0
 72 76  1  0
 72150  1  0
 73 75  1  0
 73 82  1  0
 74 76  2  0
 74 87  1  0
 75 88  1  0
 76 89  1  0
 77 79  1  0
 77 81  1  0
 77151  1  0
 77152  1  0
 78 80  1  0
 78 81  1  0
 78153  1  0
 78154  1  0
 79 82  1  0
 79155  1  0
 79156  1  0
 80 82  1  0
 80157  1  0
 80158  1  0
 81  1  1  0
 81159  1  1
 82 83  1  1
 83 84  1  0
 83160  1  0
 83161  1  0
 84 85  1  0
 84162  1  0
 84163  1  0
 85 86  1  0
 85164  1  0
 85165  1  0
 86166  1  0
 86167  1  0
M  ISO  4   1 100  68 101  81 100  86 101
M  END
$$$$
36
     RDKit          3D

168176  0  0  0  0  0  0  0  0999 V2000
  -30.7652  -14.3608   20.6636 C   0  0  0  0  0  0  0  0  0100  0  0
  -30.4392  -12.2669   19.3775 C   0  0  0  0  0  0  0  0  0101  0  0
  -29.4791  -12.5281   18.1977 C   0  0  0  0  0  0  0  0  0102  0  0
  -27.9985  -12.3963   18.6038 C   0  0  0  0  0  0  0  0  0103  0  0
  -27.6639  -13.2170   19.8820 C   0  0  2  0  0  0  0  0  0104  0  0
  -28.6795  -12.9602   21.0279 C   0  0  0  0  0  0  0  0  0105  0  0
  -25.2633  -13.8245   20.5754 C   0  0  0  0  0  0  0  0  0106  0  0
  -24.1645  -13.0409   20.9408 C   0  0  0  0  0  0  0  0  0107  0  0
  -24.6400  -11.7009   20.8697 C   0  0  0  0  0  0  0  0  0108  0  0
  -23.9005  -10.4085   21.0420 C   0  0  0  0  0  0  0  0  0109  0  0
  -24.3588   -9.4123   21.9123 C   0  0  0  0  0  0  0  0  0110  0  0
  -23.6296   -8.2350   22.0803 C   0  0  0  0  0  0  0  0  0111  0  0
  -22.4385   -8.0419   21.3657 C   0  0  0  0  0  0  0  0  0112  0  0
  -22.0103   -9.0167   20.4678 C   0  0  0  0  0  0  0  0  0113  0  0
  -22.7317  -10.1925   20.3102 C   0  0  0  0  0  0  0  0  0114  0  0
  -21.6857   -6.0709   22.5391 C   0  0  0  0  0  0  0  0  0115  0  0
  -21.4064   -6.5490   23.8264 C   0  0  0  0  0  0  0  0  0116  0  0
  -21.3635   -5.6677   24.9085 C   0  0  0  0  0  0  0  0  0117  0  0
  -21.5973   -4.3067   24.7088 C   0  0  0  0  0  0  0  0  0118  0  0
  -21.8700   -3.8284   23.4282 C   0  0  0  0  0  0  0  0  0119  0  0
  -21.9144   -4.7056   22.3460 C   0  0  0  0  0  0  0  0  0120  0  0
  -22.8194  -13.5263   21.1763 C   0  0  0  0  0  0  0  0  0121  0  0
  -22.1559   -4.2206   21.1063 F   0  0  0  0  0  0  0  0  0122  0  0
  -21.5628   -3.4510   25.7555 F   0  0  0  0  0  0  0  0  0123  0  0
  -30.0261  -13.1803   20.4553 N   0  0  0  0  0  0  0  0  0124  0  0
  -26.2911  -12.9356   20.3443 N   0  0  0  0  0  0  0  0  0125  0  0
  -25.9236  -11.6675   20.5847 N   0  0  0  0  0  0  0  0  0126  0  0
  -22.0708  -12.7905   22.0005 N   0  0  0  0  0  0  0  0  0127  0  0
  -25.4117  -15.1773   20.4097 N   0  0  0  0  0  0  0  0  0128  0  0
  -31.7916  -14.6724   20.0536 O   0  0  0  0  0  0  0  0  0129  0  0
  -21.6670   -6.9022   21.4423 O   0  0  0  0  0  0  0  0  0130  0  0
  -22.3946  -14.5564   20.6568 O   0  0  0  0  0  0  0  0  0131  0  0
  -24.6048  -31.8614   23.2223 C   0  0  0  0  0  0  0  0  0100  0  0
  -25.8822  -32.4841   23.8616 C   0  0  1  0  0  0  0  0  0101  0  0
  -27.2536  -27.5042   20.1156 C   0  0  0  0  0  0  0  0  0102  0  0
  -25.5726  -33.8762   24.2210 N   0  0  0  0  0  0  0  0  0103  0  0
  -23.4066  -30.4859   21.5461 C   0  0  2  0  0  0  0  0  0104  0  0
  -24.8467  -28.9636   20.1247 C   0  0  0  0  0  0  0  0  0105  0  0
  -22.7412  -29.4652   22.5052 C   0  0  0  0  0  0  0  0  0106  0  0
  -18.0167  -28.1302   22.8626 C   0  0  0  0  0  0  0  0  0107  0  0
  -24.1342  -36.7390   23.2568 C   0  0  0  0  0  0  0  0  0108  0  0
  -25.9141  -30.8882   21.3456 C   0  0  0  0  0  0  0  0  0109  0  0
  -25.9930  -29.5029   20.7208 C   0  0  0  0  0  0  0  0  0110  0  0
  -27.1758  -28.7612   20.7331 C   0  0  0  0  0  0  0  0  0111  0  0
  -26.1032  -26.9836   19.5230 C   0  0  0  0  0  0  0  0  0112  0  0
  -24.9097  -27.7011   19.5331 C   0  0  0  0  0  0  0  0  0113  0  0
  -23.5715  -29.7899   20.1582 C   0  0  0  0  0  0  0  0  0114  0  0
  -25.3990  -36.3212   24.0232 C   0  0  1  0  0  0  0  0  0115  0  0
  -20.5793  -28.3813   23.1004 C   0  0  2  0  0  0  0  0  0116  0  0
  -20.6548  -26.9392   22.5411 C   0  0  0  0  0  0  0  0  0117  0  0
  -19.5615  -26.6407   21.5143 C   0  0  0  0  0  0  0  0  0118  0  0
  -18.1797  -26.7818   22.1673 C   0  0  0  0  0  0  0  0  0119  0  0
  -19.1385  -28.8769   23.2988 C   0  0  0  0  0  0  0  0  0120  0  0
  -18.9183  -30.1286   23.8878 C   0  0  0  0  0  0  0  0  0121  0  0
  -17.6396  -30.6493   24.0352 C   0  0  0  0  0  0  0  0  0122  0  0
  -25.9153  -34.9582   23.4993 C   0  0  0  0  0  0  0  0  0123  0  0
  -16.5415  -29.9068   23.6254 C   0  0  0  0  0  0  0  0  0124  0  0
  -16.7331  -28.6521   23.0586 C   0  0  0  0  0  0  0  0  0125  0  0
  -26.4583  -31.6439   25.0683 C   0  0  0  0  0  0  0  0  0126  0  0
  -25.3807  -31.3179   26.1374 C   0  0  0  0  0  0  0  0  0127  0  0
  -27.0530  -30.3024   24.5680 C   0  0  0  0  0  0  0  0  0128  0  0
  -27.6014  -32.4281   25.7651 C   0  0  0  0  0  0  0  0  0129  0  0
  -27.5629  -37.2220   24.8621 C   0  0  0  0  0  0  0  0  0130  0  0
  -21.4133  -29.3375   22.3735 N   0  0  0  0  0  0  0  0  0131  0  0
  -26.4706  -37.3372   23.9061 N   0  0  0  0  0  0  0  0  0132  0  0
  -24.6674  -31.0544   22.1178 N   0  0  0  0  0  0  0  0  0133  0  0
  -23.4259  -28.8150   23.2971 O   0  0  0  0  0  0  0  0  0134  0  0
  -28.3948  -26.7345   20.0089 O   0  0  0  0  0  0  0  0  0135  0  0
  -26.5870  -34.9065   22.4671 O   0  0  0  0  0  0  0  0  0136  0  0
  -23.5365  -32.1254   23.7833 O   0  0  0  0  0  0  0  0  0137  0  0
  -16.8403  -23.9062   21.9465 C   0  0  0  0  0  0  0  0  0  0  0  0
  -18.0600  -23.3888   22.3826 C   0  0  0  0  0  0  0  0  0  0  0  0
  -19.2546  -23.8843   21.8601 C   0  0  0  0  0  0  0  0  0  0  0  0
  -19.2295  -24.8972   20.9015 C   0  0  0  0  0  0  0  0  0  0  0  0
  -18.0098  -25.4147   20.4653 C   0  0  0  0  0  0  0  0  0  0  0  0
  -16.8152  -24.9191   20.9878 C   0  0  0  0  0  0  0  0  0  0  0  0
  -20.5612  -23.3270   22.3299 C   0  0  0  0  0  0  0  0  0  0  0  0
  -17.9977  -26.5020   19.4356 C   0  0  0  0  0  0  0  0  0  0  0  0
  -18.0595  -22.3045   23.4100 C   0  0  0  0  0  0  0  0  0  0  0  0
  -20.5156  -25.4293   20.3409 C   0  0  0  0  0  0  0  0  0  1  0  0
  -17.6690  -18.0930   22.2002 C   0  0  0  0  0  0  0  0  0  0  0  0
  -18.7407  -18.5382   23.2023 C   0  0  0  0  0  0  0  0  0  0  0  0
  -17.9622  -16.7188   21.6051 C   0  0  0  0  0  0  0  0  0  0  0  0
  -18.4314  -19.8765   23.8629 C   0  0  0  0  0  0  0  0  0  0  0  0
  -19.2097  -16.6896   20.8745 N   0  0  0  0  0  0  0  0  0  0  0  0
  -18.3705  -20.9617   22.8489 N   0  0  0  0  0  0  0  0  0  0  0  0
  -15.2848  -25.5330   20.4753 Cl  0  0  0  0  0  0  0  0  0  0  0  0
  -31.4485  -12.4701   19.0860 H   0  0  0  0  0  0  0  0  0  0  0  0
  -30.3970  -11.2460   19.6950 H   0  0  0  0  0  0  0  0  0  0  0  0
  -29.6870  -11.8204   17.4226 H   0  0  0  0  0  0  0  0  0  0  0  0
  -29.6375  -13.5326   17.8649 H   0  0  0  0  0  0  0  0  0  0  0  0
  -27.7830  -11.3650   18.7904 H   0  0  0  0  0  0  0  0  0  0  0  0
  -27.4028  -12.7801   17.8021 H   0  0  0  0  0  0  0  0  0  0  0  0
  -27.7353  -14.2503   19.6136 H   0  0  0  0  0  0  0  0  0  0  0  0
  -28.5890  -11.9550   21.3832 H   0  0  0  0  0  0  0  0  0  0  0  0
  -28.5005  -13.6134   21.8562 H   0  0  0  0  0  0  0  0  0  0  0  0
  -25.2399   -9.5495   22.4318 H   0  0  0  0  0  0  0  0  0  0  0  0
  -23.9663   -7.5070   22.7297 H   0  0  0  0  0  0  0  0  0  0  0  0
  -21.1515   -8.8641   19.9162 H   0  0  0  0  0  0  0  0  0  0  0  0
  -22.4016  -10.9115   19.6476 H   0  0  0  0  0  0  0  0  0  0  0  0
  -21.2319   -7.5552   23.9750 H   0  0  0  0  0  0  0  0  0  0  0  0
  -21.1589   -6.0228   25.8556 H   0  0  0  0  0  0  0  0  0  0  0  0
  -22.0396   -2.8212   23.2809 H   0  0  0  0  0  0  0  0  0  0  0  0
  -22.4401  -11.9703   22.4008 H   0  0  0  0  0  0  0  0  0  0  0  0
  -21.1493  -13.0679   22.2082 H   0  0  0  0  0  0  0  0  0  0  0  0
  -24.6538  -15.7807   20.5848 H   0  0  0  0  0  0  0  0  0  0  0  0
  -26.2762  -15.5453   20.1156 H   0  0  0  0  0  0  0  0  0  0  0  0
  -26.6778  -32.4663   23.1464 H   0  0  0  0  0  0  0  0  0  0  0  0
  -25.0747  -34.0282   25.0566 H   0  0  0  0  0  0  0  0  0  0  0  0
  -22.7881  -31.3489   21.4131 H   0  0  0  0  0  0  0  0  0  0  0  0
  -23.3854  -35.9823   23.3648 H   0  0  0  0  0  0  0  0  0  0  0  0
  -24.3696  -36.8624   22.2204 H   0  0  0  0  0  0  0  0  0  0  0  0
  -23.7669  -37.6632   23.6516 H   0  0  0  0  0  0  0  0  0  0  0  0
  -25.9445  -31.6237   20.5691 H   0  0  0  0  0  0  0  0  0  0  0  0
  -26.7436  -31.0079   22.0108 H   0  0  0  0  0  0  0  0  0  0  0  0
  -28.0090  -29.1452   21.2057 H   0  0  0  0  0  0  0  0  0  0  0  0
  -26.1369  -26.0560   19.0719 H   0  0  0  0  0  0  0  0  0  0  0  0
  -24.0652  -27.2961   19.0997 H   0  0  0  0  0  0  0  0  0  0  0  0
  -23.6156  -30.5365   19.3930 H   0  0  0  0  0  0  0  0  0  0  0  0
  -22.7355  -29.1425   19.9945 H   0  0  0  0  0  0  0  0  0  0  0  0
  -25.1353  -36.2335   25.0565 H   0  0  0  0  0  0  0  0  0  0  0  0
  -21.0070  -28.3206   24.0793 H   0  0  0  0  0  0  0  0  0  0  0  0
  -20.5555  -26.2518   23.3550 H   0  0  0  0  0  0  0  0  0  0  0  0
  -21.5974  -26.8362   22.0454 H   0  0  0  0  0  0  0  0  0  0  0  0
  -19.6810  -25.6422   21.1488 H   0  0  0  0  0  0  0  0  0  0  0  0
  -19.6406  -27.3343   20.7034 H   0  0  0  0  0  0  0  0  0  0  0  0
  -17.4282  -26.6888   21.4113 H   0  0  0  0  0  0  0  0  0  0  0  0
  -18.0803  -26.0130   22.9049 H   0  0  0  0  0  0  0  0  0  0  0  0
  -19.7265  -30.6774   24.2204 H   0  0  0  0  0  0  0  0  0  0  0  0
  -17.5064  -31.5856   24.4483 H   0  0  0  0  0  0  0  0  0  0  0  0
  -15.5878  -30.2839   23.7407 H   0  0  0  0  0  0  0  0  0  0  0  0
  -15.9120  -28.0941   22.7766 H   0  0  0  0  0  0  0  0  0  0  0  0
  -24.5787  -30.7757   25.6817 H   0  0  0  0  0  0  0  0  0  0  0  0
  -25.0041  -32.2289   26.5536 H   0  0  0  0  0  0  0  0  0  0  0  0
  -25.8166  -30.7245   26.9138 H   0  0  0  0  0  0  0  0  0  0  0  0
  -26.2892  -29.7335   24.0803 H   0  0  0  0  0  0  0  0  0  0  0  0
  -27.4336  -29.7484   25.4006 H   0  0  0  0  0  0  0  0  0  0  0  0
  -27.8466  -30.4994   23.8779 H   0  0  0  0  0  0  0  0  0  0  0  0
  -27.2251  -33.3632   26.1242 H   0  0  0  0  0  0  0  0  0  0  0  0
  -28.3902  -32.6065   25.0645 H   0  0  0  0  0  0  0  0  0  0  0  0
  -27.9772  -31.8555   26.5872 H   0  0  0  0  0  0  0  0  0  0  0  0
  -28.2744  -38.0016   24.6863 H   0  0  0  0  0  0  0  0  0  0  0  0
  -28.0396  -36.2711   24.7461 H   0  0  0  0  0  0  0  0  0  0  0  0
  -27.1773  -37.3087   25.8564 H   0  0  0  0  0  0  0  0  0  0  0  0
  -20.9627  -29.9365   21.7352 H   0  0  0  0  0  0  0  0  0  0  0  0
  -26.0447  -38.2561   24.0273 H   0  0  0  0  0  0  0  0  0  0  0  0
  -15.9565  -23.5396   22.3331 H   0  0  0  0  0  0  0  0  0  0  0  0
  -20.3823  -22.5652   23.0597 H   0  0  0  0  0  0  0  0  0  0  0  0
  -21.1461  -24.1092   22.7669 H   0  0  0  0  0  0  0  0  0  0  0  0
  -21.0896  -22.9080   21.4992 H   0  0  0  0  0  0  0  0  0  0  0  0
  -19.0031  -26.7446   19.1612 H   0  0  0  0  0  0  0  0  0  0  0  0
  -17.5188  -27.3697   19.8388 H   0  0  0  0  0  0  0  0  0  0  0  0
  -17.4626  -26.1686   18.5711 H   0  0  0  0  0  0  0  0  0  0  0  0
  -17.0912  -22.2670   23.8637 H   0  0  0  0  0  0  0  0  0  0  0  0
  -18.8275  -22.5380   24.1175 H   0  0  0  0  0  0  0  0  0  0  0  0
  -20.2170  -26.4558   20.2959 H   0  0  0  0  0  0  0  0  0  0  0  0
  -20.7085  -24.4447   19.9690 H   0  0  0  0  0  0  0  0  0  0  0  0
  -17.6232  -18.8085   21.4059 H   0  0  0  0  0  0  0  0  0  0  0  0
  -16.7388  -18.0289   22.7251 H   0  0  0  0  0  0  0  0  0  0  0  0
  -19.6741  -18.6223   22.6860 H   0  0  0  0  0  0  0  0  0  0  0  0
  -18.7733  -17.8023   23.9784 H   0  0  0  0  0  0  0  0  0  0  0  0
  -17.1674  -16.4562   20.9386 H   0  0  0  0  0  0  0  0  0  0  0  0
  -18.0414  -16.0229   22.4141 H   0  0  0  0  0  0  0  0  0  0  0  0
  -19.1984  -20.1028   24.5738 H   0  0  0  0  0  0  0  0  0  0  0  0
  -17.4815  -19.8079   24.3506 H   0  0  0  0  0  0  0  0  0  0  0  0
  -18.9923  -17.0179   19.9722 H   0  0  0  0  0  0  0  0  0  0  0  0
  -19.2750  -21.0126   22.3802 H   0  0  0  0  0  0  0  0  0  0  0  0
  -17.6085  -20.7262   22.2131 H   0  0  0  0  0  0  0  0  0  0  0  0
  1 25  1  0
  1 30  2  0
  1 85  1  0
  2  3  1  0
  2 25  1  0
  2 88  1  0
  2 89  1  0
  3  4  1  0
  3 90  1  0
  3 91  1  0
  4  5  1  0
  4 92  1  0
  4 93  1  0
  5  6  1  0
  5 26  1  0
  5 94  1  6
  6 25  1  0
  6 95  1  0
  6 96  1  0
  7  8  2  0
  7 26  1  0
  7 29  1  0
  8  9  1  0
  8 22  1  0
  9 10  1  0
  9 27  2  0
 10 11  2  0
 10 15  1  0
 11 12  1  0
 11 97  1  0
 12 13  2  0
 12 98  1  0
 13 14  1  0
 13 31  1  0
 14 15  2  0
 14 99  1  0
 15100  1  0
 16 17  2  0
 16 21  1  0
 16 31  1  0
 17 18  1  0
 17101  1  0
 18 19  2  0
 18102  1  0
 19 20  1  0
 19 24  1  0
 20 21  2  0
 20103  1  0
 21 23  1  0
 22 28  1  0
 22 32  2  0
 26 27  1  0
 28104  1  0
 28105  1  0
 29106  1  0
 29107  1  0
 33 34  1  0
 33 66  1  0
 33 70  2  0
 34 36  1  0
 34 59  1  0
 34108  1  6
 35 44  2  0
 35 45  1  0
 35 68  1  0
 36 56  1  0
 36109  1  0
 37 39  1  0
 37 47  1  0
 37 66  1  0
 37110  1  6
 38 43  2  0
 38 46  1  0
 38 47  1  0
 39 64  1  0
 39 67  2  0
 40 52  1  0
 40 53  2  0
 40 58  1  0
 41111  1  0
 41112  1  0
 41113  1  0
 42 43  1  0
 42 66  1  0
 42114  1  0
 42115  1  0
 43 44  1  0
 44116  1  0
 45 46  2  0
 45117  1  0
 46118  1  0
 47119  1  0
 47120  1  0
 48 41  1  0
 48 56  1  0
 48 65  1  0
 48121  1  1
 49 50  1  0
 49 53  1  0
 49 64  1  0
 49122  1  1
 50 51  1  0
 50123  1  0
 50124  1  0
 51 52  1  0
 51125  1  0
 51126  1  0
 52127  1  0
 52128  1  0
 53 54  1  0
 54 55  2  0
 54129  1  0
 55 57  1  0
 55130  1  0
 56 69  2  0
 57 58  2  0
 57131  1  0
 58132  1  0
 59 60  1  0
 59 61  1  0
 59 62  1  0
 60133  1  0
 60134  1  0
 60135  1  0
 61136  1  0
 61137  1  0
 61138  1  0
 62139  1  0
 62140  1  0
 62141  1  0
 63 65  1  0
 63142  1  0
 63143  1  0
 63144  1  0
 64145  1  0
 65146  1  0
 68 80  1  0
 71 72  2  0
 71 76  1  0
 71147  1  0
 72 73  1  0
 72 79  1  0
 73 74  2  0
 73 77  1  0
 74 75  1  0
 74 80  1  0
 75 76  2  0
 75 78  1  0
 76 87  1  0
 77148  1  0
 77149  1  0
 77150  1  0
 78151  1  0
 78152  1  0
 78153  1  0
 79 86  1  0
 79154  1  0
 79155  1  0
 80156  1  0
 80157  1  0
 81 82  1  0
 81 83  1  0
 81158  1  0
 81159  1  0
 82 84  1  0
 82160  1  0
 82161  1  0
 83 85  1  0
 83162  1  0
 83163  1  0
 84 86  1  0
 84164  1  0
 84165  1  0
 85166  1  0
 86167  1  0
 86168  1  0
M  CHG  1  86   1
M  ISO  4   1 100  68 101  80 101  85 100
M  END
$$$$
37
     RDKit          3D

153161  0  0  0  0  0  0  0  0999 V2000
  -30.7652  -14.3608   20.6636 C   0  0  0  0  0  0  0  0  0100  0  0
  -30.4392  -12.2669   19.3775 C   0  0  0  0  0  0  0  0  0101  0  0
  -29.4791  -12.5281   18.1977 C   0  0  0  0  0  0  0  0  0102  0  0
  -27.9985  -12.3963   18.6038 C   0  0  0  0  0  0  0  0  0103  0  0
  -27.6639  -13.2170   19.8820 C   0  0  2  0  0  0  0  0  0104  0  0
  -28.6795  -12.9602   21.0279 C   0  0  0  0  0  0  0  0  0105  0  0
  -25.2633  -13.8245   20.5754 C   0  0  0  0  0  0  0  0  0106  0  0
  -24.1645  -13.0409   20.9408 C   0  0  0  0  0  0  0  0  0107  0  0
  -24.6400  -11.7009   20.8697 C   0  0  0  0  0  0  0  0  0108  0  0
  -23.9005  -10.4085   21.0420 C   0  0  0  0  0  0  0  0  0109  0  0
  -24.3588   -9.4123   21.9123 C   0  0  0  0  0  0  0  0  0110  0  0
  -23.6296   -8.2350   22.0803 C   0  0  0  0  0  0  0  0  0111  0  0
  -22.4385   -8.0419   21.3657 C   0  0  0  0  0  0  0  0  0112  0  0
  -22.0103   -9.0167   20.4678 C   0  0  0  0  0  0  0  0  0113  0  0
  -22.7317  -10.1925   20.3102 C   0  0  0  0  0  0  0  0  0114  0  0
  -21.6857   -6.0709   22.5391 C   0  0  0  0  0  0  0  0  0115  0  0
  -21.4064   -6.5490   23.8264 C   0  0  0  0  0  0  0  0  0116  0  0
  -21.3635   -5.6677   24.9085 C   0  0  0  0  0  0  0  0  0117  0  0
  -21.5973   -4.3067   24.7088 C   0  0  0  0  0  0  0  0  0118  0  0
  -21.8700   -3.8284   23.4282 C   0  0  0  0  0  0  0  0  0119  0  0
  -21.9144   -4.7056   22.3460 C   0  0  0  0  0  0  0  0  0120  0  0
  -22.8194  -13.5263   21.1763 C   0  0  0  0  0  0  0  0  0121  0  0
  -22.1559   -4.2206   21.1063 F   0  0  0  0  0  0  0  0  0122  0  0
  -21.5628   -3.4510   25.7555 F   0  0  0  0  0  0  0  0  0123  0  0
  -30.0261  -13.1803   20.4553 N   0  0  0  0  0  0  0  0  0124  0  0
  -26.2911  -12.9356   20.3443 N   0  0  0  0  0  0  0  0  0125  0  0
  -25.9236  -11.6675   20.5847 N   0  0  0  0  0  0  0  0  0126  0  0
  -22.0708  -12.7905   22.0005 N   0  0  0  0  0  0  0  0  0127  0  0
  -25.4117  -15.1773   20.4097 N   0  0  0  0  0  0  0  0  0128  0  0
  -31.7916  -14.6724   20.0536 O   0  0  0  0  0  0  0  0  0129  0  0
  -21.6670   -6.9022   21.4423 O   0  0  0  0  0  0  0  0  0130  0  0
  -22.3946  -14.5564   20.6568 O   0  0  0  0  0  0  0  0  0131  0  0
  -24.6048  -31.8614   23.2223 C   0  0  0  0  0  0  0  0  0100  0  0
  -25.8822  -32.4841   23.8616 C   0  0  1  0  0  0  0  0  0101  0  0
  -27.2536  -27.5042   20.1156 C   0  0  0  0  0  0  0  0  0102  0  0
  -25.5726  -33.8762   24.2210 N   0  0  0  0  0  0  0  0  0103  0  0
  -23.4066  -30.4859   21.5461 C   0  0  2  0  0  0  0  0  0104  0  0
  -24.8467  -28.9636   20.1247 C   0  0  0  0  0  0  0  0  0105  0  0
  -22.7412  -29.4652   22.5052 C   0  0  0  0  0  0  0  0  0106  0  0
  -18.0167  -28.1302   22.8626 C   0  0  0  0  0  0  0  0  0107  0  0
  -24.1342  -36.7390   23.2568 C   0  0  0  0  0  0  0  0  0108  0  0
  -25.9141  -30.8882   21.3456 C   0  0  0  0  0  0  0  0  0109  0  0
  -25.9930  -29.5029   20.7208 C   0  0  0  0  0  0  0  0  0110  0  0
  -27.1758  -28.7612   20.7331 C   0  0  0  0  0  0  0  0  0111  0  0
  -26.1032  -26.9836   19.5230 C   0  0  0  0  0  0  0  0  0112  0  0
  -24.9097  -27.7011   19.5331 C   0  0  0  0  0  0  0  0  0113  0  0
  -23.5715  -29.7899   20.1582 C   0  0  0  0  0  0  0  0  0114  0  0
  -25.3990  -36.3212   24.0232 C   0  0  1  0  0  0  0  0  0115  0  0
  -20.5793  -28.3813   23.1004 C   0  0  2  0  0  0  0  0  0116  0  0
  -20.6548  -26.9392   22.5411 C   0  0  0  0  0  0  0  0  0117  0  0
  -19.5615  -26.6407   21.5143 C   0  0  0  0  0  0  0  0  0118  0  0
  -18.1797  -26.7818   22.1673 C   0  0  0  0  0  0  0  0  0119  0  0
  -19.1385  -28.8769   23.2988 C   0  0  0  0  0  0  0  0  0120  0  0
  -18.9183  -30.1286   23.8878 C   0  0  0  0  0  0  0  0  0121  0  0
  -17.6396  -30.6493   24.0352 C   0  0  0  0  0  0  0  0  0122  0  0
  -25.9153  -34.9582   23.4993 C   0  0  0  0  0  0  0  0  0123  0  0
  -16.5415  -29.9068   23.6254 C   0  0  0  0  0  0  0  0  0124  0  0
  -16.7331  -28.6521   23.0586 C   0  0  0  0  0  0  0  0  0125  0  0
  -26.4583  -31.6439   25.0683 C   0  0  0  0  0  0  0  0  0126  0  0
  -25.3807  -31.3179   26.1374 C   0  0  0  0  0  0  0  0  0127  0  0
  -27.0530  -30.3024   24.5680 C   0  0  0  0  0  0  0  0  0128  0  0
  -27.6014  -32.4281   25.7651 C   0  0  0  0  0  0  0  0  0129  0  0
  -27.5629  -37.2220   24.8621 C   0  0  0  0  0  0  0  0  0130  0  0
  -21.4133  -29.3375   22.3735 N   0  0  0  0  0  0  0  0  0131  0  0
  -26.4706  -37.3372   23.9061 N   0  0  0  0  0  0  0  0  0132  0  0
  -24.6674  -31.0544   22.1178 N   0  0  0  0  0  0  0  0  0133  0  0
  -23.4259  -28.8150   23.2971 O   0  0  0  0  0  0  0  0  0134  0  0
  -28.3948  -26.7345   20.0089 O   0  0  0  0  0  0  0  0  0135  0  0
  -26.5870  -34.9065   22.4671 O   0  0  0  0  0  0  0  0  0136  0  0
  -23.5365  -32.1254   23.7833 O   0  0  0  0  0  0  0  0  0137  0  0
  -29.8970  -24.8373   17.3969 C   0  0  0  0  0  0  0  0  0  0  0  0
  -30.8811  -24.1491   19.4932 C   0  0  0  0  0  0  0  0  0  0  0  0
  -30.2820  -23.8251   18.2760 C   0  0  0  0  0  0  0  0  0  0  0  0
  -30.7104  -26.4975   18.9522 C   0  0  0  0  0  0  0  0  0  0  0  0
  -30.1113  -26.1735   17.7350 C   0  0  0  0  0  0  0  0  0  0  0  0
  -31.0954  -25.4853   19.8314 C   0  0  0  0  0  0  0  0  0  0  0  0
  -31.9019  -28.6251   18.3315 C   0  0  0  0  0  0  0  0  0  0  0  0
  -30.0535  -22.3964   17.9142 C   0  0  0  0  0  0  0  0  0  0  0  0
  -29.6300  -28.7399   19.4210 C   0  0  0  0  0  0  0  0  0  1  0  0
  -30.9446  -27.9542   19.3205 C   0  0  1  0  0  0  0  0  0  0  0  0
  -28.9391  -21.8188   18.6323 N   0  0  0  0  0  0  0  0  0  0  0  0
  -29.6198  -27.3948   16.6171 Cl  0  0  0  0  0  0  0  0  0  0  0  0
  -31.8410  -25.8416   21.3478 Cl  0  0  0  0  0  0  0  0  0  0  0  0
  -31.4485  -12.4701   19.0860 H   0  0  0  0  0  0  0  0  0  0  0  0
  -30.3970  -11.2460   19.6950 H   0  0  0  0  0  0  0  0  0  0  0  0
  -29.6870  -11.8204   17.4226 H   0  0  0  0  0  0  0  0  0  0  0  0
  -29.6375  -13.5326   17.8649 H   0  0  0  0  0  0  0  0  0  0  0  0
  -27.7830  -11.3650   18.7904 H   0  0  0  0  0  0  0  0  0  0  0  0
  -27.4028  -12.7801   17.8021 H   0  0  0  0  0  0  0  0  0  0  0  0
  -27.7353  -14.2503   19.6136 H   0  0  0  0  0  0  0  0  0  0  0  0
  -28.5890  -11.9550   21.3832 H   0  0  0  0  0  0  0  0  0  0  0  0
  -28.5005  -13.6134   21.8562 H   0  0  0  0  0  0  0  0  0  0  0  0
  -25.2399   -9.5495   22.4318 H   0  0  0  0  0  0  0  0  0  0  0  0
  -23.9663   -7.5070   22.7297 H   0  0  0  0  0  0  0  0  0  0  0  0
  -21.1515   -8.8641   19.9162 H   0  0  0  0  0  0  0  0  0  0  0  0
  -22.4016  -10.9115   19.6476 H   0  0  0  0  0  0  0  0  0  0  0  0
  -21.2319   -7.5552   23.9750 H   0  0  0  0  0  0  0  0  0  0  0  0
  -21.1589   -6.0228   25.8556 H   0  0  0  0  0  0  0  0  0  0  0  0
  -22.0396   -2.8212   23.2809 H   0  0  0  0  0  0  0  0  0  0  0  0
  -22.4401  -11.9703   22.4008 H   0  0  0  0  0  0  0  0  0  0  0  0
  -21.1493  -13.0679   22.2082 H   0  0  0  0  0  0  0  0  0  0  0  0
  -24.6538  -15.7807   20.5848 H   0  0  0  0  0  0  0  0  0  0  0  0
  -26.2762  -15.5453   20.1156 H   0  0  0  0  0  0  0  0  0  0  0  0
  -26.6778  -32.4663   23.1464 H   0  0  0  0  0  0  0  0  0  0  0  0
  -25.0747  -34.0282   25.0566 H   0  0  0  0  0  0  0  0  0  0  0  0
  -22.7881  -31.3489   21.4131 H   0  0  0  0  0  0  0  0  0  0  0  0
  -23.3854  -35.9823   23.3648 H   0  0  0  0  0  0  0  0  0  0  0  0
  -24.3696  -36.8624   22.2204 H   0  0  0  0  0  0  0  0  0  0  0  0
  -23.7669  -37.6632   23.6516 H   0  0  0  0  0  0  0  0  0  0  0  0
  -25.9445  -31.6237   20.5691 H   0  0  0  0  0  0  0  0  0  0  0  0
  -26.7436  -31.0079   22.0108 H   0  0  0  0  0  0  0  0  0  0  0  0
  -28.0090  -29.1452   21.2057 H   0  0  0  0  0  0  0  0  0  0  0  0
  -26.1369  -26.0560   19.0719 H   0  0  0  0  0  0  0  0  0  0  0  0
  -24.0652  -27.2961   19.0997 H   0  0  0  0  0  0  0  0  0  0  0  0
  -23.6156  -30.5365   19.3930 H   0  0  0  0  0  0  0  0  0  0  0  0
  -22.7355  -29.1425   19.9945 H   0  0  0  0  0  0  0  0  0  0  0  0
  -25.1353  -36.2335   25.0565 H   0  0  0  0  0  0  0  0  0  0  0  0
  -21.0070  -28.3206   24.0793 H   0  0  0  0  0  0  0  0  0  0  0  0
  -20.5555  -26.2518   23.3550 H   0  0  0  0  0  0  0  0  0  0  0  0
  -21.5974  -26.8362   22.0454 H   0  0  0  0  0  0  0  0  0  0  0  0
  -19.6810  -25.6422   21.1488 H   0  0  0  0  0  0  0  0  0  0  0  0
  -19.6406  -27.3343   20.7034 H   0  0  0  0  0  0  0  0  0  0  0  0
  -17.4282  -26.6888   21.4113 H   0  0  0  0  0  0  0  0  0  0  0  0
  -18.0803  -26.0130   22.9049 H   0  0  0  0  0  0  0  0  0  0  0  0
  -19.7265  -30.6774   24.2204 H   0  0  0  0  0  0  0  0  0  0  0  0
  -17.5064  -31.5856   24.4483 H   0  0  0  0  0  0  0  0  0  0  0  0
  -15.5878  -30.2839   23.7407 H   0  0  0  0  0  0  0  0  0  0  0  0
  -15.9120  -28.0941   22.7766 H   0  0  0  0  0  0  0  0  0  0  0  0
  -24.5787  -30.7757   25.6817 H   0  0  0  0  0  0  0  0  0  0  0  0
  -25.0041  -32.2289   26.5536 H   0  0  0  0  0  0  0  0  0  0  0  0
  -25.8166  -30.7245   26.9138 H   0  0  0  0  0  0  0  0  0  0  0  0
  -26.2892  -29.7335   24.0803 H   0  0  0  0  0  0  0  0  0  0  0  0
  -27.4336  -29.7484   25.4006 H   0  0  0  0  0  0  0  0  0  0  0  0
  -27.8466  -30.4994   23.8779 H   0  0  0  0  0  0  0  0  0  0  0  0
  -27.2251  -33.3632   26.1242 H   0  0  0  0  0  0  0  0  0  0  0  0
  -28.3902  -32.6065   25.0645 H   0  0  0  0  0  0  0  0  0  0  0  0
  -27.9772  -31.8555   26.5872 H   0  0  0  0  0  0  0  0  0  0  0  0
  -28.2744  -38.0016   24.6863 H   0  0  0  0  0  0  0  0  0  0  0  0
  -28.0396  -36.2711   24.7461 H   0  0  0  0  0  0  0  0  0  0  0  0
  -27.1773  -37.3087   25.8564 H   0  0  0  0  0  0  0  0  0  0  0  0
  -20.9627  -29.9365   21.7352 H   0  0  0  0  0  0  0  0  0  0  0  0
  -26.0447  -38.2561   24.0273 H   0  0  0  0  0  0  0  0  0  0  0  0
  -29.4536  -24.5976   16.4964 H   0  0  0  0  0  0  0  0  0  0  0  0
  -31.1658  -23.4002   20.1436 H   0  0  0  0  0  0  0  0  0  0  0  0
  -32.8103  -28.0623   18.2767 H   0  0  0  0  0  0  0  0  0  0  0  0
  -32.1178  -29.6194   18.6627 H   0  0  0  0  0  0  0  0  0  0  0  0
  -31.4466  -28.6625   17.3639 H   0  0  0  0  0  0  0  0  0  0  0  0
  -30.9370  -21.8380   18.1436 H   0  0  0  0  0  0  0  0  0  0  0  0
  -29.8254  -22.3562   16.8696 H   0  0  0  0  0  0  0  0  0  0  0  0
  -29.3202  -29.1808   18.4966 H   0  0  0  0  0  0  0  0  0  0  0  0
  -29.5761  -29.5980   20.0579 H   0  0  0  0  0  0  0  0  0  0  0  0
  -31.3985  -27.9635   20.2894 H   0  0  0  0  0  0  0  0  0  0  0  0
  -28.0914  -22.2760   18.8363 H   0  0  0  0  0  0  0  0  0  0  0  0
  1 25  1  0
  1 30  2  0
  1 81  1  0
  2  3  1  0
  2 25  1  0
  2 84  1  0
  2 85  1  0
  3  4  1  0
  3 86  1  0
  3 87  1  0
  4  5  1  0
  4 88  1  0
  4 89  1  0
  5  6  1  0
  5 26  1  0
  5 90  1  6
  6 25  1  0
  6 91  1  0
  6 92  1  0
  7  8  2  0
  7 26  1  0
  7 29  1  0
  8  9  1  0
  8 22  1  0
  9 10  1  0
  9 27  2  0
 10 11  2  0
 10 15  1  0
 11 12  1  0
 11 93  1  0
 12 13  2  0
 12 94  1  0
 13 14  1  0
 13 31  1  0
 14 15  2  0
 14 95  1  0
 15 96  1  0
 16 17  2  0
 16 21  1  0
 16 31  1  0
 17 18  1  0
 17 97  1  0
 18 19  2  0
 18 98  1  0
 19 20  1  0
 19 24  1  0
 20 21  2  0
 20 99  1  0
 21 23  1  0
 22 28  1  0
 22 32  2  0
 26 27  1  0
 28100  1  0
 28101  1  0
 29102  1  0
 29103  1  0
 33 34  1  0
 33 66  1  0
 33 70  2  0
 34 36  1  0
 34 59  1  0
 34104  1  6
 35 44  2  0
 35 45  1  0
 35 68  1  0
 36 56  1  0
 36105  1  0
 37 39  1  0
 37 47  1  0
 37 66  1  0
 37106  1  6
 38 43  2  0
 38 46  1  0
 38 47  1  0
 39 64  1  0
 39 67  2  0
 40 52  1  0
 40 53  2  0
 40 58  1  0
 41107  1  0
 41108  1  0
 41109  1  0
 42 43  1  0
 42 66  1  0
 42110  1  0
 42111  1  0
 43 44  1  0
 44112  1  0
 45 46  2  0
 45113  1  0
 46114  1  0
 47115  1  0
 47116  1  0
 48 41  1  0
 48 56  1  0
 48 65  1  0
 48117  1  1
 49 50  1  0
 49 53  1  0
 49 64  1  0
 49118  1  1
 50 51  1  0
 50119  1  0
 50120  1  0
 51 52  1  0
 51121  1  0
 51122  1  0
 52123  1  0
 52124  1  0
 53 54  1  0
 54 55  2  0
 54125  1  0
 55 57  1  0
 55126  1  0
 56 69  2  0
 57 58  2  0
 57127  1  0
 58128  1  0
 59 60  1  0
 59 61  1  0
 59 62  1  0
 60129  1  0
 60130  1  0
 60131  1  0
 61132  1  0
 61133  1  0
 61134  1  0
 62135  1  0
 62136  1  0
 62137  1  0
 63 65  1  0
 63138  1  0
 63139  1  0
 63140  1  0
 64141  1  0
 65142  1  0
 68 79  1  0
 71 73  2  0
 71 75  1  0
 71143  1  0
 72 73  1  0
 72 76  2  0
 72144  1  0
 73 78  1  0
 74 75  2  0
 74 76  1  0
 74 80  1  0
 75 82  1  0
 76 83  1  0
 77145  1  0
 77146  1  0
 77147  1  0
 78 81  1  0
 78148  1  0
 78149  1  0
 79 80  1  0
 79150  1  0
 79151  1  0
 80 77  1  0
 80152  1  1
 81153  1  0
M  ISO  4   1 100  68 101  79 101  81 100
M  END
$$$$
38
     RDKit          3D

147155  0  0  0  0  0  0  0  0999 V2000
  -30.7652  -14.3608   20.6636 C   0  0  0  0  0  0  0  0  0100  0  0
  -30.4392  -12.2669   19.3775 C   0  0  0  0  0  0  0  0  0101  0  0
  -29.4791  -12.5281   18.1977 C   0  0  0  0  0  0  0  0  0102  0  0
  -27.9985  -12.3963   18.6038 C   0  0  0  0  0  0  0  0  0103  0  0
  -27.6639  -13.2170   19.8820 C   0  0  2  0  0  0  0  0  0104  0  0
  -28.6795  -12.9602   21.0279 C   0  0  0  0  0  0  0  0  0105  0  0
  -25.2633  -13.8245   20.5754 C   0  0  0  0  0  0  0  0  0106  0  0
  -24.1645  -13.0409   20.9408 C   0  0  0  0  0  0  0  0  0107  0  0
  -24.6400  -11.7009   20.8697 C   0  0  0  0  0  0  0  0  0108  0  0
  -23.9005  -10.4085   21.0420 C   0  0  0  0  0  0  0  0  0109  0  0
  -24.3588   -9.4123   21.9123 C   0  0  0  0  0  0  0  0  0110  0  0
  -23.6296   -8.2350   22.0803 C   0  0  0  0  0  0  0  0  0111  0  0
  -22.4385   -8.0419   21.3657 C   0  0  0  0  0  0  0  0  0112  0  0
  -22.0103   -9.0167   20.4678 C   0  0  0  0  0  0  0  0  0113  0  0
  -22.7317  -10.1925   20.3102 C   0  0  0  0  0  0  0  0  0114  0  0
  -21.6857   -6.0709   22.5391 C   0  0  0  0  0  0  0  0  0115  0  0
  -21.4064   -6.5490   23.8264 C   0  0  0  0  0  0  0  0  0116  0  0
  -21.3635   -5.6677   24.9085 C   0  0  0  0  0  0  0  0  0117  0  0
  -21.5973   -4.3067   24.7088 C   0  0  0  0  0  0  0  0  0118  0  0
  -21.8700   -3.8284   23.4282 C   0  0  0  0  0  0  0  0  0119  0  0
  -21.9144   -4.7056   22.3460 C   0  0  0  0  0  0  0  0  0120  0  0
  -22.8194  -13.5263   21.1763 C   0  0  0  0  0  0  0  0  0121  0  0
  -22.1559   -4.2206   21.1063 F   0  0  0  0  0  0  0  0  0122  0  0
  -21.5628   -3.4510   25.7555 F   0  0  0  0  0  0  0  0  0123  0  0
  -30.0261  -13.1803   20.4553 N   0  0  0  0  0  0  0  0  0124  0  0
  -26.2911  -12.9356   20.3443 N   0  0  0  0  0  0  0  0  0125  0  0
  -25.9236  -11.6675   20.5847 N   0  0  0  0  0  0  0  0  0126  0  0
  -22.0708  -12.7905   22.0005 N   0  0  0  0  0  0  0  0  0127  0  0
  -25.4117  -15.1773   20.4097 N   0  0  0  0  0  0  0  0  0128  0  0
  -31.7916  -14.6724   20.0536 O   0  0  0  0  0  0  0  0  0129  0  0
  -21.6670   -6.9022   21.4423 O   0  0  0  0  0  0  0  0  0130  0  0
  -22.3946  -14.5564   20.6568 O   0  0  0  0  0  0  0  0  0131  0  0
  -24.6048  -31.8614   23.2223 C   0  0  0  0  0  0  0  0  0100  0  0
  -25.8822  -32.4841   23.8616 C   0  0  1  0  0  0  0  0  0101  0  0
  -27.2536  -27.5042   20.1156 C   0  0  0  0  0  0  0  0  0102  0  0
  -25.5726  -33.8762   24.2210 N   0  0  0  0  0  0  0  0  0103  0  0
  -23.4066  -30.4859   21.5461 C   0  0  2  0  0  0  0  0  0104  0  0
  -24.8467  -28.9636   20.1247 C   0  0  0  0  0  0  0  0  0105  0  0
  -22.7412  -29.4652   22.5052 C   0  0  0  0  0  0  0  0  0106  0  0
  -18.0167  -28.1302   22.8626 C   0  0  0  0  0  0  0  0  0107  0  0
  -24.1342  -36.7390   23.2568 C   0  0  0  0  0  0  0  0  0108  0  0
  -25.9141  -30.8882   21.3456 C   0  0  0  0  0  0  0  0  0109  0  0
  -25.9930  -29.5029   20.7208 C   0  0  0  0  0  0  0  0  0110  0  0
  -27.1758  -28.7612   20.7331 C   0  0  0  0  0  0  0  0  0111  0  0
  -26.1032  -26.9836   19.5230 C   0  0  0  0  0  0  0  0  0112  0  0
  -24.9097  -27.7011   19.5331 C   0  0  0  0  0  0  0  0  0113  0  0
  -23.5715  -29.7899   20.1582 C   0  0  0  0  0  0  0  0  0114  0  0
  -25.3990  -36.3212   24.0232 C   0  0  1  0  0  0  0  0  0115  0  0
  -20.5793  -28.3813   23.1004 C   0  0  2  0  0  0  0  0  0116  0  0
  -20.6548  -26.9392   22.5411 C   0  0  0  0  0  0  0  0  0117  0  0
  -19.5615  -26.6407   21.5143 C   0  0  0  0  0  0  0  0  0118  0  0
  -18.1797  -26.7818   22.1673 C   0  0  0  0  0  0  0  0  0119  0  0
  -19.1385  -28.8769   23.2988 C   0  0  0  0  0  0  0  0  0120  0  0
  -18.9183  -30.1286   23.8878 C   0  0  0  0  0  0  0  0  0121  0  0
  -17.6396  -30.6493   24.0352 C   0  0  0  0  0  0  0  0  0122  0  0
  -25.9153  -34.9582   23.4993 C   0  0  0  0  0  0  0  0  0123  0  0
  -16.5415  -29.9068   23.6254 C   0  0  0  0  0  0  0  0  0124  0  0
  -16.7331  -28.6521   23.0586 C   0  0  0  0  0  0  0  0  0125  0  0
  -26.4583  -31.6439   25.0683 C   0  0  0  0  0  0  0  0  0126  0  0
  -25.3807  -31.3179   26.1374 C   0  0  0  0  0  0  0  0  0127  0  0
  -27.0530  -30.3024   24.5680 C   0  0  0  0  0  0  0  0  0128  0  0
  -27.6014  -32.4281   25.7651 C   0  0  0  0  0  0  0  0  0129  0  0
  -27.5629  -37.2220   24.8621 C   0  0  0  0  0  0  0  0  0130  0  0
  -21.4133  -29.3375   22.3735 N   0  0  0  0  0  0  0  0  0131  0  0
  -26.4706  -37.3372   23.9061 N   0  0  0  0  0  0  0  0  0132  0  0
  -24.6674  -31.0544   22.1178 N   0  0  0  0  0  0  0  0  0133  0  0
  -23.4259  -28.8150   23.2971 O   0  0  0  0  0  0  0  0  0134  0  0
  -28.3948  -26.7345   20.0089 O   0  0  0  0  0  0  0  0  0135  0  0
  -26.5870  -34.9065   22.4671 O   0  0  0  0  0  0  0  0  0136  0  0
  -23.5365  -32.1254   23.7833 O   0  0  0  0  0  0  0  0  0137  0  0
  -28.2563  -19.6896   21.3692 C   0  0  0  0  0  0  0  0  0  0  0  0
  -27.4463  -19.5383   24.0345 C   0  0  0  0  0  0  0  0  0  0  0  0
  -28.8675  -18.7811   22.2334 C   0  0  0  0  0  0  0  0  0  0  0  0
  -26.8351  -20.4468   23.1704 C   0  0  0  0  0  0  0  0  0  0  0  0
  -28.4625  -18.7055   23.5660 C   0  0  0  0  0  0  0  0  0  0  0  0
  -27.2401  -20.5224   21.8378 C   0  0  0  0  0  0  0  0  0  0  0  0
  -29.9518  -17.9065   21.6919 C   0  0  0  0  0  0  0  0  0  0  0  0
  -25.7466  -21.3256   23.7127 C   0  0  0  0  0  0  0  0  0  1  0  0
  -29.5030  -16.5490   21.4762 N   0  0  0  0  0  0  0  0  0  0  0  0
  -29.1951  -17.5927   24.6633 Cl  0  0  0  0  0  0  0  0  0  0  0  0
  -26.5068  -21.6343   20.7397 Cl  0  0  0  0  0  0  0  0  0  0  0  0
  -31.4485  -12.4701   19.0860 H   0  0  0  0  0  0  0  0  0  0  0  0
  -30.3970  -11.2460   19.6950 H   0  0  0  0  0  0  0  0  0  0  0  0
  -29.6870  -11.8204   17.4226 H   0  0  0  0  0  0  0  0  0  0  0  0
  -29.6375  -13.5326   17.8649 H   0  0  0  0  0  0  0  0  0  0  0  0
  -27.7830  -11.3650   18.7904 H   0  0  0  0  0  0  0  0  0  0  0  0
  -27.4028  -12.7801   17.8021 H   0  0  0  0  0  0  0  0  0  0  0  0
  -27.7353  -14.2503   19.6136 H   0  0  0  0  0  0  0  0  0  0  0  0
  -28.5890  -11.9550   21.3832 H   0  0  0  0  0  0  0  0  0  0  0  0
  -28.5005  -13.6134   21.8562 H   0  0  0  0  0  0  0  0  0  0  0  0
  -25.2399   -9.5495   22.4318 H   0  0  0  0  0  0  0  0  0  0  0  0
  -23.9663   -7.5070   22.7297 H   0  0  0  0  0  0  0  0  0  0  0  0
  -21.1515   -8.8641   19.9162 H   0  0  0  0  0  0  0  0  0  0  0  0
  -22.4016  -10.9115   19.6476 H   0  0  0  0  0  0  0  0  0  0  0  0
  -21.2319   -7.5552   23.9750 H   0  0  0  0  0  0  0  0  0  0  0  0
  -21.1589   -6.0228   25.8556 H   0  0  0  0  0  0  0  0  0  0  0  0
  -22.0396   -2.8212   23.2809 H   0  0  0  0  0  0  0  0  0  0  0  0
  -22.4401  -11.9703   22.4008 H   0  0  0  0  0  0  0  0  0  0  0  0
  -21.1493  -13.0679   22.2082 H   0  0  0  0  0  0  0  0  0  0  0  0
  -24.6538  -15.7807   20.5848 H   0  0  0  0  0  0  0  0  0  0  0  0
  -26.2762  -15.5453   20.1156 H   0  0  0  0  0  0  0  0  0  0  0  0
  -26.6778  -32.4663   23.1464 H   0  0  0  0  0  0  0  0  0  0  0  0
  -25.0747  -34.0282   25.0566 H   0  0  0  0  0  0  0  0  0  0  0  0
  -22.7881  -31.3489   21.4131 H   0  0  0  0  0  0  0  0  0  0  0  0
  -23.3854  -35.9823   23.3648 H   0  0  0  0  0  0  0  0  0  0  0  0
  -24.3696  -36.8624   22.2204 H   0  0  0  0  0  0  0  0  0  0  0  0
  -23.7669  -37.6632   23.6516 H   0  0  0  0  0  0  0  0  0  0  0  0
  -25.9445  -31.6237   20.5691 H   0  0  0  0  0  0  0  0  0  0  0  0
  -26.7436  -31.0079   22.0108 H   0  0  0  0  0  0  0  0  0  0  0  0
  -28.0090  -29.1452   21.2057 H   0  0  0  0  0  0  0  0  0  0  0  0
  -26.1369  -26.0560   19.0719 H   0  0  0  0  0  0  0  0  0  0  0  0
  -24.0652  -27.2961   19.0997 H   0  0  0  0  0  0  0  0  0  0  0  0
  -23.6156  -30.5365   19.3930 H   0  0  0  0  0  0  0  0  0  0  0  0
  -22.7355  -29.1425   19.9945 H   0  0  0  0  0  0  0  0  0  0  0  0
  -25.1353  -36.2335   25.0565 H   0  0  0  0  0  0  0  0  0  0  0  0
  -21.0070  -28.3206   24.0793 H   0  0  0  0  0  0  0  0  0  0  0  0
  -20.5555  -26.2518   23.3550 H   0  0  0  0  0  0  0  0  0  0  0  0
  -21.5974  -26.8362   22.0454 H   0  0  0  0  0  0  0  0  0  0  0  0
  -19.6810  -25.6422   21.1488 H   0  0  0  0  0  0  0  0  0  0  0  0
  -19.6406  -27.3343   20.7034 H   0  0  0  0  0  0  0  0  0  0  0  0
  -17.4282  -26.6888   21.4113 H   0  0  0  0  0  0  0  0  0  0  0  0
  -18.0803  -26.0130   22.9049 H   0  0  0  0  0  0  0  0  0  0  0  0
  -19.7265  -30.6774   24.2204 H   0  0  0  0  0  0  0  0  0  0  0  0
  -17.5064  -31.5856   24.4483 H   0  0  0  0  0  0  0  0  0  0  0  0
  -15.5878  -30.2839   23.7407 H   0  0  0  0  0  0  0  0  0  0  0  0
  -15.9120  -28.0941   22.7766 H   0  0  0  0  0  0  0  0  0  0  0  0
  -24.5787  -30.7757   25.6817 H   0  0  0  0  0  0  0  0  0  0  0  0
  -25.0041  -32.2289   26.5536 H   0  0  0  0  0  0  0  0  0  0  0  0
  -25.8166  -30.7245   26.9138 H   0  0  0  0  0  0  0  0  0  0  0  0
  -26.2892  -29.7335   24.0803 H   0  0  0  0  0  0  0  0  0  0  0  0
  -27.4336  -29.7484   25.4006 H   0  0  0  0  0  0  0  0  0  0  0  0
  -27.8466  -30.4994   23.8779 H   0  0  0  0  0  0  0  0  0  0  0  0
  -27.2251  -33.3632   26.1242 H   0  0  0  0  0  0  0  0  0  0  0  0
  -28.3902  -32.6065   25.0645 H   0  0  0  0  0  0  0  0  0  0  0  0
  -27.9772  -31.8555   26.5872 H   0  0  0  0  0  0  0  0  0  0  0  0
  -28.2744  -38.0016   24.6863 H   0  0  0  0  0  0  0  0  0  0  0  0
  -28.0396  -36.2711   24.7461 H   0  0  0  0  0  0  0  0  0  0  0  0
  -27.1773  -37.3087   25.8564 H   0  0  0  0  0  0  0  0  0  0  0  0
  -20.9627  -29.9365   21.7352 H   0  0  0  0  0  0  0  0  0  0  0  0
  -26.0447  -38.2561   24.0273 H   0  0  0  0  0  0  0  0  0  0  0  0
  -28.5559  -19.7456   20.3832 H   0  0  0  0  0  0  0  0  0  0  0  0
  -27.1467  -19.4823   25.0205 H   0  0  0  0  0  0  0  0  0  0  0  0
  -30.7643  -17.8942   22.3880 H   0  0  0  0  0  0  0  0  0  0  0  0
  -30.2544  -18.3062   20.7466 H   0  0  0  0  0  0  0  0  0  0  0  0
  -25.7788  -21.4615   24.7735 H   0  0  0  0  0  0  0  0  0  0  0  0
  -24.7181  -21.0468   23.6161 H   0  0  0  0  0  0  0  0  0  0  0  0
  -28.5472  -16.4101   21.6672 H   0  0  0  0  0  0  0  0  0  0  0  0
  1 25  1  0
  1 30  2  0
  1 79  1  0
  2  3  1  0
  2 25  1  0
  2 82  1  0
  2 83  1  0
  3  4  1  0
  3 84  1  0
  3 85  1  0
  4  5  1  0
  4 86  1  0
  4 87  1  0
  5  6  1  0
  5 26  1  0
  5 88  1  6
  6 25  1  0
  6 89  1  0
  6 90  1  0
  7  8  2  0
  7 26  1  0
  7 29  1  0
  8  9  1  0
  8 22  1  0
  9 10  1  0
  9 27  2  0
 10 11  2  0
 10 15  1  0
 11 12  1  0
 11 91  1  0
 12 13  2  0
 12 92  1  0
 13 14  1  0
 13 31  1  0
 14 15  2  0
 14 93  1  0
 15 94  1  0
 16 17  2  0
 16 21  1  0
 16 31  1  0
 17 18  1  0
 17 95  1  0
 18 19  2  0
 18 96  1  0
 19 20  1  0
 19 24  1  0
 20 21  2  0
 20 97  1  0
 21 23  1  0
 22 28  1  0
 22 32  2  0
 26 27  1  0
 28 98  1  0
 28 99  1  0
 29100  1  0
 29101  1  0
 33 34  1  0
 33 66  1  0
 33 70  2  0
 34 36  1  0
 34 59  1  0
 34102  1  6
 35 44  2  0
 35 45  1  0
 35 68  1  0
 36 56  1  0
 36103  1  0
 37 39  1  0
 37 47  1  0
 37 66  1  0
 37104  1  6
 38 43  2  0
 38 46  1  0
 38 47  1  0
 39 64  1  0
 39 67  2  0
 40 52  1  0
 40 53  2  0
 40 58  1  0
 41105  1  0
 41106  1  0
 41107  1  0
 42 43  1  0
 42 66  1  0
 42108  1  0
 42109  1  0
 43 44  1  0
 44110  1  0
 45 46  2  0
 45111  1  0
 46112  1  0
 47113  1  0
 47114  1  0
 48 41  1  0
 48 56  1  0
 48 65  1  0
 48115  1  1
 49 50  1  0
 49 53  1  0
 49 64  1  0
 49116  1  1
 50 51  1  0
 50117  1  0
 50118  1  0
 51 52  1  0
 51119  1  0
 51120  1  0
 52121  1  0
 52122  1  0
 53 54  1  0
 54 55  2  0
 54123  1  0
 55 57  1  0
 55124  1  0
 56 69  2  0
 57 58  2  0
 57125  1  0
 58126  1  0
 59 60  1  0
 59 61  1  0
 59 62  1  0
 60127  1  0
 60128  1  0
 60129  1  0
 61130  1  0
 61131  1  0
 61132  1  0
 62133  1  0
 62134  1  0
 62135  1  0
 63 65  1  0
 63136  1  0
 63137  1  0
 63138  1  0
 64139  1  0
 65140  1  0
 68 78  1  0
 71 73  2  0
 71 76  1  0
 71141  1  0
 72 74  1  0
 72 75  2  0
 72142  1  0
 73 75  1  0
 73 77  1  0
 74 76  2  0
 74 78  1  0
 75 80  1  0
 76 81  1  0
 77 79  1  0
 77143  1  0
 77144  1  0
 78145  1  0
 78146  1  0
 79147  1  0
M  ISO  4   1 100  68 101  78 101  79 100
M  END
$$$$
39
     RDKit          3D

153161  0  0  0  0  0  0  0  0999 V2000
  -30.7652  -14.3608   20.6636 C   0  0  0  0  0  0  0  0  0100  0  0
  -30.4392  -12.2669   19.3775 C   0  0  0  0  0  0  0  0  0101  0  0
  -29.4791  -12.5281   18.1977 C   0  0  0  0  0  0  0  0  0102  0  0
  -27.9985  -12.3963   18.6038 C   0  0  0  0  0  0  0  0  0103  0  0
  -27.6639  -13.2170   19.8820 C   0  0  2  0  0  0  0  0  0104  0  0
  -28.6795  -12.9602   21.0279 C   0  0  0  0  0  0  0  0  0105  0  0
  -25.2633  -13.8245   20.5754 C   0  0  0  0  0  0  0  0  0106  0  0
  -24.1645  -13.0409   20.9408 C   0  0  0  0  0  0  0  0  0107  0  0
  -24.6400  -11.7009   20.8697 C   0  0  0  0  0  0  0  0  0108  0  0
  -23.9005  -10.4085   21.0420 C   0  0  0  0  0  0  0  0  0109  0  0
  -24.3588   -9.4123   21.9123 C   0  0  0  0  0  0  0  0  0110  0  0
  -23.6296   -8.2350   22.0803 C   0  0  0  0  0  0  0  0  0111  0  0
  -22.4385   -8.0419   21.3657 C   0  0  0  0  0  0  0  0  0112  0  0
  -22.0103   -9.0167   20.4678 C   0  0  0  0  0  0  0  0  0113  0  0
  -22.7317  -10.1925   20.3102 C   0  0  0  0  0  0  0  0  0114  0  0
  -21.6857   -6.0709   22.5391 C   0  0  0  0  0  0  0  0  0115  0  0
  -21.4064   -6.5490   23.8264 C   0  0  0  0  0  0  0  0  0116  0  0
  -21.3635   -5.6677   24.9085 C   0  0  0  0  0  0  0  0  0117  0  0
  -21.5973   -4.3067   24.7088 C   0  0  0  0  0  0  0  0  0118  0  0
  -21.8700   -3.8284   23.4282 C   0  0  0  0  0  0  0  0  0119  0  0
  -21.9144   -4.7056   22.3460 C   0  0  0  0  0  0  0  0  0120  0  0
  -22.8194  -13.5263   21.1763 C   0  0  0  0  0  0  0  0  0121  0  0
  -22.1559   -4.2206   21.1063 F   0  0  0  0  0  0  0  0  0122  0  0
  -21.5628   -3.4510   25.7555 F   0  0  0  0  0  0  0  0  0123  0  0
  -30.0261  -13.1803   20.4553 N   0  0  0  0  0  0  0  0  0124  0  0
  -26.2911  -12.9356   20.3443 N   0  0  0  0  0  0  0  0  0125  0  0
  -25.9236  -11.6675   20.5847 N   0  0  0  0  0  0  0  0  0126  0  0
  -22.0708  -12.7905   22.0005 N   0  0  0  0  0  0  0  0  0127  0  0
  -25.4117  -15.1773   20.4097 N   0  0  0  0  0  0  0  0  0128  0  0
  -31.7916  -14.6724   20.0536 O   0  0  0  0  0  0  0  0  0129  0  0
  -21.6670   -6.9022   21.4423 O   0  0  0  0  0  0  0  0  0130  0  0
  -22.3946  -14.5564   20.6568 O   0  0  0  0  0  0  0  0  0131  0  0
  -24.6048  -31.8614   23.2223 C   0  0  0  0  0  0  0  0  0100  0  0
  -25.8822  -32.4841   23.8616 C   0  0  1  0  0  0  0  0  0101  0  0
  -27.2536  -27.5042   20.1156 C   0  0  0  0  0  0  0  0  0102  0  0
  -25.5726  -33.8762   24.2210 N   0  0  0  0  0  0  0  0  0103  0  0
  -23.4066  -30.4859   21.5461 C   0  0  2  0  0  0  0  0  0104  0  0
  -24.8467  -28.9636   20.1247 C   0  0  0  0  0  0  0  0  0105  0  0
  -22.7412  -29.4652   22.5052 C   0  0  0  0  0  0  0  0  0106  0  0
  -18.0167  -28.1302   22.8626 C   0  0  0  0  0  0  0  0  0107  0  0
  -24.1342  -36.7390   23.2568 C   0  0  0  0  0  0  0  0  0108  0  0
  -25.9141  -30.8882   21.3456 C   0  0  0  0  0  0  0  0  0109  0  0
  -25.9930  -29.5029   20.7208 C   0  0  0  0  0  0  0  0  0110  0  0
  -27.1758  -28.7612   20.7331 C   0  0  0  0  0  0  0  0  0111  0  0
  -26.1032  -26.9836   19.5230 C   0  0  0  0  0  0  0  0  0112  0  0
  -24.9097  -27.7011   19.5331 C   0  0  0  0  0  0  0  0  0113  0  0
  -23.5715  -29.7899   20.1582 C   0  0  0  0  0  0  0  0  0114  0  0
  -25.3990  -36.3212   24.0232 C   0  0  1  0  0  0  0  0  0115  0  0
  -20.5793  -28.3813   23.1004 C   0  0  2  0  0  0  0  0  0116  0  0
  -20.6548  -26.9392   22.5411 C   0  0  0  0  0  0  0  0  0117  0  0
  -19.5615  -26.6407   21.5143 C   0  0  0  0  0  0  0  0  0118  0  0
  -18.1797  -26.7818   22.1673 C   0  0  0  0  0  0  0  0  0119  0  0
  -19.1385  -28.8769   23.2988 C   0  0  0  0  0  0  0  0  0120  0  0
  -18.9183  -30.1286   23.8878 C   0  0  0  0  0  0  0  0  0121  0  0
  -17.6396  -30.6493   24.0352 C   0  0  0  0  0  0  0  0  0122  0  0
  -25.9153  -34.9582   23.4993 C   0  0  0  0  0  0  0  0  0123  0  0
  -16.5415  -29.9068   23.6254 C   0  0  0  0  0  0  0  0  0124  0  0
  -16.7331  -28.6521   23.0586 C   0  0  0  0  0  0  0  0  0125  0  0
  -26.4583  -31.6439   25.0683 C   0  0  0  0  0  0  0  0  0126  0  0
  -25.3807  -31.3179   26.1374 C   0  0  0  0  0  0  0  0  0127  0  0
  -27.0530  -30.3024   24.5680 C   0  0  0  0  0  0  0  0  0128  0  0
  -27.6014  -32.4281   25.7651 C   0  0  0  0  0  0  0  0  0129  0  0
  -27.5629  -37.2220   24.8621 C   0  0  0  0  0  0  0  0  0130  0  0
  -21.4133  -29.3375   22.3735 N   0  0  0  0  0  0  0  0  0131  0  0
  -26.4706  -37.3372   23.9061 N   0  0  0  0  0  0  0  0  0132  0  0
  -24.6674  -31.0544   22.1178 N   0  0  0  0  0  0  0  0  0133  0  0
  -23.4259  -28.8150   23.2971 O   0  0  0  0  0  0  0  0  0134  0  0
  -28.3948  -26.7345   20.0089 O   0  0  0  0  0  0  0  0  0135  0  0
  -26.5870  -34.9065   22.4671 O   0  0  0  0  0  0  0  0  0136  0  0
  -23.5365  -32.1254   23.7833 O   0  0  0  0  0  0  0  0  0137  0  0
  -30.7873  -16.5688   25.1341 C   0  0  0  0  0  0  0  0  0  0  0  0
  -32.8219  -15.3341   23.6785 C   0  0  0  0  0  0  0  0  0  0  0  0
  -31.8873  -17.3115   24.7051 C   0  0  0  0  0  0  0  0  0  0  0  0
  -31.7219  -14.5915   24.1076 C   0  0  0  0  0  0  0  0  0  0  0  0
  -32.9046  -16.6942   23.9772 C   0  0  0  0  0  0  0  0  0  0  0  0
  -30.7046  -15.2088   24.8355 C   0  0  0  0  0  0  0  0  0  0  0  0
  -31.9380  -18.7788   25.0484 C   0  0  0  0  0  0  0  0  0  0  0  0
  -31.6705  -13.1366   23.7681 C   0  0  0  0  0  0  0  0  0  0  0  0
  -32.8991  -19.1110   26.1919 C   0  0  0  0  0  0  0  0  0  0  0  0
  -32.4999  -18.4773   27.5195 C   0  0  0  0  0  0  0  0  0  1  0  0
  -30.7390  -12.8574   22.6980 N   0  0  0  0  0  0  0  0  0  0  0  0
  -34.2795  -17.5818   23.4289 Cl  0  0  0  0  0  0  0  0  0  0  0  0
  -29.3288  -14.3217   25.3829 Cl  0  0  0  0  0  0  0  0  0  0  0  0
  -31.4485  -12.4701   19.0860 H   0  0  0  0  0  0  0  0  0  0  0  0
  -30.3970  -11.2460   19.6950 H   0  0  0  0  0  0  0  0  0  0  0  0
  -29.6870  -11.8204   17.4226 H   0  0  0  0  0  0  0  0  0  0  0  0
  -29.6375  -13.5326   17.8649 H   0  0  0  0  0  0  0  0  0  0  0  0
  -27.7830  -11.3650   18.7904 H   0  0  0  0  0  0  0  0  0  0  0  0
  -27.4028  -12.7801   17.8021 H   0  0  0  0  0  0  0  0  0  0  0  0
  -27.7353  -14.2503   19.6136 H   0  0  0  0  0  0  0  0  0  0  0  0
  -28.5890  -11.9550   21.3832 H   0  0  0  0  0  0  0  0  0  0  0  0
  -28.5005  -13.6134   21.8562 H   0  0  0  0  0  0  0  0  0  0  0  0
  -25.2399   -9.5495   22.4318 H   0  0  0  0  0  0  0  0  0  0  0  0
  -23.9663   -7.5070   22.7297 H   0  0  0  0  0  0  0  0  0  0  0  0
  -21.1515   -8.8641   19.9162 H   0  0  0  0  0  0  0  0  0  0  0  0
  -22.4016  -10.9115   19.6476 H   0  0  0  0  0  0  0  0  0  0  0  0
  -21.2319   -7.5552   23.9750 H   0  0  0  0  0  0  0  0  0  0  0  0
  -21.1589   -6.0228   25.8556 H   0  0  0  0  0  0  0  0  0  0  0  0
  -22.0396   -2.8212   23.2809 H   0  0  0  0  0  0  0  0  0  0  0  0
  -22.4401  -11.9703   22.4008 H   0  0  0  0  0  0  0  0  0  0  0  0
  -21.1493  -13.0679   22.2082 H   0  0  0  0  0  0  0  0  0  0  0  0
  -24.6538  -15.7807   20.5848 H   0  0  0  0  0  0  0  0  0  0  0  0
  -26.2762  -15.5453   20.1156 H   0  0  0  0  0  0  0  0  0  0  0  0
  -26.6778  -32.4663   23.1464 H   0  0  0  0  0  0  0  0  0  0  0  0
  -25.0747  -34.0282   25.0566 H   0  0  0  0  0  0  0  0  0  0  0  0
  -22.7881  -31.3489   21.4131 H   0  0  0  0  0  0  0  0  0  0  0  0
  -23.3854  -35.9823   23.3648 H   0  0  0  0  0  0  0  0  0  0  0  0
  -24.3696  -36.8624   22.2204 H   0  0  0  0  0  0  0  0  0  0  0  0
  -23.7669  -37.6632   23.6516 H   0  0  0  0  0  0  0  0  0  0  0  0
  -25.9445  -31.6237   20.5691 H   0  0  0  0  0  0  0  0  0  0  0  0
  -26.7436  -31.0079   22.0108 H   0  0  0  0  0  0  0  0  0  0  0  0
  -28.0090  -29.1452   21.2057 H   0  0  0  0  0  0  0  0  0  0  0  0
  -26.1369  -26.0560   19.0719 H   0  0  0  0  0  0  0  0  0  0  0  0
  -24.0652  -27.2961   19.0997 H   0  0  0  0  0  0  0  0  0  0  0  0
  -23.6156  -30.5365   19.3930 H   0  0  0  0  0  0  0  0  0  0  0  0
  -22.7355  -29.1425   19.9945 H   0  0  0  0  0  0  0  0  0  0  0  0
  -25.1353  -36.2335   25.0565 H   0  0  0  0  0  0  0  0  0  0  0  0
  -21.0070  -28.3206   24.0793 H   0  0  0  0  0  0  0  0  0  0  0  0
  -20.5555  -26.2518   23.3550 H   0  0  0  0  0  0  0  0  0  0  0  0
  -21.5974  -26.8362   22.0454 H   0  0  0  0  0  0  0  0  0  0  0  0
  -19.6810  -25.6422   21.1488 H   0  0  0  0  0  0  0  0  0  0  0  0
  -19.6406  -27.3343   20.7034 H   0  0  0  0  0  0  0  0  0  0  0  0
  -17.4282  -26.6888   21.4113 H   0  0  0  0  0  0  0  0  0  0  0  0
  -18.0803  -26.0130   22.9049 H   0  0  0  0  0  0  0  0  0  0  0  0
  -19.7265  -30.6774   24.2204 H   0  0  0  0  0  0  0  0  0  0  0  0
  -17.5064  -31.5856   24.4483 H   0  0  0  0  0  0  0  0  0  0  0  0
  -15.5878  -30.2839   23.7407 H   0  0  0  0  0  0  0  0  0  0  0  0
  -15.9120  -28.0941   22.7766 H   0  0  0  0  0  0  0  0  0  0  0  0
  -24.5787  -30.7757   25.6817 H   0  0  0  0  0  0  0  0  0  0  0  0
  -25.0041  -32.2289   26.5536 H   0  0  0  0  0  0  0  0  0  0  0  0
  -25.8166  -30.7245   26.9138 H   0  0  0  0  0  0  0  0  0  0  0  0
  -26.2892  -29.7335   24.0803 H   0  0  0  0  0  0  0  0  0  0  0  0
  -27.4336  -29.7484   25.4006 H   0  0  0  0  0  0  0  0  0  0  0  0
  -27.8466  -30.4994   23.8779 H   0  0  0  0  0  0  0  0  0  0  0  0
  -27.2251  -33.3632   26.1242 H   0  0  0  0  0  0  0  0  0  0  0  0
  -28.3902  -32.6065   25.0645 H   0  0  0  0  0  0  0  0  0  0  0  0
  -27.9772  -31.8555   26.5872 H   0  0  0  0  0  0  0  0  0  0  0  0
  -28.2744  -38.0016   24.6863 H   0  0  0  0  0  0  0  0  0  0  0  0
  -28.0396  -36.2711   24.7461 H   0  0  0  0  0  0  0  0  0  0  0  0
  -27.1773  -37.3087   25.8564 H   0  0  0  0  0  0  0  0  0  0  0  0
  -20.9627  -29.9365   21.7352 H   0  0  0  0  0  0  0  0  0  0  0  0
  -26.0447  -38.2561   24.0273 H   0  0  0  0  0  0  0  0  0  0  0  0
  -30.0346  -17.0256   25.6725 H   0  0  0  0  0  0  0  0  0  0  0  0
  -33.5745  -14.8773   23.1401 H   0  0  0  0  0  0  0  0  0  0  0  0
  -30.9552  -19.0936   25.3311 H   0  0  0  0  0  0  0  0  0  0  0  0
  -32.2970  -19.2905   24.1800 H   0  0  0  0  0  0  0  0  0  0  0  0
  -31.3699  -12.5904   24.6377 H   0  0  0  0  0  0  0  0  0  0  0  0
  -32.6453  -12.8415   23.4401 H   0  0  0  0  0  0  0  0  0  0  0  0
  -32.9239  -20.1734   26.3167 H   0  0  0  0  0  0  0  0  0  0  0  0
  -33.8563  -18.7134   25.9265 H   0  0  0  0  0  0  0  0  0  0  0  0
  -32.9780  -18.7243   28.4443 H   0  0  0  0  0  0  0  0  0  0  0  0
  -32.2455  -17.5389   27.9661 H   0  0  0  0  0  0  0  0  0  0  0  0
  -30.1109  -12.1018   22.7595 H   0  0  0  0  0  0  0  0  0  0  0  0
  1 25  1  0
  1 30  2  0
  1 81  1  0
  2  3  1  0
  2 25  1  0
  2 84  1  0
  2 85  1  0
  3  4  1  0
  3 86  1  0
  3 87  1  0
  4  5  1  0
  4 88  1  0
  4 89  1  0
  5  6  1  0
  5 26  1  0
  5 90  1  6
  6 25  1  0
  6 91  1  0
  6 92  1  0
  7  8  2  0
  7 26  1  0
  7 29  1  0
  8  9  1  0
  8 22  1  0
  9 10  1  0
  9 27  2  0
 10 11  2  0
 10 15  1  0
 11 12  1  0
 11 93  1  0
 12 13  2  0
 12 94  1  0
 13 14  1  0
 13 31  1  0
 14 15  2  0
 14 95  1  0
 15 96  1  0
 16 17  2  0
 16 21  1  0
 16 31  1  0
 17 18  1  0
 17 97  1  0
 18 19  2  0
 18 98  1  0
 19 20  1  0
 19 24  1  0
 20 21  2  0
 20 99  1  0
 21 23  1  0
 22 28  1  0
 22 32  2  0
 26 27  1  0
 28100  1  0
 28101  1  0
 29102  1  0
 29103  1  0
 33 34  1  0
 33 66  1  0
 33 70  2  0
 34 36  1  0
 34 59  1  0
 34104  1  6
 35 44  2  0
 35 45  1  0
 35 68  1  0
 36 56  1  0
 36105  1  0
 37 39  1  0
 37 47  1  0
 37 66  1  0
 37106  1  6
 38 43  2  0
 38 46  1  0
 38 47  1  0
 39 64  1  0
 39 67  2  0
 40 52  1  0
 40 53  2  0
 40 58  1  0
 41107  1  0
 41108  1  0
 41109  1  0
 42 43  1  0
 42 66  1  0
 42110  1  0
 42111  1  0
 43 44  1  0
 44112  1  0
 45 46  2  0
 45113  1  0
 46114  1  0
 47115  1  0
 47116  1  0
 48 41  1  0
 48 56  1  0
 48 65  1  0
 48117  1  1
 49 50  1  0
 49 53  1  0
 49 64  1  0
 49118  1  1
 50 51  1  0
 50119  1  0
 50120  1  0
 51 52  1  0
 51121  1  0
 51122  1  0
 52123  1  0
 52124  1  0
 53 54  1  0
 54 55  2  0
 54125  1  0
 55 57  1  0
 55126  1  0
 56 69  2  0
 57 58  2  0
 57127  1  0
 58128  1  0
 59 60  1  0
 59 61  1  0
 59 62  1  0
 60129  1  0
 60130  1  0
 60131  1  0
 61132  1  0
 61133  1  0
 61134  1  0
 62135  1  0
 62136  1  0
 62137  1  0
 63 65  1  0
 63138  1  0
 63139  1  0
 63140  1  0
 64141  1  0
 65142  1  0
 68 80  1  0
 71 73  2  0
 71 76  1  0
 71143  1  0
 72 74  1  0
 72 75  2  0
 72144  1  0
 73 75  1  0
 73 77  1  0
 74 76  2  0
 74 78  1  0
 75 82  1  0
 76 83  1  0
 77 79  1  0
 77145  1  0
 77146  1  0
 78 81  1  0
 78147  1  0
 78148  1  0
 79 80  1  0
 79149  1  0
 79150  1  0
 80151  1  0
 80152  1  0
 81153  1  0
M  ISO  4   1 100  68 101  80 101  81 100
M  END
$$$$
40
     RDKit          3D

159167  0  0  0  0  0  0  0  0999 V2000
  -30.7652  -14.3608   20.6636 C   0  0  0  0  0  0  0  0  0100  0  0
  -30.4392  -12.2669   19.3775 C   0  0  0  0  0  0  0  0  0101  0  0
  -29.4791  -12.5281   18.1977 C   0  0  0  0  0  0  0  0  0102  0  0
  -27.9985  -12.3963   18.6038 C   0  0  0  0  0  0  0  0  0103  0  0
  -27.6639  -13.2170   19.8820 C   0  0  2  0  0  0  0  0  0104  0  0
  -28.6795  -12.9602   21.0279 C   0  0  0  0  0  0  0  0  0105  0  0
  -25.2633  -13.8245   20.5754 C   0  0  0  0  0  0  0  0  0106  0  0
  -24.1645  -13.0409   20.9408 C   0  0  0  0  0  0  0  0  0107  0  0
  -24.6400  -11.7009   20.8697 C   0  0  0  0  0  0  0  0  0108  0  0
  -23.9005  -10.4085   21.0420 C   0  0  0  0  0  0  0  0  0109  0  0
  -24.3588   -9.4123   21.9123 C   0  0  0  0  0  0  0  0  0110  0  0
  -23.6296   -8.2350   22.0803 C   0  0  0  0  0  0  0  0  0111  0  0
  -22.4385   -8.0419   21.3657 C   0  0  0  0  0  0  0  0  0112  0  0
  -22.0103   -9.0167   20.4678 C   0  0  0  0  0  0  0  0  0113  0  0
  -22.7317  -10.1925   20.3102 C   0  0  0  0  0  0  0  0  0114  0  0
  -21.6857   -6.0709   22.5391 C   0  0  0  0  0  0  0  0  0115  0  0
  -21.4064   -6.5490   23.8264 C   0  0  0  0  0  0  0  0  0116  0  0
  -21.3635   -5.6677   24.9085 C   0  0  0  0  0  0  0  0  0117  0  0
  -21.5973   -4.3067   24.7088 C   0  0  0  0  0  0  0  0  0118  0  0
  -21.8700   -3.8284   23.4282 C   0  0  0  0  0  0  0  0  0119  0  0
  -21.9144   -4.7056   22.3460 C   0  0  0  0  0  0  0  0  0120  0  0
  -22.8194  -13.5263   21.1763 C   0  0  0  0  0  0  0  0  0121  0  0
  -22.1559   -4.2206   21.1063 F   0  0  0  0  0  0  0  0  0122  0  0
  -21.5628   -3.4510   25.7555 F   0  0  0  0  0  0  0  0  0123  0  0
  -30.0261  -13.1803   20.4553 N   0  0  0  0  0  0  0  0  0124  0  0
  -26.2911  -12.9356   20.3443 N   0  0  0  0  0  0  0  0  0125  0  0
  -25.9236  -11.6675   20.5847 N   0  0  0  0  0  0  0  0  0126  0  0
  -22.0708  -12.7905   22.0005 N   0  0  0  0  0  0  0  0  0127  0  0
  -25.4117  -15.1773   20.4097 N   0  0  0  0  0  0  0  0  0128  0  0
  -31.7916  -14.6724   20.0536 O   0  0  0  0  0  0  0  0  0129  0  0
  -21.6670   -6.9022   21.4423 O   0  0  0  0  0  0  0  0  0130  0  0
  -22.3946  -14.5564   20.6568 O   0  0  0  0  0  0  0  0  0131  0  0
  -24.6048  -31.8614   23.2223 C   0  0  0  0  0  0  0  0  0100  0  0
  -25.8822  -32.4841   23.8616 C   0  0  1  0  0  0  0  0  0101  0  0
  -27.2536  -27.5042   20.1156 C   0  0  0  0  0  0  0  0  0102  0  0
  -25.5726  -33.8762   24.2210 N   0  0  0  0  0  0  0  0  0103  0  0
  -23.4066  -30.4859   21.5461 C   0  0  2  0  0  0  0  0  0104  0  0
  -24.8467  -28.9636   20.1247 C   0  0  0  0  0  0  0  0  0105  0  0
  -22.7412  -29.4652   22.5052 C   0  0  0  0  0  0  0  0  0106  0  0
  -18.0167  -28.1302   22.8626 C   0  0  0  0  0  0  0  0  0107  0  0
  -24.1342  -36.7390   23.2568 C   0  0  0  0  0  0  0  0  0108  0  0
  -25.9141  -30.8882   21.3456 C   0  0  0  0  0  0  0  0  0109  0  0
  -25.9930  -29.5029   20.7208 C   0  0  0  0  0  0  0  0  0110  0  0
  -27.1758  -28.7612   20.7331 C   0  0  0  0  0  0  0  0  0111  0  0
  -26.1032  -26.9836   19.5230 C   0  0  0  0  0  0  0  0  0112  0  0
  -24.9097  -27.7011   19.5331 C   0  0  0  0  0  0  0  0  0113  0  0
  -23.5715  -29.7899   20.1582 C   0  0  0  0  0  0  0  0  0114  0  0
  -25.3990  -36.3212   24.0232 C   0  0  1  0  0  0  0  0  0115  0  0
  -20.5793  -28.3813   23.1004 C   0  0  2  0  0  0  0  0  0116  0  0
  -20.6548  -26.9392   22.5411 C   0  0  0  0  0  0  0  0  0117  0  0
  -19.5615  -26.6407   21.5143 C   0  0  0  0  0  0  0  0  0118  0  0
  -18.1797  -26.7818   22.1673 C   0  0  0  0  0  0  0  0  0119  0  0
  -19.1385  -28.8769   23.2988 C   0  0  0  0  0  0  0  0  0120  0  0
  -18.9183  -30.1286   23.8878 C   0  0  0  0  0  0  0  0  0121  0  0
  -17.6396  -30.6493   24.0352 C   0  0  0  0  0  0  0  0  0122  0  0
  -25.9153  -34.9582   23.4993 C   0  0  0  0  0  0  0  0  0123  0  0
  -16.5415  -29.9068   23.6254 C   0  0  0  0  0  0  0  0  0124  0  0
  -16.7331  -28.6521   23.0586 C   0  0  0  0  0  0  0  0  0125  0  0
  -26.4583  -31.6439   25.0683 C   0  0  0  0  0  0  0  0  0126  0  0
  -25.3807  -31.3179   26.1374 C   0  0  0  0  0  0  0  0  0127  0  0
  -27.0530  -30.3024   24.5680 C   0  0  0  0  0  0  0  0  0128  0  0
  -27.6014  -32.4281   25.7651 C   0  0  0  0  0  0  0  0  0129  0  0
  -27.5629  -37.2220   24.8621 C   0  0  0  0  0  0  0  0  0130  0  0
  -21.4133  -29.3375   22.3735 N   0  0  0  0  0  0  0  0  0131  0  0
  -26.4706  -37.3372   23.9061 N   0  0  0  0  0  0  0  0  0132  0  0
  -24.6674  -31.0544   22.1178 N   0  0  0  0  0  0  0  0  0133  0  0
  -23.4259  -28.8150   23.2971 O   0  0  0  0  0  0  0  0  0134  0  0
  -28.3948  -26.7345   20.0089 O   0  0  0  0  0  0  0  0  0135  0  0
  -26.5870  -34.9065   22.4671 O   0  0  0  0  0  0  0  0  0136  0  0
  -23.5365  -32.1254   23.7833 O   0  0  0  0  0  0  0  0  0137  0  0
  -25.9507  -27.1741   24.8768 C   0  0  0  0  0  0  0  0  0  0  0  0
  -27.9807  -26.5303   26.0175 C   0  0  0  0  0  0  0  0  0  0  0  0
  -26.5977  -26.7116   26.0227 C   0  0  0  0  0  0  0  0  0  0  0  0
  -28.0697  -27.2738   23.7205 C   0  0  0  0  0  0  0  0  0  0  0  0
  -26.6866  -27.4551   23.7256 C   0  0  0  0  0  0  0  0  0  0  0  0
  -28.7167  -26.8114   24.8664 C   0  0  0  0  0  0  0  0  0  0  0  0
  -28.8252  -27.5860   22.4691 C   0  0  0  0  0  0  0  0  0  0  0  0
  -25.8057  -26.4111   27.2610 C   0  0  0  0  0  0  0  0  0  0  0  0
  -24.7613  -23.1125   28.9010 C   0  0  0  0  0  0  0  0  0  0  0  0
  -24.9053  -24.6194   28.7503 C   0  0  0  0  0  0  0  0  0  0  0  0
  -23.9513  -22.4596   27.7877 C   0  0  0  0  0  0  0  0  0  1  0  0
  -29.2254  -26.3914   21.7595 N   0  0  0  0  0  0  0  0  0  0  0  0
  -25.6291  -24.9521   27.5009 N   0  0  0  0  0  0  0  0  0  0  0  0
  -26.0548  -27.8978   22.6294 F   0  0  0  0  0  0  0  0  0  0  0  0
  -30.4264  -26.5757   24.8970 Cl  0  0  0  0  0  0  0  0  0  0  0  0
  -31.4485  -12.4701   19.0860 H   0  0  0  0  0  0  0  0  0  0  0  0
  -30.3970  -11.2460   19.6950 H   0  0  0  0  0  0  0  0  0  0  0  0
  -29.6870  -11.8204   17.4226 H   0  0  0  0  0  0  0  0  0  0  0  0
  -29.6375  -13.5326   17.8649 H   0  0  0  0  0  0  0  0  0  0  0  0
  -27.7830  -11.3650   18.7904 H   0  0  0  0  0  0  0  0  0  0  0  0
  -27.4028  -12.7801   17.8021 H   0  0  0  0  0  0  0  0  0  0  0  0
  -27.7353  -14.2503   19.6136 H   0  0  0  0  0  0  0  0  0  0  0  0
  -28.5890  -11.9550   21.3832 H   0  0  0  0  0  0  0  0  0  0  0  0
  -28.5005  -13.6134   21.8562 H   0  0  0  0  0  0  0  0  0  0  0  0
  -25.2399   -9.5495   22.4318 H   0  0  0  0  0  0  0  0  0  0  0  0
  -23.9663   -7.5070   22.7297 H   0  0  0  0  0  0  0  0  0  0  0  0
  -21.1515   -8.8641   19.9162 H   0  0  0  0  0  0  0  0  0  0  0  0
  -22.4016  -10.9115   19.6476 H   0  0  0  0  0  0  0  0  0  0  0  0
  -21.2319   -7.5552   23.9750 H   0  0  0  0  0  0  0  0  0  0  0  0
  -21.1589   -6.0228   25.8556 H   0  0  0  0  0  0  0  0  0  0  0  0
  -22.0396   -2.8212   23.2809 H   0  0  0  0  0  0  0  0  0  0  0  0
  -22.4401  -11.9703   22.4008 H   0  0  0  0  0  0  0  0  0  0  0  0
  -21.1493  -13.0679   22.2082 H   0  0  0  0  0  0  0  0  0  0  0  0
  -24.6538  -15.7807   20.5848 H   0  0  0  0  0  0  0  0  0  0  0  0
  -26.2762  -15.5453   20.1156 H   0  0  0  0  0  0  0  0  0  0  0  0
  -26.6778  -32.4663   23.1464 H   0  0  0  0  0  0  0  0  0  0  0  0
  -25.0747  -34.0282   25.0566 H   0  0  0  0  0  0  0  0  0  0  0  0
  -22.7881  -31.3489   21.4131 H   0  0  0  0  0  0  0  0  0  0  0  0
  -23.3854  -35.9823   23.3648 H   0  0  0  0  0  0  0  0  0  0  0  0
  -24.3696  -36.8624   22.2204 H   0  0  0  0  0  0  0  0  0  0  0  0
  -23.7669  -37.6632   23.6516 H   0  0  0  0  0  0  0  0  0  0  0  0
  -25.9445  -31.6237   20.5691 H   0  0  0  0  0  0  0  0  0  0  0  0
  -26.7436  -31.0079   22.0108 H   0  0  0  0  0  0  0  0  0  0  0  0
  -28.0090  -29.1452   21.2057 H   0  0  0  0  0  0  0  0  0  0  0  0
  -26.1369  -26.0560   19.0719 H   0  0  0  0  0  0  0  0  0  0  0  0
  -24.0652  -27.2961   19.0997 H   0  0  0  0  0  0  0  0  0  0  0  0
  -23.6156  -30.5365   19.3930 H   0  0  0  0  0  0  0  0  0  0  0  0
  -22.7355  -29.1425   19.9945 H   0  0  0  0  0  0  0  0  0  0  0  0
  -25.1353  -36.2335   25.0565 H   0  0  0  0  0  0  0  0  0  0  0  0
  -21.0070  -28.3206   24.0793 H   0  0  0  0  0  0  0  0  0  0  0  0
  -20.5555  -26.2518   23.3550 H   0  0  0  0  0  0  0  0  0  0  0  0
  -21.5974  -26.8362   22.0454 H   0  0  0  0  0  0  0  0  0  0  0  0
  -19.6810  -25.6422   21.1488 H   0  0  0  0  0  0  0  0  0  0  0  0
  -19.6406  -27.3343   20.7034 H   0  0  0  0  0  0  0  0  0  0  0  0
  -17.4282  -26.6888   21.4113 H   0  0  0  0  0  0  0  0  0  0  0  0
  -18.0803  -26.0130   22.9049 H   0  0  0  0  0  0  0  0  0  0  0  0
  -19.7265  -30.6774   24.2204 H   0  0  0  0  0  0  0  0  0  0  0  0
  -17.5064  -31.5856   24.4483 H   0  0  0  0  0  0  0  0  0  0  0  0
  -15.5878  -30.2839   23.7407 H   0  0  0  0  0  0  0  0  0  0  0  0
  -15.9120  -28.0941   22.7766 H   0  0  0  0  0  0  0  0  0  0  0  0
  -24.5787  -30.7757   25.6817 H   0  0  0  0  0  0  0  0  0  0  0  0
  -25.0041  -32.2289   26.5536 H   0  0  0  0  0  0  0  0  0  0  0  0
  -25.8166  -30.7245   26.9138 H   0  0  0  0  0  0  0  0  0  0  0  0
  -26.2892  -29.7335   24.0803 H   0  0  0  0  0  0  0  0  0  0  0  0
  -27.4336  -29.7484   25.4006 H   0  0  0  0  0  0  0  0  0  0  0  0
  -27.8466  -30.4994   23.8779 H   0  0  0  0  0  0  0  0  0  0  0  0
  -27.2251  -33.3632   26.1242 H   0  0  0  0  0  0  0  0  0  0  0  0
  -28.3902  -32.6065   25.0645 H   0  0  0  0  0  0  0  0  0  0  0  0
  -27.9772  -31.8555   26.5872 H   0  0  0  0  0  0  0  0  0  0  0  0
  -28.2744  -38.0016   24.6863 H   0  0  0  0  0  0  0  0  0  0  0  0
  -28.0396  -36.2711   24.7461 H   0  0  0  0  0  0  0  0  0  0  0  0
  -27.1773  -37.3087   25.8564 H   0  0  0  0  0  0  0  0  0  0  0  0
  -20.9627  -29.9365   21.7352 H   0  0  0  0  0  0  0  0  0  0  0  0
  -26.0447  -38.2561   24.0273 H   0  0  0  0  0  0  0  0  0  0  0  0
  -24.9275  -27.3084   24.8807 H   0  0  0  0  0  0  0  0  0  0  0  0
  -28.4594  -26.1882   26.8653 H   0  0  0  0  0  0  0  0  0  0  0  0
  -29.7014  -28.1440   22.7258 H   0  0  0  0  0  0  0  0  0  0  0  0
  -28.1793  -28.1481   21.8274 H   0  0  0  0  0  0  0  0  0  0  0  0
  -24.8392  -26.8599   27.1645 H   0  0  0  0  0  0  0  0  0  0  0  0
  -26.3501  -26.8079   28.0924 H   0  0  0  0  0  0  0  0  0  0  0  0
  -24.2770  -22.9111   29.8336 H   0  0  0  0  0  0  0  0  0  0  0  0
  -25.7468  -22.6983   28.8545 H   0  0  0  0  0  0  0  0  0  0  0  0
  -25.4505  -25.0058   29.5860 H   0  0  0  0  0  0  0  0  0  0  0  0
  -23.9296  -25.0568   28.7105 H   0  0  0  0  0  0  0  0  0  0  0  0
  -22.9125  -22.7096   27.8456 H   0  0  0  0  0  0  0  0  0  0  0  0
  -23.9430  -21.3896   27.7866 H   0  0  0  0  0  0  0  0  0  0  0  0
  -29.5489  -26.7393   20.8972 H   0  0  0  0  0  0  0  0  0  0  0  0
  -26.5529  -24.5219   27.5434 H   0  0  0  0  0  0  0  0  0  0  0  0
  -25.0599  -24.5979   26.7321 H   0  0  0  0  0  0  0  0  0  0  0  0
  1 25  1  0
  1 30  2  0
  1 82  1  0
  2  3  1  0
  2 25  1  0
  2 86  1  0
  2 87  1  0
  3  4  1  0
  3 88  1  0
  3 89  1  0
  4  5  1  0
  4 90  1  0
  4 91  1  0
  5  6  1  0
  5 26  1  0
  5 92  1  6
  6 25  1  0
  6 93  1  0
  6 94  1  0
  7  8  2  0
  7 26  1  0
  7 29  1  0
  8  9  1  0
  8 22  1  0
  9 10  1  0
  9 27  2  0
 10 11  2  0
 10 15  1  0
 11 12  1  0
 11 95  1  0
 12 13  2  0
 12 96  1  0
 13 14  1  0
 13 31  1  0
 14 15  2  0
 14 97  1  0
 15 98  1  0
 16 17  2  0
 16 21  1  0
 16 31  1  0
 17 18  1  0
 17 99  1  0
 18 19  2  0
 18100  1  0
 19 20  1  0
 19 24  1  0
 20 21  2  0
 20101  1  0
 21 23  1  0
 22 28  1  0
 22 32  2  0
 26 27  1  0
 28102  1  0
 28103  1  0
 29104  1  0
 29105  1  0
 33 34  1  0
 33 66  1  0
 33 70  2  0
 34 36  1  0
 34 59  1  0
 34106  1  6
 35 44  2  0
 35 45  1  0
 35 68  1  0
 36 56  1  0
 36107  1  0
 37 39  1  0
 37 47  1  0
 37 66  1  0
 37108  1  6
 38 43  2  0
 38 46  1  0
 38 47  1  0
 39 64  1  0
 39 67  2  0
 40 52  1  0
 40 53  2  0
 40 58  1  0
 41109  1  0
 41110  1  0
 41111  1  0
 42 43  1  0
 42 66  1  0
 42112  1  0
 42113  1  0
 43 44  1  0
 44114  1  0
 45 46  2  0
 45115  1  0
 46116  1  0
 47117  1  0
 47118  1  0
 48 41  1  0
 48 56  1  0
 48 65  1  0
 48119  1  1
 49 50  1  0
 49 53  1  0
 49 64  1  0
 49120  1  1
 50 51  1  0
 50121  1  0
 50122  1  0
 51 52  1  0
 51123  1  0
 51124  1  0
 52125  1  0
 52126  1  0
 53 54  1  0
 54 55  2  0
 54127  1  0
 55 57  1  0
 55128  1  0
 56 69  2  0
 57 58  2  0
 57129  1  0
 58130  1  0
 59 60  1  0
 59 61  1  0
 59 62  1  0
 60131  1  0
 60132  1  0
 60133  1  0
 61134  1  0
 61135  1  0
 61136  1  0
 62137  1  0
 62138  1  0
 62139  1  0
 63 65  1  0
 63140  1  0
 63141  1  0
 63142  1  0
 64143  1  0
 65144  1  0
 68 81  1  0
 71 73  2  0
 71 75  1  0
 71145  1  0
 72 73  1  0
 72 76  2  0
 72146  1  0
 73 78  1  0
 74 75  2  0
 74 76  1  0
 74 77  1  0
 75 84  1  0
 76 85  1  0
 77 82  1  0
 77147  1  0
 77148  1  0
 78 83  1  0
 78149  1  0
 78150  1  0
 79 80  1  0
 79 81  1  0
 79151  1  0
 79152  1  0
 80 83  1  0
 80153  1  0
 80154  1  0
 81155  1  0
 81156  1  0
 82157  1  0
 83158  1  0
 83159  1  0
M  CHG  1  83   1
M  ISO  4   1 100  68 101  81 101  82 100
M  END
$$$$
41
     RDKit          3D

159167  0  0  0  0  0  0  0  0999 V2000
  -30.7652  -14.3608   20.6636 C   0  0  0  0  0  0  0  0  0100  0  0
  -30.4392  -12.2669   19.3775 C   0  0  0  0  0  0  0  0  0101  0  0
  -29.4791  -12.5281   18.1977 C   0  0  0  0  0  0  0  0  0102  0  0
  -27.9985  -12.3963   18.6038 C   0  0  0  0  0  0  0  0  0103  0  0
  -27.6639  -13.2170   19.8820 C   0  0  2  0  0  0  0  0  0104  0  0
  -28.6795  -12.9602   21.0279 C   0  0  0  0  0  0  0  0  0105  0  0
  -25.2633  -13.8245   20.5754 C   0  0  0  0  0  0  0  0  0106  0  0
  -24.1645  -13.0409   20.9408 C   0  0  0  0  0  0  0  0  0107  0  0
  -24.6400  -11.7009   20.8697 C   0  0  0  0  0  0  0  0  0108  0  0
  -23.9005  -10.4085   21.0420 C   0  0  0  0  0  0  0  0  0109  0  0
  -24.3588   -9.4123   21.9123 C   0  0  0  0  0  0  0  0  0110  0  0
  -23.6296   -8.2350   22.0803 C   0  0  0  0  0  0  0  0  0111  0  0
  -22.4385   -8.0419   21.3657 C   0  0  0  0  0  0  0  0  0112  0  0
  -22.0103   -9.0167   20.4678 C   0  0  0  0  0  0  0  0  0113  0  0
  -22.7317  -10.1925   20.3102 C   0  0  0  0  0  0  0  0  0114  0  0
  -21.6857   -6.0709   22.5391 C   0  0  0  0  0  0  0  0  0115  0  0
  -21.4064   -6.5490   23.8264 C   0  0  0  0  0  0  0  0  0116  0  0
  -21.3635   -5.6677   24.9085 C   0  0  0  0  0  0  0  0  0117  0  0
  -21.5973   -4.3067   24.7088 C   0  0  0  0  0  0  0  0  0118  0  0
  -21.8700   -3.8284   23.4282 C   0  0  0  0  0  0  0  0  0119  0  0
  -21.9144   -4.7056   22.3460 C   0  0  0  0  0  0  0  0  0120  0  0
  -22.8194  -13.5263   21.1763 C   0  0  0  0  0  0  0  0  0121  0  0
  -22.1559   -4.2206   21.1063 F   0  0  0  0  0  0  0  0  0122  0  0
  -21.5628   -3.4510   25.7555 F   0  0  0  0  0  0  0  0  0123  0  0
  -30.0261  -13.1803   20.4553 N   0  0  0  0  0  0  0  0  0124  0  0
  -26.2911  -12.9356   20.3443 N   0  0  0  0  0  0  0  0  0125  0  0
  -25.9236  -11.6675   20.5847 N   0  0  0  0  0  0  0  0  0126  0  0
  -22.0708  -12.7905   22.0005 N   0  0  0  0  0  0  0  0  0127  0  0
  -25.4117  -15.1773   20.4097 N   0  0  0  0  0  0  0  0  0128  0  0
  -31.7916  -14.6724   20.0536 O   0  0  0  0  0  0  0  0  0129  0  0
  -21.6670   -6.9022   21.4423 O   0  0  0  0  0  0  0  0  0130  0  0
  -22.3946  -14.5564   20.6568 O   0  0  0  0  0  0  0  0  0131  0  0
  -24.6048  -31.8614   23.2223 C   0  0  0  0  0  0  0  0  0100  0  0
  -25.8822  -32.4841   23.8616 C   0  0  1  0  0  0  0  0  0101  0  0
  -27.2536  -27.5042   20.1156 C   0  0  0  0  0  0  0  0  0102  0  0
  -25.5726  -33.8762   24.2210 N   0  0  0  0  0  0  0  0  0103  0  0
  -23.4066  -30.4859   21.5461 C   0  0  2  0  0  0  0  0  0104  0  0
  -24.8467  -28.9636   20.1247 C   0  0  0  0  0  0  0  0  0105  0  0
  -22.7412  -29.4652   22.5052 C   0  0  0  0  0  0  0  0  0106  0  0
  -18.0167  -28.1302   22.8626 C   0  0  0  0  0  0  0  0  0107  0  0
  -24.1342  -36.7390   23.2568 C   0  0  0  0  0  0  0  0  0108  0  0
  -25.9141  -30.8882   21.3456 C   0  0  0  0  0  0  0  0  0109  0  0
  -25.9930  -29.5029   20.7208 C   0  0  0  0  0  0  0  0  0110  0  0
  -27.1758  -28.7612   20.7331 C   0  0  0  0  0  0  0  0  0111  0  0
  -26.1032  -26.9836   19.5230 C   0  0  0  0  0  0  0  0  0112  0  0
  -24.9097  -27.7011   19.5331 C   0  0  0  0  0  0  0  0  0113  0  0
  -23.5715  -29.7899   20.1582 C   0  0  0  0  0  0  0  0  0114  0  0
  -25.3990  -36.3212   24.0232 C   0  0  1  0  0  0  0  0  0115  0  0
  -20.5793  -28.3813   23.1004 C   0  0  2  0  0  0  0  0  0116  0  0
  -20.6548  -26.9392   22.5411 C   0  0  0  0  0  0  0  0  0117  0  0
  -19.5615  -26.6407   21.5143 C   0  0  0  0  0  0  0  0  0118  0  0
  -18.1797  -26.7818   22.1673 C   0  0  0  0  0  0  0  0  0119  0  0
  -19.1385  -28.8769   23.2988 C   0  0  0  0  0  0  0  0  0120  0  0
  -18.9183  -30.1286   23.8878 C   0  0  0  0  0  0  0  0  0121  0  0
  -17.6396  -30.6493   24.0352 C   0  0  0  0  0  0  0  0  0122  0  0
  -25.9153  -34.9582   23.4993 C   0  0  0  0  0  0  0  0  0123  0  0
  -16.5415  -29.9068   23.6254 C   0  0  0  0  0  0  0  0  0124  0  0
  -16.7331  -28.6521   23.0586 C   0  0  0  0  0  0  0  0  0125  0  0
  -26.4583  -31.6439   25.0683 C   0  0  0  0  0  0  0  0  0126  0  0
  -25.3807  -31.3179   26.1374 C   0  0  0  0  0  0  0  0  0127  0  0
  -27.0530  -30.3024   24.5680 C   0  0  0  0  0  0  0  0  0128  0  0
  -27.6014  -32.4281   25.7651 C   0  0  0  0  0  0  0  0  0129  0  0
  -27.5629  -37.2220   24.8621 C   0  0  0  0  0  0  0  0  0130  0  0
  -21.4133  -29.3375   22.3735 N   0  0  0  0  0  0  0  0  0131  0  0
  -26.4706  -37.3372   23.9061 N   0  0  0  0  0  0  0  0  0132  0  0
  -24.6674  -31.0544   22.1178 N   0  0  0  0  0  0  0  0  0133  0  0
  -23.4259  -28.8150   23.2971 O   0  0  0  0  0  0  0  0  0134  0  0
  -28.3948  -26.7345   20.0089 O   0  0  0  0  0  0  0  0  0135  0  0
  -26.5870  -34.9065   22.4671 O   0  0  0  0  0  0  0  0  0136  0  0
  -23.5365  -32.1254   23.7833 O   0  0  0  0  0  0  0  0  0137  0  0
  -31.0664  -13.1322   26.1831 C   0  0  0  0  0  0  0  0  0  0  0  0
  -31.0100  -13.7651   24.9463 C   0  0  0  0  0  0  0  0  0  0  0  0
  -30.4512  -13.7156   27.2851 C   0  0  0  0  0  0  0  0  0  0  0  0
  -29.7976  -14.9231   27.0992 C   0  0  0  0  0  0  0  0  0  0  0  0
  -30.3312  -14.9702   24.8651 C   0  0  0  0  0  0  0  0  0  0  0  0
  -29.9312  -16.7628   28.7974 C   0  0  0  0  0  0  0  0  0  0  0  0
  -31.6709  -13.1360   23.7681 C   0  0  0  0  0  0  0  0  0  0  0  0
  -29.1207  -15.5917   28.2504 C   0  0  0  0  0  0  0  0  0  0  0  0
  -29.9464  -11.1330   29.7824 C   0  0  0  0  0  0  0  0  0  0  0  0
  -28.4827  -11.5249   29.9096 C   0  0  0  0  0  0  0  0  0  1  0  0
  -30.5735  -11.6808   28.5100 C   0  0  0  0  0  0  0  0  0  0  0  0
  -29.7214  -15.5677   25.9133 N   0  0  0  0  0  0  0  0  0  0  0  0
  -30.7393  -12.8569   22.6980 N   0  0  0  0  0  0  0  0  0  0  0  0
  -30.5008  -13.1001   28.5088 O   0  0  0  0  0  0  0  0  0  0  0  0
  -30.1917  -15.8481   23.3925 Cl  0  0  0  0  0  0  0  0  0  0  0  0
  -31.4485  -12.4701   19.0860 H   0  0  0  0  0  0  0  0  0  0  0  0
  -30.3970  -11.2460   19.6950 H   0  0  0  0  0  0  0  0  0  0  0  0
  -29.6870  -11.8204   17.4226 H   0  0  0  0  0  0  0  0  0  0  0  0
  -29.6375  -13.5326   17.8649 H   0  0  0  0  0  0  0  0  0  0  0  0
  -27.7830  -11.3650   18.7904 H   0  0  0  0  0  0  0  0  0  0  0  0
  -27.4028  -12.7801   17.8021 H   0  0  0  0  0  0  0  0  0  0  0  0
  -27.7353  -14.2503   19.6136 H   0  0  0  0  0  0  0  0  0  0  0  0
  -28.5890  -11.9550   21.3832 H   0  0  0  0  0  0  0  0  0  0  0  0
  -28.5005  -13.6134   21.8562 H   0  0  0  0  0  0  0  0  0  0  0  0
  -25.2399   -9.5495   22.4318 H   0  0  0  0  0  0  0  0  0  0  0  0
  -23.9663   -7.5070   22.7297 H   0  0  0  0  0  0  0  0  0  0  0  0
  -21.1515   -8.8641   19.9162 H   0  0  0  0  0  0  0  0  0  0  0  0
  -22.4016  -10.9115   19.6476 H   0  0  0  0  0  0  0  0  0  0  0  0
  -21.2319   -7.5552   23.9750 H   0  0  0  0  0  0  0  0  0  0  0  0
  -21.1589   -6.0228   25.8556 H   0  0  0  0  0  0  0  0  0  0  0  0
  -22.0396   -2.8212   23.2809 H   0  0  0  0  0  0  0  0  0  0  0  0
  -22.4401  -11.9703   22.4008 H   0  0  0  0  0  0  0  0  0  0  0  0
  -21.1493  -13.0679   22.2082 H   0  0  0  0  0  0  0  0  0  0  0  0
  -24.6538  -15.7807   20.5848 H   0  0  0  0  0  0  0  0  0  0  0  0
  -26.2762  -15.5453   20.1156 H   0  0  0  0  0  0  0  0  0  0  0  0
  -26.6778  -32.4663   23.1464 H   0  0  0  0  0  0  0  0  0  0  0  0
  -25.0747  -34.0282   25.0566 H   0  0  0  0  0  0  0  0  0  0  0  0
  -22.7881  -31.3489   21.4131 H   0  0  0  0  0  0  0  0  0  0  0  0
  -23.3854  -35.9823   23.3648 H   0  0  0  0  0  0  0  0  0  0  0  0
  -24.3696  -36.8624   22.2204 H   0  0  0  0  0  0  0  0  0  0  0  0
  -23.7669  -37.6632   23.6516 H   0  0  0  0  0  0  0  0  0  0  0  0
  -25.9445  -31.6237   20.5691 H   0  0  0  0  0  0  0  0  0  0  0  0
  -26.7436  -31.0079   22.0108 H   0  0  0  0  0  0  0  0  0  0  0  0
  -28.0090  -29.1452   21.2057 H   0  0  0  0  0  0  0  0  0  0  0  0
  -26.1369  -26.0560   19.0719 H   0  0  0  0  0  0  0  0  0  0  0  0
  -24.0652  -27.2961   19.0997 H   0  0  0  0  0  0  0  0  0  0  0  0
  -23.6156  -30.5365   19.3930 H   0  0  0  0  0  0  0  0  0  0  0  0
  -22.7355  -29.1425   19.9945 H   0  0  0  0  0  0  0  0  0  0  0  0
  -25.1353  -36.2335   25.0565 H   0  0  0  0  0  0  0  0  0  0  0  0
  -21.0070  -28.3206   24.0793 H   0  0  0  0  0  0  0  0  0  0  0  0
  -20.5555  -26.2518   23.3550 H   0  0  0  0  0  0  0  0  0  0  0  0
  -21.5974  -26.8362   22.0454 H   0  0  0  0  0  0  0  0  0  0  0  0
  -19.6810  -25.6422   21.1488 H   0  0  0  0  0  0  0  0  0  0  0  0
  -19.6406  -27.3343   20.7034 H   0  0  0  0  0  0  0  0  0  0  0  0
  -17.4282  -26.6888   21.4113 H   0  0  0  0  0  0  0  0  0  0  0  0
  -18.0803  -26.0130   22.9049 H   0  0  0  0  0  0  0  0  0  0  0  0
  -19.7265  -30.6774   24.2204 H   0  0  0  0  0  0  0  0  0  0  0  0
  -17.5064  -31.5856   24.4483 H   0  0  0  0  0  0  0  0  0  0  0  0
  -15.5878  -30.2839   23.7407 H   0  0  0  0  0  0  0  0  0  0  0  0
  -15.9120  -28.0941   22.7766 H   0  0  0  0  0  0  0  0  0  0  0  0
  -24.5787  -30.7757   25.6817 H   0  0  0  0  0  0  0  0  0  0  0  0
  -25.0041  -32.2289   26.5536 H   0  0  0  0  0  0  0  0  0  0  0  0
  -25.8166  -30.7245   26.9138 H   0  0  0  0  0  0  0  0  0  0  0  0
  -26.2892  -29.7335   24.0803 H   0  0  0  0  0  0  0  0  0  0  0  0
  -27.4336  -29.7484   25.4006 H   0  0  0  0  0  0  0  0  0  0  0  0
  -27.8466  -30.4994   23.8779 H   0  0  0  0  0  0  0  0  0  0  0  0
  -27.2251  -33.3632   26.1242 H   0  0  0  0  0  0  0  0  0  0  0  0
  -28.3902  -32.6065   25.0645 H   0  0  0  0  0  0  0  0  0  0  0  0
  -27.9772  -31.8555   26.5872 H   0  0  0  0  0  0  0  0  0  0  0  0
  -28.2744  -38.0016   24.6863 H   0  0  0  0  0  0  0  0  0  0  0  0
  -28.0396  -36.2711   24.7461 H   0  0  0  0  0  0  0  0  0  0  0  0
  -27.1773  -37.3087   25.8564 H   0  0  0  0  0  0  0  0  0  0  0  0
  -20.9627  -29.9365   21.7352 H   0  0  0  0  0  0  0  0  0  0  0  0
  -26.0447  -38.2561   24.0273 H   0  0  0  0  0  0  0  0  0  0  0  0
  -31.5629  -12.2330   26.2827 H   0  0  0  0  0  0  0  0  0  0  0  0
  -29.4069  -17.2073   29.6174 H   0  0  0  0  0  0  0  0  0  0  0  0
  -30.0705  -17.4913   28.0262 H   0  0  0  0  0  0  0  0  0  0  0  0
  -30.8847  -16.4112   29.1322 H   0  0  0  0  0  0  0  0  0  0  0  0
  -32.1238  -12.2174   24.0779 H   0  0  0  0  0  0  0  0  0  0  0  0
  -32.3991  -13.8257   23.3954 H   0  0  0  0  0  0  0  0  0  0  0  0
  -28.9820  -14.8743   29.0320 H   0  0  0  0  0  0  0  0  0  0  0  0
  -28.1847  -15.9756   27.9020 H   0  0  0  0  0  0  0  0  0  0  0  0
  -30.0186  -10.0655   29.7714 H   0  0  0  0  0  0  0  0  0  0  0  0
  -30.4736  -11.5477   30.6161 H   0  0  0  0  0  0  0  0  0  0  0  0
  -28.2091  -11.7121   30.9269 H   0  0  0  0  0  0  0  0  0  0  0  0
  -27.7873  -10.7767   29.5910 H   0  0  0  0  0  0  0  0  0  0  0  0
  -30.0468  -11.2976   27.6611 H   0  0  0  0  0  0  0  0  0  0  0  0
  -31.5993  -11.3800   28.4643 H   0  0  0  0  0  0  0  0  0  0  0  0
  -30.1112  -12.1013   22.7595 H   0  0  0  0  0  0  0  0  0  0  0  0
  1 25  1  0
  1 30  2  0
  1 83  1  0
  2  3  1  0
  2 25  1  0
  2 86  1  0
  2 87  1  0
  3  4  1  0
  3 88  1  0
  3 89  1  0
  4  5  1  0
  4 90  1  0
  4 91  1  0
  5  6  1  0
  5 26  1  0
  5 92  1  6
  6 25  1  0
  6 93  1  0
  6 94  1  0
  7  8  2  0
  7 26  1  0
  7 29  1  0
  8  9  1  0
  8 22  1  0
  9 10  1  0
  9 27  2  0
 10 11  2  0
 10 15  1  0
 11 12  1  0
 11 95  1  0
 12 13  2  0
 12 96  1  0
 13 14  1  0
 13 31  1  0
 14 15  2  0
 14 97  1  0
 15 98  1  0
 16 17  2  0
 16 21  1  0
 16 31  1  0
 17 18  1  0
 17 99  1  0
 18 19  2  0
 18100  1  0
 19 20  1  0
 19 24  1  0
 20 21  2  0
 20101  1  0
 21 23  1  0
 22 28  1  0
 22 32  2  0
 26 27  1  0
 28102  1  0
 28103  1  0
 29104  1  0
 29105  1  0
 33 34  1  0
 33 66  1  0
 33 70  2  0
 34 36  1  0
 34 59  1  0
 34106  1  6
 35 44  2  0
 35 45  1  0
 35 68  1  0
 36 56  1  0
 36107  1  0
 37 39  1  0
 37 47  1  0
 37 66  1  0
 37108  1  6
 38 43  2  0
 38 46  1  0
 38 47  1  0
 39 64  1  0
 39 67  2  0
 40 52  1  0
 40 53  2  0
 40 58  1  0
 41109  1  0
 41110  1  0
 41111  1  0
 42 43  1  0
 42 66  1  0
 42112  1  0
 42113  1  0
 43 44  1  0
 44114  1  0
 45 46  2  0
 45115  1  0
 46116  1  0
 47117  1  0
 47118  1  0
 48 41  1  0
 48 56  1  0
 48 65  1  0
 48119  1  1
 49 50  1  0
 49 53  1  0
 49 64  1  0
 49120  1  1
 50 51  1  0
 50121  1  0
 50122  1  0
 51 52  1  0
 51123  1  0
 51124  1  0
 52125  1  0
 52126  1  0
 53 54  1  0
 54 55  2  0
 54127  1  0
 55 57  1  0
 55128  1  0
 56 69  2  0
 57 58  2  0
 57129  1  0
 58130  1  0
 59 60  1  0
 59 61  1  0
 59 62  1  0
 60131  1  0
 60132  1  0
 60133  1  0
 61134  1  0
 61135  1  0
 61136  1  0
 62137  1  0
 62138  1  0
 62139  1  0
 63 65  1  0
 63140  1  0
 63141  1  0
 63142  1  0
 64143  1  0
 65144  1  0
 68 80  1  0
 71 72  2  0
 71 73  1  0
 71145  1  0
 72 75  1  0
 72 77  1  0
 73 74  2  0
 73 84  1  0
 74 78  1  0
 74 82  1  0
 75 82  2  0
 75 85  1  0
 76 78  1  0
 76146  1  0
 76147  1  0
 76148  1  0
 77 83  1  0
 77149  1  0
 77150  1  0
 78151  1  0
 78152  1  0
 79 80  1  0
 79 81  1  0
 79153  1  0
 79154  1  0
 80155  1  0
 80156  1  0
 81 84  1  0
 81157  1  0
 81158  1  0
 83159  1  0
M  ISO  4   1 100  68 101  80 101  83 100
M  END
$$$$
42
     RDKit          3D

165173  0  0  0  0  0  0  0  0999 V2000
  -30.7652  -14.3608   20.6636 C   0  0  0  0  0  0  0  0  0100  0  0
  -30.4392  -12.2669   19.3775 C   0  0  0  0  0  0  0  0  0101  0  0
  -29.4791  -12.5281   18.1977 C   0  0  0  0  0  0  0  0  0102  0  0
  -27.9985  -12.3963   18.6038 C   0  0  0  0  0  0  0  0  0103  0  0
  -27.6639  -13.2170   19.8820 C   0  0  2  0  0  0  0  0  0104  0  0
  -28.6795  -12.9602   21.0279 C   0  0  0  0  0  0  0  0  0105  0  0
  -25.2633  -13.8245   20.5754 C   0  0  0  0  0  0  0  0  0106  0  0
  -24.1645  -13.0409   20.9408 C   0  0  0  0  0  0  0  0  0107  0  0
  -24.6400  -11.7009   20.8697 C   0  0  0  0  0  0  0  0  0108  0  0
  -23.9005  -10.4085   21.0420 C   0  0  0  0  0  0  0  0  0109  0  0
  -24.3588   -9.4123   21.9123 C   0  0  0  0  0  0  0  0  0110  0  0
  -23.6296   -8.2350   22.0803 C   0  0  0  0  0  0  0  0  0111  0  0
  -22.4385   -8.0419   21.3657 C   0  0  0  0  0  0  0  0  0112  0  0
  -22.0103   -9.0167   20.4678 C   0  0  0  0  0  0  0  0  0113  0  0
  -22.7317  -10.1925   20.3102 C   0  0  0  0  0  0  0  0  0114  0  0
  -21.6857   -6.0709   22.5391 C   0  0  0  0  0  0  0  0  0115  0  0
  -21.4064   -6.5490   23.8264 C   0  0  0  0  0  0  0  0  0116  0  0
  -21.3635   -5.6677   24.9085 C   0  0  0  0  0  0  0  0  0117  0  0
  -21.5973   -4.3067   24.7088 C   0  0  0  0  0  0  0  0  0118  0  0
  -21.8700   -3.8284   23.4282 C   0  0  0  0  0  0  0  0  0119  0  0
  -21.9144   -4.7056   22.3460 C   0  0  0  0  0  0  0  0  0120  0  0
  -22.8194  -13.5263   21.1763 C   0  0  0  0  0  0  0  0  0121  0  0
  -22.1559   -4.2206   21.1063 F   0  0  0  0  0  0  0  0  0122  0  0
  -21.5628   -3.4510   25.7555 F   0  0  0  0  0  0  0  0  0123  0  0
  -30.0261  -13.1803   20.4553 N   0  0  0  0  0  0  0  0  0124  0  0
  -26.2911  -12.9356   20.3443 N   0  0  0  0  0  0  0  0  0125  0  0
  -25.9236  -11.6675   20.5847 N   0  0  0  0  0  0  0  0  0126  0  0
  -22.0708  -12.7905   22.0005 N   0  0  0  0  0  0  0  0  0127  0  0
  -25.4117  -15.1773   20.4097 N   0  0  0  0  0  0  0  0  0128  0  0
  -31.7916  -14.6724   20.0536 O   0  0  0  0  0  0  0  0  0129  0  0
  -21.6670   -6.9022   21.4423 O   0  0  0  0  0  0  0  0  0130  0  0
  -22.3946  -14.5564   20.6568 O   0  0  0  0  0  0  0  0  0131  0  0
  -24.6048  -31.8614   23.2223 C   0  0  0  0  0  0  0  0  0100  0  0
  -25.8822  -32.4841   23.8616 C   0  0  1  0  0  0  0  0  0101  0  0
  -27.2536  -27.5042   20.1156 C   0  0  0  0  0  0  0  0  0102  0  0
  -25.5726  -33.8762   24.2210 N   0  0  0  0  0  0  0  0  0103  0  0
  -23.4066  -30.4859   21.5461 C   0  0  2  0  0  0  0  0  0104  0  0
  -24.8467  -28.9636   20.1247 C   0  0  0  0  0  0  0  0  0105  0  0
  -22.7412  -29.4652   22.5052 C   0  0  0  0  0  0  0  0  0106  0  0
  -18.0167  -28.1302   22.8626 C   0  0  0  0  0  0  0  0  0107  0  0
  -24.1342  -36.7390   23.2568 C   0  0  0  0  0  0  0  0  0108  0  0
  -25.9141  -30.8882   21.3456 C   0  0  0  0  0  0  0  0  0109  0  0
  -25.9930  -29.5029   20.7208 C   0  0  0  0  0  0  0  0  0110  0  0
  -27.1758  -28.7612   20.7331 C   0  0  0  0  0  0  0  0  0111  0  0
  -26.1032  -26.9836   19.5230 C   0  0  0  0  0  0  0  0  0112  0  0
  -24.9097  -27.7011   19.5331 C   0  0  0  0  0  0  0  0  0113  0  0
  -23.5715  -29.7899   20.1582 C   0  0  0  0  0  0  0  0  0114  0  0
  -25.3990  -36.3212   24.0232 C   0  0  1  0  0  0  0  0  0115  0  0
  -20.5793  -28.3813   23.1004 C   0  0  2  0  0  0  0  0  0116  0  0
  -20.6548  -26.9392   22.5411 C   0  0  0  0  0  0  0  0  0117  0  0
  -19.5615  -26.6407   21.5143 C   0  0  0  0  0  0  0  0  0118  0  0
  -18.1797  -26.7818   22.1673 C   0  0  0  0  0  0  0  0  0119  0  0
  -19.1385  -28.8769   23.2988 C   0  0  0  0  0  0  0  0  0120  0  0
  -18.9183  -30.1286   23.8878 C   0  0  0  0  0  0  0  0  0121  0  0
  -17.6396  -30.6493   24.0352 C   0  0  0  0  0  0  0  0  0122  0  0
  -25.9153  -34.9582   23.4993 C   0  0  0  0  0  0  0  0  0123  0  0
  -16.5415  -29.9068   23.6254 C   0  0  0  0  0  0  0  0  0124  0  0
  -16.7331  -28.6521   23.0586 C   0  0  0  0  0  0  0  0  0125  0  0
  -26.4583  -31.6439   25.0683 C   0  0  0  0  0  0  0  0  0126  0  0
  -25.3807  -31.3179   26.1374 C   0  0  0  0  0  0  0  0  0127  0  0
  -27.0530  -30.3024   24.5680 C   0  0  0  0  0  0  0  0  0128  0  0
  -27.6014  -32.4281   25.7651 C   0  0  0  0  0  0  0  0  0129  0  0
  -27.5629  -37.2220   24.8621 C   0  0  0  0  0  0  0  0  0130  0  0
  -21.4133  -29.3375   22.3735 N   0  0  0  0  0  0  0  0  0131  0  0
  -26.4706  -37.3372   23.9061 N   0  0  0  0  0  0  0  0  0132  0  0
  -24.6674  -31.0544   22.1178 N   0  0  0  0  0  0  0  0  0133  0  0
  -23.4259  -28.8150   23.2971 O   0  0  0  0  0  0  0  0  0134  0  0
  -28.3948  -26.7345   20.0089 O   0  0  0  0  0  0  0  0  0135  0  0
  -26.5870  -34.9065   22.4671 O   0  0  0  0  0  0  0  0  0136  0  0
  -23.5365  -32.1254   23.7833 O   0  0  0  0  0  0  0  0  0137  0  0
  -27.8575  -21.1234   20.5419 C   0  0  0  0  0  0  0  0  0  0  0  0
  -28.7672  -22.0000   22.6012 C   0  0  0  0  0  0  0  0  0  0  0  0
  -28.4140  -20.9118   21.8032 C   0  0  0  0  0  0  0  0  0  0  0  0
  -27.6542  -22.4232   20.0784 C   0  0  0  0  0  0  0  0  0  0  0  0
  -28.5638  -23.2998   22.1377 C   0  0  0  0  0  0  0  0  0  0  0  0
  -28.0073  -23.5114   20.8763 C   0  0  0  0  0  0  0  0  0  0  0  0
  -27.0555  -22.6226   18.7243 C   0  0  0  0  0  0  0  0  0  0  0  0
  -28.9505  -24.4481   23.0117 C   0  0  0  0  0  0  0  0  0  0  0  0
  -28.6320  -19.5221   22.2985 C   0  0  0  0  0  0  0  0  0  0  0  0
  -27.7881  -24.9095   20.3777 C   0  0  0  0  0  0  0  0  0  1  0  0
  -30.0176  -18.9794   21.9171 C   0  0  0  0  0  0  0  0  0  0  0  0
  -30.2153  -17.5396   22.3957 C   0  0  0  0  0  0  0  0  0  0  0  0
  -31.6140  -17.0245   22.0438 C   0  0  0  0  0  0  0  0  0  0  0  0
  -31.8394  -15.5855   22.4960 C   0  0  0  0  0  0  0  0  0  0  0  0
  -30.9211  -14.6603   21.8702 N   0  0  0  0  0  0  0  0  0  0  0  0
  -31.4485  -12.4701   19.0860 H   0  0  0  0  0  0  0  0  0  0  0  0
  -30.3970  -11.2460   19.6950 H   0  0  0  0  0  0  0  0  0  0  0  0
  -29.6870  -11.8204   17.4226 H   0  0  0  0  0  0  0  0  0  0  0  0
  -29.6375  -13.5326   17.8649 H   0  0  0  0  0  0  0  0  0  0  0  0
  -27.7830  -11.3650   18.7904 H   0  0  0  0  0  0  0  0  0  0  0  0
  -27.4028  -12.7801   17.8021 H   0  0  0  0  0  0  0  0  0  0  0  0
  -27.7353  -14.2503   19.6136 H   0  0  0  0  0  0  0  0  0  0  0  0
  -28.5890  -11.9550   21.3832 H   0  0  0  0  0  0  0  0  0  0  0  0
  -28.5005  -13.6134   21.8562 H   0  0  0  0  0  0  0  0  0  0  0  0
  -25.2399   -9.5495   22.4318 H   0  0  0  0  0  0  0  0  0  0  0  0
  -23.9663   -7.5070   22.7297 H   0  0  0  0  0  0  0  0  0  0  0  0
  -21.1515   -8.8641   19.9162 H   0  0  0  0  0  0  0  0  0  0  0  0
  -22.4016  -10.9115   19.6476 H   0  0  0  0  0  0  0  0  0  0  0  0
  -21.2319   -7.5552   23.9750 H   0  0  0  0  0  0  0  0  0  0  0  0
  -21.1589   -6.0228   25.8556 H   0  0  0  0  0  0  0  0  0  0  0  0
  -22.0396   -2.8212   23.2809 H   0  0  0  0  0  0  0  0  0  0  0  0
  -22.4401  -11.9703   22.4008 H   0  0  0  0  0  0  0  0  0  0  0  0
  -21.1493  -13.0679   22.2082 H   0  0  0  0  0  0  0  0  0  0  0  0
  -24.6538  -15.7807   20.5848 H   0  0  0  0  0  0  0  0  0  0  0  0
  -26.2762  -15.5453   20.1156 H   0  0  0  0  0  0  0  0  0  0  0  0
  -26.6778  -32.4663   23.1464 H   0  0  0  0  0  0  0  0  0  0  0  0
  -25.0747  -34.0282   25.0566 H   0  0  0  0  0  0  0  0  0  0  0  0
  -22.7881  -31.3489   21.4131 H   0  0  0  0  0  0  0  0  0  0  0  0
  -23.3854  -35.9823   23.3648 H   0  0  0  0  0  0  0  0  0  0  0  0
  -24.3696  -36.8624   22.2204 H   0  0  0  0  0  0  0  0  0  0  0  0
  -23.7669  -37.6632   23.6516 H   0  0  0  0  0  0  0  0  0  0  0  0
  -25.9445  -31.6237   20.5691 H   0  0  0  0  0  0  0  0  0  0  0  0
  -26.7436  -31.0079   22.0108 H   0  0  0  0  0  0  0  0  0  0  0  0
  -28.0090  -29.1452   21.2057 H   0  0  0  0  0  0  0  0  0  0  0  0
  -26.1369  -26.0560   19.0719 H   0  0  0  0  0  0  0  0  0  0  0  0
  -24.0652  -27.2961   19.0997 H   0  0  0  0  0  0  0  0  0  0  0  0
  -23.6156  -30.5365   19.3930 H   0  0  0  0  0  0  0  0  0  0  0  0
  -22.7355  -29.1425   19.9945 H   0  0  0  0  0  0  0  0  0  0  0  0
  -25.1353  -36.2335   25.0565 H   0  0  0  0  0  0  0  0  0  0  0  0
  -21.0070  -28.3206   24.0793 H   0  0  0  0  0  0  0  0  0  0  0  0
  -20.5555  -26.2518   23.3550 H   0  0  0  0  0  0  0  0  0  0  0  0
  -21.5974  -26.8362   22.0454 H   0  0  0  0  0  0  0  0  0  0  0  0
  -19.6810  -25.6422   21.1488 H   0  0  0  0  0  0  0  0  0  0  0  0
  -19.6406  -27.3343   20.7034 H   0  0  0  0  0  0  0  0  0  0  0  0
  -17.4282  -26.6888   21.4113 H   0  0  0  0  0  0  0  0  0  0  0  0
  -18.0803  -26.0130   22.9049 H   0  0  0  0  0  0  0  0  0  0  0  0
  -19.7265  -30.6774   24.2204 H   0  0  0  0  0  0  0  0  0  0  0  0
  -17.5064  -31.5856   24.4483 H   0  0  0  0  0  0  0  0  0  0  0  0
  -15.5878  -30.2839   23.7407 H   0  0  0  0  0  0  0  0  0  0  0  0
  -15.9120  -28.0941   22.7766 H   0  0  0  0  0  0  0  0  0  0  0  0
  -24.5787  -30.7757   25.6817 H   0  0  0  0  0  0  0  0  0  0  0  0
  -25.0041  -32.2289   26.5536 H   0  0  0  0  0  0  0  0  0  0  0  0
  -25.8166  -30.7245   26.9138 H   0  0  0  0  0  0  0  0  0  0  0  0
  -26.2892  -29.7335   24.0803 H   0  0  0  0  0  0  0  0  0  0  0  0
  -27.4336  -29.7484   25.4006 H   0  0  0  0  0  0  0  0  0  0  0  0
  -27.8466  -30.4994   23.8779 H   0  0  0  0  0  0  0  0  0  0  0  0
  -27.2251  -33.3632   26.1242 H   0  0  0  0  0  0  0  0  0  0  0  0
  -28.3902  -32.6065   25.0645 H   0  0  0  0  0  0  0  0  0  0  0  0
  -27.9772  -31.8555   26.5872 H   0  0  0  0  0  0  0  0  0  0  0  0
  -28.2744  -38.0016   24.6863 H   0  0  0  0  0  0  0  0  0  0  0  0
  -28.0396  -36.2711   24.7461 H   0  0  0  0  0  0  0  0  0  0  0  0
  -27.1773  -37.3087   25.8564 H   0  0  0  0  0  0  0  0  0  0  0  0
  -20.9627  -29.9365   21.7352 H   0  0  0  0  0  0  0  0  0  0  0  0
  -26.0447  -38.2561   24.0273 H   0  0  0  0  0  0  0  0  0  0  0  0
  -27.5961  -20.3183   19.9516 H   0  0  0  0  0  0  0  0  0  0  0  0
  -29.1790  -21.8434   23.5345 H   0  0  0  0  0  0  0  0  0  0  0  0
  -26.8579  -21.6704   18.2780 H   0  0  0  0  0  0  0  0  0  0  0  0
  -27.7389  -23.1699   18.1092 H   0  0  0  0  0  0  0  0  0  0  0  0
  -26.1409  -23.1703   18.8158 H   0  0  0  0  0  0  0  0  0  0  0  0
  -29.3554  -24.0769   23.9299 H   0  0  0  0  0  0  0  0  0  0  0  0
  -28.0872  -25.0456   23.2183 H   0  0  0  0  0  0  0  0  0  0  0  0
  -29.6858  -25.0442   22.5128 H   0  0  0  0  0  0  0  0  0  0  0  0
  -27.8841  -18.8845   21.8755 H   0  0  0  0  0  0  0  0  0  0  0  0
  -28.5698  -19.5411   23.3665 H   0  0  0  0  0  0  0  0  0  0  0  0
  -26.9464  -25.1548   20.9912 H   0  0  0  0  0  0  0  0  0  0  0  0
  -28.2183  -24.6110   19.4446 H   0  0  0  0  0  0  0  0  0  0  0  0
  -30.7671  -19.5988   22.3636 H   0  0  0  0  0  0  0  0  0  0  0  0
  -30.0964  -18.9890   20.8500 H   0  0  0  0  0  0  0  0  0  0  0  0
  -29.4850  -16.9131   21.9277 H   0  0  0  0  0  0  0  0  0  0  0  0
  -30.1051  -17.5188   23.4598 H   0  0  0  0  0  0  0  0  0  0  0  0
  -32.3396  -17.6509   22.5192 H   0  0  0  0  0  0  0  0  0  0  0  0
  -31.7099  -17.0484   20.9784 H   0  0  0  0  0  0  0  0  0  0  0  0
  -31.7090  -15.5343   23.5568 H   0  0  0  0  0  0  0  0  0  0  0  0
  -32.8312  -15.3050   22.2087 H   0  0  0  0  0  0  0  0  0  0  0  0
  -30.3213  -14.1895   22.4930 H   0  0  0  0  0  0  0  0  0  0  0  0
  1 25  1  0
  1 30  2  0
  1 85  1  0
  2  3  1  0
  2 25  1  0
  2 86  1  0
  2 87  1  0
  3  4  1  0
  3 88  1  0
  3 89  1  0
  4  5  1  0
  4 90  1  0
  4 91  1  0
  5  6  1  0
  5 26  1  0
  5 92  1  6
  6 25  1  0
  6 93  1  0
  6 94  1  0
  7  8  2  0
  7 26  1  0
  7 29  1  0
  8  9  1  0
  8 22  1  0
  9 10  1  0
  9 27  2  0
 10 11  2  0
 10 15  1  0
 11 12  1  0
 11 95  1  0
 12 13  2  0
 12 96  1  0
 13 14  1  0
 13 31  1  0
 14 15  2  0
 14 97  1  0
 15 98  1  0
 16 17  2  0
 16 21  1  0
 16 31  1  0
 17 18  1  0
 17 99  1  0
 18 19  2  0
 18100  1  0
 19 20  1  0
 19 24  1  0
 20 21  2  0
 20101  1  0
 21 23  1  0
 22 28  1  0
 22 32  2  0
 26 27  1  0
 28102  1  0
 28103  1  0
 29104  1  0
 29105  1  0
 33 34  1  0
 33 66  1  0
 33 70  2  0
 34 36  1  0
 34 59  1  0
 34106  1  6
 35 44  2  0
 35 45  1  0
 35 68  1  0
 36 56  1  0
 36107  1  0
 37 39  1  0
 37 47  1  0
 37 66  1  0
 37108  1  6
 38 43  2  0
 38 46  1  0
 38 47  1  0
 39 64  1  0
 39 67  2  0
 40 52  1  0
 40 53  2  0
 40 58  1  0
 41109  1  0
 41110  1  0
 41111  1  0
 42 43  1  0
 42 66  1  0
 42112  1  0
 42113  1  0
 43 44  1  0
 44114  1  0
 45 46  2  0
 45115  1  0
 46116  1  0
 47117  1  0
 47118  1  0
 48 41  1  0
 48 56  1  0
 48 65  1  0
 48119  1  1
 49 50  1  0
 49 53  1  0
 49 64  1  0
 49120  1  1
 50 51  1  0
 50121  1  0
 50122  1  0
 51 52  1  0
 51123  1  0
 51124  1  0
 52125  1  0
 52126  1  0
 53 54  1  0
 54 55  2  0
 54127  1  0
 55 57  1  0
 55128  1  0
 56 69  2  0
 57 58  2  0
 57129  1  0
 58130  1  0
 59 60  1  0
 59 61  1  0
 59 62  1  0
 60131  1  0
 60132  1  0
 60133  1  0
 61134  1  0
 61135  1  0
 61136  1  0
 62137  1  0
 62138  1  0
 62139  1  0
 63 65  1  0
 63140  1  0
 63141  1  0
 63142  1  0
 64143  1  0
 65144  1  0
 68 80  1  0
 71 73  2  0
 71 74  1  0
 71145  1  0
 72 73  1  0
 72 75  2  0
 72146  1  0
 73 79  1  0
 74 76  2  0
 74 77  1  0
 75 76  1  0
 75 78  1  0
 76 80  1  0
 77147  1  0
 77148  1  0
 77149  1  0
 78150  1  0
 78151  1  0
 78152  1  0
 79 81  1  0
 79153  1  0
 79154  1  0
 80155  1  0
 80156  1  0
 81 82  1  0
 81157  1  0
 81158  1  0
 82 83  1  0
 82159  1  0
 82160  1  0
 83 84  1  0
 83161  1  0
 83162  1  0
 84 85  1  0
 84163  1  0
 84164  1  0
 85165  1  0
M  ISO  4   1 100  68 101  80 101  85 100
M  END
$$$$
43
     RDKit          3D

157165  0  0  0  0  0  0  0  0999 V2000
  -30.7652  -14.3608   20.6636 C   0  0  0  0  0  0  0  0  0100  0  0
  -30.4392  -12.2669   19.3775 C   0  0  0  0  0  0  0  0  0101  0  0
  -29.4791  -12.5281   18.1977 C   0  0  0  0  0  0  0  0  0102  0  0
  -27.9985  -12.3963   18.6038 C   0  0  0  0  0  0  0  0  0103  0  0
  -27.6639  -13.2170   19.8820 C   0  0  2  0  0  0  0  0  0104  0  0
  -28.6795  -12.9602   21.0279 C   0  0  0  0  0  0  0  0  0105  0  0
  -25.2633  -13.8245   20.5754 C   0  0  0  0  0  0  0  0  0106  0  0
  -24.1645  -13.0409   20.9408 C   0  0  0  0  0  0  0  0  0107  0  0
  -24.6400  -11.7009   20.8697 C   0  0  0  0  0  0  0  0  0108  0  0
  -23.9005  -10.4085   21.0420 C   0  0  0  0  0  0  0  0  0109  0  0
  -24.3588   -9.4123   21.9123 C   0  0  0  0  0  0  0  0  0110  0  0
  -23.6296   -8.2350   22.0803 C   0  0  0  0  0  0  0  0  0111  0  0
  -22.4385   -8.0419   21.3657 C   0  0  0  0  0  0  0  0  0112  0  0
  -22.0103   -9.0167   20.4678 C   0  0  0  0  0  0  0  0  0113  0  0
  -22.7317  -10.1925   20.3102 C   0  0  0  0  0  0  0  0  0114  0  0
  -21.6857   -6.0709   22.5391 C   0  0  0  0  0  0  0  0  0115  0  0
  -21.4064   -6.5490   23.8264 C   0  0  0  0  0  0  0  0  0116  0  0
  -21.3635   -5.6677   24.9085 C   0  0  0  0  0  0  0  0  0117  0  0
  -21.5973   -4.3067   24.7088 C   0  0  0  0  0  0  0  0  0118  0  0
  -21.8700   -3.8284   23.4282 C   0  0  0  0  0  0  0  0  0119  0  0
  -21.9144   -4.7056   22.3460 C   0  0  0  0  0  0  0  0  0120  0  0
  -22.8194  -13.5263   21.1763 C   0  0  0  0  0  0  0  0  0121  0  0
  -22.1559   -4.2206   21.1063 F   0  0  0  0  0  0  0  0  0122  0  0
  -21.5628   -3.4510   25.7555 F   0  0  0  0  0  0  0  0  0123  0  0
  -30.0261  -13.1803   20.4553 N   0  0  0  0  0  0  0  0  0124  0  0
  -26.2911  -12.9356   20.3443 N   0  0  0  0  0  0  0  0  0125  0  0
  -25.9236  -11.6675   20.5847 N   0  0  0  0  0  0  0  0  0126  0  0
  -22.0708  -12.7905   22.0005 N   0  0  0  0  0  0  0  0  0127  0  0
  -25.4117  -15.1773   20.4097 N   0  0  0  0  0  0  0  0  0128  0  0
  -31.7916  -14.6724   20.0536 O   0  0  0  0  0  0  0  0  0129  0  0
  -21.6670   -6.9022   21.4423 O   0  0  0  0  0  0  0  0  0130  0  0
  -22.3946  -14.5564   20.6568 O   0  0  0  0  0  0  0  0  0131  0  0
  -24.6048  -31.8614   23.2223 C   0  0  0  0  0  0  0  0  0100  0  0
  -25.8822  -32.4841   23.8616 C   0  0  1  0  0  0  0  0  0101  0  0
  -27.2536  -27.5042   20.1156 C   0  0  0  0  0  0  0  0  0102  0  0
  -25.5726  -33.8762   24.2210 N   0  0  0  0  0  0  0  0  0103  0  0
  -23.4066  -30.4859   21.5461 C   0  0  2  0  0  0  0  0  0104  0  0
  -24.8467  -28.9636   20.1247 C   0  0  0  0  0  0  0  0  0105  0  0
  -22.7412  -29.4652   22.5052 C   0  0  0  0  0  0  0  0  0106  0  0
  -18.0167  -28.1302   22.8626 C   0  0  0  0  0  0  0  0  0107  0  0
  -24.1342  -36.7390   23.2568 C   0  0  0  0  0  0  0  0  0108  0  0
  -25.9141  -30.8882   21.3456 C   0  0  0  0  0  0  0  0  0109  0  0
  -25.9930  -29.5029   20.7208 C   0  0  0  0  0  0  0  0  0110  0  0
  -27.1758  -28.7612   20.7331 C   0  0  0  0  0  0  0  0  0111  0  0
  -26.1032  -26.9836   19.5230 C   0  0  0  0  0  0  0  0  0112  0  0
  -24.9097  -27.7011   19.5331 C   0  0  0  0  0  0  0  0  0113  0  0
  -23.5715  -29.7899   20.1582 C   0  0  0  0  0  0  0  0  0114  0  0
  -25.3990  -36.3212   24.0232 C   0  0  1  0  0  0  0  0  0115  0  0
  -20.5793  -28.3813   23.1004 C   0  0  2  0  0  0  0  0  0116  0  0
  -20.6548  -26.9392   22.5411 C   0  0  0  0  0  0  0  0  0117  0  0
  -19.5615  -26.6407   21.5143 C   0  0  0  0  0  0  0  0  0118  0  0
  -18.1797  -26.7818   22.1673 C   0  0  0  0  0  0  0  0  0119  0  0
  -19.1385  -28.8769   23.2988 C   0  0  0  0  0  0  0  0  0120  0  0
  -18.9183  -30.1286   23.8878 C   0  0  0  0  0  0  0  0  0121  0  0
  -17.6396  -30.6493   24.0352 C   0  0  0  0  0  0  0  0  0122  0  0
  -25.9153  -34.9582   23.4993 C   0  0  0  0  0  0  0  0  0123  0  0
  -16.5415  -29.9068   23.6254 C   0  0  0  0  0  0  0  0  0124  0  0
  -16.7331  -28.6521   23.0586 C   0  0  0  0  0  0  0  0  0125  0  0
  -26.4583  -31.6439   25.0683 C   0  0  0  0  0  0  0  0  0126  0  0
  -25.3807  -31.3179   26.1374 C   0  0  0  0  0  0  0  0  0127  0  0
  -27.0530  -30.3024   24.5680 C   0  0  0  0  0  0  0  0  0128  0  0
  -27.6014  -32.4281   25.7651 C   0  0  0  0  0  0  0  0  0129  0  0
  -27.5629  -37.2220   24.8621 C   0  0  0  0  0  0  0  0  0130  0  0
  -21.4133  -29.3375   22.3735 N   0  0  0  0  0  0  0  0  0131  0  0
  -26.4706  -37.3372   23.9061 N   0  0  0  0  0  0  0  0  0132  0  0
  -24.6674  -31.0544   22.1178 N   0  0  0  0  0  0  0  0  0133  0  0
  -23.4259  -28.8150   23.2971 O   0  0  0  0  0  0  0  0  0134  0  0
  -28.3948  -26.7345   20.0089 O   0  0  0  0  0  0  0  0  0135  0  0
  -26.5870  -34.9065   22.4671 O   0  0  0  0  0  0  0  0  0136  0  0
  -23.5365  -32.1254   23.7833 O   0  0  0  0  0  0  0  0  0137  0  0
  -23.1148  -23.8981   22.4791 C   0  0  0  0  0  0  0  0  0  0  0  0
  -24.1579  -21.7318   22.4185 C   0  0  0  0  0  0  0  0  0  0  0  0
  -24.2599  -23.1175   22.3660 C   0  0  0  0  0  0  0  0  0  0  0  0
  -21.9013  -23.2495   22.6418 C   0  0  0  0  0  0  0  0  0  0  0  0
  -22.8977  -21.1802   22.5842 C   0  0  0  0  0  0  0  0  0  0  0  0
  -25.5912  -23.7647   22.1879 C   0  0  0  0  0  0  0  0  0  0  0  0
  -20.6388  -24.0637   22.7718 C   0  0  0  0  0  0  0  0  0  0  0  0
  -26.3226  -24.0798   23.5026 C   0  0  0  0  0  0  0  0  0  0  0  0
  -19.9540  -24.3561   21.4350 C   0  0  0  0  0  0  0  0  0  0  0  0
  -26.5310  -22.8513   24.3806 C   0  0  0  0  0  0  0  0  0  0  0  0
  -20.7997  -25.2101   20.4975 C   0  0  0  0  0  0  0  0  0  1  0  0
  -21.7627  -21.9059   22.6975 N   0  0  0  0  0  0  0  0  0  0  0  0
  -27.3299  -21.9035   23.6631 O   0  0  0  0  0  0  0  0  0  0  0  0
  -22.6771  -19.4802   22.6602 Cl  0  0  0  0  0  0  0  0  0  0  0  0
  -31.4485  -12.4701   19.0860 H   0  0  0  0  0  0  0  0  0  0  0  0
  -30.3970  -11.2460   19.6950 H   0  0  0  0  0  0  0  0  0  0  0  0
  -29.6870  -11.8204   17.4226 H   0  0  0  0  0  0  0  0  0  0  0  0
  -29.6375  -13.5326   17.8649 H   0  0  0  0  0  0  0  0  0  0  0  0
  -27.7830  -11.3650   18.7904 H   0  0  0  0  0  0  0  0  0  0  0  0
  -27.4028  -12.7801   17.8021 H   0  0  0  0  0  0  0  0  0  0  0  0
  -27.7353  -14.2503   19.6136 H   0  0  0  0  0  0  0  0  0  0  0  0
  -28.5890  -11.9550   21.3832 H   0  0  0  0  0  0  0  0  0  0  0  0
  -28.5005  -13.6134   21.8562 H   0  0  0  0  0  0  0  0  0  0  0  0
  -25.2399   -9.5495   22.4318 H   0  0  0  0  0  0  0  0  0  0  0  0
  -23.9663   -7.5070   22.7297 H   0  0  0  0  0  0  0  0  0  0  0  0
  -21.1515   -8.8641   19.9162 H   0  0  0  0  0  0  0  0  0  0  0  0
  -22.4016  -10.9115   19.6476 H   0  0  0  0  0  0  0  0  0  0  0  0
  -21.2319   -7.5552   23.9750 H   0  0  0  0  0  0  0  0  0  0  0  0
  -21.1589   -6.0228   25.8556 H   0  0  0  0  0  0  0  0  0  0  0  0
  -22.0396   -2.8212   23.2809 H   0  0  0  0  0  0  0  0  0  0  0  0
  -22.4401  -11.9703   22.4008 H   0  0  0  0  0  0  0  0  0  0  0  0
  -21.1493  -13.0679   22.2082 H   0  0  0  0  0  0  0  0  0  0  0  0
  -24.6538  -15.7807   20.5848 H   0  0  0  0  0  0  0  0  0  0  0  0
  -26.2762  -15.5453   20.1156 H   0  0  0  0  0  0  0  0  0  0  0  0
  -26.6778  -32.4663   23.1464 H   0  0  0  0  0  0  0  0  0  0  0  0
  -25.0747  -34.0282   25.0566 H   0  0  0  0  0  0  0  0  0  0  0  0
  -22.7881  -31.3489   21.4131 H   0  0  0  0  0  0  0  0  0  0  0  0
  -23.3854  -35.9823   23.3648 H   0  0  0  0  0  0  0  0  0  0  0  0
  -24.3696  -36.8624   22.2204 H   0  0  0  0  0  0  0  0  0  0  0  0
  -23.7669  -37.6632   23.6516 H   0  0  0  0  0  0  0  0  0  0  0  0
  -25.9445  -31.6237   20.5691 H   0  0  0  0  0  0  0  0  0  0  0  0
  -26.7436  -31.0079   22.0108 H   0  0  0  0  0  0  0  0  0  0  0  0
  -28.0090  -29.1452   21.2057 H   0  0  0  0  0  0  0  0  0  0  0  0
  -26.1369  -26.0560   19.0719 H   0  0  0  0  0  0  0  0  0  0  0  0
  -24.0652  -27.2961   19.0997 H   0  0  0  0  0  0  0  0  0  0  0  0
  -23.6156  -30.5365   19.3930 H   0  0  0  0  0  0  0  0  0  0  0  0
  -22.7355  -29.1425   19.9945 H   0  0  0  0  0  0  0  0  0  0  0  0
  -25.1353  -36.2335   25.0565 H   0  0  0  0  0  0  0  0  0  0  0  0
  -21.0070  -28.3206   24.0793 H   0  0  0  0  0  0  0  0  0  0  0  0
  -20.5555  -26.2518   23.3550 H   0  0  0  0  0  0  0  0  0  0  0  0
  -21.5974  -26.8362   22.0454 H   0  0  0  0  0  0  0  0  0  0  0  0
  -19.6810  -25.6422   21.1488 H   0  0  0  0  0  0  0  0  0  0  0  0
  -19.6406  -27.3343   20.7034 H   0  0  0  0  0  0  0  0  0  0  0  0
  -17.4282  -26.6888   21.4113 H   0  0  0  0  0  0  0  0  0  0  0  0
  -18.0803  -26.0130   22.9049 H   0  0  0  0  0  0  0  0  0  0  0  0
  -19.7265  -30.6774   24.2204 H   0  0  0  0  0  0  0  0  0  0  0  0
  -17.5064  -31.5856   24.4483 H   0  0  0  0  0  0  0  0  0  0  0  0
  -15.5878  -30.2839   23.7407 H   0  0  0  0  0  0  0  0  0  0  0  0
  -15.9120  -28.0941   22.7766 H   0  0  0  0  0  0  0  0  0  0  0  0
  -24.5787  -30.7757   25.6817 H   0  0  0  0  0  0  0  0  0  0  0  0
  -25.0041  -32.2289   26.5536 H   0  0  0  0  0  0  0  0  0  0  0  0
  -25.8166  -30.7245   26.9138 H   0  0  0  0  0  0  0  0  0  0  0  0
  -26.2892  -29.7335   24.0803 H   0  0  0  0  0  0  0  0  0  0  0  0
  -27.4336  -29.7484   25.4006 H   0  0  0  0  0  0  0  0  0  0  0  0
  -27.8466  -30.4994   23.8779 H   0  0  0  0  0  0  0  0  0  0  0  0
  -27.2251  -33.3632   26.1242 H   0  0  0  0  0  0  0  0  0  0  0  0
  -28.3902  -32.6065   25.0645 H   0  0  0  0  0  0  0  0  0  0  0  0
  -27.9772  -31.8555   26.5872 H   0  0  0  0  0  0  0  0  0  0  0  0
  -28.2744  -38.0016   24.6863 H   0  0  0  0  0  0  0  0  0  0  0  0
  -28.0396  -36.2711   24.7461 H   0  0  0  0  0  0  0  0  0  0  0  0
  -27.1773  -37.3087   25.8564 H   0  0  0  0  0  0  0  0  0  0  0  0
  -20.9627  -29.9365   21.7352 H   0  0  0  0  0  0  0  0  0  0  0  0
  -26.0447  -38.2561   24.0273 H   0  0  0  0  0  0  0  0  0  0  0  0
  -23.1671  -24.9281   22.4430 H   0  0  0  0  0  0  0  0  0  0  0  0
  -24.9944  -21.1330   22.3366 H   0  0  0  0  0  0  0  0  0  0  0  0
  -25.4493  -24.6818   21.6553 H   0  0  0  0  0  0  0  0  0  0  0  0
  -26.2030  -23.0657   21.6570 H   0  0  0  0  0  0  0  0  0  0  0  0
  -20.8845  -24.9958   23.2363 H   0  0  0  0  0  0  0  0  0  0  0  0
  -19.9526  -23.4851   23.3543 H   0  0  0  0  0  0  0  0  0  0  0  0
  -25.7457  -24.7956   24.0500 H   0  0  0  0  0  0  0  0  0  0  0  0
  -27.2907  -24.4567   23.2465 H   0  0  0  0  0  0  0  0  0  0  0  0
  -19.0367  -24.8716   21.6291 H   0  0  0  0  0  0  0  0  0  0  0  0
  -19.7938  -23.4163   20.9491 H   0  0  0  0  0  0  0  0  0  0  0  0
  -25.5837  -22.4153   24.6203 H   0  0  0  0  0  0  0  0  0  0  0  0
  -27.0247  -23.1313   25.2877 H   0  0  0  0  0  0  0  0  0  0  0  0
  -20.3630  -26.1821   20.5945 H   0  0  0  0  0  0  0  0  0  0  0  0
  -20.7800  -24.5186   19.6812 H   0  0  0  0  0  0  0  0  0  0  0  0
  1 25  1  0
  1 30  2  0
  1 83  1  0
  2  3  1  0
  2 25  1  0
  2 85  1  0
  2 86  1  0
  3  4  1  0
  3 87  1  0
  3 88  1  0
  4  5  1  0
  4 89  1  0
  4 90  1  0
  5  6  1  0
  5 26  1  0
  5 91  1  6
  6 25  1  0
  6 92  1  0
  6 93  1  0
  7  8  2  0
  7 26  1  0
  7 29  1  0
  8  9  1  0
  8 22  1  0
  9 10  1  0
  9 27  2  0
 10 11  2  0
 10 15  1  0
 11 12  1  0
 11 94  1  0
 12 13  2  0
 12 95  1  0
 13 14  1  0
 13 31  1  0
 14 15  2  0
 14 96  1  0
 15 97  1  0
 16 17  2  0
 16 21  1  0
 16 31  1  0
 17 18  1  0
 17 98  1  0
 18 19  2  0
 18 99  1  0
 19 20  1  0
 19 24  1  0
 20 21  2  0
 20100  1  0
 21 23  1  0
 22 28  1  0
 22 32  2  0
 26 27  1  0
 28101  1  0
 28102  1  0
 29103  1  0
 29104  1  0
 33 34  1  0
 33 66  1  0
 33 70  2  0
 34 36  1  0
 34 59  1  0
 34105  1  6
 35 44  2  0
 35 45  1  0
 35 68  1  0
 36 56  1  0
 36106  1  0
 37 39  1  0
 37 47  1  0
 37 66  1  0
 37107  1  6
 38 43  2  0
 38 46  1  0
 38 47  1  0
 39 64  1  0
 39 67  2  0
 40 52  1  0
 40 53  2  0
 40 58  1  0
 41108  1  0
 41109  1  0
 41110  1  0
 42 43  1  0
 42 66  1  0
 42111  1  0
 42112  1  0
 43 44  1  0
 44113  1  0
 45 46  2  0
 45114  1  0
 46115  1  0
 47116  1  0
 47117  1  0
 48 41  1  0
 48 56  1  0
 48 65  1  0
 48118  1  1
 49 50  1  0
 49 53  1  0
 49 64  1  0
 49119  1  1
 50 51  1  0
 50120  1  0
 50121  1  0
 51 52  1  0
 51122  1  0
 51123  1  0
 52124  1  0
 52125  1  0
 53 54  1  0
 54 55  2  0
 54126  1  0
 55 57  1  0
 55127  1  0
 56 69  2  0
 57 58  2  0
 57128  1  0
 58129  1  0
 59 60  1  0
 59 61  1  0
 59 62  1  0
 60130  1  0
 60131  1  0
 60132  1  0
 61133  1  0
 61134  1  0
 61135  1  0
 62136  1  0
 62137  1  0
 62138  1  0
 63 65  1  0
 63139  1  0
 63140  1  0
 63141  1  0
 64142  1  0
 65143  1  0
 68 81  1  0
 71 73  2  0
 71 74  1  0
 71144  1  0
 72 73  1  0
 72 75  2  0
 72145  1  0
 73 76  1  0
 74 77  1  0
 74 82  2  0
 75 82  1  0
 75 84  1  0
 76 78  1  0
 76146  1  0
 76147  1  0
 77 79  1  0
 77148  1  0
 77149  1  0
 78 80  1  0
 78150  1  0
 78151  1  0
 79 81  1  0
 79152  1  0
 79153  1  0
 80 83  1  0
 80154  1  0
 80155  1  0
 81156  1  0
 81157  1  0
M  ISO  4   1 100  68 101  81 101  83 100
M  END
$$$$
44
     RDKit          3D

171180  0  0  0  0  0  0  0  0999 V2000
  -30.7652  -14.3608   20.6636 C   0  0  0  0  0  0  0  0  0100  0  0
  -30.4392  -12.2669   19.3775 C   0  0  0  0  0  0  0  0  0101  0  0
  -29.4791  -12.5281   18.1977 C   0  0  0  0  0  0  0  0  0102  0  0
  -27.9985  -12.3963   18.6038 C   0  0  0  0  0  0  0  0  0103  0  0
  -27.6639  -13.2170   19.8820 C   0  0  2  0  0  0  0  0  0104  0  0
  -28.6795  -12.9602   21.0279 C   0  0  0  0  0  0  0  0  0105  0  0
  -25.2633  -13.8245   20.5754 C   0  0  0  0  0  0  0  0  0106  0  0
  -24.1645  -13.0409   20.9408 C   0  0  0  0  0  0  0  0  0107  0  0
  -24.6400  -11.7009   20.8697 C   0  0  0  0  0  0  0  0  0108  0  0
  -23.9005  -10.4085   21.0420 C   0  0  0  0  0  0  0  0  0109  0  0
  -24.3588   -9.4123   21.9123 C   0  0  0  0  0  0  0  0  0110  0  0
  -23.6296   -8.2350   22.0803 C   0  0  0  0  0  0  0  0  0111  0  0
  -22.4385   -8.0419   21.3657 C   0  0  0  0  0  0  0  0  0112  0  0
  -22.0103   -9.0167   20.4678 C   0  0  0  0  0  0  0  0  0113  0  0
  -22.7317  -10.1925   20.3102 C   0  0  0  0  0  0  0  0  0114  0  0
  -21.6857   -6.0709   22.5391 C   0  0  0  0  0  0  0  0  0115  0  0
  -21.4064   -6.5490   23.8264 C   0  0  0  0  0  0  0  0  0116  0  0
  -21.3635   -5.6677   24.9085 C   0  0  0  0  0  0  0  0  0117  0  0
  -21.5973   -4.3067   24.7088 C   0  0  0  0  0  0  0  0  0118  0  0
  -21.8700   -3.8284   23.4282 C   0  0  0  0  0  0  0  0  0119  0  0
  -21.9144   -4.7056   22.3460 C   0  0  0  0  0  0  0  0  0120  0  0
  -22.8194  -13.5263   21.1763 C   0  0  0  0  0  0  0  0  0121  0  0
  -22.1559   -4.2206   21.1063 F   0  0  0  0  0  0  0  0  0122  0  0
  -21.5628   -3.4510   25.7555 F   0  0  0  0  0  0  0  0  0123  0  0
  -30.0261  -13.1803   20.4553 N   0  0  0  0  0  0  0  0  0124  0  0
  -26.2911  -12.9356   20.3443 N   0  0  0  0  0  0  0  0  0125  0  0
  -25.9236  -11.6675   20.5847 N   0  0  0  0  0  0  0  0  0126  0  0
  -22.0708  -12.7905   22.0005 N   0  0  0  0  0  0  0  0  0127  0  0
  -25.4117  -15.1773   20.4097 N   0  0  0  0  0  0  0  0  0128  0  0
  -31.7916  -14.6724   20.0536 O   0  0  0  0  0  0  0  0  0129  0  0
  -21.6670   -6.9022   21.4423 O   0  0  0  0  0  0  0  0  0130  0  0
  -22.3946  -14.5564   20.6568 O   0  0  0  0  0  0  0  0  0131  0  0
  -24.6048  -31.8614   23.2223 C   0  0  0  0  0  0  0  0  0100  0  0
  -25.8822  -32.4841   23.8616 C   0  0  1  0  0  0  0  0  0101  0  0
  -27.2536  -27.5042   20.1156 C   0  0  0  0  0  0  0  0  0102  0  0
  -25.5726  -33.8762   24.2210 N   0  0  0  0  0  0  0  0  0103  0  0
  -23.4066  -30.4859   21.5461 C   0  0  2  0  0  0  0  0  0104  0  0
  -24.8467  -28.9636   20.1247 C   0  0  0  0  0  0  0  0  0105  0  0
  -22.7412  -29.4652   22.5052 C   0  0  0  0  0  0  0  0  0106  0  0
  -18.0167  -28.1302   22.8626 C   0  0  0  0  0  0  0  0  0107  0  0
  -24.1342  -36.7390   23.2568 C   0  0  0  0  0  0  0  0  0108  0  0
  -25.9141  -30.8882   21.3456 C   0  0  0  0  0  0  0  0  0109  0  0
  -25.9930  -29.5029   20.7208 C   0  0  0  0  0  0  0  0  0110  0  0
  -27.1758  -28.7612   20.7331 C   0  0  0  0  0  0  0  0  0111  0  0
  -26.1032  -26.9836   19.5230 C   0  0  0  0  0  0  0  0  0112  0  0
  -24.9097  -27.7011   19.5331 C   0  0  0  0  0  0  0  0  0113  0  0
  -23.5715  -29.7899   20.1582 C   0  0  0  0  0  0  0  0  0114  0  0
  -25.3990  -36.3212   24.0232 C   0  0  1  0  0  0  0  0  0115  0  0
  -20.5793  -28.3813   23.1004 C   0  0  2  0  0  0  0  0  0116  0  0
  -20.6548  -26.9392   22.5411 C   0  0  0  0  0  0  0  0  0117  0  0
  -19.5615  -26.6407   21.5143 C   0  0  0  0  0  0  0  0  0118  0  0
  -18.1797  -26.7818   22.1673 C   0  0  0  0  0  0  0  0  0119  0  0
  -19.1385  -28.8769   23.2988 C   0  0  0  0  0  0  0  0  0120  0  0
  -18.9183  -30.1286   23.8878 C   0  0  0  0  0  0  0  0  0121  0  0
  -17.6396  -30.6493   24.0352 C   0  0  0  0  0  0  0  0  0122  0  0
  -25.9153  -34.9582   23.4993 C   0  0  0  0  0  0  0  0  0123  0  0
  -16.5415  -29.9068   23.6254 C   0  0  0  0  0  0  0  0  0124  0  0
  -16.7331  -28.6521   23.0586 C   0  0  0  0  0  0  0  0  0125  0  0
  -26.4583  -31.6439   25.0683 C   0  0  0  0  0  0  0  0  0126  0  0
  -25.3807  -31.3179   26.1374 C   0  0  0  0  0  0  0  0  0127  0  0
  -27.0530  -30.3024   24.5680 C   0  0  0  0  0  0  0  0  0128  0  0
  -27.6014  -32.4281   25.7651 C   0  0  0  0  0  0  0  0  0129  0  0
  -27.5629  -37.2220   24.8621 C   0  0  0  0  0  0  0  0  0130  0  0
  -21.4133  -29.3375   22.3735 N   0  0  0  0  0  0  0  0  0131  0  0
  -26.4706  -37.3372   23.9061 N   0  0  0  0  0  0  0  0  0132  0  0
  -24.6674  -31.0544   22.1178 N   0  0  0  0  0  0  0  0  0133  0  0
  -23.4259  -28.8150   23.2971 O   0  0  0  0  0  0  0  0  0134  0  0
  -28.3948  -26.7345   20.0089 O   0  0  0  0  0  0  0  0  0135  0  0
  -26.5870  -34.9065   22.4671 O   0  0  0  0  0  0  0  0  0136  0  0
  -23.5365  -32.1254   23.7833 O   0  0  0  0  0  0  0  0  0137  0  0
  -28.8794  -18.8085   17.7328 C   0  0  0  0  0  0  0  0  0  0  0  0
  -30.6593  -18.2837   15.6497 C   0  0  0  0  0  0  0  0  0  0  0  0
  -29.2289  -19.8232   16.8419 C   0  0  0  0  0  0  0  0  0  0  0  0
  -29.4198  -17.5314   17.5823 C   0  0  0  0  0  0  0  0  0  0  0  0
  -30.3097  -17.2690   16.5407 C   0  0  0  0  0  0  0  0  0  0  0  0
  -30.1188  -19.5608   15.8003 C   0  0  0  0  0  0  0  0  0  0  0  0
  -30.0447  -24.1818   20.0722 C   0  0  0  0  0  0  0  0  0  0  0  0
  -30.9689  -25.1374   20.8112 C   0  0  0  0  0  0  0  0  0  0  0  0
  -30.5167  -26.9153   19.1087 C   0  0  0  0  0  0  0  0  0  0  0  0
  -29.9693  -24.4916   18.5688 C   0  0  2  0  0  0  0  0  0  0  0  0
  -29.5909  -25.9686   18.3500 C   0  0  2  0  0  0  0  0  0  0  0  0
  -28.6235  -21.1901   17.0394 C   0  0  0  0  0  0  0  0  0  0  0  0
  -28.9851  -23.5269   17.8994 C   0  0  0  0  0  0  0  0  0  0  0  0
  -29.6232  -22.1609   17.6741 C   0  0  0  0  0  0  0  0  0  0  0  0
  -31.3116  -27.5364   21.3888 C   0  0  0  0  0  0  0  0  0  0  0  0
  -30.5495  -28.8434   21.4834 C   0  0  0  0  0  0  0  0  0  1  0  0
  -30.5248  -26.5675   20.5847 N   0  0  2  0  0  0  0  0  0  0  0  0
  -29.0691  -16.5152   18.4769 O   0  0  0  0  0  0  0  0  0  0  0  0
  -30.8325  -16.0442   16.3911 F   0  0  0  0  0  0  0  0  0  0  0  0
  -30.5751  -20.7911   14.6791 Cl  0  0  0  0  0  0  0  0  0  0  0  0
  -29.6488  -26.4020   16.6116 Cl  0  0  0  0  0  0  0  0  0  0  0  0
  -31.4485  -12.4701   19.0860 H   0  0  0  0  0  0  0  0  0  0  0  0
  -30.3970  -11.2460   19.6950 H   0  0  0  0  0  0  0  0  0  0  0  0
  -29.6870  -11.8204   17.4226 H   0  0  0  0  0  0  0  0  0  0  0  0
  -29.6375  -13.5326   17.8649 H   0  0  0  0  0  0  0  0  0  0  0  0
  -27.7830  -11.3650   18.7904 H   0  0  0  0  0  0  0  0  0  0  0  0
  -27.4028  -12.7801   17.8021 H   0  0  0  0  0  0  0  0  0  0  0  0
  -27.7353  -14.2503   19.6136 H   0  0  0  0  0  0  0  0  0  0  0  0
  -28.5890  -11.9550   21.3832 H   0  0  0  0  0  0  0  0  0  0  0  0
  -28.5005  -13.6134   21.8562 H   0  0  0  0  0  0  0  0  0  0  0  0
  -25.2399   -9.5495   22.4318 H   0  0  0  0  0  0  0  0  0  0  0  0
  -23.9663   -7.5070   22.7297 H   0  0  0  0  0  0  0  0  0  0  0  0
  -21.1515   -8.8641   19.9162 H   0  0  0  0  0  0  0  0  0  0  0  0
  -22.4016  -10.9115   19.6476 H   0  0  0  0  0  0  0  0  0  0  0  0
  -21.2319   -7.5552   23.9750 H   0  0  0  0  0  0  0  0  0  0  0  0
  -21.1589   -6.0228   25.8556 H   0  0  0  0  0  0  0  0  0  0  0  0
  -22.0396   -2.8212   23.2809 H   0  0  0  0  0  0  0  0  0  0  0  0
  -22.4401  -11.9703   22.4008 H   0  0  0  0  0  0  0  0  0  0  0  0
  -21.1493  -13.0679   22.2082 H   0  0  0  0  0  0  0  0  0  0  0  0
  -24.6538  -15.7807   20.5848 H   0  0  0  0  0  0  0  0  0  0  0  0
  -26.2762  -15.5453   20.1156 H   0  0  0  0  0  0  0  0  0  0  0  0
  -26.6778  -32.4663   23.1464 H   0  0  0  0  0  0  0  0  0  0  0  0
  -25.0747  -34.0282   25.0566 H   0  0  0  0  0  0  0  0  0  0  0  0
  -22.7881  -31.3489   21.4131 H   0  0  0  0  0  0  0  0  0  0  0  0
  -23.3854  -35.9823   23.3648 H   0  0  0  0  0  0  0  0  0  0  0  0
  -24.3696  -36.8624   22.2204 H   0  0  0  0  0  0  0  0  0  0  0  0
  -23.7669  -37.6632   23.6516 H   0  0  0  0  0  0  0  0  0  0  0  0
  -25.9445  -31.6237   20.5691 H   0  0  0  0  0  0  0  0  0  0  0  0
  -26.7436  -31.0079   22.0108 H   0  0  0  0  0  0  0  0  0  0  0  0
  -28.0090  -29.1452   21.2057 H   0  0  0  0  0  0  0  0  0  0  0  0
  -26.1369  -26.0560   19.0719 H   0  0  0  0  0  0  0  0  0  0  0  0
  -24.0652  -27.2961   19.0997 H   0  0  0  0  0  0  0  0  0  0  0  0
  -23.6156  -30.5365   19.3930 H   0  0  0  0  0  0  0  0  0  0  0  0
  -22.7355  -29.1425   19.9945 H   0  0  0  0  0  0  0  0  0  0  0  0
  -25.1353  -36.2335   25.0565 H   0  0  0  0  0  0  0  0  0  0  0  0
  -21.0070  -28.3206   24.0793 H   0  0  0  0  0  0  0  0  0  0  0  0
  -20.5555  -26.2518   23.3550 H   0  0  0  0  0  0  0  0  0  0  0  0
  -21.5974  -26.8362   22.0454 H   0  0  0  0  0  0  0  0  0  0  0  0
  -19.6810  -25.6422   21.1488 H   0  0  0  0  0  0  0  0  0  0  0  0
  -19.6406  -27.3343   20.7034 H   0  0  0  0  0  0  0  0  0  0  0  0
  -17.4282  -26.6888   21.4113 H   0  0  0  0  0  0  0  0  0  0  0  0
  -18.0803  -26.0130   22.9049 H   0  0  0  0  0  0  0  0  0  0  0  0
  -19.7265  -30.6774   24.2204 H   0  0  0  0  0  0  0  0  0  0  0  0
  -17.5064  -31.5856   24.4483 H   0  0  0  0  0  0  0  0  0  0  0  0
  -15.5878  -30.2839   23.7407 H   0  0  0  0  0  0  0  0  0  0  0  0
  -15.9120  -28.0941   22.7766 H   0  0  0  0  0  0  0  0  0  0  0  0
  -24.5787  -30.7757   25.6817 H   0  0  0  0  0  0  0  0  0  0  0  0
  -25.0041  -32.2289   26.5536 H   0  0  0  0  0  0  0  0  0  0  0  0
  -25.8166  -30.7245   26.9138 H   0  0  0  0  0  0  0  0  0  0  0  0
  -26.2892  -29.7335   24.0803 H   0  0  0  0  0  0  0  0  0  0  0  0
  -27.4336  -29.7484   25.4006 H   0  0  0  0  0  0  0  0  0  0  0  0
  -27.8466  -30.4994   23.8779 H   0  0  0  0  0  0  0  0  0  0  0  0
  -27.2251  -33.3632   26.1242 H   0  0  0  0  0  0  0  0  0  0  0  0
  -28.3902  -32.6065   25.0645 H   0  0  0  0  0  0  0  0  0  0  0  0
  -27.9772  -31.8555   26.5872 H   0  0  0  0  0  0  0  0  0  0  0  0
  -28.2744  -38.0016   24.6863 H   0  0  0  0  0  0  0  0  0  0  0  0
  -28.0396  -36.2711   24.7461 H   0  0  0  0  0  0  0  0  0  0  0  0
  -27.1773  -37.3087   25.8564 H   0  0  0  0  0  0  0  0  0  0  0  0
  -20.9627  -29.9365   21.7352 H   0  0  0  0  0  0  0  0  0  0  0  0
  -26.0447  -38.2561   24.0273 H   0  0  0  0  0  0  0  0  0  0  0  0
  -28.2209  -19.0026   18.5034 H   0  0  0  0  0  0  0  0  0  0  0  0
  -31.3178  -18.0896   14.8791 H   0  0  0  0  0  0  0  0  0  0  0  0
  -29.0627  -24.2605   20.4897 H   0  0  0  0  0  0  0  0  0  0  0  0
  -30.4379  -23.1930   20.1840 H   0  0  0  0  0  0  0  0  0  0  0  0
  -31.9682  -25.0152   20.4487 H   0  0  0  0  0  0  0  0  0  0  0  0
  -30.9334  -24.9205   21.8584 H   0  0  0  0  0  0  0  0  0  0  0  0
  -30.1731  -27.9210   18.9843 H   0  0  0  0  0  0  0  0  0  0  0  0
  -31.5094  -26.8182   18.7214 H   0  0  0  0  0  0  0  0  0  0  0  0
  -30.9265  -24.3460   18.1133 H   0  0  0  0  0  0  0  0  0  0  0  0
  -28.5938  -26.0777   18.7226 H   0  0  0  0  0  0  0  0  0  0  0  0
  -27.7698  -21.1031   17.6786 H   0  0  0  0  0  0  0  0  0  0  0  0
  -28.3444  -21.5751   16.0809 H   0  0  0  0  0  0  0  0  0  0  0  0
  -28.6853  -23.9325   16.9557 H   0  0  0  0  0  0  0  0  0  0  0  0
  -28.1385  -23.4047   18.5422 H   0  0  0  0  0  0  0  0  0  0  0  0
  -30.4661  -22.2707   17.0242 H   0  0  0  0  0  0  0  0  0  0  0  0
  -29.9302  -21.7662   18.6201 H   0  0  0  0  0  0  0  0  0  0  0  0
  -31.4682  -27.1419   22.3710 H   0  0  0  0  0  0  0  0  0  0  0  0
  -32.2583  -27.7063   20.9201 H   0  0  0  0  0  0  0  0  0  0  0  0
  -30.9101  -29.6618   20.8960 H   0  0  0  0  0  0  0  0  0  0  0  0
  -30.3858  -29.4443   22.3535 H   0  0  0  0  0  0  0  0  0  0  0  0
  -29.5631  -26.6408   20.9165 H   0  0  0  0  0  0  0  0  0  0  0  0
  1 25  1  0
  1 30  2  0
  1 88  1  0
  2  3  1  0
  2 25  1  0
  2 92  1  0
  2 93  1  0
  3  4  1  0
  3 94  1  0
  3 95  1  0
  4  5  1  0
  4 96  1  0
  4 97  1  0
  5  6  1  0
  5 26  1  0
  5 98  1  6
  6 25  1  0
  6 99  1  0
  6100  1  0
  7  8  2  0
  7 26  1  0
  7 29  1  0
  8  9  1  0
  8 22  1  0
  9 10  1  0
  9 27  2  0
 10 11  2  0
 10 15  1  0
 11 12  1  0
 11101  1  0
 12 13  2  0
 12102  1  0
 13 14  1  0
 13 31  1  0
 14 15  2  0
 14103  1  0
 15104  1  0
 16 17  2  0
 16 21  1  0
 16 31  1  0
 17 18  1  0
 17105  1  0
 18 19  2  0
 18106  1  0
 19 20  1  0
 19 24  1  0
 20 21  2  0
 20107  1  0
 21 23  1  0
 22 28  1  0
 22 32  2  0
 26 27  1  0
 28108  1  0
 28109  1  0
 29110  1  0
 29111  1  0
 33 34  1  0
 33 66  1  0
 33 70  2  0
 34 36  1  0
 34 59  1  0
 34112  1  6
 35 44  2  0
 35 45  1  0
 35 68  1  0
 36 56  1  0
 36113  1  0
 37 39  1  0
 37 47  1  0
 37 66  1  0
 37114  1  6
 38 43  2  0
 38 46  1  0
 38 47  1  0
 39 64  1  0
 39 67  2  0
 40 52  1  0
 40 53  2  0
 40 58  1  0
 41115  1  0
 41116  1  0
 41117  1  0
 42 43  1  0
 42 66  1  0
 42118  1  0
 42119  1  0
 43 44  1  0
 44120  1  0
 45 46  2  0
 45121  1  0
 46122  1  0
 47123  1  0
 47124  1  0
 48 41  1  0
 48 56  1  0
 48 65  1  0
 48125  1  1
 49 50  1  0
 49 53  1  0
 49 64  1  0
 49126  1  1
 50 51  1  0
 50127  1  0
 50128  1  0
 51 52  1  0
 51129  1  0
 51130  1  0
 52131  1  0
 52132  1  0
 53 54  1  0
 54 55  2  0
 54133  1  0
 55 57  1  0
 55134  1  0
 56 69  2  0
 57 58  2  0
 57135  1  0
 58136  1  0
 59 60  1  0
 59 61  1  0
 59 62  1  0
 60137  1  0
 60138  1  0
 60139  1  0
 61140  1  0
 61141  1  0
 61142  1  0
 62143  1  0
 62144  1  0
 62145  1  0
 63 65  1  0
 63146  1  0
 63147  1  0
 63148  1  0
 64149  1  0
 65150  1  0
 68 86  1  0
 71 73  2  0
 71 74  1  0
 71151  1  0
 72 75  1  0
 72 76  2  0
 72152  1  0
 73 76  1  0
 73 82  1  0
 74 75  2  0
 74 88  1  0
 75 89  1  0
 76 90  1  0
 77 78  1  0
 77 80  1  0
 77153  1  0
 77154  1  0
 78 87  1  0
 78155  1  0
 78156  1  0
 79 81  1  0
 79 87  1  0
 79157  1  0
 79158  1  0
 80 81  1  0
 80 83  1  0
 80159  1  6
 81 91  1  0
 81160  1  1
 82 84  1  0
 82161  1  0
 82162  1  0
 83 84  1  0
 83163  1  0
 83164  1  0
 84165  1  0
 84166  1  0
 85 86  1  0
 85167  1  0
 85168  1  0
 86169  1  0
 86170  1  0
 87 85  1  0
 87171  1  1
M  CHG  1  87   1
M  ISO  4   1 100  68 101  86 101  88 100
M  END
$$$$
45
     RDKit          3D

159167  0  0  0  0  0  0  0  0999 V2000
  -30.7652  -14.3608   20.6636 C   0  0  0  0  0  0  0  0  0100  0  0
  -30.4392  -12.2669   19.3775 C   0  0  0  0  0  0  0  0  0101  0  0
  -29.4791  -12.5281   18.1977 C   0  0  0  0  0  0  0  0  0102  0  0
  -27.9985  -12.3963   18.6038 C   0  0  0  0  0  0  0  0  0103  0  0
  -27.6639  -13.2170   19.8820 C   0  0  2  0  0  0  0  0  0104  0  0
  -28.6795  -12.9602   21.0279 C   0  0  0  0  0  0  0  0  0105  0  0
  -25.2633  -13.8245   20.5754 C   0  0  0  0  0  0  0  0  0106  0  0
  -24.1645  -13.0409   20.9408 C   0  0  0  0  0  0  0  0  0107  0  0
  -24.6400  -11.7009   20.8697 C   0  0  0  0  0  0  0  0  0108  0  0
  -23.9005  -10.4085   21.0420 C   0  0  0  0  0  0  0  0  0109  0  0
  -24.3588   -9.4123   21.9123 C   0  0  0  0  0  0  0  0  0110  0  0
  -23.6296   -8.2350   22.0803 C   0  0  0  0  0  0  0  0  0111  0  0
  -22.4385   -8.0419   21.3657 C   0  0  0  0  0  0  0  0  0112  0  0
  -22.0103   -9.0167   20.4678 C   0  0  0  0  0  0  0  0  0113  0  0
  -22.7317  -10.1925   20.3102 C   0  0  0  0  0  0  0  0  0114  0  0
  -21.6857   -6.0709   22.5391 C   0  0  0  0  0  0  0  0  0115  0  0
  -21.4064   -6.5490   23.8264 C   0  0  0  0  0  0  0  0  0116  0  0
  -21.3635   -5.6677   24.9085 C   0  0  0  0  0  0  0  0  0117  0  0
  -21.5973   -4.3067   24.7088 C   0  0  0  0  0  0  0  0  0118  0  0
  -21.8700   -3.8284   23.4282 C   0  0  0  0  0  0  0  0  0119  0  0
  -21.9144   -4.7056   22.3460 C   0  0  0  0  0  0  0  0  0120  0  0
  -22.8194  -13.5263   21.1763 C   0  0  0  0  0  0  0  0  0121  0  0
  -22.1559   -4.2206   21.1063 F   0  0  0  0  0  0  0  0  0122  0  0
  -21.5628   -3.4510   25.7555 F   0  0  0  0  0  0  0  0  0123  0  0
  -30.0261  -13.1803   20.4553 N   0  0  0  0  0  0  0  0  0124  0  0
  -26.2911  -12.9356   20.3443 N   0  0  0  0  0  0  0  0  0125  0  0
  -25.9236  -11.6675   20.5847 N   0  0  0  0  0  0  0  0  0126  0  0
  -22.0708  -12.7905   22.0005 N   0  0  0  0  0  0  0  0  0127  0  0
  -25.4117  -15.1773   20.4097 N   0  0  0  0  0  0  0  0  0128  0  0
  -31.7916  -14.6724   20.0536 O   0  0  0  0  0  0  0  0  0129  0  0
  -21.6670   -6.9022   21.4423 O   0  0  0  0  0  0  0  0  0130  0  0
  -22.3946  -14.5564   20.6568 O   0  0  0  0  0  0  0  0  0131  0  0
  -24.6048  -31.8614   23.2223 C   0  0  0  0  0  0  0  0  0100  0  0
  -25.8822  -32.4841   23.8616 C   0  0  1  0  0  0  0  0  0101  0  0
  -27.2536  -27.5042   20.1156 C   0  0  0  0  0  0  0  0  0102  0  0
  -25.5726  -33.8762   24.2210 N   0  0  0  0  0  0  0  0  0103  0  0
  -23.4066  -30.4859   21.5461 C   0  0  2  0  0  0  0  0  0104  0  0
  -24.8467  -28.9636   20.1247 C   0  0  0  0  0  0  0  0  0105  0  0
  -22.7412  -29.4652   22.5052 C   0  0  0  0  0  0  0  0  0106  0  0
  -18.0167  -28.1302   22.8626 C   0  0  0  0  0  0  0  0  0107  0  0
  -24.1342  -36.7390   23.2568 C   0  0  0  0  0  0  0  0  0108  0  0
  -25.9141  -30.8882   21.3456 C   0  0  0  0  0  0  0  0  0109  0  0
  -25.9930  -29.5029   20.7208 C   0  0  0  0  0  0  0  0  0110  0  0
  -27.1758  -28.7612   20.7331 C   0  0  0  0  0  0  0  0  0111  0  0
  -26.1032  -26.9836   19.5230 C   0  0  0  0  0  0  0  0  0112  0  0
  -24.9097  -27.7011   19.5331 C   0  0  0  0  0  0  0  0  0113  0  0
  -23.5715  -29.7899   20.1582 C   0  0  0  0  0  0  0  0  0114  0  0
  -25.3990  -36.3212   24.0232 C   0  0  1  0  0  0  0  0  0115  0  0
  -20.5793  -28.3813   23.1004 C   0  0  2  0  0  0  0  0  0116  0  0
  -20.6548  -26.9392   22.5411 C   0  0  0  0  0  0  0  0  0117  0  0
  -19.5615  -26.6407   21.5143 C   0  0  0  0  0  0  0  0  0118  0  0
  -18.1797  -26.7818   22.1673 C   0  0  0  0  0  0  0  0  0119  0  0
  -19.1385  -28.8769   23.2988 C   0  0  0  0  0  0  0  0  0120  0  0
  -18.9183  -30.1286   23.8878 C   0  0  0  0  0  0  0  0  0121  0  0
  -17.6396  -30.6493   24.0352 C   0  0  0  0  0  0  0  0  0122  0  0
  -25.9153  -34.9582   23.4993 C   0  0  0  0  0  0  0  0  0123  0  0
  -16.5415  -29.9068   23.6254 C   0  0  0  0  0  0  0  0  0124  0  0
  -16.7331  -28.6521   23.0586 C   0  0  0  0  0  0  0  0  0125  0  0
  -26.4583  -31.6439   25.0683 C   0  0  0  0  0  0  0  0  0126  0  0
  -25.3807  -31.3179   26.1374 C   0  0  0  0  0  0  0  0  0127  0  0
  -27.0530  -30.3024   24.5680 C   0  0  0  0  0  0  0  0  0128  0  0
  -27.6014  -32.4281   25.7651 C   0  0  0  0  0  0  0  0  0129  0  0
  -27.5629  -37.2220   24.8621 C   0  0  0  0  0  0  0  0  0130  0  0
  -21.4133  -29.3375   22.3735 N   0  0  0  0  0  0  0  0  0131  0  0
  -26.4706  -37.3372   23.9061 N   0  0  0  0  0  0  0  0  0132  0  0
  -24.6674  -31.0544   22.1178 N   0  0  0  0  0  0  0  0  0133  0  0
  -23.4259  -28.8150   23.2971 O   0  0  0  0  0  0  0  0  0134  0  0
  -28.3948  -26.7345   20.0089 O   0  0  0  0  0  0  0  0  0135  0  0
  -26.5870  -34.9065   22.4671 O   0  0  0  0  0  0  0  0  0136  0  0
  -23.5365  -32.1254   23.7833 O   0  0  0  0  0  0  0  0  0137  0  0
  -30.8319  -15.7353   20.9613 C   0  0  0  0  0  0  0  0  0  0  0  0
  -30.4056  -14.4120   21.0734 C   0  0  0  0  0  0  0  0  0  0  0  0
  -30.9812  -16.3156   19.7016 C   0  0  0  0  0  0  0  0  0  0  0  0
  -30.1287  -13.6688   19.9260 C   0  0  0  0  0  0  0  0  0  0  0  0
  -30.2780  -14.2491   18.6663 C   0  0  0  0  0  0  0  0  0  0  0  0
  -30.7042  -15.5725   18.5541 C   0  0  0  0  0  0  0  0  0  0  0  0
  -30.2540  -13.8145   22.4337 C   0  0  0  0  0  0  0  0  0  0  0  0
  -29.9746  -13.4352   17.4463 C   0  0  0  0  0  0  0  0  0  0  0  0
  -29.6668  -12.2391   20.0528 C   0  0  0  0  0  0  0  0  0  0  0  0
  -31.4406  -17.7367   19.6301 C   0  0  0  0  0  0  0  0  0  0  0  0
  -28.1667  -12.0530   19.8149 C   0  0  0  0  0  0  0  0  0  0  0  0
  -27.2989  -12.7702   20.8425 C   0  0  0  0  0  0  0  0  0  1  0  0
  -30.3618  -18.6443   19.3085 N   0  0  0  0  0  0  0  0  0  0  0  0
  -30.8917  -16.2962   16.9913 Cl  0  0  0  0  0  0  0  0  0  0  0  0
  -31.4485  -12.4701   19.0860 H   0  0  0  0  0  0  0  0  0  0  0  0
  -30.3970  -11.2460   19.6950 H   0  0  0  0  0  0  0  0  0  0  0  0
  -29.6870  -11.8204   17.4226 H   0  0  0  0  0  0  0  0  0  0  0  0
  -29.6375  -13.5326   17.8649 H   0  0  0  0  0  0  0  0  0  0  0  0
  -27.7830  -11.3650   18.7904 H   0  0  0  0  0  0  0  0  0  0  0  0
  -27.4028  -12.7801   17.8021 H   0  0  0  0  0  0  0  0  0  0  0  0
  -27.7353  -14.2503   19.6136 H   0  0  0  0  0  0  0  0  0  0  0  0
  -28.5890  -11.9550   21.3832 H   0  0  0  0  0  0  0  0  0  0  0  0
  -28.5005  -13.6134   21.8562 H   0  0  0  0  0  0  0  0  0  0  0  0
  -25.2399   -9.5495   22.4318 H   0  0  0  0  0  0  0  0  0  0  0  0
  -23.9663   -7.5070   22.7297 H   0  0  0  0  0  0  0  0  0  0  0  0
  -21.1515   -8.8641   19.9162 H   0  0  0  0  0  0  0  0  0  0  0  0
  -22.4016  -10.9115   19.6476 H   0  0  0  0  0  0  0  0  0  0  0  0
  -21.2319   -7.5552   23.9750 H   0  0  0  0  0  0  0  0  0  0  0  0
  -21.1589   -6.0228   25.8556 H   0  0  0  0  0  0  0  0  0  0  0  0
  -22.0396   -2.8212   23.2809 H   0  0  0  0  0  0  0  0  0  0  0  0
  -22.4401  -11.9703   22.4008 H   0  0  0  0  0  0  0  0  0  0  0  0
  -21.1493  -13.0679   22.2082 H   0  0  0  0  0  0  0  0  0  0  0  0
  -24.6538  -15.7807   20.5848 H   0  0  0  0  0  0  0  0  0  0  0  0
  -26.2762  -15.5453   20.1156 H   0  0  0  0  0  0  0  0  0  0  0  0
  -26.6778  -32.4663   23.1464 H   0  0  0  0  0  0  0  0  0  0  0  0
  -25.0747  -34.0282   25.0566 H   0  0  0  0  0  0  0  0  0  0  0  0
  -22.7881  -31.3489   21.4131 H   0  0  0  0  0  0  0  0  0  0  0  0
  -23.3854  -35.9823   23.3648 H   0  0  0  0  0  0  0  0  0  0  0  0
  -24.3696  -36.8624   22.2204 H   0  0  0  0  0  0  0  0  0  0  0  0
  -23.7669  -37.6632   23.6516 H   0  0  0  0  0  0  0  0  0  0  0  0
  -25.9445  -31.6237   20.5691 H   0  0  0  0  0  0  0  0  0  0  0  0
  -26.7436  -31.0079   22.0108 H   0  0  0  0  0  0  0  0  0  0  0  0
  -28.0090  -29.1452   21.2057 H   0  0  0  0  0  0  0  0  0  0  0  0
  -26.1369  -26.0560   19.0719 H   0  0  0  0  0  0  0  0  0  0  0  0
  -24.0652  -27.2961   19.0997 H   0  0  0  0  0  0  0  0  0  0  0  0
  -23.6156  -30.5365   19.3930 H   0  0  0  0  0  0  0  0  0  0  0  0
  -22.7355  -29.1425   19.9945 H   0  0  0  0  0  0  0  0  0  0  0  0
  -25.1353  -36.2335   25.0565 H   0  0  0  0  0  0  0  0  0  0  0  0
  -21.0070  -28.3206   24.0793 H   0  0  0  0  0  0  0  0  0  0  0  0
  -20.5555  -26.2518   23.3550 H   0  0  0  0  0  0  0  0  0  0  0  0
  -21.5974  -26.8362   22.0454 H   0  0  0  0  0  0  0  0  0  0  0  0
  -19.6810  -25.6422   21.1488 H   0  0  0  0  0  0  0  0  0  0  0  0
  -19.6406  -27.3343   20.7034 H   0  0  0  0  0  0  0  0  0  0  0  0
  -17.4282  -26.6888   21.4113 H   0  0  0  0  0  0  0  0  0  0  0  0
  -18.0803  -26.0130   22.9049 H   0  0  0  0  0  0  0  0  0  0  0  0
  -19.7265  -30.6774   24.2204 H   0  0  0  0  0  0  0  0  0  0  0  0
  -17.5064  -31.5856   24.4483 H   0  0  0  0  0  0  0  0  0  0  0  0
  -15.5878  -30.2839   23.7407 H   0  0  0  0  0  0  0  0  0  0  0  0
  -15.9120  -28.0941   22.7766 H   0  0  0  0  0  0  0  0  0  0  0  0
  -24.5787  -30.7757   25.6817 H   0  0  0  0  0  0  0  0  0  0  0  0
  -25.0041  -32.2289   26.5536 H   0  0  0  0  0  0  0  0  0  0  0  0
  -25.8166  -30.7245   26.9138 H   0  0  0  0  0  0  0  0  0  0  0  0
  -26.2892  -29.7335   24.0803 H   0  0  0  0  0  0  0  0  0  0  0  0
  -27.4336  -29.7484   25.4006 H   0  0  0  0  0  0  0  0  0  0  0  0
  -27.8466  -30.4994   23.8779 H   0  0  0  0  0  0  0  0  0  0  0  0
  -27.2251  -33.3632   26.1242 H   0  0  0  0  0  0  0  0  0  0  0  0
  -28.3902  -32.6065   25.0645 H   0  0  0  0  0  0  0  0  0  0  0  0
  -27.9772  -31.8555   26.5872 H   0  0  0  0  0  0  0  0  0  0  0  0
  -28.2744  -38.0016   24.6863 H   0  0  0  0  0  0  0  0  0  0  0  0
  -28.0396  -36.2711   24.7461 H   0  0  0  0  0  0  0  0  0  0  0  0
  -27.1773  -37.3087   25.8564 H   0  0  0  0  0  0  0  0  0  0  0  0
  -20.9627  -29.9365   21.7352 H   0  0  0  0  0  0  0  0  0  0  0  0
  -26.0447  -38.2561   24.0273 H   0  0  0  0  0  0  0  0  0  0  0  0
  -31.0369  -16.2851   21.8103 H   0  0  0  0  0  0  0  0  0  0  0  0
  -30.5133  -14.5424   23.1739 H   0  0  0  0  0  0  0  0  0  0  0  0
  -30.9007  -12.9669   22.5251 H   0  0  0  0  0  0  0  0  0  0  0  0
  -29.2394  -13.5061   22.5767 H   0  0  0  0  0  0  0  0  0  0  0  0
  -29.6653  -12.4539   17.7400 H   0  0  0  0  0  0  0  0  0  0  0  0
  -30.8514  -13.3654   16.8370 H   0  0  0  0  0  0  0  0  0  0  0  0
  -29.1903  -13.9048   16.8902 H   0  0  0  0  0  0  0  0  0  0  0  0
  -29.8972  -11.8961   21.0398 H   0  0  0  0  0  0  0  0  0  0  0  0
  -30.1749  -11.6785   19.2962 H   0  0  0  0  0  0  0  0  0  0  0  0
  -32.1951  -17.8173   18.8757 H   0  0  0  0  0  0  0  0  0  0  0  0
  -31.8216  -18.0074   20.5926 H   0  0  0  0  0  0  0  0  0  0  0  0
  -27.9441  -11.0071   19.8533 H   0  0  0  0  0  0  0  0  0  0  0  0
  -27.9426  -12.4785   18.8591 H   0  0  0  0  0  0  0  0  0  0  0  0
  -27.5998  -12.4604   21.8215 H   0  0  0  0  0  0  0  0  0  0  0  0
  -26.2797  -12.5121   20.6435 H   0  0  0  0  0  0  0  0  0  0  0  0
  -29.9195  -19.4792   19.0318 H   0  0  0  0  0  0  0  0  0  0  0  0
  1 25  1  0
  1 30  2  0
  1 83  1  0
  2  3  1  0
  2 25  1  0
  2 85  1  0
  2 86  1  0
  3  4  1  0
  3 87  1  0
  3 88  1  0
  4  5  1  0
  4 89  1  0
  4 90  1  0
  5  6  1  0
  5 26  1  0
  5 91  1  6
  6 25  1  0
  6 92  1  0
  6 93  1  0
  7  8  2  0
  7 26  1  0
  7 29  1  0
  8  9  1  0
  8 22  1  0
  9 10  1  0
  9 27  2  0
 10 11  2  0
 10 15  1  0
 11 12  1  0
 11 94  1  0
 12 13  2  0
 12 95  1  0
 13 14  1  0
 13 31  1  0
 14 15  2  0
 14 96  1  0
 15 97  1  0
 16 17  2  0
 16 21  1  0
 16 31  1  0
 17 18  1  0
 17 98  1  0
 18 19  2  0
 18 99  1  0
 19 20  1  0
 19 24  1  0
 20 21  2  0
 20100  1  0
 21 23  1  0
 22 28  1  0
 22 32  2  0
 26 27  1  0
 28101  1  0
 28102  1  0
 29103  1  0
 29104  1  0
 33 34  1  0
 33 66  1  0
 33 70  2  0
 34 36  1  0
 34 59  1  0
 34105  1  6
 35 44  2  0
 35 45  1  0
 35 68  1  0
 36 56  1  0
 36106  1  0
 37 39  1  0
 37 47  1  0
 37 66  1  0
 37107  1  6
 38 43  2  0
 38 46  1  0
 38 47  1  0
 39 64  1  0
 39 67  2  0
 40 52  1  0
 40 53  2  0
 40 58  1  0
 41108  1  0
 41109  1  0
 41110  1  0
 42 43  1  0
 42 66  1  0
 42111  1  0
 42112  1  0
 43 44  1  0
 44113  1  0
 45 46  2  0
 45114  1  0
 46115  1  0
 47116  1  0
 47117  1  0
 48 41  1  0
 48 56  1  0
 48 65  1  0
 48118  1  1
 49 50  1  0
 49 53  1  0
 49 64  1  0
 49119  1  1
 50 51  1  0
 50120  1  0
 50121  1  0
 51 52  1  0
 51122  1  0
 51123  1  0
 52124  1  0
 52125  1  0
 53 54  1  0
 54 55  2  0
 54126  1  0
 55 57  1  0
 55127  1  0
 56 69  2  0
 57 58  2  0
 57128  1  0
 58129  1  0
 59 60  1  0
 59 61  1  0
 59 62  1  0
 60130  1  0
 60131  1  0
 60132  1  0
 61133  1  0
 61134  1  0
 61135  1  0
 62136  1  0
 62137  1  0
 62138  1  0
 63 65  1  0
 63139  1  0
 63140  1  0
 63141  1  0
 64142  1  0
 65143  1  0
 68 82  1  0
 71 72  2  0
 71 73  1  0
 71144  1  0
 72 74  1  0
 72 77  1  0
 73 76  2  0
 73 80  1  0
 74 75  2  0
 74 79  1  0
 75 76  1  0
 75 78  1  0
 76 84  1  0
 77145  1  0
 77146  1  0
 77147  1  0
 78148  1  0
 78149  1  0
 78150  1  0
 79 81  1  0
 79151  1  0
 79152  1  0
 80 83  1  0
 80153  1  0
 80154  1  0
 81 82  1  0
 81155  1  0
 81156  1  0
 82157  1  0
 82158  1  0
 83159  1  0
M  ISO  4   1 100  68 101  82 101  83 100
M  END
$$$$
46
     RDKit          3D

159167  0  0  0  0  0  0  0  0999 V2000
  -30.7652  -14.3608   20.6636 C   0  0  0  0  0  0  0  0  0100  0  0
  -30.4392  -12.2669   19.3775 C   0  0  0  0  0  0  0  0  0101  0  0
  -29.4791  -12.5281   18.1977 C   0  0  0  0  0  0  0  0  0102  0  0
  -27.9985  -12.3963   18.6038 C   0  0  0  0  0  0  0  0  0103  0  0
  -27.6639  -13.2170   19.8820 C   0  0  2  0  0  0  0  0  0104  0  0
  -28.6795  -12.9602   21.0279 C   0  0  0  0  0  0  0  0  0105  0  0
  -25.2633  -13.8245   20.5754 C   0  0  0  0  0  0  0  0  0106  0  0
  -24.1645  -13.0409   20.9408 C   0  0  0  0  0  0  0  0  0107  0  0
  -24.6400  -11.7009   20.8697 C   0  0  0  0  0  0  0  0  0108  0  0
  -23.9005  -10.4085   21.0420 C   0  0  0  0  0  0  0  0  0109  0  0
  -24.3588   -9.4123   21.9123 C   0  0  0  0  0  0  0  0  0110  0  0
  -23.6296   -8.2350   22.0803 C   0  0  0  0  0  0  0  0  0111  0  0
  -22.4385   -8.0419   21.3657 C   0  0  0  0  0  0  0  0  0112  0  0
  -22.0103   -9.0167   20.4678 C   0  0  0  0  0  0  0  0  0113  0  0
  -22.7317  -10.1925   20.3102 C   0  0  0  0  0  0  0  0  0114  0  0
  -21.6857   -6.0709   22.5391 C   0  0  0  0  0  0  0  0  0115  0  0
  -21.4064   -6.5490   23.8264 C   0  0  0  0  0  0  0  0  0116  0  0
  -21.3635   -5.6677   24.9085 C   0  0  0  0  0  0  0  0  0117  0  0
  -21.5973   -4.3067   24.7088 C   0  0  0  0  0  0  0  0  0118  0  0
  -21.8700   -3.8284   23.4282 C   0  0  0  0  0  0  0  0  0119  0  0
  -21.9144   -4.7056   22.3460 C   0  0  0  0  0  0  0  0  0120  0  0
  -22.8194  -13.5263   21.1763 C   0  0  0  0  0  0  0  0  0121  0  0
  -22.1559   -4.2206   21.1063 F   0  0  0  0  0  0  0  0  0122  0  0
  -21.5628   -3.4510   25.7555 F   0  0  0  0  0  0  0  0  0123  0  0
  -30.0261  -13.1803   20.4553 N   0  0  0  0  0  0  0  0  0124  0  0
  -26.2911  -12.9356   20.3443 N   0  0  0  0  0  0  0  0  0125  0  0
  -25.9236  -11.6675   20.5847 N   0  0  0  0  0  0  0  0  0126  0  0
  -22.0708  -12.7905   22.0005 N   0  0  0  0  0  0  0  0  0127  0  0
  -25.4117  -15.1773   20.4097 N   0  0  0  0  0  0  0  0  0128  0  0
  -31.7916  -14.6724   20.0536 O   0  0  0  0  0  0  0  0  0129  0  0
  -21.6670   -6.9022   21.4423 O   0  0  0  0  0  0  0  0  0130  0  0
  -22.3946  -14.5564   20.6568 O   0  0  0  0  0  0  0  0  0131  0  0
  -24.6048  -31.8614   23.2223 C   0  0  0  0  0  0  0  0  0100  0  0
  -25.8822  -32.4841   23.8616 C   0  0  1  0  0  0  0  0  0101  0  0
  -27.2536  -27.5042   20.1156 C   0  0  0  0  0  0  0  0  0102  0  0
  -25.5726  -33.8762   24.2210 N   0  0  0  0  0  0  0  0  0103  0  0
  -23.4066  -30.4859   21.5461 C   0  0  2  0  0  0  0  0  0104  0  0
  -24.8467  -28.9636   20.1247 C   0  0  0  0  0  0  0  0  0105  0  0
  -22.7412  -29.4652   22.5052 C   0  0  0  0  0  0  0  0  0106  0  0
  -18.0167  -28.1302   22.8626 C   0  0  0  0  0  0  0  0  0107  0  0
  -24.1342  -36.7390   23.2568 C   0  0  0  0  0  0  0  0  0108  0  0
  -25.9141  -30.8882   21.3456 C   0  0  0  0  0  0  0  0  0109  0  0
  -25.9930  -29.5029   20.7208 C   0  0  0  0  0  0  0  0  0110  0  0
  -27.1758  -28.7612   20.7331 C   0  0  0  0  0  0  0  0  0111  0  0
  -26.1032  -26.9836   19.5230 C   0  0  0  0  0  0  0  0  0112  0  0
  -24.9097  -27.7011   19.5331 C   0  0  0  0  0  0  0  0  0113  0  0
  -23.5715  -29.7899   20.1582 C   0  0  0  0  0  0  0  0  0114  0  0
  -25.3990  -36.3212   24.0232 C   0  0  1  0  0  0  0  0  0115  0  0
  -20.5793  -28.3813   23.1004 C   0  0  2  0  0  0  0  0  0116  0  0
  -20.6548  -26.9392   22.5411 C   0  0  0  0  0  0  0  0  0117  0  0
  -19.5615  -26.6407   21.5143 C   0  0  0  0  0  0  0  0  0118  0  0
  -18.1797  -26.7818   22.1673 C   0  0  0  0  0  0  0  0  0119  0  0
  -19.1385  -28.8769   23.2988 C   0  0  0  0  0  0  0  0  0120  0  0
  -18.9183  -30.1286   23.8878 C   0  0  0  0  0  0  0  0  0121  0  0
  -17.6396  -30.6493   24.0352 C   0  0  0  0  0  0  0  0  0122  0  0
  -25.9153  -34.9582   23.4993 C   0  0  0  0  0  0  0  0  0123  0  0
  -16.5415  -29.9068   23.6254 C   0  0  0  0  0  0  0  0  0124  0  0
  -16.7331  -28.6521   23.0586 C   0  0  0  0  0  0  0  0  0125  0  0
  -26.4583  -31.6439   25.0683 C   0  0  0  0  0  0  0  0  0126  0  0
  -25.3807  -31.3179   26.1374 C   0  0  0  0  0  0  0  0  0127  0  0
  -27.0530  -30.3024   24.5680 C   0  0  0  0  0  0  0  0  0128  0  0
  -27.6014  -32.4281   25.7651 C   0  0  0  0  0  0  0  0  0129  0  0
  -27.5629  -37.2220   24.8621 C   0  0  0  0  0  0  0  0  0130  0  0
  -21.4133  -29.3375   22.3735 N   0  0  0  0  0  0  0  0  0131  0  0
  -26.4706  -37.3372   23.9061 N   0  0  0  0  0  0  0  0  0132  0  0
  -24.6674  -31.0544   22.1178 N   0  0  0  0  0  0  0  0  0133  0  0
  -23.4259  -28.8150   23.2971 O   0  0  0  0  0  0  0  0  0134  0  0
  -28.3948  -26.7345   20.0089 O   0  0  0  0  0  0  0  0  0135  0  0
  -26.5870  -34.9065   22.4671 O   0  0  0  0  0  0  0  0  0136  0  0
  -23.5365  -32.1254   23.7833 O   0  0  0  0  0  0  0  0  0137  0  0
  -33.3958  -17.4143   22.6835 C   0  0  0  0  0  0  0  0  0  0  0  0
  -31.0277  -15.9450   22.5585 C   0  0  0  0  0  0  0  0  0  0  0  0
  -33.4367  -16.0480   22.4061 C   0  0  0  0  0  0  0  0  0  0  0  0
  -32.1709  -18.0461   22.8985 C   0  0  0  0  0  0  0  0  0  0  0  0
  -32.2527  -15.3133   22.3435 C   0  0  0  0  0  0  0  0  0  0  0  0
  -30.9868  -17.3114   22.8359 C   0  0  0  0  0  0  0  0  0  0  0  0
  -34.7597  -15.3935   22.1787 C   0  0  0  0  0  0  0  0  0  0  0  0
  -32.1520  -19.5097   23.1948 C   0  0  0  0  0  0  0  0  0  0  0  0
  -32.2719  -13.8355   22.0447 C   0  0  0  0  0  0  0  0  0  0  0  0
  -29.6638  -17.9659   23.0634 C   0  0  0  0  0  0  0  0  0  0  0  0
  -32.5138  -13.5086   20.5695 C   0  0  0  0  0  0  0  0  0  0  0  0
  -31.4086  -14.0147   19.6498 C   0  0  0  0  0  0  0  0  0  1  0  0
  -29.2397  -18.7537   21.9274 N   0  0  0  0  0  0  0  0  0  0  0  0
  -31.4485  -12.4701   19.0860 H   0  0  0  0  0  0  0  0  0  0  0  0
  -30.3970  -11.2460   19.6950 H   0  0  0  0  0  0  0  0  0  0  0  0
  -29.6870  -11.8204   17.4226 H   0  0  0  0  0  0  0  0  0  0  0  0
  -29.6375  -13.5326   17.8649 H   0  0  0  0  0  0  0  0  0  0  0  0
  -27.7830  -11.3650   18.7904 H   0  0  0  0  0  0  0  0  0  0  0  0
  -27.4028  -12.7801   17.8021 H   0  0  0  0  0  0  0  0  0  0  0  0
  -27.7353  -14.2503   19.6136 H   0  0  0  0  0  0  0  0  0  0  0  0
  -28.5890  -11.9550   21.3832 H   0  0  0  0  0  0  0  0  0  0  0  0
  -28.5005  -13.6134   21.8562 H   0  0  0  0  0  0  0  0  0  0  0  0
  -25.2399   -9.5495   22.4318 H   0  0  0  0  0  0  0  0  0  0  0  0
  -23.9663   -7.5070   22.7297 H   0  0  0  0  0  0  0  0  0  0  0  0
  -21.1515   -8.8641   19.9162 H   0  0  0  0  0  0  0  0  0  0  0  0
  -22.4016  -10.9115   19.6476 H   0  0  0  0  0  0  0  0  0  0  0  0
  -21.2319   -7.5552   23.9750 H   0  0  0  0  0  0  0  0  0  0  0  0
  -21.1589   -6.0228   25.8556 H   0  0  0  0  0  0  0  0  0  0  0  0
  -22.0396   -2.8212   23.2809 H   0  0  0  0  0  0  0  0  0  0  0  0
  -22.4401  -11.9703   22.4008 H   0  0  0  0  0  0  0  0  0  0  0  0
  -21.1493  -13.0679   22.2082 H   0  0  0  0  0  0  0  0  0  0  0  0
  -24.6538  -15.7807   20.5848 H   0  0  0  0  0  0  0  0  0  0  0  0
  -26.2762  -15.5453   20.1156 H   0  0  0  0  0  0  0  0  0  0  0  0
  -26.6778  -32.4663   23.1464 H   0  0  0  0  0  0  0  0  0  0  0  0
  -25.0747  -34.0282   25.0566 H   0  0  0  0  0  0  0  0  0  0  0  0
  -22.7881  -31.3489   21.4131 H   0  0  0  0  0  0  0  0  0  0  0  0
  -23.3854  -35.9823   23.3648 H   0  0  0  0  0  0  0  0  0  0  0  0
  -24.3696  -36.8624   22.2204 H   0  0  0  0  0  0  0  0  0  0  0  0
  -23.7669  -37.6632   23.6516 H   0  0  0  0  0  0  0  0  0  0  0  0
  -25.9445  -31.6237   20.5691 H   0  0  0  0  0  0  0  0  0  0  0  0
  -26.7436  -31.0079   22.0108 H   0  0  0  0  0  0  0  0  0  0  0  0
  -28.0090  -29.1452   21.2057 H   0  0  0  0  0  0  0  0  0  0  0  0
  -26.1369  -26.0560   19.0719 H   0  0  0  0  0  0  0  0  0  0  0  0
  -24.0652  -27.2961   19.0997 H   0  0  0  0  0  0  0  0  0  0  0  0
  -23.6156  -30.5365   19.3930 H   0  0  0  0  0  0  0  0  0  0  0  0
  -22.7355  -29.1425   19.9945 H   0  0  0  0  0  0  0  0  0  0  0  0
  -25.1353  -36.2335   25.0565 H   0  0  0  0  0  0  0  0  0  0  0  0
  -21.0070  -28.3206   24.0793 H   0  0  0  0  0  0  0  0  0  0  0  0
  -20.5555  -26.2518   23.3550 H   0  0  0  0  0  0  0  0  0  0  0  0
  -21.5974  -26.8362   22.0454 H   0  0  0  0  0  0  0  0  0  0  0  0
  -19.6810  -25.6422   21.1488 H   0  0  0  0  0  0  0  0  0  0  0  0
  -19.6406  -27.3343   20.7034 H   0  0  0  0  0  0  0  0  0  0  0  0
  -17.4282  -26.6888   21.4113 H   0  0  0  0  0  0  0  0  0  0  0  0
  -18.0803  -26.0130   22.9049 H   0  0  0  0  0  0  0  0  0  0  0  0
  -19.7265  -30.6774   24.2204 H   0  0  0  0  0  0  0  0  0  0  0  0
  -17.5064  -31.5856   24.4483 H   0  0  0  0  0  0  0  0  0  0  0  0
  -15.5878  -30.2839   23.7407 H   0  0  0  0  0  0  0  0  0  0  0  0
  -15.9120  -28.0941   22.7766 H   0  0  0  0  0  0  0  0  0  0  0  0
  -24.5787  -30.7757   25.6817 H   0  0  0  0  0  0  0  0  0  0  0  0
  -25.0041  -32.2289   26.5536 H   0  0  0  0  0  0  0  0  0  0  0  0
  -25.8166  -30.7245   26.9138 H   0  0  0  0  0  0  0  0  0  0  0  0
  -26.2892  -29.7335   24.0803 H   0  0  0  0  0  0  0  0  0  0  0  0
  -27.4336  -29.7484   25.4006 H   0  0  0  0  0  0  0  0  0  0  0  0
  -27.8466  -30.4994   23.8779 H   0  0  0  0  0  0  0  0  0  0  0  0
  -27.2251  -33.3632   26.1242 H   0  0  0  0  0  0  0  0  0  0  0  0
  -28.3902  -32.6065   25.0645 H   0  0  0  0  0  0  0  0  0  0  0  0
  -27.9772  -31.8555   26.5872 H   0  0  0  0  0  0  0  0  0  0  0  0
  -28.2744  -38.0016   24.6863 H   0  0  0  0  0  0  0  0  0  0  0  0
  -28.0396  -36.2711   24.7461 H   0  0  0  0  0  0  0  0  0  0  0  0
  -27.1773  -37.3087   25.8564 H   0  0  0  0  0  0  0  0  0  0  0  0
  -20.9627  -29.9365   21.7352 H   0  0  0  0  0  0  0  0  0  0  0  0
  -26.0447  -38.2561   24.0273 H   0  0  0  0  0  0  0  0  0  0  0  0
  -34.2718  -17.9579   22.7297 H   0  0  0  0  0  0  0  0  0  0  0  0
  -30.1517  -15.4014   22.5123 H   0  0  0  0  0  0  0  0  0  0  0  0
  -35.5382  -16.1219   22.2693 H   0  0  0  0  0  0  0  0  0  0  0  0
  -34.7827  -14.9670   21.1976 H   0  0  0  0  0  0  0  0  0  0  0  0
  -34.9060  -14.6227   22.9062 H   0  0  0  0  0  0  0  0  0  0  0  0
  -33.1537  -19.8859   23.1983 H   0  0  0  0  0  0  0  0  0  0  0  0
  -31.7060  -19.6738   24.1535 H   0  0  0  0  0  0  0  0  0  0  0  0
  -31.5827  -20.0181   22.4449 H   0  0  0  0  0  0  0  0  0  0  0  0
  -31.3285  -13.4206   22.3322 H   0  0  0  0  0  0  0  0  0  0  0  0
  -33.0877  -13.4160   22.5955 H   0  0  0  0  0  0  0  0  0  0  0  0
  -29.7387  -18.6060   23.9175 H   0  0  0  0  0  0  0  0  0  0  0  0
  -28.9384  -17.1943   23.2163 H   0  0  0  0  0  0  0  0  0  0  0  0
  -32.5830  -12.4460   20.4642 H   0  0  0  0  0  0  0  0  0  0  0  0
  -33.4176  -14.0027   20.2799 H   0  0  0  0  0  0  0  0  0  0  0  0
  -30.5197  -13.4713   19.8937 H   0  0  0  0  0  0  0  0  0  0  0  0
  -31.7947  -13.8621   18.6636 H   0  0  0  0  0  0  0  0  0  0  0  0
  -28.8788  -19.6157   21.6177 H   0  0  0  0  0  0  0  0  0  0  0  0
  1 25  1  0
  1 30  2  0
  1 83  1  0
  2  3  1  0
  2 25  1  0
  2 84  1  0
  2 85  1  0
  3  4  1  0
  3 86  1  0
  3 87  1  0
  4  5  1  0
  4 88  1  0
  4 89  1  0
  5  6  1  0
  5 26  1  0
  5 90  1  6
  6 25  1  0
  6 91  1  0
  6 92  1  0
  7  8  2  0
  7 26  1  0
  7 29  1  0
  8  9  1  0
  8 22  1  0
  9 10  1  0
  9 27  2  0
 10 11  2  0
 10 15  1  0
 11 12  1  0
 11 93  1  0
 12 13  2  0
 12 94  1  0
 13 14  1  0
 13 31  1  0
 14 15  2  0
 14 95  1  0
 15 96  1  0
 16 17  2  0
 16 21  1  0
 16 31  1  0
 17 18  1  0
 17 97  1  0
 18 19  2  0
 18 98  1  0
 19 20  1  0
 19 24  1  0
 20 21  2  0
 20 99  1  0
 21 23  1  0
 22 28  1  0
 22 32  2  0
 26 27  1  0
 28100  1  0
 28101  1  0
 29102  1  0
 29103  1  0
 33 34  1  0
 33 66  1  0
 33 70  2  0
 34 36  1  0
 34 59  1  0
 34104  1  6
 35 44  2  0
 35 45  1  0
 35 68  1  0
 36 56  1  0
 36105  1  0
 37 39  1  0
 37 47  1  0
 37 66  1  0
 37106  1  6
 38 43  2  0
 38 46  1  0
 38 47  1  0
 39 64  1  0
 39 67  2  0
 40 52  1  0
 40 53  2  0
 40 58  1  0
 41107  1  0
 41108  1  0
 41109  1  0
 42 43  1  0
 42 66  1  0
 42110  1  0
 42111  1  0
 43 44  1  0
 44112  1  0
 45 46  2  0
 45113  1  0
 46114  1  0
 47115  1  0
 47116  1  0
 48 41  1  0
 48 56  1  0
 48 65  1  0
 48117  1  1
 49 50  1  0
 49 53  1  0
 49 64  1  0
 49118  1  1
 50 51  1  0
 50119  1  0
 50120  1  0
 51 52  1  0
 51121  1  0
 51122  1  0
 52123  1  0
 52124  1  0
 53 54  1  0
 54 55  2  0
 54125  1  0
 55 57  1  0
 55126  1  0
 56 69  2  0
 57 58  2  0
 57127  1  0
 58128  1  0
 59 60  1  0
 59 61  1  0
 59 62  1  0
 60129  1  0
 60130  1  0
 60131  1  0
 61132  1  0
 61133  1  0
 61134  1  0
 62135  1  0
 62136  1  0
 62137  1  0
 63 65  1  0
 63138  1  0
 63139  1  0
 63140  1  0
 64141  1  0
 65142  1  0
 68 82  1  0
 71 73  2  0
 71 74  1  0
 71143  1  0
 72 75  2  0
 72 76  1  0
 72144  1  0
 73 75  1  0
 73 77  1  0
 74 76  2  0
 74 78  1  0
 75 79  1  0
 76 80  1  0
 77145  1  0
 77146  1  0
 77147  1  0
 78148  1  0
 78149  1  0
 78150  1  0
 79 81  1  0
 79151  1  0
 79152  1  0
 80 83  1  0
 80153  1  0
 80154  1  0
 81 82  1  0
 81155  1  0
 81156  1  0
 82157  1  0
 82158  1  0
 83159  1  0
M  ISO  4   1 100  68 101  82 101  83 100
M  END
$$$$
47
     RDKit          3D

150158  0  0  0  0  0  0  0  0999 V2000
  -30.7652  -14.3608   20.6636 C   0  0  0  0  0  0  0  0  0100  0  0
  -30.4392  -12.2669   19.3775 C   0  0  0  0  0  0  0  0  0101  0  0
  -29.4791  -12.5281   18.1977 C   0  0  0  0  0  0  0  0  0102  0  0
  -27.9985  -12.3963   18.6038 C   0  0  0  0  0  0  0  0  0103  0  0
  -27.6639  -13.2170   19.8820 C   0  0  2  0  0  0  0  0  0104  0  0
  -28.6795  -12.9602   21.0279 C   0  0  0  0  0  0  0  0  0105  0  0
  -25.2633  -13.8245   20.5754 C   0  0  0  0  0  0  0  0  0106  0  0
  -24.1645  -13.0409   20.9408 C   0  0  0  0  0  0  0  0  0107  0  0
  -24.6400  -11.7009   20.8697 C   0  0  0  0  0  0  0  0  0108  0  0
  -23.9005  -10.4085   21.0420 C   0  0  0  0  0  0  0  0  0109  0  0
  -24.3588   -9.4123   21.9123 C   0  0  0  0  0  0  0  0  0110  0  0
  -23.6296   -8.2350   22.0803 C   0  0  0  0  0  0  0  0  0111  0  0
  -22.4385   -8.0419   21.3657 C   0  0  0  0  0  0  0  0  0112  0  0
  -22.0103   -9.0167   20.4678 C   0  0  0  0  0  0  0  0  0113  0  0
  -22.7317  -10.1925   20.3102 C   0  0  0  0  0  0  0  0  0114  0  0
  -21.6857   -6.0709   22.5391 C   0  0  0  0  0  0  0  0  0115  0  0
  -21.4064   -6.5490   23.8264 C   0  0  0  0  0  0  0  0  0116  0  0
  -21.3635   -5.6677   24.9085 C   0  0  0  0  0  0  0  0  0117  0  0
  -21.5973   -4.3067   24.7088 C   0  0  0  0  0  0  0  0  0118  0  0
  -21.8700   -3.8284   23.4282 C   0  0  0  0  0  0  0  0  0119  0  0
  -21.9144   -4.7056   22.3460 C   0  0  0  0  0  0  0  0  0120  0  0
  -22.8194  -13.5263   21.1763 C   0  0  0  0  0  0  0  0  0121  0  0
  -22.1559   -4.2206   21.1063 F   0  0  0  0  0  0  0  0  0122  0  0
  -21.5628   -3.4510   25.7555 F   0  0  0  0  0  0  0  0  0123  0  0
  -30.0261  -13.1803   20.4553 N   0  0  0  0  0  0  0  0  0124  0  0
  -26.2911  -12.9356   20.3443 N   0  0  0  0  0  0  0  0  0125  0  0
  -25.9236  -11.6675   20.5847 N   0  0  0  0  0  0  0  0  0126  0  0
  -22.0708  -12.7905   22.0005 N   0  0  0  0  0  0  0  0  0127  0  0
  -25.4117  -15.1773   20.4097 N   0  0  0  0  0  0  0  0  0128  0  0
  -31.7916  -14.6724   20.0536 O   0  0  0  0  0  0  0  0  0129  0  0
  -21.6670   -6.9022   21.4423 O   0  0  0  0  0  0  0  0  0130  0  0
  -22.3946  -14.5564   20.6568 O   0  0  0  0  0  0  0  0  0131  0  0
  -24.6048  -31.8614   23.2223 C   0  0  0  0  0  0  0  0  0100  0  0
  -25.8822  -32.4841   23.8616 C   0  0  1  0  0  0  0  0  0101  0  0
  -27.2536  -27.5042   20.1156 C   0  0  0  0  0  0  0  0  0102  0  0
  -25.5726  -33.8762   24.2210 N   0  0  0  0  0  0  0  0  0103  0  0
  -23.4066  -30.4859   21.5461 C   0  0  2  0  0  0  0  0  0104  0  0
  -24.8467  -28.9636   20.1247 C   0  0  0  0  0  0  0  0  0105  0  0
  -22.7412  -29.4652   22.5052 C   0  0  0  0  0  0  0  0  0106  0  0
  -18.0167  -28.1302   22.8626 C   0  0  0  0  0  0  0  0  0107  0  0
  -24.1342  -36.7390   23.2568 C   0  0  0  0  0  0  0  0  0108  0  0
  -25.9141  -30.8882   21.3456 C   0  0  0  0  0  0  0  0  0109  0  0
  -25.9930  -29.5029   20.7208 C   0  0  0  0  0  0  0  0  0110  0  0
  -27.1758  -28.7612   20.7331 C   0  0  0  0  0  0  0  0  0111  0  0
  -26.1032  -26.9836   19.5230 C   0  0  0  0  0  0  0  0  0112  0  0
  -24.9097  -27.7011   19.5331 C   0  0  0  0  0  0  0  0  0113  0  0
  -23.5715  -29.7899   20.1582 C   0  0  0  0  0  0  0  0  0114  0  0
  -25.3990  -36.3212   24.0232 C   0  0  1  0  0  0  0  0  0115  0  0
  -20.5793  -28.3813   23.1004 C   0  0  2  0  0  0  0  0  0116  0  0
  -20.6548  -26.9392   22.5411 C   0  0  0  0  0  0  0  0  0117  0  0
  -19.5615  -26.6407   21.5143 C   0  0  0  0  0  0  0  0  0118  0  0
  -18.1797  -26.7818   22.1673 C   0  0  0  0  0  0  0  0  0119  0  0
  -19.1385  -28.8769   23.2988 C   0  0  0  0  0  0  0  0  0120  0  0
  -18.9183  -30.1286   23.8878 C   0  0  0  0  0  0  0  0  0121  0  0
  -17.6396  -30.6493   24.0352 C   0  0  0  0  0  0  0  0  0122  0  0
  -25.9153  -34.9582   23.4993 C   0  0  0  0  0  0  0  0  0123  0  0
  -16.5415  -29.9068   23.6254 C   0  0  0  0  0  0  0  0  0124  0  0
  -16.7331  -28.6521   23.0586 C   0  0  0  0  0  0  0  0  0125  0  0
  -26.4583  -31.6439   25.0683 C   0  0  0  0  0  0  0  0  0126  0  0
  -25.3807  -31.3179   26.1374 C   0  0  0  0  0  0  0  0  0127  0  0
  -27.0530  -30.3024   24.5680 C   0  0  0  0  0  0  0  0  0128  0  0
  -27.6014  -32.4281   25.7651 C   0  0  0  0  0  0  0  0  0129  0  0
  -27.5629  -37.2220   24.8621 C   0  0  0  0  0  0  0  0  0130  0  0
  -21.4133  -29.3375   22.3735 N   0  0  0  0  0  0  0  0  0131  0  0
  -26.4706  -37.3372   23.9061 N   0  0  0  0  0  0  0  0  0132  0  0
  -24.6674  -31.0544   22.1178 N   0  0  0  0  0  0  0  0  0133  0  0
  -23.4259  -28.8150   23.2971 O   0  0  0  0  0  0  0  0  0134  0  0
  -28.3948  -26.7345   20.0089 O   0  0  0  0  0  0  0  0  0135  0  0
  -26.5870  -34.9065   22.4671 O   0  0  0  0  0  0  0  0  0136  0  0
  -23.5365  -32.1254   23.7833 O   0  0  0  0  0  0  0  0  0137  0  0
  -25.8240  -21.1408   21.3789 C   0  0  0  0  0  0  0  0  0  0  0  0
  -27.7452  -22.2983   22.2767 C   0  0  0  0  0  0  0  0  0  0  0  0
  -26.3617  -22.1540   22.1726 C   0  0  0  0  0  0  0  0  0  0  0  0
  -28.0533  -20.4162   20.7936 C   0  0  0  0  0  0  0  0  0  0  0  0
  -26.6698  -20.2719   20.6894 C   0  0  0  0  0  0  0  0  0  0  0  0
  -28.5910  -21.4294   21.5872 C   0  0  0  0  0  0  0  0  0  0  0  0
  -28.7579  -19.5414   18.5353 C   0  0  0  0  0  0  0  0  0  0  0  0
  -25.4520  -23.0882   22.9148 C   0  0  0  0  0  0  0  0  0  1  0  0
  -28.9617  -19.4825   20.0535 C   0  0  2  0  0  0  0  0  0  0  0  0
  -28.8273  -18.1218   20.5240 N   0  0  0  0  0  0  0  0  0  0  0  0
  -25.9619  -19.0313   19.7186 Cl  0  0  0  0  0  0  0  0  0  0  0  0
  -30.2974  -21.6433   21.7450 Cl  0  0  0  0  0  0  0  0  0  0  0  0
  -31.4485  -12.4701   19.0860 H   0  0  0  0  0  0  0  0  0  0  0  0
  -30.3970  -11.2460   19.6950 H   0  0  0  0  0  0  0  0  0  0  0  0
  -29.6870  -11.8204   17.4226 H   0  0  0  0  0  0  0  0  0  0  0  0
  -29.6375  -13.5326   17.8649 H   0  0  0  0  0  0  0  0  0  0  0  0
  -27.7830  -11.3650   18.7904 H   0  0  0  0  0  0  0  0  0  0  0  0
  -27.4028  -12.7801   17.8021 H   0  0  0  0  0  0  0  0  0  0  0  0
  -27.7353  -14.2503   19.6136 H   0  0  0  0  0  0  0  0  0  0  0  0
  -28.5890  -11.9550   21.3832 H   0  0  0  0  0  0  0  0  0  0  0  0
  -28.5005  -13.6134   21.8562 H   0  0  0  0  0  0  0  0  0  0  0  0
  -25.2399   -9.5495   22.4318 H   0  0  0  0  0  0  0  0  0  0  0  0
  -23.9663   -7.5070   22.7297 H   0  0  0  0  0  0  0  0  0  0  0  0
  -21.1515   -8.8641   19.9162 H   0  0  0  0  0  0  0  0  0  0  0  0
  -22.4016  -10.9115   19.6476 H   0  0  0  0  0  0  0  0  0  0  0  0
  -21.2319   -7.5552   23.9750 H   0  0  0  0  0  0  0  0  0  0  0  0
  -21.1589   -6.0228   25.8556 H   0  0  0  0  0  0  0  0  0  0  0  0
  -22.0396   -2.8212   23.2809 H   0  0  0  0  0  0  0  0  0  0  0  0
  -22.4401  -11.9703   22.4008 H   0  0  0  0  0  0  0  0  0  0  0  0
  -21.1493  -13.0679   22.2082 H   0  0  0  0  0  0  0  0  0  0  0  0
  -24.6538  -15.7807   20.5848 H   0  0  0  0  0  0  0  0  0  0  0  0
  -26.2762  -15.5453   20.1156 H   0  0  0  0  0  0  0  0  0  0  0  0
  -26.6778  -32.4663   23.1464 H   0  0  0  0  0  0  0  0  0  0  0  0
  -25.0747  -34.0282   25.0566 H   0  0  0  0  0  0  0  0  0  0  0  0
  -22.7881  -31.3489   21.4131 H   0  0  0  0  0  0  0  0  0  0  0  0
  -23.3854  -35.9823   23.3648 H   0  0  0  0  0  0  0  0  0  0  0  0
  -24.3696  -36.8624   22.2204 H   0  0  0  0  0  0  0  0  0  0  0  0
  -23.7669  -37.6632   23.6516 H   0  0  0  0  0  0  0  0  0  0  0  0
  -25.9445  -31.6237   20.5691 H   0  0  0  0  0  0  0  0  0  0  0  0
  -26.7436  -31.0079   22.0108 H   0  0  0  0  0  0  0  0  0  0  0  0
  -28.0090  -29.1452   21.2057 H   0  0  0  0  0  0  0  0  0  0  0  0
  -26.1369  -26.0560   19.0719 H   0  0  0  0  0  0  0  0  0  0  0  0
  -24.0652  -27.2961   19.0997 H   0  0  0  0  0  0  0  0  0  0  0  0
  -23.6156  -30.5365   19.3930 H   0  0  0  0  0  0  0  0  0  0  0  0
  -22.7355  -29.1425   19.9945 H   0  0  0  0  0  0  0  0  0  0  0  0
  -25.1353  -36.2335   25.0565 H   0  0  0  0  0  0  0  0  0  0  0  0
  -21.0070  -28.3206   24.0793 H   0  0  0  0  0  0  0  0  0  0  0  0
  -20.5555  -26.2518   23.3550 H   0  0  0  0  0  0  0  0  0  0  0  0
  -21.5974  -26.8362   22.0454 H   0  0  0  0  0  0  0  0  0  0  0  0
  -19.6810  -25.6422   21.1488 H   0  0  0  0  0  0  0  0  0  0  0  0
  -19.6406  -27.3343   20.7034 H   0  0  0  0  0  0  0  0  0  0  0  0
  -17.4282  -26.6888   21.4113 H   0  0  0  0  0  0  0  0  0  0  0  0
  -18.0803  -26.0130   22.9049 H   0  0  0  0  0  0  0  0  0  0  0  0
  -19.7265  -30.6774   24.2204 H   0  0  0  0  0  0  0  0  0  0  0  0
  -17.5064  -31.5856   24.4483 H   0  0  0  0  0  0  0  0  0  0  0  0
  -15.5878  -30.2839   23.7407 H   0  0  0  0  0  0  0  0  0  0  0  0
  -15.9120  -28.0941   22.7766 H   0  0  0  0  0  0  0  0  0  0  0  0
  -24.5787  -30.7757   25.6817 H   0  0  0  0  0  0  0  0  0  0  0  0
  -25.0041  -32.2289   26.5536 H   0  0  0  0  0  0  0  0  0  0  0  0
  -25.8166  -30.7245   26.9138 H   0  0  0  0  0  0  0  0  0  0  0  0
  -26.2892  -29.7335   24.0803 H   0  0  0  0  0  0  0  0  0  0  0  0
  -27.4336  -29.7484   25.4006 H   0  0  0  0  0  0  0  0  0  0  0  0
  -27.8466  -30.4994   23.8779 H   0  0  0  0  0  0  0  0  0  0  0  0
  -27.2251  -33.3632   26.1242 H   0  0  0  0  0  0  0  0  0  0  0  0
  -28.3902  -32.6065   25.0645 H   0  0  0  0  0  0  0  0  0  0  0  0
  -27.9772  -31.8555   26.5872 H   0  0  0  0  0  0  0  0  0  0  0  0
  -28.2744  -38.0016   24.6863 H   0  0  0  0  0  0  0  0  0  0  0  0
  -28.0396  -36.2711   24.7461 H   0  0  0  0  0  0  0  0  0  0  0  0
  -27.1773  -37.3087   25.8564 H   0  0  0  0  0  0  0  0  0  0  0  0
  -20.9627  -29.9365   21.7352 H   0  0  0  0  0  0  0  0  0  0  0  0
  -26.0447  -38.2561   24.0273 H   0  0  0  0  0  0  0  0  0  0  0  0
  -24.8004  -21.0340   21.3018 H   0  0  0  0  0  0  0  0  0  0  0  0
  -28.1430  -23.0479   22.8639 H   0  0  0  0  0  0  0  0  0  0  0  0
  -28.8599  -20.5526   18.2007 H   0  0  0  0  0  0  0  0  0  0  0  0
  -27.7796  -19.1823   18.2926 H   0  0  0  0  0  0  0  0  0  0  0  0
  -29.4920  -18.9304   18.0529 H   0  0  0  0  0  0  0  0  0  0  0  0
  -25.5733  -23.1218   23.9774 H   0  0  0  0  0  0  0  0  0  0  0  0
  -24.3839  -23.0284   22.9392 H   0  0  0  0  0  0  0  0  0  0  0  0
  -29.9573  -19.8168   20.2581 H   0  0  0  0  0  0  0  0  0  0  0  0
  -27.9608  -18.0391   20.9840 H   0  0  0  0  0  0  0  0  0  0  0  0
  1 25  1  0
  1 30  2  0
  1 80  1  0
  2  3  1  0
  2 25  1  0
  2 83  1  0
  2 84  1  0
  3  4  1  0
  3 85  1  0
  3 86  1  0
  4  5  1  0
  4 87  1  0
  4 88  1  0
  5  6  1  0
  5 26  1  0
  5 89  1  6
  6 25  1  0
  6 90  1  0
  6 91  1  0
  7  8  2  0
  7 26  1  0
  7 29  1  0
  8  9  1  0
  8 22  1  0
  9 10  1  0
  9 27  2  0
 10 11  2  0
 10 15  1  0
 11 12  1  0
 11 92  1  0
 12 13  2  0
 12 93  1  0
 13 14  1  0
 13 31  1  0
 14 15  2  0
 14 94  1  0
 15 95  1  0
 16 17  2  0
 16 21  1  0
 16 31  1  0
 17 18  1  0
 17 96  1  0
 18 19  2  0
 18 97  1  0
 19 20  1  0
 19 24  1  0
 20 21  2  0
 20 98  1  0
 21 23  1  0
 22 28  1  0
 22 32  2  0
 26 27  1  0
 28 99  1  0
 28100  1  0
 29101  1  0
 29102  1  0
 33 34  1  0
 33 66  1  0
 33 70  2  0
 34 36  1  0
 34 59  1  0
 34103  1  6
 35 44  2  0
 35 45  1  0
 35 68  1  0
 36 56  1  0
 36104  1  0
 37 39  1  0
 37 47  1  0
 37 66  1  0
 37105  1  6
 38 43  2  0
 38 46  1  0
 38 47  1  0
 39 64  1  0
 39 67  2  0
 40 52  1  0
 40 53  2  0
 40 58  1  0
 41106  1  0
 41107  1  0
 41108  1  0
 42 43  1  0
 42 66  1  0
 42109  1  0
 42110  1  0
 43 44  1  0
 44111  1  0
 45 46  2  0
 45112  1  0
 46113  1  0
 47114  1  0
 47115  1  0
 48 41  1  0
 48 56  1  0
 48 65  1  0
 48116  1  1
 49 50  1  0
 49 53  1  0
 49 64  1  0
 49117  1  1
 50 51  1  0
 50118  1  0
 50119  1  0
 51 52  1  0
 51120  1  0
 51121  1  0
 52122  1  0
 52123  1  0
 53 54  1  0
 54 55  2  0
 54124  1  0
 55 57  1  0
 55125  1  0
 56 69  2  0
 57 58  2  0
 57126  1  0
 58127  1  0
 59 60  1  0
 59 61  1  0
 59 62  1  0
 60128  1  0
 60129  1  0
 60130  1  0
 61131  1  0
 61132  1  0
 61133  1  0
 62134  1  0
 62135  1  0
 62136  1  0
 63 65  1  0
 63137  1  0
 63138  1  0
 63139  1  0
 64140  1  0
 65141  1  0
 68 78  1  0
 71 73  2  0
 71 75  1  0
 71142  1  0
 72 73  1  0
 72 76  2  0
 72143  1  0
 73 78  1  0
 74 75  2  0
 74 76  1  0
 74 79  1  0
 75 81  1  0
 76 82  1  0
 77144  1  0
 77145  1  0
 77146  1  0
 78147  1  0
 78148  1  0
 79 77  1  0
 79 80  1  0
 79149  1  6
 80150  1  0
M  ISO  4   1 100  68 101  78 101  80 100
M  END
$$$$
48
     RDKit          3D

153161  0  0  0  0  0  0  0  0999 V2000
  -30.7652  -14.3608   20.6636 C   0  0  0  0  0  0  0  0  0100  0  0
  -30.4392  -12.2669   19.3775 C   0  0  0  0  0  0  0  0  0101  0  0
  -29.4791  -12.5281   18.1977 C   0  0  0  0  0  0  0  0  0102  0  0
  -27.9985  -12.3963   18.6038 C   0  0  0  0  0  0  0  0  0103  0  0
  -27.6639  -13.2170   19.8820 C   0  0  2  0  0  0  0  0  0104  0  0
  -28.6795  -12.9602   21.0279 C   0  0  0  0  0  0  0  0  0105  0  0
  -25.2633  -13.8245   20.5754 C   0  0  0  0  0  0  0  0  0106  0  0
  -24.1645  -13.0409   20.9408 C   0  0  0  0  0  0  0  0  0107  0  0
  -24.6400  -11.7009   20.8697 C   0  0  0  0  0  0  0  0  0108  0  0
  -23.9005  -10.4085   21.0420 C   0  0  0  0  0  0  0  0  0109  0  0
  -24.3588   -9.4123   21.9123 C   0  0  0  0  0  0  0  0  0110  0  0
  -23.6296   -8.2350   22.0803 C   0  0  0  0  0  0  0  0  0111  0  0
  -22.4385   -8.0419   21.3657 C   0  0  0  0  0  0  0  0  0112  0  0
  -22.0103   -9.0167   20.4678 C   0  0  0  0  0  0  0  0  0113  0  0
  -22.7317  -10.1925   20.3102 C   0  0  0  0  0  0  0  0  0114  0  0
  -21.6857   -6.0709   22.5391 C   0  0  0  0  0  0  0  0  0115  0  0
  -21.4064   -6.5490   23.8264 C   0  0  0  0  0  0  0  0  0116  0  0
  -21.3635   -5.6677   24.9085 C   0  0  0  0  0  0  0  0  0117  0  0
  -21.5973   -4.3067   24.7088 C   0  0  0  0  0  0  0  0  0118  0  0
  -21.8700   -3.8284   23.4282 C   0  0  0  0  0  0  0  0  0119  0  0
  -21.9144   -4.7056   22.3460 C   0  0  0  0  0  0  0  0  0120  0  0
  -22.8194  -13.5263   21.1763 C   0  0  0  0  0  0  0  0  0121  0  0
  -22.1559   -4.2206   21.1063 F   0  0  0  0  0  0  0  0  0122  0  0
  -21.5628   -3.4510   25.7555 F   0  0  0  0  0  0  0  0  0123  0  0
  -30.0261  -13.1803   20.4553 N   0  0  0  0  0  0  0  0  0124  0  0
  -26.2911  -12.9356   20.3443 N   0  0  0  0  0  0  0  0  0125  0  0
  -25.9236  -11.6675   20.5847 N   0  0  0  0  0  0  0  0  0126  0  0
  -22.0708  -12.7905   22.0005 N   0  0  0  0  0  0  0  0  0127  0  0
  -25.4117  -15.1773   20.4097 N   0  0  0  0  0  0  0  0  0128  0  0
  -31.7916  -14.6724   20.0536 O   0  0  0  0  0  0  0  0  0129  0  0
  -21.6670   -6.9022   21.4423 O   0  0  0  0  0  0  0  0  0130  0  0
  -22.3946  -14.5564   20.6568 O   0  0  0  0  0  0  0  0  0131  0  0
  -24.6048  -31.8614   23.2223 C   0  0  0  0  0  0  0  0  0100  0  0
  -25.8822  -32.4841   23.8616 C   0  0  1  0  0  0  0  0  0101  0  0
  -27.2536  -27.5042   20.1156 C   0  0  0  0  0  0  0  0  0102  0  0
  -25.5726  -33.8762   24.2210 N   0  0  0  0  0  0  0  0  0103  0  0
  -23.4066  -30.4859   21.5461 C   0  0  2  0  0  0  0  0  0104  0  0
  -24.8467  -28.9636   20.1247 C   0  0  0  0  0  0  0  0  0105  0  0
  -22.7412  -29.4652   22.5052 C   0  0  0  0  0  0  0  0  0106  0  0
  -18.0167  -28.1302   22.8626 C   0  0  0  0  0  0  0  0  0107  0  0
  -24.1342  -36.7390   23.2568 C   0  0  0  0  0  0  0  0  0108  0  0
  -25.9141  -30.8882   21.3456 C   0  0  0  0  0  0  0  0  0109  0  0
  -25.9930  -29.5029   20.7208 C   0  0  0  0  0  0  0  0  0110  0  0
  -27.1758  -28.7612   20.7331 C   0  0  0  0  0  0  0  0  0111  0  0
  -26.1032  -26.9836   19.5230 C   0  0  0  0  0  0  0  0  0112  0  0
  -24.9097  -27.7011   19.5331 C   0  0  0  0  0  0  0  0  0113  0  0
  -23.5715  -29.7899   20.1582 C   0  0  0  0  0  0  0  0  0114  0  0
  -25.3990  -36.3212   24.0232 C   0  0  1  0  0  0  0  0  0115  0  0
  -20.5793  -28.3813   23.1004 C   0  0  2  0  0  0  0  0  0116  0  0
  -20.6548  -26.9392   22.5411 C   0  0  0  0  0  0  0  0  0117  0  0
  -19.5615  -26.6407   21.5143 C   0  0  0  0  0  0  0  0  0118  0  0
  -18.1797  -26.7818   22.1673 C   0  0  0  0  0  0  0  0  0119  0  0
  -19.1385  -28.8769   23.2988 C   0  0  0  0  0  0  0  0  0120  0  0
  -18.9183  -30.1286   23.8878 C   0  0  0  0  0  0  0  0  0121  0  0
  -17.6396  -30.6493   24.0352 C   0  0  0  0  0  0  0  0  0122  0  0
  -25.9153  -34.9582   23.4993 C   0  0  0  0  0  0  0  0  0123  0  0
  -16.5415  -29.9068   23.6254 C   0  0  0  0  0  0  0  0  0124  0  0
  -16.7331  -28.6521   23.0586 C   0  0  0  0  0  0  0  0  0125  0  0
  -26.4583  -31.6439   25.0683 C   0  0  0  0  0  0  0  0  0126  0  0
  -25.3807  -31.3179   26.1374 C   0  0  0  0  0  0  0  0  0127  0  0
  -27.0530  -30.3024   24.5680 C   0  0  0  0  0  0  0  0  0128  0  0
  -27.6014  -32.4281   25.7651 C   0  0  0  0  0  0  0  0  0129  0  0
  -27.5629  -37.2220   24.8621 C   0  0  0  0  0  0  0  0  0130  0  0
  -21.4133  -29.3375   22.3735 N   0  0  0  0  0  0  0  0  0131  0  0
  -26.4706  -37.3372   23.9061 N   0  0  0  0  0  0  0  0  0132  0  0
  -24.6674  -31.0544   22.1178 N   0  0  0  0  0  0  0  0  0133  0  0
  -23.4259  -28.8150   23.2971 O   0  0  0  0  0  0  0  0  0134  0  0
  -28.3948  -26.7345   20.0089 O   0  0  0  0  0  0  0  0  0135  0  0
  -26.5870  -34.9065   22.4671 O   0  0  0  0  0  0  0  0  0136  0  0
  -23.5365  -32.1254   23.7833 O   0  0  0  0  0  0  0  0  0137  0  0
  -28.9744  -22.2370   17.5074 C   0  0  0  0  0  0  0  0  0  0  0  0
  -28.8044  -23.6806   19.4236 C   0  0  0  0  0  0  0  0  0  0  0  0
  -28.4532  -22.5057   18.7681 C   0  0  0  0  0  0  0  0  0  0  0  0
  -29.8360  -23.1680   16.9500 C   0  0  0  0  0  0  0  0  0  0  0  0
  -29.6737  -24.5469   18.7805 C   0  0  0  0  0  0  0  0  0  0  0  0
  -30.4139  -22.9127   15.5979 C   0  0  0  0  0  0  0  0  0  0  0  0
  -31.1846  -27.8246   19.5183 C   0  0  0  0  0  0  0  0  0  0  0  0
  -29.9031  -28.5976   19.7878 C   0  0  0  0  0  0  0  0  0  1  0  0
  -30.9290  -26.5653   18.7051 C   0  0  0  0  0  0  0  0  0  0  0  0
  -30.2004  -24.3201   17.5562 N   0  0  0  0  0  0  0  0  0  0  0  0
  -27.5674  -21.5860   19.3824 N   0  0  0  0  0  0  0  0  0  0  0  0
  -30.0355  -25.7112   19.4065 O   0  0  0  0  0  0  0  0  0  0  0  0
  -31.4485  -12.4701   19.0860 H   0  0  0  0  0  0  0  0  0  0  0  0
  -30.3970  -11.2460   19.6950 H   0  0  0  0  0  0  0  0  0  0  0  0
  -29.6870  -11.8204   17.4226 H   0  0  0  0  0  0  0  0  0  0  0  0
  -29.6375  -13.5326   17.8649 H   0  0  0  0  0  0  0  0  0  0  0  0
  -27.7830  -11.3650   18.7904 H   0  0  0  0  0  0  0  0  0  0  0  0
  -27.4028  -12.7801   17.8021 H   0  0  0  0  0  0  0  0  0  0  0  0
  -27.7353  -14.2503   19.6136 H   0  0  0  0  0  0  0  0  0  0  0  0
  -28.5890  -11.9550   21.3832 H   0  0  0  0  0  0  0  0  0  0  0  0
  -28.5005  -13.6134   21.8562 H   0  0  0  0  0  0  0  0  0  0  0  0
  -25.2399   -9.5495   22.4318 H   0  0  0  0  0  0  0  0  0  0  0  0
  -23.9663   -7.5070   22.7297 H   0  0  0  0  0  0  0  0  0  0  0  0
  -21.1515   -8.8641   19.9162 H   0  0  0  0  0  0  0  0  0  0  0  0
  -22.4016  -10.9115   19.6476 H   0  0  0  0  0  0  0  0  0  0  0  0
  -21.2319   -7.5552   23.9750 H   0  0  0  0  0  0  0  0  0  0  0  0
  -21.1589   -6.0228   25.8556 H   0  0  0  0  0  0  0  0  0  0  0  0
  -22.0396   -2.8212   23.2809 H   0  0  0  0  0  0  0  0  0  0  0  0
  -22.4401  -11.9703   22.4008 H   0  0  0  0  0  0  0  0  0  0  0  0
  -21.1493  -13.0679   22.2082 H   0  0  0  0  0  0  0  0  0  0  0  0
  -24.6538  -15.7807   20.5848 H   0  0  0  0  0  0  0  0  0  0  0  0
  -26.2762  -15.5453   20.1156 H   0  0  0  0  0  0  0  0  0  0  0  0
  -26.6778  -32.4663   23.1464 H   0  0  0  0  0  0  0  0  0  0  0  0
  -25.0747  -34.0282   25.0566 H   0  0  0  0  0  0  0  0  0  0  0  0
  -22.7881  -31.3489   21.4131 H   0  0  0  0  0  0  0  0  0  0  0  0
  -23.3854  -35.9823   23.3648 H   0  0  0  0  0  0  0  0  0  0  0  0
  -24.3696  -36.8624   22.2204 H   0  0  0  0  0  0  0  0  0  0  0  0
  -23.7669  -37.6632   23.6516 H   0  0  0  0  0  0  0  0  0  0  0  0
  -25.9445  -31.6237   20.5691 H   0  0  0  0  0  0  0  0  0  0  0  0
  -26.7436  -31.0079   22.0108 H   0  0  0  0  0  0  0  0  0  0  0  0
  -28.0090  -29.1452   21.2057 H   0  0  0  0  0  0  0  0  0  0  0  0
  -26.1369  -26.0560   19.0719 H   0  0  0  0  0  0  0  0  0  0  0  0
  -24.0652  -27.2961   19.0997 H   0  0  0  0  0  0  0  0  0  0  0  0
  -23.6156  -30.5365   19.3930 H   0  0  0  0  0  0  0  0  0  0  0  0
  -22.7355  -29.1425   19.9945 H   0  0  0  0  0  0  0  0  0  0  0  0
  -25.1353  -36.2335   25.0565 H   0  0  0  0  0  0  0  0  0  0  0  0
  -21.0070  -28.3206   24.0793 H   0  0  0  0  0  0  0  0  0  0  0  0
  -20.5555  -26.2518   23.3550 H   0  0  0  0  0  0  0  0  0  0  0  0
  -21.5974  -26.8362   22.0454 H   0  0  0  0  0  0  0  0  0  0  0  0
  -19.6810  -25.6422   21.1488 H   0  0  0  0  0  0  0  0  0  0  0  0
  -19.6406  -27.3343   20.7034 H   0  0  0  0  0  0  0  0  0  0  0  0
  -17.4282  -26.6888   21.4113 H   0  0  0  0  0  0  0  0  0  0  0  0
  -18.0803  -26.0130   22.9049 H   0  0  0  0  0  0  0  0  0  0  0  0
  -19.7265  -30.6774   24.2204 H   0  0  0  0  0  0  0  0  0  0  0  0
  -17.5064  -31.5856   24.4483 H   0  0  0  0  0  0  0  0  0  0  0  0
  -15.5878  -30.2839   23.7407 H   0  0  0  0  0  0  0  0  0  0  0  0
  -15.9120  -28.0941   22.7766 H   0  0  0  0  0  0  0  0  0  0  0  0
  -24.5787  -30.7757   25.6817 H   0  0  0  0  0  0  0  0  0  0  0  0
  -25.0041  -32.2289   26.5536 H   0  0  0  0  0  0  0  0  0  0  0  0
  -25.8166  -30.7245   26.9138 H   0  0  0  0  0  0  0  0  0  0  0  0
  -26.2892  -29.7335   24.0803 H   0  0  0  0  0  0  0  0  0  0  0  0
  -27.4336  -29.7484   25.4006 H   0  0  0  0  0  0  0  0  0  0  0  0
  -27.8466  -30.4994   23.8779 H   0  0  0  0  0  0  0  0  0  0  0  0
  -27.2251  -33.3632   26.1242 H   0  0  0  0  0  0  0  0  0  0  0  0
  -28.3902  -32.6065   25.0645 H   0  0  0  0  0  0  0  0  0  0  0  0
  -27.9772  -31.8555   26.5872 H   0  0  0  0  0  0  0  0  0  0  0  0
  -28.2744  -38.0016   24.6863 H   0  0  0  0  0  0  0  0  0  0  0  0
  -28.0396  -36.2711   24.7461 H   0  0  0  0  0  0  0  0  0  0  0  0
  -27.1773  -37.3087   25.8564 H   0  0  0  0  0  0  0  0  0  0  0  0
  -20.9627  -29.9365   21.7352 H   0  0  0  0  0  0  0  0  0  0  0  0
  -26.0447  -38.2561   24.0273 H   0  0  0  0  0  0  0  0  0  0  0  0
  -28.7273  -21.3714   17.0027 H   0  0  0  0  0  0  0  0  0  0  0  0
  -28.4294  -23.9004   20.3596 H   0  0  0  0  0  0  0  0  0  0  0  0
  -30.0524  -21.9766   15.2264 H   0  0  0  0  0  0  0  0  0  0  0  0
  -31.4812  -22.8810   15.6664 H   0  0  0  0  0  0  0  0  0  0  0  0
  -30.1224  -23.6974   14.9315 H   0  0  0  0  0  0  0  0  0  0  0  0
  -31.6249  -27.5486   20.4536 H   0  0  0  0  0  0  0  0  0  0  0  0
  -31.8391  -28.4556   18.9541 H   0  0  0  0  0  0  0  0  0  0  0  0
  -29.6381  -29.2352   18.9704 H   0  0  0  0  0  0  0  0  0  0  0  0
  -29.9339  -29.2699   20.6197 H   0  0  0  0  0  0  0  0  0  0  0  0
  -31.8547  -26.0539   18.5422 H   0  0  0  0  0  0  0  0  0  0  0  0
  -30.4949  -26.8345   17.7649 H   0  0  0  0  0  0  0  0  0  0  0  0
  -26.6423  -21.8150   19.6293 H   0  0  0  0  0  0  0  0  0  0  0  0
  1 25  1  0
  1 30  2  0
  1 81  1  0
  2  3  1  0
  2 25  1  0
  2 83  1  0
  2 84  1  0
  3  4  1  0
  3 85  1  0
  3 86  1  0
  4  5  1  0
  4 87  1  0
  4 88  1  0
  5  6  1  0
  5 26  1  0
  5 89  1  6
  6 25  1  0
  6 90  1  0
  6 91  1  0
  7  8  2  0
  7 26  1  0
  7 29  1  0
  8  9  1  0
  8 22  1  0
  9 10  1  0
  9 27  2  0
 10 11  2  0
 10 15  1  0
 11 12  1  0
 11 92  1  0
 12 13  2  0
 12 93  1  0
 13 14  1  0
 13 31  1  0
 14 15  2  0
 14 94  1  0
 15 95  1  0
 16 17  2  0
 16 21  1  0
 16 31  1  0
 17 18  1  0
 17 96  1  0
 18 19  2  0
 18 97  1  0
 19 20  1  0
 19 24  1  0
 20 21  2  0
 20 98  1  0
 21 23  1  0
 22 28  1  0
 22 32  2  0
 26 27  1  0
 28 99  1  0
 28100  1  0
 29101  1  0
 29102  1  0
 33 34  1  0
 33 66  1  0
 33 70  2  0
 34 36  1  0
 34 59  1  0
 34103  1  6
 35 44  2  0
 35 45  1  0
 35 68  1  0
 36 56  1  0
 36104  1  0
 37 39  1  0
 37 47  1  0
 37 66  1  0
 37105  1  6
 38 43  2  0
 38 46  1  0
 38 47  1  0
 39 64  1  0
 39 67  2  0
 40 52  1  0
 40 53  2  0
 40 58  1  0
 41106  1  0
 41107  1  0
 41108  1  0
 42 43  1  0
 42 66  1  0
 42109  1  0
 42110  1  0
 43 44  1  0
 44111  1  0
 45 46  2  0
 45112  1  0
 46113  1  0
 47114  1  0
 47115  1  0
 48 41  1  0
 48 56  1  0
 48 65  1  0
 48116  1  1
 49 50  1  0
 49 53  1  0
 49 64  1  0
 49117  1  1
 50 51  1  0
 50118  1  0
 50119  1  0
 51 52  1  0
 51120  1  0
 51121  1  0
 52122  1  0
 52123  1  0
 53 54  1  0
 54 55  2  0
 54124  1  0
 55 57  1  0
 55125  1  0
 56 69  2  0
 57 58  2  0
 57126  1  0
 58127  1  0
 59 60  1  0
 59 61  1  0
 59 62  1  0
 60128  1  0
 60129  1  0
 60130  1  0
 61131  1  0
 61132  1  0
 61133  1  0
 62134  1  0
 62135  1  0
 62136  1  0
 63 65  1  0
 63137  1  0
 63138  1  0
 63139  1  0
 64140  1  0
 65141  1  0
 68 78  1  0
 71 73  2  0
 71 74  1  0
 71142  1  0
 72 73  1  0
 72 75  2  0
 72143  1  0
 73 81  1  0
 74 76  1  0
 74 80  2  0
 75 80  1  0
 75 82  1  0
 76144  1  0
 76145  1  0
 76146  1  0
 77 78  1  0
 77 79  1  0
 77147  1  0
 77148  1  0
 78149  1  0
 78150  1  0
 79 82  1  0
 79151  1  0
 79152  1  0
 81153  1  0
M  ISO  4   1 100  68 101  78 101  81 100
M  END
$$$$
49
     RDKit          3D

165173  0  0  0  0  0  0  0  0999 V2000
  -30.7652  -14.3608   20.6636 C   0  0  0  0  0  0  0  0  0100  0  0
  -30.4392  -12.2669   19.3775 C   0  0  0  0  0  0  0  0  0101  0  0
  -29.4791  -12.5281   18.1977 C   0  0  0  0  0  0  0  0  0102  0  0
  -27.9985  -12.3963   18.6038 C   0  0  0  0  0  0  0  0  0103  0  0
  -27.6639  -13.2170   19.8820 C   0  0  2  0  0  0  0  0  0104  0  0
  -28.6795  -12.9602   21.0279 C   0  0  0  0  0  0  0  0  0105  0  0
  -25.2633  -13.8245   20.5754 C   0  0  0  0  0  0  0  0  0106  0  0
  -24.1645  -13.0409   20.9408 C   0  0  0  0  0  0  0  0  0107  0  0
  -24.6400  -11.7009   20.8697 C   0  0  0  0  0  0  0  0  0108  0  0
  -23.9005  -10.4085   21.0420 C   0  0  0  0  0  0  0  0  0109  0  0
  -24.3588   -9.4123   21.9123 C   0  0  0  0  0  0  0  0  0110  0  0
  -23.6296   -8.2350   22.0803 C   0  0  0  0  0  0  0  0  0111  0  0
  -22.4385   -8.0419   21.3657 C   0  0  0  0  0  0  0  0  0112  0  0
  -22.0103   -9.0167   20.4678 C   0  0  0  0  0  0  0  0  0113  0  0
  -22.7317  -10.1925   20.3102 C   0  0  0  0  0  0  0  0  0114  0  0
  -21.6857   -6.0709   22.5391 C   0  0  0  0  0  0  0  0  0115  0  0
  -21.4064   -6.5490   23.8264 C   0  0  0  0  0  0  0  0  0116  0  0
  -21.3635   -5.6677   24.9085 C   0  0  0  0  0  0  0  0  0117  0  0
  -21.5973   -4.3067   24.7088 C   0  0  0  0  0  0  0  0  0118  0  0
  -21.8700   -3.8284   23.4282 C   0  0  0  0  0  0  0  0  0119  0  0
  -21.9144   -4.7056   22.3460 C   0  0  0  0  0  0  0  0  0120  0  0
  -22.8194  -13.5263   21.1763 C   0  0  0  0  0  0  0  0  0121  0  0
  -22.1559   -4.2206   21.1063 F   0  0  0  0  0  0  0  0  0122  0  0
  -21.5628   -3.4510   25.7555 F   0  0  0  0  0  0  0  0  0123  0  0
  -30.0261  -13.1803   20.4553 N   0  0  0  0  0  0  0  0  0124  0  0
  -26.2911  -12.9356   20.3443 N   0  0  0  0  0  0  0  0  0125  0  0
  -25.9236  -11.6675   20.5847 N   0  0  0  0  0  0  0  0  0126  0  0
  -22.0708  -12.7905   22.0005 N   0  0  0  0  0  0  0  0  0127  0  0
  -25.4117  -15.1773   20.4097 N   0  0  0  0  0  0  0  0  0128  0  0
  -31.7916  -14.6724   20.0536 O   0  0  0  0  0  0  0  0  0129  0  0
  -21.6670   -6.9022   21.4423 O   0  0  0  0  0  0  0  0  0130  0  0
  -22.3946  -14.5564   20.6568 O   0  0  0  0  0  0  0  0  0131  0  0
  -24.6048  -31.8614   23.2223 C   0  0  0  0  0  0  0  0  0100  0  0
  -25.8822  -32.4841   23.8616 C   0  0  1  0  0  0  0  0  0101  0  0
  -27.2536  -27.5042   20.1156 C   0  0  0  0  0  0  0  0  0102  0  0
  -25.5726  -33.8762   24.2210 N   0  0  0  0  0  0  0  0  0103  0  0
  -23.4066  -30.4859   21.5461 C   0  0  2  0  0  0  0  0  0104  0  0
  -24.8467  -28.9636   20.1247 C   0  0  0  0  0  0  0  0  0105  0  0
  -22.7412  -29.4652   22.5052 C   0  0  0  0  0  0  0  0  0106  0  0
  -18.0167  -28.1302   22.8626 C   0  0  0  0  0  0  0  0  0107  0  0
  -24.1342  -36.7390   23.2568 C   0  0  0  0  0  0  0  0  0108  0  0
  -25.9141  -30.8882   21.3456 C   0  0  0  0  0  0  0  0  0109  0  0
  -25.9930  -29.5029   20.7208 C   0  0  0  0  0  0  0  0  0110  0  0
  -27.1758  -28.7612   20.7331 C   0  0  0  0  0  0  0  0  0111  0  0
  -26.1032  -26.9836   19.5230 C   0  0  0  0  0  0  0  0  0112  0  0
  -24.9097  -27.7011   19.5331 C   0  0  0  0  0  0  0  0  0113  0  0
  -23.5715  -29.7899   20.1582 C   0  0  0  0  0  0  0  0  0114  0  0
  -25.3990  -36.3212   24.0232 C   0  0  1  0  0  0  0  0  0115  0  0
  -20.5793  -28.3813   23.1004 C   0  0  2  0  0  0  0  0  0116  0  0
  -20.6548  -26.9392   22.5411 C   0  0  0  0  0  0  0  0  0117  0  0
  -19.5615  -26.6407   21.5143 C   0  0  0  0  0  0  0  0  0118  0  0
  -18.1797  -26.7818   22.1673 C   0  0  0  0  0  0  0  0  0119  0  0
  -19.1385  -28.8769   23.2988 C   0  0  0  0  0  0  0  0  0120  0  0
  -18.9183  -30.1286   23.8878 C   0  0  0  0  0  0  0  0  0121  0  0
  -17.6396  -30.6493   24.0352 C   0  0  0  0  0  0  0  0  0122  0  0
  -25.9153  -34.9582   23.4993 C   0  0  0  0  0  0  0  0  0123  0  0
  -16.5415  -29.9068   23.6254 C   0  0  0  0  0  0  0  0  0124  0  0
  -16.7331  -28.6521   23.0586 C   0  0  0  0  0  0  0  0  0125  0  0
  -26.4583  -31.6439   25.0683 C   0  0  0  0  0  0  0  0  0126  0  0
  -25.3807  -31.3179   26.1374 C   0  0  0  0  0  0  0  0  0127  0  0
  -27.0530  -30.3024   24.5680 C   0  0  0  0  0  0  0  0  0128  0  0
  -27.6014  -32.4281   25.7651 C   0  0  0  0  0  0  0  0  0129  0  0
  -27.5629  -37.2220   24.8621 C   0  0  0  0  0  0  0  0  0130  0  0
  -21.4133  -29.3375   22.3735 N   0  0  0  0  0  0  0  0  0131  0  0
  -26.4706  -37.3372   23.9061 N   0  0  0  0  0  0  0  0  0132  0  0
  -24.6674  -31.0544   22.1178 N   0  0  0  0  0  0  0  0  0133  0  0
  -23.4259  -28.8150   23.2971 O   0  0  0  0  0  0  0  0  0134  0  0
  -28.3948  -26.7345   20.0089 O   0  0  0  0  0  0  0  0  0135  0  0
  -26.5870  -34.9065   22.4671 O   0  0  0  0  0  0  0  0  0136  0  0
  -23.5365  -32.1254   23.7833 O   0  0  0  0  0  0  0  0  0137  0  0
  -27.8575  -21.1234   20.5419 C   0  0  0  0  0  0  0  0  0  0  0  0
  -28.7672  -22.0000   22.6012 C   0  0  0  0  0  0  0  0  0  0  0  0
  -28.4140  -20.9118   21.8032 C   0  0  0  0  0  0  0  0  0  0  0  0
  -27.6542  -22.4232   20.0784 C   0  0  0  0  0  0  0  0  0  0  0  0
  -28.5638  -23.2998   22.1377 C   0  0  0  0  0  0  0  0  0  0  0  0
  -28.0073  -23.5114   20.8763 C   0  0  0  0  0  0  0  0  0  0  0  0
  -27.0555  -22.6226   18.7243 C   0  0  0  0  0  0  0  0  0  0  0  0
  -28.9505  -24.4481   23.0117 C   0  0  0  0  0  0  0  0  0  0  0  0
  -28.6320  -19.5221   22.2985 C   0  0  0  0  0  0  0  0  0  0  0  0
  -27.7881  -24.9095   20.3777 C   0  0  0  0  0  0  0  0  0  1  0  0
  -30.0176  -18.9794   21.9171 C   0  0  0  0  0  0  0  0  0  0  0  0
  -30.2153  -17.5396   22.3957 C   0  0  0  0  0  0  0  0  0  0  0  0
  -31.6140  -17.0245   22.0438 C   0  0  0  0  0  0  0  0  0  0  0  0
  -31.8394  -15.5855   22.4960 C   0  0  0  0  0  0  0  0  0  0  0  0
  -30.9211  -14.6603   21.8702 N   0  0  0  0  0  0  0  0  0  0  0  0
  -31.4485  -12.4701   19.0860 H   0  0  0  0  0  0  0  0  0  0  0  0
  -30.3970  -11.2460   19.6950 H   0  0  0  0  0  0  0  0  0  0  0  0
  -29.6870  -11.8204   17.4226 H   0  0  0  0  0  0  0  0  0  0  0  0
  -29.6375  -13.5326   17.8649 H   0  0  0  0  0  0  0  0  0  0  0  0
  -27.7830  -11.3650   18.7904 H   0  0  0  0  0  0  0  0  0  0  0  0
  -27.4028  -12.7801   17.8021 H   0  0  0  0  0  0  0  0  0  0  0  0
  -27.7353  -14.2503   19.6136 H   0  0  0  0  0  0  0  0  0  0  0  0
  -28.5890  -11.9550   21.3832 H   0  0  0  0  0  0  0  0  0  0  0  0
  -28.5005  -13.6134   21.8562 H   0  0  0  0  0  0  0  0  0  0  0  0
  -25.2399   -9.5495   22.4318 H   0  0  0  0  0  0  0  0  0  0  0  0
  -23.9663   -7.5070   22.7297 H   0  0  0  0  0  0  0  0  0  0  0  0
  -21.1515   -8.8641   19.9162 H   0  0  0  0  0  0  0  0  0  0  0  0
  -22.4016  -10.9115   19.6476 H   0  0  0  0  0  0  0  0  0  0  0  0
  -21.2319   -7.5552   23.9750 H   0  0  0  0  0  0  0  0  0  0  0  0
  -21.1589   -6.0228   25.8556 H   0  0  0  0  0  0  0  0  0  0  0  0
  -22.0396   -2.8212   23.2809 H   0  0  0  0  0  0  0  0  0  0  0  0
  -22.4401  -11.9703   22.4008 H   0  0  0  0  0  0  0  0  0  0  0  0
  -21.1493  -13.0679   22.2082 H   0  0  0  0  0  0  0  0  0  0  0  0
  -24.6538  -15.7807   20.5848 H   0  0  0  0  0  0  0  0  0  0  0  0
  -26.2762  -15.5453   20.1156 H   0  0  0  0  0  0  0  0  0  0  0  0
  -26.6778  -32.4663   23.1464 H   0  0  0  0  0  0  0  0  0  0  0  0
  -25.0747  -34.0282   25.0566 H   0  0  0  0  0  0  0  0  0  0  0  0
  -22.7881  -31.3489   21.4131 H   0  0  0  0  0  0  0  0  0  0  0  0
  -23.3854  -35.9823   23.3648 H   0  0  0  0  0  0  0  0  0  0  0  0
  -24.3696  -36.8624   22.2204 H   0  0  0  0  0  0  0  0  0  0  0  0
  -23.7669  -37.6632   23.6516 H   0  0  0  0  0  0  0  0  0  0  0  0
  -25.9445  -31.6237   20.5691 H   0  0  0  0  0  0  0  0  0  0  0  0
  -26.7436  -31.0079   22.0108 H   0  0  0  0  0  0  0  0  0  0  0  0
  -28.0090  -29.1452   21.2057 H   0  0  0  0  0  0  0  0  0  0  0  0
  -26.1369  -26.0560   19.0719 H   0  0  0  0  0  0  0  0  0  0  0  0
  -24.0652  -27.2961   19.0997 H   0  0  0  0  0  0  0  0  0  0  0  0
  -23.6156  -30.5365   19.3930 H   0  0  0  0  0  0  0  0  0  0  0  0
  -22.7355  -29.1425   19.9945 H   0  0  0  0  0  0  0  0  0  0  0  0
  -25.1353  -36.2335   25.0565 H   0  0  0  0  0  0  0  0  0  0  0  0
  -21.0070  -28.3206   24.0793 H   0  0  0  0  0  0  0  0  0  0  0  0
  -20.5555  -26.2518   23.3550 H   0  0  0  0  0  0  0  0  0  0  0  0
  -21.5974  -26.8362   22.0454 H   0  0  0  0  0  0  0  0  0  0  0  0
  -19.6810  -25.6422   21.1488 H   0  0  0  0  0  0  0  0  0  0  0  0
  -19.6406  -27.3343   20.7034 H   0  0  0  0  0  0  0  0  0  0  0  0
  -17.4282  -26.6888   21.4113 H   0  0  0  0  0  0  0  0  0  0  0  0
  -18.0803  -26.0130   22.9049 H   0  0  0  0  0  0  0  0  0  0  0  0
  -19.7265  -30.6774   24.2204 H   0  0  0  0  0  0  0  0  0  0  0  0
  -17.5064  -31.5856   24.4483 H   0  0  0  0  0  0  0  0  0  0  0  0
  -15.5878  -30.2839   23.7407 H   0  0  0  0  0  0  0  0  0  0  0  0
  -15.9120  -28.0941   22.7766 H   0  0  0  0  0  0  0  0  0  0  0  0
  -24.5787  -30.7757   25.6817 H   0  0  0  0  0  0  0  0  0  0  0  0
  -25.0041  -32.2289   26.5536 H   0  0  0  0  0  0  0  0  0  0  0  0
  -25.8166  -30.7245   26.9138 H   0  0  0  0  0  0  0  0  0  0  0  0
  -26.2892  -29.7335   24.0803 H   0  0  0  0  0  0  0  0  0  0  0  0
  -27.4336  -29.7484   25.4006 H   0  0  0  0  0  0  0  0  0  0  0  0
  -27.8466  -30.4994   23.8779 H   0  0  0  0  0  0  0  0  0  0  0  0
  -27.2251  -33.3632   26.1242 H   0  0  0  0  0  0  0  0  0  0  0  0
  -28.3902  -32.6065   25.0645 H   0  0  0  0  0  0  0  0  0  0  0  0
  -27.9772  -31.8555   26.5872 H   0  0  0  0  0  0  0  0  0  0  0  0
  -28.2744  -38.0016   24.6863 H   0  0  0  0  0  0  0  0  0  0  0  0
  -28.0396  -36.2711   24.7461 H   0  0  0  0  0  0  0  0  0  0  0  0
  -27.1773  -37.3087   25.8564 H   0  0  0  0  0  0  0  0  0  0  0  0
  -20.9627  -29.9365   21.7352 H   0  0  0  0  0  0  0  0  0  0  0  0
  -26.0447  -38.2561   24.0273 H   0  0  0  0  0  0  0  0  0  0  0  0
  -27.5961  -20.3183   19.9516 H   0  0  0  0  0  0  0  0  0  0  0  0
  -29.1790  -21.8434   23.5345 H   0  0  0  0  0  0  0  0  0  0  0  0
  -26.8579  -21.6704   18.2780 H   0  0  0  0  0  0  0  0  0  0  0  0
  -27.7389  -23.1699   18.1092 H   0  0  0  0  0  0  0  0  0  0  0  0
  -26.1409  -23.1703   18.8158 H   0  0  0  0  0  0  0  0  0  0  0  0
  -29.3554  -24.0769   23.9299 H   0  0  0  0  0  0  0  0  0  0  0  0
  -28.0872  -25.0456   23.2183 H   0  0  0  0  0  0  0  0  0  0  0  0
  -29.6858  -25.0442   22.5128 H   0  0  0  0  0  0  0  0  0  0  0  0
  -27.8841  -18.8845   21.8755 H   0  0  0  0  0  0  0  0  0  0  0  0
  -28.5698  -19.5411   23.3665 H   0  0  0  0  0  0  0  0  0  0  0  0
  -26.9464  -25.1548   20.9912 H   0  0  0  0  0  0  0  0  0  0  0  0
  -28.2183  -24.6110   19.4446 H   0  0  0  0  0  0  0  0  0  0  0  0
  -30.7671  -19.5988   22.3636 H   0  0  0  0  0  0  0  0  0  0  0  0
  -30.0964  -18.9890   20.8500 H   0  0  0  0  0  0  0  0  0  0  0  0
  -29.4850  -16.9131   21.9277 H   0  0  0  0  0  0  0  0  0  0  0  0
  -30.1051  -17.5188   23.4598 H   0  0  0  0  0  0  0  0  0  0  0  0
  -32.3396  -17.6509   22.5192 H   0  0  0  0  0  0  0  0  0  0  0  0
  -31.7099  -17.0484   20.9784 H   0  0  0  0  0  0  0  0  0  0  0  0
  -31.7090  -15.5343   23.5568 H   0  0  0  0  0  0  0  0  0  0  0  0
  -32.8312  -15.3050   22.2087 H   0  0  0  0  0  0  0  0  0  0  0  0
  -30.3213  -14.1895   22.4930 H   0  0  0  0  0  0  0  0  0  0  0  0
  1 25  1  0
  1 30  2  0
  1 85  1  0
  2  3  1  0
  2 25  1  0
  2 86  1  0
  2 87  1  0
  3  4  1  0
  3 88  1  0
  3 89  1  0
  4  5  1  0
  4 90  1  0
  4 91  1  0
  5  6  1  0
  5 26  1  0
  5 92  1  6
  6 25  1  0
  6 93  1  0
  6 94  1  0
  7  8  2  0
  7 26  1  0
  7 29  1  0
  8  9  1  0
  8 22  1  0
  9 10  1  0
  9 27  2  0
 10 11  2  0
 10 15  1  0
 11 12  1  0
 11 95  1  0
 12 13  2  0
 12 96  1  0
 13 14  1  0
 13 31  1  0
 14 15  2  0
 14 97  1  0
 15 98  1  0
 16 17  2  0
 16 21  1  0
 16 31  1  0
 17 18  1  0
 17 99  1  0
 18 19  2  0
 18100  1  0
 19 20  1  0
 19 24  1  0
 20 21  2  0
 20101  1  0
 21 23  1  0
 22 28  1  0
 22 32  2  0
 26 27  1  0
 28102  1  0
 28103  1  0
 29104  1  0
 29105  1  0
 33 34  1  0
 33 66  1  0
 33 70  2  0
 34 36  1  0
 34 59  1  0
 34106  1  6
 35 44  2  0
 35 45  1  0
 35 68  1  0
 36 56  1  0
 36107  1  0
 37 39  1  0
 37 47  1  0
 37 66  1  0
 37108  1  6
 38 43  2  0
 38 46  1  0
 38 47  1  0
 39 64  1  0
 39 67  2  0
 40 52  1  0
 40 53  2  0
 40 58  1  0
 41109  1  0
 41110  1  0
 41111  1  0
 42 43  1  0
 42 66  1  0
 42112  1  0
 42113  1  0
 43 44  1  0
 44114  1  0
 45 46  2  0
 45115  1  0
 46116  1  0
 47117  1  0
 47118  1  0
 48 41  1  0
 48 56  1  0
 48 65  1  0
 48119  1  1
 49 50  1  0
 49 53  1  0
 49 64  1  0
 49120  1  1
 50 51  1  0
 50121  1  0
 50122  1  0
 51 52  1  0
 51123  1  0
 51124  1  0
 52125  1  0
 52126  1  0
 53 54  1  0
 54 55  2  0
 54127  1  0
 55 57  1  0
 55128  1  0
 56 69  2  0
 57 58  2  0
 57129  1  0
 58130  1  0
 59 60  1  0
 59 61  1  0
 59 62  1  0
 60131  1  0
 60132  1  0
 60133  1  0
 61134  1  0
 61135  1  0
 61136  1  0
 62137  1  0
 62138  1  0
 62139  1  0
 63 65  1  0
 63140  1  0
 63141  1  0
 63142  1  0
 64143  1  0
 65144  1  0
 68 80  1  0
 71 73  2  0
 71 74  1  0
 71145  1  0
 72 73  1  0
 72 75  2  0
 72146  1  0
 73 79  1  0
 74 76  2  0
 74 77  1  0
 75 76  1  0
 75 78  1  0
 76 80  1  0
 77147  1  0
 77148  1  0
 77149  1  0
 78150  1  0
 78151  1  0
 78152  1  0
 79 81  1  0
 79153  1  0
 79154  1  0
 80155  1  0
 80156  1  0
 81 82  1  0
 81157  1  0
 81158  1  0
 82 83  1  0
 82159  1  0
 82160  1  0
 83 84  1  0
 83161  1  0
 83162  1  0
 84 85  1  0
 84163  1  0
 84164  1  0
 85165  1  0
M  ISO  4   1 100  68 101  80 101  85 100
M  END
$$$$
50
     RDKit          3D

156164  0  0  0  0  0  0  0  0999 V2000
  -30.7652  -14.3608   20.6636 C   0  0  0  0  0  0  0  0  0100  0  0
  -30.4392  -12.2669   19.3775 C   0  0  0  0  0  0  0  0  0101  0  0
  -29.4791  -12.5281   18.1977 C   0  0  0  0  0  0  0  0  0102  0  0
  -27.9985  -12.3963   18.6038 C   0  0  0  0  0  0  0  0  0103  0  0
  -27.6639  -13.2170   19.8820 C   0  0  2  0  0  0  0  0  0104  0  0
  -28.6795  -12.9602   21.0279 C   0  0  0  0  0  0  0  0  0105  0  0
  -25.2633  -13.8245   20.5754 C   0  0  0  0  0  0  0  0  0106  0  0
  -24.1645  -13.0409   20.9408 C   0  0  0  0  0  0  0  0  0107  0  0
  -24.6400  -11.7009   20.8697 C   0  0  0  0  0  0  0  0  0108  0  0
  -23.9005  -10.4085   21.0420 C   0  0  0  0  0  0  0  0  0109  0  0
  -24.3588   -9.4123   21.9123 C   0  0  0  0  0  0  0  0  0110  0  0
  -23.6296   -8.2350   22.0803 C   0  0  0  0  0  0  0  0  0111  0  0
  -22.4385   -8.0419   21.3657 C   0  0  0  0  0  0  0  0  0112  0  0
  -22.0103   -9.0167   20.4678 C   0  0  0  0  0  0  0  0  0113  0  0
  -22.7317  -10.1925   20.3102 C   0  0  0  0  0  0  0  0  0114  0  0
  -21.6857   -6.0709   22.5391 C   0  0  0  0  0  0  0  0  0115  0  0
  -21.4064   -6.5490   23.8264 C   0  0  0  0  0  0  0  0  0116  0  0
  -21.3635   -5.6677   24.9085 C   0  0  0  0  0  0  0  0  0117  0  0
  -21.5973   -4.3067   24.7088 C   0  0  0  0  0  0  0  0  0118  0  0
  -21.8700   -3.8284   23.4282 C   0  0  0  0  0  0  0  0  0119  0  0
  -21.9144   -4.7056   22.3460 C   0  0  0  0  0  0  0  0  0120  0  0
  -22.8194  -13.5263   21.1763 C   0  0  0  0  0  0  0  0  0121  0  0
  -22.1559   -4.2206   21.1063 F   0  0  0  0  0  0  0  0  0122  0  0
  -21.5628   -3.4510   25.7555 F   0  0  0  0  0  0  0  0  0123  0  0
  -30.0261  -13.1803   20.4553 N   0  0  0  0  0  0  0  0  0124  0  0
  -26.2911  -12.9356   20.3443 N   0  0  0  0  0  0  0  0  0125  0  0
  -25.9236  -11.6675   20.5847 N   0  0  0  0  0  0  0  0  0126  0  0
  -22.0708  -12.7905   22.0005 N   0  0  0  0  0  0  0  0  0127  0  0
  -25.4117  -15.1773   20.4097 N   0  0  0  0  0  0  0  0  0128  0  0
  -31.7916  -14.6724   20.0536 O   0  0  0  0  0  0  0  0  0129  0  0
  -21.6670   -6.9022   21.4423 O   0  0  0  0  0  0  0  0  0130  0  0
  -22.3946  -14.5564   20.6568 O   0  0  0  0  0  0  0  0  0131  0  0
  -24.6048  -31.8614   23.2223 C   0  0  0  0  0  0  0  0  0100  0  0
  -25.8822  -32.4841   23.8616 C   0  0  1  0  0  0  0  0  0101  0  0
  -27.2536  -27.5042   20.1156 C   0  0  0  0  0  0  0  0  0102  0  0
  -25.5726  -33.8762   24.2210 N   0  0  0  0  0  0  0  0  0103  0  0
  -23.4066  -30.4859   21.5461 C   0  0  2  0  0  0  0  0  0104  0  0
  -24.8467  -28.9636   20.1247 C   0  0  0  0  0  0  0  0  0105  0  0
  -22.7412  -29.4652   22.5052 C   0  0  0  0  0  0  0  0  0106  0  0
  -18.0167  -28.1302   22.8626 C   0  0  0  0  0  0  0  0  0107  0  0
  -24.1342  -36.7390   23.2568 C   0  0  0  0  0  0  0  0  0108  0  0
  -25.9141  -30.8882   21.3456 C   0  0  0  0  0  0  0  0  0109  0  0
  -25.9930  -29.5029   20.7208 C   0  0  0  0  0  0  0  0  0110  0  0
  -27.1758  -28.7612   20.7331 C   0  0  0  0  0  0  0  0  0111  0  0
  -26.1032  -26.9836   19.5230 C   0  0  0  0  0  0  0  0  0112  0  0
  -24.9097  -27.7011   19.5331 C   0  0  0  0  0  0  0  0  0113  0  0
  -23.5715  -29.7899   20.1582 C   0  0  0  0  0  0  0  0  0114  0  0
  -25.3990  -36.3212   24.0232 C   0  0  1  0  0  0  0  0  0115  0  0
  -20.5793  -28.3813   23.1004 C   0  0  2  0  0  0  0  0  0116  0  0
  -20.6548  -26.9392   22.5411 C   0  0  0  0  0  0  0  0  0117  0  0
  -19.5615  -26.6407   21.5143 C   0  0  0  0  0  0  0  0  0118  0  0
  -18.1797  -26.7818   22.1673 C   0  0  0  0  0  0  0  0  0119  0  0
  -19.1385  -28.8769   23.2988 C   0  0  0  0  0  0  0  0  0120  0  0
  -18.9183  -30.1286   23.8878 C   0  0  0  0  0  0  0  0  0121  0  0
  -17.6396  -30.6493   24.0352 C   0  0  0  0  0  0  0  0  0122  0  0
  -25.9153  -34.9582   23.4993 C   0  0  0  0  0  0  0  0  0123  0  0
  -16.5415  -29.9068   23.6254 C   0  0  0  0  0  0  0  0  0124  0  0
  -16.7331  -28.6521   23.0586 C   0  0  0  0  0  0  0  0  0125  0  0
  -26.4583  -31.6439   25.0683 C   0  0  0  0  0  0  0  0  0126  0  0
  -25.3807  -31.3179   26.1374 C   0  0  0  0  0  0  0  0  0127  0  0
  -27.0530  -30.3024   24.5680 C   0  0  0  0  0  0  0  0  0128  0  0
  -27.6014  -32.4281   25.7651 C   0  0  0  0  0  0  0  0  0129  0  0
  -27.5629  -37.2220   24.8621 C   0  0  0  0  0  0  0  0  0130  0  0
  -21.4133  -29.3375   22.3735 N   0  0  0  0  0  0  0  0  0131  0  0
  -26.4706  -37.3372   23.9061 N   0  0  0  0  0  0  0  0  0132  0  0
  -24.6674  -31.0544   22.1178 N   0  0  0  0  0  0  0  0  0133  0  0
  -23.4259  -28.8150   23.2971 O   0  0  0  0  0  0  0  0  0134  0  0
  -28.3948  -26.7345   20.0089 O   0  0  0  0  0  0  0  0  0135  0  0
  -26.5870  -34.9065   22.4671 O   0  0  0  0  0  0  0  0  0136  0  0
  -23.5365  -32.1254   23.7833 O   0  0  0  0  0  0  0  0  0137  0  0
  -31.4635  -25.8468   18.4349 C   0  0  0  0  0  0  0  0  0  0  0  0
  -30.0573  -25.5266   16.4966 C   0  0  0  0  0  0  0  0  0  0  0  0
  -30.4886  -26.3223   17.5580 C   0  0  0  0  0  0  0  0  0  0  0  0
  -32.0073  -24.5755   18.2504 C   0  0  0  0  0  0  0  0  0  0  0  0
  -30.6010  -24.2553   16.3122 C   0  0  0  0  0  0  0  0  0  0  0  0
  -31.5760  -23.7798   17.1891 C   0  0  0  0  0  0  0  0  0  0  0  0
  -32.4924  -23.1153   20.2301 C   0  0  0  0  0  0  0  0  0  0  0  0
  -29.9002  -27.6979   17.7577 C   0  0  0  0  0  0  0  0  0  0  0  0
  -33.0497  -24.1074   19.2145 C   0  0  0  0  0  0  0  0  0  0  0  0
  -30.1089  -23.4377   15.1613 C   0  0  0  0  0  0  0  0  0  0  0  0
  -28.6679  -27.6767   18.6554 C   0  0  0  0  0  0  0  0  0  1  0  0
  -29.2105  -22.3859   15.5826 N   0  0  0  0  0  0  0  0  0  0  0  0
  -32.2512  -22.2016   16.9600 Cl  0  0  0  0  0  0  0  0  0  0  0  0
  -31.4485  -12.4701   19.0860 H   0  0  0  0  0  0  0  0  0  0  0  0
  -30.3970  -11.2460   19.6950 H   0  0  0  0  0  0  0  0  0  0  0  0
  -29.6870  -11.8204   17.4226 H   0  0  0  0  0  0  0  0  0  0  0  0
  -29.6375  -13.5326   17.8649 H   0  0  0  0  0  0  0  0  0  0  0  0
  -27.7830  -11.3650   18.7904 H   0  0  0  0  0  0  0  0  0  0  0  0
  -27.4028  -12.7801   17.8021 H   0  0  0  0  0  0  0  0  0  0  0  0
  -27.7353  -14.2503   19.6136 H   0  0  0  0  0  0  0  0  0  0  0  0
  -28.5890  -11.9550   21.3832 H   0  0  0  0  0  0  0  0  0  0  0  0
  -28.5005  -13.6134   21.8562 H   0  0  0  0  0  0  0  0  0  0  0  0
  -25.2399   -9.5495   22.4318 H   0  0  0  0  0  0  0  0  0  0  0  0
  -23.9663   -7.5070   22.7297 H   0  0  0  0  0  0  0  0  0  0  0  0
  -21.1515   -8.8641   19.9162 H   0  0  0  0  0  0  0  0  0  0  0  0
  -22.4016  -10.9115   19.6476 H   0  0  0  0  0  0  0  0  0  0  0  0
  -21.2319   -7.5552   23.9750 H   0  0  0  0  0  0  0  0  0  0  0  0
  -21.1589   -6.0228   25.8556 H   0  0  0  0  0  0  0  0  0  0  0  0
  -22.0396   -2.8212   23.2809 H   0  0  0  0  0  0  0  0  0  0  0  0
  -22.4401  -11.9703   22.4008 H   0  0  0  0  0  0  0  0  0  0  0  0
  -21.1493  -13.0679   22.2082 H   0  0  0  0  0  0  0  0  0  0  0  0
  -24.6538  -15.7807   20.5848 H   0  0  0  0  0  0  0  0  0  0  0  0
  -26.2762  -15.5453   20.1156 H   0  0  0  0  0  0  0  0  0  0  0  0
  -26.6778  -32.4663   23.1464 H   0  0  0  0  0  0  0  0  0  0  0  0
  -25.0747  -34.0282   25.0566 H   0  0  0  0  0  0  0  0  0  0  0  0
  -22.7881  -31.3489   21.4131 H   0  0  0  0  0  0  0  0  0  0  0  0
  -23.3854  -35.9823   23.3648 H   0  0  0  0  0  0  0  0  0  0  0  0
  -24.3696  -36.8624   22.2204 H   0  0  0  0  0  0  0  0  0  0  0  0
  -23.7669  -37.6632   23.6516 H   0  0  0  0  0  0  0  0  0  0  0  0
  -25.9445  -31.6237   20.5691 H   0  0  0  0  0  0  0  0  0  0  0  0
  -26.7436  -31.0079   22.0108 H   0  0  0  0  0  0  0  0  0  0  0  0
  -28.0090  -29.1452   21.2057 H   0  0  0  0  0  0  0  0  0  0  0  0
  -26.1369  -26.0560   19.0719 H   0  0  0  0  0  0  0  0  0  0  0  0
  -24.0652  -27.2961   19.0997 H   0  0  0  0  0  0  0  0  0  0  0  0
  -23.6156  -30.5365   19.3930 H   0  0  0  0  0  0  0  0  0  0  0  0
  -22.7355  -29.1425   19.9945 H   0  0  0  0  0  0  0  0  0  0  0  0
  -25.1353  -36.2335   25.0565 H   0  0  0  0  0  0  0  0  0  0  0  0
  -21.0070  -28.3206   24.0793 H   0  0  0  0  0  0  0  0  0  0  0  0
  -20.5555  -26.2518   23.3550 H   0  0  0  0  0  0  0  0  0  0  0  0
  -21.5974  -26.8362   22.0454 H   0  0  0  0  0  0  0  0  0  0  0  0
  -19.6810  -25.6422   21.1488 H   0  0  0  0  0  0  0  0  0  0  0  0
  -19.6406  -27.3343   20.7034 H   0  0  0  0  0  0  0  0  0  0  0  0
  -17.4282  -26.6888   21.4113 H   0  0  0  0  0  0  0  0  0  0  0  0
  -18.0803  -26.0130   22.9049 H   0  0  0  0  0  0  0  0  0  0  0  0
  -19.7265  -30.6774   24.2204 H   0  0  0  0  0  0  0  0  0  0  0  0
  -17.5064  -31.5856   24.4483 H   0  0  0  0  0  0  0  0  0  0  0  0
  -15.5878  -30.2839   23.7407 H   0  0  0  0  0  0  0  0  0  0  0  0
  -15.9120  -28.0941   22.7766 H   0  0  0  0  0  0  0  0  0  0  0  0
  -24.5787  -30.7757   25.6817 H   0  0  0  0  0  0  0  0  0  0  0  0
  -25.0041  -32.2289   26.5536 H   0  0  0  0  0  0  0  0  0  0  0  0
  -25.8166  -30.7245   26.9138 H   0  0  0  0  0  0  0  0  0  0  0  0
  -26.2892  -29.7335   24.0803 H   0  0  0  0  0  0  0  0  0  0  0  0
  -27.4336  -29.7484   25.4006 H   0  0  0  0  0  0  0  0  0  0  0  0
  -27.8466  -30.4994   23.8779 H   0  0  0  0  0  0  0  0  0  0  0  0
  -27.2251  -33.3632   26.1242 H   0  0  0  0  0  0  0  0  0  0  0  0
  -28.3902  -32.6065   25.0645 H   0  0  0  0  0  0  0  0  0  0  0  0
  -27.9772  -31.8555   26.5872 H   0  0  0  0  0  0  0  0  0  0  0  0
  -28.2744  -38.0016   24.6863 H   0  0  0  0  0  0  0  0  0  0  0  0
  -28.0396  -36.2711   24.7461 H   0  0  0  0  0  0  0  0  0  0  0  0
  -27.1773  -37.3087   25.8564 H   0  0  0  0  0  0  0  0  0  0  0  0
  -20.9627  -29.9365   21.7352 H   0  0  0  0  0  0  0  0  0  0  0  0
  -26.0447  -38.2561   24.0273 H   0  0  0  0  0  0  0  0  0  0  0  0
  -31.7825  -26.4355   19.2202 H   0  0  0  0  0  0  0  0  0  0  0  0
  -29.3360  -25.8784   15.8478 H   0  0  0  0  0  0  0  0  0  0  0  0
  -33.2725  -22.8103   20.8958 H   0  0  0  0  0  0  0  0  0  0  0  0
  -32.1060  -22.2593   19.7175 H   0  0  0  0  0  0  0  0  0  0  0  0
  -31.7077  -23.5804   20.7895 H   0  0  0  0  0  0  0  0  0  0  0  0
  -29.6238  -28.0955   16.8036 H   0  0  0  0  0  0  0  0  0  0  0  0
  -30.6416  -28.3044   18.2346 H   0  0  0  0  0  0  0  0  0  0  0  0
  -33.4393  -24.9549   19.7389 H   0  0  0  0  0  0  0  0  0  0  0  0
  -33.8142  -23.6098   18.6552 H   0  0  0  0  0  0  0  0  0  0  0  0
  -30.9495  -22.9959   14.6682 H   0  0  0  0  0  0  0  0  0  0  0  0
  -29.5689  -24.0871   14.5043 H   0  0  0  0  0  0  0  0  0  0  0  0
  -27.8572  -27.4451   17.9965 H   0  0  0  0  0  0  0  0  0  0  0  0
  -28.8067  -28.6198   19.1414 H   0  0  0  0  0  0  0  0  0  0  0  0
  -28.2760  -22.5129   15.3002 H   0  0  0  0  0  0  0  0  0  0  0  0
  1 25  1  0
  1 30  2  0
  1 82  1  0
  2  3  1  0
  2 25  1  0
  2 84  1  0
  2 85  1  0
  3  4  1  0
  3 86  1  0
  3 87  1  0
  4  5  1  0
  4 88  1  0
  4 89  1  0
  5  6  1  0
  5 26  1  0
  5 90  1  6
  6 25  1  0
  6 91  1  0
  6 92  1  0
  7  8  2  0
  7 26  1  0
  7 29  1  0
  8  9  1  0
  8 22  1  0
  9 10  1  0
  9 27  2  0
 10 11  2  0
 10 15  1  0
 11 12  1  0
 11 93  1  0
 12 13  2  0
 12 94  1  0
 13 14  1  0
 13 31  1  0
 14 15  2  0
 14 95  1  0
 15 96  1  0
 16 17  2  0
 16 21  1  0
 16 31  1  0
 17 18  1  0
 17 97  1  0
 18 19  2  0
 18 98  1  0
 19 20  1  0
 19 24  1  0
 20 21  2  0
 20 99  1  0
 21 23  1  0
 22 28  1  0
 22 32  2  0
 26 27  1  0
 28100  1  0
 28101  1  0
 29102  1  0
 29103  1  0
 33 34  1  0
 33 66  1  0
 33 70  2  0
 34 36  1  0
 34 59  1  0
 34104  1  6
 35 44  2  0
 35 45  1  0
 35 68  1  0
 36 56  1  0
 36105  1  0
 37 39  1  0
 37 47  1  0
 37 66  1  0
 37106  1  6
 38 43  2  0
 38 46  1  0
 38 47  1  0
 39 64  1  0
 39 67  2  0
 40 52  1  0
 40 53  2  0
 40 58  1  0
 41107  1  0
 41108  1  0
 41109  1  0
 42 43  1  0
 42 66  1  0
 42110  1  0
 42111  1  0
 43 44  1  0
 44112  1  0
 45 46  2  0
 45113  1  0
 46114  1  0
 47115  1  0
 47116  1  0
 48 41  1  0
 48 56  1  0
 48 65  1  0
 48117  1  1
 49 50  1  0
 49 53  1  0
 49 64  1  0
 49118  1  1
 50 51  1  0
 50119  1  0
 50120  1  0
 51 52  1  0
 51121  1  0
 51122  1  0
 52123  1  0
 52124  1  0
 53 54  1  0
 54 55  2  0
 54125  1  0
 55 57  1  0
 55126  1  0
 56 69  2  0
 57 58  2  0
 57127  1  0
 58128  1  0
 59 60  1  0
 59 61  1  0
 59 62  1  0
 60129  1  0
 60130  1  0
 60131  1  0
 61132  1  0
 61133  1  0
 61134  1  0
 62135  1  0
 62136  1  0
 62137  1  0
 63 65  1  0
 63138  1  0
 63139  1  0
 63140  1  0
 64141  1  0
 65142  1  0
 68 81  1  0
 71 73  2  0
 71 74  1  0
 71143  1  0
 72 73  1  0
 72 75  2  0
 72144  1  0
 73 78  1  0
 74 76  2  0
 74 79  1  0
 75 76  1  0
 75 80  1  0
 76 83  1  0
 77 79  1  0
 77145  1  0
 77146  1  0
 77147  1  0
 78 81  1  0
 78148  1  0
 78149  1  0
 79150  1  0
 79151  1  0
 80 82  1  0
 80152  1  0
 80153  1  0
 81154  1  0
 81155  1  0
 82156  1  0
M  ISO  4   1 100  68 101  81 101  82 100
M  END
$$$$
51
     RDKit          3D

150158  0  0  0  0  0  0  0  0999 V2000
  -30.7652  -14.3608   20.6636 C   0  0  0  0  0  0  0  0  0100  0  0
  -30.4392  -12.2669   19.3775 C   0  0  0  0  0  0  0  0  0101  0  0
  -29.4791  -12.5281   18.1977 C   0  0  0  0  0  0  0  0  0102  0  0
  -27.9985  -12.3963   18.6038 C   0  0  0  0  0  0  0  0  0103  0  0
  -27.6639  -13.2170   19.8820 C   0  0  2  0  0  0  0  0  0104  0  0
  -28.6795  -12.9602   21.0279 C   0  0  0  0  0  0  0  0  0105  0  0
  -25.2633  -13.8245   20.5754 C   0  0  0  0  0  0  0  0  0106  0  0
  -24.1645  -13.0409   20.9408 C   0  0  0  0  0  0  0  0  0107  0  0
  -24.6400  -11.7009   20.8697 C   0  0  0  0  0  0  0  0  0108  0  0
  -23.9005  -10.4085   21.0420 C   0  0  0  0  0  0  0  0  0109  0  0
  -24.3588   -9.4123   21.9123 C   0  0  0  0  0  0  0  0  0110  0  0
  -23.6296   -8.2350   22.0803 C   0  0  0  0  0  0  0  0  0111  0  0
  -22.4385   -8.0419   21.3657 C   0  0  0  0  0  0  0  0  0112  0  0
  -22.0103   -9.0167   20.4678 C   0  0  0  0  0  0  0  0  0113  0  0
  -22.7317  -10.1925   20.3102 C   0  0  0  0  0  0  0  0  0114  0  0
  -21.6857   -6.0709   22.5391 C   0  0  0  0  0  0  0  0  0115  0  0
  -21.4064   -6.5490   23.8264 C   0  0  0  0  0  0  0  0  0116  0  0
  -21.3635   -5.6677   24.9085 C   0  0  0  0  0  0  0  0  0117  0  0
  -21.5973   -4.3067   24.7088 C   0  0  0  0  0  0  0  0  0118  0  0
  -21.8700   -3.8284   23.4282 C   0  0  0  0  0  0  0  0  0119  0  0
  -21.9144   -4.7056   22.3460 C   0  0  0  0  0  0  0  0  0120  0  0
  -22.8194  -13.5263   21.1763 C   0  0  0  0  0  0  0  0  0121  0  0
  -22.1559   -4.2206   21.1063 F   0  0  0  0  0  0  0  0  0122  0  0
  -21.5628   -3.4510   25.7555 F   0  0  0  0  0  0  0  0  0123  0  0
  -30.0261  -13.1803   20.4553 N   0  0  0  0  0  0  0  0  0124  0  0
  -26.2911  -12.9356   20.3443 N   0  0  0  0  0  0  0  0  0125  0  0
  -25.9236  -11.6675   20.5847 N   0  0  0  0  0  0  0  0  0126  0  0
  -22.0708  -12.7905   22.0005 N   0  0  0  0  0  0  0  0  0127  0  0
  -25.4117  -15.1773   20.4097 N   0  0  0  0  0  0  0  0  0128  0  0
  -31.7916  -14.6724   20.0536 O   0  0  0  0  0  0  0  0  0129  0  0
  -21.6670   -6.9022   21.4423 O   0  0  0  0  0  0  0  0  0130  0  0
  -22.3946  -14.5564   20.6568 O   0  0  0  0  0  0  0  0  0131  0  0
  -24.6048  -31.8614   23.2223 C   0  0  0  0  0  0  0  0  0100  0  0
  -25.8822  -32.4841   23.8616 C   0  0  1  0  0  0  0  0  0101  0  0
  -27.2536  -27.5042   20.1156 C   0  0  0  0  0  0  0  0  0102  0  0
  -25.5726  -33.8762   24.2210 N   0  0  0  0  0  0  0  0  0103  0  0
  -23.4066  -30.4859   21.5461 C   0  0  2  0  0  0  0  0  0104  0  0
  -24.8467  -28.9636   20.1247 C   0  0  0  0  0  0  0  0  0105  0  0
  -22.7412  -29.4652   22.5052 C   0  0  0  0  0  0  0  0  0106  0  0
  -18.0167  -28.1302   22.8626 C   0  0  0  0  0  0  0  0  0107  0  0
  -24.1342  -36.7390   23.2568 C   0  0  0  0  0  0  0  0  0108  0  0
  -25.9141  -30.8882   21.3456 C   0  0  0  0  0  0  0  0  0109  0  0
  -25.9930  -29.5029   20.7208 C   0  0  0  0  0  0  0  0  0110  0  0
  -27.1758  -28.7612   20.7331 C   0  0  0  0  0  0  0  0  0111  0  0
  -26.1032  -26.9836   19.5230 C   0  0  0  0  0  0  0  0  0112  0  0
  -24.9097  -27.7011   19.5331 C   0  0  0  0  0  0  0  0  0113  0  0
  -23.5715  -29.7899   20.1582 C   0  0  0  0  0  0  0  0  0114  0  0
  -25.3990  -36.3212   24.0232 C   0  0  1  0  0  0  0  0  0115  0  0
  -20.5793  -28.3813   23.1004 C   0  0  2  0  0  0  0  0  0116  0  0
  -20.6548  -26.9392   22.5411 C   0  0  0  0  0  0  0  0  0117  0  0
  -19.5615  -26.6407   21.5143 C   0  0  0  0  0  0  0  0  0118  0  0
  -18.1797  -26.7818   22.1673 C   0  0  0  0  0  0  0  0  0119  0  0
  -19.1385  -28.8769   23.2988 C   0  0  0  0  0  0  0  0  0120  0  0
  -18.9183  -30.1286   23.8878 C   0  0  0  0  0  0  0  0  0121  0  0
  -17.6396  -30.6493   24.0352 C   0  0  0  0  0  0  0  0  0122  0  0
  -25.9153  -34.9582   23.4993 C   0  0  0  0  0  0  0  0  0123  0  0
  -16.5415  -29.9068   23.6254 C   0  0  0  0  0  0  0  0  0124  0  0
  -16.7331  -28.6521   23.0586 C   0  0  0  0  0  0  0  0  0125  0  0
  -26.4583  -31.6439   25.0683 C   0  0  0  0  0  0  0  0  0126  0  0
  -25.3807  -31.3179   26.1374 C   0  0  0  0  0  0  0  0  0127  0  0
  -27.0530  -30.3024   24.5680 C   0  0  0  0  0  0  0  0  0128  0  0
  -27.6014  -32.4281   25.7651 C   0  0  0  0  0  0  0  0  0129  0  0
  -27.5629  -37.2220   24.8621 C   0  0  0  0  0  0  0  0  0130  0  0
  -21.4133  -29.3375   22.3735 N   0  0  0  0  0  0  0  0  0131  0  0
  -26.4706  -37.3372   23.9061 N   0  0  0  0  0  0  0  0  0132  0  0
  -24.6674  -31.0544   22.1178 N   0  0  0  0  0  0  0  0  0133  0  0
  -23.4259  -28.8150   23.2971 O   0  0  0  0  0  0  0  0  0134  0  0
  -28.3948  -26.7345   20.0089 O   0  0  0  0  0  0  0  0  0135  0  0
  -26.5870  -34.9065   22.4671 O   0  0  0  0  0  0  0  0  0136  0  0
  -23.5365  -32.1254   23.7833 O   0  0  0  0  0  0  0  0  0137  0  0
  -30.1723  -19.2920   21.5107 C   0  0  0  0  0  0  0  0  0  0  0  0
  -29.0684  -18.5105   21.7496 C   0  0  0  0  0  0  0  0  0  0  0  0
  -28.1216  -19.3969   22.2972 C   0  0  0  0  0  0  0  0  0  0  0  0
  -30.0956  -22.9397   21.0703 C   0  0  0  0  0  0  0  0  0  0  0  0
  -29.8894  -22.6192   19.5890 C   0  0  0  0  0  0  0  0  0  0  0  0
  -30.7096  -21.7755   21.8562 C   0  0  0  0  0  0  0  0  0  0  0  0
  -29.3116  -23.8091   18.8346 C   0  0  0  0  0  0  0  0  0  1  0  0
  -28.5838  -20.6458   22.4003 N   0  0  0  0  0  0  0  0  0  0  0  0
  -29.8331  -20.5498   21.9143 N   0  0  0  0  0  0  0  0  0  0  0  0
  -28.9559  -17.1229   21.4856 N   0  0  0  0  0  0  0  0  0  0  0  0
  -26.5468  -19.0119   22.7980 Cl  0  0  0  0  0  0  0  0  0  0  0  0
  -31.4485  -12.4701   19.0860 H   0  0  0  0  0  0  0  0  0  0  0  0
  -30.3970  -11.2460   19.6950 H   0  0  0  0  0  0  0  0  0  0  0  0
  -29.6870  -11.8204   17.4226 H   0  0  0  0  0  0  0  0  0  0  0  0
  -29.6375  -13.5326   17.8649 H   0  0  0  0  0  0  0  0  0  0  0  0
  -27.7830  -11.3650   18.7904 H   0  0  0  0  0  0  0  0  0  0  0  0
  -27.4028  -12.7801   17.8021 H   0  0  0  0  0  0  0  0  0  0  0  0
  -27.7353  -14.2503   19.6136 H   0  0  0  0  0  0  0  0  0  0  0  0
  -28.5890  -11.9550   21.3832 H   0  0  0  0  0  0  0  0  0  0  0  0
  -28.5005  -13.6134   21.8562 H   0  0  0  0  0  0  0  0  0  0  0  0
  -25.2399   -9.5495   22.4318 H   0  0  0  0  0  0  0  0  0  0  0  0
  -23.9663   -7.5070   22.7297 H   0  0  0  0  0  0  0  0  0  0  0  0
  -21.1515   -8.8641   19.9162 H   0  0  0  0  0  0  0  0  0  0  0  0
  -22.4016  -10.9115   19.6476 H   0  0  0  0  0  0  0  0  0  0  0  0
  -21.2319   -7.5552   23.9750 H   0  0  0  0  0  0  0  0  0  0  0  0
  -21.1589   -6.0228   25.8556 H   0  0  0  0  0  0  0  0  0  0  0  0
  -22.0396   -2.8212   23.2809 H   0  0  0  0  0  0  0  0  0  0  0  0
  -22.4401  -11.9703   22.4008 H   0  0  0  0  0  0  0  0  0  0  0  0
  -21.1493  -13.0679   22.2082 H   0  0  0  0  0  0  0  0  0  0  0  0
  -24.6538  -15.7807   20.5848 H   0  0  0  0  0  0  0  0  0  0  0  0
  -26.2762  -15.5453   20.1156 H   0  0  0  0  0  0  0  0  0  0  0  0
  -26.6778  -32.4663   23.1464 H   0  0  0  0  0  0  0  0  0  0  0  0
  -25.0747  -34.0282   25.0566 H   0  0  0  0  0  0  0  0  0  0  0  0
  -22.7881  -31.3489   21.4131 H   0  0  0  0  0  0  0  0  0  0  0  0
  -23.3854  -35.9823   23.3648 H   0  0  0  0  0  0  0  0  0  0  0  0
  -24.3696  -36.8624   22.2204 H   0  0  0  0  0  0  0  0  0  0  0  0
  -23.7669  -37.6632   23.6516 H   0  0  0  0  0  0  0  0  0  0  0  0
  -25.9445  -31.6237   20.5691 H   0  0  0  0  0  0  0  0  0  0  0  0
  -26.7436  -31.0079   22.0108 H   0  0  0  0  0  0  0  0  0  0  0  0
  -28.0090  -29.1452   21.2057 H   0  0  0  0  0  0  0  0  0  0  0  0
  -26.1369  -26.0560   19.0719 H   0  0  0  0  0  0  0  0  0  0  0  0
  -24.0652  -27.2961   19.0997 H   0  0  0  0  0  0  0  0  0  0  0  0
  -23.6156  -30.5365   19.3930 H   0  0  0  0  0  0  0  0  0  0  0  0
  -22.7355  -29.1425   19.9945 H   0  0  0  0  0  0  0  0  0  0  0  0
  -25.1353  -36.2335   25.0565 H   0  0  0  0  0  0  0  0  0  0  0  0
  -21.0070  -28.3206   24.0793 H   0  0  0  0  0  0  0  0  0  0  0  0
  -20.5555  -26.2518   23.3550 H   0  0  0  0  0  0  0  0  0  0  0  0
  -21.5974  -26.8362   22.0454 H   0  0  0  0  0  0  0  0  0  0  0  0
  -19.6810  -25.6422   21.1488 H   0  0  0  0  0  0  0  0  0  0  0  0
  -19.6406  -27.3343   20.7034 H   0  0  0  0  0  0  0  0  0  0  0  0
  -17.4282  -26.6888   21.4113 H   0  0  0  0  0  0  0  0  0  0  0  0
  -18.0803  -26.0130   22.9049 H   0  0  0  0  0  0  0  0  0  0  0  0
  -19.7265  -30.6774   24.2204 H   0  0  0  0  0  0  0  0  0  0  0  0
  -17.5064  -31.5856   24.4483 H   0  0  0  0  0  0  0  0  0  0  0  0
  -15.5878  -30.2839   23.7407 H   0  0  0  0  0  0  0  0  0  0  0  0
  -15.9120  -28.0941   22.7766 H   0  0  0  0  0  0  0  0  0  0  0  0
  -24.5787  -30.7757   25.6817 H   0  0  0  0  0  0  0  0  0  0  0  0
  -25.0041  -32.2289   26.5536 H   0  0  0  0  0  0  0  0  0  0  0  0
  -25.8166  -30.7245   26.9138 H   0  0  0  0  0  0  0  0  0  0  0  0
  -26.2892  -29.7335   24.0803 H   0  0  0  0  0  0  0  0  0  0  0  0
  -27.4336  -29.7484   25.4006 H   0  0  0  0  0  0  0  0  0  0  0  0
  -27.8466  -30.4994   23.8779 H   0  0  0  0  0  0  0  0  0  0  0  0
  -27.2251  -33.3632   26.1242 H   0  0  0  0  0  0  0  0  0  0  0  0
  -28.3902  -32.6065   25.0645 H   0  0  0  0  0  0  0  0  0  0  0  0
  -27.9772  -31.8555   26.5872 H   0  0  0  0  0  0  0  0  0  0  0  0
  -28.2744  -38.0016   24.6863 H   0  0  0  0  0  0  0  0  0  0  0  0
  -28.0396  -36.2711   24.7461 H   0  0  0  0  0  0  0  0  0  0  0  0
  -27.1773  -37.3087   25.8564 H   0  0  0  0  0  0  0  0  0  0  0  0
  -20.9627  -29.9365   21.7352 H   0  0  0  0  0  0  0  0  0  0  0  0
  -26.0447  -38.2561   24.0273 H   0  0  0  0  0  0  0  0  0  0  0  0
  -31.0733  -18.9896   21.1085 H   0  0  0  0  0  0  0  0  0  0  0  0
  -29.1466  -23.1796   21.5024 H   0  0  0  0  0  0  0  0  0  0  0  0
  -30.7800  -23.7602   21.1276 H   0  0  0  0  0  0  0  0  0  0  0  0
  -29.2154  -21.7926   19.5029 H   0  0  0  0  0  0  0  0  0  0  0  0
  -30.8412  -22.3815   19.1618 H   0  0  0  0  0  0  0  0  0  0  0  0
  -30.8952  -22.1051   22.8571 H   0  0  0  0  0  0  0  0  0  0  0  0
  -31.6060  -21.4931   21.3447 H   0  0  0  0  0  0  0  0  0  0  0  0
  -28.4332  -23.4241   18.3602 H   0  0  0  0  0  0  0  0  0  0  0  0
  -30.2022  -24.1182   18.3283 H   0  0  0  0  0  0  0  0  0  0  0  0
  -28.0100  -16.8636   21.5711 H   0  0  0  0  0  0  0  0  0  0  0  0
  1 25  1  0
  1 30  2  0
  1 80  1  0
  2  3  1  0
  2 25  1  0
  2 82  1  0
  2 83  1  0
  3  4  1  0
  3 84  1  0
  3 85  1  0
  4  5  1  0
  4 86  1  0
  4 87  1  0
  5  6  1  0
  5 26  1  0
  5 88  1  6
  6 25  1  0
  6 89  1  0
  6 90  1  0
  7  8  2  0
  7 26  1  0
  7 29  1  0
  8  9  1  0
  8 22  1  0
  9 10  1  0
  9 27  2  0
 10 11  2  0
 10 15  1  0
 11 12  1  0
 11 91  1  0
 12 13  2  0
 12 92  1  0
 13 14  1  0
 13 31  1  0
 14 15  2  0
 14 93  1  0
 15 94  1  0
 16 17  2  0
 16 21  1  0
 16 31  1  0
 17 18  1  0
 17 95  1  0
 18 19  2  0
 18 96  1  0
 19 20  1  0
 19 24  1  0
 20 21  2  0
 20 97  1  0
 21 23  1  0
 22 28  1  0
 22 32  2  0
 26 27  1  0
 28 98  1  0
 28 99  1  0
 29100  1  0
 29101  1  0
 33 34  1  0
 33 66  1  0
 33 70  2  0
 34 36  1  0
 34 59  1  0
 34102  1  6
 35 44  2  0
 35 45  1  0
 35 68  1  0
 36 56  1  0
 36103  1  0
 37 39  1  0
 37 47  1  0
 37 66  1  0
 37104  1  6
 38 43  2  0
 38 46  1  0
 38 47  1  0
 39 64  1  0
 39 67  2  0
 40 52  1  0
 40 53  2  0
 40 58  1  0
 41105  1  0
 41106  1  0
 41107  1  0
 42 43  1  0
 42 66  1  0
 42108  1  0
 42109  1  0
 43 44  1  0
 44110  1  0
 45 46  2  0
 45111  1  0
 46112  1  0
 47113  1  0
 47114  1  0
 48 41  1  0
 48 56  1  0
 48 65  1  0
 48115  1  1
 49 50  1  0
 49 53  1  0
 49 64  1  0
 49116  1  1
 50 51  1  0
 50117  1  0
 50118  1  0
 51 52  1  0
 51119  1  0
 51120  1  0
 52121  1  0
 52122  1  0
 53 54  1  0
 54 55  2  0
 54123  1  0
 55 57  1  0
 55124  1  0
 56 69  2  0
 57 58  2  0
 57125  1  0
 58126  1  0
 59 60  1  0
 59 61  1  0
 59 62  1  0
 60127  1  0
 60128  1  0
 60129  1  0
 61130  1  0
 61131  1  0
 61132  1  0
 62133  1  0
 62134  1  0
 62135  1  0
 63 65  1  0
 63136  1  0
 63137  1  0
 63138  1  0
 64139  1  0
 65140  1  0
 68 77  1  0
 71 72  2  0
 71 79  1  0
 71141  1  0
 72 73  1  0
 72 80  1  0
 73 78  2  0
 73 81  1  0
 74 75  1  0
 74 76  1  0
 74142  1  0
 74143  1  0
 75 77  1  0
 75144  1  0
 75145  1  0
 76 79  1  0
 76146  1  0
 76147  1  0
 77148  1  0
 77149  1  0
 78 79  1  0
 80150  1  0
M  ISO  4   1 100  68 101  77 101  80 100
M  END
$$$$
52
     RDKit          3D

174183  0  0  0  0  0  0  0  0999 V2000
  -30.7652  -14.3608   20.6636 C   0  0  0  0  0  0  0  0  0100  0  0
  -30.4392  -12.2669   19.3775 C   0  0  0  0  0  0  0  0  0101  0  0
  -29.4791  -12.5281   18.1977 C   0  0  0  0  0  0  0  0  0102  0  0
  -27.9985  -12.3963   18.6038 C   0  0  0  0  0  0  0  0  0103  0  0
  -27.6639  -13.2170   19.8820 C   0  0  2  0  0  0  0  0  0104  0  0
  -28.6795  -12.9602   21.0279 C   0  0  0  0  0  0  0  0  0105  0  0
  -25.2633  -13.8245   20.5754 C   0  0  0  0  0  0  0  0  0106  0  0
  -24.1645  -13.0409   20.9408 C   0  0  0  0  0  0  0  0  0107  0  0
  -24.6400  -11.7009   20.8697 C   0  0  0  0  0  0  0  0  0108  0  0
  -23.9005  -10.4085   21.0420 C   0  0  0  0  0  0  0  0  0109  0  0
  -24.3588   -9.4123   21.9123 C   0  0  0  0  0  0  0  0  0110  0  0
  -23.6296   -8.2350   22.0803 C   0  0  0  0  0  0  0  0  0111  0  0
  -22.4385   -8.0419   21.3657 C   0  0  0  0  0  0  0  0  0112  0  0
  -22.0103   -9.0167   20.4678 C   0  0  0  0  0  0  0  0  0113  0  0
  -22.7317  -10.1925   20.3102 C   0  0  0  0  0  0  0  0  0114  0  0
  -21.6857   -6.0709   22.5391 C   0  0  0  0  0  0  0  0  0115  0  0
  -21.4064   -6.5490   23.8264 C   0  0  0  0  0  0  0  0  0116  0  0
  -21.3635   -5.6677   24.9085 C   0  0  0  0  0  0  0  0  0117  0  0
  -21.5973   -4.3067   24.7088 C   0  0  0  0  0  0  0  0  0118  0  0
  -21.8700   -3.8284   23.4282 C   0  0  0  0  0  0  0  0  0119  0  0
  -21.9144   -4.7056   22.3460 C   0  0  0  0  0  0  0  0  0120  0  0
  -22.8194  -13.5263   21.1763 C   0  0  0  0  0  0  0  0  0121  0  0
  -22.1559   -4.2206   21.1063 F   0  0  0  0  0  0  0  0  0122  0  0
  -21.5628   -3.4510   25.7555 F   0  0  0  0  0  0  0  0  0123  0  0
  -30.0261  -13.1803   20.4553 N   0  0  0  0  0  0  0  0  0124  0  0
  -26.2911  -12.9356   20.3443 N   0  0  0  0  0  0  0  0  0125  0  0
  -25.9236  -11.6675   20.5847 N   0  0  0  0  0  0  0  0  0126  0  0
  -22.0708  -12.7905   22.0005 N   0  0  0  0  0  0  0  0  0127  0  0
  -25.4117  -15.1773   20.4097 N   0  0  0  0  0  0  0  0  0128  0  0
  -31.7916  -14.6724   20.0536 O   0  0  0  0  0  0  0  0  0129  0  0
  -21.6670   -6.9022   21.4423 O   0  0  0  0  0  0  0  0  0130  0  0
  -22.3946  -14.5564   20.6568 O   0  0  0  0  0  0  0  0  0131  0  0
  -24.6048  -31.8614   23.2223 C   0  0  0  0  0  0  0  0  0100  0  0
  -25.8822  -32.4841   23.8616 C   0  0  1  0  0  0  0  0  0101  0  0
  -27.2536  -27.5042   20.1156 C   0  0  0  0  0  0  0  0  0102  0  0
  -25.5726  -33.8762   24.2210 N   0  0  0  0  0  0  0  0  0103  0  0
  -23.4066  -30.4859   21.5461 C   0  0  2  0  0  0  0  0  0104  0  0
  -24.8467  -28.9636   20.1247 C   0  0  0  0  0  0  0  0  0105  0  0
  -22.7412  -29.4652   22.5052 C   0  0  0  0  0  0  0  0  0106  0  0
  -18.0167  -28.1302   22.8626 C   0  0  0  0  0  0  0  0  0107  0  0
  -24.1342  -36.7390   23.2568 C   0  0  0  0  0  0  0  0  0108  0  0
  -25.9141  -30.8882   21.3456 C   0  0  0  0  0  0  0  0  0109  0  0
  -25.9930  -29.5029   20.7208 C   0  0  0  0  0  0  0  0  0110  0  0
  -27.1758  -28.7612   20.7331 C   0  0  0  0  0  0  0  0  0111  0  0
  -26.1032  -26.9836   19.5230 C   0  0  0  0  0  0  0  0  0112  0  0
  -24.9097  -27.7011   19.5331 C   0  0  0  0  0  0  0  0  0113  0  0
  -23.5715  -29.7899   20.1582 C   0  0  0  0  0  0  0  0  0114  0  0
  -25.3990  -36.3212   24.0232 C   0  0  1  0  0  0  0  0  0115  0  0
  -20.5793  -28.3813   23.1004 C   0  0  2  0  0  0  0  0  0116  0  0
  -20.6548  -26.9392   22.5411 C   0  0  0  0  0  0  0  0  0117  0  0
  -19.5615  -26.6407   21.5143 C   0  0  0  0  0  0  0  0  0118  0  0
  -18.1797  -26.7818   22.1673 C   0  0  0  0  0  0  0  0  0119  0  0
  -19.1385  -28.8769   23.2988 C   0  0  0  0  0  0  0  0  0120  0  0
  -18.9183  -30.1286   23.8878 C   0  0  0  0  0  0  0  0  0121  0  0
  -17.6396  -30.6493   24.0352 C   0  0  0  0  0  0  0  0  0122  0  0
  -25.9153  -34.9582   23.4993 C   0  0  0  0  0  0  0  0  0123  0  0
  -16.5415  -29.9068   23.6254 C   0  0  0  0  0  0  0  0  0124  0  0
  -16.7331  -28.6521   23.0586 C   0  0  0  0  0  0  0  0  0125  0  0
  -26.4583  -31.6439   25.0683 C   0  0  0  0  0  0  0  0  0126  0  0
  -25.3807  -31.3179   26.1374 C   0  0  0  0  0  0  0  0  0127  0  0
  -27.0530  -30.3024   24.5680 C   0  0  0  0  0  0  0  0  0128  0  0
  -27.6014  -32.4281   25.7651 C   0  0  0  0  0  0  0  0  0129  0  0
  -27.5629  -37.2220   24.8621 C   0  0  0  0  0  0  0  0  0130  0  0
  -21.4133  -29.3375   22.3735 N   0  0  0  0  0  0  0  0  0131  0  0
  -26.4706  -37.3372   23.9061 N   0  0  0  0  0  0  0  0  0132  0  0
  -24.6674  -31.0544   22.1178 N   0  0  0  0  0  0  0  0  0133  0  0
  -23.4259  -28.8150   23.2971 O   0  0  0  0  0  0  0  0  0134  0  0
  -28.3948  -26.7345   20.0089 O   0  0  0  0  0  0  0  0  0135  0  0
  -26.5870  -34.9065   22.4671 O   0  0  0  0  0  0  0  0  0136  0  0
  -23.5365  -32.1254   23.7833 O   0  0  0  0  0  0  0  0  0137  0  0
  -32.8261  -18.3134   17.9671 C   0  0  0  0  0  0  0  0  0  0  0  0
  -33.0864  -18.1571   16.6102 C   0  0  0  0  0  0  0  0  0  0  0  0
  -32.5564  -19.5788   18.4764 C   0  0  0  0  0  0  0  0  0  0  0  0
  -32.5588  -20.6470   17.5940 C   0  0  0  0  0  0  0  0  0  0  0  0
  -33.0649  -19.2890   15.8114 C   0  0  0  0  0  0  0  0  0  0  0  0
  -30.9234  -24.7164   17.7785 C   0  0  0  0  0  0  0  0  0  0  0  0
  -29.0133  -23.8312   19.1800 C   0  0  0  0  0  0  0  0  0  0  0  0
  -30.5998  -26.1342   18.2397 C   0  0  0  0  0  0  0  0  0  0  0  0
  -28.6946  -25.2516   19.6368 C   0  0  0  0  0  0  0  0  0  0  0  0
  -30.4970  -23.6722   18.8198 C   0  0  1  0  0  0  0  0  0  0  0  0
  -29.1245  -26.2874   18.6001 C   0  0  1  0  0  0  0  0  0  1  0  0
  -33.3750  -16.7991   16.0686 C   0  0  0  0  0  0  0  0  0  0  0  0
  -32.2745  -22.0479   18.0740 C   0  0  0  0  0  0  0  0  0  0  0  0
  -30.7807  -22.2591   18.3140 C   0  0  0  0  0  0  0  0  0  0  0  0
  -32.1017  -15.9530   15.9081 C   0  0  0  0  0  0  0  0  0  0  0  0
  -32.4159  -14.5476   15.3867 C   0  0  0  0  0  0  0  0  0  0  0  0
  -31.1665  -13.6864   15.2325 C   0  0  0  0  0  0  0  0  0  0  0  0
  -32.8070  -20.5344   16.2699 N   0  0  0  0  0  0  0  0  0  0  0  0
  -30.4744  -13.4886   16.4866 N   0  0  0  0  0  0  0  0  0  0  0  0
  -32.2346  -19.7692   20.1556 Cl  0  0  0  0  0  0  0  0  0  0  0  0
  -33.3703  -19.2251   14.1199 Cl  0  0  0  0  0  0  0  0  0  0  0  0
  -31.4485  -12.4701   19.0860 H   0  0  0  0  0  0  0  0  0  0  0  0
  -30.3970  -11.2460   19.6950 H   0  0  0  0  0  0  0  0  0  0  0  0
  -29.6870  -11.8204   17.4226 H   0  0  0  0  0  0  0  0  0  0  0  0
  -29.6375  -13.5326   17.8649 H   0  0  0  0  0  0  0  0  0  0  0  0
  -27.7830  -11.3650   18.7904 H   0  0  0  0  0  0  0  0  0  0  0  0
  -27.4028  -12.7801   17.8021 H   0  0  0  0  0  0  0  0  0  0  0  0
  -27.7353  -14.2503   19.6136 H   0  0  0  0  0  0  0  0  0  0  0  0
  -28.5890  -11.9550   21.3832 H   0  0  0  0  0  0  0  0  0  0  0  0
  -28.5005  -13.6134   21.8562 H   0  0  0  0  0  0  0  0  0  0  0  0
  -25.2399   -9.5495   22.4318 H   0  0  0  0  0  0  0  0  0  0  0  0
  -23.9663   -7.5070   22.7297 H   0  0  0  0  0  0  0  0  0  0  0  0
  -21.1515   -8.8641   19.9162 H   0  0  0  0  0  0  0  0  0  0  0  0
  -22.4016  -10.9115   19.6476 H   0  0  0  0  0  0  0  0  0  0  0  0
  -21.2319   -7.5552   23.9750 H   0  0  0  0  0  0  0  0  0  0  0  0
  -21.1589   -6.0228   25.8556 H   0  0  0  0  0  0  0  0  0  0  0  0
  -22.0396   -2.8212   23.2809 H   0  0  0  0  0  0  0  0  0  0  0  0
  -22.4401  -11.9703   22.4008 H   0  0  0  0  0  0  0  0  0  0  0  0
  -21.1493  -13.0679   22.2082 H   0  0  0  0  0  0  0  0  0  0  0  0
  -24.6538  -15.7807   20.5848 H   0  0  0  0  0  0  0  0  0  0  0  0
  -26.2762  -15.5453   20.1156 H   0  0  0  0  0  0  0  0  0  0  0  0
  -26.6778  -32.4663   23.1464 H   0  0  0  0  0  0  0  0  0  0  0  0
  -25.0747  -34.0282   25.0566 H   0  0  0  0  0  0  0  0  0  0  0  0
  -22.7881  -31.3489   21.4131 H   0  0  0  0  0  0  0  0  0  0  0  0
  -23.3854  -35.9823   23.3648 H   0  0  0  0  0  0  0  0  0  0  0  0
  -24.3696  -36.8624   22.2204 H   0  0  0  0  0  0  0  0  0  0  0  0
  -23.7669  -37.6632   23.6516 H   0  0  0  0  0  0  0  0  0  0  0  0
  -25.9445  -31.6237   20.5691 H   0  0  0  0  0  0  0  0  0  0  0  0
  -26.7436  -31.0079   22.0108 H   0  0  0  0  0  0  0  0  0  0  0  0
  -28.0090  -29.1452   21.2057 H   0  0  0  0  0  0  0  0  0  0  0  0
  -26.1369  -26.0560   19.0719 H   0  0  0  0  0  0  0  0  0  0  0  0
  -24.0652  -27.2961   19.0997 H   0  0  0  0  0  0  0  0  0  0  0  0
  -23.6156  -30.5365   19.3930 H   0  0  0  0  0  0  0  0  0  0  0  0
  -22.7355  -29.1425   19.9945 H   0  0  0  0  0  0  0  0  0  0  0  0
  -25.1353  -36.2335   25.0565 H   0  0  0  0  0  0  0  0  0  0  0  0
  -21.0070  -28.3206   24.0793 H   0  0  0  0  0  0  0  0  0  0  0  0
  -20.5555  -26.2518   23.3550 H   0  0  0  0  0  0  0  0  0  0  0  0
  -21.5974  -26.8362   22.0454 H   0  0  0  0  0  0  0  0  0  0  0  0
  -19.6810  -25.6422   21.1488 H   0  0  0  0  0  0  0  0  0  0  0  0
  -19.6406  -27.3343   20.7034 H   0  0  0  0  0  0  0  0  0  0  0  0
  -17.4282  -26.6888   21.4113 H   0  0  0  0  0  0  0  0  0  0  0  0
  -18.0803  -26.0130   22.9049 H   0  0  0  0  0  0  0  0  0  0  0  0
  -19.7265  -30.6774   24.2204 H   0  0  0  0  0  0  0  0  0  0  0  0
  -17.5064  -31.5856   24.4483 H   0  0  0  0  0  0  0  0  0  0  0  0
  -15.5878  -30.2839   23.7407 H   0  0  0  0  0  0  0  0  0  0  0  0
  -15.9120  -28.0941   22.7766 H   0  0  0  0  0  0  0  0  0  0  0  0
  -24.5787  -30.7757   25.6817 H   0  0  0  0  0  0  0  0  0  0  0  0
  -25.0041  -32.2289   26.5536 H   0  0  0  0  0  0  0  0  0  0  0  0
  -25.8166  -30.7245   26.9138 H   0  0  0  0  0  0  0  0  0  0  0  0
  -26.2892  -29.7335   24.0803 H   0  0  0  0  0  0  0  0  0  0  0  0
  -27.4336  -29.7484   25.4006 H   0  0  0  0  0  0  0  0  0  0  0  0
  -27.8466  -30.4994   23.8779 H   0  0  0  0  0  0  0  0  0  0  0  0
  -27.2251  -33.3632   26.1242 H   0  0  0  0  0  0  0  0  0  0  0  0
  -28.3902  -32.6065   25.0645 H   0  0  0  0  0  0  0  0  0  0  0  0
  -27.9772  -31.8555   26.5872 H   0  0  0  0  0  0  0  0  0  0  0  0
  -28.2744  -38.0016   24.6863 H   0  0  0  0  0  0  0  0  0  0  0  0
  -28.0396  -36.2711   24.7461 H   0  0  0  0  0  0  0  0  0  0  0  0
  -27.1773  -37.3087   25.8564 H   0  0  0  0  0  0  0  0  0  0  0  0
  -20.9627  -29.9365   21.7352 H   0  0  0  0  0  0  0  0  0  0  0  0
  -26.0447  -38.2561   24.0273 H   0  0  0  0  0  0  0  0  0  0  0  0
  -32.8330  -17.4935   18.5937 H   0  0  0  0  0  0  0  0  0  0  0  0
  -31.9782  -24.6358   17.6177 H   0  0  0  0  0  0  0  0  0  0  0  0
  -30.3834  -24.5272   16.8743 H   0  0  0  0  0  0  0  0  0  0  0  0
  -28.4206  -23.6023   18.3191 H   0  0  0  0  0  0  0  0  0  0  0  0
  -28.7914  -23.1631   19.9858 H   0  0  0  0  0  0  0  0  0  0  0  0
  -30.8371  -26.8179   17.4516 H   0  0  0  0  0  0  0  0  0  0  0  0
  -31.1802  -26.3412   19.1144 H   0  0  0  0  0  0  0  0  0  0  0  0
  -29.2099  -25.4447   20.5545 H   0  0  0  0  0  0  0  0  0  0  0  0
  -27.6356  -25.3304   19.7682 H   0  0  0  0  0  0  0  0  0  0  0  0
  -31.0730  -23.8340   19.7069 H   0  0  0  0  0  0  0  0  0  0  0  0
  -28.9411  -26.6713   17.6183 H   0  0  0  0  0  0  0  0  0  0  0  0
  -34.0406  -16.2957   16.7383 H   0  0  0  0  0  0  0  0  0  0  0  0
  -33.8129  -16.9191   15.0997 H   0  0  0  0  0  0  0  0  0  0  0  0
  -32.6109  -22.7447   17.3349 H   0  0  0  0  0  0  0  0  0  0  0  0
  -32.7903  -22.1995   18.9992 H   0  0  0  0  0  0  0  0  0  0  0  0
  -30.2544  -22.1050   17.3952 H   0  0  0  0  0  0  0  0  0  0  0  0
  -30.4549  -21.5614   19.0570 H   0  0  0  0  0  0  0  0  0  0  0  0
  -31.4465  -16.4406   15.2169 H   0  0  0  0  0  0  0  0  0  0  0  0
  -31.6426  -15.8565   16.8698 H   0  0  0  0  0  0  0  0  0  0  0  0
  -33.0803  -14.0675   16.0744 H   0  0  0  0  0  0  0  0  0  0  0  0
  -32.8587  -14.6526   14.4183 H   0  0  0  0  0  0  0  0  0  0  0  0
  -31.4533  -12.7315   14.8441 H   0  0  0  0  0  0  0  0  0  0  0  0
  -30.4994  -14.1957   14.5688 H   0  0  0  0  0  0  0  0  0  0  0  0
  -29.6507  -12.9752   16.3219 H   0  0  0  0  0  0  0  0  0  0  0  0
  1 25  1  0
  1 30  2  0
  1 89  1  0
  2  3  1  0
  2 25  1  0
  2 92  1  0
  2 93  1  0
  3  4  1  0
  3 94  1  0
  3 95  1  0
  4  5  1  0
  4 96  1  0
  4 97  1  0
  5  6  1  0
  5 26  1  0
  5 98  1  6
  6 25  1  0
  6 99  1  0
  6100  1  0
  7  8  2  0
  7 26  1  0
  7 29  1  0
  8  9  1  0
  8 22  1  0
  9 10  1  0
  9 27  2  0
 10 11  2  0
 10 15  1  0
 11 12  1  0
 11101  1  0
 12 13  2  0
 12102  1  0
 13 14  1  0
 13 31  1  0
 14 15  2  0
 14103  1  0
 15104  1  0
 16 17  2  0
 16 21  1  0
 16 31  1  0
 17 18  1  0
 17105  1  0
 18 19  2  0
 18106  1  0
 19 20  1  0
 19 24  1  0
 20 21  2  0
 20107  1  0
 21 23  1  0
 22 28  1  0
 22 32  2  0
 26 27  1  0
 28108  1  0
 28109  1  0
 29110  1  0
 29111  1  0
 33 34  1  0
 33 66  1  0
 33 70  2  0
 34 36  1  0
 34 59  1  0
 34112  1  6
 35 44  2  0
 35 45  1  0
 35 68  1  0
 36 56  1  0
 36113  1  0
 37 39  1  0
 37 47  1  0
 37 66  1  0
 37114  1  6
 38 43  2  0
 38 46  1  0
 38 47  1  0
 39 64  1  0
 39 67  2  0
 40 52  1  0
 40 53  2  0
 40 58  1  0
 41115  1  0
 41116  1  0
 41117  1  0
 42 43  1  0
 42 66  1  0
 42118  1  0
 42119  1  0
 43 44  1  0
 44120  1  0
 45 46  2  0
 45121  1  0
 46122  1  0
 47123  1  0
 47124  1  0
 48 41  1  0
 48 56  1  0
 48 65  1  0
 48125  1  1
 49 50  1  0
 49 53  1  0
 49 64  1  0
 49126  1  1
 50 51  1  0
 50127  1  0
 50128  1  0
 51 52  1  0
 51129  1  0
 51130  1  0
 52131  1  0
 52132  1  0
 53 54  1  0
 54 55  2  0
 54133  1  0
 55 57  1  0
 55134  1  0
 56 69  2  0
 57 58  2  0
 57135  1  0
 58136  1  0
 59 60  1  0
 59 61  1  0
 59 62  1  0
 60137  1  0
 60138  1  0
 60139  1  0
 61140  1  0
 61141  1  0
 61142  1  0
 62143  1  0
 62144  1  0
 62145  1  0
 63 65  1  0
 63146  1  0
 63147  1  0
 63148  1  0
 64149  1  0
 65150  1  0
 71 72  2  0
 71 73  1  0
 71151  1  0
 72 75  1  0
 72 82  1  0
 73 74  2  0
 73 90  1  0
 74 83  1  0
 74 88  1  0
 75 88  2  0
 75 91  1  0
 76 78  1  0
 76 80  1  0
 76152  1  0
 76153  1  0
 77 79  1  0
 77 80  1  0
 77154  1  0
 77155  1  0
 78 81  1  0
 78156  1  0
 78157  1  0
 79 81  1  0
 79158  1  0
 79159  1  0
 80 84  1  0
 80160  1  1
 81 68  1  0
 81161  1  6
 82 85  1  0
 82162  1  0
 82163  1  0
 83 84  1  0
 83164  1  0
 83165  1  0
 84166  1  0
 84167  1  0
 85 86  1  0
 85168  1  0
 85169  1  0
 86 87  1  0
 86170  1  0
 86171  1  0
 87 89  1  0
 87172  1  0
 87173  1  0
 89174  1  0
M  ISO  4   1 100  68 101  81 101  89 100
M  END
$$$$
53
     RDKit          3D

163172  0  0  0  0  0  0  0  0999 V2000
  -30.7652  -14.3608   20.6636 C   0  0  0  0  0  0  0  0  0100  0  0
  -30.4392  -12.2669   19.3775 C   0  0  0  0  0  0  0  0  0101  0  0
  -29.4791  -12.5281   18.1977 C   0  0  0  0  0  0  0  0  0102  0  0
  -27.9985  -12.3963   18.6038 C   0  0  0  0  0  0  0  0  0103  0  0
  -27.6639  -13.2170   19.8820 C   0  0  2  0  0  0  0  0  0104  0  0
  -28.6795  -12.9602   21.0279 C   0  0  0  0  0  0  0  0  0105  0  0
  -25.2633  -13.8245   20.5754 C   0  0  0  0  0  0  0  0  0106  0  0
  -24.1645  -13.0409   20.9408 C   0  0  0  0  0  0  0  0  0107  0  0
  -24.6400  -11.7009   20.8697 C   0  0  0  0  0  0  0  0  0108  0  0
  -23.9005  -10.4085   21.0420 C   0  0  0  0  0  0  0  0  0109  0  0
  -24.3588   -9.4123   21.9123 C   0  0  0  0  0  0  0  0  0110  0  0
  -23.6296   -8.2350   22.0803 C   0  0  0  0  0  0  0  0  0111  0  0
  -22.4385   -8.0419   21.3657 C   0  0  0  0  0  0  0  0  0112  0  0
  -22.0103   -9.0167   20.4678 C   0  0  0  0  0  0  0  0  0113  0  0
  -22.7317  -10.1925   20.3102 C   0  0  0  0  0  0  0  0  0114  0  0
  -21.6857   -6.0709   22.5391 C   0  0  0  0  0  0  0  0  0115  0  0
  -21.4064   -6.5490   23.8264 C   0  0  0  0  0  0  0  0  0116  0  0
  -21.3635   -5.6677   24.9085 C   0  0  0  0  0  0  0  0  0117  0  0
  -21.5973   -4.3067   24.7088 C   0  0  0  0  0  0  0  0  0118  0  0
  -21.8700   -3.8284   23.4282 C   0  0  0  0  0  0  0  0  0119  0  0
  -21.9144   -4.7056   22.3460 C   0  0  0  0  0  0  0  0  0120  0  0
  -22.8194  -13.5263   21.1763 C   0  0  0  0  0  0  0  0  0121  0  0
  -22.1559   -4.2206   21.1063 F   0  0  0  0  0  0  0  0  0122  0  0
  -21.5628   -3.4510   25.7555 F   0  0  0  0  0  0  0  0  0123  0  0
  -30.0261  -13.1803   20.4553 N   0  0  0  0  0  0  0  0  0124  0  0
  -26.2911  -12.9356   20.3443 N   0  0  0  0  0  0  0  0  0125  0  0
  -25.9236  -11.6675   20.5847 N   0  0  0  0  0  0  0  0  0126  0  0
  -22.0708  -12.7905   22.0005 N   0  0  0  0  0  0  0  0  0127  0  0
  -25.4117  -15.1773   20.4097 N   0  0  0  0  0  0  0  0  0128  0  0
  -31.7916  -14.6724   20.0536 O   0  0  0  0  0  0  0  0  0129  0  0
  -21.6670   -6.9022   21.4423 O   0  0  0  0  0  0  0  0  0130  0  0
  -22.3946  -14.5564   20.6568 O   0  0  0  0  0  0  0  0  0131  0  0
  -24.6048  -31.8614   23.2223 C   0  0  0  0  0  0  0  0  0100  0  0
  -25.8822  -32.4841   23.8616 C   0  0  1  0  0  0  0  0  0101  0  0
  -27.2536  -27.5042   20.1156 C   0  0  0  0  0  0  0  0  0102  0  0
  -25.5726  -33.8762   24.2210 N   0  0  0  0  0  0  0  0  0103  0  0
  -23.4066  -30.4859   21.5461 C   0  0  2  0  0  0  0  0  0104  0  0
  -24.8467  -28.9636   20.1247 C   0  0  0  0  0  0  0  0  0105  0  0
  -22.7412  -29.4652   22.5052 C   0  0  0  0  0  0  0  0  0106  0  0
  -18.0167  -28.1302   22.8626 C   0  0  0  0  0  0  0  0  0107  0  0
  -24.1342  -36.7390   23.2568 C   0  0  0  0  0  0  0  0  0108  0  0
  -25.9141  -30.8882   21.3456 C   0  0  0  0  0  0  0  0  0109  0  0
  -25.9930  -29.5029   20.7208 C   0  0  0  0  0  0  0  0  0110  0  0
  -27.1758  -28.7612   20.7331 C   0  0  0  0  0  0  0  0  0111  0  0
  -26.1032  -26.9836   19.5230 C   0  0  0  0  0  0  0  0  0112  0  0
  -24.9097  -27.7011   19.5331 C   0  0  0  0  0  0  0  0  0113  0  0
  -23.5715  -29.7899   20.1582 C   0  0  0  0  0  0  0  0  0114  0  0
  -25.3990  -36.3212   24.0232 C   0  0  1  0  0  0  0  0  0115  0  0
  -20.5793  -28.3813   23.1004 C   0  0  2  0  0  0  0  0  0116  0  0
  -20.6548  -26.9392   22.5411 C   0  0  0  0  0  0  0  0  0117  0  0
  -19.5615  -26.6407   21.5143 C   0  0  0  0  0  0  0  0  0118  0  0
  -18.1797  -26.7818   22.1673 C   0  0  0  0  0  0  0  0  0119  0  0
  -19.1385  -28.8769   23.2988 C   0  0  0  0  0  0  0  0  0120  0  0
  -18.9183  -30.1286   23.8878 C   0  0  0  0  0  0  0  0  0121  0  0
  -17.6396  -30.6493   24.0352 C   0  0  0  0  0  0  0  0  0122  0  0
  -25.9153  -34.9582   23.4993 C   0  0  0  0  0  0  0  0  0123  0  0
  -16.5415  -29.9068   23.6254 C   0  0  0  0  0  0  0  0  0124  0  0
  -16.7331  -28.6521   23.0586 C   0  0  0  0  0  0  0  0  0125  0  0
  -26.4583  -31.6439   25.0683 C   0  0  0  0  0  0  0  0  0126  0  0
  -25.3807  -31.3179   26.1374 C   0  0  0  0  0  0  0  0  0127  0  0
  -27.0530  -30.3024   24.5680 C   0  0  0  0  0  0  0  0  0128  0  0
  -27.6014  -32.4281   25.7651 C   0  0  0  0  0  0  0  0  0129  0  0
  -27.5629  -37.2220   24.8621 C   0  0  0  0  0  0  0  0  0130  0  0
  -21.4133  -29.3375   22.3735 N   0  0  0  0  0  0  0  0  0131  0  0
  -26.4706  -37.3372   23.9061 N   0  0  0  0  0  0  0  0  0132  0  0
  -24.6674  -31.0544   22.1178 N   0  0  0  0  0  0  0  0  0133  0  0
  -23.4259  -28.8150   23.2971 O   0  0  0  0  0  0  0  0  0134  0  0
  -28.3948  -26.7345   20.0089 O   0  0  0  0  0  0  0  0  0135  0  0
  -26.5870  -34.9065   22.4671 O   0  0  0  0  0  0  0  0  0136  0  0
  -23.5365  -32.1254   23.7833 O   0  0  0  0  0  0  0  0  0137  0  0
  -29.8812  -23.8015   19.7773 C   0  0  0  0  0  0  0  0  0  0  0  0
  -29.3332  -22.1881   18.0736 C   0  0  0  0  0  0  0  0  0  0  0  0
  -31.0546  -24.1588   19.0920 C   0  0  0  0  0  0  0  0  0  0  0  0
  -31.3631  -23.5193   17.8788 C   0  0  0  0  0  0  0  0  0  0  0  0
  -29.0260  -22.8238   19.2709 C   0  0  0  0  0  0  0  0  0  0  0  0
  -30.4944  -22.5321   17.3830 C   0  0  0  0  0  0  0  0  0  0  0  0
  -32.6089  -23.8614   17.1018 C   0  0  0  0  0  0  0  0  0  0  0  0
  -31.9548  -25.2136   19.6777 C   0  0  0  0  0  0  0  0  0  0  0  0
  -32.6454  -25.3165   16.6358 C   0  0  0  0  0  0  0  0  0  0  0  0
  -33.1026  -26.3098   17.6981 C   0  0  0  0  0  0  0  0  0  0  0  0
  -27.7840  -22.4607   20.0122 C   0  0  0  0  0  0  0  0  0  0  0  0
  -32.4168  -27.6660   19.6602 C   0  0  0  0  0  0  0  0  0  0  0  0
  -31.1365  -28.2049   20.2673 C   0  0  0  0  0  0  0  0  0  1  0  0
  -27.9043  -21.1944   20.6997 N   0  0  0  0  0  0  0  0  0  0  0  0
  -32.0972  -26.4553   18.8162 N   0  0  2  0  0  0  0  0  0  0  0  0
  -30.7610  -21.6764   15.8976 Cl  0  0  0  0  0  0  0  0  0  0  0  0
  -31.4485  -12.4701   19.0860 H   0  0  0  0  0  0  0  0  0  0  0  0
  -30.3970  -11.2460   19.6950 H   0  0  0  0  0  0  0  0  0  0  0  0
  -29.6870  -11.8204   17.4226 H   0  0  0  0  0  0  0  0  0  0  0  0
  -29.6375  -13.5326   17.8649 H   0  0  0  0  0  0  0  0  0  0  0  0
  -27.7830  -11.3650   18.7904 H   0  0  0  0  0  0  0  0  0  0  0  0
  -27.4028  -12.7801   17.8021 H   0  0  0  0  0  0  0  0  0  0  0  0
  -27.7353  -14.2503   19.6136 H   0  0  0  0  0  0  0  0  0  0  0  0
  -28.5890  -11.9550   21.3832 H   0  0  0  0  0  0  0  0  0  0  0  0
  -28.5005  -13.6134   21.8562 H   0  0  0  0  0  0  0  0  0  0  0  0
  -25.2399   -9.5495   22.4318 H   0  0  0  0  0  0  0  0  0  0  0  0
  -23.9663   -7.5070   22.7297 H   0  0  0  0  0  0  0  0  0  0  0  0
  -21.1515   -8.8641   19.9162 H   0  0  0  0  0  0  0  0  0  0  0  0
  -22.4016  -10.9115   19.6476 H   0  0  0  0  0  0  0  0  0  0  0  0
  -21.2319   -7.5552   23.9750 H   0  0  0  0  0  0  0  0  0  0  0  0
  -21.1589   -6.0228   25.8556 H   0  0  0  0  0  0  0  0  0  0  0  0
  -22.0396   -2.8212   23.2809 H   0  0  0  0  0  0  0  0  0  0  0  0
  -22.4401  -11.9703   22.4008 H   0  0  0  0  0  0  0  0  0  0  0  0
  -21.1493  -13.0679   22.2082 H   0  0  0  0  0  0  0  0  0  0  0  0
  -24.6538  -15.7807   20.5848 H   0  0  0  0  0  0  0  0  0  0  0  0
  -26.2762  -15.5453   20.1156 H   0  0  0  0  0  0  0  0  0  0  0  0
  -26.6778  -32.4663   23.1464 H   0  0  0  0  0  0  0  0  0  0  0  0
  -25.0747  -34.0282   25.0566 H   0  0  0  0  0  0  0  0  0  0  0  0
  -22.7881  -31.3489   21.4131 H   0  0  0  0  0  0  0  0  0  0  0  0
  -23.3854  -35.9823   23.3648 H   0  0  0  0  0  0  0  0  0  0  0  0
  -24.3696  -36.8624   22.2204 H   0  0  0  0  0  0  0  0  0  0  0  0
  -23.7669  -37.6632   23.6516 H   0  0  0  0  0  0  0  0  0  0  0  0
  -25.9445  -31.6237   20.5691 H   0  0  0  0  0  0  0  0  0  0  0  0
  -26.7436  -31.0079   22.0108 H   0  0  0  0  0  0  0  0  0  0  0  0
  -28.0090  -29.1452   21.2057 H   0  0  0  0  0  0  0  0  0  0  0  0
  -26.1369  -26.0560   19.0719 H   0  0  0  0  0  0  0  0  0  0  0  0
  -24.0652  -27.2961   19.0997 H   0  0  0  0  0  0  0  0  0  0  0  0
  -23.6156  -30.5365   19.3930 H   0  0  0  0  0  0  0  0  0  0  0  0
  -22.7355  -29.1425   19.9945 H   0  0  0  0  0  0  0  0  0  0  0  0
  -25.1353  -36.2335   25.0565 H   0  0  0  0  0  0  0  0  0  0  0  0
  -21.0070  -28.3206   24.0793 H   0  0  0  0  0  0  0  0  0  0  0  0
  -20.5555  -26.2518   23.3550 H   0  0  0  0  0  0  0  0  0  0  0  0
  -21.5974  -26.8362   22.0454 H   0  0  0  0  0  0  0  0  0  0  0  0
  -19.6810  -25.6422   21.1488 H   0  0  0  0  0  0  0  0  0  0  0  0
  -19.6406  -27.3343   20.7034 H   0  0  0  0  0  0  0  0  0  0  0  0
  -17.4282  -26.6888   21.4113 H   0  0  0  0  0  0  0  0  0  0  0  0
  -18.0803  -26.0130   22.9049 H   0  0  0  0  0  0  0  0  0  0  0  0
  -19.7265  -30.6774   24.2204 H   0  0  0  0  0  0  0  0  0  0  0  0
  -17.5064  -31.5856   24.4483 H   0  0  0  0  0  0  0  0  0  0  0  0
  -15.5878  -30.2839   23.7407 H   0  0  0  0  0  0  0  0  0  0  0  0
  -15.9120  -28.0941   22.7766 H   0  0  0  0  0  0  0  0  0  0  0  0
  -24.5787  -30.7757   25.6817 H   0  0  0  0  0  0  0  0  0  0  0  0
  -25.0041  -32.2289   26.5536 H   0  0  0  0  0  0  0  0  0  0  0  0
  -25.8166  -30.7245   26.9138 H   0  0  0  0  0  0  0  0  0  0  0  0
  -26.2892  -29.7335   24.0803 H   0  0  0  0  0  0  0  0  0  0  0  0
  -27.4336  -29.7484   25.4006 H   0  0  0  0  0  0  0  0  0  0  0  0
  -27.8466  -30.4994   23.8779 H   0  0  0  0  0  0  0  0  0  0  0  0
  -27.2251  -33.3632   26.1242 H   0  0  0  0  0  0  0  0  0  0  0  0
  -28.3902  -32.6065   25.0645 H   0  0  0  0  0  0  0  0  0  0  0  0
  -27.9772  -31.8555   26.5872 H   0  0  0  0  0  0  0  0  0  0  0  0
  -28.2744  -38.0016   24.6863 H   0  0  0  0  0  0  0  0  0  0  0  0
  -28.0396  -36.2711   24.7461 H   0  0  0  0  0  0  0  0  0  0  0  0
  -27.1773  -37.3087   25.8564 H   0  0  0  0  0  0  0  0  0  0  0  0
  -20.9627  -29.9365   21.7352 H   0  0  0  0  0  0  0  0  0  0  0  0
  -26.0447  -38.2561   24.0273 H   0  0  0  0  0  0  0  0  0  0  0  0
  -29.6492  -24.2691   20.6676 H   0  0  0  0  0  0  0  0  0  0  0  0
  -28.7030  -21.4630   17.6966 H   0  0  0  0  0  0  0  0  0  0  0  0
  -32.6583  -23.2272   16.2415 H   0  0  0  0  0  0  0  0  0  0  0  0
  -33.4427  -23.7154   17.7562 H   0  0  0  0  0  0  0  0  0  0  0  0
  -32.9264  -24.7872   19.8157 H   0  0  0  0  0  0  0  0  0  0  0  0
  -31.5060  -25.5261   20.5974 H   0  0  0  0  0  0  0  0  0  0  0  0
  -31.6599  -25.5919   16.3229 H   0  0  0  0  0  0  0  0  0  0  0  0
  -33.3645  -25.3646   15.8450 H   0  0  0  0  0  0  0  0  0  0  0  0
  -33.2458  -27.2649   17.2375 H   0  0  0  0  0  0  0  0  0  0  0  0
  -34.0130  -25.9405   18.1220 H   0  0  0  0  0  0  0  0  0  0  0  0
  -26.9738  -22.3984   19.3161 H   0  0  0  0  0  0  0  0  0  0  0  0
  -27.6100  -23.2172   20.7486 H   0  0  0  0  0  0  0  0  0  0  0  0
  -33.0938  -27.3889   20.4411 H   0  0  0  0  0  0  0  0  0  0  0  0
  -32.8692  -28.4194   19.0498 H   0  0  0  0  0  0  0  0  0  0  0  0
  -30.9928  -29.1759   19.8413 H   0  0  0  0  0  0  0  0  0  0  0  0
  -31.3360  -28.1087   21.3141 H   0  0  0  0  0  0  0  0  0  0  0  0
  -27.3809  -21.2750   21.5296 H   0  0  0  0  0  0  0  0  0  0  0  0
  -31.1899  -26.5857   18.3688 H   0  0  0  0  0  0  0  0  0  0  0  0
  1 25  1  0
  1 30  2  0
  1 84  1  0
  2  3  1  0
  2 25  1  0
  2 87  1  0
  2 88  1  0
  3  4  1  0
  3 89  1  0
  3 90  1  0
  4  5  1  0
  4 91  1  0
  4 92  1  0
  5  6  1  0
  5 26  1  0
  5 93  1  6
  6 25  1  0
  6 94  1  0
  6 95  1  0
  7  8  2  0
  7 26  1  0
  7 29  1  0
  8  9  1  0
  8 22  1  0
  9 10  1  0
  9 27  2  0
 10 11  2  0
 10 15  1  0
 11 12  1  0
 11 96  1  0
 12 13  2  0
 12 97  1  0
 13 14  1  0
 13 31  1  0
 14 15  2  0
 14 98  1  0
 15 99  1  0
 16 17  2  0
 16 21  1  0
 16 31  1  0
 17 18  1  0
 17100  1  0
 18 19  2  0
 18101  1  0
 19 20  1  0
 19 24  1  0
 20 21  2  0
 20102  1  0
 21 23  1  0
 22 28  1  0
 22 32  2  0
 26 27  1  0
 28103  1  0
 28104  1  0
 29105  1  0
 29106  1  0
 33 34  1  0
 33 66  1  0
 33 70  2  0
 34 36  1  0
 34 59  1  0
 34107  1  6
 35 44  2  0
 35 45  1  0
 35 68  1  0
 36 56  1  0
 36108  1  0
 37 39  1  0
 37 47  1  0
 37 66  1  0
 37109  1  6
 38 43  2  0
 38 46  1  0
 38 47  1  0
 39 64  1  0
 39 67  2  0
 40 52  1  0
 40 53  2  0
 40 58  1  0
 41110  1  0
 41111  1  0
 41112  1  0
 42 43  1  0
 42 66  1  0
 42113  1  0
 42114  1  0
 43 44  1  0
 44115  1  0
 45 46  2  0
 45116  1  0
 46117  1  0
 47118  1  0
 47119  1  0
 48 41  1  0
 48 56  1  0
 48 65  1  0
 48120  1  1
 49 50  1  0
 49 53  1  0
 49 64  1  0
 49121  1  1
 50 51  1  0
 50122  1  0
 50123  1  0
 51 52  1  0
 51124  1  0
 51125  1  0
 52126  1  0
 52127  1  0
 53 54  1  0
 54 55  2  0
 54128  1  0
 55 57  1  0
 55129  1  0
 56 69  2  0
 57 58  2  0
 57130  1  0
 58131  1  0
 59 60  1  0
 59 61  1  0
 59 62  1  0
 60132  1  0
 60133  1  0
 60134  1  0
 61135  1  0
 61136  1  0
 61137  1  0
 62138  1  0
 62139  1  0
 62140  1  0
 63 65  1  0
 63141  1  0
 63142  1  0
 63143  1  0
 64144  1  0
 65145  1  0
 68 83  1  0
 71 73  2  0
 71 75  1  0
 71146  1  0
 72 75  2  0
 72 76  1  0
 72147  1  0
 73 74  1  0
 73 78  1  0
 74 76  2  0
 74 77  1  0
 75 81  1  0
 76 86  1  0
 77 79  1  0
 77148  1  0
 77149  1  0
 78 85  1  0
 78150  1  0
 78151  1  0
 79 80  1  0
 79152  1  0
 79153  1  0
 80 85  1  0
 80154  1  0
 80155  1  0
 81 84  1  0
 81156  1  0
 81157  1  0
 82 83  1  0
 82158  1  0
 82159  1  0
 83160  1  0
 83161  1  0
 84162  1  0
 85 82  1  0
 85163  1  6
M  CHG  1  85   1
M  ISO  4   1 100  68 101  83 101  84 100
M  END
$$$$
54
     RDKit          3D

170179  0  0  0  0  0  0  0  0999 V2000
  -30.7652  -14.3608   20.6636 C   0  0  0  0  0  0  0  0  0100  0  0
  -30.4392  -12.2669   19.3775 C   0  0  0  0  0  0  0  0  0101  0  0
  -29.4791  -12.5281   18.1977 C   0  0  0  0  0  0  0  0  0102  0  0
  -27.9985  -12.3963   18.6038 C   0  0  0  0  0  0  0  0  0103  0  0
  -27.6639  -13.2170   19.8820 C   0  0  2  0  0  0  0  0  0104  0  0
  -28.6795  -12.9602   21.0279 C   0  0  0  0  0  0  0  0  0105  0  0
  -25.2633  -13.8245   20.5754 C   0  0  0  0  0  0  0  0  0106  0  0
  -24.1645  -13.0409   20.9408 C   0  0  0  0  0  0  0  0  0107  0  0
  -24.6400  -11.7009   20.8697 C   0  0  0  0  0  0  0  0  0108  0  0
  -23.9005  -10.4085   21.0420 C   0  0  0  0  0  0  0  0  0109  0  0
  -24.3588   -9.4123   21.9123 C   0  0  0  0  0  0  0  0  0110  0  0
  -23.6296   -8.2350   22.0803 C   0  0  0  0  0  0  0  0  0111  0  0
  -22.4385   -8.0419   21.3657 C   0  0  0  0  0  0  0  0  0112  0  0
  -22.0103   -9.0167   20.4678 C   0  0  0  0  0  0  0  0  0113  0  0
  -22.7317  -10.1925   20.3102 C   0  0  0  0  0  0  0  0  0114  0  0
  -21.6857   -6.0709   22.5391 C   0  0  0  0  0  0  0  0  0115  0  0
  -21.4064   -6.5490   23.8264 C   0  0  0  0  0  0  0  0  0116  0  0
  -21.3635   -5.6677   24.9085 C   0  0  0  0  0  0  0  0  0117  0  0
  -21.5973   -4.3067   24.7088 C   0  0  0  0  0  0  0  0  0118  0  0
  -21.8700   -3.8284   23.4282 C   0  0  0  0  0  0  0  0  0119  0  0
  -21.9144   -4.7056   22.3460 C   0  0  0  0  0  0  0  0  0120  0  0
  -22.8194  -13.5263   21.1763 C   0  0  0  0  0  0  0  0  0121  0  0
  -22.1559   -4.2206   21.1063 F   0  0  0  0  0  0  0  0  0122  0  0
  -21.5628   -3.4510   25.7555 F   0  0  0  0  0  0  0  0  0123  0  0
  -30.0261  -13.1803   20.4553 N   0  0  0  0  0  0  0  0  0124  0  0
  -26.2911  -12.9356   20.3443 N   0  0  0  0  0  0  0  0  0125  0  0
  -25.9236  -11.6675   20.5847 N   0  0  0  0  0  0  0  0  0126  0  0
  -22.0708  -12.7905   22.0005 N   0  0  0  0  0  0  0  0  0127  0  0
  -25.4117  -15.1773   20.4097 N   0  0  0  0  0  0  0  0  0128  0  0
  -31.7916  -14.6724   20.0536 O   0  0  0  0  0  0  0  0  0129  0  0
  -21.6670   -6.9022   21.4423 O   0  0  0  0  0  0  0  0  0130  0  0
  -22.3946  -14.5564   20.6568 O   0  0  0  0  0  0  0  0  0131  0  0
  -24.6048  -31.8614   23.2223 C   0  0  0  0  0  0  0  0  0100  0  0
  -25.8822  -32.4841   23.8616 C   0  0  1  0  0  0  0  0  0101  0  0
  -27.2536  -27.5042   20.1156 C   0  0  0  0  0  0  0  0  0102  0  0
  -25.5726  -33.8762   24.2210 N   0  0  0  0  0  0  0  0  0103  0  0
  -23.4066  -30.4859   21.5461 C   0  0  2  0  0  0  0  0  0104  0  0
  -24.8467  -28.9636   20.1247 C   0  0  0  0  0  0  0  0  0105  0  0
  -22.7412  -29.4652   22.5052 C   0  0  0  0  0  0  0  0  0106  0  0
  -18.0167  -28.1302   22.8626 C   0  0  0  0  0  0  0  0  0107  0  0
  -24.1342  -36.7390   23.2568 C   0  0  0  0  0  0  0  0  0108  0  0
  -25.9141  -30.8882   21.3456 C   0  0  0  0  0  0  0  0  0109  0  0
  -25.9930  -29.5029   20.7208 C   0  0  0  0  0  0  0  0  0110  0  0
  -27.1758  -28.7612   20.7331 C   0  0  0  0  0  0  0  0  0111  0  0
  -26.1032  -26.9836   19.5230 C   0  0  0  0  0  0  0  0  0112  0  0
  -24.9097  -27.7011   19.5331 C   0  0  0  0  0  0  0  0  0113  0  0
  -23.5715  -29.7899   20.1582 C   0  0  0  0  0  0  0  0  0114  0  0
  -25.3990  -36.3212   24.0232 C   0  0  1  0  0  0  0  0  0115  0  0
  -20.5793  -28.3813   23.1004 C   0  0  2  0  0  0  0  0  0116  0  0
  -20.6548  -26.9392   22.5411 C   0  0  0  0  0  0  0  0  0117  0  0
  -19.5615  -26.6407   21.5143 C   0  0  0  0  0  0  0  0  0118  0  0
  -18.1797  -26.7818   22.1673 C   0  0  0  0  0  0  0  0  0119  0  0
  -19.1385  -28.8769   23.2988 C   0  0  0  0  0  0  0  0  0120  0  0
  -18.9183  -30.1286   23.8878 C   0  0  0  0  0  0  0  0  0121  0  0
  -17.6396  -30.6493   24.0352 C   0  0  0  0  0  0  0  0  0122  0  0
  -25.9153  -34.9582   23.4993 C   0  0  0  0  0  0  0  0  0123  0  0
  -16.5415  -29.9068   23.6254 C   0  0  0  0  0  0  0  0  0124  0  0
  -16.7331  -28.6521   23.0586 C   0  0  0  0  0  0  0  0  0125  0  0
  -26.4583  -31.6439   25.0683 C   0  0  0  0  0  0  0  0  0126  0  0
  -25.3807  -31.3179   26.1374 C   0  0  0  0  0  0  0  0  0127  0  0
  -27.0530  -30.3024   24.5680 C   0  0  0  0  0  0  0  0  0128  0  0
  -27.6014  -32.4281   25.7651 C   0  0  0  0  0  0  0  0  0129  0  0
  -27.5629  -37.2220   24.8621 C   0  0  0  0  0  0  0  0  0130  0  0
  -21.4133  -29.3375   22.3735 N   0  0  0  0  0  0  0  0  0131  0  0
  -26.4706  -37.3372   23.9061 N   0  0  0  0  0  0  0  0  0132  0  0
  -24.6674  -31.0544   22.1178 N   0  0  0  0  0  0  0  0  0133  0  0
  -23.4259  -28.8150   23.2971 O   0  0  0  0  0  0  0  0  0134  0  0
  -28.3948  -26.7345   20.0089 O   0  0  0  0  0  0  0  0  0135  0  0
  -26.5870  -34.9065   22.4671 O   0  0  0  0  0  0  0  0  0136  0  0
  -23.5365  -32.1254   23.7833 O   0  0  0  0  0  0  0  0  0137  0  0
  -27.9079  -26.5009   17.6263 C   0  0  0  0  0  0  0  0  0  0  0  0
  -29.7059  -27.1099   19.6507 C   0  0  0  0  0  0  0  0  0  0  0  0
  -28.7431  -25.4992   18.1493 C   0  0  0  0  0  0  0  0  0  0  0  0
  -27.9752  -27.8015   18.1175 C   0  0  0  0  0  0  0  0  0  0  0  0
  -28.8755  -28.1060   19.1309 C   0  0  0  0  0  0  0  0  0  0  0  0
  -28.6961  -24.1819   17.6734 C   0  0  0  0  0  0  0  0  0  0  0  0
  -29.5341  -23.2154   18.2107 C   0  0  0  0  0  0  0  0  0  0  0  0
  -29.6594  -25.8011   19.1784 C   0  0  0  0  0  0  0  0  0  0  0  0
  -30.3972  -23.6058   19.2144 C   0  0  0  0  0  0  0  0  0  0  0  0
  -27.7513  -23.7833   16.5797 C   0  0  0  0  0  0  0  0  0  0  0  0
  -31.3257  -22.6162   19.8394 C   0  0  0  0  0  0  0  0  0  0  0  0
  -26.6285  -30.3780   15.5771 C   0  0  0  0  0  0  0  0  0  0  0  0
  -27.0757  -28.8462   17.5445 C   0  0  0  0  0  0  0  0  0  0  0  0
  -29.5059  -21.7894   17.7167 C   0  0  0  0  0  0  0  0  0  0  0  0
  -28.9734  -29.4907   19.6820 C   0  0  0  0  0  0  0  0  0  0  0  0
  -27.5640  -29.3387   16.1743 C   0  0  0  0  0  0  0  0  0  0  0  0
  -28.3185  -21.0080   18.2685 C   0  0  0  0  0  0  0  0  0  1  0  0
  -30.4739  -24.8653   19.7018 N   0  0  0  0  0  0  0  0  0  0  0  0
  -27.8694  -29.8107   20.5592 N   0  0  0  0  0  0  0  0  0  0  0  0
  -31.4485  -12.4701   19.0860 H   0  0  0  0  0  0  0  0  0  0  0  0
  -30.3970  -11.2460   19.6950 H   0  0  0  0  0  0  0  0  0  0  0  0
  -29.6870  -11.8204   17.4226 H   0  0  0  0  0  0  0  0  0  0  0  0
  -29.6375  -13.5326   17.8649 H   0  0  0  0  0  0  0  0  0  0  0  0
  -27.7830  -11.3650   18.7904 H   0  0  0  0  0  0  0  0  0  0  0  0
  -27.4028  -12.7801   17.8021 H   0  0  0  0  0  0  0  0  0  0  0  0
  -27.7353  -14.2503   19.6136 H   0  0  0  0  0  0  0  0  0  0  0  0
  -28.5890  -11.9550   21.3832 H   0  0  0  0  0  0  0  0  0  0  0  0
  -28.5005  -13.6134   21.8562 H   0  0  0  0  0  0  0  0  0  0  0  0
  -25.2399   -9.5495   22.4318 H   0  0  0  0  0  0  0  0  0  0  0  0
  -23.9663   -7.5070   22.7297 H   0  0  0  0  0  0  0  0  0  0  0  0
  -21.1515   -8.8641   19.9162 H   0  0  0  0  0  0  0  0  0  0  0  0
  -22.4016  -10.9115   19.6476 H   0  0  0  0  0  0  0  0  0  0  0  0
  -21.2319   -7.5552   23.9750 H   0  0  0  0  0  0  0  0  0  0  0  0
  -21.1589   -6.0228   25.8556 H   0  0  0  0  0  0  0  0  0  0  0  0
  -22.0396   -2.8212   23.2809 H   0  0  0  0  0  0  0  0  0  0  0  0
  -22.4401  -11.9703   22.4008 H   0  0  0  0  0  0  0  0  0  0  0  0
  -21.1493  -13.0679   22.2082 H   0  0  0  0  0  0  0  0  0  0  0  0
  -24.6538  -15.7807   20.5848 H   0  0  0  0  0  0  0  0  0  0  0  0
  -26.2762  -15.5453   20.1156 H   0  0  0  0  0  0  0  0  0  0  0  0
  -26.6778  -32.4663   23.1464 H   0  0  0  0  0  0  0  0  0  0  0  0
  -25.0747  -34.0282   25.0566 H   0  0  0  0  0  0  0  0  0  0  0  0
  -22.7881  -31.3489   21.4131 H   0  0  0  0  0  0  0  0  0  0  0  0
  -23.3854  -35.9823   23.3648 H   0  0  0  0  0  0  0  0  0  0  0  0
  -24.3696  -36.8624   22.2204 H   0  0  0  0  0  0  0  0  0  0  0  0
  -23.7669  -37.6632   23.6516 H   0  0  0  0  0  0  0  0  0  0  0  0
  -25.9445  -31.6237   20.5691 H   0  0  0  0  0  0  0  0  0  0  0  0
  -26.7436  -31.0079   22.0108 H   0  0  0  0  0  0  0  0  0  0  0  0
  -28.0090  -29.1452   21.2057 H   0  0  0  0  0  0  0  0  0  0  0  0
  -26.1369  -26.0560   19.0719 H   0  0  0  0  0  0  0  0  0  0  0  0
  -24.0652  -27.2961   19.0997 H   0  0  0  0  0  0  0  0  0  0  0  0
  -23.6156  -30.5365   19.3930 H   0  0  0  0  0  0  0  0  0  0  0  0
  -22.7355  -29.1425   19.9945 H   0  0  0  0  0  0  0  0  0  0  0  0
  -25.1353  -36.2335   25.0565 H   0  0  0  0  0  0  0  0  0  0  0  0
  -21.0070  -28.3206   24.0793 H   0  0  0  0  0  0  0  0  0  0  0  0
  -20.5555  -26.2518   23.3550 H   0  0  0  0  0  0  0  0  0  0  0  0
  -21.5974  -26.8362   22.0454 H   0  0  0  0  0  0  0  0  0  0  0  0
  -19.6810  -25.6422   21.1488 H   0  0  0  0  0  0  0  0  0  0  0  0
  -19.6406  -27.3343   20.7034 H   0  0  0  0  0  0  0  0  0  0  0  0
  -17.4282  -26.6888   21.4113 H   0  0  0  0  0  0  0  0  0  0  0  0
  -18.0803  -26.0130   22.9049 H   0  0  0  0  0  0  0  0  0  0  0  0
  -19.7265  -30.6774   24.2204 H   0  0  0  0  0  0  0  0  0  0  0  0
  -17.5064  -31.5856   24.4483 H   0  0  0  0  0  0  0  0  0  0  0  0
  -15.5878  -30.2839   23.7407 H   0  0  0  0  0  0  0  0  0  0  0  0
  -15.9120  -28.0941   22.7766 H   0  0  0  0  0  0  0  0  0  0  0  0
  -24.5787  -30.7757   25.6817 H   0  0  0  0  0  0  0  0  0  0  0  0
  -25.0041  -32.2289   26.5536 H   0  0  0  0  0  0  0  0  0  0  0  0
  -25.8166  -30.7245   26.9138 H   0  0  0  0  0  0  0  0  0  0  0  0
  -26.2892  -29.7335   24.0803 H   0  0  0  0  0  0  0  0  0  0  0  0
  -27.4336  -29.7484   25.4006 H   0  0  0  0  0  0  0  0  0  0  0  0
  -27.8466  -30.4994   23.8779 H   0  0  0  0  0  0  0  0  0  0  0  0
  -27.2251  -33.3632   26.1242 H   0  0  0  0  0  0  0  0  0  0  0  0
  -28.3902  -32.6065   25.0645 H   0  0  0  0  0  0  0  0  0  0  0  0
  -27.9772  -31.8555   26.5872 H   0  0  0  0  0  0  0  0  0  0  0  0
  -28.2744  -38.0016   24.6863 H   0  0  0  0  0  0  0  0  0  0  0  0
  -28.0396  -36.2711   24.7461 H   0  0  0  0  0  0  0  0  0  0  0  0
  -27.1773  -37.3087   25.8564 H   0  0  0  0  0  0  0  0  0  0  0  0
  -20.9627  -29.9365   21.7352 H   0  0  0  0  0  0  0  0  0  0  0  0
  -26.0447  -38.2561   24.0273 H   0  0  0  0  0  0  0  0  0  0  0  0
  -27.2406  -26.2709   16.8734 H   0  0  0  0  0  0  0  0  0  0  0  0
  -30.3700  -27.3502   20.4032 H   0  0  0  0  0  0  0  0  0  0  0  0
  -27.1788  -24.6344   16.2752 H   0  0  0  0  0  0  0  0  0  0  0  0
  -27.0926  -23.0200   16.9380 H   0  0  0  0  0  0  0  0  0  0  0  0
  -28.3082  -23.4110   15.7454 H   0  0  0  0  0  0  0  0  0  0  0  0
  -31.1847  -21.6581   19.3844 H   0  0  0  0  0  0  0  0  0  0  0  0
  -31.1206  -22.5471   20.8873 H   0  0  0  0  0  0  0  0  0  0  0  0
  -32.3368  -22.9347   19.6942 H   0  0  0  0  0  0  0  0  0  0  0  0
  -27.0052  -30.6926   14.6263 H   0  0  0  0  0  0  0  0  0  0  0  0
  -26.5668  -31.2212   16.2330 H   0  0  0  0  0  0  0  0  0  0  0  0
  -25.6551  -29.9517   15.4518 H   0  0  0  0  0  0  0  0  0  0  0  0
  -27.0394  -29.6774   18.2173 H   0  0  0  0  0  0  0  0  0  0  0  0
  -26.1069  -28.4115   17.4129 H   0  0  0  0  0  0  0  0  0  0  0  0
  -30.4090  -21.3024   18.0202 H   0  0  0  0  0  0  0  0  0  0  0  0
  -29.4139  -21.8144   16.6510 H   0  0  0  0  0  0  0  0  0  0  0  0
  -28.9791  -30.1855   18.8683 H   0  0  0  0  0  0  0  0  0  0  0  0
  -29.8753  -29.5526   20.2544 H   0  0  0  0  0  0  0  0  0  0  0  0
  -28.5351  -29.7731   16.2891 H   0  0  0  0  0  0  0  0  0  0  0  0
  -27.5920  -28.4991   15.5116 H   0  0  0  0  0  0  0  0  0  0  0  0
  -28.4967  -20.2449   18.9971 H   0  0  0  0  0  0  0  0  0  0  0  0
  -27.5671  -20.4151   17.7902 H   0  0  0  0  0  0  0  0  0  0  0  0
  -27.3024  -30.5311   20.9182 H   0  0  0  0  0  0  0  0  0  0  0  0
  1 25  1  0
  1 30  2  0
  1 89  1  0
  2  3  1  0
  2 25  1  0
  2 90  1  0
  2 91  1  0
  3  4  1  0
  3 92  1  0
  3 93  1  0
  4  5  1  0
  4 94  1  0
  4 95  1  0
  5  6  1  0
  5 26  1  0
  5 96  1  6
  6 25  1  0
  6 97  1  0
  6 98  1  0
  7  8  2  0
  7 26  1  0
  7 29  1  0
  8  9  1  0
  8 22  1  0
  9 10  1  0
  9 27  2  0
 10 11  2  0
 10 15  1  0
 11 12  1  0
 11 99  1  0
 12 13  2  0
 12100  1  0
 13 14  1  0
 13 31  1  0
 14 15  2  0
 14101  1  0
 15102  1  0
 16 17  2  0
 16 21  1  0
 16 31  1  0
 17 18  1  0
 17103  1  0
 18 19  2  0
 18104  1  0
 19 20  1  0
 19 24  1  0
 20 21  2  0
 20105  1  0
 21 23  1  0
 22 28  1  0
 22 32  2  0
 26 27  1  0
 28106  1  0
 28107  1  0
 29108  1  0
 29109  1  0
 33 34  1  0
 33 66  1  0
 33 70  2  0
 34 36  1  0
 34 59  1  0
 34110  1  6
 35 44  2  0
 35 45  1  0
 35 68  1  0
 36 56  1  0
 36111  1  0
 37 39  1  0
 37 47  1  0
 37 66  1  0
 37112  1  6
 38 43  2  0
 38 46  1  0
 38 47  1  0
 39 64  1  0
 39 67  2  0
 40 52  1  0
 40 53  2  0
 40 58  1  0
 41113  1  0
 41114  1  0
 41115  1  0
 42 43  1  0
 42 66  1  0
 42116  1  0
 42117  1  0
 43 44  1  0
 44118  1  0
 45 46  2  0
 45119  1  0
 46120  1  0
 47121  1  0
 47122  1  0
 48 41  1  0
 48 56  1  0
 48 65  1  0
 48123  1  1
 49 50  1  0
 49 53  1  0
 49 64  1  0
 49124  1  1
 50 51  1  0
 50125  1  0
 50126  1  0
 51 52  1  0
 51127  1  0
 51128  1  0
 52129  1  0
 52130  1  0
 53 54  1  0
 54 55  2  0
 54131  1  0
 55 57  1  0
 55132  1  0
 56 69  2  0
 57 58  2  0
 57133  1  0
 58134  1  0
 59 60  1  0
 59 61  1  0
 59 62  1  0
 60135  1  0
 60136  1  0
 60137  1  0
 61138  1  0
 61139  1  0
 61140  1  0
 62141  1  0
 62142  1  0
 62143  1  0
 63 65  1  0
 63144  1  0
 63145  1  0
 63146  1  0
 64147  1  0
 65148  1  0
 68 87  1  0
 71 73  2  0
 71 74  1  0
 71149  1  0
 72 75  1  0
 72 78  2  0
 72150  1  0
 73 76  1  0
 73 78  1  0
 74 75  2  0
 74 83  1  0
 75 85  1  0
 76 77  2  0
 76 80  1  0
 77 79  1  0
 77 84  1  0
 78 88  1  0
 79 81  1  0
 79 88  2  0
 80151  1  0
 80152  1  0
 80153  1  0
 81154  1  0
 81155  1  0
 81156  1  0
 82 86  1  0
 82157  1  0
 82158  1  0
 82159  1  0
 83 86  1  0
 83160  1  0
 83161  1  0
 84 87  1  0
 84162  1  0
 84163  1  0
 85 89  1  0
 85164  1  0
 85165  1  0
 86166  1  0
 86167  1  0
 87168  1  0
 87169  1  0
 89170  1  0
M  ISO  4   1 100  68 101  87 101  89 100
M  END
$$$$
55
     RDKit          3D

150158  0  0  0  0  0  0  0  0999 V2000
  -30.7652  -14.3608   20.6636 C   0  0  0  0  0  0  0  0  0100  0  0
  -30.4392  -12.2669   19.3775 C   0  0  0  0  0  0  0  0  0101  0  0
  -29.4791  -12.5281   18.1977 C   0  0  0  0  0  0  0  0  0102  0  0
  -27.9985  -12.3963   18.6038 C   0  0  0  0  0  0  0  0  0103  0  0
  -27.6639  -13.2170   19.8820 C   0  0  2  0  0  0  0  0  0104  0  0
  -28.6795  -12.9602   21.0279 C   0  0  0  0  0  0  0  0  0105  0  0
  -25.2633  -13.8245   20.5754 C   0  0  0  0  0  0  0  0  0106  0  0
  -24.1645  -13.0409   20.9408 C   0  0  0  0  0  0  0  0  0107  0  0
  -24.6400  -11.7009   20.8697 C   0  0  0  0  0  0  0  0  0108  0  0
  -23.9005  -10.4085   21.0420 C   0  0  0  0  0  0  0  0  0109  0  0
  -24.3588   -9.4123   21.9123 C   0  0  0  0  0  0  0  0  0110  0  0
  -23.6296   -8.2350   22.0803 C   0  0  0  0  0  0  0  0  0111  0  0
  -22.4385   -8.0419   21.3657 C   0  0  0  0  0  0  0  0  0112  0  0
  -22.0103   -9.0167   20.4678 C   0  0  0  0  0  0  0  0  0113  0  0
  -22.7317  -10.1925   20.3102 C   0  0  0  0  0  0  0  0  0114  0  0
  -21.6857   -6.0709   22.5391 C   0  0  0  0  0  0  0  0  0115  0  0
  -21.4064   -6.5490   23.8264 C   0  0  0  0  0  0  0  0  0116  0  0
  -21.3635   -5.6677   24.9085 C   0  0  0  0  0  0  0  0  0117  0  0
  -21.5973   -4.3067   24.7088 C   0  0  0  0  0  0  0  0  0118  0  0
  -21.8700   -3.8284   23.4282 C   0  0  0  0  0  0  0  0  0119  0  0
  -21.9144   -4.7056   22.3460 C   0  0  0  0  0  0  0  0  0120  0  0
  -22.8194  -13.5263   21.1763 C   0  0  0  0  0  0  0  0  0121  0  0
  -22.1559   -4.2206   21.1063 F   0  0  0  0  0  0  0  0  0122  0  0
  -21.5628   -3.4510   25.7555 F   0  0  0  0  0  0  0  0  0123  0  0
  -30.0261  -13.1803   20.4553 N   0  0  0  0  0  0  0  0  0124  0  0
  -26.2911  -12.9356   20.3443 N   0  0  0  0  0  0  0  0  0125  0  0
  -25.9236  -11.6675   20.5847 N   0  0  0  0  0  0  0  0  0126  0  0
  -22.0708  -12.7905   22.0005 N   0  0  0  0  0  0  0  0  0127  0  0
  -25.4117  -15.1773   20.4097 N   0  0  0  0  0  0  0  0  0128  0  0
  -31.7916  -14.6724   20.0536 O   0  0  0  0  0  0  0  0  0129  0  0
  -21.6670   -6.9022   21.4423 O   0  0  0  0  0  0  0  0  0130  0  0
  -22.3946  -14.5564   20.6568 O   0  0  0  0  0  0  0  0  0131  0  0
  -24.6048  -31.8614   23.2223 C   0  0  0  0  0  0  0  0  0100  0  0
  -25.8822  -32.4841   23.8616 C   0  0  1  0  0  0  0  0  0101  0  0
  -27.2536  -27.5042   20.1156 C   0  0  0  0  0  0  0  0  0102  0  0
  -25.5726  -33.8762   24.2210 N   0  0  0  0  0  0  0  0  0103  0  0
  -23.4066  -30.4859   21.5461 C   0  0  2  0  0  0  0  0  0104  0  0
  -24.8467  -28.9636   20.1247 C   0  0  0  0  0  0  0  0  0105  0  0
  -22.7412  -29.4652   22.5052 C   0  0  0  0  0  0  0  0  0106  0  0
  -18.0167  -28.1302   22.8626 C   0  0  0  0  0  0  0  0  0107  0  0
  -24.1342  -36.7390   23.2568 C   0  0  0  0  0  0  0  0  0108  0  0
  -25.9141  -30.8882   21.3456 C   0  0  0  0  0  0  0  0  0109  0  0
  -25.9930  -29.5029   20.7208 C   0  0  0  0  0  0  0  0  0110  0  0
  -27.1758  -28.7612   20.7331 C   0  0  0  0  0  0  0  0  0111  0  0
  -26.1032  -26.9836   19.5230 C   0  0  0  0  0  0  0  0  0112  0  0
  -24.9097  -27.7011   19.5331 C   0  0  0  0  0  0  0  0  0113  0  0
  -23.5715  -29.7899   20.1582 C   0  0  0  0  0  0  0  0  0114  0  0
  -25.3990  -36.3212   24.0232 C   0  0  1  0  0  0  0  0  0115  0  0
  -20.5793  -28.3813   23.1004 C   0  0  2  0  0  0  0  0  0116  0  0
  -20.6548  -26.9392   22.5411 C   0  0  0  0  0  0  0  0  0117  0  0
  -19.5615  -26.6407   21.5143 C   0  0  0  0  0  0  0  0  0118  0  0
  -18.1797  -26.7818   22.1673 C   0  0  0  0  0  0  0  0  0119  0  0
  -19.1385  -28.8769   23.2988 C   0  0  0  0  0  0  0  0  0120  0  0
  -18.9183  -30.1286   23.8878 C   0  0  0  0  0  0  0  0  0121  0  0
  -17.6396  -30.6493   24.0352 C   0  0  0  0  0  0  0  0  0122  0  0
  -25.9153  -34.9582   23.4993 C   0  0  0  0  0  0  0  0  0123  0  0
  -16.5415  -29.9068   23.6254 C   0  0  0  0  0  0  0  0  0124  0  0
  -16.7331  -28.6521   23.0586 C   0  0  0  0  0  0  0  0  0125  0  0
  -26.4583  -31.6439   25.0683 C   0  0  0  0  0  0  0  0  0126  0  0
  -25.3807  -31.3179   26.1374 C   0  0  0  0  0  0  0  0  0127  0  0
  -27.0530  -30.3024   24.5680 C   0  0  0  0  0  0  0  0  0128  0  0
  -27.6014  -32.4281   25.7651 C   0  0  0  0  0  0  0  0  0129  0  0
  -27.5629  -37.2220   24.8621 C   0  0  0  0  0  0  0  0  0130  0  0
  -21.4133  -29.3375   22.3735 N   0  0  0  0  0  0  0  0  0131  0  0
  -26.4706  -37.3372   23.9061 N   0  0  0  0  0  0  0  0  0132  0  0
  -24.6674  -31.0544   22.1178 N   0  0  0  0  0  0  0  0  0133  0  0
  -23.4259  -28.8150   23.2971 O   0  0  0  0  0  0  0  0  0134  0  0
  -28.3948  -26.7345   20.0089 O   0  0  0  0  0  0  0  0  0135  0  0
  -26.5870  -34.9065   22.4671 O   0  0  0  0  0  0  0  0  0136  0  0
  -23.5365  -32.1254   23.7833 O   0  0  0  0  0  0  0  0  0137  0  0
  -17.9944  -22.5792   17.7151 C   0  0  0  0  0  0  0  0  0  0  0  0
  -15.6795  -23.6759   18.8200 C   0  0  0  0  0  0  0  0  0  0  0  0
  -16.9052  -21.7587   18.0082 C   0  0  0  0  0  0  0  0  0  0  0  0
  -16.7688  -24.4964   18.5270 C   0  0  0  0  0  0  0  0  0  0  0  0
  -15.7477  -22.3070   18.5607 C   0  0  0  0  0  0  0  0  0  0  0  0
  -17.9262  -23.9481   17.9745 C   0  0  0  0  0  0  0  0  0  0  0  0
  -17.0196  -20.2831   17.7119 C   0  0  0  0  0  0  0  0  0  0  0  0
  -16.6568  -25.9580   18.8202 C   0  0  0  0  0  0  0  0  0  0  0  0
  -18.2005  -19.6376   18.4287 C   0  0  0  0  0  0  0  0  0  1  0  0
  -17.6676  -26.4078   19.7513 N   0  0  0  0  0  0  0  0  0  0  0  0
  -14.3802  -21.3227   18.9349 Cl  0  0  0  0  0  0  0  0  0  0  0  0
  -19.2936  -24.9324   17.5989 Cl  0  0  0  0  0  0  0  0  0  0  0  0
  -31.4485  -12.4701   19.0860 H   0  0  0  0  0  0  0  0  0  0  0  0
  -30.3970  -11.2460   19.6950 H   0  0  0  0  0  0  0  0  0  0  0  0
  -29.6870  -11.8204   17.4226 H   0  0  0  0  0  0  0  0  0  0  0  0
  -29.6375  -13.5326   17.8649 H   0  0  0  0  0  0  0  0  0  0  0  0
  -27.7830  -11.3650   18.7904 H   0  0  0  0  0  0  0  0  0  0  0  0
  -27.4028  -12.7801   17.8021 H   0  0  0  0  0  0  0  0  0  0  0  0
  -27.7353  -14.2503   19.6136 H   0  0  0  0  0  0  0  0  0  0  0  0
  -28.5890  -11.9550   21.3832 H   0  0  0  0  0  0  0  0  0  0  0  0
  -28.5005  -13.6134   21.8562 H   0  0  0  0  0  0  0  0  0  0  0  0
  -25.2399   -9.5495   22.4318 H   0  0  0  0  0  0  0  0  0  0  0  0
  -23.9663   -7.5070   22.7297 H   0  0  0  0  0  0  0  0  0  0  0  0
  -21.1515   -8.8641   19.9162 H   0  0  0  0  0  0  0  0  0  0  0  0
  -22.4016  -10.9115   19.6476 H   0  0  0  0  0  0  0  0  0  0  0  0
  -21.2319   -7.5552   23.9750 H   0  0  0  0  0  0  0  0  0  0  0  0
  -21.1589   -6.0228   25.8556 H   0  0  0  0  0  0  0  0  0  0  0  0
  -22.0396   -2.8212   23.2809 H   0  0  0  0  0  0  0  0  0  0  0  0
  -22.4401  -11.9703   22.4008 H   0  0  0  0  0  0  0  0  0  0  0  0
  -21.1493  -13.0679   22.2082 H   0  0  0  0  0  0  0  0  0  0  0  0
  -24.6538  -15.7807   20.5848 H   0  0  0  0  0  0  0  0  0  0  0  0
  -26.2762  -15.5453   20.1156 H   0  0  0  0  0  0  0  0  0  0  0  0
  -26.6778  -32.4663   23.1464 H   0  0  0  0  0  0  0  0  0  0  0  0
  -25.0747  -34.0282   25.0566 H   0  0  0  0  0  0  0  0  0  0  0  0
  -22.7881  -31.3489   21.4131 H   0  0  0  0  0  0  0  0  0  0  0  0
  -23.3854  -35.9823   23.3648 H   0  0  0  0  0  0  0  0  0  0  0  0
  -24.3696  -36.8624   22.2204 H   0  0  0  0  0  0  0  0  0  0  0  0
  -23.7669  -37.6632   23.6516 H   0  0  0  0  0  0  0  0  0  0  0  0
  -25.9445  -31.6237   20.5691 H   0  0  0  0  0  0  0  0  0  0  0  0
  -26.7436  -31.0079   22.0108 H   0  0  0  0  0  0  0  0  0  0  0  0
  -28.0090  -29.1452   21.2057 H   0  0  0  0  0  0  0  0  0  0  0  0
  -26.1369  -26.0560   19.0719 H   0  0  0  0  0  0  0  0  0  0  0  0
  -24.0652  -27.2961   19.0997 H   0  0  0  0  0  0  0  0  0  0  0  0
  -23.6156  -30.5365   19.3930 H   0  0  0  0  0  0  0  0  0  0  0  0
  -22.7355  -29.1425   19.9945 H   0  0  0  0  0  0  0  0  0  0  0  0
  -25.1353  -36.2335   25.0565 H   0  0  0  0  0  0  0  0  0  0  0  0
  -21.0070  -28.3206   24.0793 H   0  0  0  0  0  0  0  0  0  0  0  0
  -20.5555  -26.2518   23.3550 H   0  0  0  0  0  0  0  0  0  0  0  0
  -21.5974  -26.8362   22.0454 H   0  0  0  0  0  0  0  0  0  0  0  0
  -19.6810  -25.6422   21.1488 H   0  0  0  0  0  0  0  0  0  0  0  0
  -19.6406  -27.3343   20.7034 H   0  0  0  0  0  0  0  0  0  0  0  0
  -17.4282  -26.6888   21.4113 H   0  0  0  0  0  0  0  0  0  0  0  0
  -18.0803  -26.0130   22.9049 H   0  0  0  0  0  0  0  0  0  0  0  0
  -19.7265  -30.6774   24.2204 H   0  0  0  0  0  0  0  0  0  0  0  0
  -17.5064  -31.5856   24.4483 H   0  0  0  0  0  0  0  0  0  0  0  0
  -15.5878  -30.2839   23.7407 H   0  0  0  0  0  0  0  0  0  0  0  0
  -15.9120  -28.0941   22.7766 H   0  0  0  0  0  0  0  0  0  0  0  0
  -24.5787  -30.7757   25.6817 H   0  0  0  0  0  0  0  0  0  0  0  0
  -25.0041  -32.2289   26.5536 H   0  0  0  0  0  0  0  0  0  0  0  0
  -25.8166  -30.7245   26.9138 H   0  0  0  0  0  0  0  0  0  0  0  0
  -26.2892  -29.7335   24.0803 H   0  0  0  0  0  0  0  0  0  0  0  0
  -27.4336  -29.7484   25.4006 H   0  0  0  0  0  0  0  0  0  0  0  0
  -27.8466  -30.4994   23.8779 H   0  0  0  0  0  0  0  0  0  0  0  0
  -27.2251  -33.3632   26.1242 H   0  0  0  0  0  0  0  0  0  0  0  0
  -28.3902  -32.6065   25.0645 H   0  0  0  0  0  0  0  0  0  0  0  0
  -27.9772  -31.8555   26.5872 H   0  0  0  0  0  0  0  0  0  0  0  0
  -28.2744  -38.0016   24.6863 H   0  0  0  0  0  0  0  0  0  0  0  0
  -28.0396  -36.2711   24.7461 H   0  0  0  0  0  0  0  0  0  0  0  0
  -27.1773  -37.3087   25.8564 H   0  0  0  0  0  0  0  0  0  0  0  0
  -20.9627  -29.9365   21.7352 H   0  0  0  0  0  0  0  0  0  0  0  0
  -26.0447  -38.2561   24.0273 H   0  0  0  0  0  0  0  0  0  0  0  0
  -18.8508  -22.1735   17.3063 H   0  0  0  0  0  0  0  0  0  0  0  0
  -14.8231  -24.0816   19.2286 H   0  0  0  0  0  0  0  0  0  0  0  0
  -17.1445  -20.1528   16.6572 H   0  0  0  0  0  0  0  0  0  0  0  0
  -16.1263  -19.8093   18.0617 H   0  0  0  0  0  0  0  0  0  0  0  0
  -15.6916  -26.1524   19.2391 H   0  0  0  0  0  0  0  0  0  0  0  0
  -16.7970  -26.4888   17.9018 H   0  0  0  0  0  0  0  0  0  0  0  0
  -18.4900  -18.7757   17.8647 H   0  0  0  0  0  0  0  0  0  0  0  0
  -17.8484  -19.4282   19.4172 H   0  0  0  0  0  0  0  0  0  0  0  0
  -17.6368  -27.2514   20.2578 H   0  0  0  0  0  0  0  0  0  0  0  0
  1 25  1  0
  1 30  2  0
  1 80  1  0
  2  3  1  0
  2 25  1  0
  2 83  1  0
  2 84  1  0
  3  4  1  0
  3 85  1  0
  3 86  1  0
  4  5  1  0
  4 87  1  0
  4 88  1  0
  5  6  1  0
  5 26  1  0
  5 89  1  6
  6 25  1  0
  6 90  1  0
  6 91  1  0
  7  8  2  0
  7 26  1  0
  7 29  1  0
  8  9  1  0
  8 22  1  0
  9 10  1  0
  9 27  2  0
 10 11  2  0
 10 15  1  0
 11 12  1  0
 11 92  1  0
 12 13  2  0
 12 93  1  0
 13 14  1  0
 13 31  1  0
 14 15  2  0
 14 94  1  0
 15 95  1  0
 16 17  2  0
 16 21  1  0
 16 31  1  0
 17 18  1  0
 17 96  1  0
 18 19  2  0
 18 97  1  0
 19 20  1  0
 19 24  1  0
 20 21  2  0
 20 98  1  0
 21 23  1  0
 22 28  1  0
 22 32  2  0
 26 27  1  0
 28 99  1  0
 28100  1  0
 29101  1  0
 29102  1  0
 33 34  1  0
 33 66  1  0
 33 70  2  0
 34 36  1  0
 34 59  1  0
 34103  1  6
 35 44  2  0
 35 45  1  0
 35 68  1  0
 36 56  1  0
 36104  1  0
 37 39  1  0
 37 47  1  0
 37 66  1  0
 37105  1  6
 38 43  2  0
 38 46  1  0
 38 47  1  0
 39 64  1  0
 39 67  2  0
 40 52  1  0
 40 53  2  0
 40 58  1  0
 41106  1  0
 41107  1  0
 41108  1  0
 42 43  1  0
 42 66  1  0
 42109  1  0
 42110  1  0
 43 44  1  0
 44111  1  0
 45 46  2  0
 45112  1  0
 46113  1  0
 47114  1  0
 47115  1  0
 48 41  1  0
 48 56  1  0
 48 65  1  0
 48116  1  1
 49 50  1  0
 49 53  1  0
 49 64  1  0
 49117  1  1
 50 51  1  0
 50118  1  0
 50119  1  0
 51 52  1  0
 51120  1  0
 51121  1  0
 52122  1  0
 52123  1  0
 53 54  1  0
 54 55  2  0
 54124  1  0
 55 57  1  0
 55125  1  0
 56 69  2  0
 57 58  2  0
 57126  1  0
 58127  1  0
 59 60  1  0
 59 61  1  0
 59 62  1  0
 60128  1  0
 60129  1  0
 60130  1  0
 61131  1  0
 61132  1  0
 61133  1  0
 62134  1  0
 62135  1  0
 62136  1  0
 63 65  1  0
 63137  1  0
 63138  1  0
 63139  1  0
 64140  1  0
 65141  1  0
 68 79  1  0
 71 73  2  0
 71 76  1  0
 71142  1  0
 72 74  1  0
 72 75  2  0
 72143  1  0
 73 75  1  0
 73 77  1  0
 74 76  2  0
 74 78  1  0
 75 81  1  0
 76 82  1  0
 77 79  1  0
 77144  1  0
 77145  1  0
 78 80  1  0
 78146  1  0
 78147  1  0
 79148  1  0
 79149  1  0
 80150  1  0
M  ISO  4   1 100  68 101  79 101  80 100
M  END
$$$$
56
     RDKit          3D

156164  0  0  0  0  0  0  0  0999 V2000
  -30.7652  -14.3608   20.6636 C   0  0  0  0  0  0  0  0  0100  0  0
  -30.4392  -12.2669   19.3775 C   0  0  0  0  0  0  0  0  0101  0  0
  -29.4791  -12.5281   18.1977 C   0  0  0  0  0  0  0  0  0102  0  0
  -27.9985  -12.3963   18.6038 C   0  0  0  0  0  0  0  0  0103  0  0
  -27.6639  -13.2170   19.8820 C   0  0  2  0  0  0  0  0  0104  0  0
  -28.6795  -12.9602   21.0279 C   0  0  0  0  0  0  0  0  0105  0  0
  -25.2633  -13.8245   20.5754 C   0  0  0  0  0  0  0  0  0106  0  0
  -24.1645  -13.0409   20.9408 C   0  0  0  0  0  0  0  0  0107  0  0
  -24.6400  -11.7009   20.8697 C   0  0  0  0  0  0  0  0  0108  0  0
  -23.9005  -10.4085   21.0420 C   0  0  0  0  0  0  0  0  0109  0  0
  -24.3588   -9.4123   21.9123 C   0  0  0  0  0  0  0  0  0110  0  0
  -23.6296   -8.2350   22.0803 C   0  0  0  0  0  0  0  0  0111  0  0
  -22.4385   -8.0419   21.3657 C   0  0  0  0  0  0  0  0  0112  0  0
  -22.0103   -9.0167   20.4678 C   0  0  0  0  0  0  0  0  0113  0  0
  -22.7317  -10.1925   20.3102 C   0  0  0  0  0  0  0  0  0114  0  0
  -21.6857   -6.0709   22.5391 C   0  0  0  0  0  0  0  0  0115  0  0
  -21.4064   -6.5490   23.8264 C   0  0  0  0  0  0  0  0  0116  0  0
  -21.3635   -5.6677   24.9085 C   0  0  0  0  0  0  0  0  0117  0  0
  -21.5973   -4.3067   24.7088 C   0  0  0  0  0  0  0  0  0118  0  0
  -21.8700   -3.8284   23.4282 C   0  0  0  0  0  0  0  0  0119  0  0
  -21.9144   -4.7056   22.3460 C   0  0  0  0  0  0  0  0  0120  0  0
  -22.8194  -13.5263   21.1763 C   0  0  0  0  0  0  0  0  0121  0  0
  -22.1559   -4.2206   21.1063 F   0  0  0  0  0  0  0  0  0122  0  0
  -21.5628   -3.4510   25.7555 F   0  0  0  0  0  0  0  0  0123  0  0
  -30.0261  -13.1803   20.4553 N   0  0  0  0  0  0  0  0  0124  0  0
  -26.2911  -12.9356   20.3443 N   0  0  0  0  0  0  0  0  0125  0  0
  -25.9236  -11.6675   20.5847 N   0  0  0  0  0  0  0  0  0126  0  0
  -22.0708  -12.7905   22.0005 N   0  0  0  0  0  0  0  0  0127  0  0
  -25.4117  -15.1773   20.4097 N   0  0  0  0  0  0  0  0  0128  0  0
  -31.7916  -14.6724   20.0536 O   0  0  0  0  0  0  0  0  0129  0  0
  -21.6670   -6.9022   21.4423 O   0  0  0  0  0  0  0  0  0130  0  0
  -22.3946  -14.5564   20.6568 O   0  0  0  0  0  0  0  0  0131  0  0
  -24.6048  -31.8614   23.2223 C   0  0  0  0  0  0  0  0  0100  0  0
  -25.8822  -32.4841   23.8616 C   0  0  1  0  0  0  0  0  0101  0  0
  -27.2536  -27.5042   20.1156 C   0  0  0  0  0  0  0  0  0102  0  0
  -25.5726  -33.8762   24.2210 N   0  0  0  0  0  0  0  0  0103  0  0
  -23.4066  -30.4859   21.5461 C   0  0  2  0  0  0  0  0  0104  0  0
  -24.8467  -28.9636   20.1247 C   0  0  0  0  0  0  0  0  0105  0  0
  -22.7412  -29.4652   22.5052 C   0  0  0  0  0  0  0  0  0106  0  0
  -18.0167  -28.1302   22.8626 C   0  0  0  0  0  0  0  0  0107  0  0
  -24.1342  -36.7390   23.2568 C   0  0  0  0  0  0  0  0  0108  0  0
  -25.9141  -30.8882   21.3456 C   0  0  0  0  0  0  0  0  0109  0  0
  -25.9930  -29.5029   20.7208 C   0  0  0  0  0  0  0  0  0110  0  0
  -27.1758  -28.7612   20.7331 C   0  0  0  0  0  0  0  0  0111  0  0
  -26.1032  -26.9836   19.5230 C   0  0  0  0  0  0  0  0  0112  0  0
  -24.9097  -27.7011   19.5331 C   0  0  0  0  0  0  0  0  0113  0  0
  -23.5715  -29.7899   20.1582 C   0  0  0  0  0  0  0  0  0114  0  0
  -25.3990  -36.3212   24.0232 C   0  0  1  0  0  0  0  0  0115  0  0
  -20.5793  -28.3813   23.1004 C   0  0  2  0  0  0  0  0  0116  0  0
  -20.6548  -26.9392   22.5411 C   0  0  0  0  0  0  0  0  0117  0  0
  -19.5615  -26.6407   21.5143 C   0  0  0  0  0  0  0  0  0118  0  0
  -18.1797  -26.7818   22.1673 C   0  0  0  0  0  0  0  0  0119  0  0
  -19.1385  -28.8769   23.2988 C   0  0  0  0  0  0  0  0  0120  0  0
  -18.9183  -30.1286   23.8878 C   0  0  0  0  0  0  0  0  0121  0  0
  -17.6396  -30.6493   24.0352 C   0  0  0  0  0  0  0  0  0122  0  0
  -25.9153  -34.9582   23.4993 C   0  0  0  0  0  0  0  0  0123  0  0
  -16.5415  -29.9068   23.6254 C   0  0  0  0  0  0  0  0  0124  0  0
  -16.7331  -28.6521   23.0586 C   0  0  0  0  0  0  0  0  0125  0  0
  -26.4583  -31.6439   25.0683 C   0  0  0  0  0  0  0  0  0126  0  0
  -25.3807  -31.3179   26.1374 C   0  0  0  0  0  0  0  0  0127  0  0
  -27.0530  -30.3024   24.5680 C   0  0  0  0  0  0  0  0  0128  0  0
  -27.6014  -32.4281   25.7651 C   0  0  0  0  0  0  0  0  0129  0  0
  -27.5629  -37.2220   24.8621 C   0  0  0  0  0  0  0  0  0130  0  0
  -21.4133  -29.3375   22.3735 N   0  0  0  0  0  0  0  0  0131  0  0
  -26.4706  -37.3372   23.9061 N   0  0  0  0  0  0  0  0  0132  0  0
  -24.6674  -31.0544   22.1178 N   0  0  0  0  0  0  0  0  0133  0  0
  -23.4259  -28.8150   23.2971 O   0  0  0  0  0  0  0  0  0134  0  0
  -28.3948  -26.7345   20.0089 O   0  0  0  0  0  0  0  0  0135  0  0
  -26.5870  -34.9065   22.4671 O   0  0  0  0  0  0  0  0  0136  0  0
  -23.5365  -32.1254   23.7833 O   0  0  0  0  0  0  0  0  0137  0  0
  -31.1134  -14.7641   25.8695 C   0  0  0  0  0  0  0  0  0  0  0  0
  -30.6346  -13.9328   24.8569 C   0  0  0  0  0  0  0  0  0  0  0  0
  -32.1245  -14.9958   23.2798 C   0  0  0  0  0  0  0  0  0  0  0  0
  -32.0977  -15.7113   25.5872 C   0  0  0  0  0  0  0  0  0  0  0  0
  -31.1402  -14.0487   23.5620 C   0  0  0  0  0  0  0  0  0  0  0  0
  -32.6033  -15.8271   24.2924 C   0  0  0  0  0  0  0  0  0  0  0  0
  -32.6113  -16.6021   26.6797 C   0  0  0  0  0  0  0  0  0  0  0  0
  -31.0723  -19.6184   28.4672 C   0  0  0  0  0  0  0  0  0  0  0  0
  -32.1043  -18.5407   28.1710 C   0  0  0  0  0  0  0  0  0  0  0  0
  -30.8333  -20.5744   27.3049 C   0  0  0  0  0  0  0  0  0  1  0  0
  -30.6524  -13.2056   22.5330 N   0  0  0  0  0  0  0  0  0  0  0  0
  -31.6545  -17.6811   27.0510 N   0  0  0  0  0  0  0  0  0  0  0  0
  -33.5492  -16.7342   24.0115 F   0  0  0  0  0  0  0  0  0  0  0  0
  -31.4485  -12.4701   19.0860 H   0  0  0  0  0  0  0  0  0  0  0  0
  -30.3970  -11.2460   19.6950 H   0  0  0  0  0  0  0  0  0  0  0  0
  -29.6870  -11.8204   17.4226 H   0  0  0  0  0  0  0  0  0  0  0  0
  -29.6375  -13.5326   17.8649 H   0  0  0  0  0  0  0  0  0  0  0  0
  -27.7830  -11.3650   18.7904 H   0  0  0  0  0  0  0  0  0  0  0  0
  -27.4028  -12.7801   17.8021 H   0  0  0  0  0  0  0  0  0  0  0  0
  -27.7353  -14.2503   19.6136 H   0  0  0  0  0  0  0  0  0  0  0  0
  -28.5890  -11.9550   21.3832 H   0  0  0  0  0  0  0  0  0  0  0  0
  -28.5005  -13.6134   21.8562 H   0  0  0  0  0  0  0  0  0  0  0  0
  -25.2399   -9.5495   22.4318 H   0  0  0  0  0  0  0  0  0  0  0  0
  -23.9663   -7.5070   22.7297 H   0  0  0  0  0  0  0  0  0  0  0  0
  -21.1515   -8.8641   19.9162 H   0  0  0  0  0  0  0  0  0  0  0  0
  -22.4016  -10.9115   19.6476 H   0  0  0  0  0  0  0  0  0  0  0  0
  -21.2319   -7.5552   23.9750 H   0  0  0  0  0  0  0  0  0  0  0  0
  -21.1589   -6.0228   25.8556 H   0  0  0  0  0  0  0  0  0  0  0  0
  -22.0396   -2.8212   23.2809 H   0  0  0  0  0  0  0  0  0  0  0  0
  -22.4401  -11.9703   22.4008 H   0  0  0  0  0  0  0  0  0  0  0  0
  -21.1493  -13.0679   22.2082 H   0  0  0  0  0  0  0  0  0  0  0  0
  -24.6538  -15.7807   20.5848 H   0  0  0  0  0  0  0  0  0  0  0  0
  -26.2762  -15.5453   20.1156 H   0  0  0  0  0  0  0  0  0  0  0  0
  -26.6778  -32.4663   23.1464 H   0  0  0  0  0  0  0  0  0  0  0  0
  -25.0747  -34.0282   25.0566 H   0  0  0  0  0  0  0  0  0  0  0  0
  -22.7881  -31.3489   21.4131 H   0  0  0  0  0  0  0  0  0  0  0  0
  -23.3854  -35.9823   23.3648 H   0  0  0  0  0  0  0  0  0  0  0  0
  -24.3696  -36.8624   22.2204 H   0  0  0  0  0  0  0  0  0  0  0  0
  -23.7669  -37.6632   23.6516 H   0  0  0  0  0  0  0  0  0  0  0  0
  -25.9445  -31.6237   20.5691 H   0  0  0  0  0  0  0  0  0  0  0  0
  -26.7436  -31.0079   22.0108 H   0  0  0  0  0  0  0  0  0  0  0  0
  -28.0090  -29.1452   21.2057 H   0  0  0  0  0  0  0  0  0  0  0  0
  -26.1369  -26.0560   19.0719 H   0  0  0  0  0  0  0  0  0  0  0  0
  -24.0652  -27.2961   19.0997 H   0  0  0  0  0  0  0  0  0  0  0  0
  -23.6156  -30.5365   19.3930 H   0  0  0  0  0  0  0  0  0  0  0  0
  -22.7355  -29.1425   19.9945 H   0  0  0  0  0  0  0  0  0  0  0  0
  -25.1353  -36.2335   25.0565 H   0  0  0  0  0  0  0  0  0  0  0  0
  -21.0070  -28.3206   24.0793 H   0  0  0  0  0  0  0  0  0  0  0  0
  -20.5555  -26.2518   23.3550 H   0  0  0  0  0  0  0  0  0  0  0  0
  -21.5974  -26.8362   22.0454 H   0  0  0  0  0  0  0  0  0  0  0  0
  -19.6810  -25.6422   21.1488 H   0  0  0  0  0  0  0  0  0  0  0  0
  -19.6406  -27.3343   20.7034 H   0  0  0  0  0  0  0  0  0  0  0  0
  -17.4282  -26.6888   21.4113 H   0  0  0  0  0  0  0  0  0  0  0  0
  -18.0803  -26.0130   22.9049 H   0  0  0  0  0  0  0  0  0  0  0  0
  -19.7265  -30.6774   24.2204 H   0  0  0  0  0  0  0  0  0  0  0  0
  -17.5064  -31.5856   24.4483 H   0  0  0  0  0  0  0  0  0  0  0  0
  -15.5878  -30.2839   23.7407 H   0  0  0  0  0  0  0  0  0  0  0  0
  -15.9120  -28.0941   22.7766 H   0  0  0  0  0  0  0  0  0  0  0  0
  -24.5787  -30.7757   25.6817 H   0  0  0  0  0  0  0  0  0  0  0  0
  -25.0041  -32.2289   26.5536 H   0  0  0  0  0  0  0  0  0  0  0  0
  -25.8166  -30.7245   26.9138 H   0  0  0  0  0  0  0  0  0  0  0  0
  -26.2892  -29.7335   24.0803 H   0  0  0  0  0  0  0  0  0  0  0  0
  -27.4336  -29.7484   25.4006 H   0  0  0  0  0  0  0  0  0  0  0  0
  -27.8466  -30.4994   23.8779 H   0  0  0  0  0  0  0  0  0  0  0  0
  -27.2251  -33.3632   26.1242 H   0  0  0  0  0  0  0  0  0  0  0  0
  -28.3902  -32.6065   25.0645 H   0  0  0  0  0  0  0  0  0  0  0  0
  -27.9772  -31.8555   26.5872 H   0  0  0  0  0  0  0  0  0  0  0  0
  -28.2744  -38.0016   24.6863 H   0  0  0  0  0  0  0  0  0  0  0  0
  -28.0396  -36.2711   24.7461 H   0  0  0  0  0  0  0  0  0  0  0  0
  -27.1773  -37.3087   25.8564 H   0  0  0  0  0  0  0  0  0  0  0  0
  -20.9627  -29.9365   21.7352 H   0  0  0  0  0  0  0  0  0  0  0  0
  -26.0447  -38.2561   24.0273 H   0  0  0  0  0  0  0  0  0  0  0  0
  -30.7394  -14.6784   26.8275 H   0  0  0  0  0  0  0  0  0  0  0  0
  -29.9063  -13.2320   25.0657 H   0  0  0  0  0  0  0  0  0  0  0  0
  -32.4985  -15.0815   22.3218 H   0  0  0  0  0  0  0  0  0  0  0  0
  -33.5234  -17.0542   26.3501 H   0  0  0  0  0  0  0  0  0  0  0  0
  -32.7572  -15.9924   27.5468 H   0  0  0  0  0  0  0  0  0  0  0  0
  -31.4098  -20.1871   29.3083 H   0  0  0  0  0  0  0  0  0  0  0  0
  -30.1450  -19.1193   28.6570 H   0  0  0  0  0  0  0  0  0  0  0  0
  -32.2428  -17.9372   29.0437 H   0  0  0  0  0  0  0  0  0  0  0  0
  -33.0251  -19.0113   27.8962 H   0  0  0  0  0  0  0  0  0  0  0  0
  -31.3174  -19.9094   26.6206 H   0  0  0  0  0  0  0  0  0  0  0  0
  -30.4254  -21.2776   28.0006 H   0  0  0  0  0  0  0  0  0  0  0  0
  -30.3263  -12.2823   22.6347 H   0  0  0  0  0  0  0  0  0  0  0  0
  -30.7713  -17.2462   27.3177 H   0  0  0  0  0  0  0  0  0  0  0  0
  -31.5693  -18.2875   26.2352 H   0  0  0  0  0  0  0  0  0  0  0  0
  1 25  1  0
  1 30  2  0
  1 81  1  0
  2  3  1  0
  2 25  1  0
  2 84  1  0
  2 85  1  0
  3  4  1  0
  3 86  1  0
  3 87  1  0
  4  5  1  0
  4 88  1  0
  4 89  1  0
  5  6  1  0
  5 26  1  0
  5 90  1  6
  6 25  1  0
  6 91  1  0
  6 92  1  0
  7  8  2  0
  7 26  1  0
  7 29  1  0
  8  9  1  0
  8 22  1  0
  9 10  1  0
  9 27  2  0
 10 11  2  0
 10 15  1  0
 11 12  1  0
 11 93  1  0
 12 13  2  0
 12 94  1  0
 13 14  1  0
 13 31  1  0
 14 15  2  0
 14 95  1  0
 15 96  1  0
 16 17  2  0
 16 21  1  0
 16 31  1  0
 17 18  1  0
 17 97  1  0
 18 19  2  0
 18 98  1  0
 19 20  1  0
 19 24  1  0
 20 21  2  0
 20 99  1  0
 21 23  1  0
 22 28  1  0
 22 32  2  0
 26 27  1  0
 28100  1  0
 28101  1  0
 29102  1  0
 29103  1  0
 33 34  1  0
 33 66  1  0
 33 70  2  0
 34 36  1  0
 34 59  1  0
 34104  1  6
 35 44  2  0
 35 45  1  0
 35 68  1  0
 36 56  1  0
 36105  1  0
 37 39  1  0
 37 47  1  0
 37 66  1  0
 37106  1  6
 38 43  2  0
 38 46  1  0
 38 47  1  0
 39 64  1  0
 39 67  2  0
 40 52  1  0
 40 53  2  0
 40 58  1  0
 41107  1  0
 41108  1  0
 41109  1  0
 42 43  1  0
 42 66  1  0
 42110  1  0
 42111  1  0
 43 44  1  0
 44112  1  0
 45 46  2  0
 45113  1  0
 46114  1  0
 47115  1  0
 47116  1  0
 48 41  1  0
 48 56  1  0
 48 65  1  0
 48117  1  1
 49 50  1  0
 49 53  1  0
 49 64  1  0
 49118  1  1
 50 51  1  0
 50119  1  0
 50120  1  0
 51 52  1  0
 51121  1  0
 51122  1  0
 52123  1  0
 52124  1  0
 53 54  1  0
 54 55  2  0
 54125  1  0
 55 57  1  0
 55126  1  0
 56 69  2  0
 57 58  2  0
 57127  1  0
 58128  1  0
 59 60  1  0
 59 61  1  0
 59 62  1  0
 60129  1  0
 60130  1  0
 60131  1  0
 61132  1  0
 61133  1  0
 61134  1  0
 62135  1  0
 62136  1  0
 62137  1  0
 63 65  1  0
 63138  1  0
 63139  1  0
 63140  1  0
 64141  1  0
 65142  1  0
 68 80  1  0
 71 72  2  0
 71 74  1  0
 71143  1  0
 72 75  1  0
 72144  1  0
 73 75  2  0
 73 76  1  0
 73145  1  0
 74 76  2  0
 74 77  1  0
 75 81  1  0
 76 83  1  0
 77 82  1  0
 77146  1  0
 77147  1  0
 78 79  1  0
 78 80  1  0
 78148  1  0
 78149  1  0
 79 82  1  0
 79150  1  0
 79151  1  0
 80152  1  0
 80153  1  0
 81154  1  0
 82155  1  0
 82156  1  0
M  CHG  1  82   1
M  ISO  4   1 100  68 101  80 101  81 100
M  END
$$$$
57
     RDKit          3D

175184  0  0  0  0  0  0  0  0999 V2000
  -30.7652  -14.3608   20.6636 C   0  0  0  0  0  0  0  0  0100  0  0
  -30.4392  -12.2669   19.3775 C   0  0  0  0  0  0  0  0  0101  0  0
  -29.4791  -12.5281   18.1977 C   0  0  0  0  0  0  0  0  0102  0  0
  -27.9985  -12.3963   18.6038 C   0  0  0  0  0  0  0  0  0103  0  0
  -27.6639  -13.2170   19.8820 C   0  0  2  0  0  0  0  0  0104  0  0
  -28.6795  -12.9602   21.0279 C   0  0  0  0  0  0  0  0  0105  0  0
  -25.2633  -13.8245   20.5754 C   0  0  0  0  0  0  0  0  0106  0  0
  -24.1645  -13.0409   20.9408 C   0  0  0  0  0  0  0  0  0107  0  0
  -24.6400  -11.7009   20.8697 C   0  0  0  0  0  0  0  0  0108  0  0
  -23.9005  -10.4085   21.0420 C   0  0  0  0  0  0  0  0  0109  0  0
  -24.3588   -9.4123   21.9123 C   0  0  0  0  0  0  0  0  0110  0  0
  -23.6296   -8.2350   22.0803 C   0  0  0  0  0  0  0  0  0111  0  0
  -22.4385   -8.0419   21.3657 C   0  0  0  0  0  0  0  0  0112  0  0
  -22.0103   -9.0167   20.4678 C   0  0  0  0  0  0  0  0  0113  0  0
  -22.7317  -10.1925   20.3102 C   0  0  0  0  0  0  0  0  0114  0  0
  -21.6857   -6.0709   22.5391 C   0  0  0  0  0  0  0  0  0115  0  0
  -21.4064   -6.5490   23.8264 C   0  0  0  0  0  0  0  0  0116  0  0
  -21.3635   -5.6677   24.9085 C   0  0  0  0  0  0  0  0  0117  0  0
  -21.5973   -4.3067   24.7088 C   0  0  0  0  0  0  0  0  0118  0  0
  -21.8700   -3.8284   23.4282 C   0  0  0  0  0  0  0  0  0119  0  0
  -21.9144   -4.7056   22.3460 C   0  0  0  0  0  0  0  0  0120  0  0
  -22.8194  -13.5263   21.1763 C   0  0  0  0  0  0  0  0  0121  0  0
  -22.1559   -4.2206   21.1063 F   0  0  0  0  0  0  0  0  0122  0  0
  -21.5628   -3.4510   25.7555 F   0  0  0  0  0  0  0  0  0123  0  0
  -30.0261  -13.1803   20.4553 N   0  0  0  0  0  0  0  0  0124  0  0
  -26.2911  -12.9356   20.3443 N   0  0  0  0  0  0  0  0  0125  0  0
  -25.9236  -11.6675   20.5847 N   0  0  0  0  0  0  0  0  0126  0  0
  -22.0708  -12.7905   22.0005 N   0  0  0  0  0  0  0  0  0127  0  0
  -25.4117  -15.1773   20.4097 N   0  0  0  0  0  0  0  0  0128  0  0
  -31.7916  -14.6724   20.0536 O   0  0  0  0  0  0  0  0  0129  0  0
  -21.6670   -6.9022   21.4423 O   0  0  0  0  0  0  0  0  0130  0  0
  -22.3946  -14.5564   20.6568 O   0  0  0  0  0  0  0  0  0131  0  0
  -24.6048  -31.8614   23.2223 C   0  0  0  0  0  0  0  0  0100  0  0
  -25.8822  -32.4841   23.8616 C   0  0  1  0  0  0  0  0  0101  0  0
  -27.2536  -27.5042   20.1156 C   0  0  0  0  0  0  0  0  0102  0  0
  -25.5726  -33.8762   24.2210 N   0  0  0  0  0  0  0  0  0103  0  0
  -23.4066  -30.4859   21.5461 C   0  0  2  0  0  0  0  0  0104  0  0
  -24.8467  -28.9636   20.1247 C   0  0  0  0  0  0  0  0  0105  0  0
  -22.7412  -29.4652   22.5052 C   0  0  0  0  0  0  0  0  0106  0  0
  -18.0167  -28.1302   22.8626 C   0  0  0  0  0  0  0  0  0107  0  0
  -24.1342  -36.7390   23.2568 C   0  0  0  0  0  0  0  0  0108  0  0
  -25.9141  -30.8882   21.3456 C   0  0  0  0  0  0  0  0  0109  0  0
  -25.9930  -29.5029   20.7208 C   0  0  0  0  0  0  0  0  0110  0  0
  -27.1758  -28.7612   20.7331 C   0  0  0  0  0  0  0  0  0111  0  0
  -26.1032  -26.9836   19.5230 C   0  0  0  0  0  0  0  0  0112  0  0
  -24.9097  -27.7011   19.5331 C   0  0  0  0  0  0  0  0  0113  0  0
  -23.5715  -29.7899   20.1582 C   0  0  0  0  0  0  0  0  0114  0  0
  -25.3990  -36.3212   24.0232 C   0  0  1  0  0  0  0  0  0115  0  0
  -20.5793  -28.3813   23.1004 C   0  0  2  0  0  0  0  0  0116  0  0
  -20.6548  -26.9392   22.5411 C   0  0  0  0  0  0  0  0  0117  0  0
  -19.5615  -26.6407   21.5143 C   0  0  0  0  0  0  0  0  0118  0  0
  -18.1797  -26.7818   22.1673 C   0  0  0  0  0  0  0  0  0119  0  0
  -19.1385  -28.8769   23.2988 C   0  0  0  0  0  0  0  0  0120  0  0
  -18.9183  -30.1286   23.8878 C   0  0  0  0  0  0  0  0  0121  0  0
  -17.6396  -30.6493   24.0352 C   0  0  0  0  0  0  0  0  0122  0  0
  -25.9153  -34.9582   23.4993 C   0  0  0  0  0  0  0  0  0123  0  0
  -16.5415  -29.9068   23.6254 C   0  0  0  0  0  0  0  0  0124  0  0
  -16.7331  -28.6521   23.0586 C   0  0  0  0  0  0  0  0  0125  0  0
  -26.4583  -31.6439   25.0683 C   0  0  0  0  0  0  0  0  0126  0  0
  -25.3807  -31.3179   26.1374 C   0  0  0  0  0  0  0  0  0127  0  0
  -27.0530  -30.3024   24.5680 C   0  0  0  0  0  0  0  0  0128  0  0
  -27.6014  -32.4281   25.7651 C   0  0  0  0  0  0  0  0  0129  0  0
  -27.5629  -37.2220   24.8621 C   0  0  0  0  0  0  0  0  0130  0  0
  -21.4133  -29.3375   22.3735 N   0  0  0  0  0  0  0  0  0131  0  0
  -26.4706  -37.3372   23.9061 N   0  0  0  0  0  0  0  0  0132  0  0
  -24.6674  -31.0544   22.1178 N   0  0  0  0  0  0  0  0  0133  0  0
  -23.4259  -28.8150   23.2971 O   0  0  0  0  0  0  0  0  0134  0  0
  -28.3948  -26.7345   20.0089 O   0  0  0  0  0  0  0  0  0135  0  0
  -26.5870  -34.9065   22.4671 O   0  0  0  0  0  0  0  0  0136  0  0
  -23.5365  -32.1254   23.7833 O   0  0  0  0  0  0  0  0  0137  0  0
  -30.2327  -19.8437   23.2897 C   0  0  0  0  0  0  0  0  0  0  0  0
  -30.0946  -21.1979   22.9853 C   0  0  0  0  0  0  0  0  0  0  0  0
  -29.5737  -19.2701   21.0371 C   0  0  0  0  0  0  0  0  0  0  0  0
  -29.9723  -18.8798   22.3156 C   0  0  0  0  0  0  0  0  0  0  0  0
  -29.6960  -21.5882   21.7068 C   0  0  0  0  0  0  0  0  0  0  0  0
  -29.4356  -20.6243   20.7327 C   0  0  0  0  0  0  0  0  0  0  0  0
  -29.4408  -24.4871   18.6670 C   0  0  0  0  0  0  0  0  0  0  0  0
  -29.5933  -25.7811   20.8403 C   0  0  0  0  0  0  0  0  0  0  0  0
  -28.9466  -25.7450   17.9566 C   0  0  0  0  0  0  0  0  0  0  0  0
  -29.0984  -27.0357   20.1248 C   0  0  0  0  0  0  0  0  0  0  0  0
  -30.3129  -24.8493   19.8674 C   0  0  1  0  0  0  0  0  0  0  0  0
  -28.2264  -26.6900   18.9174 C   0  0  2  0  0  0  0  0  0  1  0  0
  -31.9464  -23.7599   21.3989 C   0  0  0  0  0  0  0  0  0  0  0  0
  -30.1198  -17.4318   22.6411 C   0  0  0  0  0  0  0  0  0  0  0  0
  -29.5584  -23.0544   21.4201 C   0  0  0  0  0  0  0  0  0  0  0  0
  -31.5258  -16.8582   22.3757 C   0  0  0  0  0  0  0  0  0  0  0  0
  -31.6872  -15.3884   22.7577 C   0  0  0  0  0  0  0  0  0  0  0  0
  -30.7545  -14.5304   22.0614 N   0  0  0  0  0  0  0  0  0  0  0  0
  -30.6876  -23.6015   20.5840 N   0  0  1  0  0  0  0  0  0  0  0  0
  -28.9396  -21.0701   19.1407 Cl  0  0  0  0  0  0  0  0  0  0  0  0
  -31.4485  -12.4701   19.0860 H   0  0  0  0  0  0  0  0  0  0  0  0
  -30.3970  -11.2460   19.6950 H   0  0  0  0  0  0  0  0  0  0  0  0
  -29.6870  -11.8204   17.4226 H   0  0  0  0  0  0  0  0  0  0  0  0
  -29.6375  -13.5326   17.8649 H   0  0  0  0  0  0  0  0  0  0  0  0
  -27.7830  -11.3650   18.7904 H   0  0  0  0  0  0  0  0  0  0  0  0
  -27.4028  -12.7801   17.8021 H   0  0  0  0  0  0  0  0  0  0  0  0
  -27.7353  -14.2503   19.6136 H   0  0  0  0  0  0  0  0  0  0  0  0
  -28.5890  -11.9550   21.3832 H   0  0  0  0  0  0  0  0  0  0  0  0
  -28.5005  -13.6134   21.8562 H   0  0  0  0  0  0  0  0  0  0  0  0
  -25.2399   -9.5495   22.4318 H   0  0  0  0  0  0  0  0  0  0  0  0
  -23.9663   -7.5070   22.7297 H   0  0  0  0  0  0  0  0  0  0  0  0
  -21.1515   -8.8641   19.9162 H   0  0  0  0  0  0  0  0  0  0  0  0
  -22.4016  -10.9115   19.6476 H   0  0  0  0  0  0  0  0  0  0  0  0
  -21.2319   -7.5552   23.9750 H   0  0  0  0  0  0  0  0  0  0  0  0
  -21.1589   -6.0228   25.8556 H   0  0  0  0  0  0  0  0  0  0  0  0
  -22.0396   -2.8212   23.2809 H   0  0  0  0  0  0  0  0  0  0  0  0
  -22.4401  -11.9703   22.4008 H   0  0  0  0  0  0  0  0  0  0  0  0
  -21.1493  -13.0679   22.2082 H   0  0  0  0  0  0  0  0  0  0  0  0
  -24.6538  -15.7807   20.5848 H   0  0  0  0  0  0  0  0  0  0  0  0
  -26.2762  -15.5453   20.1156 H   0  0  0  0  0  0  0  0  0  0  0  0
  -26.6778  -32.4663   23.1464 H   0  0  0  0  0  0  0  0  0  0  0  0
  -25.0747  -34.0282   25.0566 H   0  0  0  0  0  0  0  0  0  0  0  0
  -22.7881  -31.3489   21.4131 H   0  0  0  0  0  0  0  0  0  0  0  0
  -23.3854  -35.9823   23.3648 H   0  0  0  0  0  0  0  0  0  0  0  0
  -24.3696  -36.8624   22.2204 H   0  0  0  0  0  0  0  0  0  0  0  0
  -23.7669  -37.6632   23.6516 H   0  0  0  0  0  0  0  0  0  0  0  0
  -25.9445  -31.6237   20.5691 H   0  0  0  0  0  0  0  0  0  0  0  0
  -26.7436  -31.0079   22.0108 H   0  0  0  0  0  0  0  0  0  0  0  0
  -28.0090  -29.1452   21.2057 H   0  0  0  0  0  0  0  0  0  0  0  0
  -26.1369  -26.0560   19.0719 H   0  0  0  0  0  0  0  0  0  0  0  0
  -24.0652  -27.2961   19.0997 H   0  0  0  0  0  0  0  0  0  0  0  0
  -23.6156  -30.5365   19.3930 H   0  0  0  0  0  0  0  0  0  0  0  0
  -22.7355  -29.1425   19.9945 H   0  0  0  0  0  0  0  0  0  0  0  0
  -25.1353  -36.2335   25.0565 H   0  0  0  0  0  0  0  0  0  0  0  0
  -21.0070  -28.3206   24.0793 H   0  0  0  0  0  0  0  0  0  0  0  0
  -20.5555  -26.2518   23.3550 H   0  0  0  0  0  0  0  0  0  0  0  0
  -21.5974  -26.8362   22.0454 H   0  0  0  0  0  0  0  0  0  0  0  0
  -19.6810  -25.6422   21.1488 H   0  0  0  0  0  0  0  0  0  0  0  0
  -19.6406  -27.3343   20.7034 H   0  0  0  0  0  0  0  0  0  0  0  0
  -17.4282  -26.6888   21.4113 H   0  0  0  0  0  0  0  0  0  0  0  0
  -18.0803  -26.0130   22.9049 H   0  0  0  0  0  0  0  0  0  0  0  0
  -19.7265  -30.6774   24.2204 H   0  0  0  0  0  0  0  0  0  0  0  0
  -17.5064  -31.5856   24.4483 H   0  0  0  0  0  0  0  0  0  0  0  0
  -15.5878  -30.2839   23.7407 H   0  0  0  0  0  0  0  0  0  0  0  0
  -15.9120  -28.0941   22.7766 H   0  0  0  0  0  0  0  0  0  0  0  0
  -24.5787  -30.7757   25.6817 H   0  0  0  0  0  0  0  0  0  0  0  0
  -25.0041  -32.2289   26.5536 H   0  0  0  0  0  0  0  0  0  0  0  0
  -25.8166  -30.7245   26.9138 H   0  0  0  0  0  0  0  0  0  0  0  0
  -26.2892  -29.7335   24.0803 H   0  0  0  0  0  0  0  0  0  0  0  0
  -27.4336  -29.7484   25.4006 H   0  0  0  0  0  0  0  0  0  0  0  0
  -27.8466  -30.4994   23.8779 H   0  0  0  0  0  0  0  0  0  0  0  0
  -27.2251  -33.3632   26.1242 H   0  0  0  0  0  0  0  0  0  0  0  0
  -28.3902  -32.6065   25.0645 H   0  0  0  0  0  0  0  0  0  0  0  0
  -27.9772  -31.8555   26.5872 H   0  0  0  0  0  0  0  0  0  0  0  0
  -28.2744  -38.0016   24.6863 H   0  0  0  0  0  0  0  0  0  0  0  0
  -28.0396  -36.2711   24.7461 H   0  0  0  0  0  0  0  0  0  0  0  0
  -27.1773  -37.3087   25.8564 H   0  0  0  0  0  0  0  0  0  0  0  0
  -20.9627  -29.9365   21.7352 H   0  0  0  0  0  0  0  0  0  0  0  0
  -26.0447  -38.2561   24.0273 H   0  0  0  0  0  0  0  0  0  0  0  0
  -30.5275  -19.5549   24.2356 H   0  0  0  0  0  0  0  0  0  0  0  0
  -30.2873  -21.9110   23.7059 H   0  0  0  0  0  0  0  0  0  0  0  0
  -29.3810  -18.5570   20.3165 H   0  0  0  0  0  0  0  0  0  0  0  0
  -30.0145  -23.8994   17.9812 H   0  0  0  0  0  0  0  0  0  0  0  0
  -28.5932  -23.9335   19.0135 H   0  0  0  0  0  0  0  0  0  0  0  0
  -28.7567  -25.2665   21.2649 H   0  0  0  0  0  0  0  0  0  0  0  0
  -30.2802  -26.0724   21.6073 H   0  0  0  0  0  0  0  0  0  0  0  0
  -28.2702  -25.4605   17.1778 H   0  0  0  0  0  0  0  0  0  0  0  0
  -29.7962  -26.2586   17.5575 H   0  0  0  0  0  0  0  0  0  0  0  0
  -29.9434  -27.6014   19.7919 H   0  0  0  0  0  0  0  0  0  0  0  0
  -28.5062  -27.6013   20.8135 H   0  0  0  0  0  0  0  0  0  0  0  0
  -31.1791  -25.3604   19.5023 H   0  0  0  0  0  0  0  0  0  0  0  0
  -27.4721  -26.9124   18.1919 H   0  0  0  0  0  0  0  0  0  0  0  0
  -32.7264  -24.1489   20.7783 H   0  0  0  0  0  0  0  0  0  0  0  0
  -32.2415  -22.8079   21.7880 H   0  0  0  0  0  0  0  0  0  0  0  0
  -31.7645  -24.4353   22.2086 H   0  0  0  0  0  0  0  0  0  0  0  0
  -29.4175  -16.8828   22.0493 H   0  0  0  0  0  0  0  0  0  0  0  0
  -29.9451  -17.3363   23.6924 H   0  0  0  0  0  0  0  0  0  0  0  0
  -29.5363  -23.5828   22.3503 H   0  0  0  0  0  0  0  0  0  0  0  0
  -28.6548  -23.1873   20.8626 H   0  0  0  0  0  0  0  0  0  0  0  0
  -32.2330  -17.4305   22.9390 H   0  0  0  0  0  0  0  0  0  0  0  0
  -31.6877  -16.9200   21.3198 H   0  0  0  0  0  0  0  0  0  0  0  0
  -31.5260  -15.2877   23.8107 H   0  0  0  0  0  0  0  0  0  0  0  0
  -32.6758  -15.0869   22.4809 H   0  0  0  0  0  0  0  0  0  0  0  0
  -30.0813  -14.0426   22.5887 H   0  0  0  0  0  0  0  0  0  0  0  0
  -30.8844  -22.9128   19.8578 H   0  0  0  0  0  0  0  0  0  0  0  0
  1 25  1  0
  1 30  2  0
  1 88  1  0
  2  3  1  0
  2 25  1  0
  2 91  1  0
  2 92  1  0
  3  4  1  0
  3 93  1  0
  3 94  1  0
  4  5  1  0
  4 95  1  0
  4 96  1  0
  5  6  1  0
  5 26  1  0
  5 97  1  6
  6 25  1  0
  6 98  1  0
  6 99  1  0
  7  8  2  0
  7 26  1  0
  7 29  1  0
  8  9  1  0
  8 22  1  0
  9 10  1  0
  9 27  2  0
 10 11  2  0
 10 15  1  0
 11 12  1  0
 11100  1  0
 12 13  2  0
 12101  1  0
 13 14  1  0
 13 31  1  0
 14 15  2  0
 14102  1  0
 15103  1  0
 16 17  2  0
 16 21  1  0
 16 31  1  0
 17 18  1  0
 17104  1  0
 18 19  2  0
 18105  1  0
 19 20  1  0
 19 24  1  0
 20 21  2  0
 20106  1  0
 21 23  1  0
 22 28  1  0
 22 32  2  0
 26 27  1  0
 28107  1  0
 28108  1  0
 29109  1  0
 29110  1  0
 33 34  1  0
 33 66  1  0
 33 70  2  0
 34 36  1  0
 34 59  1  0
 34111  1  6
 35 44  2  0
 35 45  1  0
 35 68  1  0
 36 56  1  0
 36112  1  0
 37 39  1  0
 37 47  1  0
 37 66  1  0
 37113  1  6
 38 43  2  0
 38 46  1  0
 38 47  1  0
 39 64  1  0
 39 67  2  0
 40 52  1  0
 40 53  2  0
 40 58  1  0
 41114  1  0
 41115  1  0
 41116  1  0
 42 43  1  0
 42 66  1  0
 42117  1  0
 42118  1  0
 43 44  1  0
 44119  1  0
 45 46  2  0
 45120  1  0
 46121  1  0
 47122  1  0
 47123  1  0
 48 41  1  0
 48 56  1  0
 48 65  1  0
 48124  1  1
 49 50  1  0
 49 53  1  0
 49 64  1  0
 49125  1  1
 50 51  1  0
 50126  1  0
 50127  1  0
 51 52  1  0
 51128  1  0
 51129  1  0
 52130  1  0
 52131  1  0
 53 54  1  0
 54 55  2  0
 54132  1  0
 55 57  1  0
 55133  1  0
 56 69  2  0
 57 58  2  0
 57134  1  0
 58135  1  0
 59 60  1  0
 59 61  1  0
 59 62  1  0
 60136  1  0
 60137  1  0
 60138  1  0
 61139  1  0
 61140  1  0
 61141  1  0
 62142  1  0
 62143  1  0
 62144  1  0
 63 65  1  0
 63145  1  0
 63146  1  0
 63147  1  0
 64148  1  0
 65149  1  0
 71 72  2  0
 71 74  1  0
 71150  1  0
 72 75  1  0
 72151  1  0
 73 74  2  0
 73 76  1  0
 73152  1  0
 74 84  1  0
 75 76  2  0
 75 85  1  0
 76 90  1  0
 77 79  1  0
 77153  1  0
 77154  1  0
 78 80  1  0
 78 81  1  0
 78155  1  0
 78156  1  0
 79 82  1  0
 79157  1  0
 79158  1  0
 80 82  1  0
 80159  1  0
 80160  1  0
 81 77  1  0
 81 89  1  0
 81161  1  6
 82 68  1  0
 82162  1  1
 83163  1  0
 83164  1  0
 83165  1  0
 84 86  1  0
 84166  1  0
 84167  1  0
 85 89  1  0
 85168  1  0
 85169  1  0
 86 87  1  0
 86170  1  0
 86171  1  0
 87 88  1  0
 87172  1  0
 87173  1  0
 88174  1  0
 89 83  1  0
 89175  1  6
M  CHG  1  89   1
M  ISO  4   1 100  68 101  82 101  88 100
M  END
$$$$
58
     RDKit          3D

153161  0  0  0  0  0  0  0  0999 V2000
  -30.7652  -14.3608   20.6636 C   0  0  0  0  0  0  0  0  0100  0  0
  -30.4392  -12.2669   19.3775 C   0  0  0  0  0  0  0  0  0101  0  0
  -29.4791  -12.5281   18.1977 C   0  0  0  0  0  0  0  0  0102  0  0
  -27.9985  -12.3963   18.6038 C   0  0  0  0  0  0  0  0  0103  0  0
  -27.6639  -13.2170   19.8820 C   0  0  2  0  0  0  0  0  0104  0  0
  -28.6795  -12.9602   21.0279 C   0  0  0  0  0  0  0  0  0105  0  0
  -25.2633  -13.8245   20.5754 C   0  0  0  0  0  0  0  0  0106  0  0
  -24.1645  -13.0409   20.9408 C   0  0  0  0  0  0  0  0  0107  0  0
  -24.6400  -11.7009   20.8697 C   0  0  0  0  0  0  0  0  0108  0  0
  -23.9005  -10.4085   21.0420 C   0  0  0  0  0  0  0  0  0109  0  0
  -24.3588   -9.4123   21.9123 C   0  0  0  0  0  0  0  0  0110  0  0
  -23.6296   -8.2350   22.0803 C   0  0  0  0  0  0  0  0  0111  0  0
  -22.4385   -8.0419   21.3657 C   0  0  0  0  0  0  0  0  0112  0  0
  -22.0103   -9.0167   20.4678 C   0  0  0  0  0  0  0  0  0113  0  0
  -22.7317  -10.1925   20.3102 C   0  0  0  0  0  0  0  0  0114  0  0
  -21.6857   -6.0709   22.5391 C   0  0  0  0  0  0  0  0  0115  0  0
  -21.4064   -6.5490   23.8264 C   0  0  0  0  0  0  0  0  0116  0  0
  -21.3635   -5.6677   24.9085 C   0  0  0  0  0  0  0  0  0117  0  0
  -21.5973   -4.3067   24.7088 C   0  0  0  0  0  0  0  0  0118  0  0
  -21.8700   -3.8284   23.4282 C   0  0  0  0  0  0  0  0  0119  0  0
  -21.9144   -4.7056   22.3460 C   0  0  0  0  0  0  0  0  0120  0  0
  -22.8194  -13.5263   21.1763 C   0  0  0  0  0  0  0  0  0121  0  0
  -22.1559   -4.2206   21.1063 F   0  0  0  0  0  0  0  0  0122  0  0
  -21.5628   -3.4510   25.7555 F   0  0  0  0  0  0  0  0  0123  0  0
  -30.0261  -13.1803   20.4553 N   0  0  0  0  0  0  0  0  0124  0  0
  -26.2911  -12.9356   20.3443 N   0  0  0  0  0  0  0  0  0125  0  0
  -25.9236  -11.6675   20.5847 N   0  0  0  0  0  0  0  0  0126  0  0
  -22.0708  -12.7905   22.0005 N   0  0  0  0  0  0  0  0  0127  0  0
  -25.4117  -15.1773   20.4097 N   0  0  0  0  0  0  0  0  0128  0  0
  -31.7916  -14.6724   20.0536 O   0  0  0  0  0  0  0  0  0129  0  0
  -21.6670   -6.9022   21.4423 O   0  0  0  0  0  0  0  0  0130  0  0
  -22.3946  -14.5564   20.6568 O   0  0  0  0  0  0  0  0  0131  0  0
  -24.6048  -31.8614   23.2223 C   0  0  0  0  0  0  0  0  0100  0  0
  -25.8822  -32.4841   23.8616 C   0  0  1  0  0  0  0  0  0101  0  0
  -27.2536  -27.5042   20.1156 C   0  0  0  0  0  0  0  0  0102  0  0
  -25.5726  -33.8762   24.2210 N   0  0  0  0  0  0  0  0  0103  0  0
  -23.4066  -30.4859   21.5461 C   0  0  2  0  0  0  0  0  0104  0  0
  -24.8467  -28.9636   20.1247 C   0  0  0  0  0  0  0  0  0105  0  0
  -22.7412  -29.4652   22.5052 C   0  0  0  0  0  0  0  0  0106  0  0
  -18.0167  -28.1302   22.8626 C   0  0  0  0  0  0  0  0  0107  0  0
  -24.1342  -36.7390   23.2568 C   0  0  0  0  0  0  0  0  0108  0  0
  -25.9141  -30.8882   21.3456 C   0  0  0  0  0  0  0  0  0109  0  0
  -25.9930  -29.5029   20.7208 C   0  0  0  0  0  0  0  0  0110  0  0
  -27.1758  -28.7612   20.7331 C   0  0  0  0  0  0  0  0  0111  0  0
  -26.1032  -26.9836   19.5230 C   0  0  0  0  0  0  0  0  0112  0  0
  -24.9097  -27.7011   19.5331 C   0  0  0  0  0  0  0  0  0113  0  0
  -23.5715  -29.7899   20.1582 C   0  0  0  0  0  0  0  0  0114  0  0
  -25.3990  -36.3212   24.0232 C   0  0  1  0  0  0  0  0  0115  0  0
  -20.5793  -28.3813   23.1004 C   0  0  2  0  0  0  0  0  0116  0  0
  -20.6548  -26.9392   22.5411 C   0  0  0  0  0  0  0  0  0117  0  0
  -19.5615  -26.6407   21.5143 C   0  0  0  0  0  0  0  0  0118  0  0
  -18.1797  -26.7818   22.1673 C   0  0  0  0  0  0  0  0  0119  0  0
  -19.1385  -28.8769   23.2988 C   0  0  0  0  0  0  0  0  0120  0  0
  -18.9183  -30.1286   23.8878 C   0  0  0  0  0  0  0  0  0121  0  0
  -17.6396  -30.6493   24.0352 C   0  0  0  0  0  0  0  0  0122  0  0
  -25.9153  -34.9582   23.4993 C   0  0  0  0  0  0  0  0  0123  0  0
  -16.5415  -29.9068   23.6254 C   0  0  0  0  0  0  0  0  0124  0  0
  -16.7331  -28.6521   23.0586 C   0  0  0  0  0  0  0  0  0125  0  0
  -26.4583  -31.6439   25.0683 C   0  0  0  0  0  0  0  0  0126  0  0
  -25.3807  -31.3179   26.1374 C   0  0  0  0  0  0  0  0  0127  0  0
  -27.0530  -30.3024   24.5680 C   0  0  0  0  0  0  0  0  0128  0  0
  -27.6014  -32.4281   25.7651 C   0  0  0  0  0  0  0  0  0129  0  0
  -27.5629  -37.2220   24.8621 C   0  0  0  0  0  0  0  0  0130  0  0
  -21.4133  -29.3375   22.3735 N   0  0  0  0  0  0  0  0  0131  0  0
  -26.4706  -37.3372   23.9061 N   0  0  0  0  0  0  0  0  0132  0  0
  -24.6674  -31.0544   22.1178 N   0  0  0  0  0  0  0  0  0133  0  0
  -23.4259  -28.8150   23.2971 O   0  0  0  0  0  0  0  0  0134  0  0
  -28.3948  -26.7345   20.0089 O   0  0  0  0  0  0  0  0  0135  0  0
  -26.5870  -34.9065   22.4671 O   0  0  0  0  0  0  0  0  0136  0  0
  -23.5365  -32.1254   23.7833 O   0  0  0  0  0  0  0  0  0137  0  0
  -15.7072  -23.6647   18.8209 C   0  0  0  0  0  0  0  0  0  0  0  0
  -18.0262  -22.5779   17.7146 C   0  0  0  0  0  0  0  0  0  0  0  0
  -15.7812  -22.2962   18.5618 C   0  0  0  0  0  0  0  0  0  0  0  0
  -16.7927  -24.4899   18.5268 C   0  0  0  0  0  0  0  0  0  0  0  0
  -16.9406  -21.7527   18.0087 C   0  0  0  0  0  0  0  0  0  0  0  0
  -17.9522  -23.9465   17.9737 C   0  0  0  0  0  0  0  0  0  0  0  0
  -14.6062  -21.4317   18.8824 C   0  0  0  0  0  0  0  0  0  0  0  0
  -17.0426  -20.2752   17.7171 C   0  0  0  0  0  0  0  0  0  0  0  0
  -16.6735  -25.9508   18.8193 C   0  0  0  0  0  0  0  0  0  0  0  0
  -18.2211  -19.6231   18.4319 C   0  0  0  0  0  0  0  0  0  1  0  0
  -17.6821  -26.4064   19.7498 N   0  0  0  0  0  0  0  0  0  0  0  0
  -19.3151  -24.9362   17.5965 Cl  0  0  0  0  0  0  0  0  0  0  0  0
  -31.4485  -12.4701   19.0860 H   0  0  0  0  0  0  0  0  0  0  0  0
  -30.3970  -11.2460   19.6950 H   0  0  0  0  0  0  0  0  0  0  0  0
  -29.6870  -11.8204   17.4226 H   0  0  0  0  0  0  0  0  0  0  0  0
  -29.6375  -13.5326   17.8649 H   0  0  0  0  0  0  0  0  0  0  0  0
  -27.7830  -11.3650   18.7904 H   0  0  0  0  0  0  0  0  0  0  0  0
  -27.4028  -12.7801   17.8021 H   0  0  0  0  0  0  0  0  0  0  0  0
  -27.7353  -14.2503   19.6136 H   0  0  0  0  0  0  0  0  0  0  0  0
  -28.5890  -11.9550   21.3832 H   0  0  0  0  0  0  0  0  0  0  0  0
  -28.5005  -13.6134   21.8562 H   0  0  0  0  0  0  0  0  0  0  0  0
  -25.2399   -9.5495   22.4318 H   0  0  0  0  0  0  0  0  0  0  0  0
  -23.9663   -7.5070   22.7297 H   0  0  0  0  0  0  0  0  0  0  0  0
  -21.1515   -8.8641   19.9162 H   0  0  0  0  0  0  0  0  0  0  0  0
  -22.4016  -10.9115   19.6476 H   0  0  0  0  0  0  0  0  0  0  0  0
  -21.2319   -7.5552   23.9750 H   0  0  0  0  0  0  0  0  0  0  0  0
  -21.1589   -6.0228   25.8556 H   0  0  0  0  0  0  0  0  0  0  0  0
  -22.0396   -2.8212   23.2809 H   0  0  0  0  0  0  0  0  0  0  0  0
  -22.4401  -11.9703   22.4008 H   0  0  0  0  0  0  0  0  0  0  0  0
  -21.1493  -13.0679   22.2082 H   0  0  0  0  0  0  0  0  0  0  0  0
  -24.6538  -15.7807   20.5848 H   0  0  0  0  0  0  0  0  0  0  0  0
  -26.2762  -15.5453   20.1156 H   0  0  0  0  0  0  0  0  0  0  0  0
  -26.6778  -32.4663   23.1464 H   0  0  0  0  0  0  0  0  0  0  0  0
  -25.0747  -34.0282   25.0566 H   0  0  0  0  0  0  0  0  0  0  0  0
  -22.7881  -31.3489   21.4131 H   0  0  0  0  0  0  0  0  0  0  0  0
  -23.3854  -35.9823   23.3648 H   0  0  0  0  0  0  0  0  0  0  0  0
  -24.3696  -36.8624   22.2204 H   0  0  0  0  0  0  0  0  0  0  0  0
  -23.7669  -37.6632   23.6516 H   0  0  0  0  0  0  0  0  0  0  0  0
  -25.9445  -31.6237   20.5691 H   0  0  0  0  0  0  0  0  0  0  0  0
  -26.7436  -31.0079   22.0108 H   0  0  0  0  0  0  0  0  0  0  0  0
  -28.0090  -29.1452   21.2057 H   0  0  0  0  0  0  0  0  0  0  0  0
  -26.1369  -26.0560   19.0719 H   0  0  0  0  0  0  0  0  0  0  0  0
  -24.0652  -27.2961   19.0997 H   0  0  0  0  0  0  0  0  0  0  0  0
  -23.6156  -30.5365   19.3930 H   0  0  0  0  0  0  0  0  0  0  0  0
  -22.7355  -29.1425   19.9945 H   0  0  0  0  0  0  0  0  0  0  0  0
  -25.1353  -36.2335   25.0565 H   0  0  0  0  0  0  0  0  0  0  0  0
  -21.0070  -28.3206   24.0793 H   0  0  0  0  0  0  0  0  0  0  0  0
  -20.5555  -26.2518   23.3550 H   0  0  0  0  0  0  0  0  0  0  0  0
  -21.5974  -26.8362   22.0454 H   0  0  0  0  0  0  0  0  0  0  0  0
  -19.6810  -25.6422   21.1488 H   0  0  0  0  0  0  0  0  0  0  0  0
  -19.6406  -27.3343   20.7034 H   0  0  0  0  0  0  0  0  0  0  0  0
  -17.4282  -26.6888   21.4113 H   0  0  0  0  0  0  0  0  0  0  0  0
  -18.0803  -26.0130   22.9049 H   0  0  0  0  0  0  0  0  0  0  0  0
  -19.7265  -30.6774   24.2204 H   0  0  0  0  0  0  0  0  0  0  0  0
  -17.5064  -31.5856   24.4483 H   0  0  0  0  0  0  0  0  0  0  0  0
  -15.5878  -30.2839   23.7407 H   0  0  0  0  0  0  0  0  0  0  0  0
  -15.9120  -28.0941   22.7766 H   0  0  0  0  0  0  0  0  0  0  0  0
  -24.5787  -30.7757   25.6817 H   0  0  0  0  0  0  0  0  0  0  0  0
  -25.0041  -32.2289   26.5536 H   0  0  0  0  0  0  0  0  0  0  0  0
  -25.8166  -30.7245   26.9138 H   0  0  0  0  0  0  0  0  0  0  0  0
  -26.2892  -29.7335   24.0803 H   0  0  0  0  0  0  0  0  0  0  0  0
  -27.4336  -29.7484   25.4006 H   0  0  0  0  0  0  0  0  0  0  0  0
  -27.8466  -30.4994   23.8779 H   0  0  0  0  0  0  0  0  0  0  0  0
  -27.2251  -33.3632   26.1242 H   0  0  0  0  0  0  0  0  0  0  0  0
  -28.3902  -32.6065   25.0645 H   0  0  0  0  0  0  0  0  0  0  0  0
  -27.9772  -31.8555   26.5872 H   0  0  0  0  0  0  0  0  0  0  0  0
  -28.2744  -38.0016   24.6863 H   0  0  0  0  0  0  0  0  0  0  0  0
  -28.0396  -36.2711   24.7461 H   0  0  0  0  0  0  0  0  0  0  0  0
  -27.1773  -37.3087   25.8564 H   0  0  0  0  0  0  0  0  0  0  0  0
  -20.9627  -29.9365   21.7352 H   0  0  0  0  0  0  0  0  0  0  0  0
  -26.0447  -38.2561   24.0273 H   0  0  0  0  0  0  0  0  0  0  0  0
  -14.8494  -24.0667   19.2302 H   0  0  0  0  0  0  0  0  0  0  0  0
  -18.8840  -22.1758   17.3053 H   0  0  0  0  0  0  0  0  0  0  0  0
  -13.8233  -22.0328   19.2956 H   0  0  0  0  0  0  0  0  0  0  0  0
  -14.8956  -20.6855   19.5926 H   0  0  0  0  0  0  0  0  0  0  0  0
  -14.2579  -20.9574   17.9887 H   0  0  0  0  0  0  0  0  0  0  0  0
  -17.1627  -20.1403   16.6625 H   0  0  0  0  0  0  0  0  0  0  0  0
  -16.1469  -19.8095   18.0717 H   0  0  0  0  0  0  0  0  0  0  0  0
  -15.7074  -26.1405   19.2384 H   0  0  0  0  0  0  0  0  0  0  0  0
  -16.8109  -26.4817   17.9005 H   0  0  0  0  0  0  0  0  0  0  0  0
  -18.5099  -18.7627   17.8652 H   0  0  0  0  0  0  0  0  0  0  0  0
  -17.8701  -19.4060   19.4191 H   0  0  0  0  0  0  0  0  0  0  0  0
  -17.6504  -27.2512   20.2544 H   0  0  0  0  0  0  0  0  0  0  0  0
  1 25  1  0
  1 30  2  0
  1 81  1  0
  2  3  1  0
  2 25  1  0
  2 83  1  0
  2 84  1  0
  3  4  1  0
  3 85  1  0
  3 86  1  0
  4  5  1  0
  4 87  1  0
  4 88  1  0
  5  6  1  0
  5 26  1  0
  5 89  1  6
  6 25  1  0
  6 90  1  0
  6 91  1  0
  7  8  2  0
  7 26  1  0
  7 29  1  0
  8  9  1  0
  8 22  1  0
  9 10  1  0
  9 27  2  0
 10 11  2  0
 10 15  1  0
 11 12  1  0
 11 92  1  0
 12 13  2  0
 12 93  1  0
 13 14  1  0
 13 31  1  0
 14 15  2  0
 14 94  1  0
 15 95  1  0
 16 17  2  0
 16 21  1  0
 16 31  1  0
 17 18  1  0
 17 96  1  0
 18 19  2  0
 18 97  1  0
 19 20  1  0
 19 24  1  0
 20 21  2  0
 20 98  1  0
 21 23  1  0
 22 28  1  0
 22 32  2  0
 26 27  1  0
 28 99  1  0
 28100  1  0
 29101  1  0
 29102  1  0
 33 34  1  0
 33 66  1  0
 33 70  2  0
 34 36  1  0
 34 59  1  0
 34103  1  6
 35 44  2  0
 35 45  1  0
 35 68  1  0
 36 56  1  0
 36104  1  0
 37 39  1  0
 37 47  1  0
 37 66  1  0
 37105  1  6
 38 43  2  0
 38 46  1  0
 38 47  1  0
 39 64  1  0
 39 67  2  0
 40 52  1  0
 40 53  2  0
 40 58  1  0
 41106  1  0
 41107  1  0
 41108  1  0
 42 43  1  0
 42 66  1  0
 42109  1  0
 42110  1  0
 43 44  1  0
 44111  1  0
 45 46  2  0
 45112  1  0
 46113  1  0
 47114  1  0
 47115  1  0
 48 41  1  0
 48 56  1  0
 48 65  1  0
 48116  1  1
 49 50  1  0
 49 53  1  0
 49 64  1  0
 49117  1  1
 50 51  1  0
 50118  1  0
 50119  1  0
 51 52  1  0
 51120  1  0
 51121  1  0
 52122  1  0
 52123  1  0
 53 54  1  0
 54 55  2  0
 54124  1  0
 55 57  1  0
 55125  1  0
 56 69  2  0
 57 58  2  0
 57126  1  0
 58127  1  0
 59 60  1  0
 59 61  1  0
 59 62  1  0
 60128  1  0
 60129  1  0
 60130  1  0
 61131  1  0
 61132  1  0
 61133  1  0
 62134  1  0
 62135  1  0
 62136  1  0
 63 65  1  0
 63137  1  0
 63138  1  0
 63139  1  0
 64140  1  0
 65141  1  0
 68 80  1  0
 71 73  2  0
 71 74  1  0
 71142  1  0
 72 75  2  0
 72 76  1  0
 72143  1  0
 73 75  1  0
 73 77  1  0
 74 76  2  0
 74 79  1  0
 75 78  1  0
 76 82  1  0
 77144  1  0
 77145  1  0
 77146  1  0
 78 80  1  0
 78147  1  0
 78148  1  0
 79 81  1  0
 79149  1  0
 79150  1  0
 80151  1  0
 80152  1  0
 81153  1  0
M  ISO  4   1 100  68 101  80 101  81 100
M  END
$$$$
59
     RDKit          3D

153161  0  0  0  0  0  0  0  0999 V2000
  -30.7652  -14.3608   20.6636 C   0  0  0  0  0  0  0  0  0100  0  0
  -30.4392  -12.2669   19.3775 C   0  0  0  0  0  0  0  0  0101  0  0
  -29.4791  -12.5281   18.1977 C   0  0  0  0  0  0  0  0  0102  0  0
  -27.9985  -12.3963   18.6038 C   0  0  0  0  0  0  0  0  0103  0  0
  -27.6639  -13.2170   19.8820 C   0  0  2  0  0  0  0  0  0104  0  0
  -28.6795  -12.9602   21.0279 C   0  0  0  0  0  0  0  0  0105  0  0
  -25.2633  -13.8245   20.5754 C   0  0  0  0  0  0  0  0  0106  0  0
  -24.1645  -13.0409   20.9408 C   0  0  0  0  0  0  0  0  0107  0  0
  -24.6400  -11.7009   20.8697 C   0  0  0  0  0  0  0  0  0108  0  0
  -23.9005  -10.4085   21.0420 C   0  0  0  0  0  0  0  0  0109  0  0
  -24.3588   -9.4123   21.9123 C   0  0  0  0  0  0  0  0  0110  0  0
  -23.6296   -8.2350   22.0803 C   0  0  0  0  0  0  0  0  0111  0  0
  -22.4385   -8.0419   21.3657 C   0  0  0  0  0  0  0  0  0112  0  0
  -22.0103   -9.0167   20.4678 C   0  0  0  0  0  0  0  0  0113  0  0
  -22.7317  -10.1925   20.3102 C   0  0  0  0  0  0  0  0  0114  0  0
  -21.6857   -6.0709   22.5391 C   0  0  0  0  0  0  0  0  0115  0  0
  -21.4064   -6.5490   23.8264 C   0  0  0  0  0  0  0  0  0116  0  0
  -21.3635   -5.6677   24.9085 C   0  0  0  0  0  0  0  0  0117  0  0
  -21.5973   -4.3067   24.7088 C   0  0  0  0  0  0  0  0  0118  0  0
  -21.8700   -3.8284   23.4282 C   0  0  0  0  0  0  0  0  0119  0  0
  -21.9144   -4.7056   22.3460 C   0  0  0  0  0  0  0  0  0120  0  0
  -22.8194  -13.5263   21.1763 C   0  0  0  0  0  0  0  0  0121  0  0
  -22.1559   -4.2206   21.1063 F   0  0  0  0  0  0  0  0  0122  0  0
  -21.5628   -3.4510   25.7555 F   0  0  0  0  0  0  0  0  0123  0  0
  -30.0261  -13.1803   20.4553 N   0  0  0  0  0  0  0  0  0124  0  0
  -26.2911  -12.9356   20.3443 N   0  0  0  0  0  0  0  0  0125  0  0
  -25.9236  -11.6675   20.5847 N   0  0  0  0  0  0  0  0  0126  0  0
  -22.0708  -12.7905   22.0005 N   0  0  0  0  0  0  0  0  0127  0  0
  -25.4117  -15.1773   20.4097 N   0  0  0  0  0  0  0  0  0128  0  0
  -31.7916  -14.6724   20.0536 O   0  0  0  0  0  0  0  0  0129  0  0
  -21.6670   -6.9022   21.4423 O   0  0  0  0  0  0  0  0  0130  0  0
  -22.3946  -14.5564   20.6568 O   0  0  0  0  0  0  0  0  0131  0  0
  -24.6048  -31.8614   23.2223 C   0  0  0  0  0  0  0  0  0100  0  0
  -25.8822  -32.4841   23.8616 C   0  0  1  0  0  0  0  0  0101  0  0
  -27.2536  -27.5042   20.1156 C   0  0  0  0  0  0  0  0  0102  0  0
  -25.5726  -33.8762   24.2210 N   0  0  0  0  0  0  0  0  0103  0  0
  -23.4066  -30.4859   21.5461 C   0  0  2  0  0  0  0  0  0104  0  0
  -24.8467  -28.9636   20.1247 C   0  0  0  0  0  0  0  0  0105  0  0
  -22.7412  -29.4652   22.5052 C   0  0  0  0  0  0  0  0  0106  0  0
  -18.0167  -28.1302   22.8626 C   0  0  0  0  0  0  0  0  0107  0  0
  -24.1342  -36.7390   23.2568 C   0  0  0  0  0  0  0  0  0108  0  0
  -25.9141  -30.8882   21.3456 C   0  0  0  0  0  0  0  0  0109  0  0
  -25.9930  -29.5029   20.7208 C   0  0  0  0  0  0  0  0  0110  0  0
  -27.1758  -28.7612   20.7331 C   0  0  0  0  0  0  0  0  0111  0  0
  -26.1032  -26.9836   19.5230 C   0  0  0  0  0  0  0  0  0112  0  0
  -24.9097  -27.7011   19.5331 C   0  0  0  0  0  0  0  0  0113  0  0
  -23.5715  -29.7899   20.1582 C   0  0  0  0  0  0  0  0  0114  0  0
  -25.3990  -36.3212   24.0232 C   0  0  1  0  0  0  0  0  0115  0  0
  -20.5793  -28.3813   23.1004 C   0  0  2  0  0  0  0  0  0116  0  0
  -20.6548  -26.9392   22.5411 C   0  0  0  0  0  0  0  0  0117  0  0
  -19.5615  -26.6407   21.5143 C   0  0  0  0  0  0  0  0  0118  0  0
  -18.1797  -26.7818   22.1673 C   0  0  0  0  0  0  0  0  0119  0  0
  -19.1385  -28.8769   23.2988 C   0  0  0  0  0  0  0  0  0120  0  0
  -18.9183  -30.1286   23.8878 C   0  0  0  0  0  0  0  0  0121  0  0
  -17.6396  -30.6493   24.0352 C   0  0  0  0  0  0  0  0  0122  0  0
  -25.9153  -34.9582   23.4993 C   0  0  0  0  0  0  0  0  0123  0  0
  -16.5415  -29.9068   23.6254 C   0  0  0  0  0  0  0  0  0124  0  0
  -16.7331  -28.6521   23.0586 C   0  0  0  0  0  0  0  0  0125  0  0
  -26.4583  -31.6439   25.0683 C   0  0  0  0  0  0  0  0  0126  0  0
  -25.3807  -31.3179   26.1374 C   0  0  0  0  0  0  0  0  0127  0  0
  -27.0530  -30.3024   24.5680 C   0  0  0  0  0  0  0  0  0128  0  0
  -27.6014  -32.4281   25.7651 C   0  0  0  0  0  0  0  0  0129  0  0
  -27.5629  -37.2220   24.8621 C   0  0  0  0  0  0  0  0  0130  0  0
  -21.4133  -29.3375   22.3735 N   0  0  0  0  0  0  0  0  0131  0  0
  -26.4706  -37.3372   23.9061 N   0  0  0  0  0  0  0  0  0132  0  0
  -24.6674  -31.0544   22.1178 N   0  0  0  0  0  0  0  0  0133  0  0
  -23.4259  -28.8150   23.2971 O   0  0  0  0  0  0  0  0  0134  0  0
  -28.3948  -26.7345   20.0089 O   0  0  0  0  0  0  0  0  0135  0  0
  -26.5870  -34.9065   22.4671 O   0  0  0  0  0  0  0  0  0136  0  0
  -23.5365  -32.1254   23.7833 O   0  0  0  0  0  0  0  0  0137  0  0
  -33.6346  -24.1593   19.1256 C   0  0  0  0  0  0  0  0  0  0  0  0
  -32.4834  -24.6172   18.4847 C   0  0  0  0  0  0  0  0  0  0  0  0
  -32.9860  -21.8788   18.6612 C   0  0  0  0  0  0  0  0  0  0  0  0
  -31.8349  -22.3367   18.0203 C   0  0  0  0  0  0  0  0  0  0  0  0
  -33.8859  -22.7901   19.2139 C   0  0  0  0  0  0  0  0  0  0  0  0
  -31.5836  -23.7059   17.9321 C   0  0  0  0  0  0  0  0  0  0  0  0
  -33.2459  -20.4065   18.7483 C   0  0  0  0  0  0  0  0  0  0  0  0
  -30.8715  -21.3369   17.4280 C   0  0  0  0  0  0  0  0  0  0  0  0
  -32.2557  -26.0933   18.4137 C   0  0  0  0  0  0  0  0  0  0  0  0
  -29.6380  -21.1330   18.3009 C   0  0  0  0  0  0  0  0  0  1  0  0
  -31.2429  -26.5354   19.3462 N   0  0  0  0  0  0  0  0  0  0  0  0
  -35.3234  -22.2648   20.0135 Cl  0  0  0  0  0  0  0  0  0  0  0  0
  -30.1544  -24.2790   17.1377 Cl  0  0  0  0  0  0  0  0  0  0  0  0
  -31.4485  -12.4701   19.0860 H   0  0  0  0  0  0  0  0  0  0  0  0
  -30.3970  -11.2460   19.6950 H   0  0  0  0  0  0  0  0  0  0  0  0
  -29.6870  -11.8204   17.4226 H   0  0  0  0  0  0  0  0  0  0  0  0
  -29.6375  -13.5326   17.8649 H   0  0  0  0  0  0  0  0  0  0  0  0
  -27.7830  -11.3650   18.7904 H   0  0  0  0  0  0  0  0  0  0  0  0
  -27.4028  -12.7801   17.8021 H   0  0  0  0  0  0  0  0  0  0  0  0
  -27.7353  -14.2503   19.6136 H   0  0  0  0  0  0  0  0  0  0  0  0
  -28.5890  -11.9550   21.3832 H   0  0  0  0  0  0  0  0  0  0  0  0
  -28.5005  -13.6134   21.8562 H   0  0  0  0  0  0  0  0  0  0  0  0
  -25.2399   -9.5495   22.4318 H   0  0  0  0  0  0  0  0  0  0  0  0
  -23.9663   -7.5070   22.7297 H   0  0  0  0  0  0  0  0  0  0  0  0
  -21.1515   -8.8641   19.9162 H   0  0  0  0  0  0  0  0  0  0  0  0
  -22.4016  -10.9115   19.6476 H   0  0  0  0  0  0  0  0  0  0  0  0
  -21.2319   -7.5552   23.9750 H   0  0  0  0  0  0  0  0  0  0  0  0
  -21.1589   -6.0228   25.8556 H   0  0  0  0  0  0  0  0  0  0  0  0
  -22.0396   -2.8212   23.2809 H   0  0  0  0  0  0  0  0  0  0  0  0
  -22.4401  -11.9703   22.4008 H   0  0  0  0  0  0  0  0  0  0  0  0
  -21.1493  -13.0679   22.2082 H   0  0  0  0  0  0  0  0  0  0  0  0
  -24.6538  -15.7807   20.5848 H   0  0  0  0  0  0  0  0  0  0  0  0
  -26.2762  -15.5453   20.1156 H   0  0  0  0  0  0  0  0  0  0  0  0
  -26.6778  -32.4663   23.1464 H   0  0  0  0  0  0  0  0  0  0  0  0
  -25.0747  -34.0282   25.0566 H   0  0  0  0  0  0  0  0  0  0  0  0
  -22.7881  -31.3489   21.4131 H   0  0  0  0  0  0  0  0  0  0  0  0
  -23.3854  -35.9823   23.3648 H   0  0  0  0  0  0  0  0  0  0  0  0
  -24.3696  -36.8624   22.2204 H   0  0  0  0  0  0  0  0  0  0  0  0
  -23.7669  -37.6632   23.6516 H   0  0  0  0  0  0  0  0  0  0  0  0
  -25.9445  -31.6237   20.5691 H   0  0  0  0  0  0  0  0  0  0  0  0
  -26.7436  -31.0079   22.0108 H   0  0  0  0  0  0  0  0  0  0  0  0
  -28.0090  -29.1452   21.2057 H   0  0  0  0  0  0  0  0  0  0  0  0
  -26.1369  -26.0560   19.0719 H   0  0  0  0  0  0  0  0  0  0  0  0
  -24.0652  -27.2961   19.0997 H   0  0  0  0  0  0  0  0  0  0  0  0
  -23.6156  -30.5365   19.3930 H   0  0  0  0  0  0  0  0  0  0  0  0
  -22.7355  -29.1425   19.9945 H   0  0  0  0  0  0  0  0  0  0  0  0
  -25.1353  -36.2335   25.0565 H   0  0  0  0  0  0  0  0  0  0  0  0
  -21.0070  -28.3206   24.0793 H   0  0  0  0  0  0  0  0  0  0  0  0
  -20.5555  -26.2518   23.3550 H   0  0  0  0  0  0  0  0  0  0  0  0
  -21.5974  -26.8362   22.0454 H   0  0  0  0  0  0  0  0  0  0  0  0
  -19.6810  -25.6422   21.1488 H   0  0  0  0  0  0  0  0  0  0  0  0
  -19.6406  -27.3343   20.7034 H   0  0  0  0  0  0  0  0  0  0  0  0
  -17.4282  -26.6888   21.4113 H   0  0  0  0  0  0  0  0  0  0  0  0
  -18.0803  -26.0130   22.9049 H   0  0  0  0  0  0  0  0  0  0  0  0
  -19.7265  -30.6774   24.2204 H   0  0  0  0  0  0  0  0  0  0  0  0
  -17.5064  -31.5856   24.4483 H   0  0  0  0  0  0  0  0  0  0  0  0
  -15.5878  -30.2839   23.7407 H   0  0  0  0  0  0  0  0  0  0  0  0
  -15.9120  -28.0941   22.7766 H   0  0  0  0  0  0  0  0  0  0  0  0
  -24.5787  -30.7757   25.6817 H   0  0  0  0  0  0  0  0  0  0  0  0
  -25.0041  -32.2289   26.5536 H   0  0  0  0  0  0  0  0  0  0  0  0
  -25.8166  -30.7245   26.9138 H   0  0  0  0  0  0  0  0  0  0  0  0
  -26.2892  -29.7335   24.0803 H   0  0  0  0  0  0  0  0  0  0  0  0
  -27.4336  -29.7484   25.4006 H   0  0  0  0  0  0  0  0  0  0  0  0
  -27.8466  -30.4994   23.8779 H   0  0  0  0  0  0  0  0  0  0  0  0
  -27.2251  -33.3632   26.1242 H   0  0  0  0  0  0  0  0  0  0  0  0
  -28.3902  -32.6065   25.0645 H   0  0  0  0  0  0  0  0  0  0  0  0
  -27.9772  -31.8555   26.5872 H   0  0  0  0  0  0  0  0  0  0  0  0
  -28.2744  -38.0016   24.6863 H   0  0  0  0  0  0  0  0  0  0  0  0
  -28.0396  -36.2711   24.7461 H   0  0  0  0  0  0  0  0  0  0  0  0
  -27.1773  -37.3087   25.8564 H   0  0  0  0  0  0  0  0  0  0  0  0
  -20.9627  -29.9365   21.7352 H   0  0  0  0  0  0  0  0  0  0  0  0
  -26.0447  -38.2561   24.0273 H   0  0  0  0  0  0  0  0  0  0  0  0
  -34.3004  -24.8335   19.5344 H   0  0  0  0  0  0  0  0  0  0  0  0
  -32.4496  -19.8749   18.2707 H   0  0  0  0  0  0  0  0  0  0  0  0
  -33.3035  -20.1147   19.7761 H   0  0  0  0  0  0  0  0  0  0  0  0
  -34.1703  -20.1780   18.2603 H   0  0  0  0  0  0  0  0  0  0  0  0
  -31.3740  -20.3986   17.3181 H   0  0  0  0  0  0  0  0  0  0  0  0
  -30.5441  -21.7184   16.4835 H   0  0  0  0  0  0  0  0  0  0  0  0
  -31.9448  -26.3466   17.4217 H   0  0  0  0  0  0  0  0  0  0  0  0
  -33.1734  -26.5799   18.6705 H   0  0  0  0  0  0  0  0  0  0  0  0
  -29.8555  -20.5088   19.1423 H   0  0  0  0  0  0  0  0  0  0  0  0
  -28.8291  -20.6444   17.7990 H   0  0  0  0  0  0  0  0  0  0  0  0
  -30.8238  -27.3586   19.6867 H   0  0  0  0  0  0  0  0  0  0  0  0
  1 25  1  0
  1 30  2  0
  1 81  1  0
  2  3  1  0
  2 25  1  0
  2 84  1  0
  2 85  1  0
  3  4  1  0
  3 86  1  0
  3 87  1  0
  4  5  1  0
  4 88  1  0
  4 89  1  0
  5  6  1  0
  5 26  1  0
  5 90  1  6
  6 25  1  0
  6 91  1  0
  6 92  1  0
  7  8  2  0
  7 26  1  0
  7 29  1  0
  8  9  1  0
  8 22  1  0
  9 10  1  0
  9 27  2  0
 10 11  2  0
 10 15  1  0
 11 12  1  0
 11 93  1  0
 12 13  2  0
 12 94  1  0
 13 14  1  0
 13 31  1  0
 14 15  2  0
 14 95  1  0
 15 96  1  0
 16 17  2  0
 16 21  1  0
 16 31  1  0
 17 18  1  0
 17 97  1  0
 18 19  2  0
 18 98  1  0
 19 20  1  0
 19 24  1  0
 20 21  2  0
 20 99  1  0
 21 23  1  0
 22 28  1  0
 22 32  2  0
 26 27  1  0
 28100  1  0
 28101  1  0
 29102  1  0
 29103  1  0
 33 34  1  0
 33 66  1  0
 33 70  2  0
 34 36  1  0
 34 59  1  0
 34104  1  6
 35 44  2  0
 35 45  1  0
 35 68  1  0
 36 56  1  0
 36105  1  0
 37 39  1  0
 37 47  1  0
 37 66  1  0
 37106  1  6
 38 43  2  0
 38 46  1  0
 38 47  1  0
 39 64  1  0
 39 67  2  0
 40 52  1  0
 40 53  2  0
 40 58  1  0
 41107  1  0
 41108  1  0
 41109  1  0
 42 43  1  0
 42 66  1  0
 42110  1  0
 42111  1  0
 43 44  1  0
 44112  1  0
 45 46  2  0
 45113  1  0
 46114  1  0
 47115  1  0
 47116  1  0
 48 41  1  0
 48 56  1  0
 48 65  1  0
 48117  1  1
 49 50  1  0
 49 53  1  0
 49 64  1  0
 49118  1  1
 50 51  1  0
 50119  1  0
 50120  1  0
 51 52  1  0
 51121  1  0
 51122  1  0
 52123  1  0
 52124  1  0
 53 54  1  0
 54 55  2  0
 54125  1  0
 55 57  1  0
 55126  1  0
 56 69  2  0
 57 58  2  0
 57127  1  0
 58128  1  0
 59 60  1  0
 59 61  1  0
 59 62  1  0
 60129  1  0
 60130  1  0
 60131  1  0
 61132  1  0
 61133  1  0
 61134  1  0
 62135  1  0
 62136  1  0
 62137  1  0
 63 65  1  0
 63138  1  0
 63139  1  0
 63140  1  0
 64141  1  0
 65142  1  0
 68 80  1  0
 71 72  2  0
 71 75  1  0
 71143  1  0
 72 76  1  0
 72 79  1  0
 73 74  1  0
 73 75  2  0
 73 77  1  0
 74 76  2  0
 74 78  1  0
 75 82  1  0
 76 83  1  0
 77144  1  0
 77145  1  0
 77146  1  0
 78 80  1  0
 78147  1  0
 78148  1  0
 79 81  1  0
 79149  1  0
 79150  1  0
 80151  1  0
 80152  1  0
 81153  1  0
M  ISO  4   1 100  68 101  80 101  81 100
M  END
$$$$
60
     RDKit          3D

171180  0  0  0  0  0  0  0  0999 V2000
  -30.7652  -14.3608   20.6636 C   0  0  0  0  0  0  0  0  0100  0  0
  -30.4392  -12.2669   19.3775 C   0  0  0  0  0  0  0  0  0101  0  0
  -29.4791  -12.5281   18.1977 C   0  0  0  0  0  0  0  0  0102  0  0
  -27.9985  -12.3963   18.6038 C   0  0  0  0  0  0  0  0  0103  0  0
  -27.6639  -13.2170   19.8820 C   0  0  2  0  0  0  0  0  0104  0  0
  -28.6795  -12.9602   21.0279 C   0  0  0  0  0  0  0  0  0105  0  0
  -25.2633  -13.8245   20.5754 C   0  0  0  0  0  0  0  0  0106  0  0
  -24.1645  -13.0409   20.9408 C   0  0  0  0  0  0  0  0  0107  0  0
  -24.6400  -11.7009   20.8697 C   0  0  0  0  0  0  0  0  0108  0  0
  -23.9005  -10.4085   21.0420 C   0  0  0  0  0  0  0  0  0109  0  0
  -24.3588   -9.4123   21.9123 C   0  0  0  0  0  0  0  0  0110  0  0
  -23.6296   -8.2350   22.0803 C   0  0  0  0  0  0  0  0  0111  0  0
  -22.4385   -8.0419   21.3657 C   0  0  0  0  0  0  0  0  0112  0  0
  -22.0103   -9.0167   20.4678 C   0  0  0  0  0  0  0  0  0113  0  0
  -22.7317  -10.1925   20.3102 C   0  0  0  0  0  0  0  0  0114  0  0
  -21.6857   -6.0709   22.5391 C   0  0  0  0  0  0  0  0  0115  0  0
  -21.4064   -6.5490   23.8264 C   0  0  0  0  0  0  0  0  0116  0  0
  -21.3635   -5.6677   24.9085 C   0  0  0  0  0  0  0  0  0117  0  0
  -21.5973   -4.3067   24.7088 C   0  0  0  0  0  0  0  0  0118  0  0
  -21.8700   -3.8284   23.4282 C   0  0  0  0  0  0  0  0  0119  0  0
  -21.9144   -4.7056   22.3460 C   0  0  0  0  0  0  0  0  0120  0  0
  -22.8194  -13.5263   21.1763 C   0  0  0  0  0  0  0  0  0121  0  0
  -22.1559   -4.2206   21.1063 F   0  0  0  0  0  0  0  0  0122  0  0
  -21.5628   -3.4510   25.7555 F   0  0  0  0  0  0  0  0  0123  0  0
  -30.0261  -13.1803   20.4553 N   0  0  0  0  0  0  0  0  0124  0  0
  -26.2911  -12.9356   20.3443 N   0  0  0  0  0  0  0  0  0125  0  0
  -25.9236  -11.6675   20.5847 N   0  0  0  0  0  0  0  0  0126  0  0
  -22.0708  -12.7905   22.0005 N   0  0  0  0  0  0  0  0  0127  0  0
  -25.4117  -15.1773   20.4097 N   0  0  0  0  0  0  0  0  0128  0  0
  -31.7916  -14.6724   20.0536 O   0  0  0  0  0  0  0  0  0129  0  0
  -21.6670   -6.9022   21.4423 O   0  0  0  0  0  0  0  0  0130  0  0
  -22.3946  -14.5564   20.6568 O   0  0  0  0  0  0  0  0  0131  0  0
  -24.6048  -31.8614   23.2223 C   0  0  0  0  0  0  0  0  0100  0  0
  -25.8822  -32.4841   23.8616 C   0  0  1  0  0  0  0  0  0101  0  0
  -27.2536  -27.5042   20.1156 C   0  0  0  0  0  0  0  0  0102  0  0
  -25.5726  -33.8762   24.2210 N   0  0  0  0  0  0  0  0  0103  0  0
  -23.4066  -30.4859   21.5461 C   0  0  2  0  0  0  0  0  0104  0  0
  -24.8467  -28.9636   20.1247 C   0  0  0  0  0  0  0  0  0105  0  0
  -22.7412  -29.4652   22.5052 C   0  0  0  0  0  0  0  0  0106  0  0
  -18.0167  -28.1302   22.8626 C   0  0  0  0  0  0  0  0  0107  0  0
  -24.1342  -36.7390   23.2568 C   0  0  0  0  0  0  0  0  0108  0  0
  -25.9141  -30.8882   21.3456 C   0  0  0  0  0  0  0  0  0109  0  0
  -25.9930  -29.5029   20.7208 C   0  0  0  0  0  0  0  0  0110  0  0
  -27.1758  -28.7612   20.7331 C   0  0  0  0  0  0  0  0  0111  0  0
  -26.1032  -26.9836   19.5230 C   0  0  0  0  0  0  0  0  0112  0  0
  -24.9097  -27.7011   19.5331 C   0  0  0  0  0  0  0  0  0113  0  0
  -23.5715  -29.7899   20.1582 C   0  0  0  0  0  0  0  0  0114  0  0
  -25.3990  -36.3212   24.0232 C   0  0  1  0  0  0  0  0  0115  0  0
  -20.5793  -28.3813   23.1004 C   0  0  2  0  0  0  0  0  0116  0  0
  -20.6548  -26.9392   22.5411 C   0  0  0  0  0  0  0  0  0117  0  0
  -19.5615  -26.6407   21.5143 C   0  0  0  0  0  0  0  0  0118  0  0
  -18.1797  -26.7818   22.1673 C   0  0  0  0  0  0  0  0  0119  0  0
  -19.1385  -28.8769   23.2988 C   0  0  0  0  0  0  0  0  0120  0  0
  -18.9183  -30.1286   23.8878 C   0  0  0  0  0  0  0  0  0121  0  0
  -17.6396  -30.6493   24.0352 C   0  0  0  0  0  0  0  0  0122  0  0
  -25.9153  -34.9582   23.4993 C   0  0  0  0  0  0  0  0  0123  0  0
  -16.5415  -29.9068   23.6254 C   0  0  0  0  0  0  0  0  0124  0  0
  -16.7331  -28.6521   23.0586 C   0  0  0  0  0  0  0  0  0125  0  0
  -26.4583  -31.6439   25.0683 C   0  0  0  0  0  0  0  0  0126  0  0
  -25.3807  -31.3179   26.1374 C   0  0  0  0  0  0  0  0  0127  0  0
  -27.0530  -30.3024   24.5680 C   0  0  0  0  0  0  0  0  0128  0  0
  -27.6014  -32.4281   25.7651 C   0  0  0  0  0  0  0  0  0129  0  0
  -27.5629  -37.2220   24.8621 C   0  0  0  0  0  0  0  0  0130  0  0
  -21.4133  -29.3375   22.3735 N   0  0  0  0  0  0  0  0  0131  0  0
  -26.4706  -37.3372   23.9061 N   0  0  0  0  0  0  0  0  0132  0  0
  -24.6674  -31.0544   22.1178 N   0  0  0  0  0  0  0  0  0133  0  0
  -23.4259  -28.8150   23.2971 O   0  0  0  0  0  0  0  0  0134  0  0
  -28.3948  -26.7345   20.0089 O   0  0  0  0  0  0  0  0  0135  0  0
  -26.5870  -34.9065   22.4671 O   0  0  0  0  0  0  0  0  0136  0  0
  -23.5365  -32.1254   23.7833 O   0  0  0  0  0  0  0  0  0137  0  0
  -28.1822  -21.1132   24.2125 C   0  0  0  0  0  0  0  0  0  0  0  0
  -25.5877  -21.3620   25.1002 C   0  0  0  0  0  0  0  0  0  0  0  0
  -27.4333  -19.9716   24.4817 C   0  0  0  0  0  0  0  0  0  0  0  0
  -26.1217  -20.0925   24.9305 C   0  0  0  0  0  0  0  0  0  0  0  0
  -27.5961  -22.3569   24.4003 C   0  0  0  0  0  0  0  0  0  0  0  0
  -28.5066  -24.4943   25.4069 C   0  0  0  0  0  0  0  0  0  0  0  0
  -27.6842  -24.4685   23.0065 C   0  0  0  0  0  0  0  0  0  0  0  0
  -29.2667  -25.7880   25.1258 C   0  0  0  0  0  0  0  0  0  0  0  0
  -28.4490  -25.7620   22.7378 C   0  0  0  0  0  0  0  0  0  0  0  0
  -28.3439  -23.6499   24.1305 C   0  0  2  0  0  0  0  0  0  0  0  0
  -28.6118  -26.5955   24.0066 C   0  0  2  0  0  0  0  0  0  1  0  0
  -29.7372  -17.0653   23.7118 C   0  0  0  0  0  0  0  0  0  0  0  0
  -31.1756  -16.8512   23.2241 C   0  0  0  0  0  0  0  0  0  0  0  0
  -29.3734  -18.5438   23.8313 C   0  0  0  0  0  0  0  0  0  0  0  0
  -31.5419  -15.3742   23.1144 C   0  0  0  0  0  0  0  0  0  0  0  0
  -26.3311  -22.4445   24.8335 N   0  0  0  0  0  0  0  0  0  0  0  0
  -28.0300  -18.7053   24.2905 N   0  0  0  0  0  0  0  0  0  0  0  0
  -30.6761  -14.6560   22.2060 N   0  0  0  0  0  0  0  0  0  0  0  0
  -25.1406  -18.7205   25.2811 Cl  0  0  0  0  0  0  0  0  0  0  0  0
  -31.4485  -12.4701   19.0860 H   0  0  0  0  0  0  0  0  0  0  0  0
  -30.3970  -11.2460   19.6950 H   0  0  0  0  0  0  0  0  0  0  0  0
  -29.6870  -11.8204   17.4226 H   0  0  0  0  0  0  0  0  0  0  0  0
  -29.6375  -13.5326   17.8649 H   0  0  0  0  0  0  0  0  0  0  0  0
  -27.7830  -11.3650   18.7904 H   0  0  0  0  0  0  0  0  0  0  0  0
  -27.4028  -12.7801   17.8021 H   0  0  0  0  0  0  0  0  0  0  0  0
  -27.7353  -14.2503   19.6136 H   0  0  0  0  0  0  0  0  0  0  0  0
  -28.5890  -11.9550   21.3832 H   0  0  0  0  0  0  0  0  0  0  0  0
  -28.5005  -13.6134   21.8562 H   0  0  0  0  0  0  0  0  0  0  0  0
  -25.2399   -9.5495   22.4318 H   0  0  0  0  0  0  0  0  0  0  0  0
  -23.9663   -7.5070   22.7297 H   0  0  0  0  0  0  0  0  0  0  0  0
  -21.1515   -8.8641   19.9162 H   0  0  0  0  0  0  0  0  0  0  0  0
  -22.4016  -10.9115   19.6476 H   0  0  0  0  0  0  0  0  0  0  0  0
  -21.2319   -7.5552   23.9750 H   0  0  0  0  0  0  0  0  0  0  0  0
  -21.1589   -6.0228   25.8556 H   0  0  0  0  0  0  0  0  0  0  0  0
  -22.0396   -2.8212   23.2809 H   0  0  0  0  0  0  0  0  0  0  0  0
  -22.4401  -11.9703   22.4008 H   0  0  0  0  0  0  0  0  0  0  0  0
  -21.1493  -13.0679   22.2082 H   0  0  0  0  0  0  0  0  0  0  0  0
  -24.6538  -15.7807   20.5848 H   0  0  0  0  0  0  0  0  0  0  0  0
  -26.2762  -15.5453   20.1156 H   0  0  0  0  0  0  0  0  0  0  0  0
  -26.6778  -32.4663   23.1464 H   0  0  0  0  0  0  0  0  0  0  0  0
  -25.0747  -34.0282   25.0566 H   0  0  0  0  0  0  0  0  0  0  0  0
  -22.7881  -31.3489   21.4131 H   0  0  0  0  0  0  0  0  0  0  0  0
  -23.3854  -35.9823   23.3648 H   0  0  0  0  0  0  0  0  0  0  0  0
  -24.3696  -36.8624   22.2204 H   0  0  0  0  0  0  0  0  0  0  0  0
  -23.7669  -37.6632   23.6516 H   0  0  0  0  0  0  0  0  0  0  0  0
  -25.9445  -31.6237   20.5691 H   0  0  0  0  0  0  0  0  0  0  0  0
  -26.7436  -31.0079   22.0108 H   0  0  0  0  0  0  0  0  0  0  0  0
  -28.0090  -29.1452   21.2057 H   0  0  0  0  0  0  0  0  0  0  0  0
  -26.1369  -26.0560   19.0719 H   0  0  0  0  0  0  0  0  0  0  0  0
  -24.0652  -27.2961   19.0997 H   0  0  0  0  0  0  0  0  0  0  0  0
  -23.6156  -30.5365   19.3930 H   0  0  0  0  0  0  0  0  0  0  0  0
  -22.7355  -29.1425   19.9945 H   0  0  0  0  0  0  0  0  0  0  0  0
  -25.1353  -36.2335   25.0565 H   0  0  0  0  0  0  0  0  0  0  0  0
  -21.0070  -28.3206   24.0793 H   0  0  0  0  0  0  0  0  0  0  0  0
  -20.5555  -26.2518   23.3550 H   0  0  0  0  0  0  0  0  0  0  0  0
  -21.5974  -26.8362   22.0454 H   0  0  0  0  0  0  0  0  0  0  0  0
  -19.6810  -25.6422   21.1488 H   0  0  0  0  0  0  0  0  0  0  0  0
  -19.6406  -27.3343   20.7034 H   0  0  0  0  0  0  0  0  0  0  0  0
  -17.4282  -26.6888   21.4113 H   0  0  0  0  0  0  0  0  0  0  0  0
  -18.0803  -26.0130   22.9049 H   0  0  0  0  0  0  0  0  0  0  0  0
  -19.7265  -30.6774   24.2204 H   0  0  0  0  0  0  0  0  0  0  0  0
  -17.5064  -31.5856   24.4483 H   0  0  0  0  0  0  0  0  0  0  0  0
  -15.5878  -30.2839   23.7407 H   0  0  0  0  0  0  0  0  0  0  0  0
  -15.9120  -28.0941   22.7766 H   0  0  0  0  0  0  0  0  0  0  0  0
  -24.5787  -30.7757   25.6817 H   0  0  0  0  0  0  0  0  0  0  0  0
  -25.0041  -32.2289   26.5536 H   0  0  0  0  0  0  0  0  0  0  0  0
  -25.8166  -30.7245   26.9138 H   0  0  0  0  0  0  0  0  0  0  0  0
  -26.2892  -29.7335   24.0803 H   0  0  0  0  0  0  0  0  0  0  0  0
  -27.4336  -29.7484   25.4006 H   0  0  0  0  0  0  0  0  0  0  0  0
  -27.8466  -30.4994   23.8779 H   0  0  0  0  0  0  0  0  0  0  0  0
  -27.2251  -33.3632   26.1242 H   0  0  0  0  0  0  0  0  0  0  0  0
  -28.3902  -32.6065   25.0645 H   0  0  0  0  0  0  0  0  0  0  0  0
  -27.9772  -31.8555   26.5872 H   0  0  0  0  0  0  0  0  0  0  0  0
  -28.2744  -38.0016   24.6863 H   0  0  0  0  0  0  0  0  0  0  0  0
  -28.0396  -36.2711   24.7461 H   0  0  0  0  0  0  0  0  0  0  0  0
  -27.1773  -37.3087   25.8564 H   0  0  0  0  0  0  0  0  0  0  0  0
  -20.9627  -29.9365   21.7352 H   0  0  0  0  0  0  0  0  0  0  0  0
  -26.0447  -38.2561   24.0273 H   0  0  0  0  0  0  0  0  0  0  0  0
  -29.1559  -21.0362   23.8792 H   0  0  0  0  0  0  0  0  0  0  0  0
  -24.6168  -21.4726   25.4322 H   0  0  0  0  0  0  0  0  0  0  0  0
  -27.5373  -24.7363   25.7901 H   0  0  0  0  0  0  0  0  0  0  0  0
  -29.0650  -23.9237   26.1193 H   0  0  0  0  0  0  0  0  0  0  0  0
  -27.6675  -23.8816   22.1120 H   0  0  0  0  0  0  0  0  0  0  0  0
  -26.6907  -24.7218   23.3127 H   0  0  0  0  0  0  0  0  0  0  0  0
  -30.2687  -25.5462   24.8385 H   0  0  0  0  0  0  0  0  0  0  0  0
  -29.2560  -26.3816   26.0160 H   0  0  0  0  0  0  0  0  0  0  0  0
  -27.9135  -26.3370   22.0115 H   0  0  0  0  0  0  0  0  0  0  0  0
  -29.4241  -25.5049   22.3801 H   0  0  0  0  0  0  0  0  0  0  0  0
  -29.3232  -23.3753   23.7982 H   0  0  0  0  0  0  0  0  0  0  0  0
  -28.4250  -27.3205   24.7710 H   0  0  0  0  0  0  0  0  0  0  0  0
  -29.6289  -16.6067   24.6724 H   0  0  0  0  0  0  0  0  0  0  0  0
  -29.0807  -16.6266   22.9897 H   0  0  0  0  0  0  0  0  0  0  0  0
  -31.8453  -17.3204   23.9142 H   0  0  0  0  0  0  0  0  0  0  0  0
  -31.2544  -17.2791   22.2465 H   0  0  0  0  0  0  0  0  0  0  0  0
  -29.4734  -19.0073   22.8721 H   0  0  0  0  0  0  0  0  0  0  0  0
  -30.0328  -19.0009   24.5392 H   0  0  0  0  0  0  0  0  0  0  0  0
  -31.4669  -14.9289   24.0844 H   0  0  0  0  0  0  0  0  0  0  0  0
  -32.5388  -15.3137   22.7303 H   0  0  0  0  0  0  0  0  0  0  0  0
  -25.9336  -23.3362   24.9604 H   0  0  0  0  0  0  0  0  0  0  0  0
  -27.4974  -17.8997   24.4818 H   0  0  0  0  0  0  0  0  0  0  0  0
  -29.8753  -14.2784   22.6365 H   0  0  0  0  0  0  0  0  0  0  0  0
  1 25  1  0
  1 30  2  0
  1 88  1  0
  2  3  1  0
  2 25  1  0
  2 90  1  0
  2 91  1  0
  3  4  1  0
  3 92  1  0
  3 93  1  0
  4  5  1  0
  4 94  1  0
  4 95  1  0
  5  6  1  0
  5 26  1  0
  5 96  1  6
  6 25  1  0
  6 97  1  0
  6 98  1  0
  7  8  2  0
  7 26  1  0
  7 29  1  0
  8  9  1  0
  8 22  1  0
  9 10  1  0
  9 27  2  0
 10 11  2  0
 10 15  1  0
 11 12  1  0
 11 99  1  0
 12 13  2  0
 12100  1  0
 13 14  1  0
 13 31  1  0
 14 15  2  0
 14101  1  0
 15102  1  0
 16 17  2  0
 16 21  1  0
 16 31  1  0
 17 18  1  0
 17103  1  0
 18 19  2  0
 18104  1  0
 19 20  1  0
 19 24  1  0
 20 21  2  0
 20105  1  0
 21 23  1  0
 22 28  1  0
 22 32  2  0
 26 27  1  0
 28106  1  0
 28107  1  0
 29108  1  0
 29109  1  0
 33 34  1  0
 33 66  1  0
 33 70  2  0
 34 36  1  0
 34 59  1  0
 34110  1  6
 35 44  2  0
 35 45  1  0
 35 68  1  0
 36 56  1  0
 36111  1  0
 37 39  1  0
 37 47  1  0
 37 66  1  0
 37112  1  6
 38 43  2  0
 38 46  1  0
 38 47  1  0
 39 64  1  0
 39 67  2  0
 40 52  1  0
 40 53  2  0
 40 58  1  0
 41113  1  0
 41114  1  0
 41115  1  0
 42 43  1  0
 42 66  1  0
 42116  1  0
 42117  1  0
 43 44  1  0
 44118  1  0
 45 46  2  0
 45119  1  0
 46120  1  0
 47121  1  0
 47122  1  0
 48 41  1  0
 48 56  1  0
 48 65  1  0
 48123  1  1
 49 50  1  0
 49 53  1  0
 49 64  1  0
 49124  1  1
 50 51  1  0
 50125  1  0
 50126  1  0
 51 52  1  0
 51127  1  0
 51128  1  0
 52129  1  0
 52130  1  0
 53 54  1  0
 54 55  2  0
 54131  1  0
 55 57  1  0
 55132  1  0
 56 69  2  0
 57 58  2  0
 57133  1  0
 58134  1  0
 59 60  1  0
 59 61  1  0
 59 62  1  0
 60135  1  0
 60136  1  0
 60137  1  0
 61138  1  0
 61139  1  0
 61140  1  0
 62141  1  0
 62142  1  0
 62143  1  0
 63 65  1  0
 63144  1  0
 63145  1  0
 63146  1  0
 64147  1  0
 65148  1  0
 71 73  2  0
 71 75  1  0
 71149  1  0
 72 74  2  0
 72 86  1  0
 72150  1  0
 73 74  1  0
 73 87  1  0
 74 89  1  0
 75 86  2  0
 76 78  1  0
 76 80  1  0
 76151  1  0
 76152  1  0
 77 79  1  0
 77 80  1  0
 77153  1  0
 77154  1  0
 78 81  1  0
 78155  1  0
 78156  1  0
 79 81  1  0
 79157  1  0
 79158  1  0
 80 75  1  0
 80159  1  6
 81 68  1  0
 81160  1  1
 82 83  1  0
 82 84  1  0
 82161  1  0
 82162  1  0
 83 85  1  0
 83163  1  0
 83164  1  0
 84 87  1  0
 84165  1  0
 84166  1  0
 85 88  1  0
 85167  1  0
 85168  1  0
 86169  1  0
 87170  1  0
 88171  1  0
M  CHG  1  86   1
M  ISO  4   1 100  68 101  81 101  88 100
M  END
$$$$
61
     RDKit          3D

151159  0  0  0  0  0  0  0  0999 V2000
  -30.7652  -14.3608   20.6636 C   0  0  0  0  0  0  0  0  0100  0  0
  -30.4392  -12.2669   19.3775 C   0  0  0  0  0  0  0  0  0101  0  0
  -29.4791  -12.5281   18.1977 C   0  0  0  0  0  0  0  0  0102  0  0
  -27.9985  -12.3963   18.6038 C   0  0  0  0  0  0  0  0  0103  0  0
  -27.6639  -13.2170   19.8820 C   0  0  2  0  0  0  0  0  0104  0  0
  -28.6795  -12.9602   21.0279 C   0  0  0  0  0  0  0  0  0105  0  0
  -25.2633  -13.8245   20.5754 C   0  0  0  0  0  0  0  0  0106  0  0
  -24.1645  -13.0409   20.9408 C   0  0  0  0  0  0  0  0  0107  0  0
  -24.6400  -11.7009   20.8697 C   0  0  0  0  0  0  0  0  0108  0  0
  -23.9005  -10.4085   21.0420 C   0  0  0  0  0  0  0  0  0109  0  0
  -24.3588   -9.4123   21.9123 C   0  0  0  0  0  0  0  0  0110  0  0
  -23.6296   -8.2350   22.0803 C   0  0  0  0  0  0  0  0  0111  0  0
  -22.4385   -8.0419   21.3657 C   0  0  0  0  0  0  0  0  0112  0  0
  -22.0103   -9.0167   20.4678 C   0  0  0  0  0  0  0  0  0113  0  0
  -22.7317  -10.1925   20.3102 C   0  0  0  0  0  0  0  0  0114  0  0
  -21.6857   -6.0709   22.5391 C   0  0  0  0  0  0  0  0  0115  0  0
  -21.4064   -6.5490   23.8264 C   0  0  0  0  0  0  0  0  0116  0  0
  -21.3635   -5.6677   24.9085 C   0  0  0  0  0  0  0  0  0117  0  0
  -21.5973   -4.3067   24.7088 C   0  0  0  0  0  0  0  0  0118  0  0
  -21.8700   -3.8284   23.4282 C   0  0  0  0  0  0  0  0  0119  0  0
  -21.9144   -4.7056   22.3460 C   0  0  0  0  0  0  0  0  0120  0  0
  -22.8194  -13.5263   21.1763 C   0  0  0  0  0  0  0  0  0121  0  0
  -22.1559   -4.2206   21.1063 F   0  0  0  0  0  0  0  0  0122  0  0
  -21.5628   -3.4510   25.7555 F   0  0  0  0  0  0  0  0  0123  0  0
  -30.0261  -13.1803   20.4553 N   0  0  0  0  0  0  0  0  0124  0  0
  -26.2911  -12.9356   20.3443 N   0  0  0  0  0  0  0  0  0125  0  0
  -25.9236  -11.6675   20.5847 N   0  0  0  0  0  0  0  0  0126  0  0
  -22.0708  -12.7905   22.0005 N   0  0  0  0  0  0  0  0  0127  0  0
  -25.4117  -15.1773   20.4097 N   0  0  0  0  0  0  0  0  0128  0  0
  -31.7916  -14.6724   20.0536 O   0  0  0  0  0  0  0  0  0129  0  0
  -21.6670   -6.9022   21.4423 O   0  0  0  0  0  0  0  0  0130  0  0
  -22.3946  -14.5564   20.6568 O   0  0  0  0  0  0  0  0  0131  0  0
  -24.6048  -31.8614   23.2223 C   0  0  0  0  0  0  0  0  0100  0  0
  -25.8822  -32.4841   23.8616 C   0  0  1  0  0  0  0  0  0101  0  0
  -27.2536  -27.5042   20.1156 C   0  0  0  0  0  0  0  0  0102  0  0
  -25.5726  -33.8762   24.2210 N   0  0  0  0  0  0  0  0  0103  0  0
  -23.4066  -30.4859   21.5461 C   0  0  2  0  0  0  0  0  0104  0  0
  -24.8467  -28.9636   20.1247 C   0  0  0  0  0  0  0  0  0105  0  0
  -22.7412  -29.4652   22.5052 C   0  0  0  0  0  0  0  0  0106  0  0
  -18.0167  -28.1302   22.8626 C   0  0  0  0  0  0  0  0  0107  0  0
  -24.1342  -36.7390   23.2568 C   0  0  0  0  0  0  0  0  0108  0  0
  -25.9141  -30.8882   21.3456 C   0  0  0  0  0  0  0  0  0109  0  0
  -25.9930  -29.5029   20.7208 C   0  0  0  0  0  0  0  0  0110  0  0
  -27.1758  -28.7612   20.7331 C   0  0  0  0  0  0  0  0  0111  0  0
  -26.1032  -26.9836   19.5230 C   0  0  0  0  0  0  0  0  0112  0  0
  -24.9097  -27.7011   19.5331 C   0  0  0  0  0  0  0  0  0113  0  0
  -23.5715  -29.7899   20.1582 C   0  0  0  0  0  0  0  0  0114  0  0
  -25.3990  -36.3212   24.0232 C   0  0  1  0  0  0  0  0  0115  0  0
  -20.5793  -28.3813   23.1004 C   0  0  2  0  0  0  0  0  0116  0  0
  -20.6548  -26.9392   22.5411 C   0  0  0  0  0  0  0  0  0117  0  0
  -19.5615  -26.6407   21.5143 C   0  0  0  0  0  0  0  0  0118  0  0
  -18.1797  -26.7818   22.1673 C   0  0  0  0  0  0  0  0  0119  0  0
  -19.1385  -28.8769   23.2988 C   0  0  0  0  0  0  0  0  0120  0  0
  -18.9183  -30.1286   23.8878 C   0  0  0  0  0  0  0  0  0121  0  0
  -17.6396  -30.6493   24.0352 C   0  0  0  0  0  0  0  0  0122  0  0
  -25.9153  -34.9582   23.4993 C   0  0  0  0  0  0  0  0  0123  0  0
  -16.5415  -29.9068   23.6254 C   0  0  0  0  0  0  0  0  0124  0  0
  -16.7331  -28.6521   23.0586 C   0  0  0  0  0  0  0  0  0125  0  0
  -26.4583  -31.6439   25.0683 C   0  0  0  0  0  0  0  0  0126  0  0
  -25.3807  -31.3179   26.1374 C   0  0  0  0  0  0  0  0  0127  0  0
  -27.0530  -30.3024   24.5680 C   0  0  0  0  0  0  0  0  0128  0  0
  -27.6014  -32.4281   25.7651 C   0  0  0  0  0  0  0  0  0129  0  0
  -27.5629  -37.2220   24.8621 C   0  0  0  0  0  0  0  0  0130  0  0
  -21.4133  -29.3375   22.3735 N   0  0  0  0  0  0  0  0  0131  0  0
  -26.4706  -37.3372   23.9061 N   0  0  0  0  0  0  0  0  0132  0  0
  -24.6674  -31.0544   22.1178 N   0  0  0  0  0  0  0  0  0133  0  0
  -23.4259  -28.8150   23.2971 O   0  0  0  0  0  0  0  0  0134  0  0
  -28.3948  -26.7345   20.0089 O   0  0  0  0  0  0  0  0  0135  0  0
  -26.5870  -34.9065   22.4671 O   0  0  0  0  0  0  0  0  0136  0  0
  -23.5365  -32.1254   23.7833 O   0  0  0  0  0  0  0  0  0137  0  0
  -17.6561  -23.5039   26.2657 C   0  0  0  0  0  0  0  0  0  0  0  0
  -18.8791  -21.6158   26.3606 C   0  0  0  0  0  0  0  0  0  0  0  0
  -17.7187  -22.2005   26.8175 C   0  0  0  0  0  0  0  0  0  0  0  0
  -18.7801  -23.6759   25.4883 C   0  0  0  0  0  0  0  0  0  0  0  0
  -16.7253  -21.5824   27.7161 C   0  0  0  0  0  0  0  0  0  0  0  0
  -20.6763  -21.9203   23.3702 C   0  0  0  0  0  0  0  0  0  0  0  0
  -20.8270  -22.2653   24.8535 C   0  0  0  0  0  0  0  0  0  0  0  0
  -21.9970  -21.5713   22.6941 C   0  0  0  0  0  0  0  0  0  1  0  0
  -19.5161  -22.5217   25.5531 N   0  0  0  0  0  0  0  0  0  0  0  0
  -19.1873  -24.7991   24.7265 N   0  0  0  0  0  0  0  0  0  0  0  0
  -31.4485  -12.4701   19.0860 H   0  0  0  0  0  0  0  0  0  0  0  0
  -30.3970  -11.2460   19.6950 H   0  0  0  0  0  0  0  0  0  0  0  0
  -29.6870  -11.8204   17.4226 H   0  0  0  0  0  0  0  0  0  0  0  0
  -29.6375  -13.5326   17.8649 H   0  0  0  0  0  0  0  0  0  0  0  0
  -27.7830  -11.3650   18.7904 H   0  0  0  0  0  0  0  0  0  0  0  0
  -27.4028  -12.7801   17.8021 H   0  0  0  0  0  0  0  0  0  0  0  0
  -27.7353  -14.2503   19.6136 H   0  0  0  0  0  0  0  0  0  0  0  0
  -28.5890  -11.9550   21.3832 H   0  0  0  0  0  0  0  0  0  0  0  0
  -28.5005  -13.6134   21.8562 H   0  0  0  0  0  0  0  0  0  0  0  0
  -25.2399   -9.5495   22.4318 H   0  0  0  0  0  0  0  0  0  0  0  0
  -23.9663   -7.5070   22.7297 H   0  0  0  0  0  0  0  0  0  0  0  0
  -21.1515   -8.8641   19.9162 H   0  0  0  0  0  0  0  0  0  0  0  0
  -22.4016  -10.9115   19.6476 H   0  0  0  0  0  0  0  0  0  0  0  0
  -21.2319   -7.5552   23.9750 H   0  0  0  0  0  0  0  0  0  0  0  0
  -21.1589   -6.0228   25.8556 H   0  0  0  0  0  0  0  0  0  0  0  0
  -22.0396   -2.8212   23.2809 H   0  0  0  0  0  0  0  0  0  0  0  0
  -22.4401  -11.9703   22.4008 H   0  0  0  0  0  0  0  0  0  0  0  0
  -21.1493  -13.0679   22.2082 H   0  0  0  0  0  0  0  0  0  0  0  0
  -24.6538  -15.7807   20.5848 H   0  0  0  0  0  0  0  0  0  0  0  0
  -26.2762  -15.5453   20.1156 H   0  0  0  0  0  0  0  0  0  0  0  0
  -26.6778  -32.4663   23.1464 H   0  0  0  0  0  0  0  0  0  0  0  0
  -25.0747  -34.0282   25.0566 H   0  0  0  0  0  0  0  0  0  0  0  0
  -22.7881  -31.3489   21.4131 H   0  0  0  0  0  0  0  0  0  0  0  0
  -23.3854  -35.9823   23.3648 H   0  0  0  0  0  0  0  0  0  0  0  0
  -24.3696  -36.8624   22.2204 H   0  0  0  0  0  0  0  0  0  0  0  0
  -23.7669  -37.6632   23.6516 H   0  0  0  0  0  0  0  0  0  0  0  0
  -25.9445  -31.6237   20.5691 H   0  0  0  0  0  0  0  0  0  0  0  0
  -26.7436  -31.0079   22.0108 H   0  0  0  0  0  0  0  0  0  0  0  0
  -28.0090  -29.1452   21.2057 H   0  0  0  0  0  0  0  0  0  0  0  0
  -26.1369  -26.0560   19.0719 H   0  0  0  0  0  0  0  0  0  0  0  0
  -24.0652  -27.2961   19.0997 H   0  0  0  0  0  0  0  0  0  0  0  0
  -23.6156  -30.5365   19.3930 H   0  0  0  0  0  0  0  0  0  0  0  0
  -22.7355  -29.1425   19.9945 H   0  0  0  0  0  0  0  0  0  0  0  0
  -25.1353  -36.2335   25.0565 H   0  0  0  0  0  0  0  0  0  0  0  0
  -21.0070  -28.3206   24.0793 H   0  0  0  0  0  0  0  0  0  0  0  0
  -20.5555  -26.2518   23.3550 H   0  0  0  0  0  0  0  0  0  0  0  0
  -21.5974  -26.8362   22.0454 H   0  0  0  0  0  0  0  0  0  0  0  0
  -19.6810  -25.6422   21.1488 H   0  0  0  0  0  0  0  0  0  0  0  0
  -19.6406  -27.3343   20.7034 H   0  0  0  0  0  0  0  0  0  0  0  0
  -17.4282  -26.6888   21.4113 H   0  0  0  0  0  0  0  0  0  0  0  0
  -18.0803  -26.0130   22.9049 H   0  0  0  0  0  0  0  0  0  0  0  0
  -19.7265  -30.6774   24.2204 H   0  0  0  0  0  0  0  0  0  0  0  0
  -17.5064  -31.5856   24.4483 H   0  0  0  0  0  0  0  0  0  0  0  0
  -15.5878  -30.2839   23.7407 H   0  0  0  0  0  0  0  0  0  0  0  0
  -15.9120  -28.0941   22.7766 H   0  0  0  0  0  0  0  0  0  0  0  0
  -24.5787  -30.7757   25.6817 H   0  0  0  0  0  0  0  0  0  0  0  0
  -25.0041  -32.2289   26.5536 H   0  0  0  0  0  0  0  0  0  0  0  0
  -25.8166  -30.7245   26.9138 H   0  0  0  0  0  0  0  0  0  0  0  0
  -26.2892  -29.7335   24.0803 H   0  0  0  0  0  0  0  0  0  0  0  0
  -27.4336  -29.7484   25.4006 H   0  0  0  0  0  0  0  0  0  0  0  0
  -27.8466  -30.4994   23.8779 H   0  0  0  0  0  0  0  0  0  0  0  0
  -27.2251  -33.3632   26.1242 H   0  0  0  0  0  0  0  0  0  0  0  0
  -28.3902  -32.6065   25.0645 H   0  0  0  0  0  0  0  0  0  0  0  0
  -27.9772  -31.8555   26.5872 H   0  0  0  0  0  0  0  0  0  0  0  0
  -28.2744  -38.0016   24.6863 H   0  0  0  0  0  0  0  0  0  0  0  0
  -28.0396  -36.2711   24.7461 H   0  0  0  0  0  0  0  0  0  0  0  0
  -27.1773  -37.3087   25.8564 H   0  0  0  0  0  0  0  0  0  0  0  0
  -20.9627  -29.9365   21.7352 H   0  0  0  0  0  0  0  0  0  0  0  0
  -26.0447  -38.2561   24.0273 H   0  0  0  0  0  0  0  0  0  0  0  0
  -16.9066  -24.1967   26.4181 H   0  0  0  0  0  0  0  0  0  0  0  0
  -19.2101  -20.6647   26.5862 H   0  0  0  0  0  0  0  0  0  0  0  0
  -15.9294  -22.2741   27.8976 H   0  0  0  0  0  0  0  0  0  0  0  0
  -17.1937  -21.3264   28.6434 H   0  0  0  0  0  0  0  0  0  0  0  0
  -16.3322  -20.6984   27.2590 H   0  0  0  0  0  0  0  0  0  0  0  0
  -20.2498  -22.7630   22.8673 H   0  0  0  0  0  0  0  0  0  0  0  0
  -20.0508  -21.0544   23.3087 H   0  0  0  0  0  0  0  0  0  0  0  0
  -21.4314  -23.1444   24.9360 H   0  0  0  0  0  0  0  0  0  0  0  0
  -21.2735  -21.4165   25.3279 H   0  0  0  0  0  0  0  0  0  0  0  0
  -21.7068  -21.0356   21.8145 H   0  0  0  0  0  0  0  0  0  0  0  0
  -22.4924  -21.1663   23.5517 H   0  0  0  0  0  0  0  0  0  0  0  0
  -18.9099  -25.7257   24.5429 H   0  0  0  0  0  0  0  0  0  0  0  0
  1 25  1  0
  1 30  2  0
  1 80  1  0
  2  3  1  0
  2 25  1  0
  2 81  1  0
  2 82  1  0
  3  4  1  0
  3 83  1  0
  3 84  1  0
  4  5  1  0
  4 85  1  0
  4 86  1  0
  5  6  1  0
  5 26  1  0
  5 87  1  6
  6 25  1  0
  6 88  1  0
  6 89  1  0
  7  8  2  0
  7 26  1  0
  7 29  1  0
  8  9  1  0
  8 22  1  0
  9 10  1  0
  9 27  2  0
 10 11  2  0
 10 15  1  0
 11 12  1  0
 11 90  1  0
 12 13  2  0
 12 91  1  0
 13 14  1  0
 13 31  1  0
 14 15  2  0
 14 92  1  0
 15 93  1  0
 16 17  2  0
 16 21  1  0
 16 31  1  0
 17 18  1  0
 17 94  1  0
 18 19  2  0
 18 95  1  0
 19 20  1  0
 19 24  1  0
 20 21  2  0
 20 96  1  0
 21 23  1  0
 22 28  1  0
 22 32  2  0
 26 27  1  0
 28 97  1  0
 28 98  1  0
 29 99  1  0
 29100  1  0
 33 34  1  0
 33 66  1  0
 33 70  2  0
 34 36  1  0
 34 59  1  0
 34101  1  6
 35 44  2  0
 35 45  1  0
 35 68  1  0
 36 56  1  0
 36102  1  0
 37 39  1  0
 37 47  1  0
 37 66  1  0
 37103  1  6
 38 43  2  0
 38 46  1  0
 38 47  1  0
 39 64  1  0
 39 67  2  0
 40 52  1  0
 40 53  2  0
 40 58  1  0
 41104  1  0
 41105  1  0
 41106  1  0
 42 43  1  0
 42 66  1  0
 42107  1  0
 42108  1  0
 43 44  1  0
 44109  1  0
 45 46  2  0
 45110  1  0
 46111  1  0
 47112  1  0
 47113  1  0
 48 41  1  0
 48 56  1  0
 48 65  1  0
 48114  1  1
 49 50  1  0
 49 53  1  0
 49 64  1  0
 49115  1  1
 50 51  1  0
 50116  1  0
 50117  1  0
 51 52  1  0
 51118  1  0
 51119  1  0
 52120  1  0
 52121  1  0
 53 54  1  0
 54 55  2  0
 54122  1  0
 55 57  1  0
 55123  1  0
 56 69  2  0
 57 58  2  0
 57124  1  0
 58125  1  0
 59 60  1  0
 59 61  1  0
 59 62  1  0
 60126  1  0
 60127  1  0
 60128  1  0
 61129  1  0
 61130  1  0
 61131  1  0
 62132  1  0
 62133  1  0
 62134  1  0
 63 65  1  0
 63135  1  0
 63136  1  0
 63137  1  0
 64138  1  0
 65139  1  0
 68 78  1  0
 71 73  1  0
 71 74  2  0
 71140  1  0
 72 73  2  0
 72 79  1  0
 72141  1  0
 73 75  1  0
 74 79  1  0
 74 80  1  0
 75142  1  0
 75143  1  0
 75144  1  0
 76 77  1  0
 76 78  1  0
 76145  1  0
 76146  1  0
 77 79  1  0
 77147  1  0
 77148  1  0
 78149  1  0
 78150  1  0
 80151  1  0
M  ISO  4   1 100  68 101  78 101  80 100
M  END
$$$$
62
     RDKit          3D

157166  0  0  0  0  0  0  0  0999 V2000
  -30.7652  -14.3608   20.6636 C   0  0  0  0  0  0  0  0  0100  0  0
  -30.4392  -12.2669   19.3775 C   0  0  0  0  0  0  0  0  0101  0  0
  -29.4791  -12.5281   18.1977 C   0  0  0  0  0  0  0  0  0102  0  0
  -27.9985  -12.3963   18.6038 C   0  0  0  0  0  0  0  0  0103  0  0
  -27.6639  -13.2170   19.8820 C   0  0  2  0  0  0  0  0  0104  0  0
  -28.6795  -12.9602   21.0279 C   0  0  0  0  0  0  0  0  0105  0  0
  -25.2633  -13.8245   20.5754 C   0  0  0  0  0  0  0  0  0106  0  0
  -24.1645  -13.0409   20.9408 C   0  0  0  0  0  0  0  0  0107  0  0
  -24.6400  -11.7009   20.8697 C   0  0  0  0  0  0  0  0  0108  0  0
  -23.9005  -10.4085   21.0420 C   0  0  0  0  0  0  0  0  0109  0  0
  -24.3588   -9.4123   21.9123 C   0  0  0  0  0  0  0  0  0110  0  0
  -23.6296   -8.2350   22.0803 C   0  0  0  0  0  0  0  0  0111  0  0
  -22.4385   -8.0419   21.3657 C   0  0  0  0  0  0  0  0  0112  0  0
  -22.0103   -9.0167   20.4678 C   0  0  0  0  0  0  0  0  0113  0  0
  -22.7317  -10.1925   20.3102 C   0  0  0  0  0  0  0  0  0114  0  0
  -21.6857   -6.0709   22.5391 C   0  0  0  0  0  0  0  0  0115  0  0
  -21.4064   -6.5490   23.8264 C   0  0  0  0  0  0  0  0  0116  0  0
  -21.3635   -5.6677   24.9085 C   0  0  0  0  0  0  0  0  0117  0  0
  -21.5973   -4.3067   24.7088 C   0  0  0  0  0  0  0  0  0118  0  0
  -21.8700   -3.8284   23.4282 C   0  0  0  0  0  0  0  0  0119  0  0
  -21.9144   -4.7056   22.3460 C   0  0  0  0  0  0  0  0  0120  0  0
  -22.8194  -13.5263   21.1763 C   0  0  0  0  0  0  0  0  0121  0  0
  -22.1559   -4.2206   21.1063 F   0  0  0  0  0  0  0  0  0122  0  0
  -21.5628   -3.4510   25.7555 F   0  0  0  0  0  0  0  0  0123  0  0
  -30.0261  -13.1803   20.4553 N   0  0  0  0  0  0  0  0  0124  0  0
  -26.2911  -12.9356   20.3443 N   0  0  0  0  0  0  0  0  0125  0  0
  -25.9236  -11.6675   20.5847 N   0  0  0  0  0  0  0  0  0126  0  0
  -22.0708  -12.7905   22.0005 N   0  0  0  0  0  0  0  0  0127  0  0
  -25.4117  -15.1773   20.4097 N   0  0  0  0  0  0  0  0  0128  0  0
  -31.7916  -14.6724   20.0536 O   0  0  0  0  0  0  0  0  0129  0  0
  -21.6670   -6.9022   21.4423 O   0  0  0  0  0  0  0  0  0130  0  0
  -22.3946  -14.5564   20.6568 O   0  0  0  0  0  0  0  0  0131  0  0
  -24.6048  -31.8614   23.2223 C   0  0  0  0  0  0  0  0  0100  0  0
  -25.8822  -32.4841   23.8616 C   0  0  1  0  0  0  0  0  0101  0  0
  -27.2536  -27.5042   20.1156 C   0  0  0  0  0  0  0  0  0102  0  0
  -25.5726  -33.8762   24.2210 N   0  0  0  0  0  0  0  0  0103  0  0
  -23.4066  -30.4859   21.5461 C   0  0  2  0  0  0  0  0  0104  0  0
  -24.8467  -28.9636   20.1247 C   0  0  0  0  0  0  0  0  0105  0  0
  -22.7412  -29.4652   22.5052 C   0  0  0  0  0  0  0  0  0106  0  0
  -18.0167  -28.1302   22.8626 C   0  0  0  0  0  0  0  0  0107  0  0
  -24.1342  -36.7390   23.2568 C   0  0  0  0  0  0  0  0  0108  0  0
  -25.9141  -30.8882   21.3456 C   0  0  0  0  0  0  0  0  0109  0  0
  -25.9930  -29.5029   20.7208 C   0  0  0  0  0  0  0  0  0110  0  0
  -27.1758  -28.7612   20.7331 C   0  0  0  0  0  0  0  0  0111  0  0
  -26.1032  -26.9836   19.5230 C   0  0  0  0  0  0  0  0  0112  0  0
  -24.9097  -27.7011   19.5331 C   0  0  0  0  0  0  0  0  0113  0  0
  -23.5715  -29.7899   20.1582 C   0  0  0  0  0  0  0  0  0114  0  0
  -25.3990  -36.3212   24.0232 C   0  0  1  0  0  0  0  0  0115  0  0
  -20.5793  -28.3813   23.1004 C   0  0  2  0  0  0  0  0  0116  0  0
  -20.6548  -26.9392   22.5411 C   0  0  0  0  0  0  0  0  0117  0  0
  -19.5615  -26.6407   21.5143 C   0  0  0  0  0  0  0  0  0118  0  0
  -18.1797  -26.7818   22.1673 C   0  0  0  0  0  0  0  0  0119  0  0
  -19.1385  -28.8769   23.2988 C   0  0  0  0  0  0  0  0  0120  0  0
  -18.9183  -30.1286   23.8878 C   0  0  0  0  0  0  0  0  0121  0  0
  -17.6396  -30.6493   24.0352 C   0  0  0  0  0  0  0  0  0122  0  0
  -25.9153  -34.9582   23.4993 C   0  0  0  0  0  0  0  0  0123  0  0
  -16.5415  -29.9068   23.6254 C   0  0  0  0  0  0  0  0  0124  0  0
  -16.7331  -28.6521   23.0586 C   0  0  0  0  0  0  0  0  0125  0  0
  -26.4583  -31.6439   25.0683 C   0  0  0  0  0  0  0  0  0126  0  0
  -25.3807  -31.3179   26.1374 C   0  0  0  0  0  0  0  0  0127  0  0
  -27.0530  -30.3024   24.5680 C   0  0  0  0  0  0  0  0  0128  0  0
  -27.6014  -32.4281   25.7651 C   0  0  0  0  0  0  0  0  0129  0  0
  -27.5629  -37.2220   24.8621 C   0  0  0  0  0  0  0  0  0130  0  0
  -21.4133  -29.3375   22.3735 N   0  0  0  0  0  0  0  0  0131  0  0
  -26.4706  -37.3372   23.9061 N   0  0  0  0  0  0  0  0  0132  0  0
  -24.6674  -31.0544   22.1178 N   0  0  0  0  0  0  0  0  0133  0  0
  -23.4259  -28.8150   23.2971 O   0  0  0  0  0  0  0  0  0134  0  0
  -28.3948  -26.7345   20.0089 O   0  0  0  0  0  0  0  0  0135  0  0
  -26.5870  -34.9065   22.4671 O   0  0  0  0  0  0  0  0  0136  0  0
  -23.5365  -32.1254   23.7833 O   0  0  0  0  0  0  0  0  0137  0  0
  -30.6377  -23.2616   17.8822 C   0  0  0  0  0  0  0  0  0  0  0  0
  -30.7038  -25.4381   18.9632 C   0  0  0  0  0  0  0  0  0  0  0  0
  -29.7694  -25.9252   18.0315 C   0  0  0  0  0  0  0  0  0  0  0  0
  -29.7289  -23.7486   16.9477 C   0  0  0  0  0  0  0  0  0  0  0  0
  -31.1206  -24.1002   18.8860 C   0  0  0  0  0  0  0  0  0  0  0  0
  -29.2989  -25.0731   17.0199 C   0  0  0  0  0  0  0  0  0  0  0  0
  -31.2242  -26.3011   20.0840 C   0  0  0  0  0  0  0  0  0  0  0  0
  -29.2964  -27.3602   18.0526 C   0  0  0  0  0  0  0  0  0  0  0  0
  -31.0237  -27.7959   19.8336 C   0  0  0  0  0  0  0  0  0  0  0  0
  -29.6061  -28.0959   19.3588 C   0  0  2  0  0  0  0  0  0  1  0  0
  -29.2456  -22.8113   15.8871 C   0  0  0  0  0  0  0  0  0  0  0  0
  -27.8453  -22.2531   16.1585 C   0  0  0  0  0  0  0  0  0  0  0  0
  -27.7774  -21.5340   17.4111 N   0  0  0  0  0  0  0  0  0  0  0  0
  -32.2226  -23.4023   20.0263 Cl  0  0  0  0  0  0  0  0  0  0  0  0
  -28.1866  -25.6401   15.8084 Cl  0  0  0  0  0  0  0  0  0  0  0  0
  -31.4485  -12.4701   19.0860 H   0  0  0  0  0  0  0  0  0  0  0  0
  -30.3970  -11.2460   19.6950 H   0  0  0  0  0  0  0  0  0  0  0  0
  -29.6870  -11.8204   17.4226 H   0  0  0  0  0  0  0  0  0  0  0  0
  -29.6375  -13.5326   17.8649 H   0  0  0  0  0  0  0  0  0  0  0  0
  -27.7830  -11.3650   18.7904 H   0  0  0  0  0  0  0  0  0  0  0  0
  -27.4028  -12.7801   17.8021 H   0  0  0  0  0  0  0  0  0  0  0  0
  -27.7353  -14.2503   19.6136 H   0  0  0  0  0  0  0  0  0  0  0  0
  -28.5890  -11.9550   21.3832 H   0  0  0  0  0  0  0  0  0  0  0  0
  -28.5005  -13.6134   21.8562 H   0  0  0  0  0  0  0  0  0  0  0  0
  -25.2399   -9.5495   22.4318 H   0  0  0  0  0  0  0  0  0  0  0  0
  -23.9663   -7.5070   22.7297 H   0  0  0  0  0  0  0  0  0  0  0  0
  -21.1515   -8.8641   19.9162 H   0  0  0  0  0  0  0  0  0  0  0  0
  -22.4016  -10.9115   19.6476 H   0  0  0  0  0  0  0  0  0  0  0  0
  -21.2319   -7.5552   23.9750 H   0  0  0  0  0  0  0  0  0  0  0  0
  -21.1589   -6.0228   25.8556 H   0  0  0  0  0  0  0  0  0  0  0  0
  -22.0396   -2.8212   23.2809 H   0  0  0  0  0  0  0  0  0  0  0  0
  -22.4401  -11.9703   22.4008 H   0  0  0  0  0  0  0  0  0  0  0  0
  -21.1493  -13.0679   22.2082 H   0  0  0  0  0  0  0  0  0  0  0  0
  -24.6538  -15.7807   20.5848 H   0  0  0  0  0  0  0  0  0  0  0  0
  -26.2762  -15.5453   20.1156 H   0  0  0  0  0  0  0  0  0  0  0  0
  -26.6778  -32.4663   23.1464 H   0  0  0  0  0  0  0  0  0  0  0  0
  -25.0747  -34.0282   25.0566 H   0  0  0  0  0  0  0  0  0  0  0  0
  -22.7881  -31.3489   21.4131 H   0  0  0  0  0  0  0  0  0  0  0  0
  -23.3854  -35.9823   23.3648 H   0  0  0  0  0  0  0  0  0  0  0  0
  -24.3696  -36.8624   22.2204 H   0  0  0  0  0  0  0  0  0  0  0  0
  -23.7669  -37.6632   23.6516 H   0  0  0  0  0  0  0  0  0  0  0  0
  -25.9445  -31.6237   20.5691 H   0  0  0  0  0  0  0  0  0  0  0  0
  -26.7436  -31.0079   22.0108 H   0  0  0  0  0  0  0  0  0  0  0  0
  -28.0090  -29.1452   21.2057 H   0  0  0  0  0  0  0  0  0  0  0  0
  -26.1369  -26.0560   19.0719 H   0  0  0  0  0  0  0  0  0  0  0  0
  -24.0652  -27.2961   19.0997 H   0  0  0  0  0  0  0  0  0  0  0  0
  -23.6156  -30.5365   19.3930 H   0  0  0  0  0  0  0  0  0  0  0  0
  -22.7355  -29.1425   19.9945 H   0  0  0  0  0  0  0  0  0  0  0  0
  -25.1353  -36.2335   25.0565 H   0  0  0  0  0  0  0  0  0  0  0  0
  -21.0070  -28.3206   24.0793 H   0  0  0  0  0  0  0  0  0  0  0  0
  -20.5555  -26.2518   23.3550 H   0  0  0  0  0  0  0  0  0  0  0  0
  -21.5974  -26.8362   22.0454 H   0  0  0  0  0  0  0  0  0  0  0  0
  -19.6810  -25.6422   21.1488 H   0  0  0  0  0  0  0  0  0  0  0  0
  -19.6406  -27.3343   20.7034 H   0  0  0  0  0  0  0  0  0  0  0  0
  -17.4282  -26.6888   21.4113 H   0  0  0  0  0  0  0  0  0  0  0  0
  -18.0803  -26.0130   22.9049 H   0  0  0  0  0  0  0  0  0  0  0  0
  -19.7265  -30.6774   24.2204 H   0  0  0  0  0  0  0  0  0  0  0  0
  -17.5064  -31.5856   24.4483 H   0  0  0  0  0  0  0  0  0  0  0  0
  -15.5878  -30.2839   23.7407 H   0  0  0  0  0  0  0  0  0  0  0  0
  -15.9120  -28.0941   22.7766 H   0  0  0  0  0  0  0  0  0  0  0  0
  -24.5787  -30.7757   25.6817 H   0  0  0  0  0  0  0  0  0  0  0  0
  -25.0041  -32.2289   26.5536 H   0  0  0  0  0  0  0  0  0  0  0  0
  -25.8166  -30.7245   26.9138 H   0  0  0  0  0  0  0  0  0  0  0  0
  -26.2892  -29.7335   24.0803 H   0  0  0  0  0  0  0  0  0  0  0  0
  -27.4336  -29.7484   25.4006 H   0  0  0  0  0  0  0  0  0  0  0  0
  -27.8466  -30.4994   23.8779 H   0  0  0  0  0  0  0  0  0  0  0  0
  -27.2251  -33.3632   26.1242 H   0  0  0  0  0  0  0  0  0  0  0  0
  -28.3902  -32.6065   25.0645 H   0  0  0  0  0  0  0  0  0  0  0  0
  -27.9772  -31.8555   26.5872 H   0  0  0  0  0  0  0  0  0  0  0  0
  -28.2744  -38.0016   24.6863 H   0  0  0  0  0  0  0  0  0  0  0  0
  -28.0396  -36.2711   24.7461 H   0  0  0  0  0  0  0  0  0  0  0  0
  -27.1773  -37.3087   25.8564 H   0  0  0  0  0  0  0  0  0  0  0  0
  -20.9627  -29.9365   21.7352 H   0  0  0  0  0  0  0  0  0  0  0  0
  -26.0447  -38.2561   24.0273 H   0  0  0  0  0  0  0  0  0  0  0  0
  -30.9540  -22.2805   17.8323 H   0  0  0  0  0  0  0  0  0  0  0  0
  -32.2710  -26.1129   20.2006 H   0  0  0  0  0  0  0  0  0  0  0  0
  -30.6708  -26.0483   20.9642 H   0  0  0  0  0  0  0  0  0  0  0  0
  -28.2367  -27.3679   17.9046 H   0  0  0  0  0  0  0  0  0  0  0  0
  -29.8234  -27.8725   17.2750 H   0  0  0  0  0  0  0  0  0  0  0  0
  -31.7170  -28.1195   19.0856 H   0  0  0  0  0  0  0  0  0  0  0  0
  -31.1874  -28.3162   20.7541 H   0  0  0  0  0  0  0  0  0  0  0  0
  -29.5287  -29.1514   19.5162 H   0  0  0  0  0  0  0  0  0  0  0  0
  -29.9303  -21.9917   15.8215 H   0  0  0  0  0  0  0  0  0  0  0  0
  -29.1916  -23.3682   14.9750 H   0  0  0  0  0  0  0  0  0  0  0  0
  -27.5798  -21.5873   15.3641 H   0  0  0  0  0  0  0  0  0  0  0  0
  -27.1679  -23.0793   16.2169 H   0  0  0  0  0  0  0  0  0  0  0  0
  -27.2277  -22.0188   18.0683 H   0  0  0  0  0  0  0  0  0  0  0  0
  1 25  1  0
  1 30  2  0
  1 83  1  0
  2  3  1  0
  2 25  1  0
  2 86  1  0
  2 87  1  0
  3  4  1  0
  3 88  1  0
  3 89  1  0
  4  5  1  0
  4 90  1  0
  4 91  1  0
  5  6  1  0
  5 26  1  0
  5 92  1  6
  6 25  1  0
  6 93  1  0
  6 94  1  0
  7  8  2  0
  7 26  1  0
  7 29  1  0
  8  9  1  0
  8 22  1  0
  9 10  1  0
  9 27  2  0
 10 11  2  0
 10 15  1  0
 11 12  1  0
 11 95  1  0
 12 13  2  0
 12 96  1  0
 13 14  1  0
 13 31  1  0
 14 15  2  0
 14 97  1  0
 15 98  1  0
 16 17  2  0
 16 21  1  0
 16 31  1  0
 17 18  1  0
 17 99  1  0
 18 19  2  0
 18100  1  0
 19 20  1  0
 19 24  1  0
 20 21  2  0
 20101  1  0
 21 23  1  0
 22 28  1  0
 22 32  2  0
 26 27  1  0
 28102  1  0
 28103  1  0
 29104  1  0
 29105  1  0
 33 34  1  0
 33 66  1  0
 33 70  2  0
 34 36  1  0
 34 59  1  0
 34106  1  6
 35 44  2  0
 35 45  1  0
 35 68  1  0
 36 56  1  0
 36107  1  0
 37 39  1  0
 37 47  1  0
 37 66  1  0
 37108  1  6
 38 43  2  0
 38 46  1  0
 38 47  1  0
 39 64  1  0
 39 67  2  0
 40 52  1  0
 40 53  2  0
 40 58  1  0
 41109  1  0
 41110  1  0
 41111  1  0
 42 43  1  0
 42 66  1  0
 42112  1  0
 42113  1  0
 43 44  1  0
 44114  1  0
 45 46  2  0
 45115  1  0
 46116  1  0
 47117  1  0
 47118  1  0
 48 41  1  0
 48 56  1  0
 48 65  1  0
 48119  1  1
 49 50  1  0
 49 53  1  0
 49 64  1  0
 49120  1  1
 50 51  1  0
 50121  1  0
 50122  1  0
 51 52  1  0
 51123  1  0
 51124  1  0
 52125  1  0
 52126  1  0
 53 54  1  0
 54 55  2  0
 54127  1  0
 55 57  1  0
 55128  1  0
 56 69  2  0
 57 58  2  0
 57129  1  0
 58130  1  0
 59 60  1  0
 59 61  1  0
 59 62  1  0
 60131  1  0
 60132  1  0
 60133  1  0
 61134  1  0
 61135  1  0
 61136  1  0
 62137  1  0
 62138  1  0
 62139  1  0
 63 65  1  0
 63140  1  0
 63141  1  0
 63142  1  0
 64143  1  0
 65144  1  0
 71 74  2  0
 71 75  1  0
 71145  1  0
 72 73  1  0
 72 75  2  0
 72 77  1  0
 73 76  2  0
 73 78  1  0
 74 76  1  0
 74 81  1  0
 75 84  1  0
 76 85  1  0
 77 79  1  0
 77146  1  0
 77147  1  0
 78 80  1  0
 78148  1  0
 78149  1  0
 79 80  1  0
 79150  1  0
 79151  1  0
 80 68  1  0
 80152  1  6
 81 82  1  0
 81153  1  0
 81154  1  0
 82 83  1  0
 82155  1  0
 82156  1  0
 83157  1  0
M  ISO  4   1 100  68 101  80 101  83 100
M  END
$$$$
63
     RDKit          3D

161169  0  0  0  0  0  0  0  0999 V2000
  -30.7652  -14.3608   20.6636 C   0  0  0  0  0  0  0  0  0100  0  0
  -30.4392  -12.2669   19.3775 C   0  0  0  0  0  0  0  0  0101  0  0
  -29.4791  -12.5281   18.1977 C   0  0  0  0  0  0  0  0  0102  0  0
  -27.9985  -12.3963   18.6038 C   0  0  0  0  0  0  0  0  0103  0  0
  -27.6639  -13.2170   19.8820 C   0  0  2  0  0  0  0  0  0104  0  0
  -28.6795  -12.9602   21.0279 C   0  0  0  0  0  0  0  0  0105  0  0
  -25.2633  -13.8245   20.5754 C   0  0  0  0  0  0  0  0  0106  0  0
  -24.1645  -13.0409   20.9408 C   0  0  0  0  0  0  0  0  0107  0  0
  -24.6400  -11.7009   20.8697 C   0  0  0  0  0  0  0  0  0108  0  0
  -23.9005  -10.4085   21.0420 C   0  0  0  0  0  0  0  0  0109  0  0
  -24.3588   -9.4123   21.9123 C   0  0  0  0  0  0  0  0  0110  0  0
  -23.6296   -8.2350   22.0803 C   0  0  0  0  0  0  0  0  0111  0  0
  -22.4385   -8.0419   21.3657 C   0  0  0  0  0  0  0  0  0112  0  0
  -22.0103   -9.0167   20.4678 C   0  0  0  0  0  0  0  0  0113  0  0
  -22.7317  -10.1925   20.3102 C   0  0  0  0  0  0  0  0  0114  0  0
  -21.6857   -6.0709   22.5391 C   0  0  0  0  0  0  0  0  0115  0  0
  -21.4064   -6.5490   23.8264 C   0  0  0  0  0  0  0  0  0116  0  0
  -21.3635   -5.6677   24.9085 C   0  0  0  0  0  0  0  0  0117  0  0
  -21.5973   -4.3067   24.7088 C   0  0  0  0  0  0  0  0  0118  0  0
  -21.8700   -3.8284   23.4282 C   0  0  0  0  0  0  0  0  0119  0  0
  -21.9144   -4.7056   22.3460 C   0  0  0  0  0  0  0  0  0120  0  0
  -22.8194  -13.5263   21.1763 C   0  0  0  0  0  0  0  0  0121  0  0
  -22.1559   -4.2206   21.1063 F   0  0  0  0  0  0  0  0  0122  0  0
  -21.5628   -3.4510   25.7555 F   0  0  0  0  0  0  0  0  0123  0  0
  -30.0261  -13.1803   20.4553 N   0  0  0  0  0  0  0  0  0124  0  0
  -26.2911  -12.9356   20.3443 N   0  0  0  0  0  0  0  0  0125  0  0
  -25.9236  -11.6675   20.5847 N   0  0  0  0  0  0  0  0  0126  0  0
  -22.0708  -12.7905   22.0005 N   0  0  0  0  0  0  0  0  0127  0  0
  -25.4117  -15.1773   20.4097 N   0  0  0  0  0  0  0  0  0128  0  0
  -31.7916  -14.6724   20.0536 O   0  0  0  0  0  0  0  0  0129  0  0
  -21.6670   -6.9022   21.4423 O   0  0  0  0  0  0  0  0  0130  0  0
  -22.3946  -14.5564   20.6568 O   0  0  0  0  0  0  0  0  0131  0  0
  -24.6048  -31.8614   23.2223 C   0  0  0  0  0  0  0  0  0100  0  0
  -25.8822  -32.4841   23.8616 C   0  0  1  0  0  0  0  0  0101  0  0
  -27.2536  -27.5042   20.1156 C   0  0  0  0  0  0  0  0  0102  0  0
  -25.5726  -33.8762   24.2210 N   0  0  0  0  0  0  0  0  0103  0  0
  -23.4066  -30.4859   21.5461 C   0  0  2  0  0  0  0  0  0104  0  0
  -24.8467  -28.9636   20.1247 C   0  0  0  0  0  0  0  0  0105  0  0
  -22.7412  -29.4652   22.5052 C   0  0  0  0  0  0  0  0  0106  0  0
  -18.0167  -28.1302   22.8626 C   0  0  0  0  0  0  0  0  0107  0  0
  -24.1342  -36.7390   23.2568 C   0  0  0  0  0  0  0  0  0108  0  0
  -25.9141  -30.8882   21.3456 C   0  0  0  0  0  0  0  0  0109  0  0
  -25.9930  -29.5029   20.7208 C   0  0  0  0  0  0  0  0  0110  0  0
  -27.1758  -28.7612   20.7331 C   0  0  0  0  0  0  0  0  0111  0  0
  -26.1032  -26.9836   19.5230 C   0  0  0  0  0  0  0  0  0112  0  0
  -24.9097  -27.7011   19.5331 C   0  0  0  0  0  0  0  0  0113  0  0
  -23.5715  -29.7899   20.1582 C   0  0  0  0  0  0  0  0  0114  0  0
  -25.3990  -36.3212   24.0232 C   0  0  1  0  0  0  0  0  0115  0  0
  -20.5793  -28.3813   23.1004 C   0  0  2  0  0  0  0  0  0116  0  0
  -20.6548  -26.9392   22.5411 C   0  0  0  0  0  0  0  0  0117  0  0
  -19.5615  -26.6407   21.5143 C   0  0  0  0  0  0  0  0  0118  0  0
  -18.1797  -26.7818   22.1673 C   0  0  0  0  0  0  0  0  0119  0  0
  -19.1385  -28.8769   23.2988 C   0  0  0  0  0  0  0  0  0120  0  0
  -18.9183  -30.1286   23.8878 C   0  0  0  0  0  0  0  0  0121  0  0
  -17.6396  -30.6493   24.0352 C   0  0  0  0  0  0  0  0  0122  0  0
  -25.9153  -34.9582   23.4993 C   0  0  0  0  0  0  0  0  0123  0  0
  -16.5415  -29.9068   23.6254 C   0  0  0  0  0  0  0  0  0124  0  0
  -16.7331  -28.6521   23.0586 C   0  0  0  0  0  0  0  0  0125  0  0
  -26.4583  -31.6439   25.0683 C   0  0  0  0  0  0  0  0  0126  0  0
  -25.3807  -31.3179   26.1374 C   0  0  0  0  0  0  0  0  0127  0  0
  -27.0530  -30.3024   24.5680 C   0  0  0  0  0  0  0  0  0128  0  0
  -27.6014  -32.4281   25.7651 C   0  0  0  0  0  0  0  0  0129  0  0
  -27.5629  -37.2220   24.8621 C   0  0  0  0  0  0  0  0  0130  0  0
  -21.4133  -29.3375   22.3735 N   0  0  0  0  0  0  0  0  0131  0  0
  -26.4706  -37.3372   23.9061 N   0  0  0  0  0  0  0  0  0132  0  0
  -24.6674  -31.0544   22.1178 N   0  0  0  0  0  0  0  0  0133  0  0
  -23.4259  -28.8150   23.2971 O   0  0  0  0  0  0  0  0  0134  0  0
  -28.3948  -26.7345   20.0089 O   0  0  0  0  0  0  0  0  0135  0  0
  -26.5870  -34.9065   22.4671 O   0  0  0  0  0  0  0  0  0136  0  0
  -23.5365  -32.1254   23.7833 O   0  0  0  0  0  0  0  0  0137  0  0
  -27.9351  -23.3708   19.3851 C   0  0  0  0  0  0  0  0  0  0  0  0
  -28.5363  -23.9713   17.1637 C   0  0  0  0  0  0  0  0  0  0  0  0
  -28.7434  -24.1080   18.5268 C   0  0  0  0  0  0  0  0  0  0  0  0
  -26.9582  -22.5314   18.8613 C   0  0  0  0  0  0  0  0  0  0  0  0
  -26.8309  -22.4654   17.4832 C   0  0  0  0  0  0  0  0  0  0  0  0
  -29.8119  -25.0291   19.0636 C   0  0  0  0  0  0  0  0  0  0  0  0
  -26.0939  -21.7439   19.7853 C   0  0  0  0  0  0  0  0  0  0  0  0
  -22.4511  -22.1475   20.8450 C   0  0  0  0  0  0  0  0  0  0  0  0
  -21.4583  -21.3528   21.6865 C   0  0  0  0  0  0  0  0  0  0  0  0
  -23.8182  -21.4785   20.7801 C   0  0  0  0  0  0  0  0  0  0  0  0
  -29.2917  -26.4420   19.3050 C   0  0  0  0  0  0  0  0  0  1  0  0
  -27.5975  -23.1661   16.6178 N   0  0  0  0  0  0  0  0  0  0  0  0
  -21.2575  -20.0127   21.1818 N   0  0  0  0  0  0  0  0  0  0  0  0
  -24.7111  -22.2838   19.9069 N   0  0  0  0  0  0  0  0  0  0  0  0
  -25.6599  -21.4657   16.7161 Cl  0  0  0  0  0  0  0  0  0  0  0  0
  -31.4485  -12.4701   19.0860 H   0  0  0  0  0  0  0  0  0  0  0  0
  -30.3970  -11.2460   19.6950 H   0  0  0  0  0  0  0  0  0  0  0  0
  -29.6870  -11.8204   17.4226 H   0  0  0  0  0  0  0  0  0  0  0  0
  -29.6375  -13.5326   17.8649 H   0  0  0  0  0  0  0  0  0  0  0  0
  -27.7830  -11.3650   18.7904 H   0  0  0  0  0  0  0  0  0  0  0  0
  -27.4028  -12.7801   17.8021 H   0  0  0  0  0  0  0  0  0  0  0  0
  -27.7353  -14.2503   19.6136 H   0  0  0  0  0  0  0  0  0  0  0  0
  -28.5890  -11.9550   21.3832 H   0  0  0  0  0  0  0  0  0  0  0  0
  -28.5005  -13.6134   21.8562 H   0  0  0  0  0  0  0  0  0  0  0  0
  -25.2399   -9.5495   22.4318 H   0  0  0  0  0  0  0  0  0  0  0  0
  -23.9663   -7.5070   22.7297 H   0  0  0  0  0  0  0  0  0  0  0  0
  -21.1515   -8.8641   19.9162 H   0  0  0  0  0  0  0  0  0  0  0  0
  -22.4016  -10.9115   19.6476 H   0  0  0  0  0  0  0  0  0  0  0  0
  -21.2319   -7.5552   23.9750 H   0  0  0  0  0  0  0  0  0  0  0  0
  -21.1589   -6.0228   25.8556 H   0  0  0  0  0  0  0  0  0  0  0  0
  -22.0396   -2.8212   23.2809 H   0  0  0  0  0  0  0  0  0  0  0  0
  -22.4401  -11.9703   22.4008 H   0  0  0  0  0  0  0  0  0  0  0  0
  -21.1493  -13.0679   22.2082 H   0  0  0  0  0  0  0  0  0  0  0  0
  -24.6538  -15.7807   20.5848 H   0  0  0  0  0  0  0  0  0  0  0  0
  -26.2762  -15.5453   20.1156 H   0  0  0  0  0  0  0  0  0  0  0  0
  -26.6778  -32.4663   23.1464 H   0  0  0  0  0  0  0  0  0  0  0  0
  -25.0747  -34.0282   25.0566 H   0  0  0  0  0  0  0  0  0  0  0  0
  -22.7881  -31.3489   21.4131 H   0  0  0  0  0  0  0  0  0  0  0  0
  -23.3854  -35.9823   23.3648 H   0  0  0  0  0  0  0  0  0  0  0  0
  -24.3696  -36.8624   22.2204 H   0  0  0  0  0  0  0  0  0  0  0  0
  -23.7669  -37.6632   23.6516 H   0  0  0  0  0  0  0  0  0  0  0  0
  -25.9445  -31.6237   20.5691 H   0  0  0  0  0  0  0  0  0  0  0  0
  -26.7436  -31.0079   22.0108 H   0  0  0  0  0  0  0  0  0  0  0  0
  -28.0090  -29.1452   21.2057 H   0  0  0  0  0  0  0  0  0  0  0  0
  -26.1369  -26.0560   19.0719 H   0  0  0  0  0  0  0  0  0  0  0  0
  -24.0652  -27.2961   19.0997 H   0  0  0  0  0  0  0  0  0  0  0  0
  -23.6156  -30.5365   19.3930 H   0  0  0  0  0  0  0  0  0  0  0  0
  -22.7355  -29.1425   19.9945 H   0  0  0  0  0  0  0  0  0  0  0  0
  -25.1353  -36.2335   25.0565 H   0  0  0  0  0  0  0  0  0  0  0  0
  -21.0070  -28.3206   24.0793 H   0  0  0  0  0  0  0  0  0  0  0  0
  -20.5555  -26.2518   23.3550 H   0  0  0  0  0  0  0  0  0  0  0  0
  -21.5974  -26.8362   22.0454 H   0  0  0  0  0  0  0  0  0  0  0  0
  -19.6810  -25.6422   21.1488 H   0  0  0  0  0  0  0  0  0  0  0  0
  -19.6406  -27.3343   20.7034 H   0  0  0  0  0  0  0  0  0  0  0  0
  -17.4282  -26.6888   21.4113 H   0  0  0  0  0  0  0  0  0  0  0  0
  -18.0803  -26.0130   22.9049 H   0  0  0  0  0  0  0  0  0  0  0  0
  -19.7265  -30.6774   24.2204 H   0  0  0  0  0  0  0  0  0  0  0  0
  -17.5064  -31.5856   24.4483 H   0  0  0  0  0  0  0  0  0  0  0  0
  -15.5878  -30.2839   23.7407 H   0  0  0  0  0  0  0  0  0  0  0  0
  -15.9120  -28.0941   22.7766 H   0  0  0  0  0  0  0  0  0  0  0  0
  -24.5787  -30.7757   25.6817 H   0  0  0  0  0  0  0  0  0  0  0  0
  -25.0041  -32.2289   26.5536 H   0  0  0  0  0  0  0  0  0  0  0  0
  -25.8166  -30.7245   26.9138 H   0  0  0  0  0  0  0  0  0  0  0  0
  -26.2892  -29.7335   24.0803 H   0  0  0  0  0  0  0  0  0  0  0  0
  -27.4336  -29.7484   25.4006 H   0  0  0  0  0  0  0  0  0  0  0  0
  -27.8466  -30.4994   23.8779 H   0  0  0  0  0  0  0  0  0  0  0  0
  -27.2251  -33.3632   26.1242 H   0  0  0  0  0  0  0  0  0  0  0  0
  -28.3902  -32.6065   25.0645 H   0  0  0  0  0  0  0  0  0  0  0  0
  -27.9772  -31.8555   26.5872 H   0  0  0  0  0  0  0  0  0  0  0  0
  -28.2744  -38.0016   24.6863 H   0  0  0  0  0  0  0  0  0  0  0  0
  -28.0396  -36.2711   24.7461 H   0  0  0  0  0  0  0  0  0  0  0  0
  -27.1773  -37.3087   25.8564 H   0  0  0  0  0  0  0  0  0  0  0  0
  -20.9627  -29.9365   21.7352 H   0  0  0  0  0  0  0  0  0  0  0  0
  -26.0447  -38.2561   24.0273 H   0  0  0  0  0  0  0  0  0  0  0  0
  -28.0598  -23.4464   20.4068 H   0  0  0  0  0  0  0  0  0  0  0  0
  -29.1357  -24.5179   16.5257 H   0  0  0  0  0  0  0  0  0  0  0  0
  -30.6140  -25.0740   18.3568 H   0  0  0  0  0  0  0  0  0  0  0  0
  -30.1399  -24.6365   20.0034 H   0  0  0  0  0  0  0  0  0  0  0  0
  -26.5451  -21.7455   20.7555 H   0  0  0  0  0  0  0  0  0  0  0  0
  -26.0130  -20.7577   19.3782 H   0  0  0  0  0  0  0  0  0  0  0  0
  -22.5643  -23.1211   21.2742 H   0  0  0  0  0  0  0  0  0  0  0  0
  -22.0656  -22.2027   19.8484 H   0  0  0  0  0  0  0  0  0  0  0  0
  -20.5189  -21.8651   21.6849 H   0  0  0  0  0  0  0  0  0  0  0  0
  -21.8591  -21.2726   22.6754 H   0  0  0  0  0  0  0  0  0  0  0  0
  -23.7162  -20.4927   20.3768 H   0  0  0  0  0  0  0  0  0  0  0  0
  -24.2360  -21.4148   21.7631 H   0  0  0  0  0  0  0  0  0  0  0  0
  -29.0226  -26.8119   18.3377 H   0  0  0  0  0  0  0  0  0  0  0  0
  -30.1073  -26.8452   19.8682 H   0  0  0  0  0  0  0  0  0  0  0  0
  -20.3825  -19.6475   20.9167 H   0  0  0  0  0  0  0  0  0  0  0  0
  -24.2988  -22.3206   18.9747 H   0  0  0  0  0  0  0  0  0  0  0  0
  -24.7924  -23.2040   20.3393 H   0  0  0  0  0  0  0  0  0  0  0  0
  1 25  1  0
  1 30  2  0
  1 83  1  0
  2  3  1  0
  2 25  1  0
  2 86  1  0
  2 87  1  0
  3  4  1  0
  3 88  1  0
  3 89  1  0
  4  5  1  0
  4 90  1  0
  4 91  1  0
  5  6  1  0
  5 26  1  0
  5 92  1  6
  6 25  1  0
  6 93  1  0
  6 94  1  0
  7  8  2  0
  7 26  1  0
  7 29  1  0
  8  9  1  0
  8 22  1  0
  9 10  1  0
  9 27  2  0
 10 11  2  0
 10 15  1  0
 11 12  1  0
 11 95  1  0
 12 13  2  0
 12 96  1  0
 13 14  1  0
 13 31  1  0
 14 15  2  0
 14 97  1  0
 15 98  1  0
 16 17  2  0
 16 21  1  0
 16 31  1  0
 17 18  1  0
 17 99  1  0
 18 19  2  0
 18100  1  0
 19 20  1  0
 19 24  1  0
 20 21  2  0
 20101  1  0
 21 23  1  0
 22 28  1  0
 22 32  2  0
 26 27  1  0
 28102  1  0
 28103  1  0
 29104  1  0
 29105  1  0
 33 34  1  0
 33 66  1  0
 33 70  2  0
 34 36  1  0
 34 59  1  0
 34106  1  6
 35 44  2  0
 35 45  1  0
 35 68  1  0
 36 56  1  0
 36107  1  0
 37 39  1  0
 37 47  1  0
 37 66  1  0
 37108  1  6
 38 43  2  0
 38 46  1  0
 38 47  1  0
 39 64  1  0
 39 67  2  0
 40 52  1  0
 40 53  2  0
 40 58  1  0
 41109  1  0
 41110  1  0
 41111  1  0
 42 43  1  0
 42 66  1  0
 42112  1  0
 42113  1  0
 43 44  1  0
 44114  1  0
 45 46  2  0
 45115  1  0
 46116  1  0
 47117  1  0
 47118  1  0
 48 41  1  0
 48 56  1  0
 48 65  1  0
 48119  1  1
 49 50  1  0
 49 53  1  0
 49 64  1  0
 49120  1  1
 50 51  1  0
 50121  1  0
 50122  1  0
 51 52  1  0
 51123  1  0
 51124  1  0
 52125  1  0
 52126  1  0
 53 54  1  0
 54 55  2  0
 54127  1  0
 55 57  1  0
 55128  1  0
 56 69  2  0
 57 58  2  0
 57129  1  0
 58130  1  0
 59 60  1  0
 59 61  1  0
 59 62  1  0
 60131  1  0
 60132  1  0
 60133  1  0
 61134  1  0
 61135  1  0
 61136  1  0
 62137  1  0
 62138  1  0
 62139  1  0
 63 65  1  0
 63140  1  0
 63141  1  0
 63142  1  0
 64143  1  0
 65144  1  0
 68 81  1  0
 71 73  2  0
 71 74  1  0
 71145  1  0
 72 73  1  0
 72 82  2  0
 72146  1  0
 73 76  1  0
 74 75  2  0
 74 77  1  0
 75 82  1  0
 75 85  1  0
 76 81  1  0
 76147  1  0
 76148  1  0
 77 84  1  0
 77149  1  0
 77150  1  0
 78 79  1  0
 78 80  1  0
 78151  1  0
 78152  1  0
 79 83  1  0
 79153  1  0
 79154  1  0
 80 84  1  0
 80155  1  0
 80156  1  0
 81157  1  0
 81158  1  0
 83159  1  0
 84160  1  0
 84161  1  0
M  CHG  1  84   1
M  ISO  4   1 100  68 101  81 101  83 100
M  END
$$$$
64
     RDKit          3D

153161  0  0  0  0  0  0  0  0999 V2000
  -30.7652  -14.3608   20.6636 C   0  0  0  0  0  0  0  0  0100  0  0
  -30.4392  -12.2669   19.3775 C   0  0  0  0  0  0  0  0  0101  0  0
  -29.4791  -12.5281   18.1977 C   0  0  0  0  0  0  0  0  0102  0  0
  -27.9985  -12.3963   18.6038 C   0  0  0  0  0  0  0  0  0103  0  0
  -27.6639  -13.2170   19.8820 C   0  0  2  0  0  0  0  0  0104  0  0
  -28.6795  -12.9602   21.0279 C   0  0  0  0  0  0  0  0  0105  0  0
  -25.2633  -13.8245   20.5754 C   0  0  0  0  0  0  0  0  0106  0  0
  -24.1645  -13.0409   20.9408 C   0  0  0  0  0  0  0  0  0107  0  0
  -24.6400  -11.7009   20.8697 C   0  0  0  0  0  0  0  0  0108  0  0
  -23.9005  -10.4085   21.0420 C   0  0  0  0  0  0  0  0  0109  0  0
  -24.3588   -9.4123   21.9123 C   0  0  0  0  0  0  0  0  0110  0  0
  -23.6296   -8.2350   22.0803 C   0  0  0  0  0  0  0  0  0111  0  0
  -22.4385   -8.0419   21.3657 C   0  0  0  0  0  0  0  0  0112  0  0
  -22.0103   -9.0167   20.4678 C   0  0  0  0  0  0  0  0  0113  0  0
  -22.7317  -10.1925   20.3102 C   0  0  0  0  0  0  0  0  0114  0  0
  -21.6857   -6.0709   22.5391 C   0  0  0  0  0  0  0  0  0115  0  0
  -21.4064   -6.5490   23.8264 C   0  0  0  0  0  0  0  0  0116  0  0
  -21.3635   -5.6677   24.9085 C   0  0  0  0  0  0  0  0  0117  0  0
  -21.5973   -4.3067   24.7088 C   0  0  0  0  0  0  0  0  0118  0  0
  -21.8700   -3.8284   23.4282 C   0  0  0  0  0  0  0  0  0119  0  0
  -21.9144   -4.7056   22.3460 C   0  0  0  0  0  0  0  0  0120  0  0
  -22.8194  -13.5263   21.1763 C   0  0  0  0  0  0  0  0  0121  0  0
  -22.1559   -4.2206   21.1063 F   0  0  0  0  0  0  0  0  0122  0  0
  -21.5628   -3.4510   25.7555 F   0  0  0  0  0  0  0  0  0123  0  0
  -30.0261  -13.1803   20.4553 N   0  0  0  0  0  0  0  0  0124  0  0
  -26.2911  -12.9356   20.3443 N   0  0  0  0  0  0  0  0  0125  0  0
  -25.9236  -11.6675   20.5847 N   0  0  0  0  0  0  0  0  0126  0  0
  -22.0708  -12.7905   22.0005 N   0  0  0  0  0  0  0  0  0127  0  0
  -25.4117  -15.1773   20.4097 N   0  0  0  0  0  0  0  0  0128  0  0
  -31.7916  -14.6724   20.0536 O   0  0  0  0  0  0  0  0  0129  0  0
  -21.6670   -6.9022   21.4423 O   0  0  0  0  0  0  0  0  0130  0  0
  -22.3946  -14.5564   20.6568 O   0  0  0  0  0  0  0  0  0131  0  0
  -24.6048  -31.8614   23.2223 C   0  0  0  0  0  0  0  0  0100  0  0
  -25.8822  -32.4841   23.8616 C   0  0  1  0  0  0  0  0  0101  0  0
  -27.2536  -27.5042   20.1156 C   0  0  0  0  0  0  0  0  0102  0  0
  -25.5726  -33.8762   24.2210 N   0  0  0  0  0  0  0  0  0103  0  0
  -23.4066  -30.4859   21.5461 C   0  0  2  0  0  0  0  0  0104  0  0
  -24.8467  -28.9636   20.1247 C   0  0  0  0  0  0  0  0  0105  0  0
  -22.7412  -29.4652   22.5052 C   0  0  0  0  0  0  0  0  0106  0  0
  -18.0167  -28.1302   22.8626 C   0  0  0  0  0  0  0  0  0107  0  0
  -24.1342  -36.7390   23.2568 C   0  0  0  0  0  0  0  0  0108  0  0
  -25.9141  -30.8882   21.3456 C   0  0  0  0  0  0  0  0  0109  0  0
  -25.9930  -29.5029   20.7208 C   0  0  0  0  0  0  0  0  0110  0  0
  -27.1758  -28.7612   20.7331 C   0  0  0  0  0  0  0  0  0111  0  0
  -26.1032  -26.9836   19.5230 C   0  0  0  0  0  0  0  0  0112  0  0
  -24.9097  -27.7011   19.5331 C   0  0  0  0  0  0  0  0  0113  0  0
  -23.5715  -29.7899   20.1582 C   0  0  0  0  0  0  0  0  0114  0  0
  -25.3990  -36.3212   24.0232 C   0  0  1  0  0  0  0  0  0115  0  0
  -20.5793  -28.3813   23.1004 C   0  0  2  0  0  0  0  0  0116  0  0
  -20.6548  -26.9392   22.5411 C   0  0  0  0  0  0  0  0  0117  0  0
  -19.5615  -26.6407   21.5143 C   0  0  0  0  0  0  0  0  0118  0  0
  -18.1797  -26.7818   22.1673 C   0  0  0  0  0  0  0  0  0119  0  0
  -19.1385  -28.8769   23.2988 C   0  0  0  0  0  0  0  0  0120  0  0
  -18.9183  -30.1286   23.8878 C   0  0  0  0  0  0  0  0  0121  0  0
  -17.6396  -30.6493   24.0352 C   0  0  0  0  0  0  0  0  0122  0  0
  -25.9153  -34.9582   23.4993 C   0  0  0  0  0  0  0  0  0123  0  0
  -16.5415  -29.9068   23.6254 C   0  0  0  0  0  0  0  0  0124  0  0
  -16.7331  -28.6521   23.0586 C   0  0  0  0  0  0  0  0  0125  0  0
  -26.4583  -31.6439   25.0683 C   0  0  0  0  0  0  0  0  0126  0  0
  -25.3807  -31.3179   26.1374 C   0  0  0  0  0  0  0  0  0127  0  0
  -27.0530  -30.3024   24.5680 C   0  0  0  0  0  0  0  0  0128  0  0
  -27.6014  -32.4281   25.7651 C   0  0  0  0  0  0  0  0  0129  0  0
  -27.5629  -37.2220   24.8621 C   0  0  0  0  0  0  0  0  0130  0  0
  -21.4133  -29.3375   22.3735 N   0  0  0  0  0  0  0  0  0131  0  0
  -26.4706  -37.3372   23.9061 N   0  0  0  0  0  0  0  0  0132  0  0
  -24.6674  -31.0544   22.1178 N   0  0  0  0  0  0  0  0  0133  0  0
  -23.4259  -28.8150   23.2971 O   0  0  0  0  0  0  0  0  0134  0  0
  -28.3948  -26.7345   20.0089 O   0  0  0  0  0  0  0  0  0135  0  0
  -26.5870  -34.9065   22.4671 O   0  0  0  0  0  0  0  0  0136  0  0
  -23.5365  -32.1254   23.7833 O   0  0  0  0  0  0  0  0  0137  0  0
  -31.4378  -20.3451   20.3938 C   0  0  0  0  0  0  0  0  0  0  0  0
  -31.1303  -22.5022   21.4373 C   0  0  0  0  0  0  0  0  0  0  0  0
  -31.2781  -21.7266   20.2874 C   0  0  0  0  0  0  0  0  0  0  0  0
  -31.4496  -19.7390   21.6501 C   0  0  0  0  0  0  0  0  0  0  0  0
  -31.3018  -20.5146   22.8000 C   0  0  0  0  0  0  0  0  0  0  0  0
  -31.1421  -21.8962   22.6937 C   0  0  0  0  0  0  0  0  0  0  0  0
  -31.3160  -19.8484   24.1406 C   0  0  0  0  0  0  0  0  0  0  0  0
  -31.6226  -18.2420   21.7348 C   0  0  0  0  0  0  0  0  0  0  0  0
  -31.2667  -22.3740   18.9438 C   0  0  0  0  0  0  0  0  0  0  0  0
  -30.3396  -17.4900   21.3978 C   0  0  0  0  0  0  0  0  0  1  0  0
  -30.0332  -23.0831   18.6858 N   0  0  0  0  0  0  0  0  0  0  0  0
  -30.9580  -22.8909   24.0929 Cl  0  0  0  0  0  0  0  0  0  0  0  0
  -31.4485  -12.4701   19.0860 H   0  0  0  0  0  0  0  0  0  0  0  0
  -30.3970  -11.2460   19.6950 H   0  0  0  0  0  0  0  0  0  0  0  0
  -29.6870  -11.8204   17.4226 H   0  0  0  0  0  0  0  0  0  0  0  0
  -29.6375  -13.5326   17.8649 H   0  0  0  0  0  0  0  0  0  0  0  0
  -27.7830  -11.3650   18.7904 H   0  0  0  0  0  0  0  0  0  0  0  0
  -27.4028  -12.7801   17.8021 H   0  0  0  0  0  0  0  0  0  0  0  0
  -27.7353  -14.2503   19.6136 H   0  0  0  0  0  0  0  0  0  0  0  0
  -28.5890  -11.9550   21.3832 H   0  0  0  0  0  0  0  0  0  0  0  0
  -28.5005  -13.6134   21.8562 H   0  0  0  0  0  0  0  0  0  0  0  0
  -25.2399   -9.5495   22.4318 H   0  0  0  0  0  0  0  0  0  0  0  0
  -23.9663   -7.5070   22.7297 H   0  0  0  0  0  0  0  0  0  0  0  0
  -21.1515   -8.8641   19.9162 H   0  0  0  0  0  0  0  0  0  0  0  0
  -22.4016  -10.9115   19.6476 H   0  0  0  0  0  0  0  0  0  0  0  0
  -21.2319   -7.5552   23.9750 H   0  0  0  0  0  0  0  0  0  0  0  0
  -21.1589   -6.0228   25.8556 H   0  0  0  0  0  0  0  0  0  0  0  0
  -22.0396   -2.8212   23.2809 H   0  0  0  0  0  0  0  0  0  0  0  0
  -22.4401  -11.9703   22.4008 H   0  0  0  0  0  0  0  0  0  0  0  0
  -21.1493  -13.0679   22.2082 H   0  0  0  0  0  0  0  0  0  0  0  0
  -24.6538  -15.7807   20.5848 H   0  0  0  0  0  0  0  0  0  0  0  0
  -26.2762  -15.5453   20.1156 H   0  0  0  0  0  0  0  0  0  0  0  0
  -26.6778  -32.4663   23.1464 H   0  0  0  0  0  0  0  0  0  0  0  0
  -25.0747  -34.0282   25.0566 H   0  0  0  0  0  0  0  0  0  0  0  0
  -22.7881  -31.3489   21.4131 H   0  0  0  0  0  0  0  0  0  0  0  0
  -23.3854  -35.9823   23.3648 H   0  0  0  0  0  0  0  0  0  0  0  0
  -24.3696  -36.8624   22.2204 H   0  0  0  0  0  0  0  0  0  0  0  0
  -23.7669  -37.6632   23.6516 H   0  0  0  0  0  0  0  0  0  0  0  0
  -25.9445  -31.6237   20.5691 H   0  0  0  0  0  0  0  0  0  0  0  0
  -26.7436  -31.0079   22.0108 H   0  0  0  0  0  0  0  0  0  0  0  0
  -28.0090  -29.1452   21.2057 H   0  0  0  0  0  0  0  0  0  0  0  0
  -26.1369  -26.0560   19.0719 H   0  0  0  0  0  0  0  0  0  0  0  0
  -24.0652  -27.2961   19.0997 H   0  0  0  0  0  0  0  0  0  0  0  0
  -23.6156  -30.5365   19.3930 H   0  0  0  0  0  0  0  0  0  0  0  0
  -22.7355  -29.1425   19.9945 H   0  0  0  0  0  0  0  0  0  0  0  0
  -25.1353  -36.2335   25.0565 H   0  0  0  0  0  0  0  0  0  0  0  0
  -21.0070  -28.3206   24.0793 H   0  0  0  0  0  0  0  0  0  0  0  0
  -20.5555  -26.2518   23.3550 H   0  0  0  0  0  0  0  0  0  0  0  0
  -21.5974  -26.8362   22.0454 H   0  0  0  0  0  0  0  0  0  0  0  0
  -19.6810  -25.6422   21.1488 H   0  0  0  0  0  0  0  0  0  0  0  0
  -19.6406  -27.3343   20.7034 H   0  0  0  0  0  0  0  0  0  0  0  0
  -17.4282  -26.6888   21.4113 H   0  0  0  0  0  0  0  0  0  0  0  0
  -18.0803  -26.0130   22.9049 H   0  0  0  0  0  0  0  0  0  0  0  0
  -19.7265  -30.6774   24.2204 H   0  0  0  0  0  0  0  0  0  0  0  0
  -17.5064  -31.5856   24.4483 H   0  0  0  0  0  0  0  0  0  0  0  0
  -15.5878  -30.2839   23.7407 H   0  0  0  0  0  0  0  0  0  0  0  0
  -15.9120  -28.0941   22.7766 H   0  0  0  0  0  0  0  0  0  0  0  0
  -24.5787  -30.7757   25.6817 H   0  0  0  0  0  0  0  0  0  0  0  0
  -25.0041  -32.2289   26.5536 H   0  0  0  0  0  0  0  0  0  0  0  0
  -25.8166  -30.7245   26.9138 H   0  0  0  0  0  0  0  0  0  0  0  0
  -26.2892  -29.7335   24.0803 H   0  0  0  0  0  0  0  0  0  0  0  0
  -27.4336  -29.7484   25.4006 H   0  0  0  0  0  0  0  0  0  0  0  0
  -27.8466  -30.4994   23.8779 H   0  0  0  0  0  0  0  0  0  0  0  0
  -27.2251  -33.3632   26.1242 H   0  0  0  0  0  0  0  0  0  0  0  0
  -28.3902  -32.6065   25.0645 H   0  0  0  0  0  0  0  0  0  0  0  0
  -27.9772  -31.8555   26.5872 H   0  0  0  0  0  0  0  0  0  0  0  0
  -28.2744  -38.0016   24.6863 H   0  0  0  0  0  0  0  0  0  0  0  0
  -28.0396  -36.2711   24.7461 H   0  0  0  0  0  0  0  0  0  0  0  0
  -27.1773  -37.3087   25.8564 H   0  0  0  0  0  0  0  0  0  0  0  0
  -20.9627  -29.9365   21.7352 H   0  0  0  0  0  0  0  0  0  0  0  0
  -26.0447  -38.2561   24.0273 H   0  0  0  0  0  0  0  0  0  0  0  0
  -31.5472  -19.7713   19.5430 H   0  0  0  0  0  0  0  0  0  0  0  0
  -31.0122  -23.5244   21.3586 H   0  0  0  0  0  0  0  0  0  0  0  0
  -31.4480  -18.7942   24.0136 H   0  0  0  0  0  0  0  0  0  0  0  0
  -30.3886  -20.0340   24.6410 H   0  0  0  0  0  0  0  0  0  0  0  0
  -32.1216  -20.2408   24.7254 H   0  0  0  0  0  0  0  0  0  0  0  0
  -31.9199  -17.9860   22.7303 H   0  0  0  0  0  0  0  0  0  0  0  0
  -32.3656  -17.9578   21.0192 H   0  0  0  0  0  0  0  0  0  0  0  0
  -31.3916  -21.6182   18.1968 H   0  0  0  0  0  0  0  0  0  0  0  0
  -32.0649  -23.0861   18.9172 H   0  0  0  0  0  0  0  0  0  0  0  0
  -29.8333  -16.9947   22.1998 H   0  0  0  0  0  0  0  0  0  0  0  0
  -30.2048  -16.6718   20.7216 H   0  0  0  0  0  0  0  0  0  0  0  0
  -29.5165  -23.8916   18.4653 H   0  0  0  0  0  0  0  0  0  0  0  0
  1 25  1  0
  1 30  2  0
  1 81  1  0
  2  3  1  0
  2 25  1  0
  2 83  1  0
  2 84  1  0
  3  4  1  0
  3 85  1  0
  3 86  1  0
  4  5  1  0
  4 87  1  0
  4 88  1  0
  5  6  1  0
  5 26  1  0
  5 89  1  6
  6 25  1  0
  6 90  1  0
  6 91  1  0
  7  8  2  0
  7 26  1  0
  7 29  1  0
  8  9  1  0
  8 22  1  0
  9 10  1  0
  9 27  2  0
 10 11  2  0
 10 15  1  0
 11 12  1  0
 11 92  1  0
 12 13  2  0
 12 93  1  0
 13 14  1  0
 13 31  1  0
 14 15  2  0
 14 94  1  0
 15 95  1  0
 16 17  2  0
 16 21  1  0
 16 31  1  0
 17 18  1  0
 17 96  1  0
 18 19  2  0
 18 97  1  0
 19 20  1  0
 19 24  1  0
 20 21  2  0
 20 98  1  0
 21 23  1  0
 22 28  1  0
 22 32  2  0
 26 27  1  0
 28 99  1  0
 28100  1  0
 29101  1  0
 29102  1  0
 33 34  1  0
 33 66  1  0
 33 70  2  0
 34 36  1  0
 34 59  1  0
 34103  1  6
 35 44  2  0
 35 45  1  0
 35 68  1  0
 36 56  1  0
 36104  1  0
 37 39  1  0
 37 47  1  0
 37 66  1  0
 37105  1  6
 38 43  2  0
 38 46  1  0
 38 47  1  0
 39 64  1  0
 39 67  2  0
 40 52  1  0
 40 53  2  0
 40 58  1  0
 41106  1  0
 41107  1  0
 41108  1  0
 42 43  1  0
 42 66  1  0
 42109  1  0
 42110  1  0
 43 44  1  0
 44111  1  0
 45 46  2  0
 45112  1  0
 46113  1  0
 47114  1  0
 47115  1  0
 48 41  1  0
 48 56  1  0
 48 65  1  0
 48116  1  1
 49 50  1  0
 49 53  1  0
 49 64  1  0
 49117  1  1
 50 51  1  0
 50118  1  0
 50119  1  0
 51 52  1  0
 51120  1  0
 51121  1  0
 52122  1  0
 52123  1  0
 53 54  1  0
 54 55  2  0
 54124  1  0
 55 57  1  0
 55125  1  0
 56 69  2  0
 57 58  2  0
 57126  1  0
 58127  1  0
 59 60  1  0
 59 61  1  0
 59 62  1  0
 60128  1  0
 60129  1  0
 60130  1  0
 61131  1  0
 61132  1  0
 61133  1  0
 62134  1  0
 62135  1  0
 62136  1  0
 63 65  1  0
 63137  1  0
 63138  1  0
 63139  1  0
 64140  1  0
 65141  1  0
 68 80  1  0
 71 73  2  0
 71 74  1  0
 71142  1  0
 72 73  1  0
 72 76  2  0
 72143  1  0
 73 79  1  0
 74 75  2  0
 74 78  1  0
 75 76  1  0
 75 77  1  0
 76 82  1  0
 77144  1  0
 77145  1  0
 77146  1  0
 78 80  1  0
 78147  1  0
 78148  1  0
 79 81  1  0
 79149  1  0
 79150  1  0
 80151  1  0
 80152  1  0
 81153  1  0
M  ISO  4   1 100  68 101  80 101  81 100
M  END
$$$$
65
     RDKit          3D

178187  0  0  0  0  0  0  0  0999 V2000
  -30.7652  -14.3608   20.6636 C   0  0  0  0  0  0  0  0  0100  0  0
  -30.4392  -12.2669   19.3775 C   0  0  0  0  0  0  0  0  0101  0  0
  -29.4791  -12.5281   18.1977 C   0  0  0  0  0  0  0  0  0102  0  0
  -27.9985  -12.3963   18.6038 C   0  0  0  0  0  0  0  0  0103  0  0
  -27.6639  -13.2170   19.8820 C   0  0  2  0  0  0  0  0  0104  0  0
  -28.6795  -12.9602   21.0279 C   0  0  0  0  0  0  0  0  0105  0  0
  -25.2633  -13.8245   20.5754 C   0  0  0  0  0  0  0  0  0106  0  0
  -24.1645  -13.0409   20.9408 C   0  0  0  0  0  0  0  0  0107  0  0
  -24.6400  -11.7009   20.8697 C   0  0  0  0  0  0  0  0  0108  0  0
  -23.9005  -10.4085   21.0420 C   0  0  0  0  0  0  0  0  0109  0  0
  -24.3588   -9.4123   21.9123 C   0  0  0  0  0  0  0  0  0110  0  0
  -23.6296   -8.2350   22.0803 C   0  0  0  0  0  0  0  0  0111  0  0
  -22.4385   -8.0419   21.3657 C   0  0  0  0  0  0  0  0  0112  0  0
  -22.0103   -9.0167   20.4678 C   0  0  0  0  0  0  0  0  0113  0  0
  -22.7317  -10.1925   20.3102 C   0  0  0  0  0  0  0  0  0114  0  0
  -21.6857   -6.0709   22.5391 C   0  0  0  0  0  0  0  0  0115  0  0
  -21.4064   -6.5490   23.8264 C   0  0  0  0  0  0  0  0  0116  0  0
  -21.3635   -5.6677   24.9085 C   0  0  0  0  0  0  0  0  0117  0  0
  -21.5973   -4.3067   24.7088 C   0  0  0  0  0  0  0  0  0118  0  0
  -21.8700   -3.8284   23.4282 C   0  0  0  0  0  0  0  0  0119  0  0
  -21.9144   -4.7056   22.3460 C   0  0  0  0  0  0  0  0  0120  0  0
  -22.8194  -13.5263   21.1763 C   0  0  0  0  0  0  0  0  0121  0  0
  -22.1559   -4.2206   21.1063 F   0  0  0  0  0  0  0  0  0122  0  0
  -21.5628   -3.4510   25.7555 F   0  0  0  0  0  0  0  0  0123  0  0
  -30.0261  -13.1803   20.4553 N   0  0  0  0  0  0  0  0  0124  0  0
  -26.2911  -12.9356   20.3443 N   0  0  0  0  0  0  0  0  0125  0  0
  -25.9236  -11.6675   20.5847 N   0  0  0  0  0  0  0  0  0126  0  0
  -22.0708  -12.7905   22.0005 N   0  0  0  0  0  0  0  0  0127  0  0
  -25.4117  -15.1773   20.4097 N   0  0  0  0  0  0  0  0  0128  0  0
  -31.7916  -14.6724   20.0536 O   0  0  0  0  0  0  0  0  0129  0  0
  -21.6670   -6.9022   21.4423 O   0  0  0  0  0  0  0  0  0130  0  0
  -22.3946  -14.5564   20.6568 O   0  0  0  0  0  0  0  0  0131  0  0
  -24.6048  -31.8614   23.2223 C   0  0  0  0  0  0  0  0  0100  0  0
  -25.8822  -32.4841   23.8616 C   0  0  1  0  0  0  0  0  0101  0  0
  -27.2536  -27.5042   20.1156 C   0  0  0  0  0  0  0  0  0102  0  0
  -25.5726  -33.8762   24.2210 N   0  0  0  0  0  0  0  0  0103  0  0
  -23.4066  -30.4859   21.5461 C   0  0  2  0  0  0  0  0  0104  0  0
  -24.8467  -28.9636   20.1247 C   0  0  0  0  0  0  0  0  0105  0  0
  -22.7412  -29.4652   22.5052 C   0  0  0  0  0  0  0  0  0106  0  0
  -18.0167  -28.1302   22.8626 C   0  0  0  0  0  0  0  0  0107  0  0
  -24.1342  -36.7390   23.2568 C   0  0  0  0  0  0  0  0  0108  0  0
  -25.9141  -30.8882   21.3456 C   0  0  0  0  0  0  0  0  0109  0  0
  -25.9930  -29.5029   20.7208 C   0  0  0  0  0  0  0  0  0110  0  0
  -27.1758  -28.7612   20.7331 C   0  0  0  0  0  0  0  0  0111  0  0
  -26.1032  -26.9836   19.5230 C   0  0  0  0  0  0  0  0  0112  0  0
  -24.9097  -27.7011   19.5331 C   0  0  0  0  0  0  0  0  0113  0  0
  -23.5715  -29.7899   20.1582 C   0  0  0  0  0  0  0  0  0114  0  0
  -25.3990  -36.3212   24.0232 C   0  0  1  0  0  0  0  0  0115  0  0
  -20.5793  -28.3813   23.1004 C   0  0  2  0  0  0  0  0  0116  0  0
  -20.6548  -26.9392   22.5411 C   0  0  0  0  0  0  0  0  0117  0  0
  -19.5615  -26.6407   21.5143 C   0  0  0  0  0  0  0  0  0118  0  0
  -18.1797  -26.7818   22.1673 C   0  0  0  0  0  0  0  0  0119  0  0
  -19.1385  -28.8769   23.2988 C   0  0  0  0  0  0  0  0  0120  0  0
  -18.9183  -30.1286   23.8878 C   0  0  0  0  0  0  0  0  0121  0  0
  -17.6396  -30.6493   24.0352 C   0  0  0  0  0  0  0  0  0122  0  0
  -25.9153  -34.9582   23.4993 C   0  0  0  0  0  0  0  0  0123  0  0
  -16.5415  -29.9068   23.6254 C   0  0  0  0  0  0  0  0  0124  0  0
  -16.7331  -28.6521   23.0586 C   0  0  0  0  0  0  0  0  0125  0  0
  -26.4583  -31.6439   25.0683 C   0  0  0  0  0  0  0  0  0126  0  0
  -25.3807  -31.3179   26.1374 C   0  0  0  0  0  0  0  0  0127  0  0
  -27.0530  -30.3024   24.5680 C   0  0  0  0  0  0  0  0  0128  0  0
  -27.6014  -32.4281   25.7651 C   0  0  0  0  0  0  0  0  0129  0  0
  -27.5629  -37.2220   24.8621 C   0  0  0  0  0  0  0  0  0130  0  0
  -21.4133  -29.3375   22.3735 N   0  0  0  0  0  0  0  0  0131  0  0
  -26.4706  -37.3372   23.9061 N   0  0  0  0  0  0  0  0  0132  0  0
  -24.6674  -31.0544   22.1178 N   0  0  0  0  0  0  0  0  0133  0  0
  -23.4259  -28.8150   23.2971 O   0  0  0  0  0  0  0  0  0134  0  0
  -28.3948  -26.7345   20.0089 O   0  0  0  0  0  0  0  0  0135  0  0
  -26.5870  -34.9065   22.4671 O   0  0  0  0  0  0  0  0  0136  0  0
  -23.5365  -32.1254   23.7833 O   0  0  0  0  0  0  0  0  0137  0  0
  -27.6222  -24.0953   18.3531 C   0  0  0  0  0  0  0  0  0  0  0  0
  -29.5900  -23.5087   19.6158 C   0  0  0  0  0  0  0  0  0  0  0  0
  -26.7879  -23.3880   19.2441 C   0  0  0  0  0  0  0  0  0  0  0  0
  -27.3990  -22.7096   20.3207 C   0  0  0  0  0  0  0  0  0  0  0  0
  -29.0046  -24.1575   18.5377 C   0  0  0  0  0  0  0  0  0  0  0  0
  -28.7923  -22.7907   20.5018 C   0  0  0  0  0  0  0  0  0  0  0  0
  -26.6102  -21.9276   21.3382 C   0  0  0  0  0  0  0  0  0  0  0  0
  -25.2194  -21.5459   20.8548 C   0  0  0  0  0  0  0  0  0  0  0  0
  -24.5329  -22.7741   20.2684 C   0  0  1  0  0  0  0  0  0  0  0  0
  -25.2644  -23.3257   19.0026 C   0  0  0  0  0  0  0  0  0  0  0  0
  -29.4748  -22.1213   21.6542 C   0  0  0  0  0  0  0  0  0  0  0  0
  -24.7044  -24.7406   18.7070 C   0  0  0  0  0  0  0  0  0  0  0  0
  -25.0250  -22.4394   17.7567 C   0  0  0  0  0  0  0  0  0  0  0  0
  -29.8516  -24.9200   17.5754 C   0  0  0  0  0  0  0  0  0  0  0  0
  -20.8182  -22.0056   20.8025 C   0  0  0  0  0  0  0  0  0  0  0  0
  -30.0453  -26.3916   17.9601 C   0  0  0  0  0  0  0  0  0  0  0  0
  -22.2439  -22.3743   21.1843 C   0  0  0  0  0  0  0  0  0  0  0  0
  -20.7012  -20.6617   20.0940 C   0  0  0  0  0  0  0  0  0  1  0  0
  -28.7883  -27.0998   18.0556 N   0  0  0  0  0  0  0  0  0  0  0  0
  -23.1155  -22.4056   19.9826 N   0  0  0  0  0  0  0  0  0  0  0  0
  -31.4485  -12.4701   19.0860 H   0  0  0  0  0  0  0  0  0  0  0  0
  -30.3970  -11.2460   19.6950 H   0  0  0  0  0  0  0  0  0  0  0  0
  -29.6870  -11.8204   17.4226 H   0  0  0  0  0  0  0  0  0  0  0  0
  -29.6375  -13.5326   17.8649 H   0  0  0  0  0  0  0  0  0  0  0  0
  -27.7830  -11.3650   18.7904 H   0  0  0  0  0  0  0  0  0  0  0  0
  -27.4028  -12.7801   17.8021 H   0  0  0  0  0  0  0  0  0  0  0  0
  -27.7353  -14.2503   19.6136 H   0  0  0  0  0  0  0  0  0  0  0  0
  -28.5890  -11.9550   21.3832 H   0  0  0  0  0  0  0  0  0  0  0  0
  -28.5005  -13.6134   21.8562 H   0  0  0  0  0  0  0  0  0  0  0  0
  -25.2399   -9.5495   22.4318 H   0  0  0  0  0  0  0  0  0  0  0  0
  -23.9663   -7.5070   22.7297 H   0  0  0  0  0  0  0  0  0  0  0  0
  -21.1515   -8.8641   19.9162 H   0  0  0  0  0  0  0  0  0  0  0  0
  -22.4016  -10.9115   19.6476 H   0  0  0  0  0  0  0  0  0  0  0  0
  -21.2319   -7.5552   23.9750 H   0  0  0  0  0  0  0  0  0  0  0  0
  -21.1589   -6.0228   25.8556 H   0  0  0  0  0  0  0  0  0  0  0  0
  -22.0396   -2.8212   23.2809 H   0  0  0  0  0  0  0  0  0  0  0  0
  -22.4401  -11.9703   22.4008 H   0  0  0  0  0  0  0  0  0  0  0  0
  -21.1493  -13.0679   22.2082 H   0  0  0  0  0  0  0  0  0  0  0  0
  -24.6538  -15.7807   20.5848 H   0  0  0  0  0  0  0  0  0  0  0  0
  -26.2762  -15.5453   20.1156 H   0  0  0  0  0  0  0  0  0  0  0  0
  -26.6778  -32.4663   23.1464 H   0  0  0  0  0  0  0  0  0  0  0  0
  -25.0747  -34.0282   25.0566 H   0  0  0  0  0  0  0  0  0  0  0  0
  -22.7881  -31.3489   21.4131 H   0  0  0  0  0  0  0  0  0  0  0  0
  -23.3854  -35.9823   23.3648 H   0  0  0  0  0  0  0  0  0  0  0  0
  -24.3696  -36.8624   22.2204 H   0  0  0  0  0  0  0  0  0  0  0  0
  -23.7669  -37.6632   23.6516 H   0  0  0  0  0  0  0  0  0  0  0  0
  -25.9445  -31.6237   20.5691 H   0  0  0  0  0  0  0  0  0  0  0  0
  -26.7436  -31.0079   22.0108 H   0  0  0  0  0  0  0  0  0  0  0  0
  -28.0090  -29.1452   21.2057 H   0  0  0  0  0  0  0  0  0  0  0  0
  -26.1369  -26.0560   19.0719 H   0  0  0  0  0  0  0  0  0  0  0  0
  -24.0652  -27.2961   19.0997 H   0  0  0  0  0  0  0  0  0  0  0  0
  -23.6156  -30.5365   19.3930 H   0  0  0  0  0  0  0  0  0  0  0  0
  -22.7355  -29.1425   19.9945 H   0  0  0  0  0  0  0  0  0  0  0  0
  -25.1353  -36.2335   25.0565 H   0  0  0  0  0  0  0  0  0  0  0  0
  -21.0070  -28.3206   24.0793 H   0  0  0  0  0  0  0  0  0  0  0  0
  -20.5555  -26.2518   23.3550 H   0  0  0  0  0  0  0  0  0  0  0  0
  -21.5974  -26.8362   22.0454 H   0  0  0  0  0  0  0  0  0  0  0  0
  -19.6810  -25.6422   21.1488 H   0  0  0  0  0  0  0  0  0  0  0  0
  -19.6406  -27.3343   20.7034 H   0  0  0  0  0  0  0  0  0  0  0  0
  -17.4282  -26.6888   21.4113 H   0  0  0  0  0  0  0  0  0  0  0  0
  -18.0803  -26.0130   22.9049 H   0  0  0  0  0  0  0  0  0  0  0  0
  -19.7265  -30.6774   24.2204 H   0  0  0  0  0  0  0  0  0  0  0  0
  -17.5064  -31.5856   24.4483 H   0  0  0  0  0  0  0  0  0  0  0  0
  -15.5878  -30.2839   23.7407 H   0  0  0  0  0  0  0  0  0  0  0  0
  -15.9120  -28.0941   22.7766 H   0  0  0  0  0  0  0  0  0  0  0  0
  -24.5787  -30.7757   25.6817 H   0  0  0  0  0  0  0  0  0  0  0  0
  -25.0041  -32.2289   26.5536 H   0  0  0  0  0  0  0  0  0  0  0  0
  -25.8166  -30.7245   26.9138 H   0  0  0  0  0  0  0  0  0  0  0  0
  -26.2892  -29.7335   24.0803 H   0  0  0  0  0  0  0  0  0  0  0  0
  -27.4336  -29.7484   25.4006 H   0  0  0  0  0  0  0  0  0  0  0  0
  -27.8466  -30.4994   23.8779 H   0  0  0  0  0  0  0  0  0  0  0  0
  -27.2251  -33.3632   26.1242 H   0  0  0  0  0  0  0  0  0  0  0  0
  -28.3902  -32.6065   25.0645 H   0  0  0  0  0  0  0  0  0  0  0  0
  -27.9772  -31.8555   26.5872 H   0  0  0  0  0  0  0  0  0  0  0  0
  -28.2744  -38.0016   24.6863 H   0  0  0  0  0  0  0  0  0  0  0  0
  -28.0396  -36.2711   24.7461 H   0  0  0  0  0  0  0  0  0  0  0  0
  -27.1773  -37.3087   25.8564 H   0  0  0  0  0  0  0  0  0  0  0  0
  -20.9627  -29.9365   21.7352 H   0  0  0  0  0  0  0  0  0  0  0  0
  -26.0447  -38.2561   24.0273 H   0  0  0  0  0  0  0  0  0  0  0  0
  -27.2002  -24.5787   17.5449 H   0  0  0  0  0  0  0  0  0  0  0  0
  -30.6107  -23.5584   19.7596 H   0  0  0  0  0  0  0  0  0  0  0  0
  -26.5115  -22.5225   22.2221 H   0  0  0  0  0  0  0  0  0  0  0  0
  -27.1431  -21.0182   21.5227 H   0  0  0  0  0  0  0  0  0  0  0  0
  -24.6449  -21.1744   21.6775 H   0  0  0  0  0  0  0  0  0  0  0  0
  -25.2974  -20.7873   20.1042 H   0  0  0  0  0  0  0  0  0  0  0  0
  -24.5689  -23.5762   20.9757 H   0  0  0  0  0  0  0  0  0  0  0  0
  -30.5271  -22.3080   21.6028 H   0  0  0  0  0  0  0  0  0  0  0  0
  -29.2970  -21.0671   21.6105 H   0  0  0  0  0  0  0  0  0  0  0  0
  -29.0880  -22.5105   22.5728 H   0  0  0  0  0  0  0  0  0  0  0  0
  -24.8601  -25.3707   19.5577 H   0  0  0  0  0  0  0  0  0  0  0  0
  -23.6568  -24.6735   18.4999 H   0  0  0  0  0  0  0  0  0  0  0  0
  -25.2097  -25.1543   17.8594 H   0  0  0  0  0  0  0  0  0  0  0  0
  -25.4051  -21.4561   17.9401 H   0  0  0  0  0  0  0  0  0  0  0  0
  -25.5287  -22.8651   16.9141 H   0  0  0  0  0  0  0  0  0  0  0  0
  -23.9757  -22.3842   17.5545 H   0  0  0  0  0  0  0  0  0  0  0  0
  -29.3881  -24.8805   16.6118 H   0  0  0  0  0  0  0  0  0  0  0  0
  -30.8198  -24.4644   17.5804 H   0  0  0  0  0  0  0  0  0  0  0  0
  -20.4357  -22.7645   20.1524 H   0  0  0  0  0  0  0  0  0  0  0  0
  -20.2610  -21.9285   21.7127 H   0  0  0  0  0  0  0  0  0  0  0  0
  -30.6524  -26.8652   17.2171 H   0  0  0  0  0  0  0  0  0  0  0  0
  -30.5137  -26.4215   18.9217 H   0  0  0  0  0  0  0  0  0  0  0  0
  -22.6220  -21.6489   21.8741 H   0  0  0  0  0  0  0  0  0  0  0  0
  -22.2405  -23.3456   21.6332 H   0  0  0  0  0  0  0  0  0  0  0  0
  -20.0801  -20.5439   19.2307 H   0  0  0  0  0  0  0  0  0  0  0  0
  -20.4954  -19.6435   20.3505 H   0  0  0  0  0  0  0  0  0  0  0  0
  -28.2257  -27.9044   17.9826 H   0  0  0  0  0  0  0  0  0  0  0  0
  -23.1051  -21.4796   19.5550 H   0  0  0  0  0  0  0  0  0  0  0  0
  -22.7420  -23.1278   19.3667 H   0  0  0  0  0  0  0  0  0  0  0  0
  1 25  1  0
  1 30  2  0
  1 89  1  0
  2  3  1  0
  2 25  1  0
  2 91  1  0
  2 92  1  0
  3  4  1  0
  3 93  1  0
  3 94  1  0
  4  5  1  0
  4 95  1  0
  4 96  1  0
  5  6  1  0
  5 26  1  0
  5 97  1  6
  6 25  1  0
  6 98  1  0
  6 99  1  0
  7  8  2  0
  7 26  1  0
  7 29  1  0
  8  9  1  0
  8 22  1  0
  9 10  1  0
  9 27  2  0
 10 11  2  0
 10 15  1  0
 11 12  1  0
 11100  1  0
 12 13  2  0
 12101  1  0
 13 14  1  0
 13 31  1  0
 14 15  2  0
 14102  1  0
 15103  1  0
 16 17  2  0
 16 21  1  0
 16 31  1  0
 17 18  1  0
 17104  1  0
 18 19  2  0
 18105  1  0
 19 20  1  0
 19 24  1  0
 20 21  2  0
 20106  1  0
 21 23  1  0
 22 28  1  0
 22 32  2  0
 26 27  1  0
 28107  1  0
 28108  1  0
 29109  1  0
 29110  1  0
 33 34  1  0
 33 66  1  0
 33 70  2  0
 34 36  1  0
 34 59  1  0
 34111  1  6
 35 44  2  0
 35 45  1  0
 35 68  1  0
 36 56  1  0
 36112  1  0
 37 39  1  0
 37 47  1  0
 37 66  1  0
 37113  1  6
 38 43  2  0
 38 46  1  0
 38 47  1  0
 39 64  1  0
 39 67  2  0
 40 52  1  0
 40 53  2  0
 40 58  1  0
 41114  1  0
 41115  1  0
 41116  1  0
 42 43  1  0
 42 66  1  0
 42117  1  0
 42118  1  0
 43 44  1  0
 44119  1  0
 45 46  2  0
 45120  1  0
 46121  1  0
 47122  1  0
 47123  1  0
 48 41  1  0
 48 56  1  0
 48 65  1  0
 48124  1  1
 49 50  1  0
 49 53  1  0
 49 64  1  0
 49125  1  1
 50 51  1  0
 50126  1  0
 50127  1  0
 51 52  1  0
 51128  1  0
 51129  1  0
 52130  1  0
 52131  1  0
 53 54  1  0
 54 55  2  0
 54132  1  0
 55 57  1  0
 55133  1  0
 56 69  2  0
 57 58  2  0
 57134  1  0
 58135  1  0
 59 60  1  0
 59 61  1  0
 59 62  1  0
 60136  1  0
 60137  1  0
 60138  1  0
 61139  1  0
 61140  1  0
 61141  1  0
 62142  1  0
 62143  1  0
 62144  1  0
 63 65  1  0
 63145  1  0
 63146  1  0
 63147  1  0
 64148  1  0
 65149  1  0
 68 88  1  0
 71 73  2  0
 71 75  1  0
 71150  1  0
 72 75  2  0
 72 76  1  0
 72151  1  0
 73 74  1  0
 73 80  1  0
 74 76  2  0
 74 77  1  0
 75 84  1  0
 76 81  1  0
 77 78  1  0
 77152  1  0
 77153  1  0
 78 79  1  0
 78154  1  0
 78155  1  0
 79 80  1  0
 79 90  1  0
 79156  1  1
 80 82  1  0
 80 83  1  0
 81157  1  0
 81158  1  0
 81159  1  0
 82160  1  0
 82161  1  0
 82162  1  0
 83163  1  0
 83164  1  0
 83165  1  0
 84 86  1  0
 84166  1  0
 84167  1  0
 85 87  1  0
 85 88  1  0
 85168  1  0
 85169  1  0
 86 89  1  0
 86170  1  0
 86171  1  0
 87 90  1  0
 87172  1  0
 87173  1  0
 88174  1  0
 88175  1  0
 89176  1  0
 90177  1  0
 90178  1  0
M  CHG  1  90   1
M  ISO  4   1 100  68 101  88 101  89 100
M  END
$$$$
66
     RDKit          3D

153161  0  0  0  0  0  0  0  0999 V2000
  -30.7652  -14.3608   20.6636 C   0  0  0  0  0  0  0  0  0100  0  0
  -30.4392  -12.2669   19.3775 C   0  0  0  0  0  0  0  0  0101  0  0
  -29.4791  -12.5281   18.1977 C   0  0  0  0  0  0  0  0  0102  0  0
  -27.9985  -12.3963   18.6038 C   0  0  0  0  0  0  0  0  0103  0  0
  -27.6639  -13.2170   19.8820 C   0  0  2  0  0  0  0  0  0104  0  0
  -28.6795  -12.9602   21.0279 C   0  0  0  0  0  0  0  0  0105  0  0
  -25.2633  -13.8245   20.5754 C   0  0  0  0  0  0  0  0  0106  0  0
  -24.1645  -13.0409   20.9408 C   0  0  0  0  0  0  0  0  0107  0  0
  -24.6400  -11.7009   20.8697 C   0  0  0  0  0  0  0  0  0108  0  0
  -23.9005  -10.4085   21.0420 C   0  0  0  0  0  0  0  0  0109  0  0
  -24.3588   -9.4123   21.9123 C   0  0  0  0  0  0  0  0  0110  0  0
  -23.6296   -8.2350   22.0803 C   0  0  0  0  0  0  0  0  0111  0  0
  -22.4385   -8.0419   21.3657 C   0  0  0  0  0  0  0  0  0112  0  0
  -22.0103   -9.0167   20.4678 C   0  0  0  0  0  0  0  0  0113  0  0
  -22.7317  -10.1925   20.3102 C   0  0  0  0  0  0  0  0  0114  0  0
  -21.6857   -6.0709   22.5391 C   0  0  0  0  0  0  0  0  0115  0  0
  -21.4064   -6.5490   23.8264 C   0  0  0  0  0  0  0  0  0116  0  0
  -21.3635   -5.6677   24.9085 C   0  0  0  0  0  0  0  0  0117  0  0
  -21.5973   -4.3067   24.7088 C   0  0  0  0  0  0  0  0  0118  0  0
  -21.8700   -3.8284   23.4282 C   0  0  0  0  0  0  0  0  0119  0  0
  -21.9144   -4.7056   22.3460 C   0  0  0  0  0  0  0  0  0120  0  0
  -22.8194  -13.5263   21.1763 C   0  0  0  0  0  0  0  0  0121  0  0
  -22.1559   -4.2206   21.1063 F   0  0  0  0  0  0  0  0  0122  0  0
  -21.5628   -3.4510   25.7555 F   0  0  0  0  0  0  0  0  0123  0  0
  -30.0261  -13.1803   20.4553 N   0  0  0  0  0  0  0  0  0124  0  0
  -26.2911  -12.9356   20.3443 N   0  0  0  0  0  0  0  0  0125  0  0
  -25.9236  -11.6675   20.5847 N   0  0  0  0  0  0  0  0  0126  0  0
  -22.0708  -12.7905   22.0005 N   0  0  0  0  0  0  0  0  0127  0  0
  -25.4117  -15.1773   20.4097 N   0  0  0  0  0  0  0  0  0128  0  0
  -31.7916  -14.6724   20.0536 O   0  0  0  0  0  0  0  0  0129  0  0
  -21.6670   -6.9022   21.4423 O   0  0  0  0  0  0  0  0  0130  0  0
  -22.3946  -14.5564   20.6568 O   0  0  0  0  0  0  0  0  0131  0  0
  -24.6048  -31.8614   23.2223 C   0  0  0  0  0  0  0  0  0100  0  0
  -25.8822  -32.4841   23.8616 C   0  0  1  0  0  0  0  0  0101  0  0
  -27.2536  -27.5042   20.1156 C   0  0  0  0  0  0  0  0  0102  0  0
  -25.5726  -33.8762   24.2210 N   0  0  0  0  0  0  0  0  0103  0  0
  -23.4066  -30.4859   21.5461 C   0  0  2  0  0  0  0  0  0104  0  0
  -24.8467  -28.9636   20.1247 C   0  0  0  0  0  0  0  0  0105  0  0
  -22.7412  -29.4652   22.5052 C   0  0  0  0  0  0  0  0  0106  0  0
  -18.0167  -28.1302   22.8626 C   0  0  0  0  0  0  0  0  0107  0  0
  -24.1342  -36.7390   23.2568 C   0  0  0  0  0  0  0  0  0108  0  0
  -25.9141  -30.8882   21.3456 C   0  0  0  0  0  0  0  0  0109  0  0
  -25.9930  -29.5029   20.7208 C   0  0  0  0  0  0  0  0  0110  0  0
  -27.1758  -28.7612   20.7331 C   0  0  0  0  0  0  0  0  0111  0  0
  -26.1032  -26.9836   19.5230 C   0  0  0  0  0  0  0  0  0112  0  0
  -24.9097  -27.7011   19.5331 C   0  0  0  0  0  0  0  0  0113  0  0
  -23.5715  -29.7899   20.1582 C   0  0  0  0  0  0  0  0  0114  0  0
  -25.3990  -36.3212   24.0232 C   0  0  1  0  0  0  0  0  0115  0  0
  -20.5793  -28.3813   23.1004 C   0  0  2  0  0  0  0  0  0116  0  0
  -20.6548  -26.9392   22.5411 C   0  0  0  0  0  0  0  0  0117  0  0
  -19.5615  -26.6407   21.5143 C   0  0  0  0  0  0  0  0  0118  0  0
  -18.1797  -26.7818   22.1673 C   0  0  0  0  0  0  0  0  0119  0  0
  -19.1385  -28.8769   23.2988 C   0  0  0  0  0  0  0  0  0120  0  0
  -18.9183  -30.1286   23.8878 C   0  0  0  0  0  0  0  0  0121  0  0
  -17.6396  -30.6493   24.0352 C   0  0  0  0  0  0  0  0  0122  0  0
  -25.9153  -34.9582   23.4993 C   0  0  0  0  0  0  0  0  0123  0  0
  -16.5415  -29.9068   23.6254 C   0  0  0  0  0  0  0  0  0124  0  0
  -16.7331  -28.6521   23.0586 C   0  0  0  0  0  0  0  0  0125  0  0
  -26.4583  -31.6439   25.0683 C   0  0  0  0  0  0  0  0  0126  0  0
  -25.3807  -31.3179   26.1374 C   0  0  0  0  0  0  0  0  0127  0  0
  -27.0530  -30.3024   24.5680 C   0  0  0  0  0  0  0  0  0128  0  0
  -27.6014  -32.4281   25.7651 C   0  0  0  0  0  0  0  0  0129  0  0
  -27.5629  -37.2220   24.8621 C   0  0  0  0  0  0  0  0  0130  0  0
  -21.4133  -29.3375   22.3735 N   0  0  0  0  0  0  0  0  0131  0  0
  -26.4706  -37.3372   23.9061 N   0  0  0  0  0  0  0  0  0132  0  0
  -24.6674  -31.0544   22.1178 N   0  0  0  0  0  0  0  0  0133  0  0
  -23.4259  -28.8150   23.2971 O   0  0  0  0  0  0  0  0  0134  0  0
  -28.3948  -26.7345   20.0089 O   0  0  0  0  0  0  0  0  0135  0  0
  -26.5870  -34.9065   22.4671 O   0  0  0  0  0  0  0  0  0136  0  0
  -23.5365  -32.1254   23.7833 O   0  0  0  0  0  0  0  0  0137  0  0
  -30.7881  -24.6569   16.1863 C   0  0  0  0  0  0  0  0  0  0  0  0
  -31.2233  -25.8866   16.6162 C   0  0  0  0  0  0  0  0  0  0  0  0
  -32.5584  -25.6706   17.0070 C   0  0  0  0  0  0  0  0  0  0  0  0
  -30.4485  -27.1393   16.6510 C   0  0  0  0  0  0  0  0  0  0  0  0
  -31.7248  -21.4239   17.2205 C   0  0  0  0  0  0  0  0  0  0  0  0
  -30.4560  -21.7037   18.0275 C   0  0  0  0  0  0  0  0  0  0  0  0
  -31.8759  -22.3424   16.0026 C   0  0  0  0  0  0  0  0  0  0  0  0
  -30.3579  -20.7974   19.2473 C   0  0  0  0  0  0  0  0  0  1  0  0
  -32.9458  -24.4032   16.8402 N   0  0  0  0  0  0  0  0  0  0  0  0
  -31.8475  -23.8119   16.3400 N   0  0  0  0  0  0  0  0  0  0  0  0
  -29.4922  -27.1824   17.7347 N   0  0  0  0  0  0  0  0  0  0  0  0
  -33.6285  -26.8308   17.6276 Cl  0  0  0  0  0  0  0  0  0  0  0  0
  -31.4485  -12.4701   19.0860 H   0  0  0  0  0  0  0  0  0  0  0  0
  -30.3970  -11.2460   19.6950 H   0  0  0  0  0  0  0  0  0  0  0  0
  -29.6870  -11.8204   17.4226 H   0  0  0  0  0  0  0  0  0  0  0  0
  -29.6375  -13.5326   17.8649 H   0  0  0  0  0  0  0  0  0  0  0  0
  -27.7830  -11.3650   18.7904 H   0  0  0  0  0  0  0  0  0  0  0  0
  -27.4028  -12.7801   17.8021 H   0  0  0  0  0  0  0  0  0  0  0  0
  -27.7353  -14.2503   19.6136 H   0  0  0  0  0  0  0  0  0  0  0  0
  -28.5890  -11.9550   21.3832 H   0  0  0  0  0  0  0  0  0  0  0  0
  -28.5005  -13.6134   21.8562 H   0  0  0  0  0  0  0  0  0  0  0  0
  -25.2399   -9.5495   22.4318 H   0  0  0  0  0  0  0  0  0  0  0  0
  -23.9663   -7.5070   22.7297 H   0  0  0  0  0  0  0  0  0  0  0  0
  -21.1515   -8.8641   19.9162 H   0  0  0  0  0  0  0  0  0  0  0  0
  -22.4016  -10.9115   19.6476 H   0  0  0  0  0  0  0  0  0  0  0  0
  -21.2319   -7.5552   23.9750 H   0  0  0  0  0  0  0  0  0  0  0  0
  -21.1589   -6.0228   25.8556 H   0  0  0  0  0  0  0  0  0  0  0  0
  -22.0396   -2.8212   23.2809 H   0  0  0  0  0  0  0  0  0  0  0  0
  -22.4401  -11.9703   22.4008 H   0  0  0  0  0  0  0  0  0  0  0  0
  -21.1493  -13.0679   22.2082 H   0  0  0  0  0  0  0  0  0  0  0  0
  -24.6538  -15.7807   20.5848 H   0  0  0  0  0  0  0  0  0  0  0  0
  -26.2762  -15.5453   20.1156 H   0  0  0  0  0  0  0  0  0  0  0  0
  -26.6778  -32.4663   23.1464 H   0  0  0  0  0  0  0  0  0  0  0  0
  -25.0747  -34.0282   25.0566 H   0  0  0  0  0  0  0  0  0  0  0  0
  -22.7881  -31.3489   21.4131 H   0  0  0  0  0  0  0  0  0  0  0  0
  -23.3854  -35.9823   23.3648 H   0  0  0  0  0  0  0  0  0  0  0  0
  -24.3696  -36.8624   22.2204 H   0  0  0  0  0  0  0  0  0  0  0  0
  -23.7669  -37.6632   23.6516 H   0  0  0  0  0  0  0  0  0  0  0  0
  -25.9445  -31.6237   20.5691 H   0  0  0  0  0  0  0  0  0  0  0  0
  -26.7436  -31.0079   22.0108 H   0  0  0  0  0  0  0  0  0  0  0  0
  -28.0090  -29.1452   21.2057 H   0  0  0  0  0  0  0  0  0  0  0  0
  -26.1369  -26.0560   19.0719 H   0  0  0  0  0  0  0  0  0  0  0  0
  -24.0652  -27.2961   19.0997 H   0  0  0  0  0  0  0  0  0  0  0  0
  -23.6156  -30.5365   19.3930 H   0  0  0  0  0  0  0  0  0  0  0  0
  -22.7355  -29.1425   19.9945 H   0  0  0  0  0  0  0  0  0  0  0  0
  -25.1353  -36.2335   25.0565 H   0  0  0  0  0  0  0  0  0  0  0  0
  -21.0070  -28.3206   24.0793 H   0  0  0  0  0  0  0  0  0  0  0  0
  -20.5555  -26.2518   23.3550 H   0  0  0  0  0  0  0  0  0  0  0  0
  -21.5974  -26.8362   22.0454 H   0  0  0  0  0  0  0  0  0  0  0  0
  -19.6810  -25.6422   21.1488 H   0  0  0  0  0  0  0  0  0  0  0  0
  -19.6406  -27.3343   20.7034 H   0  0  0  0  0  0  0  0  0  0  0  0
  -17.4282  -26.6888   21.4113 H   0  0  0  0  0  0  0  0  0  0  0  0
  -18.0803  -26.0130   22.9049 H   0  0  0  0  0  0  0  0  0  0  0  0
  -19.7265  -30.6774   24.2204 H   0  0  0  0  0  0  0  0  0  0  0  0
  -17.5064  -31.5856   24.4483 H   0  0  0  0  0  0  0  0  0  0  0  0
  -15.5878  -30.2839   23.7407 H   0  0  0  0  0  0  0  0  0  0  0  0
  -15.9120  -28.0941   22.7766 H   0  0  0  0  0  0  0  0  0  0  0  0
  -24.5787  -30.7757   25.6817 H   0  0  0  0  0  0  0  0  0  0  0  0
  -25.0041  -32.2289   26.5536 H   0  0  0  0  0  0  0  0  0  0  0  0
  -25.8166  -30.7245   26.9138 H   0  0  0  0  0  0  0  0  0  0  0  0
  -26.2892  -29.7335   24.0803 H   0  0  0  0  0  0  0  0  0  0  0  0
  -27.4336  -29.7484   25.4006 H   0  0  0  0  0  0  0  0  0  0  0  0
  -27.8466  -30.4994   23.8779 H   0  0  0  0  0  0  0  0  0  0  0  0
  -27.2251  -33.3632   26.1242 H   0  0  0  0  0  0  0  0  0  0  0  0
  -28.3902  -32.6065   25.0645 H   0  0  0  0  0  0  0  0  0  0  0  0
  -27.9772  -31.8555   26.5872 H   0  0  0  0  0  0  0  0  0  0  0  0
  -28.2744  -38.0016   24.6863 H   0  0  0  0  0  0  0  0  0  0  0  0
  -28.0396  -36.2711   24.7461 H   0  0  0  0  0  0  0  0  0  0  0  0
  -27.1773  -37.3087   25.8564 H   0  0  0  0  0  0  0  0  0  0  0  0
  -20.9627  -29.9365   21.7352 H   0  0  0  0  0  0  0  0  0  0  0  0
  -26.0447  -38.2561   24.0273 H   0  0  0  0  0  0  0  0  0  0  0  0
  -29.8519  -24.4209   15.8219 H   0  0  0  0  0  0  0  0  0  0  0  0
  -29.9202  -27.2392   15.7259 H   0  0  0  0  0  0  0  0  0  0  0  0
  -31.1416  -27.9401   16.8038 H   0  0  0  0  0  0  0  0  0  0  0  0
  -31.6960  -20.4096   16.8809 H   0  0  0  0  0  0  0  0  0  0  0  0
  -32.5598  -21.6066   17.8642 H   0  0  0  0  0  0  0  0  0  0  0  0
  -29.6033  -21.5388   17.4026 H   0  0  0  0  0  0  0  0  0  0  0  0
  -30.4906  -22.7183   18.3656 H   0  0  0  0  0  0  0  0  0  0  0  0
  -31.0748  -22.1368   15.3238 H   0  0  0  0  0  0  0  0  0  0  0  0
  -32.8364  -22.1393   15.5770 H   0  0  0  0  0  0  0  0  0  0  0  0
  -31.2540  -20.4742   19.7346 H   0  0  0  0  0  0  0  0  0  0  0  0
  -29.9028  -19.8447   19.4206 H   0  0  0  0  0  0  0  0  0  0  0  0
  -28.9442  -27.9057   18.1164 H   0  0  0  0  0  0  0  0  0  0  0  0
  1 25  1  0
  1 30  2  0
  1 81  1  0
  2  3  1  0
  2 25  1  0
  2 83  1  0
  2 84  1  0
  3  4  1  0
  3 85  1  0
  3 86  1  0
  4  5  1  0
  4 87  1  0
  4 88  1  0
  5  6  1  0
  5 26  1  0
  5 89  1  6
  6 25  1  0
  6 90  1  0
  6 91  1  0
  7  8  2  0
  7 26  1  0
  7 29  1  0
  8  9  1  0
  8 22  1  0
  9 10  1  0
  9 27  2  0
 10 11  2  0
 10 15  1  0
 11 12  1  0
 11 92  1  0
 12 13  2  0
 12 93  1  0
 13 14  1  0
 13 31  1  0
 14 15  2  0
 14 94  1  0
 15 95  1  0
 16 17  2  0
 16 21  1  0
 16 31  1  0
 17 18  1  0
 17 96  1  0
 18 19  2  0
 18 97  1  0
 19 20  1  0
 19 24  1  0
 20 21  2  0
 20 98  1  0
 21 23  1  0
 22 28  1  0
 22 32  2  0
 26 27  1  0
 28 99  1  0
 28100  1  0
 29101  1  0
 29102  1  0
 33 34  1  0
 33 66  1  0
 33 70  2  0
 34 36  1  0
 34 59  1  0
 34103  1  6
 35 44  2  0
 35 45  1  0
 35 68  1  0
 36 56  1  0
 36104  1  0
 37 39  1  0
 37 47  1  0
 37 66  1  0
 37105  1  6
 38 43  2  0
 38 46  1  0
 38 47  1  0
 39 64  1  0
 39 67  2  0
 40 52  1  0
 40 53  2  0
 40 58  1  0
 41106  1  0
 41107  1  0
 41108  1  0
 42 43  1  0
 42 66  1  0
 42109  1  0
 42110  1  0
 43 44  1  0
 44111  1  0
 45 46  2  0
 45112  1  0
 46113  1  0
 47114  1  0
 47115  1  0
 48 41  1  0
 48 56  1  0
 48 65  1  0
 48116  1  1
 49 50  1  0
 49 53  1  0
 49 64  1  0
 49117  1  1
 50 51  1  0
 50118  1  0
 50119  1  0
 51 52  1  0
 51120  1  0
 51121  1  0
 52122  1  0
 52123  1  0
 53 54  1  0
 54 55  2  0
 54124  1  0
 55 57  1  0
 55125  1  0
 56 69  2  0
 57 58  2  0
 57126  1  0
 58127  1  0
 59 60  1  0
 59 61  1  0
 59 62  1  0
 60128  1  0
 60129  1  0
 60130  1  0
 61131  1  0
 61132  1  0
 61133  1  0
 62134  1  0
 62135  1  0
 62136  1  0
 63 65  1  0
 63137  1  0
 63138  1  0
 63139  1  0
 64140  1  0
 65141  1  0
 68 78  1  0
 71 72  2  0
 71 80  1  0
 71142  1  0
 72 73  1  0
 72 74  1  0
 73 79  2  0
 73 82  1  0
 74 81  1  0
 74143  1  0
 74144  1  0
 75 76  1  0
 75 77  1  0
 75145  1  0
 75146  1  0
 76 78  1  0
 76147  1  0
 76148  1  0
 77 80  1  0
 77149  1  0
 77150  1  0
 78151  1  0
 78152  1  0
 79 80  1  0
 81153  1  0
M  ISO  4   1 100  68 101  78 101  81 100
M  END
$$$$
67
     RDKit          3D

159167  0  0  0  0  0  0  0  0999 V2000
  -30.7652  -14.3608   20.6636 C   0  0  0  0  0  0  0  0  0100  0  0
  -30.4392  -12.2669   19.3775 C   0  0  0  0  0  0  0  0  0101  0  0
  -29.4791  -12.5281   18.1977 C   0  0  0  0  0  0  0  0  0102  0  0
  -27.9985  -12.3963   18.6038 C   0  0  0  0  0  0  0  0  0103  0  0
  -27.6639  -13.2170   19.8820 C   0  0  2  0  0  0  0  0  0104  0  0
  -28.6795  -12.9602   21.0279 C   0  0  0  0  0  0  0  0  0105  0  0
  -25.2633  -13.8245   20.5754 C   0  0  0  0  0  0  0  0  0106  0  0
  -24.1645  -13.0409   20.9408 C   0  0  0  0  0  0  0  0  0107  0  0
  -24.6400  -11.7009   20.8697 C   0  0  0  0  0  0  0  0  0108  0  0
  -23.9005  -10.4085   21.0420 C   0  0  0  0  0  0  0  0  0109  0  0
  -24.3588   -9.4123   21.9123 C   0  0  0  0  0  0  0  0  0110  0  0
  -23.6296   -8.2350   22.0803 C   0  0  0  0  0  0  0  0  0111  0  0
  -22.4385   -8.0419   21.3657 C   0  0  0  0  0  0  0  0  0112  0  0
  -22.0103   -9.0167   20.4678 C   0  0  0  0  0  0  0  0  0113  0  0
  -22.7317  -10.1925   20.3102 C   0  0  0  0  0  0  0  0  0114  0  0
  -21.6857   -6.0709   22.5391 C   0  0  0  0  0  0  0  0  0115  0  0
  -21.4064   -6.5490   23.8264 C   0  0  0  0  0  0  0  0  0116  0  0
  -21.3635   -5.6677   24.9085 C   0  0  0  0  0  0  0  0  0117  0  0
  -21.5973   -4.3067   24.7088 C   0  0  0  0  0  0  0  0  0118  0  0
  -21.8700   -3.8284   23.4282 C   0  0  0  0  0  0  0  0  0119  0  0
  -21.9144   -4.7056   22.3460 C   0  0  0  0  0  0  0  0  0120  0  0
  -22.8194  -13.5263   21.1763 C   0  0  0  0  0  0  0  0  0121  0  0
  -22.1559   -4.2206   21.1063 F   0  0  0  0  0  0  0  0  0122  0  0
  -21.5628   -3.4510   25.7555 F   0  0  0  0  0  0  0  0  0123  0  0
  -30.0261  -13.1803   20.4553 N   0  0  0  0  0  0  0  0  0124  0  0
  -26.2911  -12.9356   20.3443 N   0  0  0  0  0  0  0  0  0125  0  0
  -25.9236  -11.6675   20.5847 N   0  0  0  0  0  0  0  0  0126  0  0
  -22.0708  -12.7905   22.0005 N   0  0  0  0  0  0  0  0  0127  0  0
  -25.4117  -15.1773   20.4097 N   0  0  0  0  0  0  0  0  0128  0  0
  -31.7916  -14.6724   20.0536 O   0  0  0  0  0  0  0  0  0129  0  0
  -21.6670   -6.9022   21.4423 O   0  0  0  0  0  0  0  0  0130  0  0
  -22.3946  -14.5564   20.6568 O   0  0  0  0  0  0  0  0  0131  0  0
  -24.6048  -31.8614   23.2223 C   0  0  0  0  0  0  0  0  0100  0  0
  -25.8822  -32.4841   23.8616 C   0  0  1  0  0  0  0  0  0101  0  0
  -27.2536  -27.5042   20.1156 C   0  0  0  0  0  0  0  0  0102  0  0
  -25.5726  -33.8762   24.2210 N   0  0  0  0  0  0  0  0  0103  0  0
  -23.4066  -30.4859   21.5461 C   0  0  2  0  0  0  0  0  0104  0  0
  -24.8467  -28.9636   20.1247 C   0  0  0  0  0  0  0  0  0105  0  0
  -22.7412  -29.4652   22.5052 C   0  0  0  0  0  0  0  0  0106  0  0
  -18.0167  -28.1302   22.8626 C   0  0  0  0  0  0  0  0  0107  0  0
  -24.1342  -36.7390   23.2568 C   0  0  0  0  0  0  0  0  0108  0  0
  -25.9141  -30.8882   21.3456 C   0  0  0  0  0  0  0  0  0109  0  0
  -25.9930  -29.5029   20.7208 C   0  0  0  0  0  0  0  0  0110  0  0
  -27.1758  -28.7612   20.7331 C   0  0  0  0  0  0  0  0  0111  0  0
  -26.1032  -26.9836   19.5230 C   0  0  0  0  0  0  0  0  0112  0  0
  -24.9097  -27.7011   19.5331 C   0  0  0  0  0  0  0  0  0113  0  0
  -23.5715  -29.7899   20.1582 C   0  0  0  0  0  0  0  0  0114  0  0
  -25.3990  -36.3212   24.0232 C   0  0  1  0  0  0  0  0  0115  0  0
  -20.5793  -28.3813   23.1004 C   0  0  2  0  0  0  0  0  0116  0  0
  -20.6548  -26.9392   22.5411 C   0  0  0  0  0  0  0  0  0117  0  0
  -19.5615  -26.6407   21.5143 C   0  0  0  0  0  0  0  0  0118  0  0
  -18.1797  -26.7818   22.1673 C   0  0  0  0  0  0  0  0  0119  0  0
  -19.1385  -28.8769   23.2988 C   0  0  0  0  0  0  0  0  0120  0  0
  -18.9183  -30.1286   23.8878 C   0  0  0  0  0  0  0  0  0121  0  0
  -17.6396  -30.6493   24.0352 C   0  0  0  0  0  0  0  0  0122  0  0
  -25.9153  -34.9582   23.4993 C   0  0  0  0  0  0  0  0  0123  0  0
  -16.5415  -29.9068   23.6254 C   0  0  0  0  0  0  0  0  0124  0  0
  -16.7331  -28.6521   23.0586 C   0  0  0  0  0  0  0  0  0125  0  0
  -26.4583  -31.6439   25.0683 C   0  0  0  0  0  0  0  0  0126  0  0
  -25.3807  -31.3179   26.1374 C   0  0  0  0  0  0  0  0  0127  0  0
  -27.0530  -30.3024   24.5680 C   0  0  0  0  0  0  0  0  0128  0  0
  -27.6014  -32.4281   25.7651 C   0  0  0  0  0  0  0  0  0129  0  0
  -27.5629  -37.2220   24.8621 C   0  0  0  0  0  0  0  0  0130  0  0
  -21.4133  -29.3375   22.3735 N   0  0  0  0  0  0  0  0  0131  0  0
  -26.4706  -37.3372   23.9061 N   0  0  0  0  0  0  0  0  0132  0  0
  -24.6674  -31.0544   22.1178 N   0  0  0  0  0  0  0  0  0133  0  0
  -23.4259  -28.8150   23.2971 O   0  0  0  0  0  0  0  0  0134  0  0
  -28.3948  -26.7345   20.0089 O   0  0  0  0  0  0  0  0  0135  0  0
  -26.5870  -34.9065   22.4671 O   0  0  0  0  0  0  0  0  0136  0  0
  -23.5365  -32.1254   23.7833 O   0  0  0  0  0  0  0  0  0137  0  0
  -29.2782  -15.4856   26.5416 C   0  0  0  0  0  0  0  0  0  0  0  0
  -29.2648  -16.8169   26.1256 C   0  0  0  0  0  0  0  0  0  0  0  0
  -30.0584  -14.5503   25.8617 C   0  0  0  0  0  0  0  0  0  0  0  0
  -30.0314  -17.2129   25.0297 C   0  0  0  0  0  0  0  0  0  0  0  0
  -30.8116  -16.2776   24.3498 C   0  0  0  0  0  0  0  0  0  0  0  0
  -30.8251  -14.9463   24.7658 C   0  0  0  0  0  0  0  0  0  0  0  0
  -30.0146  -18.6425   24.5883 C   0  0  0  0  0  0  0  0  0  0  0  0
  -29.1820  -12.2356   25.4607 C   0  0  0  0  0  0  0  0  0  0  0  0
  -30.0414  -13.1348   26.3432 C   0  0  0  0  0  0  0  0  0  0  0  0
  -31.6287  -16.7225   23.1762 C   0  0  0  0  0  0  0  0  0  0  0  0
  -28.4169  -17.8029   26.8741 C   0  0  0  0  0  0  0  0  0  1  0  0
  -30.8085  -16.8973   21.8955 C   0  0  0  0  0  0  0  0  0  0  0  0
  -30.1436  -15.6754   21.5010 N   0  0  0  0  0  0  0  0  0  0  0  0
  -31.7921  -13.7817   23.9233 Cl  0  0  0  0  0  0  0  0  0  0  0  0
  -31.4485  -12.4701   19.0860 H   0  0  0  0  0  0  0  0  0  0  0  0
  -30.3970  -11.2460   19.6950 H   0  0  0  0  0  0  0  0  0  0  0  0
  -29.6870  -11.8204   17.4226 H   0  0  0  0  0  0  0  0  0  0  0  0
  -29.6375  -13.5326   17.8649 H   0  0  0  0  0  0  0  0  0  0  0  0
  -27.7830  -11.3650   18.7904 H   0  0  0  0  0  0  0  0  0  0  0  0
  -27.4028  -12.7801   17.8021 H   0  0  0  0  0  0  0  0  0  0  0  0
  -27.7353  -14.2503   19.6136 H   0  0  0  0  0  0  0  0  0  0  0  0
  -28.5890  -11.9550   21.3832 H   0  0  0  0  0  0  0  0  0  0  0  0
  -28.5005  -13.6134   21.8562 H   0  0  0  0  0  0  0  0  0  0  0  0
  -25.2399   -9.5495   22.4318 H   0  0  0  0  0  0  0  0  0  0  0  0
  -23.9663   -7.5070   22.7297 H   0  0  0  0  0  0  0  0  0  0  0  0
  -21.1515   -8.8641   19.9162 H   0  0  0  0  0  0  0  0  0  0  0  0
  -22.4016  -10.9115   19.6476 H   0  0  0  0  0  0  0  0  0  0  0  0
  -21.2319   -7.5552   23.9750 H   0  0  0  0  0  0  0  0  0  0  0  0
  -21.1589   -6.0228   25.8556 H   0  0  0  0  0  0  0  0  0  0  0  0
  -22.0396   -2.8212   23.2809 H   0  0  0  0  0  0  0  0  0  0  0  0
  -22.4401  -11.9703   22.4008 H   0  0  0  0  0  0  0  0  0  0  0  0
  -21.1493  -13.0679   22.2082 H   0  0  0  0  0  0  0  0  0  0  0  0
  -24.6538  -15.7807   20.5848 H   0  0  0  0  0  0  0  0  0  0  0  0
  -26.2762  -15.5453   20.1156 H   0  0  0  0  0  0  0  0  0  0  0  0
  -26.6778  -32.4663   23.1464 H   0  0  0  0  0  0  0  0  0  0  0  0
  -25.0747  -34.0282   25.0566 H   0  0  0  0  0  0  0  0  0  0  0  0
  -22.7881  -31.3489   21.4131 H   0  0  0  0  0  0  0  0  0  0  0  0
  -23.3854  -35.9823   23.3648 H   0  0  0  0  0  0  0  0  0  0  0  0
  -24.3696  -36.8624   22.2204 H   0  0  0  0  0  0  0  0  0  0  0  0
  -23.7669  -37.6632   23.6516 H   0  0  0  0  0  0  0  0  0  0  0  0
  -25.9445  -31.6237   20.5691 H   0  0  0  0  0  0  0  0  0  0  0  0
  -26.7436  -31.0079   22.0108 H   0  0  0  0  0  0  0  0  0  0  0  0
  -28.0090  -29.1452   21.2057 H   0  0  0  0  0  0  0  0  0  0  0  0
  -26.1369  -26.0560   19.0719 H   0  0  0  0  0  0  0  0  0  0  0  0
  -24.0652  -27.2961   19.0997 H   0  0  0  0  0  0  0  0  0  0  0  0
  -23.6156  -30.5365   19.3930 H   0  0  0  0  0  0  0  0  0  0  0  0
  -22.7355  -29.1425   19.9945 H   0  0  0  0  0  0  0  0  0  0  0  0
  -25.1353  -36.2335   25.0565 H   0  0  0  0  0  0  0  0  0  0  0  0
  -21.0070  -28.3206   24.0793 H   0  0  0  0  0  0  0  0  0  0  0  0
  -20.5555  -26.2518   23.3550 H   0  0  0  0  0  0  0  0  0  0  0  0
  -21.5974  -26.8362   22.0454 H   0  0  0  0  0  0  0  0  0  0  0  0
  -19.6810  -25.6422   21.1488 H   0  0  0  0  0  0  0  0  0  0  0  0
  -19.6406  -27.3343   20.7034 H   0  0  0  0  0  0  0  0  0  0  0  0
  -17.4282  -26.6888   21.4113 H   0  0  0  0  0  0  0  0  0  0  0  0
  -18.0803  -26.0130   22.9049 H   0  0  0  0  0  0  0  0  0  0  0  0
  -19.7265  -30.6774   24.2204 H   0  0  0  0  0  0  0  0  0  0  0  0
  -17.5064  -31.5856   24.4483 H   0  0  0  0  0  0  0  0  0  0  0  0
  -15.5878  -30.2839   23.7407 H   0  0  0  0  0  0  0  0  0  0  0  0
  -15.9120  -28.0941   22.7766 H   0  0  0  0  0  0  0  0  0  0  0  0
  -24.5787  -30.7757   25.6817 H   0  0  0  0  0  0  0  0  0  0  0  0
  -25.0041  -32.2289   26.5536 H   0  0  0  0  0  0  0  0  0  0  0  0
  -25.8166  -30.7245   26.9138 H   0  0  0  0  0  0  0  0  0  0  0  0
  -26.2892  -29.7335   24.0803 H   0  0  0  0  0  0  0  0  0  0  0  0
  -27.4336  -29.7484   25.4006 H   0  0  0  0  0  0  0  0  0  0  0  0
  -27.8466  -30.4994   23.8779 H   0  0  0  0  0  0  0  0  0  0  0  0
  -27.2251  -33.3632   26.1242 H   0  0  0  0  0  0  0  0  0  0  0  0
  -28.3902  -32.6065   25.0645 H   0  0  0  0  0  0  0  0  0  0  0  0
  -27.9772  -31.8555   26.5872 H   0  0  0  0  0  0  0  0  0  0  0  0
  -28.2744  -38.0016   24.6863 H   0  0  0  0  0  0  0  0  0  0  0  0
  -28.0396  -36.2711   24.7461 H   0  0  0  0  0  0  0  0  0  0  0  0
  -27.1773  -37.3087   25.8564 H   0  0  0  0  0  0  0  0  0  0  0  0
  -20.9627  -29.9365   21.7352 H   0  0  0  0  0  0  0  0  0  0  0  0
  -26.0447  -38.2561   24.0273 H   0  0  0  0  0  0  0  0  0  0  0  0
  -28.7109  -15.1926   27.3524 H   0  0  0  0  0  0  0  0  0  0  0  0
  -29.3643  -19.2048   25.2253 H   0  0  0  0  0  0  0  0  0  0  0  0
  -29.6630  -18.7002   23.5794 H   0  0  0  0  0  0  0  0  0  0  0  0
  -31.0045  -19.0448   24.6446 H   0  0  0  0  0  0  0  0  0  0  0  0
  -29.2009  -11.2367   25.8437 H   0  0  0  0  0  0  0  0  0  0  0  0
  -29.5672  -12.2422   24.4625 H   0  0  0  0  0  0  0  0  0  0  0  0
  -28.1749  -12.5971   25.4567 H   0  0  0  0  0  0  0  0  0  0  0  0
  -29.6511  -13.1145   27.3393 H   0  0  0  0  0  0  0  0  0  0  0  0
  -31.0449  -12.7648   26.3101 H   0  0  0  0  0  0  0  0  0  0  0  0
  -32.3885  -15.9912   22.9952 H   0  0  0  0  0  0  0  0  0  0  0  0
  -32.0389  -17.6798   23.4217 H   0  0  0  0  0  0  0  0  0  0  0  0
  -28.8513  -18.0450   27.8215 H   0  0  0  0  0  0  0  0  0  0  0  0
  -27.4370  -17.4369   27.0994 H   0  0  0  0  0  0  0  0  0  0  0  0
  -31.4630  -17.2036   21.1064 H   0  0  0  0  0  0  0  0  0  0  0  0
  -30.0560  -17.6338   22.0856 H   0  0  0  0  0  0  0  0  0  0  0  0
  -29.1961  -15.6051   21.7591 H   0  0  0  0  0  0  0  0  0  0  0  0
  1 25  1  0
  1 30  2  0
  1 83  1  0
  2  3  1  0
  2 25  1  0
  2 85  1  0
  2 86  1  0
  3  4  1  0
  3 87  1  0
  3 88  1  0
  4  5  1  0
  4 89  1  0
  4 90  1  0
  5  6  1  0
  5 26  1  0
  5 91  1  6
  6 25  1  0
  6 92  1  0
  6 93  1  0
  7  8  2  0
  7 26  1  0
  7 29  1  0
  8  9  1  0
  8 22  1  0
  9 10  1  0
  9 27  2  0
 10 11  2  0
 10 15  1  0
 11 12  1  0
 11 94  1  0
 12 13  2  0
 12 95  1  0
 13 14  1  0
 13 31  1  0
 14 15  2  0
 14 96  1  0
 15 97  1  0
 16 17  2  0
 16 21  1  0
 16 31  1  0
 17 18  1  0
 17 98  1  0
 18 19  2  0
 18 99  1  0
 19 20  1  0
 19 24  1  0
 20 21  2  0
 20100  1  0
 21 23  1  0
 22 28  1  0
 22 32  2  0
 26 27  1  0
 28101  1  0
 28102  1  0
 29103  1  0
 29104  1  0
 33 34  1  0
 33 66  1  0
 33 70  2  0
 34 36  1  0
 34 59  1  0
 34105  1  6
 35 44  2  0
 35 45  1  0
 35 68  1  0
 36 56  1  0
 36106  1  0
 37 39  1  0
 37 47  1  0
 37 66  1  0
 37107  1  6
 38 43  2  0
 38 46  1  0
 38 47  1  0
 39 64  1  0
 39 67  2  0
 40 52  1  0
 40 53  2  0
 40 58  1  0
 41108  1  0
 41109  1  0
 41110  1  0
 42 43  1  0
 42 66  1  0
 42111  1  0
 42112  1  0
 43 44  1  0
 44113  1  0
 45 46  2  0
 45114  1  0
 46115  1  0
 47116  1  0
 47117  1  0
 48 41  1  0
 48 56  1  0
 48 65  1  0
 48118  1  1
 49 50  1  0
 49 53  1  0
 49 64  1  0
 49119  1  1
 50 51  1  0
 50120  1  0
 50121  1  0
 51 52  1  0
 51122  1  0
 51123  1  0
 52124  1  0
 52125  1  0
 53 54  1  0
 54 55  2  0
 54126  1  0
 55 57  1  0
 55127  1  0
 56 69  2  0
 57 58  2  0
 57128  1  0
 58129  1  0
 59 60  1  0
 59 61  1  0
 59 62  1  0
 60130  1  0
 60131  1  0
 60132  1  0
 61133  1  0
 61134  1  0
 61135  1  0
 62136  1  0
 62137  1  0
 62138  1  0
 63 65  1  0
 63139  1  0
 63140  1  0
 63141  1  0
 64142  1  0
 65143  1  0
 68 81  1  0
 71 72  2  0
 71 73  1  0
 71144  1  0
 72 74  1  0
 72 81  1  0
 73 76  2  0
 73 79  1  0
 74 75  2  0
 74 77  1  0
 75 76  1  0
 75 80  1  0
 76 84  1  0
 77145  1  0
 77146  1  0
 77147  1  0
 78 79  1  0
 78148  1  0
 78149  1  0
 78150  1  0
 79151  1  0
 79152  1  0
 80 82  1  0
 80153  1  0
 80154  1  0
 81155  1  0
 81156  1  0
 82 83  1  0
 82157  1  0
 82158  1  0
 83159  1  0
M  ISO  4   1 100  68 101  81 101  83 100
M  END
$$$$
68
     RDKit          3D

175184  0  0  0  0  0  0  0  0999 V2000
  -30.7652  -14.3608   20.6636 C   0  0  0  0  0  0  0  0  0100  0  0
  -30.4392  -12.2669   19.3775 C   0  0  0  0  0  0  0  0  0101  0  0
  -29.4791  -12.5281   18.1977 C   0  0  0  0  0  0  0  0  0102  0  0
  -27.9985  -12.3963   18.6038 C   0  0  0  0  0  0  0  0  0103  0  0
  -27.6639  -13.2170   19.8820 C   0  0  2  0  0  0  0  0  0104  0  0
  -28.6795  -12.9602   21.0279 C   0  0  0  0  0  0  0  0  0105  0  0
  -25.2633  -13.8245   20.5754 C   0  0  0  0  0  0  0  0  0106  0  0
  -24.1645  -13.0409   20.9408 C   0  0  0  0  0  0  0  0  0107  0  0
  -24.6400  -11.7009   20.8697 C   0  0  0  0  0  0  0  0  0108  0  0
  -23.9005  -10.4085   21.0420 C   0  0  0  0  0  0  0  0  0109  0  0
  -24.3588   -9.4123   21.9123 C   0  0  0  0  0  0  0  0  0110  0  0
  -23.6296   -8.2350   22.0803 C   0  0  0  0  0  0  0  0  0111  0  0
  -22.4385   -8.0419   21.3657 C   0  0  0  0  0  0  0  0  0112  0  0
  -22.0103   -9.0167   20.4678 C   0  0  0  0  0  0  0  0  0113  0  0
  -22.7317  -10.1925   20.3102 C   0  0  0  0  0  0  0  0  0114  0  0
  -21.6857   -6.0709   22.5391 C   0  0  0  0  0  0  0  0  0115  0  0
  -21.4064   -6.5490   23.8264 C   0  0  0  0  0  0  0  0  0116  0  0
  -21.3635   -5.6677   24.9085 C   0  0  0  0  0  0  0  0  0117  0  0
  -21.5973   -4.3067   24.7088 C   0  0  0  0  0  0  0  0  0118  0  0
  -21.8700   -3.8284   23.4282 C   0  0  0  0  0  0  0  0  0119  0  0
  -21.9144   -4.7056   22.3460 C   0  0  0  0  0  0  0  0  0120  0  0
  -22.8194  -13.5263   21.1763 C   0  0  0  0  0  0  0  0  0121  0  0
  -22.1559   -4.2206   21.1063 F   0  0  0  0  0  0  0  0  0122  0  0
  -21.5628   -3.4510   25.7555 F   0  0  0  0  0  0  0  0  0123  0  0
  -30.0261  -13.1803   20.4553 N   0  0  0  0  0  0  0  0  0124  0  0
  -26.2911  -12.9356   20.3443 N   0  0  0  0  0  0  0  0  0125  0  0
  -25.9236  -11.6675   20.5847 N   0  0  0  0  0  0  0  0  0126  0  0
  -22.0708  -12.7905   22.0005 N   0  0  0  0  0  0  0  0  0127  0  0
  -25.4117  -15.1773   20.4097 N   0  0  0  0  0  0  0  0  0128  0  0
  -31.7916  -14.6724   20.0536 O   0  0  0  0  0  0  0  0  0129  0  0
  -21.6670   -6.9022   21.4423 O   0  0  0  0  0  0  0  0  0130  0  0
  -22.3946  -14.5564   20.6568 O   0  0  0  0  0  0  0  0  0131  0  0
  -24.6048  -31.8614   23.2223 C   0  0  0  0  0  0  0  0  0100  0  0
  -25.8822  -32.4841   23.8616 C   0  0  1  0  0  0  0  0  0101  0  0
  -27.2536  -27.5042   20.1156 C   0  0  0  0  0  0  0  0  0102  0  0
  -25.5726  -33.8762   24.2210 N   0  0  0  0  0  0  0  0  0103  0  0
  -23.4066  -30.4859   21.5461 C   0  0  2  0  0  0  0  0  0104  0  0
  -24.8467  -28.9636   20.1247 C   0  0  0  0  0  0  0  0  0105  0  0
  -22.7412  -29.4652   22.5052 C   0  0  0  0  0  0  0  0  0106  0  0
  -18.0167  -28.1302   22.8626 C   0  0  0  0  0  0  0  0  0107  0  0
  -24.1342  -36.7390   23.2568 C   0  0  0  0  0  0  0  0  0108  0  0
  -25.9141  -30.8882   21.3456 C   0  0  0  0  0  0  0  0  0109  0  0
  -25.9930  -29.5029   20.7208 C   0  0  0  0  0  0  0  0  0110  0  0
  -27.1758  -28.7612   20.7331 C   0  0  0  0  0  0  0  0  0111  0  0
  -26.1032  -26.9836   19.5230 C   0  0  0  0  0  0  0  0  0112  0  0
  -24.9097  -27.7011   19.5331 C   0  0  0  0  0  0  0  0  0113  0  0
  -23.5715  -29.7899   20.1582 C   0  0  0  0  0  0  0  0  0114  0  0
  -25.3990  -36.3212   24.0232 C   0  0  1  0  0  0  0  0  0115  0  0
  -20.5793  -28.3813   23.1004 C   0  0  2  0  0  0  0  0  0116  0  0
  -20.6548  -26.9392   22.5411 C   0  0  0  0  0  0  0  0  0117  0  0
  -19.5615  -26.6407   21.5143 C   0  0  0  0  0  0  0  0  0118  0  0
  -18.1797  -26.7818   22.1673 C   0  0  0  0  0  0  0  0  0119  0  0
  -19.1385  -28.8769   23.2988 C   0  0  0  0  0  0  0  0  0120  0  0
  -18.9183  -30.1286   23.8878 C   0  0  0  0  0  0  0  0  0121  0  0
  -17.6396  -30.6493   24.0352 C   0  0  0  0  0  0  0  0  0122  0  0
  -25.9153  -34.9582   23.4993 C   0  0  0  0  0  0  0  0  0123  0  0
  -16.5415  -29.9068   23.6254 C   0  0  0  0  0  0  0  0  0124  0  0
  -16.7331  -28.6521   23.0586 C   0  0  0  0  0  0  0  0  0125  0  0
  -26.4583  -31.6439   25.0683 C   0  0  0  0  0  0  0  0  0126  0  0
  -25.3807  -31.3179   26.1374 C   0  0  0  0  0  0  0  0  0127  0  0
  -27.0530  -30.3024   24.5680 C   0  0  0  0  0  0  0  0  0128  0  0
  -27.6014  -32.4281   25.7651 C   0  0  0  0  0  0  0  0  0129  0  0
  -27.5629  -37.2220   24.8621 C   0  0  0  0  0  0  0  0  0130  0  0
  -21.4133  -29.3375   22.3735 N   0  0  0  0  0  0  0  0  0131  0  0
  -26.4706  -37.3372   23.9061 N   0  0  0  0  0  0  0  0  0132  0  0
  -24.6674  -31.0544   22.1178 N   0  0  0  0  0  0  0  0  0133  0  0
  -23.4259  -28.8150   23.2971 O   0  0  0  0  0  0  0  0  0134  0  0
  -28.3948  -26.7345   20.0089 O   0  0  0  0  0  0  0  0  0135  0  0
  -26.5870  -34.9065   22.4671 O   0  0  0  0  0  0  0  0  0136  0  0
  -23.5365  -32.1254   23.7833 O   0  0  0  0  0  0  0  0  0137  0  0
  -31.5313  -18.2750   20.2492 C   0  0  0  0  0  0  0  0  0  0  0  0
  -29.3321  -18.5013   21.2079 C   0  0  0  0  0  0  0  0  0  0  0  0
  -31.2974  -19.3718   19.4029 C   0  0  0  0  0  0  0  0  0  0  0  0
  -30.0597  -20.0379   19.4614 C   0  0  0  0  0  0  0  0  0  0  0  0
  -30.5569  -17.8460   21.1491 C   0  0  0  0  0  0  0  0  0  0  0  0
  -29.0844  -19.5877   20.3698 C   0  0  0  0  0  0  0  0  0  0  0  0
  -32.3613  -19.7424   18.4031 C   0  0  0  0  0  0  0  0  0  0  0  0
  -32.1263  -21.0777   17.7006 C   0  0  0  0  0  0  0  0  0  0  0  0
  -29.7559  -21.2515   18.5907 C   0  0  2  0  0  0  0  0  0  0  0  0
  -30.6506  -21.3046   17.3071 C   0  0  0  0  0  0  0  0  0  0  0  0
  -30.5409  -22.6639   16.5851 C   0  0  0  0  0  0  0  0  0  0  0  0
  -30.1848  -20.2258   16.2994 C   0  0  0  0  0  0  0  0  0  0  0  0
  -24.2280  -19.2699   19.0902 C   0  0  0  0  0  0  0  0  0  0  0  0
  -27.7340  -20.2274   20.4675 C   0  0  0  0  0  0  0  0  0  0  0  0
  -30.8251  -16.6804   22.0397 C   0  0  0  0  0  0  0  0  0  0  0  0
  -29.8511  -22.5114   19.4710 C   0  0  0  0  0  0  0  0  0  1  0  0
  -25.2862  -20.0743   19.8282 C   0  0  0  0  0  0  0  0  0  0  0  0
  -26.6550  -19.3974   19.7579 C   0  0  0  0  0  0  0  0  0  0  0  0
  -30.1400  -15.4847   21.6019 N   0  0  0  0  0  0  0  0  0  0  0  0
  -31.4485  -12.4701   19.0860 H   0  0  0  0  0  0  0  0  0  0  0  0
  -30.3970  -11.2460   19.6950 H   0  0  0  0  0  0  0  0  0  0  0  0
  -29.6870  -11.8204   17.4226 H   0  0  0  0  0  0  0  0  0  0  0  0
  -29.6375  -13.5326   17.8649 H   0  0  0  0  0  0  0  0  0  0  0  0
  -27.7830  -11.3650   18.7904 H   0  0  0  0  0  0  0  0  0  0  0  0
  -27.4028  -12.7801   17.8021 H   0  0  0  0  0  0  0  0  0  0  0  0
  -27.7353  -14.2503   19.6136 H   0  0  0  0  0  0  0  0  0  0  0  0
  -28.5890  -11.9550   21.3832 H   0  0  0  0  0  0  0  0  0  0  0  0
  -28.5005  -13.6134   21.8562 H   0  0  0  0  0  0  0  0  0  0  0  0
  -25.2399   -9.5495   22.4318 H   0  0  0  0  0  0  0  0  0  0  0  0
  -23.9663   -7.5070   22.7297 H   0  0  0  0  0  0  0  0  0  0  0  0
  -21.1515   -8.8641   19.9162 H   0  0  0  0  0  0  0  0  0  0  0  0
  -22.4016  -10.9115   19.6476 H   0  0  0  0  0  0  0  0  0  0  0  0
  -21.2319   -7.5552   23.9750 H   0  0  0  0  0  0  0  0  0  0  0  0
  -21.1589   -6.0228   25.8556 H   0  0  0  0  0  0  0  0  0  0  0  0
  -22.0396   -2.8212   23.2809 H   0  0  0  0  0  0  0  0  0  0  0  0
  -22.4401  -11.9703   22.4008 H   0  0  0  0  0  0  0  0  0  0  0  0
  -21.1493  -13.0679   22.2082 H   0  0  0  0  0  0  0  0  0  0  0  0
  -24.6538  -15.7807   20.5848 H   0  0  0  0  0  0  0  0  0  0  0  0
  -26.2762  -15.5453   20.1156 H   0  0  0  0  0  0  0  0  0  0  0  0
  -26.6778  -32.4663   23.1464 H   0  0  0  0  0  0  0  0  0  0  0  0
  -25.0747  -34.0282   25.0566 H   0  0  0  0  0  0  0  0  0  0  0  0
  -22.7881  -31.3489   21.4131 H   0  0  0  0  0  0  0  0  0  0  0  0
  -23.3854  -35.9823   23.3648 H   0  0  0  0  0  0  0  0  0  0  0  0
  -24.3696  -36.8624   22.2204 H   0  0  0  0  0  0  0  0  0  0  0  0
  -23.7669  -37.6632   23.6516 H   0  0  0  0  0  0  0  0  0  0  0  0
  -25.9445  -31.6237   20.5691 H   0  0  0  0  0  0  0  0  0  0  0  0
  -26.7436  -31.0079   22.0108 H   0  0  0  0  0  0  0  0  0  0  0  0
  -28.0090  -29.1452   21.2057 H   0  0  0  0  0  0  0  0  0  0  0  0
  -26.1369  -26.0560   19.0719 H   0  0  0  0  0  0  0  0  0  0  0  0
  -24.0652  -27.2961   19.0997 H   0  0  0  0  0  0  0  0  0  0  0  0
  -23.6156  -30.5365   19.3930 H   0  0  0  0  0  0  0  0  0  0  0  0
  -22.7355  -29.1425   19.9945 H   0  0  0  0  0  0  0  0  0  0  0  0
  -25.1353  -36.2335   25.0565 H   0  0  0  0  0  0  0  0  0  0  0  0
  -21.0070  -28.3206   24.0793 H   0  0  0  0  0  0  0  0  0  0  0  0
  -20.5555  -26.2518   23.3550 H   0  0  0  0  0  0  0  0  0  0  0  0
  -21.5974  -26.8362   22.0454 H   0  0  0  0  0  0  0  0  0  0  0  0
  -19.6810  -25.6422   21.1488 H   0  0  0  0  0  0  0  0  0  0  0  0
  -19.6406  -27.3343   20.7034 H   0  0  0  0  0  0  0  0  0  0  0  0
  -17.4282  -26.6888   21.4113 H   0  0  0  0  0  0  0  0  0  0  0  0
  -18.0803  -26.0130   22.9049 H   0  0  0  0  0  0  0  0  0  0  0  0
  -19.7265  -30.6774   24.2204 H   0  0  0  0  0  0  0  0  0  0  0  0
  -17.5064  -31.5856   24.4483 H   0  0  0  0  0  0  0  0  0  0  0  0
  -15.5878  -30.2839   23.7407 H   0  0  0  0  0  0  0  0  0  0  0  0
  -15.9120  -28.0941   22.7766 H   0  0  0  0  0  0  0  0  0  0  0  0
  -24.5787  -30.7757   25.6817 H   0  0  0  0  0  0  0  0  0  0  0  0
  -25.0041  -32.2289   26.5536 H   0  0  0  0  0  0  0  0  0  0  0  0
  -25.8166  -30.7245   26.9138 H   0  0  0  0  0  0  0  0  0  0  0  0
  -26.2892  -29.7335   24.0803 H   0  0  0  0  0  0  0  0  0  0  0  0
  -27.4336  -29.7484   25.4006 H   0  0  0  0  0  0  0  0  0  0  0  0
  -27.8466  -30.4994   23.8779 H   0  0  0  0  0  0  0  0  0  0  0  0
  -27.2251  -33.3632   26.1242 H   0  0  0  0  0  0  0  0  0  0  0  0
  -28.3902  -32.6065   25.0645 H   0  0  0  0  0  0  0  0  0  0  0  0
  -27.9772  -31.8555   26.5872 H   0  0  0  0  0  0  0  0  0  0  0  0
  -28.2744  -38.0016   24.6863 H   0  0  0  0  0  0  0  0  0  0  0  0
  -28.0396  -36.2711   24.7461 H   0  0  0  0  0  0  0  0  0  0  0  0
  -27.1773  -37.3087   25.8564 H   0  0  0  0  0  0  0  0  0  0  0  0
  -20.9627  -29.9365   21.7352 H   0  0  0  0  0  0  0  0  0  0  0  0
  -26.0447  -38.2561   24.0273 H   0  0  0  0  0  0  0  0  0  0  0  0
  -32.4360  -17.7806   20.2041 H   0  0  0  0  0  0  0  0  0  0  0  0
  -28.6075  -18.1841   21.8708 H   0  0  0  0  0  0  0  0  0  0  0  0
  -32.4033  -18.9750   17.6586 H   0  0  0  0  0  0  0  0  0  0  0  0
  -33.2751  -19.8412   18.9508 H   0  0  0  0  0  0  0  0  0  0  0  0
  -32.7233  -21.1051   16.8131 H   0  0  0  0  0  0  0  0  0  0  0  0
  -32.3952  -21.8516   18.3889 H   0  0  0  0  0  0  0  0  0  0  0  0
  -28.7603  -21.1847   18.2045 H   0  0  0  0  0  0  0  0  0  0  0  0
  -30.8541  -23.4450   17.2459 H   0  0  0  0  0  0  0  0  0  0  0  0
  -29.5256  -22.8308   16.2914 H   0  0  0  0  0  0  0  0  0  0  0  0
  -31.1669  -22.6584   15.7174 H   0  0  0  0  0  0  0  0  0  0  0  0
  -30.2436  -19.2606   16.7576 H   0  0  0  0  0  0  0  0  0  0  0  0
  -30.8150  -20.2493   15.4350 H   0  0  0  0  0  0  0  0  0  0  0  0
  -29.1738  -20.4218   16.0091 H   0  0  0  0  0  0  0  0  0  0  0  0
  -23.2855  -19.7717   19.1599 H   0  0  0  0  0  0  0  0  0  0  0  0
  -24.1479  -18.2977   19.5299 H   0  0  0  0  0  0  0  0  0  0  0  0
  -24.5059  -19.1742   18.0614 H   0  0  0  0  0  0  0  0  0  0  0  0
  -27.7770  -21.1968   20.0167 H   0  0  0  0  0  0  0  0  0  0  0  0
  -27.4730  -20.2949   21.5030 H   0  0  0  0  0  0  0  0  0  0  0  0
  -30.4977  -16.9214   23.0295 H   0  0  0  0  0  0  0  0  0  0  0  0
  -31.8764  -16.4833   22.0123 H   0  0  0  0  0  0  0  0  0  0  0  0
  -30.9074  -22.6797   19.4435 H   0  0  0  0  0  0  0  0  0  0  0  0
  -29.0630  -22.1477   20.0968 H   0  0  0  0  0  0  0  0  0  0  0  0
  -24.9978  -20.1695   20.8542 H   0  0  0  0  0  0  0  0  0  0  0  0
  -25.3625  -21.0349   19.3631 H   0  0  0  0  0  0  0  0  0  0  0  0
  -26.5919  -18.4373   20.2260 H   0  0  0  0  0  0  0  0  0  0  0  0
  -26.9290  -19.3035   18.7278 H   0  0  0  0  0  0  0  0  0  0  0  0
  -29.2134  -15.3553   21.9084 H   0  0  0  0  0  0  0  0  0  0  0  0
  1 25  1  0
  1 30  2  0
  1 89  1  0
  2  3  1  0
  2 25  1  0
  2 90  1  0
  2 91  1  0
  3  4  1  0
  3 92  1  0
  3 93  1  0
  4  5  1  0
  4 94  1  0
  4 95  1  0
  5  6  1  0
  5 26  1  0
  5 96  1  6
  6 25  1  0
  6 97  1  0
  6 98  1  0
  7  8  2  0
  7 26  1  0
  7 29  1  0
  8  9  1  0
  8 22  1  0
  9 10  1  0
  9 27  2  0
 10 11  2  0
 10 15  1  0
 11 12  1  0
 11 99  1  0
 12 13  2  0
 12100  1  0
 13 14  1  0
 13 31  1  0
 14 15  2  0
 14101  1  0
 15102  1  0
 16 17  2  0
 16 21  1  0
 16 31  1  0
 17 18  1  0
 17103  1  0
 18 19  2  0
 18104  1  0
 19 20  1  0
 19 24  1  0
 20 21  2  0
 20105  1  0
 21 23  1  0
 22 28  1  0
 22 32  2  0
 26 27  1  0
 28106  1  0
 28107  1  0
 29108  1  0
 29109  1  0
 33 34  1  0
 33 66  1  0
 33 70  2  0
 34 36  1  0
 34 59  1  0
 34110  1  6
 35 44  2  0
 35 45  1  0
 35 68  1  0
 36 56  1  0
 36111  1  0
 37 39  1  0
 37 47  1  0
 37 66  1  0
 37112  1  6
 38 43  2  0
 38 46  1  0
 38 47  1  0
 39 64  1  0
 39 67  2  0
 40 52  1  0
 40 53  2  0
 40 58  1  0
 41113  1  0
 41114  1  0
 41115  1  0
 42 43  1  0
 42 66  1  0
 42116  1  0
 42117  1  0
 43 44  1  0
 44118  1  0
 45 46  2  0
 45119  1  0
 46120  1  0
 47121  1  0
 47122  1  0
 48 41  1  0
 48 56  1  0
 48 65  1  0
 48123  1  1
 49 50  1  0
 49 53  1  0
 49 64  1  0
 49124  1  1
 50 51  1  0
 50125  1  0
 50126  1  0
 51 52  1  0
 51127  1  0
 51128  1  0
 52129  1  0
 52130  1  0
 53 54  1  0
 54 55  2  0
 54131  1  0
 55 57  1  0
 55132  1  0
 56 69  2  0
 57 58  2  0
 57133  1  0
 58134  1  0
 59 60  1  0
 59 61  1  0
 59 62  1  0
 60135  1  0
 60136  1  0
 60137  1  0
 61138  1  0
 61139  1  0
 61140  1  0
 62141  1  0
 62142  1  0
 62143  1  0
 63 65  1  0
 63144  1  0
 63145  1  0
 63146  1  0
 64147  1  0
 65148  1  0
 68 86  1  0
 71 73  2  0
 71 75  1  0
 71149  1  0
 72 75  2  0
 72 76  1  0
 72150  1  0
 73 74  1  0
 73 77  1  0
 74 76  2  0
 74 79  1  0
 75 85  1  0
 76 84  1  0
 77 78  1  0
 77151  1  0
 77152  1  0
 78 80  1  0
 78153  1  0
 78154  1  0
 79 80  1  0
 79 86  1  0
 79155  1  6
 80 81  1  0
 80 82  1  0
 81156  1  0
 81157  1  0
 81158  1  0
 82159  1  0
 82160  1  0
 82161  1  0
 83 87  1  0
 83162  1  0
 83163  1  0
 83164  1  0
 84 88  1  0
 84165  1  0
 84166  1  0
 85 89  1  0
 85167  1  0
 85168  1  0
 86169  1  0
 86170  1  0
 87 88  1  0
 87171  1  0
 87172  1  0
 88173  1  0
 88174  1  0
 89175  1  0
M  ISO  4   1 100  68 101  86 101  89 100
M  END
$$$$
69
     RDKit          3D

157166  0  0  0  0  0  0  0  0999 V2000
  -30.7652  -14.3608   20.6636 C   0  0  0  0  0  0  0  0  0100  0  0
  -30.4392  -12.2669   19.3775 C   0  0  0  0  0  0  0  0  0101  0  0
  -29.4791  -12.5281   18.1977 C   0  0  0  0  0  0  0  0  0102  0  0
  -27.9985  -12.3963   18.6038 C   0  0  0  0  0  0  0  0  0103  0  0
  -27.6639  -13.2170   19.8820 C   0  0  2  0  0  0  0  0  0104  0  0
  -28.6795  -12.9602   21.0279 C   0  0  0  0  0  0  0  0  0105  0  0
  -25.2633  -13.8245   20.5754 C   0  0  0  0  0  0  0  0  0106  0  0
  -24.1645  -13.0409   20.9408 C   0  0  0  0  0  0  0  0  0107  0  0
  -24.6400  -11.7009   20.8697 C   0  0  0  0  0  0  0  0  0108  0  0
  -23.9005  -10.4085   21.0420 C   0  0  0  0  0  0  0  0  0109  0  0
  -24.3588   -9.4123   21.9123 C   0  0  0  0  0  0  0  0  0110  0  0
  -23.6296   -8.2350   22.0803 C   0  0  0  0  0  0  0  0  0111  0  0
  -22.4385   -8.0419   21.3657 C   0  0  0  0  0  0  0  0  0112  0  0
  -22.0103   -9.0167   20.4678 C   0  0  0  0  0  0  0  0  0113  0  0
  -22.7317  -10.1925   20.3102 C   0  0  0  0  0  0  0  0  0114  0  0
  -21.6857   -6.0709   22.5391 C   0  0  0  0  0  0  0  0  0115  0  0
  -21.4064   -6.5490   23.8264 C   0  0  0  0  0  0  0  0  0116  0  0
  -21.3635   -5.6677   24.9085 C   0  0  0  0  0  0  0  0  0117  0  0
  -21.5973   -4.3067   24.7088 C   0  0  0  0  0  0  0  0  0118  0  0
  -21.8700   -3.8284   23.4282 C   0  0  0  0  0  0  0  0  0119  0  0
  -21.9144   -4.7056   22.3460 C   0  0  0  0  0  0  0  0  0120  0  0
  -22.8194  -13.5263   21.1763 C   0  0  0  0  0  0  0  0  0121  0  0
  -22.1559   -4.2206   21.1063 F   0  0  0  0  0  0  0  0  0122  0  0
  -21.5628   -3.4510   25.7555 F   0  0  0  0  0  0  0  0  0123  0  0
  -30.0261  -13.1803   20.4553 N   0  0  0  0  0  0  0  0  0124  0  0
  -26.2911  -12.9356   20.3443 N   0  0  0  0  0  0  0  0  0125  0  0
  -25.9236  -11.6675   20.5847 N   0  0  0  0  0  0  0  0  0126  0  0
  -22.0708  -12.7905   22.0005 N   0  0  0  0  0  0  0  0  0127  0  0
  -25.4117  -15.1773   20.4097 N   0  0  0  0  0  0  0  0  0128  0  0
  -31.7916  -14.6724   20.0536 O   0  0  0  0  0  0  0  0  0129  0  0
  -21.6670   -6.9022   21.4423 O   0  0  0  0  0  0  0  0  0130  0  0
  -22.3946  -14.5564   20.6568 O   0  0  0  0  0  0  0  0  0131  0  0
  -24.6048  -31.8614   23.2223 C   0  0  0  0  0  0  0  0  0100  0  0
  -25.8822  -32.4841   23.8616 C   0  0  1  0  0  0  0  0  0101  0  0
  -27.2536  -27.5042   20.1156 C   0  0  0  0  0  0  0  0  0102  0  0
  -25.5726  -33.8762   24.2210 N   0  0  0  0  0  0  0  0  0103  0  0
  -23.4066  -30.4859   21.5461 C   0  0  2  0  0  0  0  0  0104  0  0
  -24.8467  -28.9636   20.1247 C   0  0  0  0  0  0  0  0  0105  0  0
  -22.7412  -29.4652   22.5052 C   0  0  0  0  0  0  0  0  0106  0  0
  -18.0167  -28.1302   22.8626 C   0  0  0  0  0  0  0  0  0107  0  0
  -24.1342  -36.7390   23.2568 C   0  0  0  0  0  0  0  0  0108  0  0
  -25.9141  -30.8882   21.3456 C   0  0  0  0  0  0  0  0  0109  0  0
  -25.9930  -29.5029   20.7208 C   0  0  0  0  0  0  0  0  0110  0  0
  -27.1758  -28.7612   20.7331 C   0  0  0  0  0  0  0  0  0111  0  0
  -26.1032  -26.9836   19.5230 C   0  0  0  0  0  0  0  0  0112  0  0
  -24.9097  -27.7011   19.5331 C   0  0  0  0  0  0  0  0  0113  0  0
  -23.5715  -29.7899   20.1582 C   0  0  0  0  0  0  0  0  0114  0  0
  -25.3990  -36.3212   24.0232 C   0  0  1  0  0  0  0  0  0115  0  0
  -20.5793  -28.3813   23.1004 C   0  0  2  0  0  0  0  0  0116  0  0
  -20.6548  -26.9392   22.5411 C   0  0  0  0  0  0  0  0  0117  0  0
  -19.5615  -26.6407   21.5143 C   0  0  0  0  0  0  0  0  0118  0  0
  -18.1797  -26.7818   22.1673 C   0  0  0  0  0  0  0  0  0119  0  0
  -19.1385  -28.8769   23.2988 C   0  0  0  0  0  0  0  0  0120  0  0
  -18.9183  -30.1286   23.8878 C   0  0  0  0  0  0  0  0  0121  0  0
  -17.6396  -30.6493   24.0352 C   0  0  0  0  0  0  0  0  0122  0  0
  -25.9153  -34.9582   23.4993 C   0  0  0  0  0  0  0  0  0123  0  0
  -16.5415  -29.9068   23.6254 C   0  0  0  0  0  0  0  0  0124  0  0
  -16.7331  -28.6521   23.0586 C   0  0  0  0  0  0  0  0  0125  0  0
  -26.4583  -31.6439   25.0683 C   0  0  0  0  0  0  0  0  0126  0  0
  -25.3807  -31.3179   26.1374 C   0  0  0  0  0  0  0  0  0127  0  0
  -27.0530  -30.3024   24.5680 C   0  0  0  0  0  0  0  0  0128  0  0
  -27.6014  -32.4281   25.7651 C   0  0  0  0  0  0  0  0  0129  0  0
  -27.5629  -37.2220   24.8621 C   0  0  0  0  0  0  0  0  0130  0  0
  -21.4133  -29.3375   22.3735 N   0  0  0  0  0  0  0  0  0131  0  0
  -26.4706  -37.3372   23.9061 N   0  0  0  0  0  0  0  0  0132  0  0
  -24.6674  -31.0544   22.1178 N   0  0  0  0  0  0  0  0  0133  0  0
  -23.4259  -28.8150   23.2971 O   0  0  0  0  0  0  0  0  0134  0  0
  -28.3948  -26.7345   20.0089 O   0  0  0  0  0  0  0  0  0135  0  0
  -26.5870  -34.9065   22.4671 O   0  0  0  0  0  0  0  0  0136  0  0
  -23.5365  -32.1254   23.7833 O   0  0  0  0  0  0  0  0  0137  0  0
  -32.0337  -17.0448   26.2573 C   0  0  0  0  0  0  0  0  0  0  0  0
  -31.8641  -15.8358   25.5826 C   0  0  0  0  0  0  0  0  0  0  0  0
  -33.6890  -16.0159   27.6850 C   0  0  0  0  0  0  0  0  0  0  0  0
  -33.5193  -14.8069   27.0104 C   0  0  0  0  0  0  0  0  0  0  0  0
  -32.9462  -17.1349   27.3085 C   0  0  0  0  0  0  0  0  0  0  0  0
  -32.6069  -14.7168   25.9592 C   0  0  0  0  0  0  0  0  0  0  0  0
  -30.9999  -16.7702   23.3347 C   0  0  0  0  0  0  0  0  0  0  0  0
  -30.8761  -15.7833   24.4619 C   0  0  1  0  0  0  0  0  0  0  0  0
  -31.3438  -15.3289   23.1005 C   0  0  1  0  0  0  0  0  0  0  0  0
  -34.6717  -16.1005   28.8119 C   0  0  0  0  0  0  0  0  0  0  0  0
  -34.3318  -13.6065   27.4313 C   0  0  0  0  0  0  0  0  0  0  0  0
  -33.5207  -12.6207   28.2651 C   0  0  0  0  0  0  0  0  0  1  0  0
  -30.5071  -14.4827   22.2791 N   0  0  0  0  0  0  0  0  0  0  0  0
  -33.1257  -18.6496   28.1180 Cl  0  0  0  0  0  0  0  0  0  0  0  0
  -32.3947  -13.2151   25.1205 Cl  0  0  0  0  0  0  0  0  0  0  0  0
  -31.4485  -12.4701   19.0860 H   0  0  0  0  0  0  0  0  0  0  0  0
  -30.3970  -11.2460   19.6950 H   0  0  0  0  0  0  0  0  0  0  0  0
  -29.6870  -11.8204   17.4226 H   0  0  0  0  0  0  0  0  0  0  0  0
  -29.6375  -13.5326   17.8649 H   0  0  0  0  0  0  0  0  0  0  0  0
  -27.7830  -11.3650   18.7904 H   0  0  0  0  0  0  0  0  0  0  0  0
  -27.4028  -12.7801   17.8021 H   0  0  0  0  0  0  0  0  0  0  0  0
  -27.7353  -14.2503   19.6136 H   0  0  0  0  0  0  0  0  0  0  0  0
  -28.5890  -11.9550   21.3832 H   0  0  0  0  0  0  0  0  0  0  0  0
  -28.5005  -13.6134   21.8562 H   0  0  0  0  0  0  0  0  0  0  0  0
  -25.2399   -9.5495   22.4318 H   0  0  0  0  0  0  0  0  0  0  0  0
  -23.9663   -7.5070   22.7297 H   0  0  0  0  0  0  0  0  0  0  0  0
  -21.1515   -8.8641   19.9162 H   0  0  0  0  0  0  0  0  0  0  0  0
  -22.4016  -10.9115   19.6476 H   0  0  0  0  0  0  0  0  0  0  0  0
  -21.2319   -7.5552   23.9750 H   0  0  0  0  0  0  0  0  0  0  0  0
  -21.1589   -6.0228   25.8556 H   0  0  0  0  0  0  0  0  0  0  0  0
  -22.0396   -2.8212   23.2809 H   0  0  0  0  0  0  0  0  0  0  0  0
  -22.4401  -11.9703   22.4008 H   0  0  0  0  0  0  0  0  0  0  0  0
  -21.1493  -13.0679   22.2082 H   0  0  0  0  0  0  0  0  0  0  0  0
  -24.6538  -15.7807   20.5848 H   0  0  0  0  0  0  0  0  0  0  0  0
  -26.2762  -15.5453   20.1156 H   0  0  0  0  0  0  0  0  0  0  0  0
  -26.6778  -32.4663   23.1464 H   0  0  0  0  0  0  0  0  0  0  0  0
  -25.0747  -34.0282   25.0566 H   0  0  0  0  0  0  0  0  0  0  0  0
  -22.7881  -31.3489   21.4131 H   0  0  0  0  0  0  0  0  0  0  0  0
  -23.3854  -35.9823   23.3648 H   0  0  0  0  0  0  0  0  0  0  0  0
  -24.3696  -36.8624   22.2204 H   0  0  0  0  0  0  0  0  0  0  0  0
  -23.7669  -37.6632   23.6516 H   0  0  0  0  0  0  0  0  0  0  0  0
  -25.9445  -31.6237   20.5691 H   0  0  0  0  0  0  0  0  0  0  0  0
  -26.7436  -31.0079   22.0108 H   0  0  0  0  0  0  0  0  0  0  0  0
  -28.0090  -29.1452   21.2057 H   0  0  0  0  0  0  0  0  0  0  0  0
  -26.1369  -26.0560   19.0719 H   0  0  0  0  0  0  0  0  0  0  0  0
  -24.0652  -27.2961   19.0997 H   0  0  0  0  0  0  0  0  0  0  0  0
  -23.6156  -30.5365   19.3930 H   0  0  0  0  0  0  0  0  0  0  0  0
  -22.7355  -29.1425   19.9945 H   0  0  0  0  0  0  0  0  0  0  0  0
  -25.1353  -36.2335   25.0565 H   0  0  0  0  0  0  0  0  0  0  0  0
  -21.0070  -28.3206   24.0793 H   0  0  0  0  0  0  0  0  0  0  0  0
  -20.5555  -26.2518   23.3550 H   0  0  0  0  0  0  0  0  0  0  0  0
  -21.5974  -26.8362   22.0454 H   0  0  0  0  0  0  0  0  0  0  0  0
  -19.6810  -25.6422   21.1488 H   0  0  0  0  0  0  0  0  0  0  0  0
  -19.6406  -27.3343   20.7034 H   0  0  0  0  0  0  0  0  0  0  0  0
  -17.4282  -26.6888   21.4113 H   0  0  0  0  0  0  0  0  0  0  0  0
  -18.0803  -26.0130   22.9049 H   0  0  0  0  0  0  0  0  0  0  0  0
  -19.7265  -30.6774   24.2204 H   0  0  0  0  0  0  0  0  0  0  0  0
  -17.5064  -31.5856   24.4483 H   0  0  0  0  0  0  0  0  0  0  0  0
  -15.5878  -30.2839   23.7407 H   0  0  0  0  0  0  0  0  0  0  0  0
  -15.9120  -28.0941   22.7766 H   0  0  0  0  0  0  0  0  0  0  0  0
  -24.5787  -30.7757   25.6817 H   0  0  0  0  0  0  0  0  0  0  0  0
  -25.0041  -32.2289   26.5536 H   0  0  0  0  0  0  0  0  0  0  0  0
  -25.8166  -30.7245   26.9138 H   0  0  0  0  0  0  0  0  0  0  0  0
  -26.2892  -29.7335   24.0803 H   0  0  0  0  0  0  0  0  0  0  0  0
  -27.4336  -29.7484   25.4006 H   0  0  0  0  0  0  0  0  0  0  0  0
  -27.8466  -30.4994   23.8779 H   0  0  0  0  0  0  0  0  0  0  0  0
  -27.2251  -33.3632   26.1242 H   0  0  0  0  0  0  0  0  0  0  0  0
  -28.3902  -32.6065   25.0645 H   0  0  0  0  0  0  0  0  0  0  0  0
  -27.9772  -31.8555   26.5872 H   0  0  0  0  0  0  0  0  0  0  0  0
  -28.2744  -38.0016   24.6863 H   0  0  0  0  0  0  0  0  0  0  0  0
  -28.0396  -36.2711   24.7461 H   0  0  0  0  0  0  0  0  0  0  0  0
  -27.1773  -37.3087   25.8564 H   0  0  0  0  0  0  0  0  0  0  0  0
  -20.9627  -29.9365   21.7352 H   0  0  0  0  0  0  0  0  0  0  0  0
  -26.0447  -38.2561   24.0273 H   0  0  0  0  0  0  0  0  0  0  0  0
  -31.4841  -17.8727   25.9788 H   0  0  0  0  0  0  0  0  0  0  0  0
  -31.7747  -17.5079   23.3534 H   0  0  0  0  0  0  0  0  0  0  0  0
  -30.3397  -17.4734   22.8715 H   0  0  0  0  0  0  0  0  0  0  0  0
  -30.0939  -15.4932   25.1319 H   0  0  0  0  0  0  0  0  0  0  0  0
  -32.2009  -14.8101   22.7248 H   0  0  0  0  0  0  0  0  0  0  0  0
  -35.1395  -15.1481   28.9495 H   0  0  0  0  0  0  0  0  0  0  0  0
  -34.1615  -16.3803   29.7098 H   0  0  0  0  0  0  0  0  0  0  0  0
  -35.4163  -16.8336   28.5816 H   0  0  0  0  0  0  0  0  0  0  0  0
  -35.1662  -13.9421   28.0110 H   0  0  0  0  0  0  0  0  0  0  0  0
  -34.6500  -13.0999   26.5442 H   0  0  0  0  0  0  0  0  0  0  0  0
  -33.5986  -12.5945   29.3319 H   0  0  0  0  0  0  0  0  0  0  0  0
  -33.2994  -11.5741   28.2880 H   0  0  0  0  0  0  0  0  0  0  0  0
  -29.7738  -13.9736   22.6943 H   0  0  0  0  0  0  0  0  0  0  0  0
  1 25  1  0
  1 30  2  0
  1 83  1  0
  2  3  1  0
  2 25  1  0
  2 86  1  0
  2 87  1  0
  3  4  1  0
  3 88  1  0
  3 89  1  0
  4  5  1  0
  4 90  1  0
  4 91  1  0
  5  6  1  0
  5 26  1  0
  5 92  1  6
  6 25  1  0
  6 93  1  0
  6 94  1  0
  7  8  2  0
  7 26  1  0
  7 29  1  0
  8  9  1  0
  8 22  1  0
  9 10  1  0
  9 27  2  0
 10 11  2  0
 10 15  1  0
 11 12  1  0
 11 95  1  0
 12 13  2  0
 12 96  1  0
 13 14  1  0
 13 31  1  0
 14 15  2  0
 14 97  1  0
 15 98  1  0
 16 17  2  0
 16 21  1  0
 16 31  1  0
 17 18  1  0
 17 99  1  0
 18 19  2  0
 18100  1  0
 19 20  1  0
 19 24  1  0
 20 21  2  0
 20101  1  0
 21 23  1  0
 22 28  1  0
 22 32  2  0
 26 27  1  0
 28102  1  0
 28103  1  0
 29104  1  0
 29105  1  0
 33 34  1  0
 33 66  1  0
 33 70  2  0
 34 36  1  0
 34 59  1  0
 34106  1  6
 35 44  2  0
 35 45  1  0
 35 68  1  0
 36 56  1  0
 36107  1  0
 37 39  1  0
 37 47  1  0
 37 66  1  0
 37108  1  6
 38 43  2  0
 38 46  1  0
 38 47  1  0
 39 64  1  0
 39 67  2  0
 40 52  1  0
 40 53  2  0
 40 58  1  0
 41109  1  0
 41110  1  0
 41111  1  0
 42 43  1  0
 42 66  1  0
 42112  1  0
 42113  1  0
 43 44  1  0
 44114  1  0
 45 46  2  0
 45115  1  0
 46116  1  0
 47117  1  0
 47118  1  0
 48 41  1  0
 48 56  1  0
 48 65  1  0
 48119  1  1
 49 50  1  0
 49 53  1  0
 49 64  1  0
 49120  1  1
 50 51  1  0
 50121  1  0
 50122  1  0
 51 52  1  0
 51123  1  0
 51124  1  0
 52125  1  0
 52126  1  0
 53 54  1  0
 54 55  2  0
 54127  1  0
 55 57  1  0
 55128  1  0
 56 69  2  0
 57 58  2  0
 57129  1  0
 58130  1  0
 59 60  1  0
 59 61  1  0
 59 62  1  0
 60131  1  0
 60132  1  0
 60133  1  0
 61134  1  0
 61135  1  0
 61136  1  0
 62137  1  0
 62138  1  0
 62139  1  0
 63 65  1  0
 63140  1  0
 63141  1  0
 63142  1  0
 64143  1  0
 65144  1  0
 68 82  1  0
 71 72  2  0
 71 75  1  0
 71145  1  0
 72 76  1  0
 73 74  1  0
 73 75  2  0
 73 80  1  0
 74 76  2  0
 74 81  1  0
 75 84  1  0
 76 85  1  0
 77 78  1  0
 77 79  1  0
 77146  1  0
 77147  1  0
 78 72  1  0
 78 79  1  0
 78148  1  1
 79 83  1  0
 79149  1  1
 80150  1  0
 80151  1  0
 80152  1  0
 81 82  1  0
 81153  1  0
 81154  1  0
 82155  1  0
 82156  1  0
 83157  1  0
M  ISO  4   1 100  68 101  82 101  83 100
M  END
$$$$
70
     RDKit          3D

149156  0  0  0  0  0  0  0  0999 V2000
  -30.7652  -14.3608   20.6636 C   0  0  0  0  0  0  0  0  0100  0  0
  -30.4392  -12.2669   19.3775 C   0  0  0  0  0  0  0  0  0101  0  0
  -29.4791  -12.5281   18.1977 C   0  0  0  0  0  0  0  0  0102  0  0
  -27.9985  -12.3963   18.6038 C   0  0  0  0  0  0  0  0  0103  0  0
  -27.6639  -13.2170   19.8820 C   0  0  2  0  0  0  0  0  0104  0  0
  -28.6795  -12.9602   21.0279 C   0  0  0  0  0  0  0  0  0105  0  0
  -25.2633  -13.8245   20.5754 C   0  0  0  0  0  0  0  0  0106  0  0
  -24.1645  -13.0409   20.9408 C   0  0  0  0  0  0  0  0  0107  0  0
  -24.6400  -11.7009   20.8697 C   0  0  0  0  0  0  0  0  0108  0  0
  -23.9005  -10.4085   21.0420 C   0  0  0  0  0  0  0  0  0109  0  0
  -24.3588   -9.4123   21.9123 C   0  0  0  0  0  0  0  0  0110  0  0
  -23.6296   -8.2350   22.0803 C   0  0  0  0  0  0  0  0  0111  0  0
  -22.4385   -8.0419   21.3657 C   0  0  0  0  0  0  0  0  0112  0  0
  -22.0103   -9.0167   20.4678 C   0  0  0  0  0  0  0  0  0113  0  0
  -22.7317  -10.1925   20.3102 C   0  0  0  0  0  0  0  0  0114  0  0
  -21.6857   -6.0709   22.5391 C   0  0  0  0  0  0  0  0  0115  0  0
  -21.4064   -6.5490   23.8264 C   0  0  0  0  0  0  0  0  0116  0  0
  -21.3635   -5.6677   24.9085 C   0  0  0  0  0  0  0  0  0117  0  0
  -21.5973   -4.3067   24.7088 C   0  0  0  0  0  0  0  0  0118  0  0
  -21.8700   -3.8284   23.4282 C   0  0  0  0  0  0  0  0  0119  0  0
  -21.9144   -4.7056   22.3460 C   0  0  0  0  0  0  0  0  0120  0  0
  -22.8194  -13.5263   21.1763 C   0  0  0  0  0  0  0  0  0121  0  0
  -22.1559   -4.2206   21.1063 F   0  0  0  0  0  0  0  0  0122  0  0
  -21.5628   -3.4510   25.7555 F   0  0  0  0  0  0  0  0  0123  0  0
  -30.0261  -13.1803   20.4553 N   0  0  0  0  0  0  0  0  0124  0  0
  -26.2911  -12.9356   20.3443 N   0  0  0  0  0  0  0  0  0125  0  0
  -25.9236  -11.6675   20.5847 N   0  0  0  0  0  0  0  0  0126  0  0
  -22.0708  -12.7905   22.0005 N   0  0  0  0  0  0  0  0  0127  0  0
  -25.4117  -15.1773   20.4097 N   0  0  0  0  0  0  0  0  0128  0  0
  -31.7916  -14.6724   20.0536 O   0  0  0  0  0  0  0  0  0129  0  0
  -21.6670   -6.9022   21.4423 O   0  0  0  0  0  0  0  0  0130  0  0
  -22.3946  -14.5564   20.6568 O   0  0  0  0  0  0  0  0  0131  0  0
  -24.6048  -31.8614   23.2223 C   0  0  0  0  0  0  0  0  0100  0  0
  -25.8822  -32.4841   23.8616 C   0  0  1  0  0  0  0  0  0101  0  0
  -27.2536  -27.5042   20.1156 C   0  0  0  0  0  0  0  0  0102  0  0
  -25.5726  -33.8762   24.2210 N   0  0  0  0  0  0  0  0  0103  0  0
  -23.4066  -30.4859   21.5461 C   0  0  2  0  0  0  0  0  0104  0  0
  -24.8467  -28.9636   20.1247 C   0  0  0  0  0  0  0  0  0105  0  0
  -22.7412  -29.4652   22.5052 C   0  0  0  0  0  0  0  0  0106  0  0
  -18.0167  -28.1302   22.8626 C   0  0  0  0  0  0  0  0  0107  0  0
  -24.1342  -36.7390   23.2568 C   0  0  0  0  0  0  0  0  0108  0  0
  -25.9141  -30.8882   21.3456 C   0  0  0  0  0  0  0  0  0109  0  0
  -25.9930  -29.5029   20.7208 C   0  0  0  0  0  0  0  0  0110  0  0
  -27.1758  -28.7612   20.7331 C   0  0  0  0  0  0  0  0  0111  0  0
  -26.1032  -26.9836   19.5230 C   0  0  0  0  0  0  0  0  0112  0  0
  -24.9097  -27.7011   19.5331 C   0  0  0  0  0  0  0  0  0113  0  0
  -23.5715  -29.7899   20.1582 C   0  0  0  0  0  0  0  0  0114  0  0
  -25.3990  -36.3212   24.0232 C   0  0  1  0  0  0  0  0  0115  0  0
  -20.5793  -28.3813   23.1004 C   0  0  2  0  0  0  0  0  0116  0  0
  -20.6548  -26.9392   22.5411 C   0  0  0  0  0  0  0  0  0117  0  0
  -19.5615  -26.6407   21.5143 C   0  0  0  0  0  0  0  0  0118  0  0
  -18.1797  -26.7818   22.1673 C   0  0  0  0  0  0  0  0  0119  0  0
  -19.1385  -28.8769   23.2988 C   0  0  0  0  0  0  0  0  0120  0  0
  -18.9183  -30.1286   23.8878 C   0  0  0  0  0  0  0  0  0121  0  0
  -17.6396  -30.6493   24.0352 C   0  0  0  0  0  0  0  0  0122  0  0
  -25.9153  -34.9582   23.4993 C   0  0  0  0  0  0  0  0  0123  0  0
  -16.5415  -29.9068   23.6254 C   0  0  0  0  0  0  0  0  0124  0  0
  -16.7331  -28.6521   23.0586 C   0  0  0  0  0  0  0  0  0125  0  0
  -26.4583  -31.6439   25.0683 C   0  0  0  0  0  0  0  0  0126  0  0
  -25.3807  -31.3179   26.1374 C   0  0  0  0  0  0  0  0  0127  0  0
  -27.0530  -30.3024   24.5680 C   0  0  0  0  0  0  0  0  0128  0  0
  -27.6014  -32.4281   25.7651 C   0  0  0  0  0  0  0  0  0129  0  0
  -27.5629  -37.2220   24.8621 C   0  0  0  0  0  0  0  0  0130  0  0
  -21.4133  -29.3375   22.3735 N   0  0  0  0  0  0  0  0  0131  0  0
  -26.4706  -37.3372   23.9061 N   0  0  0  0  0  0  0  0  0132  0  0
  -24.6674  -31.0544   22.1178 N   0  0  0  0  0  0  0  0  0133  0  0
  -23.4259  -28.8150   23.2971 O   0  0  0  0  0  0  0  0  0134  0  0
  -28.3948  -26.7345   20.0089 O   0  0  0  0  0  0  0  0  0135  0  0
  -26.5870  -34.9065   22.4671 O   0  0  0  0  0  0  0  0  0136  0  0
  -23.5365  -32.1254   23.7833 O   0  0  0  0  0  0  0  0  0137  0  0
  -25.6046  -25.5549   13.1398 C   0  0  0  0  0  0  0  0  0  0  0  0
  -26.9193  -23.0853   15.8614 C   0  0  0  0  0  0  0  0  0  0  0  0
  -26.9009  -24.0166   14.6430 C   0  0  0  0  0  0  0  0  0  0  0  0
  -28.2533  -22.3613   16.0213 C   0  0  0  0  0  0  0  0  0  0  0  0
  -25.1203  -25.5680   15.6158 C   0  0  0  0  0  0  0  0  0  1  0  0
  -25.5422  -24.7080   14.4177 C   0  0  1  0  0  0  0  0  0  0  0  0
  -28.2628  -21.4678   17.1582 N   0  0  0  0  0  0  0  0  0  0  0  0
  -31.4485  -12.4701   19.0860 H   0  0  0  0  0  0  0  0  0  0  0  0
  -30.3970  -11.2460   19.6950 H   0  0  0  0  0  0  0  0  0  0  0  0
  -29.6870  -11.8204   17.4226 H   0  0  0  0  0  0  0  0  0  0  0  0
  -29.6375  -13.5326   17.8649 H   0  0  0  0  0  0  0  0  0  0  0  0
  -27.7830  -11.3650   18.7904 H   0  0  0  0  0  0  0  0  0  0  0  0
  -27.4028  -12.7801   17.8021 H   0  0  0  0  0  0  0  0  0  0  0  0
  -27.7353  -14.2503   19.6136 H   0  0  0  0  0  0  0  0  0  0  0  0
  -28.5890  -11.9550   21.3832 H   0  0  0  0  0  0  0  0  0  0  0  0
  -28.5005  -13.6134   21.8562 H   0  0  0  0  0  0  0  0  0  0  0  0
  -25.2399   -9.5495   22.4318 H   0  0  0  0  0  0  0  0  0  0  0  0
  -23.9663   -7.5070   22.7297 H   0  0  0  0  0  0  0  0  0  0  0  0
  -21.1515   -8.8641   19.9162 H   0  0  0  0  0  0  0  0  0  0  0  0
  -22.4016  -10.9115   19.6476 H   0  0  0  0  0  0  0  0  0  0  0  0
  -21.2319   -7.5552   23.9750 H   0  0  0  0  0  0  0  0  0  0  0  0
  -21.1589   -6.0228   25.8556 H   0  0  0  0  0  0  0  0  0  0  0  0
  -22.0396   -2.8212   23.2809 H   0  0  0  0  0  0  0  0  0  0  0  0
  -22.4401  -11.9703   22.4008 H   0  0  0  0  0  0  0  0  0  0  0  0
  -21.1493  -13.0679   22.2082 H   0  0  0  0  0  0  0  0  0  0  0  0
  -24.6538  -15.7807   20.5848 H   0  0  0  0  0  0  0  0  0  0  0  0
  -26.2762  -15.5453   20.1156 H   0  0  0  0  0  0  0  0  0  0  0  0
  -26.6778  -32.4663   23.1464 H   0  0  0  0  0  0  0  0  0  0  0  0
  -25.0747  -34.0282   25.0566 H   0  0  0  0  0  0  0  0  0  0  0  0
  -22.7881  -31.3489   21.4131 H   0  0  0  0  0  0  0  0  0  0  0  0
  -23.3854  -35.9823   23.3648 H   0  0  0  0  0  0  0  0  0  0  0  0
  -24.3696  -36.8624   22.2204 H   0  0  0  0  0  0  0  0  0  0  0  0
  -23.7669  -37.6632   23.6516 H   0  0  0  0  0  0  0  0  0  0  0  0
  -25.9445  -31.6237   20.5691 H   0  0  0  0  0  0  0  0  0  0  0  0
  -26.7436  -31.0079   22.0108 H   0  0  0  0  0  0  0  0  0  0  0  0
  -28.0090  -29.1452   21.2057 H   0  0  0  0  0  0  0  0  0  0  0  0
  -26.1369  -26.0560   19.0719 H   0  0  0  0  0  0  0  0  0  0  0  0
  -24.0652  -27.2961   19.0997 H   0  0  0  0  0  0  0  0  0  0  0  0
  -23.6156  -30.5365   19.3930 H   0  0  0  0  0  0  0  0  0  0  0  0
  -22.7355  -29.1425   19.9945 H   0  0  0  0  0  0  0  0  0  0  0  0
  -25.1353  -36.2335   25.0565 H   0  0  0  0  0  0  0  0  0  0  0  0
  -21.0070  -28.3206   24.0793 H   0  0  0  0  0  0  0  0  0  0  0  0
  -20.5555  -26.2518   23.3550 H   0  0  0  0  0  0  0  0  0  0  0  0
  -21.5974  -26.8362   22.0454 H   0  0  0  0  0  0  0  0  0  0  0  0
  -19.6810  -25.6422   21.1488 H   0  0  0  0  0  0  0  0  0  0  0  0
  -19.6406  -27.3343   20.7034 H   0  0  0  0  0  0  0  0  0  0  0  0
  -17.4282  -26.6888   21.4113 H   0  0  0  0  0  0  0  0  0  0  0  0
  -18.0803  -26.0130   22.9049 H   0  0  0  0  0  0  0  0  0  0  0  0
  -19.7265  -30.6774   24.2204 H   0  0  0  0  0  0  0  0  0  0  0  0
  -17.5064  -31.5856   24.4483 H   0  0  0  0  0  0  0  0  0  0  0  0
  -15.5878  -30.2839   23.7407 H   0  0  0  0  0  0  0  0  0  0  0  0
  -15.9120  -28.0941   22.7766 H   0  0  0  0  0  0  0  0  0  0  0  0
  -24.5787  -30.7757   25.6817 H   0  0  0  0  0  0  0  0  0  0  0  0
  -25.0041  -32.2289   26.5536 H   0  0  0  0  0  0  0  0  0  0  0  0
  -25.8166  -30.7245   26.9138 H   0  0  0  0  0  0  0  0  0  0  0  0
  -26.2892  -29.7335   24.0803 H   0  0  0  0  0  0  0  0  0  0  0  0
  -27.4336  -29.7484   25.4006 H   0  0  0  0  0  0  0  0  0  0  0  0
  -27.8466  -30.4994   23.8779 H   0  0  0  0  0  0  0  0  0  0  0  0
  -27.2251  -33.3632   26.1242 H   0  0  0  0  0  0  0  0  0  0  0  0
  -28.3902  -32.6065   25.0645 H   0  0  0  0  0  0  0  0  0  0  0  0
  -27.9772  -31.8555   26.5872 H   0  0  0  0  0  0  0  0  0  0  0  0
  -28.2744  -38.0016   24.6863 H   0  0  0  0  0  0  0  0  0  0  0  0
  -28.0396  -36.2711   24.7461 H   0  0  0  0  0  0  0  0  0  0  0  0
  -27.1773  -37.3087   25.8564 H   0  0  0  0  0  0  0  0  0  0  0  0
  -20.9627  -29.9365   21.7352 H   0  0  0  0  0  0  0  0  0  0  0  0
  -26.0447  -38.2561   24.0273 H   0  0  0  0  0  0  0  0  0  0  0  0
  -25.9001  -24.9379   12.3171 H   0  0  0  0  0  0  0  0  0  0  0  0
  -26.3169  -26.3429   13.2686 H   0  0  0  0  0  0  0  0  0  0  0  0
  -24.6403  -25.9745   12.9426 H   0  0  0  0  0  0  0  0  0  0  0  0
  -26.1443  -22.3563   15.7482 H   0  0  0  0  0  0  0  0  0  0  0  0
  -26.7683  -23.6866   16.7335 H   0  0  0  0  0  0  0  0  0  0  0  0
  -27.1360  -23.4402   13.7727 H   0  0  0  0  0  0  0  0  0  0  0  0
  -27.6198  -24.7878   14.8257 H   0  0  0  0  0  0  0  0  0  0  0  0
  -29.0263  -23.0898   16.1503 H   0  0  0  0  0  0  0  0  0  0  0  0
  -28.4123  -21.7724   15.1422 H   0  0  0  0  0  0  0  0  0  0  0  0
  -24.2545  -25.0885   16.0225 H   0  0  0  0  0  0  0  0  0  0  0  0
  -25.0596  -26.5315   15.1545 H   0  0  0  0  0  0  0  0  0  0  0  0
  -24.7991  -23.9458   14.3094 H   0  0  0  0  0  0  0  0  0  0  0  0
  -27.7107  -21.9126   17.8412 H   0  0  0  0  0  0  0  0  0  0  0  0
  1 25  1  0
  1 30  2  0
  1 77  1  0
  2  3  1  0
  2 25  1  0
  2 78  1  0
  2 79  1  0
  3  4  1  0
  3 80  1  0
  3 81  1  0
  4  5  1  0
  4 82  1  0
  4 83  1  0
  5  6  1  0
  5 26  1  0
  5 84  1  6
  6 25  1  0
  6 85  1  0
  6 86  1  0
  7  8  2  0
  7 26  1  0
  7 29  1  0
  8  9  1  0
  8 22  1  0
  9 10  1  0
  9 27  2  0
 10 11  2  0
 10 15  1  0
 11 12  1  0
 11 87  1  0
 12 13  2  0
 12 88  1  0
 13 14  1  0
 13 31  1  0
 14 15  2  0
 14 89  1  0
 15 90  1  0
 16 17  2  0
 16 21  1  0
 16 31  1  0
 17 18  1  0
 17 91  1  0
 18 19  2  0
 18 92  1  0
 19 20  1  0
 19 24  1  0
 20 21  2  0
 20 93  1  0
 21 23  1  0
 22 28  1  0
 22 32  2  0
 26 27  1  0
 28 94  1  0
 28 95  1  0
 29 96  1  0
 29 97  1  0
 33 34  1  0
 33 66  1  0
 33 70  2  0
 34 36  1  0
 34 59  1  0
 34 98  1  6
 35 44  2  0
 35 45  1  0
 35 68  1  0
 36 56  1  0
 36 99  1  0
 37 39  1  0
 37 47  1  0
 37 66  1  0
 37100  1  6
 38 43  2  0
 38 46  1  0
 38 47  1  0
 39 64  1  0
 39 67  2  0
 40 52  1  0
 40 53  2  0
 40 58  1  0
 41101  1  0
 41102  1  0
 41103  1  0
 42 43  1  0
 42 66  1  0
 42104  1  0
 42105  1  0
 43 44  1  0
 44106  1  0
 45 46  2  0
 45107  1  0
 46108  1  0
 47109  1  0
 47110  1  0
 48 41  1  0
 48 56  1  0
 48 65  1  0
 48111  1  1
 49 50  1  0
 49 53  1  0
 49 64  1  0
 49112  1  1
 50 51  1  0
 50113  1  0
 50114  1  0
 51 52  1  0
 51115  1  0
 51116  1  0
 52117  1  0
 52118  1  0
 53 54  1  0
 54 55  2  0
 54119  1  0
 55 57  1  0
 55120  1  0
 56 69  2  0
 57 58  2  0
 57121  1  0
 58122  1  0
 59 60  1  0
 59 61  1  0
 59 62  1  0
 60123  1  0
 60124  1  0
 60125  1  0
 61126  1  0
 61127  1  0
 61128  1  0
 62129  1  0
 62130  1  0
 62131  1  0
 63 65  1  0
 63132  1  0
 63133  1  0
 63134  1  0
 64135  1  0
 65136  1  0
 68 75  1  0
 71137  1  0
 71138  1  0
 71139  1  0
 72 73  1  0
 72 74  1  0
 72140  1  0
 72141  1  0
 73 76  1  0
 73142  1  0
 73143  1  0
 74 77  1  0
 74144  1  0
 74145  1  0
 75 76  1  0
 75146  1  0
 75147  1  0
 76 71  1  0
 76148  1  6
 77149  1  0
M  ISO  4   1 100  68 101  75 101  77 100
M  END
$$$$
71
     RDKit          3D

166175  0  0  0  0  0  0  0  0999 V2000
  -30.7652  -14.3608   20.6636 C   0  0  0  0  0  0  0  0  0100  0  0
  -30.4392  -12.2669   19.3775 C   0  0  0  0  0  0  0  0  0101  0  0
  -29.4791  -12.5281   18.1977 C   0  0  0  0  0  0  0  0  0102  0  0
  -27.9985  -12.3963   18.6038 C   0  0  0  0  0  0  0  0  0103  0  0
  -27.6639  -13.2170   19.8820 C   0  0  2  0  0  0  0  0  0104  0  0
  -28.6795  -12.9602   21.0279 C   0  0  0  0  0  0  0  0  0105  0  0
  -25.2633  -13.8245   20.5754 C   0  0  0  0  0  0  0  0  0106  0  0
  -24.1645  -13.0409   20.9408 C   0  0  0  0  0  0  0  0  0107  0  0
  -24.6400  -11.7009   20.8697 C   0  0  0  0  0  0  0  0  0108  0  0
  -23.9005  -10.4085   21.0420 C   0  0  0  0  0  0  0  0  0109  0  0
  -24.3588   -9.4123   21.9123 C   0  0  0  0  0  0  0  0  0110  0  0
  -23.6296   -8.2350   22.0803 C   0  0  0  0  0  0  0  0  0111  0  0
  -22.4385   -8.0419   21.3657 C   0  0  0  0  0  0  0  0  0112  0  0
  -22.0103   -9.0167   20.4678 C   0  0  0  0  0  0  0  0  0113  0  0
  -22.7317  -10.1925   20.3102 C   0  0  0  0  0  0  0  0  0114  0  0
  -21.6857   -6.0709   22.5391 C   0  0  0  0  0  0  0  0  0115  0  0
  -21.4064   -6.5490   23.8264 C   0  0  0  0  0  0  0  0  0116  0  0
  -21.3635   -5.6677   24.9085 C   0  0  0  0  0  0  0  0  0117  0  0
  -21.5973   -4.3067   24.7088 C   0  0  0  0  0  0  0  0  0118  0  0
  -21.8700   -3.8284   23.4282 C   0  0  0  0  0  0  0  0  0119  0  0
  -21.9144   -4.7056   22.3460 C   0  0  0  0  0  0  0  0  0120  0  0
  -22.8194  -13.5263   21.1763 C   0  0  0  0  0  0  0  0  0121  0  0
  -22.1559   -4.2206   21.1063 F   0  0  0  0  0  0  0  0  0122  0  0
  -21.5628   -3.4510   25.7555 F   0  0  0  0  0  0  0  0  0123  0  0
  -30.0261  -13.1803   20.4553 N   0  0  0  0  0  0  0  0  0124  0  0
  -26.2911  -12.9356   20.3443 N   0  0  0  0  0  0  0  0  0125  0  0
  -25.9236  -11.6675   20.5847 N   0  0  0  0  0  0  0  0  0126  0  0
  -22.0708  -12.7905   22.0005 N   0  0  0  0  0  0  0  0  0127  0  0
  -25.4117  -15.1773   20.4097 N   0  0  0  0  0  0  0  0  0128  0  0
  -31.7916  -14.6724   20.0536 O   0  0  0  0  0  0  0  0  0129  0  0
  -21.6670   -6.9022   21.4423 O   0  0  0  0  0  0  0  0  0130  0  0
  -22.3946  -14.5564   20.6568 O   0  0  0  0  0  0  0  0  0131  0  0
  -24.6048  -31.8614   23.2223 C   0  0  0  0  0  0  0  0  0100  0  0
  -25.8822  -32.4841   23.8616 C   0  0  1  0  0  0  0  0  0101  0  0
  -27.2536  -27.5042   20.1156 C   0  0  0  0  0  0  0  0  0102  0  0
  -25.5726  -33.8762   24.2210 N   0  0  0  0  0  0  0  0  0103  0  0
  -23.4066  -30.4859   21.5461 C   0  0  2  0  0  0  0  0  0104  0  0
  -24.8467  -28.9636   20.1247 C   0  0  0  0  0  0  0  0  0105  0  0
  -22.7412  -29.4652   22.5052 C   0  0  0  0  0  0  0  0  0106  0  0
  -18.0167  -28.1302   22.8626 C   0  0  0  0  0  0  0  0  0107  0  0
  -24.1342  -36.7390   23.2568 C   0  0  0  0  0  0  0  0  0108  0  0
  -25.9141  -30.8882   21.3456 C   0  0  0  0  0  0  0  0  0109  0  0
  -25.9930  -29.5029   20.7208 C   0  0  0  0  0  0  0  0  0110  0  0
  -27.1758  -28.7612   20.7331 C   0  0  0  0  0  0  0  0  0111  0  0
  -26.1032  -26.9836   19.5230 C   0  0  0  0  0  0  0  0  0112  0  0
  -24.9097  -27.7011   19.5331 C   0  0  0  0  0  0  0  0  0113  0  0
  -23.5715  -29.7899   20.1582 C   0  0  0  0  0  0  0  0  0114  0  0
  -25.3990  -36.3212   24.0232 C   0  0  1  0  0  0  0  0  0115  0  0
  -20.5793  -28.3813   23.1004 C   0  0  2  0  0  0  0  0  0116  0  0
  -20.6548  -26.9392   22.5411 C   0  0  0  0  0  0  0  0  0117  0  0
  -19.5615  -26.6407   21.5143 C   0  0  0  0  0  0  0  0  0118  0  0
  -18.1797  -26.7818   22.1673 C   0  0  0  0  0  0  0  0  0119  0  0
  -19.1385  -28.8769   23.2988 C   0  0  0  0  0  0  0  0  0120  0  0
  -18.9183  -30.1286   23.8878 C   0  0  0  0  0  0  0  0  0121  0  0
  -17.6396  -30.6493   24.0352 C   0  0  0  0  0  0  0  0  0122  0  0
  -25.9153  -34.9582   23.4993 C   0  0  0  0  0  0  0  0  0123  0  0
  -16.5415  -29.9068   23.6254 C   0  0  0  0  0  0  0  0  0124  0  0
  -16.7331  -28.6521   23.0586 C   0  0  0  0  0  0  0  0  0125  0  0
  -26.4583  -31.6439   25.0683 C   0  0  0  0  0  0  0  0  0126  0  0
  -25.3807  -31.3179   26.1374 C   0  0  0  0  0  0  0  0  0127  0  0
  -27.0530  -30.3024   24.5680 C   0  0  0  0  0  0  0  0  0128  0  0
  -27.6014  -32.4281   25.7651 C   0  0  0  0  0  0  0  0  0129  0  0
  -27.5629  -37.2220   24.8621 C   0  0  0  0  0  0  0  0  0130  0  0
  -21.4133  -29.3375   22.3735 N   0  0  0  0  0  0  0  0  0131  0  0
  -26.4706  -37.3372   23.9061 N   0  0  0  0  0  0  0  0  0132  0  0
  -24.6674  -31.0544   22.1178 N   0  0  0  0  0  0  0  0  0133  0  0
  -23.4259  -28.8150   23.2971 O   0  0  0  0  0  0  0  0  0134  0  0
  -28.3948  -26.7345   20.0089 O   0  0  0  0  0  0  0  0  0135  0  0
  -26.5870  -34.9065   22.4671 O   0  0  0  0  0  0  0  0  0136  0  0
  -23.5365  -32.1254   23.7833 O   0  0  0  0  0  0  0  0  0137  0  0
  -27.2456  -21.3905   21.0042 C   0  0  0  0  0  0  0  0  0  0  0  0
  -27.1515  -18.6028   20.9545 C   0  0  0  0  0  0  0  0  0  0  0  0
  -26.5474  -20.6986   21.9938 C   0  0  0  0  0  0  0  0  0  0  0  0
  -27.8497  -19.2948   19.9649 C   0  0  0  0  0  0  0  0  0  0  0  0
  -27.8968  -20.6887   19.9897 C   0  0  0  0  0  0  0  0  0  0  0  0
  -26.5003  -19.3047   21.9690 C   0  0  0  0  0  0  0  0  0  0  0  0
  -24.7521  -22.4090   22.5060 C   0  0  0  0  0  0  0  0  0  0  0  0
  -26.8559  -22.3105   23.9214 C   0  0  0  0  0  0  0  0  0  0  0  0
  -24.0560  -23.2044   23.6074 C   0  0  0  0  0  0  0  0  0  0  0  0
  -26.1486  -23.1058   25.0157 C   0  0  0  0  0  0  0  0  0  0  0  0
  -25.8537  -21.5003   23.0800 C   0  0  2  0  0  0  0  0  0  0  0  0
  -25.0542  -24.0035   24.4434 C   0  0  1  0  0  0  0  0  0  1  0  0
  -28.5453  -18.5418   18.8812 C   0  0  0  0  0  0  0  0  0  0  0  0
  -30.0661  -18.3927   19.0830 C   0  0  0  0  0  0  0  0  0  0  0  0
  -30.4625  -17.7026   20.3865 C   0  0  0  0  0  0  0  0  0  0  0  0
  -29.9000  -16.3757   20.5029 N   0  0  0  0  0  0  0  0  0  0  0  0
  -28.5655  -21.3616   19.0429 F   0  0  0  0  0  0  0  0  0  0  0  0
  -25.6447  -18.4162   23.1763 Cl  0  0  0  0  0  0  0  0  0  0  0  0
  -31.4485  -12.4701   19.0860 H   0  0  0  0  0  0  0  0  0  0  0  0
  -30.3970  -11.2460   19.6950 H   0  0  0  0  0  0  0  0  0  0  0  0
  -29.6870  -11.8204   17.4226 H   0  0  0  0  0  0  0  0  0  0  0  0
  -29.6375  -13.5326   17.8649 H   0  0  0  0  0  0  0  0  0  0  0  0
  -27.7830  -11.3650   18.7904 H   0  0  0  0  0  0  0  0  0  0  0  0
  -27.4028  -12.7801   17.8021 H   0  0  0  0  0  0  0  0  0  0  0  0
  -27.7353  -14.2503   19.6136 H   0  0  0  0  0  0  0  0  0  0  0  0
  -28.5890  -11.9550   21.3832 H   0  0  0  0  0  0  0  0  0  0  0  0
  -28.5005  -13.6134   21.8562 H   0  0  0  0  0  0  0  0  0  0  0  0
  -25.2399   -9.5495   22.4318 H   0  0  0  0  0  0  0  0  0  0  0  0
  -23.9663   -7.5070   22.7297 H   0  0  0  0  0  0  0  0  0  0  0  0
  -21.1515   -8.8641   19.9162 H   0  0  0  0  0  0  0  0  0  0  0  0
  -22.4016  -10.9115   19.6476 H   0  0  0  0  0  0  0  0  0  0  0  0
  -21.2319   -7.5552   23.9750 H   0  0  0  0  0  0  0  0  0  0  0  0
  -21.1589   -6.0228   25.8556 H   0  0  0  0  0  0  0  0  0  0  0  0
  -22.0396   -2.8212   23.2809 H   0  0  0  0  0  0  0  0  0  0  0  0
  -22.4401  -11.9703   22.4008 H   0  0  0  0  0  0  0  0  0  0  0  0
  -21.1493  -13.0679   22.2082 H   0  0  0  0  0  0  0  0  0  0  0  0
  -24.6538  -15.7807   20.5848 H   0  0  0  0  0  0  0  0  0  0  0  0
  -26.2762  -15.5453   20.1156 H   0  0  0  0  0  0  0  0  0  0  0  0
  -26.6778  -32.4663   23.1464 H   0  0  0  0  0  0  0  0  0  0  0  0
  -25.0747  -34.0282   25.0566 H   0  0  0  0  0  0  0  0  0  0  0  0
  -22.7881  -31.3489   21.4131 H   0  0  0  0  0  0  0  0  0  0  0  0
  -23.3854  -35.9823   23.3648 H   0  0  0  0  0  0  0  0  0  0  0  0
  -24.3696  -36.8624   22.2204 H   0  0  0  0  0  0  0  0  0  0  0  0
  -23.7669  -37.6632   23.6516 H   0  0  0  0  0  0  0  0  0  0  0  0
  -25.9445  -31.6237   20.5691 H   0  0  0  0  0  0  0  0  0  0  0  0
  -26.7436  -31.0079   22.0108 H   0  0  0  0  0  0  0  0  0  0  0  0
  -28.0090  -29.1452   21.2057 H   0  0  0  0  0  0  0  0  0  0  0  0
  -26.1369  -26.0560   19.0719 H   0  0  0  0  0  0  0  0  0  0  0  0
  -24.0652  -27.2961   19.0997 H   0  0  0  0  0  0  0  0  0  0  0  0
  -23.6156  -30.5365   19.3930 H   0  0  0  0  0  0  0  0  0  0  0  0
  -22.7355  -29.1425   19.9945 H   0  0  0  0  0  0  0  0  0  0  0  0
  -25.1353  -36.2335   25.0565 H   0  0  0  0  0  0  0  0  0  0  0  0
  -21.0070  -28.3206   24.0793 H   0  0  0  0  0  0  0  0  0  0  0  0
  -20.5555  -26.2518   23.3550 H   0  0  0  0  0  0  0  0  0  0  0  0
  -21.5974  -26.8362   22.0454 H   0  0  0  0  0  0  0  0  0  0  0  0
  -19.6810  -25.6422   21.1488 H   0  0  0  0  0  0  0  0  0  0  0  0
  -19.6406  -27.3343   20.7034 H   0  0  0  0  0  0  0  0  0  0  0  0
  -17.4282  -26.6888   21.4113 H   0  0  0  0  0  0  0  0  0  0  0  0
  -18.0803  -26.0130   22.9049 H   0  0  0  0  0  0  0  0  0  0  0  0
  -19.7265  -30.6774   24.2204 H   0  0  0  0  0  0  0  0  0  0  0  0
  -17.5064  -31.5856   24.4483 H   0  0  0  0  0  0  0  0  0  0  0  0
  -15.5878  -30.2839   23.7407 H   0  0  0  0  0  0  0  0  0  0  0  0
  -15.9120  -28.0941   22.7766 H   0  0  0  0  0  0  0  0  0  0  0  0
  -24.5787  -30.7757   25.6817 H   0  0  0  0  0  0  0  0  0  0  0  0
  -25.0041  -32.2289   26.5536 H   0  0  0  0  0  0  0  0  0  0  0  0
  -25.8166  -30.7245   26.9138 H   0  0  0  0  0  0  0  0  0  0  0  0
  -26.2892  -29.7335   24.0803 H   0  0  0  0  0  0  0  0  0  0  0  0
  -27.4336  -29.7484   25.4006 H   0  0  0  0  0  0  0  0  0  0  0  0
  -27.8466  -30.4994   23.8779 H   0  0  0  0  0  0  0  0  0  0  0  0
  -27.2251  -33.3632   26.1242 H   0  0  0  0  0  0  0  0  0  0  0  0
  -28.3902  -32.6065   25.0645 H   0  0  0  0  0  0  0  0  0  0  0  0
  -27.9772  -31.8555   26.5872 H   0  0  0  0  0  0  0  0  0  0  0  0
  -28.2744  -38.0016   24.6863 H   0  0  0  0  0  0  0  0  0  0  0  0
  -28.0396  -36.2711   24.7461 H   0  0  0  0  0  0  0  0  0  0  0  0
  -27.1773  -37.3087   25.8564 H   0  0  0  0  0  0  0  0  0  0  0  0
  -20.9627  -29.9365   21.7352 H   0  0  0  0  0  0  0  0  0  0  0  0
  -26.0447  -38.2561   24.0273 H   0  0  0  0  0  0  0  0  0  0  0  0
  -27.2804  -22.4217   21.0226 H   0  0  0  0  0  0  0  0  0  0  0  0
  -27.1167  -17.5716   20.9361 H   0  0  0  0  0  0  0  0  0  0  0  0
  -25.1918  -23.0912   21.8088 H   0  0  0  0  0  0  0  0  0  0  0  0
  -24.0230  -21.7913   22.0246 H   0  0  0  0  0  0  0  0  0  0  0  0
  -27.5534  -21.6379   24.3753 H   0  0  0  0  0  0  0  0  0  0  0  0
  -27.3587  -22.9996   23.2754 H   0  0  0  0  0  0  0  0  0  0  0  0
  -23.5325  -22.5255   24.2476 H   0  0  0  0  0  0  0  0  0  0  0  0
  -23.3803  -23.8935   23.1454 H   0  0  0  0  0  0  0  0  0  0  0  0
  -26.8680  -23.7154   25.5214 H   0  0  0  0  0  0  0  0  0  0  0  0
  -25.6921  -22.4120   25.6903 H   0  0  0  0  0  0  0  0  0  0  0  0
  -25.3825  -20.7935   23.7306 H   0  0  0  0  0  0  0  0  0  0  0  0
  -24.5443  -24.5694   25.1948 H   0  0  0  0  0  0  0  0  0  0  0  0
  -28.3793  -19.0555   17.9574 H   0  0  0  0  0  0  0  0  0  0  0  0
  -28.1384  -17.5522   18.8879 H   0  0  0  0  0  0  0  0  0  0  0  0
  -30.5026  -19.3696   19.0748 H   0  0  0  0  0  0  0  0  0  0  0  0
  -30.4214  -17.7718   18.2873 H   0  0  0  0  0  0  0  0  0  0  0  0
  -30.1168  -18.2952   21.2076 H   0  0  0  0  0  0  0  0  0  0  0  0
  -31.5281  -17.6061   20.3927 H   0  0  0  0  0  0  0  0  0  0  0  0
  -28.9155  -16.3741   20.5122 H   0  0  0  0  0  0  0  0  0  0  0  0
  1 25  1  0
  1 30  2  0
  1 86  1  0
  2  3  1  0
  2 25  1  0
  2 89  1  0
  2 90  1  0
  3  4  1  0
  3 91  1  0
  3 92  1  0
  4  5  1  0
  4 93  1  0
  4 94  1  0
  5  6  1  0
  5 26  1  0
  5 95  1  6
  6 25  1  0
  6 96  1  0
  6 97  1  0
  7  8  2  0
  7 26  1  0
  7 29  1  0
  8  9  1  0
  8 22  1  0
  9 10  1  0
  9 27  2  0
 10 11  2  0
 10 15  1  0
 11 12  1  0
 11 98  1  0
 12 13  2  0
 12 99  1  0
 13 14  1  0
 13 31  1  0
 14 15  2  0
 14100  1  0
 15101  1  0
 16 17  2  0
 16 21  1  0
 16 31  1  0
 17 18  1  0
 17102  1  0
 18 19  2  0
 18103  1  0
 19 20  1  0
 19 24  1  0
 20 21  2  0
 20104  1  0
 21 23  1  0
 22 28  1  0
 22 32  2  0
 26 27  1  0
 28105  1  0
 28106  1  0
 29107  1  0
 29108  1  0
 33 34  1  0
 33 66  1  0
 33 70  2  0
 34 36  1  0
 34 59  1  0
 34109  1  6
 35 44  2  0
 35 45  1  0
 35 68  1  0
 36 56  1  0
 36110  1  0
 37 39  1  0
 37 47  1  0
 37 66  1  0
 37111  1  6
 38 43  2  0
 38 46  1  0
 38 47  1  0
 39 64  1  0
 39 67  2  0
 40 52  1  0
 40 53  2  0
 40 58  1  0
 41112  1  0
 41113  1  0
 41114  1  0
 42 43  1  0
 42 66  1  0
 42115  1  0
 42116  1  0
 43 44  1  0
 44117  1  0
 45 46  2  0
 45118  1  0
 46119  1  0
 47120  1  0
 47121  1  0
 48 41  1  0
 48 56  1  0
 48 65  1  0
 48122  1  1
 49 50  1  0
 49 53  1  0
 49 64  1  0
 49123  1  1
 50 51  1  0
 50124  1  0
 50125  1  0
 51 52  1  0
 51126  1  0
 51127  1  0
 52128  1  0
 52129  1  0
 53 54  1  0
 54 55  2  0
 54130  1  0
 55 57  1  0
 55131  1  0
 56 69  2  0
 57 58  2  0
 57132  1  0
 58133  1  0
 59 60  1  0
 59 61  1  0
 59 62  1  0
 60134  1  0
 60135  1  0
 60136  1  0
 61137  1  0
 61138  1  0
 61139  1  0
 62140  1  0
 62141  1  0
 62142  1  0
 63 65  1  0
 63143  1  0
 63144  1  0
 63145  1  0
 64146  1  0
 65147  1  0
 71 73  2  0
 71 75  1  0
 71148  1  0
 72 74  1  0
 72 76  2  0
 72149  1  0
 73 76  1  0
 74 75  2  0
 74 83  1  0
 75 87  1  0
 76 88  1  0
 77 79  1  0
 77 81  1  0
 77150  1  0
 77151  1  0
 78 80  1  0
 78 81  1  0
 78152  1  0
 78153  1  0
 79 82  1  0
 79154  1  0
 79155  1  0
 80 82  1  0
 80156  1  0
 80157  1  0
 81 73  1  0
 81158  1  1
 82 68  1  0
 82159  1  1
 83 84  1  0
 83160  1  0
 83161  1  0
 84 85  1  0
 84162  1  0
 84163  1  0
 85 86  1  0
 85164  1  0
 85165  1  0
 86166  1  0
M  ISO  4   1 100  68 101  82 101  86 100
M  END
$$$$
72
     RDKit          3D

158166  0  0  0  0  0  0  0  0999 V2000
  -30.7652  -14.3608   20.6636 C   0  0  0  0  0  0  0  0  0100  0  0
  -30.4392  -12.2669   19.3775 C   0  0  0  0  0  0  0  0  0101  0  0
  -29.4791  -12.5281   18.1977 C   0  0  0  0  0  0  0  0  0102  0  0
  -27.9985  -12.3963   18.6038 C   0  0  0  0  0  0  0  0  0103  0  0
  -27.6639  -13.2170   19.8820 C   0  0  2  0  0  0  0  0  0104  0  0
  -28.6795  -12.9602   21.0279 C   0  0  0  0  0  0  0  0  0105  0  0
  -25.2633  -13.8245   20.5754 C   0  0  0  0  0  0  0  0  0106  0  0
  -24.1645  -13.0409   20.9408 C   0  0  0  0  0  0  0  0  0107  0  0
  -24.6400  -11.7009   20.8697 C   0  0  0  0  0  0  0  0  0108  0  0
  -23.9005  -10.4085   21.0420 C   0  0  0  0  0  0  0  0  0109  0  0
  -24.3588   -9.4123   21.9123 C   0  0  0  0  0  0  0  0  0110  0  0
  -23.6296   -8.2350   22.0803 C   0  0  0  0  0  0  0  0  0111  0  0
  -22.4385   -8.0419   21.3657 C   0  0  0  0  0  0  0  0  0112  0  0
  -22.0103   -9.0167   20.4678 C   0  0  0  0  0  0  0  0  0113  0  0
  -22.7317  -10.1925   20.3102 C   0  0  0  0  0  0  0  0  0114  0  0
  -21.6857   -6.0709   22.5391 C   0  0  0  0  0  0  0  0  0115  0  0
  -21.4064   -6.5490   23.8264 C   0  0  0  0  0  0  0  0  0116  0  0
  -21.3635   -5.6677   24.9085 C   0  0  0  0  0  0  0  0  0117  0  0
  -21.5973   -4.3067   24.7088 C   0  0  0  0  0  0  0  0  0118  0  0
  -21.8700   -3.8284   23.4282 C   0  0  0  0  0  0  0  0  0119  0  0
  -21.9144   -4.7056   22.3460 C   0  0  0  0  0  0  0  0  0120  0  0
  -22.8194  -13.5263   21.1763 C   0  0  0  0  0  0  0  0  0121  0  0
  -22.1559   -4.2206   21.1063 F   0  0  0  0  0  0  0  0  0122  0  0
  -21.5628   -3.4510   25.7555 F   0  0  0  0  0  0  0  0  0123  0  0
  -30.0261  -13.1803   20.4553 N   0  0  0  0  0  0  0  0  0124  0  0
  -26.2911  -12.9356   20.3443 N   0  0  0  0  0  0  0  0  0125  0  0
  -25.9236  -11.6675   20.5847 N   0  0  0  0  0  0  0  0  0126  0  0
  -22.0708  -12.7905   22.0005 N   0  0  0  0  0  0  0  0  0127  0  0
  -25.4117  -15.1773   20.4097 N   0  0  0  0  0  0  0  0  0128  0  0
  -31.7916  -14.6724   20.0536 O   0  0  0  0  0  0  0  0  0129  0  0
  -21.6670   -6.9022   21.4423 O   0  0  0  0  0  0  0  0  0130  0  0
  -22.3946  -14.5564   20.6568 O   0  0  0  0  0  0  0  0  0131  0  0
  -24.6048  -31.8614   23.2223 C   0  0  0  0  0  0  0  0  0100  0  0
  -25.8822  -32.4841   23.8616 C   0  0  1  0  0  0  0  0  0101  0  0
  -27.2536  -27.5042   20.1156 C   0  0  0  0  0  0  0  0  0102  0  0
  -25.5726  -33.8762   24.2210 N   0  0  0  0  0  0  0  0  0103  0  0
  -23.4066  -30.4859   21.5461 C   0  0  2  0  0  0  0  0  0104  0  0
  -24.8467  -28.9636   20.1247 C   0  0  0  0  0  0  0  0  0105  0  0
  -22.7412  -29.4652   22.5052 C   0  0  0  0  0  0  0  0  0106  0  0
  -18.0167  -28.1302   22.8626 C   0  0  0  0  0  0  0  0  0107  0  0
  -24.1342  -36.7390   23.2568 C   0  0  0  0  0  0  0  0  0108  0  0
  -25.9141  -30.8882   21.3456 C   0  0  0  0  0  0  0  0  0109  0  0
  -25.9930  -29.5029   20.7208 C   0  0  0  0  0  0  0  0  0110  0  0
  -27.1758  -28.7612   20.7331 C   0  0  0  0  0  0  0  0  0111  0  0
  -26.1032  -26.9836   19.5230 C   0  0  0  0  0  0  0  0  0112  0  0
  -24.9097  -27.7011   19.5331 C   0  0  0  0  0  0  0  0  0113  0  0
  -23.5715  -29.7899   20.1582 C   0  0  0  0  0  0  0  0  0114  0  0
  -25.3990  -36.3212   24.0232 C   0  0  1  0  0  0  0  0  0115  0  0
  -20.5793  -28.3813   23.1004 C   0  0  2  0  0  0  0  0  0116  0  0
  -20.6548  -26.9392   22.5411 C   0  0  0  0  0  0  0  0  0117  0  0
  -19.5615  -26.6407   21.5143 C   0  0  0  0  0  0  0  0  0118  0  0
  -18.1797  -26.7818   22.1673 C   0  0  0  0  0  0  0  0  0119  0  0
  -19.1385  -28.8769   23.2988 C   0  0  0  0  0  0  0  0  0120  0  0
  -18.9183  -30.1286   23.8878 C   0  0  0  0  0  0  0  0  0121  0  0
  -17.6396  -30.6493   24.0352 C   0  0  0  0  0  0  0  0  0122  0  0
  -25.9153  -34.9582   23.4993 C   0  0  0  0  0  0  0  0  0123  0  0
  -16.5415  -29.9068   23.6254 C   0  0  0  0  0  0  0  0  0124  0  0
  -16.7331  -28.6521   23.0586 C   0  0  0  0  0  0  0  0  0125  0  0
  -26.4583  -31.6439   25.0683 C   0  0  0  0  0  0  0  0  0126  0  0
  -25.3807  -31.3179   26.1374 C   0  0  0  0  0  0  0  0  0127  0  0
  -27.0530  -30.3024   24.5680 C   0  0  0  0  0  0  0  0  0128  0  0
  -27.6014  -32.4281   25.7651 C   0  0  0  0  0  0  0  0  0129  0  0
  -27.5629  -37.2220   24.8621 C   0  0  0  0  0  0  0  0  0130  0  0
  -21.4133  -29.3375   22.3735 N   0  0  0  0  0  0  0  0  0131  0  0
  -26.4706  -37.3372   23.9061 N   0  0  0  0  0  0  0  0  0132  0  0
  -24.6674  -31.0544   22.1178 N   0  0  0  0  0  0  0  0  0133  0  0
  -23.4259  -28.8150   23.2971 O   0  0  0  0  0  0  0  0  0134  0  0
  -28.3948  -26.7345   20.0089 O   0  0  0  0  0  0  0  0  0135  0  0
  -26.5870  -34.9065   22.4671 O   0  0  0  0  0  0  0  0  0136  0  0
  -23.5365  -32.1254   23.7833 O   0  0  0  0  0  0  0  0  0137  0  0
  -27.7054  -17.7059   22.6618 C   0  0  0  0  0  0  0  0  0  0  0  0
  -27.0612  -18.0840   23.8345 C   0  0  0  0  0  0  0  0  0  0  0  0
  -28.5411  -18.6077   22.0124 C   0  0  0  0  0  0  0  0  0  0  0  0
  -27.2842  -19.3651   24.3128 C   0  0  0  0  0  0  0  0  0  0  0  0
  -28.6976  -19.8654   22.5721 C   0  0  0  0  0  0  0  0  0  0  0  0
  -26.1644  -17.1225   24.5345 C   0  0  0  0  0  0  0  0  0  0  0  0
  -29.2293  -18.1979   20.7553 C   0  0  0  0  0  0  0  0  0  0  0  0
  -26.6109  -19.8309   25.5809 C   0  0  0  0  0  0  0  0  0  0  0  0
  -30.7067  -17.7961   20.9376 C   0  0  0  0  0  0  0  0  0  0  0  0
  -30.9291  -16.6502   21.9223 C   0  0  0  0  0  0  0  0  0  0  0  0
  -26.7298  -21.3379   25.7807 C   0  0  0  0  0  0  0  0  0  1  0  0
  -28.0887  -20.2688   23.7097 N   0  0  0  0  0  0  0  0  0  0  0  0
  -30.2196  -15.4490   21.5423 N   0  0  0  0  0  0  0  0  0  0  0  0
  -29.7027  -21.0677   21.8630 Cl  0  0  0  0  0  0  0  0  0  0  0  0
  -31.4485  -12.4701   19.0860 H   0  0  0  0  0  0  0  0  0  0  0  0
  -30.3970  -11.2460   19.6950 H   0  0  0  0  0  0  0  0  0  0  0  0
  -29.6870  -11.8204   17.4226 H   0  0  0  0  0  0  0  0  0  0  0  0
  -29.6375  -13.5326   17.8649 H   0  0  0  0  0  0  0  0  0  0  0  0
  -27.7830  -11.3650   18.7904 H   0  0  0  0  0  0  0  0  0  0  0  0
  -27.4028  -12.7801   17.8021 H   0  0  0  0  0  0  0  0  0  0  0  0
  -27.7353  -14.2503   19.6136 H   0  0  0  0  0  0  0  0  0  0  0  0
  -28.5890  -11.9550   21.3832 H   0  0  0  0  0  0  0  0  0  0  0  0
  -28.5005  -13.6134   21.8562 H   0  0  0  0  0  0  0  0  0  0  0  0
  -25.2399   -9.5495   22.4318 H   0  0  0  0  0  0  0  0  0  0  0  0
  -23.9663   -7.5070   22.7297 H   0  0  0  0  0  0  0  0  0  0  0  0
  -21.1515   -8.8641   19.9162 H   0  0  0  0  0  0  0  0  0  0  0  0
  -22.4016  -10.9115   19.6476 H   0  0  0  0  0  0  0  0  0  0  0  0
  -21.2319   -7.5552   23.9750 H   0  0  0  0  0  0  0  0  0  0  0  0
  -21.1589   -6.0228   25.8556 H   0  0  0  0  0  0  0  0  0  0  0  0
  -22.0396   -2.8212   23.2809 H   0  0  0  0  0  0  0  0  0  0  0  0
  -22.4401  -11.9703   22.4008 H   0  0  0  0  0  0  0  0  0  0  0  0
  -21.1493  -13.0679   22.2082 H   0  0  0  0  0  0  0  0  0  0  0  0
  -24.6538  -15.7807   20.5848 H   0  0  0  0  0  0  0  0  0  0  0  0
  -26.2762  -15.5453   20.1156 H   0  0  0  0  0  0  0  0  0  0  0  0
  -26.6778  -32.4663   23.1464 H   0  0  0  0  0  0  0  0  0  0  0  0
  -25.0747  -34.0282   25.0566 H   0  0  0  0  0  0  0  0  0  0  0  0
  -22.7881  -31.3489   21.4131 H   0  0  0  0  0  0  0  0  0  0  0  0
  -23.3854  -35.9823   23.3648 H   0  0  0  0  0  0  0  0  0  0  0  0
  -24.3696  -36.8624   22.2204 H   0  0  0  0  0  0  0  0  0  0  0  0
  -23.7669  -37.6632   23.6516 H   0  0  0  0  0  0  0  0  0  0  0  0
  -25.9445  -31.6237   20.5691 H   0  0  0  0  0  0  0  0  0  0  0  0
  -26.7436  -31.0079   22.0108 H   0  0  0  0  0  0  0  0  0  0  0  0
  -28.0090  -29.1452   21.2057 H   0  0  0  0  0  0  0  0  0  0  0  0
  -26.1369  -26.0560   19.0719 H   0  0  0  0  0  0  0  0  0  0  0  0
  -24.0652  -27.2961   19.0997 H   0  0  0  0  0  0  0  0  0  0  0  0
  -23.6156  -30.5365   19.3930 H   0  0  0  0  0  0  0  0  0  0  0  0
  -22.7355  -29.1425   19.9945 H   0  0  0  0  0  0  0  0  0  0  0  0
  -25.1353  -36.2335   25.0565 H   0  0  0  0  0  0  0  0  0  0  0  0
  -21.0070  -28.3206   24.0793 H   0  0  0  0  0  0  0  0  0  0  0  0
  -20.5555  -26.2518   23.3550 H   0  0  0  0  0  0  0  0  0  0  0  0
  -21.5974  -26.8362   22.0454 H   0  0  0  0  0  0  0  0  0  0  0  0
  -19.6810  -25.6422   21.1488 H   0  0  0  0  0  0  0  0  0  0  0  0
  -19.6406  -27.3343   20.7034 H   0  0  0  0  0  0  0  0  0  0  0  0
  -17.4282  -26.6888   21.4113 H   0  0  0  0  0  0  0  0  0  0  0  0
  -18.0803  -26.0130   22.9049 H   0  0  0  0  0  0  0  0  0  0  0  0
  -19.7265  -30.6774   24.2204 H   0  0  0  0  0  0  0  0  0  0  0  0
  -17.5064  -31.5856   24.4483 H   0  0  0  0  0  0  0  0  0  0  0  0
  -15.5878  -30.2839   23.7407 H   0  0  0  0  0  0  0  0  0  0  0  0
  -15.9120  -28.0941   22.7766 H   0  0  0  0  0  0  0  0  0  0  0  0
  -24.5787  -30.7757   25.6817 H   0  0  0  0  0  0  0  0  0  0  0  0
  -25.0041  -32.2289   26.5536 H   0  0  0  0  0  0  0  0  0  0  0  0
  -25.8166  -30.7245   26.9138 H   0  0  0  0  0  0  0  0  0  0  0  0
  -26.2892  -29.7335   24.0803 H   0  0  0  0  0  0  0  0  0  0  0  0
  -27.4336  -29.7484   25.4006 H   0  0  0  0  0  0  0  0  0  0  0  0
  -27.8466  -30.4994   23.8779 H   0  0  0  0  0  0  0  0  0  0  0  0
  -27.2251  -33.3632   26.1242 H   0  0  0  0  0  0  0  0  0  0  0  0
  -28.3902  -32.6065   25.0645 H   0  0  0  0  0  0  0  0  0  0  0  0
  -27.9772  -31.8555   26.5872 H   0  0  0  0  0  0  0  0  0  0  0  0
  -28.2744  -38.0016   24.6863 H   0  0  0  0  0  0  0  0  0  0  0  0
  -28.0396  -36.2711   24.7461 H   0  0  0  0  0  0  0  0  0  0  0  0
  -27.1773  -37.3087   25.8564 H   0  0  0  0  0  0  0  0  0  0  0  0
  -20.9627  -29.9365   21.7352 H   0  0  0  0  0  0  0  0  0  0  0  0
  -26.0447  -38.2561   24.0273 H   0  0  0  0  0  0  0  0  0  0  0  0
  -27.5639  -16.7597   22.2749 H   0  0  0  0  0  0  0  0  0  0  0  0
  -26.1391  -16.1997   23.9935 H   0  0  0  0  0  0  0  0  0  0  0  0
  -25.1769  -17.5309   24.5894 H   0  0  0  0  0  0  0  0  0  0  0  0
  -26.5329  -16.9462   25.5234 H   0  0  0  0  0  0  0  0  0  0  0  0
  -29.1881  -19.0178   20.0691 H   0  0  0  0  0  0  0  0  0  0  0  0
  -28.7189  -17.3279   20.3984 H   0  0  0  0  0  0  0  0  0  0  0  0
  -27.0662  -19.3366   26.4135 H   0  0  0  0  0  0  0  0  0  0  0  0
  -25.5706  -19.5923   25.5052 H   0  0  0  0  0  0  0  0  0  0  0  0
  -31.2453  -18.6506   21.2906 H   0  0  0  0  0  0  0  0  0  0  0  0
  -31.0508  -17.4524   19.9845 H   0  0  0  0  0  0  0  0  0  0  0  0
  -30.5899  -16.9579   22.8893 H   0  0  0  0  0  0  0  0  0  0  0  0
  -31.9747  -16.4230   21.9265 H   0  0  0  0  0  0  0  0  0  0  0  0
  -27.4968  -21.4654   26.5158 H   0  0  0  0  0  0  0  0  0  0  0  0
  -25.7058  -21.5813   25.9731 H   0  0  0  0  0  0  0  0  0  0  0  0
  -29.3047  -15.3355   21.8877 H   0  0  0  0  0  0  0  0  0  0  0  0
  1 25  1  0
  1 30  2  0
  1 83  1  0
  2  3  1  0
  2 25  1  0
  2 85  1  0
  2 86  1  0
  3  4  1  0
  3 87  1  0
  3 88  1  0
  4  5  1  0
  4 89  1  0
  4 90  1  0
  5  6  1  0
  5 26  1  0
  5 91  1  6
  6 25  1  0
  6 92  1  0
  6 93  1  0
  7  8  2  0
  7 26  1  0
  7 29  1  0
  8  9  1  0
  8 22  1  0
  9 10  1  0
  9 27  2  0
 10 11  2  0
 10 15  1  0
 11 12  1  0
 11 94  1  0
 12 13  2  0
 12 95  1  0
 13 14  1  0
 13 31  1  0
 14 15  2  0
 14 96  1  0
 15 97  1  0
 16 17  2  0
 16 21  1  0
 16 31  1  0
 17 18  1  0
 17 98  1  0
 18 19  2  0
 18 99  1  0
 19 20  1  0
 19 24  1  0
 20 21  2  0
 20100  1  0
 21 23  1  0
 22 28  1  0
 22 32  2  0
 26 27  1  0
 28101  1  0
 28102  1  0
 29103  1  0
 29104  1  0
 33 34  1  0
 33 66  1  0
 33 70  2  0
 34 36  1  0
 34 59  1  0
 34105  1  6
 35 44  2  0
 35 45  1  0
 35 68  1  0
 36 56  1  0
 36106  1  0
 37 39  1  0
 37 47  1  0
 37 66  1  0
 37107  1  6
 38 43  2  0
 38 46  1  0
 38 47  1  0
 39 64  1  0
 39 67  2  0
 40 52  1  0
 40 53  2  0
 40 58  1  0
 41108  1  0
 41109  1  0
 41110  1  0
 42 43  1  0
 42 66  1  0
 42111  1  0
 42112  1  0
 43 44  1  0
 44113  1  0
 45 46  2  0
 45114  1  0
 46115  1  0
 47116  1  0
 47117  1  0
 48 41  1  0
 48 56  1  0
 48 65  1  0
 48118  1  1
 49 50  1  0
 49 53  1  0
 49 64  1  0
 49119  1  1
 50 51  1  0
 50120  1  0
 50121  1  0
 51 52  1  0
 51122  1  0
 51123  1  0
 52124  1  0
 52125  1  0
 53 54  1  0
 54 55  2  0
 54126  1  0
 55 57  1  0
 55127  1  0
 56 69  2  0
 57 58  2  0
 57128  1  0
 58129  1  0
 59 60  1  0
 59 61  1  0
 59 62  1  0
 60130  1  0
 60131  1  0
 60132  1  0
 61133  1  0
 61134  1  0
 61135  1  0
 62136  1  0
 62137  1  0
 62138  1  0
 63 65  1  0
 63139  1  0
 63140  1  0
 63141  1  0
 64142  1  0
 65143  1  0
 68 81  1  0
 71 72  2  0
 71 73  1  0
 71144  1  0
 72 74  1  0
 72 76  1  0
 73 75  2  0
 73 77  1  0
 74 78  1  0
 74 82  2  0
 75 82  1  0
 75 84  1  0
 76145  1  0
 76146  1  0
 76147  1  0
 77 79  1  0
 77148  1  0
 77149  1  0
 78 81  1  0
 78150  1  0
 78151  1  0
 79 80  1  0
 79152  1  0
 79153  1  0
 80 83  1  0
 80154  1  0
 80155  1  0
 81156  1  0
 81157  1  0
 83158  1  0
M  ISO  4   1 100  68 101  81 101  83 100
M  END
$$$$
73
     RDKit          3D

177185  0  0  0  0  0  0  0  0999 V2000
  -30.7652  -14.3608   20.6636 C   0  0  0  0  0  0  0  0  0100  0  0
  -30.4392  -12.2669   19.3775 C   0  0  0  0  0  0  0  0  0101  0  0
  -29.4791  -12.5281   18.1977 C   0  0  0  0  0  0  0  0  0102  0  0
  -27.9985  -12.3963   18.6038 C   0  0  0  0  0  0  0  0  0103  0  0
  -27.6639  -13.2170   19.8820 C   0  0  2  0  0  0  0  0  0104  0  0
  -28.6795  -12.9602   21.0279 C   0  0  0  0  0  0  0  0  0105  0  0
  -25.2633  -13.8245   20.5754 C   0  0  0  0  0  0  0  0  0106  0  0
  -24.1645  -13.0409   20.9408 C   0  0  0  0  0  0  0  0  0107  0  0
  -24.6400  -11.7009   20.8697 C   0  0  0  0  0  0  0  0  0108  0  0
  -23.9005  -10.4085   21.0420 C   0  0  0  0  0  0  0  0  0109  0  0
  -24.3588   -9.4123   21.9123 C   0  0  0  0  0  0  0  0  0110  0  0
  -23.6296   -8.2350   22.0803 C   0  0  0  0  0  0  0  0  0111  0  0
  -22.4385   -8.0419   21.3657 C   0  0  0  0  0  0  0  0  0112  0  0
  -22.0103   -9.0167   20.4678 C   0  0  0  0  0  0  0  0  0113  0  0
  -22.7317  -10.1925   20.3102 C   0  0  0  0  0  0  0  0  0114  0  0
  -21.6857   -6.0709   22.5391 C   0  0  0  0  0  0  0  0  0115  0  0
  -21.4064   -6.5490   23.8264 C   0  0  0  0  0  0  0  0  0116  0  0
  -21.3635   -5.6677   24.9085 C   0  0  0  0  0  0  0  0  0117  0  0
  -21.5973   -4.3067   24.7088 C   0  0  0  0  0  0  0  0  0118  0  0
  -21.8700   -3.8284   23.4282 C   0  0  0  0  0  0  0  0  0119  0  0
  -21.9144   -4.7056   22.3460 C   0  0  0  0  0  0  0  0  0120  0  0
  -22.8194  -13.5263   21.1763 C   0  0  0  0  0  0  0  0  0121  0  0
  -22.1559   -4.2206   21.1063 F   0  0  0  0  0  0  0  0  0122  0  0
  -21.5628   -3.4510   25.7555 F   0  0  0  0  0  0  0  0  0123  0  0
  -30.0261  -13.1803   20.4553 N   0  0  0  0  0  0  0  0  0124  0  0
  -26.2911  -12.9356   20.3443 N   0  0  0  0  0  0  0  0  0125  0  0
  -25.9236  -11.6675   20.5847 N   0  0  0  0  0  0  0  0  0126  0  0
  -22.0708  -12.7905   22.0005 N   0  0  0  0  0  0  0  0  0127  0  0
  -25.4117  -15.1773   20.4097 N   0  0  0  0  0  0  0  0  0128  0  0
  -31.7916  -14.6724   20.0536 O   0  0  0  0  0  0  0  0  0129  0  0
  -21.6670   -6.9022   21.4423 O   0  0  0  0  0  0  0  0  0130  0  0
  -22.3946  -14.5564   20.6568 O   0  0  0  0  0  0  0  0  0131  0  0
  -24.6048  -31.8614   23.2223 C   0  0  0  0  0  0  0  0  0100  0  0
  -25.8822  -32.4841   23.8616 C   0  0  1  0  0  0  0  0  0101  0  0
  -27.2536  -27.5042   20.1156 C   0  0  0  0  0  0  0  0  0102  0  0
  -25.5726  -33.8762   24.2210 N   0  0  0  0  0  0  0  0  0103  0  0
  -23.4066  -30.4859   21.5461 C   0  0  2  0  0  0  0  0  0104  0  0
  -24.8467  -28.9636   20.1247 C   0  0  0  0  0  0  0  0  0105  0  0
  -22.7412  -29.4652   22.5052 C   0  0  0  0  0  0  0  0  0106  0  0
  -18.0167  -28.1302   22.8626 C   0  0  0  0  0  0  0  0  0107  0  0
  -24.1342  -36.7390   23.2568 C   0  0  0  0  0  0  0  0  0108  0  0
  -25.9141  -30.8882   21.3456 C   0  0  0  0  0  0  0  0  0109  0  0
  -25.9930  -29.5029   20.7208 C   0  0  0  0  0  0  0  0  0110  0  0
  -27.1758  -28.7612   20.7331 C   0  0  0  0  0  0  0  0  0111  0  0
  -26.1032  -26.9836   19.5230 C   0  0  0  0  0  0  0  0  0112  0  0
  -24.9097  -27.7011   19.5331 C   0  0  0  0  0  0  0  0  0113  0  0
  -23.5715  -29.7899   20.1582 C   0  0  0  0  0  0  0  0  0114  0  0
  -25.3990  -36.3212   24.0232 C   0  0  1  0  0  0  0  0  0115  0  0
  -20.5793  -28.3813   23.1004 C   0  0  2  0  0  0  0  0  0116  0  0
  -20.6548  -26.9392   22.5411 C   0  0  0  0  0  0  0  0  0117  0  0
  -19.5615  -26.6407   21.5143 C   0  0  0  0  0  0  0  0  0118  0  0
  -18.1797  -26.7818   22.1673 C   0  0  0  0  0  0  0  0  0119  0  0
  -19.1385  -28.8769   23.2988 C   0  0  0  0  0  0  0  0  0120  0  0
  -18.9183  -30.1286   23.8878 C   0  0  0  0  0  0  0  0  0121  0  0
  -17.6396  -30.6493   24.0352 C   0  0  0  0  0  0  0  0  0122  0  0
  -25.9153  -34.9582   23.4993 C   0  0  0  0  0  0  0  0  0123  0  0
  -16.5415  -29.9068   23.6254 C   0  0  0  0  0  0  0  0  0124  0  0
  -16.7331  -28.6521   23.0586 C   0  0  0  0  0  0  0  0  0125  0  0
  -26.4583  -31.6439   25.0683 C   0  0  0  0  0  0  0  0  0126  0  0
  -25.3807  -31.3179   26.1374 C   0  0  0  0  0  0  0  0  0127  0  0
  -27.0530  -30.3024   24.5680 C   0  0  0  0  0  0  0  0  0128  0  0
  -27.6014  -32.4281   25.7651 C   0  0  0  0  0  0  0  0  0129  0  0
  -27.5629  -37.2220   24.8621 C   0  0  0  0  0  0  0  0  0130  0  0
  -21.4133  -29.3375   22.3735 N   0  0  0  0  0  0  0  0  0131  0  0
  -26.4706  -37.3372   23.9061 N   0  0  0  0  0  0  0  0  0132  0  0
  -24.6674  -31.0544   22.1178 N   0  0  0  0  0  0  0  0  0133  0  0
  -23.4259  -28.8150   23.2971 O   0  0  0  0  0  0  0  0  0134  0  0
  -28.3948  -26.7345   20.0089 O   0  0  0  0  0  0  0  0  0135  0  0
  -26.5870  -34.9065   22.4671 O   0  0  0  0  0  0  0  0  0136  0  0
  -23.5365  -32.1254   23.7833 O   0  0  0  0  0  0  0  0  0137  0  0
  -20.3174  -17.5094   21.4081 C   0  0  0  0  0  0  0  0  0  0  0  0
  -17.3414  -20.4779   19.0705 C   0  0  0  0  0  0  0  0  0  0  0  0
  -17.0711  -19.4011   20.1160 C   0  0  0  0  0  0  0  0  0  0  0  0
  -18.8337  -20.6332   18.7873 C   0  0  0  0  0  0  0  0  0  0  0  0
  -17.7103  -18.0662   19.7345 C   0  0  0  0  0  0  0  0  0  0  0  0
  -19.4732  -19.2962   18.3835 C   0  0  2  0  0  0  0  0  0  0  0  0
  -19.2045  -18.1956   19.4257 C   0  0  1  0  0  0  0  0  0  0  0  0
  -21.0604  -17.6574   22.7151 C   0  0  0  0  0  0  0  0  0  0  0  0
  -24.1686  -18.6648   16.9049 C   0  0  0  0  0  0  0  0  0  0  0  0
  -22.1694  -18.5148   15.3986 C   0  0  0  0  0  0  0  0  0  0  0  0
  -24.1040  -19.9761   14.7685 C   0  0  0  0  0  0  0  0  0  0  0  0
  -19.9730  -16.1026   20.9499 C   0  0  0  0  0  0  0  0  0  0  0  0
  -20.9661  -19.4726   18.1009 C   0  0  0  0  0  0  0  0  0  0  0  0
  -21.2304  -20.4090   16.9314 C   0  0  0  0  0  0  0  0  0  0  0  0
  -21.0975  -15.5140   20.1128 C   0  0  0  0  0  0  0  0  0  1  0  0
  -23.2684  -19.4386   15.9361 C   0  0  0  0  0  0  0  0  0  0  0  0
  -19.9178  -18.4945   20.6764 N   0  0  0  0  0  0  0  0  0  0  0  0
  -22.6559  -20.5543   16.6434 N   0  0  0  0  0  0  0  0  0  0  0  0
  -31.4485  -12.4701   19.0860 H   0  0  0  0  0  0  0  0  0  0  0  0
  -30.3970  -11.2460   19.6950 H   0  0  0  0  0  0  0  0  0  0  0  0
  -29.6870  -11.8204   17.4226 H   0  0  0  0  0  0  0  0  0  0  0  0
  -29.6375  -13.5326   17.8649 H   0  0  0  0  0  0  0  0  0  0  0  0
  -27.7830  -11.3650   18.7904 H   0  0  0  0  0  0  0  0  0  0  0  0
  -27.4028  -12.7801   17.8021 H   0  0  0  0  0  0  0  0  0  0  0  0
  -27.7353  -14.2503   19.6136 H   0  0  0  0  0  0  0  0  0  0  0  0
  -28.5890  -11.9550   21.3832 H   0  0  0  0  0  0  0  0  0  0  0  0
  -28.5005  -13.6134   21.8562 H   0  0  0  0  0  0  0  0  0  0  0  0
  -25.2399   -9.5495   22.4318 H   0  0  0  0  0  0  0  0  0  0  0  0
  -23.9663   -7.5070   22.7297 H   0  0  0  0  0  0  0  0  0  0  0  0
  -21.1515   -8.8641   19.9162 H   0  0  0  0  0  0  0  0  0  0  0  0
  -22.4016  -10.9115   19.6476 H   0  0  0  0  0  0  0  0  0  0  0  0
  -21.2319   -7.5552   23.9750 H   0  0  0  0  0  0  0  0  0  0  0  0
  -21.1589   -6.0228   25.8556 H   0  0  0  0  0  0  0  0  0  0  0  0
  -22.0396   -2.8212   23.2809 H   0  0  0  0  0  0  0  0  0  0  0  0
  -22.4401  -11.9703   22.4008 H   0  0  0  0  0  0  0  0  0  0  0  0
  -21.1493  -13.0679   22.2082 H   0  0  0  0  0  0  0  0  0  0  0  0
  -24.6538  -15.7807   20.5848 H   0  0  0  0  0  0  0  0  0  0  0  0
  -26.2762  -15.5453   20.1156 H   0  0  0  0  0  0  0  0  0  0  0  0
  -26.6778  -32.4663   23.1464 H   0  0  0  0  0  0  0  0  0  0  0  0
  -25.0747  -34.0282   25.0566 H   0  0  0  0  0  0  0  0  0  0  0  0
  -22.7881  -31.3489   21.4131 H   0  0  0  0  0  0  0  0  0  0  0  0
  -23.3854  -35.9823   23.3648 H   0  0  0  0  0  0  0  0  0  0  0  0
  -24.3696  -36.8624   22.2204 H   0  0  0  0  0  0  0  0  0  0  0  0
  -23.7669  -37.6632   23.6516 H   0  0  0  0  0  0  0  0  0  0  0  0
  -25.9445  -31.6237   20.5691 H   0  0  0  0  0  0  0  0  0  0  0  0
  -26.7436  -31.0079   22.0108 H   0  0  0  0  0  0  0  0  0  0  0  0
  -28.0090  -29.1452   21.2057 H   0  0  0  0  0  0  0  0  0  0  0  0
  -26.1369  -26.0560   19.0719 H   0  0  0  0  0  0  0  0  0  0  0  0
  -24.0652  -27.2961   19.0997 H   0  0  0  0  0  0  0  0  0  0  0  0
  -23.6156  -30.5365   19.3930 H   0  0  0  0  0  0  0  0  0  0  0  0
  -22.7355  -29.1425   19.9945 H   0  0  0  0  0  0  0  0  0  0  0  0
  -25.1353  -36.2335   25.0565 H   0  0  0  0  0  0  0  0  0  0  0  0
  -21.0070  -28.3206   24.0793 H   0  0  0  0  0  0  0  0  0  0  0  0
  -20.5555  -26.2518   23.3550 H   0  0  0  0  0  0  0  0  0  0  0  0
  -21.5974  -26.8362   22.0454 H   0  0  0  0  0  0  0  0  0  0  0  0
  -19.6810  -25.6422   21.1488 H   0  0  0  0  0  0  0  0  0  0  0  0
  -19.6406  -27.3343   20.7034 H   0  0  0  0  0  0  0  0  0  0  0  0
  -17.4282  -26.6888   21.4113 H   0  0  0  0  0  0  0  0  0  0  0  0
  -18.0803  -26.0130   22.9049 H   0  0  0  0  0  0  0  0  0  0  0  0
  -19.7265  -30.6774   24.2204 H   0  0  0  0  0  0  0  0  0  0  0  0
  -17.5064  -31.5856   24.4483 H   0  0  0  0  0  0  0  0  0  0  0  0
  -15.5878  -30.2839   23.7407 H   0  0  0  0  0  0  0  0  0  0  0  0
  -15.9120  -28.0941   22.7766 H   0  0  0  0  0  0  0  0  0  0  0  0
  -24.5787  -30.7757   25.6817 H   0  0  0  0  0  0  0  0  0  0  0  0
  -25.0041  -32.2289   26.5536 H   0  0  0  0  0  0  0  0  0  0  0  0
  -25.8166  -30.7245   26.9138 H   0  0  0  0  0  0  0  0  0  0  0  0
  -26.2892  -29.7335   24.0803 H   0  0  0  0  0  0  0  0  0  0  0  0
  -27.4336  -29.7484   25.4006 H   0  0  0  0  0  0  0  0  0  0  0  0
  -27.8466  -30.4994   23.8779 H   0  0  0  0  0  0  0  0  0  0  0  0
  -27.2251  -33.3632   26.1242 H   0  0  0  0  0  0  0  0  0  0  0  0
  -28.3902  -32.6065   25.0645 H   0  0  0  0  0  0  0  0  0  0  0  0
  -27.9772  -31.8555   26.5872 H   0  0  0  0  0  0  0  0  0  0  0  0
  -28.2744  -38.0016   24.6863 H   0  0  0  0  0  0  0  0  0  0  0  0
  -28.0396  -36.2711   24.7461 H   0  0  0  0  0  0  0  0  0  0  0  0
  -27.1773  -37.3087   25.8564 H   0  0  0  0  0  0  0  0  0  0  0  0
  -20.9627  -29.9365   21.7352 H   0  0  0  0  0  0  0  0  0  0  0  0
  -26.0447  -38.2561   24.0273 H   0  0  0  0  0  0  0  0  0  0  0  0
  -16.9579  -21.4109   19.4274 H   0  0  0  0  0  0  0  0  0  0  0  0
  -16.8594  -20.1860   18.1609 H   0  0  0  0  0  0  0  0  0  0  0  0
  -16.0137  -19.2651   20.2077 H   0  0  0  0  0  0  0  0  0  0  0  0
  -17.4994  -19.7222   21.0425 H   0  0  0  0  0  0  0  0  0  0  0  0
  -19.3185  -20.9982   19.6686 H   0  0  0  0  0  0  0  0  0  0  0  0
  -18.9512  -21.3199   17.9752 H   0  0  0  0  0  0  0  0  0  0  0  0
  -17.2131  -17.6835   18.8677 H   0  0  0  0  0  0  0  0  0  0  0  0
  -17.6082  -17.4072   20.5713 H   0  0  0  0  0  0  0  0  0  0  0  0
  -19.0101  -18.9706   17.4755 H   0  0  0  0  0  0  0  0  0  0  0  0
  -19.5542  -17.2734   19.0107 H   0  0  0  0  0  0  0  0  0  0  0  0
  -21.2729  -16.6885   23.1163 H   0  0  0  0  0  0  0  0  0  0  0  0
  -20.4573  -18.2059   23.4081 H   0  0  0  0  0  0  0  0  0  0  0  0
  -21.9773  -18.1826   22.5467 H   0  0  0  0  0  0  0  0  0  0  0  0
  -24.6221  -17.8430   16.3912 H   0  0  0  0  0  0  0  0  0  0  0  0
  -23.5815  -18.2958   17.7198 H   0  0  0  0  0  0  0  0  0  0  0  0
  -24.9308  -19.3152   17.2802 H   0  0  0  0  0  0  0  0  0  0  0  0
  -22.6166  -17.6937   14.8782 H   0  0  0  0  0  0  0  0  0  0  0  0
  -21.5400  -19.0618   14.7281 H   0  0  0  0  0  0  0  0  0  0  0  0
  -21.5846  -18.1441   16.2143 H   0  0  0  0  0  0  0  0  0  0  0  0
  -24.5554  -19.1582   14.2468 H   0  0  0  0  0  0  0  0  0  0  0  0
  -24.8677  -20.6241   15.1450 H   0  0  0  0  0  0  0  0  0  0  0  0
  -23.4720  -20.5211   14.0988 H   0  0  0  0  0  0  0  0  0  0  0  0
  -19.0790  -16.1344   20.3628 H   0  0  0  0  0  0  0  0  0  0  0  0
  -19.8314  -15.4869   21.8135 H   0  0  0  0  0  0  0  0  0  0  0  0
  -21.3884  -18.5154   17.8764 H   0  0  0  0  0  0  0  0  0  0  0  0
  -21.4132  -19.9051   18.9715 H   0  0  0  0  0  0  0  0  0  0  0  0
  -20.8273  -21.3723   17.1649 H   0  0  0  0  0  0  0  0  0  0  0  0
  -20.7644  -19.9877   16.0652 H   0  0  0  0  0  0  0  0  0  0  0  0
  -20.7789  -15.2131   19.1366 H   0  0  0  0  0  0  0  0  0  0  0  0
  -21.5647  -14.6176   20.4636 H   0  0  0  0  0  0  0  0  0  0  0  0
  1 25  1  0
  1 30  2  0
  1 88  1  0
  2  3  1  0
  2 25  1  0
  2 89  1  0
  2 90  1  0
  3  4  1  0
  3 91  1  0
  3 92  1  0
  4  5  1  0
  4 93  1  0
  4 94  1  0
  5  6  1  0
  5 26  1  0
  5 95  1  6
  6 25  1  0
  6 96  1  0
  6 97  1  0
  7  8  2  0
  7 26  1  0
  7 29  1  0
  8  9  1  0
  8 22  1  0
  9 10  1  0
  9 27  2  0
 10 11  2  0
 10 15  1  0
 11 12  1  0
 11 98  1  0
 12 13  2  0
 12 99  1  0
 13 14  1  0
 13 31  1  0
 14 15  2  0
 14100  1  0
 15101  1  0
 16 17  2  0
 16 21  1  0
 16 31  1  0
 17 18  1  0
 17102  1  0
 18 19  2  0
 18103  1  0
 19 20  1  0
 19 24  1  0
 20 21  2  0
 20104  1  0
 21 23  1  0
 22 28  1  0
 22 32  2  0
 26 27  1  0
 28105  1  0
 28106  1  0
 29107  1  0
 29108  1  0
 33 34  1  0
 33 66  1  0
 33 70  2  0
 34 36  1  0
 34 59  1  0
 34109  1  6
 35 44  2  0
 35 45  1  0
 35 68  1  0
 36 56  1  0
 36110  1  0
 37 39  1  0
 37 47  1  0
 37 66  1  0
 37111  1  6
 38 43  2  0
 38 46  1  0
 38 47  1  0
 39 64  1  0
 39 67  2  0
 40 52  1  0
 40 53  2  0
 40 58  1  0
 41112  1  0
 41113  1  0
 41114  1  0
 42 43  1  0
 42 66  1  0
 42115  1  0
 42116  1  0
 43 44  1  0
 44117  1  0
 45 46  2  0
 45118  1  0
 46119  1  0
 47120  1  0
 47121  1  0
 48 41  1  0
 48 56  1  0
 48 65  1  0
 48122  1  1
 49 50  1  0
 49 53  1  0
 49 64  1  0
 49123  1  1
 50 51  1  0
 50124  1  0
 50125  1  0
 51 52  1  0
 51126  1  0
 51127  1  0
 52128  1  0
 52129  1  0
 53 54  1  0
 54 55  2  0
 54130  1  0
 55 57  1  0
 55131  1  0
 56 69  2  0
 57 58  2  0
 57132  1  0
 58133  1  0
 59 60  1  0
 59 61  1  0
 59 62  1  0
 60134  1  0
 60135  1  0
 60136  1  0
 61137  1  0
 61138  1  0
 61139  1  0
 62140  1  0
 62141  1  0
 62142  1  0
 63 65  1  0
 63143  1  0
 63144  1  0
 63145  1  0
 64146  1  0
 65147  1  0
 68 85  1  0
 71 78  1  0
 71 82  1  0
 71 87  2  0
 72 73  1  0
 72 74  1  0
 72148  1  0
 72149  1  0
 73 75  1  0
 73150  1  0
 73151  1  0
 74 76  1  0
 74152  1  0
 74153  1  0
 75 77  1  0
 75154  1  0
 75155  1  0
 76 77  1  0
 76 83  1  0
 76156  1  6
 77 87  1  0
 77157  1  6
 78158  1  0
 78159  1  0
 78160  1  0
 79161  1  0
 79162  1  0
 79163  1  0
 80 86  1  0
 80164  1  0
 80165  1  0
 80166  1  0
 81 86  1  0
 81167  1  0
 81168  1  0
 81169  1  0
 82 85  1  0
 82170  1  0
 82171  1  0
 83 84  1  0
 83172  1  0
 83173  1  0
 84 88  1  0
 84174  1  0
 84175  1  0
 85176  1  0
 85177  1  0
 86 79  1  0
 86 88  1  0
M  ISO  4   1 100  68 101  85 101  88 100
M  END
$$$$
74
     RDKit          3D

150158  0  0  0  0  0  0  0  0999 V2000
  -30.7652  -14.3608   20.6636 C   0  0  0  0  0  0  0  0  0100  0  0
  -30.4392  -12.2669   19.3775 C   0  0  0  0  0  0  0  0  0101  0  0
  -29.4791  -12.5281   18.1977 C   0  0  0  0  0  0  0  0  0102  0  0
  -27.9985  -12.3963   18.6038 C   0  0  0  0  0  0  0  0  0103  0  0
  -27.6639  -13.2170   19.8820 C   0  0  2  0  0  0  0  0  0104  0  0
  -28.6795  -12.9602   21.0279 C   0  0  0  0  0  0  0  0  0105  0  0
  -25.2633  -13.8245   20.5754 C   0  0  0  0  0  0  0  0  0106  0  0
  -24.1645  -13.0409   20.9408 C   0  0  0  0  0  0  0  0  0107  0  0
  -24.6400  -11.7009   20.8697 C   0  0  0  0  0  0  0  0  0108  0  0
  -23.9005  -10.4085   21.0420 C   0  0  0  0  0  0  0  0  0109  0  0
  -24.3588   -9.4123   21.9123 C   0  0  0  0  0  0  0  0  0110  0  0
  -23.6296   -8.2350   22.0803 C   0  0  0  0  0  0  0  0  0111  0  0
  -22.4385   -8.0419   21.3657 C   0  0  0  0  0  0  0  0  0112  0  0
  -22.0103   -9.0167   20.4678 C   0  0  0  0  0  0  0  0  0113  0  0
  -22.7317  -10.1925   20.3102 C   0  0  0  0  0  0  0  0  0114  0  0
  -21.6857   -6.0709   22.5391 C   0  0  0  0  0  0  0  0  0115  0  0
  -21.4064   -6.5490   23.8264 C   0  0  0  0  0  0  0  0  0116  0  0
  -21.3635   -5.6677   24.9085 C   0  0  0  0  0  0  0  0  0117  0  0
  -21.5973   -4.3067   24.7088 C   0  0  0  0  0  0  0  0  0118  0  0
  -21.8700   -3.8284   23.4282 C   0  0  0  0  0  0  0  0  0119  0  0
  -21.9144   -4.7056   22.3460 C   0  0  0  0  0  0  0  0  0120  0  0
  -22.8194  -13.5263   21.1763 C   0  0  0  0  0  0  0  0  0121  0  0
  -22.1559   -4.2206   21.1063 F   0  0  0  0  0  0  0  0  0122  0  0
  -21.5628   -3.4510   25.7555 F   0  0  0  0  0  0  0  0  0123  0  0
  -30.0261  -13.1803   20.4553 N   0  0  0  0  0  0  0  0  0124  0  0
  -26.2911  -12.9356   20.3443 N   0  0  0  0  0  0  0  0  0125  0  0
  -25.9236  -11.6675   20.5847 N   0  0  0  0  0  0  0  0  0126  0  0
  -22.0708  -12.7905   22.0005 N   0  0  0  0  0  0  0  0  0127  0  0
  -25.4117  -15.1773   20.4097 N   0  0  0  0  0  0  0  0  0128  0  0
  -31.7916  -14.6724   20.0536 O   0  0  0  0  0  0  0  0  0129  0  0
  -21.6670   -6.9022   21.4423 O   0  0  0  0  0  0  0  0  0130  0  0
  -22.3946  -14.5564   20.6568 O   0  0  0  0  0  0  0  0  0131  0  0
  -24.6048  -31.8614   23.2223 C   0  0  0  0  0  0  0  0  0100  0  0
  -25.8822  -32.4841   23.8616 C   0  0  1  0  0  0  0  0  0101  0  0
  -27.2536  -27.5042   20.1156 C   0  0  0  0  0  0  0  0  0102  0  0
  -25.5726  -33.8762   24.2210 N   0  0  0  0  0  0  0  0  0103  0  0
  -23.4066  -30.4859   21.5461 C   0  0  2  0  0  0  0  0  0104  0  0
  -24.8467  -28.9636   20.1247 C   0  0  0  0  0  0  0  0  0105  0  0
  -22.7412  -29.4652   22.5052 C   0  0  0  0  0  0  0  0  0106  0  0
  -18.0167  -28.1302   22.8626 C   0  0  0  0  0  0  0  0  0107  0  0
  -24.1342  -36.7390   23.2568 C   0  0  0  0  0  0  0  0  0108  0  0
  -25.9141  -30.8882   21.3456 C   0  0  0  0  0  0  0  0  0109  0  0
  -25.9930  -29.5029   20.7208 C   0  0  0  0  0  0  0  0  0110  0  0
  -27.1758  -28.7612   20.7331 C   0  0  0  0  0  0  0  0  0111  0  0
  -26.1032  -26.9836   19.5230 C   0  0  0  0  0  0  0  0  0112  0  0
  -24.9097  -27.7011   19.5331 C   0  0  0  0  0  0  0  0  0113  0  0
  -23.5715  -29.7899   20.1582 C   0  0  0  0  0  0  0  0  0114  0  0
  -25.3990  -36.3212   24.0232 C   0  0  1  0  0  0  0  0  0115  0  0
  -20.5793  -28.3813   23.1004 C   0  0  2  0  0  0  0  0  0116  0  0
  -20.6548  -26.9392   22.5411 C   0  0  0  0  0  0  0  0  0117  0  0
  -19.5615  -26.6407   21.5143 C   0  0  0  0  0  0  0  0  0118  0  0
  -18.1797  -26.7818   22.1673 C   0  0  0  0  0  0  0  0  0119  0  0
  -19.1385  -28.8769   23.2988 C   0  0  0  0  0  0  0  0  0120  0  0
  -18.9183  -30.1286   23.8878 C   0  0  0  0  0  0  0  0  0121  0  0
  -17.6396  -30.6493   24.0352 C   0  0  0  0  0  0  0  0  0122  0  0
  -25.9153  -34.9582   23.4993 C   0  0  0  0  0  0  0  0  0123  0  0
  -16.5415  -29.9068   23.6254 C   0  0  0  0  0  0  0  0  0124  0  0
  -16.7331  -28.6521   23.0586 C   0  0  0  0  0  0  0  0  0125  0  0
  -26.4583  -31.6439   25.0683 C   0  0  0  0  0  0  0  0  0126  0  0
  -25.3807  -31.3179   26.1374 C   0  0  0  0  0  0  0  0  0127  0  0
  -27.0530  -30.3024   24.5680 C   0  0  0  0  0  0  0  0  0128  0  0
  -27.6014  -32.4281   25.7651 C   0  0  0  0  0  0  0  0  0129  0  0
  -27.5629  -37.2220   24.8621 C   0  0  0  0  0  0  0  0  0130  0  0
  -21.4133  -29.3375   22.3735 N   0  0  0  0  0  0  0  0  0131  0  0
  -26.4706  -37.3372   23.9061 N   0  0  0  0  0  0  0  0  0132  0  0
  -24.6674  -31.0544   22.1178 N   0  0  0  0  0  0  0  0  0133  0  0
  -23.4259  -28.8150   23.2971 O   0  0  0  0  0  0  0  0  0134  0  0
  -28.3948  -26.7345   20.0089 O   0  0  0  0  0  0  0  0  0135  0  0
  -26.5870  -34.9065   22.4671 O   0  0  0  0  0  0  0  0  0136  0  0
  -23.5365  -32.1254   23.7833 O   0  0  0  0  0  0  0  0  0137  0  0
  -21.2712  -23.0005   26.7452 C   0  0  0  0  0  0  0  0  0  0  0  0
  -19.6203  -21.6604   25.5983 C   0  0  0  0  0  0  0  0  0  0  0  0
  -20.0177  -22.8804   26.1453 C   0  0  0  0  0  0  0  0  0  0  0  0
  -21.7300  -20.6805   26.2510 C   0  0  0  0  0  0  0  0  0  0  0  0
  -22.1274  -21.9005   26.7980 C   0  0  0  0  0  0  0  0  0  0  0  0
  -20.4764  -20.5604   25.6511 C   0  0  0  0  0  0  0  0  0  0  0  0
  -22.6567  -19.4904   26.3075 C   0  0  0  0  0  0  0  0  0  0  0  0
  -19.1026  -24.0567   26.0883 C   0  0  0  0  0  0  0  0  0  0  0  0
  -23.7650  -19.5685   25.2632 C   0  0  0  0  0  0  0  0  0  1  0  0
  -19.5056  -25.0188   25.0870 N   0  0  0  0  0  0  0  0  0  0  0  0
  -23.6703  -22.0934   27.5495 Cl  0  0  0  0  0  0  0  0  0  0  0  0
  -19.9448  -19.0693   24.9608 Cl  0  0  0  0  0  0  0  0  0  0  0  0
  -31.4485  -12.4701   19.0860 H   0  0  0  0  0  0  0  0  0  0  0  0
  -30.3970  -11.2460   19.6950 H   0  0  0  0  0  0  0  0  0  0  0  0
  -29.6870  -11.8204   17.4226 H   0  0  0  0  0  0  0  0  0  0  0  0
  -29.6375  -13.5326   17.8649 H   0  0  0  0  0  0  0  0  0  0  0  0
  -27.7830  -11.3650   18.7904 H   0  0  0  0  0  0  0  0  0  0  0  0
  -27.4028  -12.7801   17.8021 H   0  0  0  0  0  0  0  0  0  0  0  0
  -27.7353  -14.2503   19.6136 H   0  0  0  0  0  0  0  0  0  0  0  0
  -28.5890  -11.9550   21.3832 H   0  0  0  0  0  0  0  0  0  0  0  0
  -28.5005  -13.6134   21.8562 H   0  0  0  0  0  0  0  0  0  0  0  0
  -25.2399   -9.5495   22.4318 H   0  0  0  0  0  0  0  0  0  0  0  0
  -23.9663   -7.5070   22.7297 H   0  0  0  0  0  0  0  0  0  0  0  0
  -21.1515   -8.8641   19.9162 H   0  0  0  0  0  0  0  0  0  0  0  0
  -22.4016  -10.9115   19.6476 H   0  0  0  0  0  0  0  0  0  0  0  0
  -21.2319   -7.5552   23.9750 H   0  0  0  0  0  0  0  0  0  0  0  0
  -21.1589   -6.0228   25.8556 H   0  0  0  0  0  0  0  0  0  0  0  0
  -22.0396   -2.8212   23.2809 H   0  0  0  0  0  0  0  0  0  0  0  0
  -22.4401  -11.9703   22.4008 H   0  0  0  0  0  0  0  0  0  0  0  0
  -21.1493  -13.0679   22.2082 H   0  0  0  0  0  0  0  0  0  0  0  0
  -24.6538  -15.7807   20.5848 H   0  0  0  0  0  0  0  0  0  0  0  0
  -26.2762  -15.5453   20.1156 H   0  0  0  0  0  0  0  0  0  0  0  0
  -26.6778  -32.4663   23.1464 H   0  0  0  0  0  0  0  0  0  0  0  0
  -25.0747  -34.0282   25.0566 H   0  0  0  0  0  0  0  0  0  0  0  0
  -22.7881  -31.3489   21.4131 H   0  0  0  0  0  0  0  0  0  0  0  0
  -23.3854  -35.9823   23.3648 H   0  0  0  0  0  0  0  0  0  0  0  0
  -24.3696  -36.8624   22.2204 H   0  0  0  0  0  0  0  0  0  0  0  0
  -23.7669  -37.6632   23.6516 H   0  0  0  0  0  0  0  0  0  0  0  0
  -25.9445  -31.6237   20.5691 H   0  0  0  0  0  0  0  0  0  0  0  0
  -26.7436  -31.0079   22.0108 H   0  0  0  0  0  0  0  0  0  0  0  0
  -28.0090  -29.1452   21.2057 H   0  0  0  0  0  0  0  0  0  0  0  0
  -26.1369  -26.0560   19.0719 H   0  0  0  0  0  0  0  0  0  0  0  0
  -24.0652  -27.2961   19.0997 H   0  0  0  0  0  0  0  0  0  0  0  0
  -23.6156  -30.5365   19.3930 H   0  0  0  0  0  0  0  0  0  0  0  0
  -22.7355  -29.1425   19.9945 H   0  0  0  0  0  0  0  0  0  0  0  0
  -25.1353  -36.2335   25.0565 H   0  0  0  0  0  0  0  0  0  0  0  0
  -21.0070  -28.3206   24.0793 H   0  0  0  0  0  0  0  0  0  0  0  0
  -20.5555  -26.2518   23.3550 H   0  0  0  0  0  0  0  0  0  0  0  0
  -21.5974  -26.8362   22.0454 H   0  0  0  0  0  0  0  0  0  0  0  0
  -19.6810  -25.6422   21.1488 H   0  0  0  0  0  0  0  0  0  0  0  0
  -19.6406  -27.3343   20.7034 H   0  0  0  0  0  0  0  0  0  0  0  0
  -17.4282  -26.6888   21.4113 H   0  0  0  0  0  0  0  0  0  0  0  0
  -18.0803  -26.0130   22.9049 H   0  0  0  0  0  0  0  0  0  0  0  0
  -19.7265  -30.6774   24.2204 H   0  0  0  0  0  0  0  0  0  0  0  0
  -17.5064  -31.5856   24.4483 H   0  0  0  0  0  0  0  0  0  0  0  0
  -15.5878  -30.2839   23.7407 H   0  0  0  0  0  0  0  0  0  0  0  0
  -15.9120  -28.0941   22.7766 H   0  0  0  0  0  0  0  0  0  0  0  0
  -24.5787  -30.7757   25.6817 H   0  0  0  0  0  0  0  0  0  0  0  0
  -25.0041  -32.2289   26.5536 H   0  0  0  0  0  0  0  0  0  0  0  0
  -25.8166  -30.7245   26.9138 H   0  0  0  0  0  0  0  0  0  0  0  0
  -26.2892  -29.7335   24.0803 H   0  0  0  0  0  0  0  0  0  0  0  0
  -27.4336  -29.7484   25.4006 H   0  0  0  0  0  0  0  0  0  0  0  0
  -27.8466  -30.4994   23.8779 H   0  0  0  0  0  0  0  0  0  0  0  0
  -27.2251  -33.3632   26.1242 H   0  0  0  0  0  0  0  0  0  0  0  0
  -28.3902  -32.6065   25.0645 H   0  0  0  0  0  0  0  0  0  0  0  0
  -27.9772  -31.8555   26.5872 H   0  0  0  0  0  0  0  0  0  0  0  0
  -28.2744  -38.0016   24.6863 H   0  0  0  0  0  0  0  0  0  0  0  0
  -28.0396  -36.2711   24.7461 H   0  0  0  0  0  0  0  0  0  0  0  0
  -27.1773  -37.3087   25.8564 H   0  0  0  0  0  0  0  0  0  0  0  0
  -20.9627  -29.9365   21.7352 H   0  0  0  0  0  0  0  0  0  0  0  0
  -26.0447  -38.2561   24.0273 H   0  0  0  0  0  0  0  0  0  0  0  0
  -21.5652  -23.9031   27.1500 H   0  0  0  0  0  0  0  0  0  0  0  0
  -18.6928  -21.5716   25.1545 H   0  0  0  0  0  0  0  0  0  0  0  0
  -22.0858  -18.6016   26.1372 H   0  0  0  0  0  0  0  0  0  0  0  0
  -23.1175  -19.4805   27.2731 H   0  0  0  0  0  0  0  0  0  0  0  0
  -19.0994  -24.5366   27.0447 H   0  0  0  0  0  0  0  0  0  0  0  0
  -18.1283  -23.7005   25.8259 H   0  0  0  0  0  0  0  0  0  0  0  0
  -23.3949  -18.9257   24.4920 H   0  0  0  0  0  0  0  0  0  0  0  0
  -24.5511  -19.4871   25.9845 H   0  0  0  0  0  0  0  0  0  0  0  0
  -19.2212  -25.9177   24.8036 H   0  0  0  0  0  0  0  0  0  0  0  0
  1 25  1  0
  1 30  2  0
  1 80  1  0
  2  3  1  0
  2 25  1  0
  2 83  1  0
  2 84  1  0
  3  4  1  0
  3 85  1  0
  3 86  1  0
  4  5  1  0
  4 87  1  0
  4 88  1  0
  5  6  1  0
  5 26  1  0
  5 89  1  6
  6 25  1  0
  6 90  1  0
  6 91  1  0
  7  8  2  0
  7 26  1  0
  7 29  1  0
  8  9  1  0
  8 22  1  0
  9 10  1  0
  9 27  2  0
 10 11  2  0
 10 15  1  0
 11 12  1  0
 11 92  1  0
 12 13  2  0
 12 93  1  0
 13 14  1  0
 13 31  1  0
 14 15  2  0
 14 94  1  0
 15 95  1  0
 16 17  2  0
 16 21  1  0
 16 31  1  0
 17 18  1  0
 17 96  1  0
 18 19  2  0
 18 97  1  0
 19 20  1  0
 19 24  1  0
 20 21  2  0
 20 98  1  0
 21 23  1  0
 22 28  1  0
 22 32  2  0
 26 27  1  0
 28 99  1  0
 28100  1  0
 29101  1  0
 29102  1  0
 33 34  1  0
 33 66  1  0
 33 70  2  0
 34 36  1  0
 34 59  1  0
 34103  1  6
 35 44  2  0
 35 45  1  0
 35 68  1  0
 36 56  1  0
 36104  1  0
 37 39  1  0
 37 47  1  0
 37 66  1  0
 37105  1  6
 38 43  2  0
 38 46  1  0
 38 47  1  0
 39 64  1  0
 39 67  2  0
 40 52  1  0
 40 53  2  0
 40 58  1  0
 41106  1  0
 41107  1  0
 41108  1  0
 42 43  1  0
 42 66  1  0
 42109  1  0
 42110  1  0
 43 44  1  0
 44111  1  0
 45 46  2  0
 45112  1  0
 46113  1  0
 47114  1  0
 47115  1  0
 48 41  1  0
 48 56  1  0
 48 65  1  0
 48116  1  1
 49 50  1  0
 49 53  1  0
 49 64  1  0
 49117  1  1
 50 51  1  0
 50118  1  0
 50119  1  0
 51 52  1  0
 51120  1  0
 51121  1  0
 52122  1  0
 52123  1  0
 53 54  1  0
 54 55  2  0
 54124  1  0
 55 57  1  0
 55125  1  0
 56 69  2  0
 57 58  2  0
 57126  1  0
 58127  1  0
 59 60  1  0
 59 61  1  0
 59 62  1  0
 60128  1  0
 60129  1  0
 60130  1  0
 61131  1  0
 61132  1  0
 61133  1  0
 62134  1  0
 62135  1  0
 62136  1  0
 63 65  1  0
 63137  1  0
 63138  1  0
 63139  1  0
 64140  1  0
 65141  1  0
 68 79  1  0
 71 73  2  0
 71 75  1  0
 71142  1  0
 72 73  1  0
 72 76  2  0
 72143  1  0
 73 78  1  0
 74 75  2  0
 74 76  1  0
 74 77  1  0
 75 81  1  0
 76 82  1  0
 77 79  1  0
 77144  1  0
 77145  1  0
 78 80  1  0
 78146  1  0
 78147  1  0
 79148  1  0
 79149  1  0
 80150  1  0
M  ISO  4   1 100  68 101  79 101  80 100
M  END
$$$$
75
     RDKit          3D

175184  0  0  0  0  0  0  0  0999 V2000
  -30.7652  -14.3608   20.6636 C   0  0  0  0  0  0  0  0  0100  0  0
  -30.4392  -12.2669   19.3775 C   0  0  0  0  0  0  0  0  0101  0  0
  -29.4791  -12.5281   18.1977 C   0  0  0  0  0  0  0  0  0102  0  0
  -27.9985  -12.3963   18.6038 C   0  0  0  0  0  0  0  0  0103  0  0
  -27.6639  -13.2170   19.8820 C   0  0  2  0  0  0  0  0  0104  0  0
  -28.6795  -12.9602   21.0279 C   0  0  0  0  0  0  0  0  0105  0  0
  -25.2633  -13.8245   20.5754 C   0  0  0  0  0  0  0  0  0106  0  0
  -24.1645  -13.0409   20.9408 C   0  0  0  0  0  0  0  0  0107  0  0
  -24.6400  -11.7009   20.8697 C   0  0  0  0  0  0  0  0  0108  0  0
  -23.9005  -10.4085   21.0420 C   0  0  0  0  0  0  0  0  0109  0  0
  -24.3588   -9.4123   21.9123 C   0  0  0  0  0  0  0  0  0110  0  0
  -23.6296   -8.2350   22.0803 C   0  0  0  0  0  0  0  0  0111  0  0
  -22.4385   -8.0419   21.3657 C   0  0  0  0  0  0  0  0  0112  0  0
  -22.0103   -9.0167   20.4678 C   0  0  0  0  0  0  0  0  0113  0  0
  -22.7317  -10.1925   20.3102 C   0  0  0  0  0  0  0  0  0114  0  0
  -21.6857   -6.0709   22.5391 C   0  0  0  0  0  0  0  0  0115  0  0
  -21.4064   -6.5490   23.8264 C   0  0  0  0  0  0  0  0  0116  0  0
  -21.3635   -5.6677   24.9085 C   0  0  0  0  0  0  0  0  0117  0  0
  -21.5973   -4.3067   24.7088 C   0  0  0  0  0  0  0  0  0118  0  0
  -21.8700   -3.8284   23.4282 C   0  0  0  0  0  0  0  0  0119  0  0
  -21.9144   -4.7056   22.3460 C   0  0  0  0  0  0  0  0  0120  0  0
  -22.8194  -13.5263   21.1763 C   0  0  0  0  0  0  0  0  0121  0  0
  -22.1559   -4.2206   21.1063 F   0  0  0  0  0  0  0  0  0122  0  0
  -21.5628   -3.4510   25.7555 F   0  0  0  0  0  0  0  0  0123  0  0
  -30.0261  -13.1803   20.4553 N   0  0  0  0  0  0  0  0  0124  0  0
  -26.2911  -12.9356   20.3443 N   0  0  0  0  0  0  0  0  0125  0  0
  -25.9236  -11.6675   20.5847 N   0  0  0  0  0  0  0  0  0126  0  0
  -22.0708  -12.7905   22.0005 N   0  0  0  0  0  0  0  0  0127  0  0
  -25.4117  -15.1773   20.4097 N   0  0  0  0  0  0  0  0  0128  0  0
  -31.7916  -14.6724   20.0536 O   0  0  0  0  0  0  0  0  0129  0  0
  -21.6670   -6.9022   21.4423 O   0  0  0  0  0  0  0  0  0130  0  0
  -22.3946  -14.5564   20.6568 O   0  0  0  0  0  0  0  0  0131  0  0
  -24.6048  -31.8614   23.2223 C   0  0  0  0  0  0  0  0  0100  0  0
  -25.8822  -32.4841   23.8616 C   0  0  1  0  0  0  0  0  0101  0  0
  -27.2536  -27.5042   20.1156 C   0  0  0  0  0  0  0  0  0102  0  0
  -25.5726  -33.8762   24.2210 N   0  0  0  0  0  0  0  0  0103  0  0
  -23.4066  -30.4859   21.5461 C   0  0  2  0  0  0  0  0  0104  0  0
  -24.8467  -28.9636   20.1247 C   0  0  0  0  0  0  0  0  0105  0  0
  -22.7412  -29.4652   22.5052 C   0  0  0  0  0  0  0  0  0106  0  0
  -18.0167  -28.1302   22.8626 C   0  0  0  0  0  0  0  0  0107  0  0
  -24.1342  -36.7390   23.2568 C   0  0  0  0  0  0  0  0  0108  0  0
  -25.9141  -30.8882   21.3456 C   0  0  0  0  0  0  0  0  0109  0  0
  -25.9930  -29.5029   20.7208 C   0  0  0  0  0  0  0  0  0110  0  0
  -27.1758  -28.7612   20.7331 C   0  0  0  0  0  0  0  0  0111  0  0
  -26.1032  -26.9836   19.5230 C   0  0  0  0  0  0  0  0  0112  0  0
  -24.9097  -27.7011   19.5331 C   0  0  0  0  0  0  0  0  0113  0  0
  -23.5715  -29.7899   20.1582 C   0  0  0  0  0  0  0  0  0114  0  0
  -25.3990  -36.3212   24.0232 C   0  0  1  0  0  0  0  0  0115  0  0
  -20.5793  -28.3813   23.1004 C   0  0  2  0  0  0  0  0  0116  0  0
  -20.6548  -26.9392   22.5411 C   0  0  0  0  0  0  0  0  0117  0  0
  -19.5615  -26.6407   21.5143 C   0  0  0  0  0  0  0  0  0118  0  0
  -18.1797  -26.7818   22.1673 C   0  0  0  0  0  0  0  0  0119  0  0
  -19.1385  -28.8769   23.2988 C   0  0  0  0  0  0  0  0  0120  0  0
  -18.9183  -30.1286   23.8878 C   0  0  0  0  0  0  0  0  0121  0  0
  -17.6396  -30.6493   24.0352 C   0  0  0  0  0  0  0  0  0122  0  0
  -25.9153  -34.9582   23.4993 C   0  0  0  0  0  0  0  0  0123  0  0
  -16.5415  -29.9068   23.6254 C   0  0  0  0  0  0  0  0  0124  0  0
  -16.7331  -28.6521   23.0586 C   0  0  0  0  0  0  0  0  0125  0  0
  -26.4583  -31.6439   25.0683 C   0  0  0  0  0  0  0  0  0126  0  0
  -25.3807  -31.3179   26.1374 C   0  0  0  0  0  0  0  0  0127  0  0
  -27.0530  -30.3024   24.5680 C   0  0  0  0  0  0  0  0  0128  0  0
  -27.6014  -32.4281   25.7651 C   0  0  0  0  0  0  0  0  0129  0  0
  -27.5629  -37.2220   24.8621 C   0  0  0  0  0  0  0  0  0130  0  0
  -21.4133  -29.3375   22.3735 N   0  0  0  0  0  0  0  0  0131  0  0
  -26.4706  -37.3372   23.9061 N   0  0  0  0  0  0  0  0  0132  0  0
  -24.6674  -31.0544   22.1178 N   0  0  0  0  0  0  0  0  0133  0  0
  -23.4259  -28.8150   23.2971 O   0  0  0  0  0  0  0  0  0134  0  0
  -28.3948  -26.7345   20.0089 O   0  0  0  0  0  0  0  0  0135  0  0
  -26.5870  -34.9065   22.4671 O   0  0  0  0  0  0  0  0  0136  0  0
  -23.5365  -32.1254   23.7833 O   0  0  0  0  0  0  0  0  0137  0  0
  -19.2233  -19.6464   24.4366 C   0  0  0  0  0  0  0  0  0  0  0  0
  -18.1725  -20.5090   24.0513 C   0  0  0  0  0  0  0  0  0  0  0  0
  -19.4374  -18.7675   23.3966 C   0  0  0  0  0  0  0  0  0  0  0  0
  -17.7705  -20.1361   22.7876 C   0  0  0  0  0  0  0  0  0  0  0  0
  -20.3430  -17.6878   23.1936 C   0  0  0  0  0  0  0  0  0  0  0  0
  -19.3577  -17.3337   20.9852 C   0  0  0  0  0  0  0  0  0  0  0  0
  -20.3042  -17.0004   22.0370 C   0  0  0  0  0  0  0  0  0  0  0  0
  -18.4915  -18.3535   21.1584 C   0  0  0  0  0  0  0  0  0  0  0  0
  -16.6960  -20.7571   21.9795 C   0  0  0  0  0  0  0  0  0  0  0  0
  -16.2320  -17.9196   20.2574 C   0  0  0  0  0  0  0  0  0  0  0  0
  -17.5954  -21.6334   24.8739 C   0  0  0  0  0  0  0  0  0  0  0  0
  -19.9569  -19.6819   25.7195 C   0  0  0  0  0  0  0  0  0  0  0  0
  -17.5154  -18.6968   20.0716 C   0  0  0  0  0  0  0  0  0  0  0  0
  -18.4490  -22.9067   24.8679 C   0  0  0  0  0  0  0  0  0  0  0  0
  -18.6310  -23.4999   23.4663 C   0  0  0  0  0  0  0  0  0  0  0  0
  -19.4632  -24.7839   23.5140 C   0  0  0  0  0  0  0  0  0  0  0  0
  -19.7339  -25.3809   22.1326 C   0  0  0  0  0  0  0  0  0  0  0  0
  -20.6292  -26.6123   22.1621 C   0  0  0  0  0  0  0  0  0  1  0  0
  -18.5396  -19.0668   22.3727 N   0  0  0  0  0  0  0  0  0  0  0  0
  -21.2791  -20.2536   25.5941 N   0  0  0  0  0  0  0  0  0  0  0  0
  -21.3885  -15.6860   21.7602 Cl  0  0  0  0  0  0  0  0  0  0  0  0
  -31.4485  -12.4701   19.0860 H   0  0  0  0  0  0  0  0  0  0  0  0
  -30.3970  -11.2460   19.6950 H   0  0  0  0  0  0  0  0  0  0  0  0
  -29.6870  -11.8204   17.4226 H   0  0  0  0  0  0  0  0  0  0  0  0
  -29.6375  -13.5326   17.8649 H   0  0  0  0  0  0  0  0  0  0  0  0
  -27.7830  -11.3650   18.7904 H   0  0  0  0  0  0  0  0  0  0  0  0
  -27.4028  -12.7801   17.8021 H   0  0  0  0  0  0  0  0  0  0  0  0
  -27.7353  -14.2503   19.6136 H   0  0  0  0  0  0  0  0  0  0  0  0
  -28.5890  -11.9550   21.3832 H   0  0  0  0  0  0  0  0  0  0  0  0
  -28.5005  -13.6134   21.8562 H   0  0  0  0  0  0  0  0  0  0  0  0
  -25.2399   -9.5495   22.4318 H   0  0  0  0  0  0  0  0  0  0  0  0
  -23.9663   -7.5070   22.7297 H   0  0  0  0  0  0  0  0  0  0  0  0
  -21.1515   -8.8641   19.9162 H   0  0  0  0  0  0  0  0  0  0  0  0
  -22.4016  -10.9115   19.6476 H   0  0  0  0  0  0  0  0  0  0  0  0
  -21.2319   -7.5552   23.9750 H   0  0  0  0  0  0  0  0  0  0  0  0
  -21.1589   -6.0228   25.8556 H   0  0  0  0  0  0  0  0  0  0  0  0
  -22.0396   -2.8212   23.2809 H   0  0  0  0  0  0  0  0  0  0  0  0
  -22.4401  -11.9703   22.4008 H   0  0  0  0  0  0  0  0  0  0  0  0
  -21.1493  -13.0679   22.2082 H   0  0  0  0  0  0  0  0  0  0  0  0
  -24.6538  -15.7807   20.5848 H   0  0  0  0  0  0  0  0  0  0  0  0
  -26.2762  -15.5453   20.1156 H   0  0  0  0  0  0  0  0  0  0  0  0
  -26.6778  -32.4663   23.1464 H   0  0  0  0  0  0  0  0  0  0  0  0
  -25.0747  -34.0282   25.0566 H   0  0  0  0  0  0  0  0  0  0  0  0
  -22.7881  -31.3489   21.4131 H   0  0  0  0  0  0  0  0  0  0  0  0
  -23.3854  -35.9823   23.3648 H   0  0  0  0  0  0  0  0  0  0  0  0
  -24.3696  -36.8624   22.2204 H   0  0  0  0  0  0  0  0  0  0  0  0
  -23.7669  -37.6632   23.6516 H   0  0  0  0  0  0  0  0  0  0  0  0
  -25.9445  -31.6237   20.5691 H   0  0  0  0  0  0  0  0  0  0  0  0
  -26.7436  -31.0079   22.0108 H   0  0  0  0  0  0  0  0  0  0  0  0
  -28.0090  -29.1452   21.2057 H   0  0  0  0  0  0  0  0  0  0  0  0
  -26.1369  -26.0560   19.0719 H   0  0  0  0  0  0  0  0  0  0  0  0
  -24.0652  -27.2961   19.0997 H   0  0  0  0  0  0  0  0  0  0  0  0
  -23.6156  -30.5365   19.3930 H   0  0  0  0  0  0  0  0  0  0  0  0
  -22.7355  -29.1425   19.9945 H   0  0  0  0  0  0  0  0  0  0  0  0
  -25.1353  -36.2335   25.0565 H   0  0  0  0  0  0  0  0  0  0  0  0
  -21.0070  -28.3206   24.0793 H   0  0  0  0  0  0  0  0  0  0  0  0
  -20.5555  -26.2518   23.3550 H   0  0  0  0  0  0  0  0  0  0  0  0
  -21.5974  -26.8362   22.0454 H   0  0  0  0  0  0  0  0  0  0  0  0
  -19.6810  -25.6422   21.1488 H   0  0  0  0  0  0  0  0  0  0  0  0
  -19.6406  -27.3343   20.7034 H   0  0  0  0  0  0  0  0  0  0  0  0
  -17.4282  -26.6888   21.4113 H   0  0  0  0  0  0  0  0  0  0  0  0
  -18.0803  -26.0130   22.9049 H   0  0  0  0  0  0  0  0  0  0  0  0
  -19.7265  -30.6774   24.2204 H   0  0  0  0  0  0  0  0  0  0  0  0
  -17.5064  -31.5856   24.4483 H   0  0  0  0  0  0  0  0  0  0  0  0
  -15.5878  -30.2839   23.7407 H   0  0  0  0  0  0  0  0  0  0  0  0
  -15.9120  -28.0941   22.7766 H   0  0  0  0  0  0  0  0  0  0  0  0
  -24.5787  -30.7757   25.6817 H   0  0  0  0  0  0  0  0  0  0  0  0
  -25.0041  -32.2289   26.5536 H   0  0  0  0  0  0  0  0  0  0  0  0
  -25.8166  -30.7245   26.9138 H   0  0  0  0  0  0  0  0  0  0  0  0
  -26.2892  -29.7335   24.0803 H   0  0  0  0  0  0  0  0  0  0  0  0
  -27.4336  -29.7484   25.4006 H   0  0  0  0  0  0  0  0  0  0  0  0
  -27.8466  -30.4994   23.8779 H   0  0  0  0  0  0  0  0  0  0  0  0
  -27.2251  -33.3632   26.1242 H   0  0  0  0  0  0  0  0  0  0  0  0
  -28.3902  -32.6065   25.0645 H   0  0  0  0  0  0  0  0  0  0  0  0
  -27.9772  -31.8555   26.5872 H   0  0  0  0  0  0  0  0  0  0  0  0
  -28.2744  -38.0016   24.6863 H   0  0  0  0  0  0  0  0  0  0  0  0
  -28.0396  -36.2711   24.7461 H   0  0  0  0  0  0  0  0  0  0  0  0
  -27.1773  -37.3087   25.8564 H   0  0  0  0  0  0  0  0  0  0  0  0
  -20.9627  -29.9365   21.7352 H   0  0  0  0  0  0  0  0  0  0  0  0
  -26.0447  -38.2561   24.0273 H   0  0  0  0  0  0  0  0  0  0  0  0
  -21.0234  -17.4344   23.9270 H   0  0  0  0  0  0  0  0  0  0  0  0
  -19.3483  -16.7911   20.1074 H   0  0  0  0  0  0  0  0  0  0  0  0
  -16.2574  -21.5637   22.5289 H   0  0  0  0  0  0  0  0  0  0  0  0
  -15.9465  -20.0256   21.7604 H   0  0  0  0  0  0  0  0  0  0  0  0
  -17.1078  -21.1307   21.0653 H   0  0  0  0  0  0  0  0  0  0  0  0
  -15.5453  -18.1732   19.4770 H   0  0  0  0  0  0  0  0  0  0  0  0
  -15.8007  -18.1646   21.2055 H   0  0  0  0  0  0  0  0  0  0  0  0
  -16.4416  -16.8710   20.2212 H   0  0  0  0  0  0  0  0  0  0  0  0
  -17.4993  -21.2966   25.8850 H   0  0  0  0  0  0  0  0  0  0  0  0
  -16.6532  -21.8882   24.4354 H   0  0  0  0  0  0  0  0  0  0  0  0
  -20.0506  -18.6815   26.0873 H   0  0  0  0  0  0  0  0  0  0  0  0
  -19.4006  -20.3018   26.3913 H   0  0  0  0  0  0  0  0  0  0  0  0
  -17.9430  -18.4511   19.1220 H   0  0  0  0  0  0  0  0  0  0  0  0
  -17.2988  -19.7437   20.1150 H   0  0  0  0  0  0  0  0  0  0  0  0
  -19.4138  -22.6721   25.2667 H   0  0  0  0  0  0  0  0  0  0  0  0
  -17.9383  -23.6369   25.4603 H   0  0  0  0  0  0  0  0  0  0  0  0
  -17.6692  -23.7222   23.0535 H   0  0  0  0  0  0  0  0  0  0  0  0
  -19.1452  -22.7845   22.8591 H   0  0  0  0  0  0  0  0  0  0  0  0
  -20.4016  -24.5634   23.9785 H   0  0  0  0  0  0  0  0  0  0  0  0
  -18.8997  -25.5064   24.0666 H   0  0  0  0  0  0  0  0  0  0  0  0
  -18.7973  -25.6548   21.6936 H   0  0  0  0  0  0  0  0  0  0  0  0
  -20.2484  -24.6340   21.5648 H   0  0  0  0  0  0  0  0  0  0  0  0
  -20.6087  -26.9557   23.1753 H   0  0  0  0  0  0  0  0  0  0  0  0
  -20.1992  -27.1825   21.3653 H   0  0  0  0  0  0  0  0  0  0  0  0
  -21.4224  -21.1697   25.9250 H   0  0  0  0  0  0  0  0  0  0  0  0
  1 25  1  0
  1 30  2  0
  1 90  1  0
  2  3  1  0
  2 25  1  0
  2 92  1  0
  2 93  1  0
  3  4  1  0
  3 94  1  0
  3 95  1  0
  4  5  1  0
  4 96  1  0
  4 97  1  0
  5  6  1  0
  5 26  1  0
  5 98  1  6
  6 25  1  0
  6 99  1  0
  6100  1  0
  7  8  2  0
  7 26  1  0
  7 29  1  0
  8  9  1  0
  8 22  1  0
  9 10  1  0
  9 27  2  0
 10 11  2  0
 10 15  1  0
 11 12  1  0
 11101  1  0
 12 13  2  0
 12102  1  0
 13 14  1  0
 13 31  1  0
 14 15  2  0
 14103  1  0
 15104  1  0
 16 17  2  0
 16 21  1  0
 16 31  1  0
 17 18  1  0
 17105  1  0
 18 19  2  0
 18106  1  0
 19 20  1  0
 19 24  1  0
 20 21  2  0
 20107  1  0
 21 23  1  0
 22 28  1  0
 22 32  2  0
 26 27  1  0
 28108  1  0
 28109  1  0
 29110  1  0
 29111  1  0
 33 34  1  0
 33 66  1  0
 33 70  2  0
 34 36  1  0
 34 59  1  0
 34112  1  6
 35 44  2  0
 35 45  1  0
 35 68  1  0
 36 56  1  0
 36113  1  0
 37 39  1  0
 37 47  1  0
 37 66  1  0
 37114  1  6
 38 43  2  0
 38 46  1  0
 38 47  1  0
 39 64  1  0
 39 67  2  0
 40 52  1  0
 40 53  2  0
 40 58  1  0
 41115  1  0
 41116  1  0
 41117  1  0
 42 43  1  0
 42 66  1  0
 42118  1  0
 42119  1  0
 43 44  1  0
 44120  1  0
 45 46  2  0
 45121  1  0
 46122  1  0
 47123  1  0
 47124  1  0
 48 41  1  0
 48 56  1  0
 48 65  1  0
 48125  1  1
 49 50  1  0
 49 53  1  0
 49 64  1  0
 49126  1  1
 50 51  1  0
 50127  1  0
 50128  1  0
 51 52  1  0
 51129  1  0
 51130  1  0
 52131  1  0
 52132  1  0
 53 54  1  0
 54 55  2  0
 54133  1  0
 55 57  1  0
 55134  1  0
 56 69  2  0
 57 58  2  0
 57135  1  0
 58136  1  0
 59 60  1  0
 59 61  1  0
 59 62  1  0
 60137  1  0
 60138  1  0
 60139  1  0
 61140  1  0
 61141  1  0
 61142  1  0
 62143  1  0
 62144  1  0
 62145  1  0
 63 65  1  0
 63146  1  0
 63147  1  0
 63148  1  0
 64149  1  0
 65150  1  0
 68 88  1  0
 71 72  1  0
 71 73  2  0
 71 82  1  0
 72 74  2  0
 72 81  1  0
 73 75  1  0
 73 89  1  0
 74 79  1  0
 74 89  1  0
 75 77  2  0
 75151  1  0
 76 77  1  0
 76 78  2  0
 76152  1  0
 77 91  1  0
 78 83  1  0
 78 89  1  0
 79153  1  0
 79154  1  0
 79155  1  0
 80 83  1  0
 80156  1  0
 80157  1  0
 80158  1  0
 81 84  1  0
 81159  1  0
 81160  1  0
 82 90  1  0
 82161  1  0
 82162  1  0
 83163  1  0
 83164  1  0
 84 85  1  0
 84165  1  0
 84166  1  0
 85 86  1  0
 85167  1  0
 85168  1  0
 86 87  1  0
 86169  1  0
 86170  1  0
 87 88  1  0
 87171  1  0
 87172  1  0
 88173  1  0
 88174  1  0
 90175  1  0
M  ISO  4   1 100  68 101  88 101  90 100
M  END
$$$$
76
     RDKit          3D

159167  0  0  0  0  0  0  0  0999 V2000
  -30.7652  -14.3608   20.6636 C   0  0  0  0  0  0  0  0  0100  0  0
  -30.4392  -12.2669   19.3775 C   0  0  0  0  0  0  0  0  0101  0  0
  -29.4791  -12.5281   18.1977 C   0  0  0  0  0  0  0  0  0102  0  0
  -27.9985  -12.3963   18.6038 C   0  0  0  0  0  0  0  0  0103  0  0
  -27.6639  -13.2170   19.8820 C   0  0  2  0  0  0  0  0  0104  0  0
  -28.6795  -12.9602   21.0279 C   0  0  0  0  0  0  0  0  0105  0  0
  -25.2633  -13.8245   20.5754 C   0  0  0  0  0  0  0  0  0106  0  0
  -24.1645  -13.0409   20.9408 C   0  0  0  0  0  0  0  0  0107  0  0
  -24.6400  -11.7009   20.8697 C   0  0  0  0  0  0  0  0  0108  0  0
  -23.9005  -10.4085   21.0420 C   0  0  0  0  0  0  0  0  0109  0  0
  -24.3588   -9.4123   21.9123 C   0  0  0  0  0  0  0  0  0110  0  0
  -23.6296   -8.2350   22.0803 C   0  0  0  0  0  0  0  0  0111  0  0
  -22.4385   -8.0419   21.3657 C   0  0  0  0  0  0  0  0  0112  0  0
  -22.0103   -9.0167   20.4678 C   0  0  0  0  0  0  0  0  0113  0  0
  -22.7317  -10.1925   20.3102 C   0  0  0  0  0  0  0  0  0114  0  0
  -21.6857   -6.0709   22.5391 C   0  0  0  0  0  0  0  0  0115  0  0
  -21.4064   -6.5490   23.8264 C   0  0  0  0  0  0  0  0  0116  0  0
  -21.3635   -5.6677   24.9085 C   0  0  0  0  0  0  0  0  0117  0  0
  -21.5973   -4.3067   24.7088 C   0  0  0  0  0  0  0  0  0118  0  0
  -21.8700   -3.8284   23.4282 C   0  0  0  0  0  0  0  0  0119  0  0
  -21.9144   -4.7056   22.3460 C   0  0  0  0  0  0  0  0  0120  0  0
  -22.8194  -13.5263   21.1763 C   0  0  0  0  0  0  0  0  0121  0  0
  -22.1559   -4.2206   21.1063 F   0  0  0  0  0  0  0  0  0122  0  0
  -21.5628   -3.4510   25.7555 F   0  0  0  0  0  0  0  0  0123  0  0
  -30.0261  -13.1803   20.4553 N   0  0  0  0  0  0  0  0  0124  0  0
  -26.2911  -12.9356   20.3443 N   0  0  0  0  0  0  0  0  0125  0  0
  -25.9236  -11.6675   20.5847 N   0  0  0  0  0  0  0  0  0126  0  0
  -22.0708  -12.7905   22.0005 N   0  0  0  0  0  0  0  0  0127  0  0
  -25.4117  -15.1773   20.4097 N   0  0  0  0  0  0  0  0  0128  0  0
  -31.7916  -14.6724   20.0536 O   0  0  0  0  0  0  0  0  0129  0  0
  -21.6670   -6.9022   21.4423 O   0  0  0  0  0  0  0  0  0130  0  0
  -22.3946  -14.5564   20.6568 O   0  0  0  0  0  0  0  0  0131  0  0
  -24.6048  -31.8614   23.2223 C   0  0  0  0  0  0  0  0  0100  0  0
  -25.8822  -32.4841   23.8616 C   0  0  1  0  0  0  0  0  0101  0  0
  -27.2536  -27.5042   20.1156 C   0  0  0  0  0  0  0  0  0102  0  0
  -25.5726  -33.8762   24.2210 N   0  0  0  0  0  0  0  0  0103  0  0
  -23.4066  -30.4859   21.5461 C   0  0  2  0  0  0  0  0  0104  0  0
  -24.8467  -28.9636   20.1247 C   0  0  0  0  0  0  0  0  0105  0  0
  -22.7412  -29.4652   22.5052 C   0  0  0  0  0  0  0  0  0106  0  0
  -18.0167  -28.1302   22.8626 C   0  0  0  0  0  0  0  0  0107  0  0
  -24.1342  -36.7390   23.2568 C   0  0  0  0  0  0  0  0  0108  0  0
  -25.9141  -30.8882   21.3456 C   0  0  0  0  0  0  0  0  0109  0  0
  -25.9930  -29.5029   20.7208 C   0  0  0  0  0  0  0  0  0110  0  0
  -27.1758  -28.7612   20.7331 C   0  0  0  0  0  0  0  0  0111  0  0
  -26.1032  -26.9836   19.5230 C   0  0  0  0  0  0  0  0  0112  0  0
  -24.9097  -27.7011   19.5331 C   0  0  0  0  0  0  0  0  0113  0  0
  -23.5715  -29.7899   20.1582 C   0  0  0  0  0  0  0  0  0114  0  0
  -25.3990  -36.3212   24.0232 C   0  0  1  0  0  0  0  0  0115  0  0
  -20.5793  -28.3813   23.1004 C   0  0  2  0  0  0  0  0  0116  0  0
  -20.6548  -26.9392   22.5411 C   0  0  0  0  0  0  0  0  0117  0  0
  -19.5615  -26.6407   21.5143 C   0  0  0  0  0  0  0  0  0118  0  0
  -18.1797  -26.7818   22.1673 C   0  0  0  0  0  0  0  0  0119  0  0
  -19.1385  -28.8769   23.2988 C   0  0  0  0  0  0  0  0  0120  0  0
  -18.9183  -30.1286   23.8878 C   0  0  0  0  0  0  0  0  0121  0  0
  -17.6396  -30.6493   24.0352 C   0  0  0  0  0  0  0  0  0122  0  0
  -25.9153  -34.9582   23.4993 C   0  0  0  0  0  0  0  0  0123  0  0
  -16.5415  -29.9068   23.6254 C   0  0  0  0  0  0  0  0  0124  0  0
  -16.7331  -28.6521   23.0586 C   0  0  0  0  0  0  0  0  0125  0  0
  -26.4583  -31.6439   25.0683 C   0  0  0  0  0  0  0  0  0126  0  0
  -25.3807  -31.3179   26.1374 C   0  0  0  0  0  0  0  0  0127  0  0
  -27.0530  -30.3024   24.5680 C   0  0  0  0  0  0  0  0  0128  0  0
  -27.6014  -32.4281   25.7651 C   0  0  0  0  0  0  0  0  0129  0  0
  -27.5629  -37.2220   24.8621 C   0  0  0  0  0  0  0  0  0130  0  0
  -21.4133  -29.3375   22.3735 N   0  0  0  0  0  0  0  0  0131  0  0
  -26.4706  -37.3372   23.9061 N   0  0  0  0  0  0  0  0  0132  0  0
  -24.6674  -31.0544   22.1178 N   0  0  0  0  0  0  0  0  0133  0  0
  -23.4259  -28.8150   23.2971 O   0  0  0  0  0  0  0  0  0134  0  0
  -28.3948  -26.7345   20.0089 O   0  0  0  0  0  0  0  0  0135  0  0
  -26.5870  -34.9065   22.4671 O   0  0  0  0  0  0  0  0  0136  0  0
  -23.5365  -32.1254   23.7833 O   0  0  0  0  0  0  0  0  0137  0  0
  -33.3574  -27.6649   18.1038 C   0  0  0  0  0  0  0  0  0  0  0  0
  -32.6337  -28.8487   17.9603 C   0  0  0  0  0  0  0  0  0  0  0  0
  -33.2354  -26.9098   19.2702 C   0  0  0  0  0  0  0  0  0  0  0  0
  -31.7881  -29.2775   18.9834 C   0  0  0  0  0  0  0  0  0  0  0  0
  -32.3898  -27.3386   20.2933 C   0  0  0  0  0  0  0  0  0  0  0  0
  -31.6661  -28.5224   20.1499 C   0  0  0  0  0  0  0  0  0  0  0  0
  -32.7829  -29.6388   16.7015 C   0  0  0  0  0  0  0  0  0  0  0  0
  -31.0129  -30.5474   18.8269 C   0  0  0  0  0  0  0  0  0  0  0  0
  -32.2614  -26.5272   21.5436 C   0  0  0  0  0  0  0  0  0  0  0  0
  -30.7506  -28.9861   21.2568 C   0  0  0  0  0  0  0  0  0  0  0  0
  -34.0206  -25.6456   19.3983 C   0  0  0  0  0  0  0  0  0  0  0  0
  -29.4354  -28.2148   21.2828 C   0  0  0  0  0  0  0  0  0  1  0  0
  -33.1988  -24.4697   19.2178 N   0  0  0  0  0  0  0  0  0  0  0  0
  -31.4485  -12.4701   19.0860 H   0  0  0  0  0  0  0  0  0  0  0  0
  -30.3970  -11.2460   19.6950 H   0  0  0  0  0  0  0  0  0  0  0  0
  -29.6870  -11.8204   17.4226 H   0  0  0  0  0  0  0  0  0  0  0  0
  -29.6375  -13.5326   17.8649 H   0  0  0  0  0  0  0  0  0  0  0  0
  -27.7830  -11.3650   18.7904 H   0  0  0  0  0  0  0  0  0  0  0  0
  -27.4028  -12.7801   17.8021 H   0  0  0  0  0  0  0  0  0  0  0  0
  -27.7353  -14.2503   19.6136 H   0  0  0  0  0  0  0  0  0  0  0  0
  -28.5890  -11.9550   21.3832 H   0  0  0  0  0  0  0  0  0  0  0  0
  -28.5005  -13.6134   21.8562 H   0  0  0  0  0  0  0  0  0  0  0  0
  -25.2399   -9.5495   22.4318 H   0  0  0  0  0  0  0  0  0  0  0  0
  -23.9663   -7.5070   22.7297 H   0  0  0  0  0  0  0  0  0  0  0  0
  -21.1515   -8.8641   19.9162 H   0  0  0  0  0  0  0  0  0  0  0  0
  -22.4016  -10.9115   19.6476 H   0  0  0  0  0  0  0  0  0  0  0  0
  -21.2319   -7.5552   23.9750 H   0  0  0  0  0  0  0  0  0  0  0  0
  -21.1589   -6.0228   25.8556 H   0  0  0  0  0  0  0  0  0  0  0  0
  -22.0396   -2.8212   23.2809 H   0  0  0  0  0  0  0  0  0  0  0  0
  -22.4401  -11.9703   22.4008 H   0  0  0  0  0  0  0  0  0  0  0  0
  -21.1493  -13.0679   22.2082 H   0  0  0  0  0  0  0  0  0  0  0  0
  -24.6538  -15.7807   20.5848 H   0  0  0  0  0  0  0  0  0  0  0  0
  -26.2762  -15.5453   20.1156 H   0  0  0  0  0  0  0  0  0  0  0  0
  -26.6778  -32.4663   23.1464 H   0  0  0  0  0  0  0  0  0  0  0  0
  -25.0747  -34.0282   25.0566 H   0  0  0  0  0  0  0  0  0  0  0  0
  -22.7881  -31.3489   21.4131 H   0  0  0  0  0  0  0  0  0  0  0  0
  -23.3854  -35.9823   23.3648 H   0  0  0  0  0  0  0  0  0  0  0  0
  -24.3696  -36.8624   22.2204 H   0  0  0  0  0  0  0  0  0  0  0  0
  -23.7669  -37.6632   23.6516 H   0  0  0  0  0  0  0  0  0  0  0  0
  -25.9445  -31.6237   20.5691 H   0  0  0  0  0  0  0  0  0  0  0  0
  -26.7436  -31.0079   22.0108 H   0  0  0  0  0  0  0  0  0  0  0  0
  -28.0090  -29.1452   21.2057 H   0  0  0  0  0  0  0  0  0  0  0  0
  -26.1369  -26.0560   19.0719 H   0  0  0  0  0  0  0  0  0  0  0  0
  -24.0652  -27.2961   19.0997 H   0  0  0  0  0  0  0  0  0  0  0  0
  -23.6156  -30.5365   19.3930 H   0  0  0  0  0  0  0  0  0  0  0  0
  -22.7355  -29.1425   19.9945 H   0  0  0  0  0  0  0  0  0  0  0  0
  -25.1353  -36.2335   25.0565 H   0  0  0  0  0  0  0  0  0  0  0  0
  -21.0070  -28.3206   24.0793 H   0  0  0  0  0  0  0  0  0  0  0  0
  -20.5555  -26.2518   23.3550 H   0  0  0  0  0  0  0  0  0  0  0  0
  -21.5974  -26.8362   22.0454 H   0  0  0  0  0  0  0  0  0  0  0  0
  -19.6810  -25.6422   21.1488 H   0  0  0  0  0  0  0  0  0  0  0  0
  -19.6406  -27.3343   20.7034 H   0  0  0  0  0  0  0  0  0  0  0  0
  -17.4282  -26.6888   21.4113 H   0  0  0  0  0  0  0  0  0  0  0  0
  -18.0803  -26.0130   22.9049 H   0  0  0  0  0  0  0  0  0  0  0  0
  -19.7265  -30.6774   24.2204 H   0  0  0  0  0  0  0  0  0  0  0  0
  -17.5064  -31.5856   24.4483 H   0  0  0  0  0  0  0  0  0  0  0  0
  -15.5878  -30.2839   23.7407 H   0  0  0  0  0  0  0  0  0  0  0  0
  -15.9120  -28.0941   22.7766 H   0  0  0  0  0  0  0  0  0  0  0  0
  -24.5787  -30.7757   25.6817 H   0  0  0  0  0  0  0  0  0  0  0  0
  -25.0041  -32.2289   26.5536 H   0  0  0  0  0  0  0  0  0  0  0  0
  -25.8166  -30.7245   26.9138 H   0  0  0  0  0  0  0  0  0  0  0  0
  -26.2892  -29.7335   24.0803 H   0  0  0  0  0  0  0  0  0  0  0  0
  -27.4336  -29.7484   25.4006 H   0  0  0  0  0  0  0  0  0  0  0  0
  -27.8466  -30.4994   23.8779 H   0  0  0  0  0  0  0  0  0  0  0  0
  -27.2251  -33.3632   26.1242 H   0  0  0  0  0  0  0  0  0  0  0  0
  -28.3902  -32.6065   25.0645 H   0  0  0  0  0  0  0  0  0  0  0  0
  -27.9772  -31.8555   26.5872 H   0  0  0  0  0  0  0  0  0  0  0  0
  -28.2744  -38.0016   24.6863 H   0  0  0  0  0  0  0  0  0  0  0  0
  -28.0396  -36.2711   24.7461 H   0  0  0  0  0  0  0  0  0  0  0  0
  -27.1773  -37.3087   25.8564 H   0  0  0  0  0  0  0  0  0  0  0  0
  -20.9627  -29.9365   21.7352 H   0  0  0  0  0  0  0  0  0  0  0  0
  -26.0447  -38.2561   24.0273 H   0  0  0  0  0  0  0  0  0  0  0  0
  -33.9831  -27.3477   17.3469 H   0  0  0  0  0  0  0  0  0  0  0  0
  -33.4718  -29.1439   16.0493 H   0  0  0  0  0  0  0  0  0  0  0  0
  -33.1519  -30.6156   16.9351 H   0  0  0  0  0  0  0  0  0  0  0  0
  -31.8319  -29.7229   16.2183 H   0  0  0  0  0  0  0  0  0  0  0  0
  -31.2332  -30.9848   17.8756 H   0  0  0  0  0  0  0  0  0  0  0  0
  -31.2852  -31.2297   19.6049 H   0  0  0  0  0  0  0  0  0  0  0  0
  -29.9658  -30.3360   18.8883 H   0  0  0  0  0  0  0  0  0  0  0  0
  -32.8860  -25.6614   21.4726 H   0  0  0  0  0  0  0  0  0  0  0  0
  -31.2431  -26.2231   21.6685 H   0  0  0  0  0  0  0  0  0  0  0  0
  -32.5632  -27.1168   22.3840 H   0  0  0  0  0  0  0  0  0  0  0  0
  -30.5373  -30.0249   21.1142 H   0  0  0  0  0  0  0  0  0  0  0  0
  -31.2494  -28.8132   22.1875 H   0  0  0  0  0  0  0  0  0  0  0  0
  -34.4614  -25.6113   20.3727 H   0  0  0  0  0  0  0  0  0  0  0  0
  -34.7673  -25.6444   18.6319 H   0  0  0  0  0  0  0  0  0  0  0  0
  -28.7138  -29.0021   21.3486 H   0  0  0  0  0  0  0  0  0  0  0  0
  -29.7989  -27.4770   21.9672 H   0  0  0  0  0  0  0  0  0  0  0  0
  -32.4663  -24.7955   18.6463 H   0  0  0  0  0  0  0  0  0  0  0  0
  1 25  1  0
  1 30  2  0
  1 83  1  0
  2  3  1  0
  2 25  1  0
  2 84  1  0
  2 85  1  0
  3  4  1  0
  3 86  1  0
  3 87  1  0
  4  5  1  0
  4 88  1  0
  4 89  1  0
  5  6  1  0
  5 26  1  0
  5 90  1  6
  6 25  1  0
  6 91  1  0
  6 92  1  0
  7  8  2  0
  7 26  1  0
  7 29  1  0
  8  9  1  0
  8 22  1  0
  9 10  1  0
  9 27  2  0
 10 11  2  0
 10 15  1  0
 11 12  1  0
 11 93  1  0
 12 13  2  0
 12 94  1  0
 13 14  1  0
 13 31  1  0
 14 15  2  0
 14 95  1  0
 15 96  1  0
 16 17  2  0
 16 21  1  0
 16 31  1  0
 17 18  1  0
 17 97  1  0
 18 19  2  0
 18 98  1  0
 19 20  1  0
 19 24  1  0
 20 21  2  0
 20 99  1  0
 21 23  1  0
 22 28  1  0
 22 32  2  0
 26 27  1  0
 28100  1  0
 28101  1  0
 29102  1  0
 29103  1  0
 33 34  1  0
 33 66  1  0
 33 70  2  0
 34 36  1  0
 34 59  1  0
 34104  1  6
 35 44  2  0
 35 45  1  0
 35 68  1  0
 36 56  1  0
 36105  1  0
 37 39  1  0
 37 47  1  0
 37 66  1  0
 37106  1  6
 38 43  2  0
 38 46  1  0
 38 47  1  0
 39 64  1  0
 39 67  2  0
 40 52  1  0
 40 53  2  0
 40 58  1  0
 41107  1  0
 41108  1  0
 41109  1  0
 42 43  1  0
 42 66  1  0
 42110  1  0
 42111  1  0
 43 44  1  0
 44112  1  0
 45 46  2  0
 45113  1  0
 46114  1  0
 47115  1  0
 47116  1  0
 48 41  1  0
 48 56  1  0
 48 65  1  0
 48117  1  1
 49 50  1  0
 49 53  1  0
 49 64  1  0
 49118  1  1
 50 51  1  0
 50119  1  0
 50120  1  0
 51 52  1  0
 51121  1  0
 51122  1  0
 52123  1  0
 52124  1  0
 53 54  1  0
 54 55  2  0
 54125  1  0
 55 57  1  0
 55126  1  0
 56 69  2  0
 57 58  2  0
 57127  1  0
 58128  1  0
 59 60  1  0
 59 61  1  0
 59 62  1  0
 60129  1  0
 60130  1  0
 60131  1  0
 61132  1  0
 61133  1  0
 61134  1  0
 62135  1  0
 62136  1  0
 62137  1  0
 63 65  1  0
 63138  1  0
 63139  1  0
 63140  1  0
 64141  1  0
 65142  1  0
 68 82  1  0
 71 72  2  0
 71 73  1  0
 71143  1  0
 72 74  1  0
 72 77  1  0
 73 75  2  0
 73 81  1  0
 74 76  2  0
 74 78  1  0
 75 76  1  0
 75 79  1  0
 76 80  1  0
 77144  1  0
 77145  1  0
 77146  1  0
 78147  1  0
 78148  1  0
 78149  1  0
 79150  1  0
 79151  1  0
 79152  1  0
 80 82  1  0
 80153  1  0
 80154  1  0
 81 83  1  0
 81155  1  0
 81156  1  0
 82157  1  0
 82158  1  0
 83159  1  0
M  ISO  4   1 100  68 101  82 101  83 100
M  END
$$$$
77
     RDKit          3D

153161  0  0  0  0  0  0  0  0999 V2000
  -30.7652  -14.3608   20.6636 C   0  0  0  0  0  0  0  0  0100  0  0
  -30.4392  -12.2669   19.3775 C   0  0  0  0  0  0  0  0  0101  0  0
  -29.4791  -12.5281   18.1977 C   0  0  0  0  0  0  0  0  0102  0  0
  -27.9985  -12.3963   18.6038 C   0  0  0  0  0  0  0  0  0103  0  0
  -27.6639  -13.2170   19.8820 C   0  0  2  0  0  0  0  0  0104  0  0
  -28.6795  -12.9602   21.0279 C   0  0  0  0  0  0  0  0  0105  0  0
  -25.2633  -13.8245   20.5754 C   0  0  0  0  0  0  0  0  0106  0  0
  -24.1645  -13.0409   20.9408 C   0  0  0  0  0  0  0  0  0107  0  0
  -24.6400  -11.7009   20.8697 C   0  0  0  0  0  0  0  0  0108  0  0
  -23.9005  -10.4085   21.0420 C   0  0  0  0  0  0  0  0  0109  0  0
  -24.3588   -9.4123   21.9123 C   0  0  0  0  0  0  0  0  0110  0  0
  -23.6296   -8.2350   22.0803 C   0  0  0  0  0  0  0  0  0111  0  0
  -22.4385   -8.0419   21.3657 C   0  0  0  0  0  0  0  0  0112  0  0
  -22.0103   -9.0167   20.4678 C   0  0  0  0  0  0  0  0  0113  0  0
  -22.7317  -10.1925   20.3102 C   0  0  0  0  0  0  0  0  0114  0  0
  -21.6857   -6.0709   22.5391 C   0  0  0  0  0  0  0  0  0115  0  0
  -21.4064   -6.5490   23.8264 C   0  0  0  0  0  0  0  0  0116  0  0
  -21.3635   -5.6677   24.9085 C   0  0  0  0  0  0  0  0  0117  0  0
  -21.5973   -4.3067   24.7088 C   0  0  0  0  0  0  0  0  0118  0  0
  -21.8700   -3.8284   23.4282 C   0  0  0  0  0  0  0  0  0119  0  0
  -21.9144   -4.7056   22.3460 C   0  0  0  0  0  0  0  0  0120  0  0
  -22.8194  -13.5263   21.1763 C   0  0  0  0  0  0  0  0  0121  0  0
  -22.1559   -4.2206   21.1063 F   0  0  0  0  0  0  0  0  0122  0  0
  -21.5628   -3.4510   25.7555 F   0  0  0  0  0  0  0  0  0123  0  0
  -30.0261  -13.1803   20.4553 N   0  0  0  0  0  0  0  0  0124  0  0
  -26.2911  -12.9356   20.3443 N   0  0  0  0  0  0  0  0  0125  0  0
  -25.9236  -11.6675   20.5847 N   0  0  0  0  0  0  0  0  0126  0  0
  -22.0708  -12.7905   22.0005 N   0  0  0  0  0  0  0  0  0127  0  0
  -25.4117  -15.1773   20.4097 N   0  0  0  0  0  0  0  0  0128  0  0
  -31.7916  -14.6724   20.0536 O   0  0  0  0  0  0  0  0  0129  0  0
  -21.6670   -6.9022   21.4423 O   0  0  0  0  0  0  0  0  0130  0  0
  -22.3946  -14.5564   20.6568 O   0  0  0  0  0  0  0  0  0131  0  0
  -24.6048  -31.8614   23.2223 C   0  0  0  0  0  0  0  0  0100  0  0
  -25.8822  -32.4841   23.8616 C   0  0  1  0  0  0  0  0  0101  0  0
  -27.2536  -27.5042   20.1156 C   0  0  0  0  0  0  0  0  0102  0  0
  -25.5726  -33.8762   24.2210 N   0  0  0  0  0  0  0  0  0103  0  0
  -23.4066  -30.4859   21.5461 C   0  0  2  0  0  0  0  0  0104  0  0
  -24.8467  -28.9636   20.1247 C   0  0  0  0  0  0  0  0  0105  0  0
  -22.7412  -29.4652   22.5052 C   0  0  0  0  0  0  0  0  0106  0  0
  -18.0167  -28.1302   22.8626 C   0  0  0  0  0  0  0  0  0107  0  0
  -24.1342  -36.7390   23.2568 C   0  0  0  0  0  0  0  0  0108  0  0
  -25.9141  -30.8882   21.3456 C   0  0  0  0  0  0  0  0  0109  0  0
  -25.9930  -29.5029   20.7208 C   0  0  0  0  0  0  0  0  0110  0  0
  -27.1758  -28.7612   20.7331 C   0  0  0  0  0  0  0  0  0111  0  0
  -26.1032  -26.9836   19.5230 C   0  0  0  0  0  0  0  0  0112  0  0
  -24.9097  -27.7011   19.5331 C   0  0  0  0  0  0  0  0  0113  0  0
  -23.5715  -29.7899   20.1582 C   0  0  0  0  0  0  0  0  0114  0  0
  -25.3990  -36.3212   24.0232 C   0  0  1  0  0  0  0  0  0115  0  0
  -20.5793  -28.3813   23.1004 C   0  0  2  0  0  0  0  0  0116  0  0
  -20.6548  -26.9392   22.5411 C   0  0  0  0  0  0  0  0  0117  0  0
  -19.5615  -26.6407   21.5143 C   0  0  0  0  0  0  0  0  0118  0  0
  -18.1797  -26.7818   22.1673 C   0  0  0  0  0  0  0  0  0119  0  0
  -19.1385  -28.8769   23.2988 C   0  0  0  0  0  0  0  0  0120  0  0
  -18.9183  -30.1286   23.8878 C   0  0  0  0  0  0  0  0  0121  0  0
  -17.6396  -30.6493   24.0352 C   0  0  0  0  0  0  0  0  0122  0  0
  -25.9153  -34.9582   23.4993 C   0  0  0  0  0  0  0  0  0123  0  0
  -16.5415  -29.9068   23.6254 C   0  0  0  0  0  0  0  0  0124  0  0
  -16.7331  -28.6521   23.0586 C   0  0  0  0  0  0  0  0  0125  0  0
  -26.4583  -31.6439   25.0683 C   0  0  0  0  0  0  0  0  0126  0  0
  -25.3807  -31.3179   26.1374 C   0  0  0  0  0  0  0  0  0127  0  0
  -27.0530  -30.3024   24.5680 C   0  0  0  0  0  0  0  0  0128  0  0
  -27.6014  -32.4281   25.7651 C   0  0  0  0  0  0  0  0  0129  0  0
  -27.5629  -37.2220   24.8621 C   0  0  0  0  0  0  0  0  0130  0  0
  -21.4133  -29.3375   22.3735 N   0  0  0  0  0  0  0  0  0131  0  0
  -26.4706  -37.3372   23.9061 N   0  0  0  0  0  0  0  0  0132  0  0
  -24.6674  -31.0544   22.1178 N   0  0  0  0  0  0  0  0  0133  0  0
  -23.4259  -28.8150   23.2971 O   0  0  0  0  0  0  0  0  0134  0  0
  -28.3948  -26.7345   20.0089 O   0  0  0  0  0  0  0  0  0135  0  0
  -26.5870  -34.9065   22.4671 O   0  0  0  0  0  0  0  0  0136  0  0
  -23.5365  -32.1254   23.7833 O   0  0  0  0  0  0  0  0  0137  0  0
  -33.3481  -19.0958   21.1313 C   0  0  0  0  0  0  0  0  0  0  0  0
  -31.0494  -18.3715   20.9631 C   0  0  0  0  0  0  0  0  0  0  0  0
  -32.4130  -18.0985   20.8547 C   0  0  0  0  0  0  0  0  0  0  0  0
  -31.5560  -20.6391   21.6251 C   0  0  0  0  0  0  0  0  0  0  0  0
  -32.9196  -20.3661   21.5166 C   0  0  0  0  0  0  0  0  0  0  0  0
  -30.6209  -19.6418   21.3483 C   0  0  0  0  0  0  0  0  0  0  0  0
  -32.8769  -16.7260   20.4367 C   0  0  0  0  0  0  0  0  0  0  0  0
  -31.1343  -22.0119   22.0397 C   0  0  0  0  0  0  0  0  0  0  0  0
  -33.0396  -16.5651   18.9237 C   0  0  0  0  0  0  0  0  0  0  0  0
  -31.7314  -16.7168   18.1562 C   0  0  0  0  0  0  0  0  0  1  0  0
  -30.3052  -22.6535   21.0438 N   0  0  0  0  0  0  0  0  0  0  0  0
  -33.8266  -21.3170   21.7815 F   0  0  0  0  0  0  0  0  0  0  0  0
  -28.9258  -19.9434   21.4714 Cl  0  0  0  0  0  0  0  0  0  0  0  0
  -31.4485  -12.4701   19.0860 H   0  0  0  0  0  0  0  0  0  0  0  0
  -30.3970  -11.2460   19.6950 H   0  0  0  0  0  0  0  0  0  0  0  0
  -29.6870  -11.8204   17.4226 H   0  0  0  0  0  0  0  0  0  0  0  0
  -29.6375  -13.5326   17.8649 H   0  0  0  0  0  0  0  0  0  0  0  0
  -27.7830  -11.3650   18.7904 H   0  0  0  0  0  0  0  0  0  0  0  0
  -27.4028  -12.7801   17.8021 H   0  0  0  0  0  0  0  0  0  0  0  0
  -27.7353  -14.2503   19.6136 H   0  0  0  0  0  0  0  0  0  0  0  0
  -28.5890  -11.9550   21.3832 H   0  0  0  0  0  0  0  0  0  0  0  0
  -28.5005  -13.6134   21.8562 H   0  0  0  0  0  0  0  0  0  0  0  0
  -25.2399   -9.5495   22.4318 H   0  0  0  0  0  0  0  0  0  0  0  0
  -23.9663   -7.5070   22.7297 H   0  0  0  0  0  0  0  0  0  0  0  0
  -21.1515   -8.8641   19.9162 H   0  0  0  0  0  0  0  0  0  0  0  0
  -22.4016  -10.9115   19.6476 H   0  0  0  0  0  0  0  0  0  0  0  0
  -21.2319   -7.5552   23.9750 H   0  0  0  0  0  0  0  0  0  0  0  0
  -21.1589   -6.0228   25.8556 H   0  0  0  0  0  0  0  0  0  0  0  0
  -22.0396   -2.8212   23.2809 H   0  0  0  0  0  0  0  0  0  0  0  0
  -22.4401  -11.9703   22.4008 H   0  0  0  0  0  0  0  0  0  0  0  0
  -21.1493  -13.0679   22.2082 H   0  0  0  0  0  0  0  0  0  0  0  0
  -24.6538  -15.7807   20.5848 H   0  0  0  0  0  0  0  0  0  0  0  0
  -26.2762  -15.5453   20.1156 H   0  0  0  0  0  0  0  0  0  0  0  0
  -26.6778  -32.4663   23.1464 H   0  0  0  0  0  0  0  0  0  0  0  0
  -25.0747  -34.0282   25.0566 H   0  0  0  0  0  0  0  0  0  0  0  0
  -22.7881  -31.3489   21.4131 H   0  0  0  0  0  0  0  0  0  0  0  0
  -23.3854  -35.9823   23.3648 H   0  0  0  0  0  0  0  0  0  0  0  0
  -24.3696  -36.8624   22.2204 H   0  0  0  0  0  0  0  0  0  0  0  0
  -23.7669  -37.6632   23.6516 H   0  0  0  0  0  0  0  0  0  0  0  0
  -25.9445  -31.6237   20.5691 H   0  0  0  0  0  0  0  0  0  0  0  0
  -26.7436  -31.0079   22.0108 H   0  0  0  0  0  0  0  0  0  0  0  0
  -28.0090  -29.1452   21.2057 H   0  0  0  0  0  0  0  0  0  0  0  0
  -26.1369  -26.0560   19.0719 H   0  0  0  0  0  0  0  0  0  0  0  0
  -24.0652  -27.2961   19.0997 H   0  0  0  0  0  0  0  0  0  0  0  0
  -23.6156  -30.5365   19.3930 H   0  0  0  0  0  0  0  0  0  0  0  0
  -22.7355  -29.1425   19.9945 H   0  0  0  0  0  0  0  0  0  0  0  0
  -25.1353  -36.2335   25.0565 H   0  0  0  0  0  0  0  0  0  0  0  0
  -21.0070  -28.3206   24.0793 H   0  0  0  0  0  0  0  0  0  0  0  0
  -20.5555  -26.2518   23.3550 H   0  0  0  0  0  0  0  0  0  0  0  0
  -21.5974  -26.8362   22.0454 H   0  0  0  0  0  0  0  0  0  0  0  0
  -19.6810  -25.6422   21.1488 H   0  0  0  0  0  0  0  0  0  0  0  0
  -19.6406  -27.3343   20.7034 H   0  0  0  0  0  0  0  0  0  0  0  0
  -17.4282  -26.6888   21.4113 H   0  0  0  0  0  0  0  0  0  0  0  0
  -18.0803  -26.0130   22.9049 H   0  0  0  0  0  0  0  0  0  0  0  0
  -19.7265  -30.6774   24.2204 H   0  0  0  0  0  0  0  0  0  0  0  0
  -17.5064  -31.5856   24.4483 H   0  0  0  0  0  0  0  0  0  0  0  0
  -15.5878  -30.2839   23.7407 H   0  0  0  0  0  0  0  0  0  0  0  0
  -15.9120  -28.0941   22.7766 H   0  0  0  0  0  0  0  0  0  0  0  0
  -24.5787  -30.7757   25.6817 H   0  0  0  0  0  0  0  0  0  0  0  0
  -25.0041  -32.2289   26.5536 H   0  0  0  0  0  0  0  0  0  0  0  0
  -25.8166  -30.7245   26.9138 H   0  0  0  0  0  0  0  0  0  0  0  0
  -26.2892  -29.7335   24.0803 H   0  0  0  0  0  0  0  0  0  0  0  0
  -27.4336  -29.7484   25.4006 H   0  0  0  0  0  0  0  0  0  0  0  0
  -27.8466  -30.4994   23.8779 H   0  0  0  0  0  0  0  0  0  0  0  0
  -27.2251  -33.3632   26.1242 H   0  0  0  0  0  0  0  0  0  0  0  0
  -28.3902  -32.6065   25.0645 H   0  0  0  0  0  0  0  0  0  0  0  0
  -27.9772  -31.8555   26.5872 H   0  0  0  0  0  0  0  0  0  0  0  0
  -28.2744  -38.0016   24.6863 H   0  0  0  0  0  0  0  0  0  0  0  0
  -28.0396  -36.2711   24.7461 H   0  0  0  0  0  0  0  0  0  0  0  0
  -27.1773  -37.3087   25.8564 H   0  0  0  0  0  0  0  0  0  0  0  0
  -20.9627  -29.9365   21.7352 H   0  0  0  0  0  0  0  0  0  0  0  0
  -26.0447  -38.2561   24.0273 H   0  0  0  0  0  0  0  0  0  0  0  0
  -34.3570  -18.8939   21.0509 H   0  0  0  0  0  0  0  0  0  0  0  0
  -30.3576  -17.6336   20.7583 H   0  0  0  0  0  0  0  0  0  0  0  0
  -32.1596  -16.0088   20.7773 H   0  0  0  0  0  0  0  0  0  0  0  0
  -33.8427  -16.5766   20.8723 H   0  0  0  0  0  0  0  0  0  0  0  0
  -32.0088  -22.6083   22.1961 H   0  0  0  0  0  0  0  0  0  0  0  0
  -30.5586  -21.9214   22.9371 H   0  0  0  0  0  0  0  0  0  0  0  0
  -33.4378  -15.5917   18.7267 H   0  0  0  0  0  0  0  0  0  0  0  0
  -33.6938  -17.3437   18.5911 H   0  0  0  0  0  0  0  0  0  0  0  0
  -31.0082  -16.0120   18.5099 H   0  0  0  0  0  0  0  0  0  0  0  0
  -31.8653  -16.5338   17.1105 H   0  0  0  0  0  0  0  0  0  0  0  0
  -29.9408  -23.4887   20.6711 H   0  0  0  0  0  0  0  0  0  0  0  0
  1 25  1  0
  1 30  2  0
  1 81  1  0
  2  3  1  0
  2 25  1  0
  2 84  1  0
  2 85  1  0
  3  4  1  0
  3 86  1  0
  3 87  1  0
  4  5  1  0
  4 88  1  0
  4 89  1  0
  5  6  1  0
  5 26  1  0
  5 90  1  6
  6 25  1  0
  6 91  1  0
  6 92  1  0
  7  8  2  0
  7 26  1  0
  7 29  1  0
  8  9  1  0
  8 22  1  0
  9 10  1  0
  9 27  2  0
 10 11  2  0
 10 15  1  0
 11 12  1  0
 11 93  1  0
 12 13  2  0
 12 94  1  0
 13 14  1  0
 13 31  1  0
 14 15  2  0
 14 95  1  0
 15 96  1  0
 16 17  2  0
 16 21  1  0
 16 31  1  0
 17 18  1  0
 17 97  1  0
 18 19  2  0
 18 98  1  0
 19 20  1  0
 19 24  1  0
 20 21  2  0
 20 99  1  0
 21 23  1  0
 22 28  1  0
 22 32  2  0
 26 27  1  0
 28100  1  0
 28101  1  0
 29102  1  0
 29103  1  0
 33 34  1  0
 33 66  1  0
 33 70  2  0
 34 36  1  0
 34 59  1  0
 34104  1  6
 35 44  2  0
 35 45  1  0
 35 68  1  0
 36 56  1  0
 36105  1  0
 37 39  1  0
 37 47  1  0
 37 66  1  0
 37106  1  6
 38 43  2  0
 38 46  1  0
 38 47  1  0
 39 64  1  0
 39 67  2  0
 40 52  1  0
 40 53  2  0
 40 58  1  0
 41107  1  0
 41108  1  0
 41109  1  0
 42 43  1  0
 42 66  1  0
 42110  1  0
 42111  1  0
 43 44  1  0
 44112  1  0
 45 46  2  0
 45113  1  0
 46114  1  0
 47115  1  0
 47116  1  0
 48 41  1  0
 48 56  1  0
 48 65  1  0
 48117  1  1
 49 50  1  0
 49 53  1  0
 49 64  1  0
 49118  1  1
 50 51  1  0
 50119  1  0
 50120  1  0
 51 52  1  0
 51121  1  0
 51122  1  0
 52123  1  0
 52124  1  0
 53 54  1  0
 54 55  2  0
 54125  1  0
 55 57  1  0
 55126  1  0
 56 69  2  0
 57 58  2  0
 57127  1  0
 58128  1  0
 59 60  1  0
 59 61  1  0
 59 62  1  0
 60129  1  0
 60130  1  0
 60131  1  0
 61132  1  0
 61133  1  0
 61134  1  0
 62135  1  0
 62136  1  0
 62137  1  0
 63 65  1  0
 63138  1  0
 63139  1  0
 63140  1  0
 64141  1  0
 65142  1  0
 68 80  1  0
 71 73  2  0
 71 75  1  0
 71143  1  0
 72 73  1  0
 72 76  2  0
 72144  1  0
 73 77  1  0
 74 75  2  0
 74 76  1  0
 74 78  1  0
 75 82  1  0
 76 83  1  0
 77 79  1  0
 77145  1  0
 77146  1  0
 78 81  1  0
 78147  1  0
 78148  1  0
 79 80  1  0
 79149  1  0
 79150  1  0
 80151  1  0
 80152  1  0
 81153  1  0
M  ISO  4   1 100  68 101  80 101  81 100
M  END
$$$$
78
     RDKit          3D

166174  0  0  0  0  0  0  0  0999 V2000
  -30.7652  -14.3608   20.6636 C   0  0  0  0  0  0  0  0  0100  0  0
  -30.4392  -12.2669   19.3775 C   0  0  0  0  0  0  0  0  0101  0  0
  -29.4791  -12.5281   18.1977 C   0  0  0  0  0  0  0  0  0102  0  0
  -27.9985  -12.3963   18.6038 C   0  0  0  0  0  0  0  0  0103  0  0
  -27.6639  -13.2170   19.8820 C   0  0  2  0  0  0  0  0  0104  0  0
  -28.6795  -12.9602   21.0279 C   0  0  0  0  0  0  0  0  0105  0  0
  -25.2633  -13.8245   20.5754 C   0  0  0  0  0  0  0  0  0106  0  0
  -24.1645  -13.0409   20.9408 C   0  0  0  0  0  0  0  0  0107  0  0
  -24.6400  -11.7009   20.8697 C   0  0  0  0  0  0  0  0  0108  0  0
  -23.9005  -10.4085   21.0420 C   0  0  0  0  0  0  0  0  0109  0  0
  -24.3588   -9.4123   21.9123 C   0  0  0  0  0  0  0  0  0110  0  0
  -23.6296   -8.2350   22.0803 C   0  0  0  0  0  0  0  0  0111  0  0
  -22.4385   -8.0419   21.3657 C   0  0  0  0  0  0  0  0  0112  0  0
  -22.0103   -9.0167   20.4678 C   0  0  0  0  0  0  0  0  0113  0  0
  -22.7317  -10.1925   20.3102 C   0  0  0  0  0  0  0  0  0114  0  0
  -21.6857   -6.0709   22.5391 C   0  0  0  0  0  0  0  0  0115  0  0
  -21.4064   -6.5490   23.8264 C   0  0  0  0  0  0  0  0  0116  0  0
  -21.3635   -5.6677   24.9085 C   0  0  0  0  0  0  0  0  0117  0  0
  -21.5973   -4.3067   24.7088 C   0  0  0  0  0  0  0  0  0118  0  0
  -21.8700   -3.8284   23.4282 C   0  0  0  0  0  0  0  0  0119  0  0
  -21.9144   -4.7056   22.3460 C   0  0  0  0  0  0  0  0  0120  0  0
  -22.8194  -13.5263   21.1763 C   0  0  0  0  0  0  0  0  0121  0  0
  -22.1559   -4.2206   21.1063 F   0  0  0  0  0  0  0  0  0122  0  0
  -21.5628   -3.4510   25.7555 F   0  0  0  0  0  0  0  0  0123  0  0
  -30.0261  -13.1803   20.4553 N   0  0  0  0  0  0  0  0  0124  0  0
  -26.2911  -12.9356   20.3443 N   0  0  0  0  0  0  0  0  0125  0  0
  -25.9236  -11.6675   20.5847 N   0  0  0  0  0  0  0  0  0126  0  0
  -22.0708  -12.7905   22.0005 N   0  0  0  0  0  0  0  0  0127  0  0
  -25.4117  -15.1773   20.4097 N   0  0  0  0  0  0  0  0  0128  0  0
  -31.7916  -14.6724   20.0536 O   0  0  0  0  0  0  0  0  0129  0  0
  -21.6670   -6.9022   21.4423 O   0  0  0  0  0  0  0  0  0130  0  0
  -22.3946  -14.5564   20.6568 O   0  0  0  0  0  0  0  0  0131  0  0
  -24.6048  -31.8614   23.2223 C   0  0  0  0  0  0  0  0  0100  0  0
  -25.8822  -32.4841   23.8616 C   0  0  1  0  0  0  0  0  0101  0  0
  -27.2536  -27.5042   20.1156 C   0  0  0  0  0  0  0  0  0102  0  0
  -25.5726  -33.8762   24.2210 N   0  0  0  0  0  0  0  0  0103  0  0
  -23.4066  -30.4859   21.5461 C   0  0  2  0  0  0  0  0  0104  0  0
  -24.8467  -28.9636   20.1247 C   0  0  0  0  0  0  0  0  0105  0  0
  -22.7412  -29.4652   22.5052 C   0  0  0  0  0  0  0  0  0106  0  0
  -18.0167  -28.1302   22.8626 C   0  0  0  0  0  0  0  0  0107  0  0
  -24.1342  -36.7390   23.2568 C   0  0  0  0  0  0  0  0  0108  0  0
  -25.9141  -30.8882   21.3456 C   0  0  0  0  0  0  0  0  0109  0  0
  -25.9930  -29.5029   20.7208 C   0  0  0  0  0  0  0  0  0110  0  0
  -27.1758  -28.7612   20.7331 C   0  0  0  0  0  0  0  0  0111  0  0
  -26.1032  -26.9836   19.5230 C   0  0  0  0  0  0  0  0  0112  0  0
  -24.9097  -27.7011   19.5331 C   0  0  0  0  0  0  0  0  0113  0  0
  -23.5715  -29.7899   20.1582 C   0  0  0  0  0  0  0  0  0114  0  0
  -25.3990  -36.3212   24.0232 C   0  0  1  0  0  0  0  0  0115  0  0
  -20.5793  -28.3813   23.1004 C   0  0  2  0  0  0  0  0  0116  0  0
  -20.6548  -26.9392   22.5411 C   0  0  0  0  0  0  0  0  0117  0  0
  -19.5615  -26.6407   21.5143 C   0  0  0  0  0  0  0  0  0118  0  0
  -18.1797  -26.7818   22.1673 C   0  0  0  0  0  0  0  0  0119  0  0
  -19.1385  -28.8769   23.2988 C   0  0  0  0  0  0  0  0  0120  0  0
  -18.9183  -30.1286   23.8878 C   0  0  0  0  0  0  0  0  0121  0  0
  -17.6396  -30.6493   24.0352 C   0  0  0  0  0  0  0  0  0122  0  0
  -25.9153  -34.9582   23.4993 C   0  0  0  0  0  0  0  0  0123  0  0
  -16.5415  -29.9068   23.6254 C   0  0  0  0  0  0  0  0  0124  0  0
  -16.7331  -28.6521   23.0586 C   0  0  0  0  0  0  0  0  0125  0  0
  -26.4583  -31.6439   25.0683 C   0  0  0  0  0  0  0  0  0126  0  0
  -25.3807  -31.3179   26.1374 C   0  0  0  0  0  0  0  0  0127  0  0
  -27.0530  -30.3024   24.5680 C   0  0  0  0  0  0  0  0  0128  0  0
  -27.6014  -32.4281   25.7651 C   0  0  0  0  0  0  0  0  0129  0  0
  -27.5629  -37.2220   24.8621 C   0  0  0  0  0  0  0  0  0130  0  0
  -21.4133  -29.3375   22.3735 N   0  0  0  0  0  0  0  0  0131  0  0
  -26.4706  -37.3372   23.9061 N   0  0  0  0  0  0  0  0  0132  0  0
  -24.6674  -31.0544   22.1178 N   0  0  0  0  0  0  0  0  0133  0  0
  -23.4259  -28.8150   23.2971 O   0  0  0  0  0  0  0  0  0134  0  0
  -28.3948  -26.7345   20.0089 O   0  0  0  0  0  0  0  0  0135  0  0
  -26.5870  -34.9065   22.4671 O   0  0  0  0  0  0  0  0  0136  0  0
  -23.5365  -32.1254   23.7833 O   0  0  0  0  0  0  0  0  0137  0  0
  -24.8868  -12.2883   21.0080 C   0  0  0  0  0  0  0  0  0  0  0  0
  -25.4736  -13.4984   20.6818 C   0  0  0  0  0  0  0  0  0  0  0  0
  -23.5207  -12.1692   20.8495 C   0  0  0  0  0  0  0  0  0  0  0  0
  -24.6555  -14.5091   20.2185 C   0  0  0  0  0  0  0  0  0  0  0  0
  -25.7055  -11.1491   21.5154 C   0  0  0  0  0  0  0  0  0  0  0  0
  -20.6617   -9.8417   21.9956 C   0  0  0  0  0  0  0  0  0  0  0  0
  -26.9444  -13.7029   20.8257 C   0  0  0  0  0  0  0  0  0  0  0  0
  -22.8170  -10.8962   21.1807 C   0  0  0  0  0  0  0  0  0  0  0  0
  -25.2220  -15.8562   19.8409 C   0  0  0  0  0  0  0  0  0  0  0  0
  -21.3891  -11.1417   21.6910 C   0  0  0  0  0  0  0  0  0  0  0  0
  -27.7861  -13.1059   19.6808 C   0  0  0  0  0  0  0  0  0  0  0  0
  -29.2867  -13.3611   19.8047 C   0  0  0  0  0  0  0  0  0  0  0  0
  -24.1357  -16.9091   19.6498 C   0  0  0  0  0  0  0  0  0  1  0  0
  -22.7445  -13.1753   20.3939 N   0  0  0  0  0  0  0  0  0  0  0  0
  -23.3213  -14.3644   20.0730 N   0  0  0  0  0  0  0  0  0  0  0  0
  -29.6118  -14.7698   19.7810 N   0  0  0  0  0  0  0  0  0  0  0  0
  -31.4485  -12.4701   19.0860 H   0  0  0  0  0  0  0  0  0  0  0  0
  -30.3970  -11.2460   19.6950 H   0  0  0  0  0  0  0  0  0  0  0  0
  -29.6870  -11.8204   17.4226 H   0  0  0  0  0  0  0  0  0  0  0  0
  -29.6375  -13.5326   17.8649 H   0  0  0  0  0  0  0  0  0  0  0  0
  -27.7830  -11.3650   18.7904 H   0  0  0  0  0  0  0  0  0  0  0  0
  -27.4028  -12.7801   17.8021 H   0  0  0  0  0  0  0  0  0  0  0  0
  -27.7353  -14.2503   19.6136 H   0  0  0  0  0  0  0  0  0  0  0  0
  -28.5890  -11.9550   21.3832 H   0  0  0  0  0  0  0  0  0  0  0  0
  -28.5005  -13.6134   21.8562 H   0  0  0  0  0  0  0  0  0  0  0  0
  -25.2399   -9.5495   22.4318 H   0  0  0  0  0  0  0  0  0  0  0  0
  -23.9663   -7.5070   22.7297 H   0  0  0  0  0  0  0  0  0  0  0  0
  -21.1515   -8.8641   19.9162 H   0  0  0  0  0  0  0  0  0  0  0  0
  -22.4016  -10.9115   19.6476 H   0  0  0  0  0  0  0  0  0  0  0  0
  -21.2319   -7.5552   23.9750 H   0  0  0  0  0  0  0  0  0  0  0  0
  -21.1589   -6.0228   25.8556 H   0  0  0  0  0  0  0  0  0  0  0  0
  -22.0396   -2.8212   23.2809 H   0  0  0  0  0  0  0  0  0  0  0  0
  -22.4401  -11.9703   22.4008 H   0  0  0  0  0  0  0  0  0  0  0  0
  -21.1493  -13.0679   22.2082 H   0  0  0  0  0  0  0  0  0  0  0  0
  -24.6538  -15.7807   20.5848 H   0  0  0  0  0  0  0  0  0  0  0  0
  -26.2762  -15.5453   20.1156 H   0  0  0  0  0  0  0  0  0  0  0  0
  -26.6778  -32.4663   23.1464 H   0  0  0  0  0  0  0  0  0  0  0  0
  -25.0747  -34.0282   25.0566 H   0  0  0  0  0  0  0  0  0  0  0  0
  -22.7881  -31.3489   21.4131 H   0  0  0  0  0  0  0  0  0  0  0  0
  -23.3854  -35.9823   23.3648 H   0  0  0  0  0  0  0  0  0  0  0  0
  -24.3696  -36.8624   22.2204 H   0  0  0  0  0  0  0  0  0  0  0  0
  -23.7669  -37.6632   23.6516 H   0  0  0  0  0  0  0  0  0  0  0  0
  -25.9445  -31.6237   20.5691 H   0  0  0  0  0  0  0  0  0  0  0  0
  -26.7436  -31.0079   22.0108 H   0  0  0  0  0  0  0  0  0  0  0  0
  -28.0090  -29.1452   21.2057 H   0  0  0  0  0  0  0  0  0  0  0  0
  -26.1369  -26.0560   19.0719 H   0  0  0  0  0  0  0  0  0  0  0  0
  -24.0652  -27.2961   19.0997 H   0  0  0  0  0  0  0  0  0  0  0  0
  -23.6156  -30.5365   19.3930 H   0  0  0  0  0  0  0  0  0  0  0  0
  -22.7355  -29.1425   19.9945 H   0  0  0  0  0  0  0  0  0  0  0  0
  -25.1353  -36.2335   25.0565 H   0  0  0  0  0  0  0  0  0  0  0  0
  -21.0070  -28.3206   24.0793 H   0  0  0  0  0  0  0  0  0  0  0  0
  -20.5555  -26.2518   23.3550 H   0  0  0  0  0  0  0  0  0  0  0  0
  -21.5974  -26.8362   22.0454 H   0  0  0  0  0  0  0  0  0  0  0  0
  -19.6810  -25.6422   21.1488 H   0  0  0  0  0  0  0  0  0  0  0  0
  -19.6406  -27.3343   20.7034 H   0  0  0  0  0  0  0  0  0  0  0  0
  -17.4282  -26.6888   21.4113 H   0  0  0  0  0  0  0  0  0  0  0  0
  -18.0803  -26.0130   22.9049 H   0  0  0  0  0  0  0  0  0  0  0  0
  -19.7265  -30.6774   24.2204 H   0  0  0  0  0  0  0  0  0  0  0  0
  -17.5064  -31.5856   24.4483 H   0  0  0  0  0  0  0  0  0  0  0  0
  -15.5878  -30.2839   23.7407 H   0  0  0  0  0  0  0  0  0  0  0  0
  -15.9120  -28.0941   22.7766 H   0  0  0  0  0  0  0  0  0  0  0  0
  -24.5787  -30.7757   25.6817 H   0  0  0  0  0  0  0  0  0  0  0  0
  -25.0041  -32.2289   26.5536 H   0  0  0  0  0  0  0  0  0  0  0  0
  -25.8166  -30.7245   26.9138 H   0  0  0  0  0  0  0  0  0  0  0  0
  -26.2892  -29.7335   24.0803 H   0  0  0  0  0  0  0  0  0  0  0  0
  -27.4336  -29.7484   25.4006 H   0  0  0  0  0  0  0  0  0  0  0  0
  -27.8466  -30.4994   23.8779 H   0  0  0  0  0  0  0  0  0  0  0  0
  -27.2251  -33.3632   26.1242 H   0  0  0  0  0  0  0  0  0  0  0  0
  -28.3902  -32.6065   25.0645 H   0  0  0  0  0  0  0  0  0  0  0  0
  -27.9772  -31.8555   26.5872 H   0  0  0  0  0  0  0  0  0  0  0  0
  -28.2744  -38.0016   24.6863 H   0  0  0  0  0  0  0  0  0  0  0  0
  -28.0396  -36.2711   24.7461 H   0  0  0  0  0  0  0  0  0  0  0  0
  -27.1773  -37.3087   25.8564 H   0  0  0  0  0  0  0  0  0  0  0  0
  -20.9627  -29.9365   21.7352 H   0  0  0  0  0  0  0  0  0  0  0  0
  -26.0447  -38.2561   24.0273 H   0  0  0  0  0  0  0  0  0  0  0  0
  -26.7332  -11.4428   21.5651 H   0  0  0  0  0  0  0  0  0  0  0  0
  -25.6046  -10.3146   20.8533 H   0  0  0  0  0  0  0  0  0  0  0  0
  -25.3659  -10.8728   22.4917 H   0  0  0  0  0  0  0  0  0  0  0  0
  -19.6747  -10.0591   22.3469 H   0  0  0  0  0  0  0  0  0  0  0  0
  -21.1971   -9.3013   22.7481 H   0  0  0  0  0  0  0  0  0  0  0  0
  -20.6015   -9.2498   21.1062 H   0  0  0  0  0  0  0  0  0  0  0  0
  -27.2571  -13.2488   21.7427 H   0  0  0  0  0  0  0  0  0  0  0  0
  -27.1087  -14.7600   20.8059 H   0  0  0  0  0  0  0  0  0  0  0  0
  -23.3709  -10.3828   21.9387 H   0  0  0  0  0  0  0  0  0  0  0  0
  -22.7516  -10.3132   20.2859 H   0  0  0  0  0  0  0  0  0  0  0  0
  -25.7680  -15.7555   18.9262 H   0  0  0  0  0  0  0  0  0  0  0  0
  -25.8546  -16.1806   20.6406 H   0  0  0  0  0  0  0  0  0  0  0  0
  -21.4377  -11.7280   22.5848 H   0  0  0  0  0  0  0  0  0  0  0  0
  -20.8466  -11.6517   20.9226 H   0  0  0  0  0  0  0  0  0  0  0  0
  -27.4487  -13.5323   18.7593 H   0  0  0  0  0  0  0  0  0  0  0  0
  -27.6513  -12.0452   19.7223 H   0  0  0  0  0  0  0  0  0  0  0  0
  -29.7852  -12.8800   18.9893 H   0  0  0  0  0  0  0  0  0  0  0  0
  -29.6068  -12.9690   20.7474 H   0  0  0  0  0  0  0  0  0  0  0  0
  -23.4077  -16.8109   20.4278 H   0  0  0  0  0  0  0  0  0  0  0  0
  -23.6732  -16.7640   18.6959 H   0  0  0  0  0  0  0  0  0  0  0  0
  -29.2539  -15.5957   19.3822 H   0  0  0  0  0  0  0  0  0  0  0  0
  1 25  1  0
  1 30  2  0
  1 86  1  0
  2  3  1  0
  2 25  1  0
  2 87  1  0
  2 88  1  0
  3  4  1  0
  3 89  1  0
  3 90  1  0
  4  5  1  0
  4 91  1  0
  4 92  1  0
  5  6  1  0
  5 26  1  0
  5 93  1  6
  6 25  1  0
  6 94  1  0
  6 95  1  0
  7  8  2  0
  7 26  1  0
  7 29  1  0
  8  9  1  0
  8 22  1  0
  9 10  1  0
  9 27  2  0
 10 11  2  0
 10 15  1  0
 11 12  1  0
 11 96  1  0
 12 13  2  0
 12 97  1  0
 13 14  1  0
 13 31  1  0
 14 15  2  0
 14 98  1  0
 15 99  1  0
 16 17  2  0
 16 21  1  0
 16 31  1  0
 17 18  1  0
 17100  1  0
 18 19  2  0
 18101  1  0
 19 20  1  0
 19 24  1  0
 20 21  2  0
 20102  1  0
 21 23  1  0
 22 28  1  0
 22 32  2  0
 26 27  1  0
 28103  1  0
 28104  1  0
 29105  1  0
 29106  1  0
 33 34  1  0
 33 66  1  0
 33 70  2  0
 34 36  1  0
 34 59  1  0
 34107  1  6
 35 44  2  0
 35 45  1  0
 35 68  1  0
 36 56  1  0
 36108  1  0
 37 39  1  0
 37 47  1  0
 37 66  1  0
 37109  1  6
 38 43  2  0
 38 46  1  0
 38 47  1  0
 39 64  1  0
 39 67  2  0
 40 52  1  0
 40 53  2  0
 40 58  1  0
 41110  1  0
 41111  1  0
 41112  1  0
 42 43  1  0
 42 66  1  0
 42113  1  0
 42114  1  0
 43 44  1  0
 44115  1  0
 45 46  2  0
 45116  1  0
 46117  1  0
 47118  1  0
 47119  1  0
 48 41  1  0
 48 56  1  0
 48 65  1  0
 48120  1  1
 49 50  1  0
 49 53  1  0
 49 64  1  0
 49121  1  1
 50 51  1  0
 50122  1  0
 50123  1  0
 51 52  1  0
 51124  1  0
 51125  1  0
 52126  1  0
 52127  1  0
 53 54  1  0
 54 55  2  0
 54128  1  0
 55 57  1  0
 55129  1  0
 56 69  2  0
 57 58  2  0
 57130  1  0
 58131  1  0
 59 60  1  0
 59 61  1  0
 59 62  1  0
 60132  1  0
 60133  1  0
 60134  1  0
 61135  1  0
 61136  1  0
 61137  1  0
 62138  1  0
 62139  1  0
 62140  1  0
 63 65  1  0
 63141  1  0
 63142  1  0
 63143  1  0
 64144  1  0
 65145  1  0
 68 83  1  0
 71 72  2  0
 71 73  1  0
 71 75  1  0
 72 74  1  0
 72 77  1  0
 73 78  1  0
 73 84  2  0
 74 79  1  0
 74 85  2  0
 75146  1  0
 75147  1  0
 75148  1  0
 76 80  1  0
 76149  1  0
 76150  1  0
 76151  1  0
 77 81  1  0
 77152  1  0
 77153  1  0
 78 80  1  0
 78154  1  0
 78155  1  0
 79 83  1  0
 79156  1  0
 79157  1  0
 80158  1  0
 80159  1  0
 81 82  1  0
 81160  1  0
 81161  1  0
 82 86  1  0
 82162  1  0
 82163  1  0
 83164  1  0
 83165  1  0
 84 85  1  0
 86166  1  0
M  ISO  4   1 100  68 101  83 101  86 100
M  END
$$$$
79
     RDKit          3D

157165  0  0  0  0  0  0  0  0999 V2000
  -30.7652  -14.3608   20.6636 C   0  0  0  0  0  0  0  0  0100  0  0
  -30.4392  -12.2669   19.3775 C   0  0  0  0  0  0  0  0  0101  0  0
  -29.4791  -12.5281   18.1977 C   0  0  0  0  0  0  0  0  0102  0  0
  -27.9985  -12.3963   18.6038 C   0  0  0  0  0  0  0  0  0103  0  0
  -27.6639  -13.2170   19.8820 C   0  0  2  0  0  0  0  0  0104  0  0
  -28.6795  -12.9602   21.0279 C   0  0  0  0  0  0  0  0  0105  0  0
  -25.2633  -13.8245   20.5754 C   0  0  0  0  0  0  0  0  0106  0  0
  -24.1645  -13.0409   20.9408 C   0  0  0  0  0  0  0  0  0107  0  0
  -24.6400  -11.7009   20.8697 C   0  0  0  0  0  0  0  0  0108  0  0
  -23.9005  -10.4085   21.0420 C   0  0  0  0  0  0  0  0  0109  0  0
  -24.3588   -9.4123   21.9123 C   0  0  0  0  0  0  0  0  0110  0  0
  -23.6296   -8.2350   22.0803 C   0  0  0  0  0  0  0  0  0111  0  0
  -22.4385   -8.0419   21.3657 C   0  0  0  0  0  0  0  0  0112  0  0
  -22.0103   -9.0167   20.4678 C   0  0  0  0  0  0  0  0  0113  0  0
  -22.7317  -10.1925   20.3102 C   0  0  0  0  0  0  0  0  0114  0  0
  -21.6857   -6.0709   22.5391 C   0  0  0  0  0  0  0  0  0115  0  0
  -21.4064   -6.5490   23.8264 C   0  0  0  0  0  0  0  0  0116  0  0
  -21.3635   -5.6677   24.9085 C   0  0  0  0  0  0  0  0  0117  0  0
  -21.5973   -4.3067   24.7088 C   0  0  0  0  0  0  0  0  0118  0  0
  -21.8700   -3.8284   23.4282 C   0  0  0  0  0  0  0  0  0119  0  0
  -21.9144   -4.7056   22.3460 C   0  0  0  0  0  0  0  0  0120  0  0
  -22.8194  -13.5263   21.1763 C   0  0  0  0  0  0  0  0  0121  0  0
  -22.1559   -4.2206   21.1063 F   0  0  0  0  0  0  0  0  0122  0  0
  -21.5628   -3.4510   25.7555 F   0  0  0  0  0  0  0  0  0123  0  0
  -30.0261  -13.1803   20.4553 N   0  0  0  0  0  0  0  0  0124  0  0
  -26.2911  -12.9356   20.3443 N   0  0  0  0  0  0  0  0  0125  0  0
  -25.9236  -11.6675   20.5847 N   0  0  0  0  0  0  0  0  0126  0  0
  -22.0708  -12.7905   22.0005 N   0  0  0  0  0  0  0  0  0127  0  0
  -25.4117  -15.1773   20.4097 N   0  0  0  0  0  0  0  0  0128  0  0
  -31.7916  -14.6724   20.0536 O   0  0  0  0  0  0  0  0  0129  0  0
  -21.6670   -6.9022   21.4423 O   0  0  0  0  0  0  0  0  0130  0  0
  -22.3946  -14.5564   20.6568 O   0  0  0  0  0  0  0  0  0131  0  0
  -24.6048  -31.8614   23.2223 C   0  0  0  0  0  0  0  0  0100  0  0
  -25.8822  -32.4841   23.8616 C   0  0  1  0  0  0  0  0  0101  0  0
  -27.2536  -27.5042   20.1156 C   0  0  0  0  0  0  0  0  0102  0  0
  -25.5726  -33.8762   24.2210 N   0  0  0  0  0  0  0  0  0103  0  0
  -23.4066  -30.4859   21.5461 C   0  0  2  0  0  0  0  0  0104  0  0
  -24.8467  -28.9636   20.1247 C   0  0  0  0  0  0  0  0  0105  0  0
  -22.7412  -29.4652   22.5052 C   0  0  0  0  0  0  0  0  0106  0  0
  -18.0167  -28.1302   22.8626 C   0  0  0  0  0  0  0  0  0107  0  0
  -24.1342  -36.7390   23.2568 C   0  0  0  0  0  0  0  0  0108  0  0
  -25.9141  -30.8882   21.3456 C   0  0  0  0  0  0  0  0  0109  0  0
  -25.9930  -29.5029   20.7208 C   0  0  0  0  0  0  0  0  0110  0  0
  -27.1758  -28.7612   20.7331 C   0  0  0  0  0  0  0  0  0111  0  0
  -26.1032  -26.9836   19.5230 C   0  0  0  0  0  0  0  0  0112  0  0
  -24.9097  -27.7011   19.5331 C   0  0  0  0  0  0  0  0  0113  0  0
  -23.5715  -29.7899   20.1582 C   0  0  0  0  0  0  0  0  0114  0  0
  -25.3990  -36.3212   24.0232 C   0  0  1  0  0  0  0  0  0115  0  0
  -20.5793  -28.3813   23.1004 C   0  0  2  0  0  0  0  0  0116  0  0
  -20.6548  -26.9392   22.5411 C   0  0  0  0  0  0  0  0  0117  0  0
  -19.5615  -26.6407   21.5143 C   0  0  0  0  0  0  0  0  0118  0  0
  -18.1797  -26.7818   22.1673 C   0  0  0  0  0  0  0  0  0119  0  0
  -19.1385  -28.8769   23.2988 C   0  0  0  0  0  0  0  0  0120  0  0
  -18.9183  -30.1286   23.8878 C   0  0  0  0  0  0  0  0  0121  0  0
  -17.6396  -30.6493   24.0352 C   0  0  0  0  0  0  0  0  0122  0  0
  -25.9153  -34.9582   23.4993 C   0  0  0  0  0  0  0  0  0123  0  0
  -16.5415  -29.9068   23.6254 C   0  0  0  0  0  0  0  0  0124  0  0
  -16.7331  -28.6521   23.0586 C   0  0  0  0  0  0  0  0  0125  0  0
  -26.4583  -31.6439   25.0683 C   0  0  0  0  0  0  0  0  0126  0  0
  -25.3807  -31.3179   26.1374 C   0  0  0  0  0  0  0  0  0127  0  0
  -27.0530  -30.3024   24.5680 C   0  0  0  0  0  0  0  0  0128  0  0
  -27.6014  -32.4281   25.7651 C   0  0  0  0  0  0  0  0  0129  0  0
  -27.5629  -37.2220   24.8621 C   0  0  0  0  0  0  0  0  0130  0  0
  -21.4133  -29.3375   22.3735 N   0  0  0  0  0  0  0  0  0131  0  0
  -26.4706  -37.3372   23.9061 N   0  0  0  0  0  0  0  0  0132  0  0
  -24.6674  -31.0544   22.1178 N   0  0  0  0  0  0  0  0  0133  0  0
  -23.4259  -28.8150   23.2971 O   0  0  0  0  0  0  0  0  0134  0  0
  -28.3948  -26.7345   20.0089 O   0  0  0  0  0  0  0  0  0135  0  0
  -26.5870  -34.9065   22.4671 O   0  0  0  0  0  0  0  0  0136  0  0
  -23.5365  -32.1254   23.7833 O   0  0  0  0  0  0  0  0  0137  0  0
  -25.8089  -21.5751   21.0676 C   0  0  0  0  0  0  0  0  0  0  0  0
  -27.1476  -21.1850   21.0987 C   0  0  0  0  0  0  0  0  0  0  0  0
  -25.9306  -21.8017   18.6654 C   0  0  0  0  0  0  0  0  0  0  0  0
  -25.2003  -21.8834   19.8509 C   0  0  0  0  0  0  0  0  0  0  0  0
  -27.8780  -21.1032   19.9131 C   0  0  0  0  0  0  0  0  0  0  0  0
  -27.2695  -21.4116   18.6964 C   0  0  0  0  0  0  0  0  0  0  0  0
  -22.8276  -21.2440   20.4027 C   0  0  0  0  0  0  0  0  0  0  0  0
  -31.4672  -21.4292   20.1648 C   0  0  0  0  0  0  0  0  0  0  0  0
  -32.0167  -20.0093   20.1863 C   0  0  0  0  0  0  0  0  0  0  0  0
  -30.0632  -21.5304   20.7486 C   0  0  0  0  0  0  0  0  0  0  0  0
  -23.7495  -22.3065   19.8180 C   0  0  1  0  0  0  0  0  0  1  0  0
  -31.1851  -19.0861   19.4467 N   0  0  0  0  0  0  0  0  0  0  0  0
  -29.1842  -20.7182   19.9736 O   0  0  0  0  0  0  0  0  0  0  0  0
  -28.1490  -21.3183   17.2151 Cl  0  0  0  0  0  0  0  0  0  0  0  0
  -31.4485  -12.4701   19.0860 H   0  0  0  0  0  0  0  0  0  0  0  0
  -30.3970  -11.2460   19.6950 H   0  0  0  0  0  0  0  0  0  0  0  0
  -29.6870  -11.8204   17.4226 H   0  0  0  0  0  0  0  0  0  0  0  0
  -29.6375  -13.5326   17.8649 H   0  0  0  0  0  0  0  0  0  0  0  0
  -27.7830  -11.3650   18.7904 H   0  0  0  0  0  0  0  0  0  0  0  0
  -27.4028  -12.7801   17.8021 H   0  0  0  0  0  0  0  0  0  0  0  0
  -27.7353  -14.2503   19.6136 H   0  0  0  0  0  0  0  0  0  0  0  0
  -28.5890  -11.9550   21.3832 H   0  0  0  0  0  0  0  0  0  0  0  0
  -28.5005  -13.6134   21.8562 H   0  0  0  0  0  0  0  0  0  0  0  0
  -25.2399   -9.5495   22.4318 H   0  0  0  0  0  0  0  0  0  0  0  0
  -23.9663   -7.5070   22.7297 H   0  0  0  0  0  0  0  0  0  0  0  0
  -21.1515   -8.8641   19.9162 H   0  0  0  0  0  0  0  0  0  0  0  0
  -22.4016  -10.9115   19.6476 H   0  0  0  0  0  0  0  0  0  0  0  0
  -21.2319   -7.5552   23.9750 H   0  0  0  0  0  0  0  0  0  0  0  0
  -21.1589   -6.0228   25.8556 H   0  0  0  0  0  0  0  0  0  0  0  0
  -22.0396   -2.8212   23.2809 H   0  0  0  0  0  0  0  0  0  0  0  0
  -22.4401  -11.9703   22.4008 H   0  0  0  0  0  0  0  0  0  0  0  0
  -21.1493  -13.0679   22.2082 H   0  0  0  0  0  0  0  0  0  0  0  0
  -24.6538  -15.7807   20.5848 H   0  0  0  0  0  0  0  0  0  0  0  0
  -26.2762  -15.5453   20.1156 H   0  0  0  0  0  0  0  0  0  0  0  0
  -26.6778  -32.4663   23.1464 H   0  0  0  0  0  0  0  0  0  0  0  0
  -25.0747  -34.0282   25.0566 H   0  0  0  0  0  0  0  0  0  0  0  0
  -22.7881  -31.3489   21.4131 H   0  0  0  0  0  0  0  0  0  0  0  0
  -23.3854  -35.9823   23.3648 H   0  0  0  0  0  0  0  0  0  0  0  0
  -24.3696  -36.8624   22.2204 H   0  0  0  0  0  0  0  0  0  0  0  0
  -23.7669  -37.6632   23.6516 H   0  0  0  0  0  0  0  0  0  0  0  0
  -25.9445  -31.6237   20.5691 H   0  0  0  0  0  0  0  0  0  0  0  0
  -26.7436  -31.0079   22.0108 H   0  0  0  0  0  0  0  0  0  0  0  0
  -28.0090  -29.1452   21.2057 H   0  0  0  0  0  0  0  0  0  0  0  0
  -26.1369  -26.0560   19.0719 H   0  0  0  0  0  0  0  0  0  0  0  0
  -24.0652  -27.2961   19.0997 H   0  0  0  0  0  0  0  0  0  0  0  0
  -23.6156  -30.5365   19.3930 H   0  0  0  0  0  0  0  0  0  0  0  0
  -22.7355  -29.1425   19.9945 H   0  0  0  0  0  0  0  0  0  0  0  0
  -25.1353  -36.2335   25.0565 H   0  0  0  0  0  0  0  0  0  0  0  0
  -21.0070  -28.3206   24.0793 H   0  0  0  0  0  0  0  0  0  0  0  0
  -20.5555  -26.2518   23.3550 H   0  0  0  0  0  0  0  0  0  0  0  0
  -21.5974  -26.8362   22.0454 H   0  0  0  0  0  0  0  0  0  0  0  0
  -19.6810  -25.6422   21.1488 H   0  0  0  0  0  0  0  0  0  0  0  0
  -19.6406  -27.3343   20.7034 H   0  0  0  0  0  0  0  0  0  0  0  0
  -17.4282  -26.6888   21.4113 H   0  0  0  0  0  0  0  0  0  0  0  0
  -18.0803  -26.0130   22.9049 H   0  0  0  0  0  0  0  0  0  0  0  0
  -19.7265  -30.6774   24.2204 H   0  0  0  0  0  0  0  0  0  0  0  0
  -17.5064  -31.5856   24.4483 H   0  0  0  0  0  0  0  0  0  0  0  0
  -15.5878  -30.2839   23.7407 H   0  0  0  0  0  0  0  0  0  0  0  0
  -15.9120  -28.0941   22.7766 H   0  0  0  0  0  0  0  0  0  0  0  0
  -24.5787  -30.7757   25.6817 H   0  0  0  0  0  0  0  0  0  0  0  0
  -25.0041  -32.2289   26.5536 H   0  0  0  0  0  0  0  0  0  0  0  0
  -25.8166  -30.7245   26.9138 H   0  0  0  0  0  0  0  0  0  0  0  0
  -26.2892  -29.7335   24.0803 H   0  0  0  0  0  0  0  0  0  0  0  0
  -27.4336  -29.7484   25.4006 H   0  0  0  0  0  0  0  0  0  0  0  0
  -27.8466  -30.4994   23.8779 H   0  0  0  0  0  0  0  0  0  0  0  0
  -27.2251  -33.3632   26.1242 H   0  0  0  0  0  0  0  0  0  0  0  0
  -28.3902  -32.6065   25.0645 H   0  0  0  0  0  0  0  0  0  0  0  0
  -27.9772  -31.8555   26.5872 H   0  0  0  0  0  0  0  0  0  0  0  0
  -28.2744  -38.0016   24.6863 H   0  0  0  0  0  0  0  0  0  0  0  0
  -28.0396  -36.2711   24.7461 H   0  0  0  0  0  0  0  0  0  0  0  0
  -27.1773  -37.3087   25.8564 H   0  0  0  0  0  0  0  0  0  0  0  0
  -20.9627  -29.9365   21.7352 H   0  0  0  0  0  0  0  0  0  0  0  0
  -26.0447  -38.2561   24.0273 H   0  0  0  0  0  0  0  0  0  0  0  0
  -25.2686  -21.6357   21.9448 H   0  0  0  0  0  0  0  0  0  0  0  0
  -27.5978  -20.9569   21.9989 H   0  0  0  0  0  0  0  0  0  0  0  0
  -25.4804  -22.0299   17.7653 H   0  0  0  0  0  0  0  0  0  0  0  0
  -22.1931  -20.8590   19.6319 H   0  0  0  0  0  0  0  0  0  0  0  0
  -22.2275  -21.6782   21.1749 H   0  0  0  0  0  0  0  0  0  0  0  0
  -23.4146  -20.4485   20.8120 H   0  0  0  0  0  0  0  0  0  0  0  0
  -31.4407  -21.7698   19.1508 H   0  0  0  0  0  0  0  0  0  0  0  0
  -32.1111  -22.0320   20.7705 H   0  0  0  0  0  0  0  0  0  0  0  0
  -32.0771  -19.6794   21.2024 H   0  0  0  0  0  0  0  0  0  0  0  0
  -32.9805  -20.0250   19.7217 H   0  0  0  0  0  0  0  0  0  0  0  0
  -29.7334  -22.5479   20.7181 H   0  0  0  0  0  0  0  0  0  0  0  0
  -30.0668  -21.1954   21.7648 H   0  0  0  0  0  0  0  0  0  0  0  0
  -22.7864  -22.5635   19.4291 H   0  0  0  0  0  0  0  0  0  0  0  0
  -30.6838  -19.4205   18.6682 H   0  0  0  0  0  0  0  0  0  0  0  0
  1 25  1  0
  1 30  2  0
  1 82  1  0
  2  3  1  0
  2 25  1  0
  2 85  1  0
  2 86  1  0
  3  4  1  0
  3 87  1  0
  3 88  1  0
  4  5  1  0
  4 89  1  0
  4 90  1  0
  5  6  1  0
  5 26  1  0
  5 91  1  6
  6 25  1  0
  6 92  1  0
  6 93  1  0
  7  8  2  0
  7 26  1  0
  7 29  1  0
  8  9  1  0
  8 22  1  0
  9 10  1  0
  9 27  2  0
 10 11  2  0
 10 15  1  0
 11 12  1  0
 11 94  1  0
 12 13  2  0
 12 95  1  0
 13 14  1  0
 13 31  1  0
 14 15  2  0
 14 96  1  0
 15 97  1  0
 16 17  2  0
 16 21  1  0
 16 31  1  0
 17 18  1  0
 17 98  1  0
 18 19  2  0
 18 99  1  0
 19 20  1  0
 19 24  1  0
 20 21  2  0
 20100  1  0
 21 23  1  0
 22 28  1  0
 22 32  2  0
 26 27  1  0
 28101  1  0
 28102  1  0
 29103  1  0
 29104  1  0
 33 34  1  0
 33 66  1  0
 33 70  2  0
 34 36  1  0
 34 59  1  0
 34105  1  6
 35 44  2  0
 35 45  1  0
 35 68  1  0
 36 56  1  0
 36106  1  0
 37 39  1  0
 37 47  1  0
 37 66  1  0
 37107  1  6
 38 43  2  0
 38 46  1  0
 38 47  1  0
 39 64  1  0
 39 67  2  0
 40 52  1  0
 40 53  2  0
 40 58  1  0
 41108  1  0
 41109  1  0
 41110  1  0
 42 43  1  0
 42 66  1  0
 42111  1  0
 42112  1  0
 43 44  1  0
 44113  1  0
 45 46  2  0
 45114  1  0
 46115  1  0
 47116  1  0
 47117  1  0
 48 41  1  0
 48 56  1  0
 48 65  1  0
 48118  1  1
 49 50  1  0
 49 53  1  0
 49 64  1  0
 49119  1  1
 50 51  1  0
 50120  1  0
 50121  1  0
 51 52  1  0
 51122  1  0
 51123  1  0
 52124  1  0
 52125  1  0
 53 54  1  0
 54 55  2  0
 54126  1  0
 55 57  1  0
 55127  1  0
 56 69  2  0
 57 58  2  0
 57128  1  0
 58129  1  0
 59 60  1  0
 59 61  1  0
 59 62  1  0
 60130  1  0
 60131  1  0
 60132  1  0
 61133  1  0
 61134  1  0
 61135  1  0
 62136  1  0
 62137  1  0
 62138  1  0
 63 65  1  0
 63139  1  0
 63140  1  0
 63141  1  0
 64142  1  0
 65143  1  0
 68 81  1  0
 71 72  2  0
 71 74  1  0
 71144  1  0
 72 75  1  0
 72145  1  0
 73 74  2  0
 73 76  1  0
 73146  1  0
 74 81  1  0
 75 76  2  0
 75 83  1  0
 76 84  1  0
 77147  1  0
 77148  1  0
 77149  1  0
 78 79  1  0
 78 80  1  0
 78150  1  0
 78151  1  0
 79 82  1  0
 79152  1  0
 79153  1  0
 80 83  1  0
 80154  1  0
 80155  1  0
 81 77  1  0
 81156  1  6
 82157  1  0
M  ISO  4   1 100  68 101  81 101  82 100
M  END
$$$$
80
     RDKit          3D

168176  0  0  0  0  0  0  0  0999 V2000
  -30.7652  -14.3608   20.6636 C   0  0  0  0  0  0  0  0  0100  0  0
  -30.4392  -12.2669   19.3775 C   0  0  0  0  0  0  0  0  0101  0  0
  -29.4791  -12.5281   18.1977 C   0  0  0  0  0  0  0  0  0102  0  0
  -27.9985  -12.3963   18.6038 C   0  0  0  0  0  0  0  0  0103  0  0
  -27.6639  -13.2170   19.8820 C   0  0  2  0  0  0  0  0  0104  0  0
  -28.6795  -12.9602   21.0279 C   0  0  0  0  0  0  0  0  0105  0  0
  -25.2633  -13.8245   20.5754 C   0  0  0  0  0  0  0  0  0106  0  0
  -24.1645  -13.0409   20.9408 C   0  0  0  0  0  0  0  0  0107  0  0
  -24.6400  -11.7009   20.8697 C   0  0  0  0  0  0  0  0  0108  0  0
  -23.9005  -10.4085   21.0420 C   0  0  0  0  0  0  0  0  0109  0  0
  -24.3588   -9.4123   21.9123 C   0  0  0  0  0  0  0  0  0110  0  0
  -23.6296   -8.2350   22.0803 C   0  0  0  0  0  0  0  0  0111  0  0
  -22.4385   -8.0419   21.3657 C   0  0  0  0  0  0  0  0  0112  0  0
  -22.0103   -9.0167   20.4678 C   0  0  0  0  0  0  0  0  0113  0  0
  -22.7317  -10.1925   20.3102 C   0  0  0  0  0  0  0  0  0114  0  0
  -21.6857   -6.0709   22.5391 C   0  0  0  0  0  0  0  0  0115  0  0
  -21.4064   -6.5490   23.8264 C   0  0  0  0  0  0  0  0  0116  0  0
  -21.3635   -5.6677   24.9085 C   0  0  0  0  0  0  0  0  0117  0  0
  -21.5973   -4.3067   24.7088 C   0  0  0  0  0  0  0  0  0118  0  0
  -21.8700   -3.8284   23.4282 C   0  0  0  0  0  0  0  0  0119  0  0
  -21.9144   -4.7056   22.3460 C   0  0  0  0  0  0  0  0  0120  0  0
  -22.8194  -13.5263   21.1763 C   0  0  0  0  0  0  0  0  0121  0  0
  -22.1559   -4.2206   21.1063 F   0  0  0  0  0  0  0  0  0122  0  0
  -21.5628   -3.4510   25.7555 F   0  0  0  0  0  0  0  0  0123  0  0
  -30.0261  -13.1803   20.4553 N   0  0  0  0  0  0  0  0  0124  0  0
  -26.2911  -12.9356   20.3443 N   0  0  0  0  0  0  0  0  0125  0  0
  -25.9236  -11.6675   20.5847 N   0  0  0  0  0  0  0  0  0126  0  0
  -22.0708  -12.7905   22.0005 N   0  0  0  0  0  0  0  0  0127  0  0
  -25.4117  -15.1773   20.4097 N   0  0  0  0  0  0  0  0  0128  0  0
  -31.7916  -14.6724   20.0536 O   0  0  0  0  0  0  0  0  0129  0  0
  -21.6670   -6.9022   21.4423 O   0  0  0  0  0  0  0  0  0130  0  0
  -22.3946  -14.5564   20.6568 O   0  0  0  0  0  0  0  0  0131  0  0
  -24.6048  -31.8614   23.2223 C   0  0  0  0  0  0  0  0  0100  0  0
  -25.8822  -32.4841   23.8616 C   0  0  1  0  0  0  0  0  0101  0  0
  -27.2536  -27.5042   20.1156 C   0  0  0  0  0  0  0  0  0102  0  0
  -25.5726  -33.8762   24.2210 N   0  0  0  0  0  0  0  0  0103  0  0
  -23.4066  -30.4859   21.5461 C   0  0  2  0  0  0  0  0  0104  0  0
  -24.8467  -28.9636   20.1247 C   0  0  0  0  0  0  0  0  0105  0  0
  -22.7412  -29.4652   22.5052 C   0  0  0  0  0  0  0  0  0106  0  0
  -18.0167  -28.1302   22.8626 C   0  0  0  0  0  0  0  0  0107  0  0
  -24.1342  -36.7390   23.2568 C   0  0  0  0  0  0  0  0  0108  0  0
  -25.9141  -30.8882   21.3456 C   0  0  0  0  0  0  0  0  0109  0  0
  -25.9930  -29.5029   20.7208 C   0  0  0  0  0  0  0  0  0110  0  0
  -27.1758  -28.7612   20.7331 C   0  0  0  0  0  0  0  0  0111  0  0
  -26.1032  -26.9836   19.5230 C   0  0  0  0  0  0  0  0  0112  0  0
  -24.9097  -27.7011   19.5331 C   0  0  0  0  0  0  0  0  0113  0  0
  -23.5715  -29.7899   20.1582 C   0  0  0  0  0  0  0  0  0114  0  0
  -25.3990  -36.3212   24.0232 C   0  0  1  0  0  0  0  0  0115  0  0
  -20.5793  -28.3813   23.1004 C   0  0  2  0  0  0  0  0  0116  0  0
  -20.6548  -26.9392   22.5411 C   0  0  0  0  0  0  0  0  0117  0  0
  -19.5615  -26.6407   21.5143 C   0  0  0  0  0  0  0  0  0118  0  0
  -18.1797  -26.7818   22.1673 C   0  0  0  0  0  0  0  0  0119  0  0
  -19.1385  -28.8769   23.2988 C   0  0  0  0  0  0  0  0  0120  0  0
  -18.9183  -30.1286   23.8878 C   0  0  0  0  0  0  0  0  0121  0  0
  -17.6396  -30.6493   24.0352 C   0  0  0  0  0  0  0  0  0122  0  0
  -25.9153  -34.9582   23.4993 C   0  0  0  0  0  0  0  0  0123  0  0
  -16.5415  -29.9068   23.6254 C   0  0  0  0  0  0  0  0  0124  0  0
  -16.7331  -28.6521   23.0586 C   0  0  0  0  0  0  0  0  0125  0  0
  -26.4583  -31.6439   25.0683 C   0  0  0  0  0  0  0  0  0126  0  0
  -25.3807  -31.3179   26.1374 C   0  0  0  0  0  0  0  0  0127  0  0
  -27.0530  -30.3024   24.5680 C   0  0  0  0  0  0  0  0  0128  0  0
  -27.6014  -32.4281   25.7651 C   0  0  0  0  0  0  0  0  0129  0  0
  -27.5629  -37.2220   24.8621 C   0  0  0  0  0  0  0  0  0130  0  0
  -21.4133  -29.3375   22.3735 N   0  0  0  0  0  0  0  0  0131  0  0
  -26.4706  -37.3372   23.9061 N   0  0  0  0  0  0  0  0  0132  0  0
  -24.6674  -31.0544   22.1178 N   0  0  0  0  0  0  0  0  0133  0  0
  -23.4259  -28.8150   23.2971 O   0  0  0  0  0  0  0  0  0134  0  0
  -28.3948  -26.7345   20.0089 O   0  0  0  0  0  0  0  0  0135  0  0
  -26.5870  -34.9065   22.4671 O   0  0  0  0  0  0  0  0  0136  0  0
  -23.5365  -32.1254   23.7833 O   0  0  0  0  0  0  0  0  0137  0  0
  -33.0516  -25.2301   22.1575 C   0  0  0  0  0  0  0  0  0  0  0  0
  -32.1192  -25.1162   24.3834 C   0  0  0  0  0  0  0  0  0  0  0  0
  -32.7672  -25.8374   23.3805 C   0  0  0  0  0  0  0  0  0  0  0  0
  -32.6879  -23.9015   21.9372 C   0  0  0  0  0  0  0  0  0  0  0  0
  -31.7556  -23.7876   24.1631 C   0  0  0  0  0  0  0  0  0  0  0  0
  -32.0400  -23.1803   22.9400 C   0  0  0  0  0  0  0  0  0  0  0  0
  -33.1553  -27.2580   23.6158 C   0  0  0  0  0  0  0  0  0  0  0  0
  -32.5951  -20.7779   23.3945 C   0  0  0  0  0  0  0  0  0  0  0  0
  -33.0050  -23.2742   20.6190 C   0  0  0  0  0  0  0  0  0  0  0  0
  -31.0556  -23.0293   25.2646 C   0  0  0  0  0  0  0  0  0  0  0  0
  -31.6507  -21.7558   22.7037 C   0  0  0  0  0  0  0  0  0  0  0  0
  -31.7701  -23.1790   19.7110 C   0  0  0  0  0  0  0  0  0  0  0  0
  -32.1003  -22.5011   18.3779 C   0  0  0  0  0  0  0  0  0  0  0  0
  -30.8855  -22.3829   17.4633 C   0  0  0  0  0  0  0  0  0  0  0  0
  -29.7654  -23.7103   25.7080 C   0  0  0  0  0  0  0  0  0  1  0  0
  -29.8282  -21.5899   18.0497 N   0  0  0  0  0  0  0  0  0  0  0  0
  -31.4485  -12.4701   19.0860 H   0  0  0  0  0  0  0  0  0  0  0  0
  -30.3970  -11.2460   19.6950 H   0  0  0  0  0  0  0  0  0  0  0  0
  -29.6870  -11.8204   17.4226 H   0  0  0  0  0  0  0  0  0  0  0  0
  -29.6375  -13.5326   17.8649 H   0  0  0  0  0  0  0  0  0  0  0  0
  -27.7830  -11.3650   18.7904 H   0  0  0  0  0  0  0  0  0  0  0  0
  -27.4028  -12.7801   17.8021 H   0  0  0  0  0  0  0  0  0  0  0  0
  -27.7353  -14.2503   19.6136 H   0  0  0  0  0  0  0  0  0  0  0  0
  -28.5890  -11.9550   21.3832 H   0  0  0  0  0  0  0  0  0  0  0  0
  -28.5005  -13.6134   21.8562 H   0  0  0  0  0  0  0  0  0  0  0  0
  -25.2399   -9.5495   22.4318 H   0  0  0  0  0  0  0  0  0  0  0  0
  -23.9663   -7.5070   22.7297 H   0  0  0  0  0  0  0  0  0  0  0  0
  -21.1515   -8.8641   19.9162 H   0  0  0  0  0  0  0  0  0  0  0  0
  -22.4016  -10.9115   19.6476 H   0  0  0  0  0  0  0  0  0  0  0  0
  -21.2319   -7.5552   23.9750 H   0  0  0  0  0  0  0  0  0  0  0  0
  -21.1589   -6.0228   25.8556 H   0  0  0  0  0  0  0  0  0  0  0  0
  -22.0396   -2.8212   23.2809 H   0  0  0  0  0  0  0  0  0  0  0  0
  -22.4401  -11.9703   22.4008 H   0  0  0  0  0  0  0  0  0  0  0  0
  -21.1493  -13.0679   22.2082 H   0  0  0  0  0  0  0  0  0  0  0  0
  -24.6538  -15.7807   20.5848 H   0  0  0  0  0  0  0  0  0  0  0  0
  -26.2762  -15.5453   20.1156 H   0  0  0  0  0  0  0  0  0  0  0  0
  -26.6778  -32.4663   23.1464 H   0  0  0  0  0  0  0  0  0  0  0  0
  -25.0747  -34.0282   25.0566 H   0  0  0  0  0  0  0  0  0  0  0  0
  -22.7881  -31.3489   21.4131 H   0  0  0  0  0  0  0  0  0  0  0  0
  -23.3854  -35.9823   23.3648 H   0  0  0  0  0  0  0  0  0  0  0  0
  -24.3696  -36.8624   22.2204 H   0  0  0  0  0  0  0  0  0  0  0  0
  -23.7669  -37.6632   23.6516 H   0  0  0  0  0  0  0  0  0  0  0  0
  -25.9445  -31.6237   20.5691 H   0  0  0  0  0  0  0  0  0  0  0  0
  -26.7436  -31.0079   22.0108 H   0  0  0  0  0  0  0  0  0  0  0  0
  -28.0090  -29.1452   21.2057 H   0  0  0  0  0  0  0  0  0  0  0  0
  -26.1369  -26.0560   19.0719 H   0  0  0  0  0  0  0  0  0  0  0  0
  -24.0652  -27.2961   19.0997 H   0  0  0  0  0  0  0  0  0  0  0  0
  -23.6156  -30.5365   19.3930 H   0  0  0  0  0  0  0  0  0  0  0  0
  -22.7355  -29.1425   19.9945 H   0  0  0  0  0  0  0  0  0  0  0  0
  -25.1353  -36.2335   25.0565 H   0  0  0  0  0  0  0  0  0  0  0  0
  -21.0070  -28.3206   24.0793 H   0  0  0  0  0  0  0  0  0  0  0  0
  -20.5555  -26.2518   23.3550 H   0  0  0  0  0  0  0  0  0  0  0  0
  -21.5974  -26.8362   22.0454 H   0  0  0  0  0  0  0  0  0  0  0  0
  -19.6810  -25.6422   21.1488 H   0  0  0  0  0  0  0  0  0  0  0  0
  -19.6406  -27.3343   20.7034 H   0  0  0  0  0  0  0  0  0  0  0  0
  -17.4282  -26.6888   21.4113 H   0  0  0  0  0  0  0  0  0  0  0  0
  -18.0803  -26.0130   22.9049 H   0  0  0  0  0  0  0  0  0  0  0  0
  -19.7265  -30.6774   24.2204 H   0  0  0  0  0  0  0  0  0  0  0  0
  -17.5064  -31.5856   24.4483 H   0  0  0  0  0  0  0  0  0  0  0  0
  -15.5878  -30.2839   23.7407 H   0  0  0  0  0  0  0  0  0  0  0  0
  -15.9120  -28.0941   22.7766 H   0  0  0  0  0  0  0  0  0  0  0  0
  -24.5787  -30.7757   25.6817 H   0  0  0  0  0  0  0  0  0  0  0  0
  -25.0041  -32.2289   26.5536 H   0  0  0  0  0  0  0  0  0  0  0  0
  -25.8166  -30.7245   26.9138 H   0  0  0  0  0  0  0  0  0  0  0  0
  -26.2892  -29.7335   24.0803 H   0  0  0  0  0  0  0  0  0  0  0  0
  -27.4336  -29.7484   25.4006 H   0  0  0  0  0  0  0  0  0  0  0  0
  -27.8466  -30.4994   23.8779 H   0  0  0  0  0  0  0  0  0  0  0  0
  -27.2251  -33.3632   26.1242 H   0  0  0  0  0  0  0  0  0  0  0  0
  -28.3902  -32.6065   25.0645 H   0  0  0  0  0  0  0  0  0  0  0  0
  -27.9772  -31.8555   26.5872 H   0  0  0  0  0  0  0  0  0  0  0  0
  -28.2744  -38.0016   24.6863 H   0  0  0  0  0  0  0  0  0  0  0  0
  -28.0396  -36.2711   24.7461 H   0  0  0  0  0  0  0  0  0  0  0  0
  -27.1773  -37.3087   25.8564 H   0  0  0  0  0  0  0  0  0  0  0  0
  -20.9627  -29.9365   21.7352 H   0  0  0  0  0  0  0  0  0  0  0  0
  -26.0447  -38.2561   24.0273 H   0  0  0  0  0  0  0  0  0  0  0  0
  -33.5311  -25.7636   21.4156 H   0  0  0  0  0  0  0  0  0  0  0  0
  -31.9088  -25.5655   25.2883 H   0  0  0  0  0  0  0  0  0  0  0  0
  -33.6377  -27.6453   22.7427 H   0  0  0  0  0  0  0  0  0  0  0  0
  -33.8265  -27.3113   24.4474 H   0  0  0  0  0  0  0  0  0  0  0  0
  -32.2802  -27.8367   23.8261 H   0  0  0  0  0  0  0  0  0  0  0  0
  -32.2772  -19.7754   23.1973 H   0  0  0  0  0  0  0  0  0  0  0  0
  -32.5826  -20.9550   24.4497 H   0  0  0  0  0  0  0  0  0  0  0  0
  -33.5882  -20.9171   23.0213 H   0  0  0  0  0  0  0  0  0  0  0  0
  -33.3849  -22.2884   20.7888 H   0  0  0  0  0  0  0  0  0  0  0  0
  -33.7283  -23.8904   20.1270 H   0  0  0  0  0  0  0  0  0  0  0  0
  -31.7136  -22.9586   26.1054 H   0  0  0  0  0  0  0  0  0  0  0  0
  -30.8008  -22.0620   24.8847 H   0  0  0  0  0  0  0  0  0  0  0  0
  -31.6663  -21.5645   21.6511 H   0  0  0  0  0  0  0  0  0  0  0  0
  -30.6722  -21.6109   23.1116 H   0  0  0  0  0  0  0  0  0  0  0  0
  -31.4047  -24.1659   19.5174 H   0  0  0  0  0  0  0  0  0  0  0  0
  -31.0314  -22.5890   20.2121 H   0  0  0  0  0  0  0  0  0  0  0  0
  -32.4765  -21.5193   18.5766 H   0  0  0  0  0  0  0  0  0  0  0  0
  -32.8255  -23.1076   17.8768 H   0  0  0  0  0  0  0  0  0  0  0  0
  -31.1898  -21.9247   16.5455 H   0  0  0  0  0  0  0  0  0  0  0  0
  -30.5021  -23.3687   17.3016 H   0  0  0  0  0  0  0  0  0  0  0  0
  -29.9240  -24.4021   26.5087 H   0  0  0  0  0  0  0  0  0  0  0  0
  -29.0026  -23.0718   26.1022 H   0  0  0  0  0  0  0  0  0  0  0  0
  -28.9334  -21.9942   18.1211 H   0  0  0  0  0  0  0  0  0  0  0  0
  1 25  1  0
  1 30  2  0
  1 86  1  0
  2  3  1  0
  2 25  1  0
  2 87  1  0
  2 88  1  0
  3  4  1  0
  3 89  1  0
  3 90  1  0
  4  5  1  0
  4 91  1  0
  4 92  1  0
  5  6  1  0
  5 26  1  0
  5 93  1  6
  6 25  1  0
  6 94  1  0
  6 95  1  0
  7  8  2  0
  7 26  1  0
  7 29  1  0
  8  9  1  0
  8 22  1  0
  9 10  1  0
  9 27  2  0
 10 11  2  0
 10 15  1  0
 11 12  1  0
 11 96  1  0
 12 13  2  0
 12 97  1  0
 13 14  1  0
 13 31  1  0
 14 15  2  0
 14 98  1  0
 15 99  1  0
 16 17  2  0
 16 21  1  0
 16 31  1  0
 17 18  1  0
 17100  1  0
 18 19  2  0
 18101  1  0
 19 20  1  0
 19 24  1  0
 20 21  2  0
 20102  1  0
 21 23  1  0
 22 28  1  0
 22 32  2  0
 26 27  1  0
 28103  1  0
 28104  1  0
 29105  1  0
 29106  1  0
 33 34  1  0
 33 66  1  0
 33 70  2  0
 34 36  1  0
 34 59  1  0
 34107  1  6
 35 44  2  0
 35 45  1  0
 35 68  1  0
 36 56  1  0
 36108  1  0
 37 39  1  0
 37 47  1  0
 37 66  1  0
 37109  1  6
 38 43  2  0
 38 46  1  0
 38 47  1  0
 39 64  1  0
 39 67  2  0
 40 52  1  0
 40 53  2  0
 40 58  1  0
 41110  1  0
 41111  1  0
 41112  1  0
 42 43  1  0
 42 66  1  0
 42113  1  0
 42114  1  0
 43 44  1  0
 44115  1  0
 45 46  2  0
 45116  1  0
 46117  1  0
 47118  1  0
 47119  1  0
 48 41  1  0
 48 56  1  0
 48 65  1  0
 48120  1  1
 49 50  1  0
 49 53  1  0
 49 64  1  0
 49121  1  1
 50 51  1  0
 50122  1  0
 50123  1  0
 51 52  1  0
 51124  1  0
 51125  1  0
 52126  1  0
 52127  1  0
 53 54  1  0
 54 55  2  0
 54128  1  0
 55 57  1  0
 55129  1  0
 56 69  2  0
 57 58  2  0
 57130  1  0
 58131  1  0
 59 60  1  0
 59 61  1  0
 59 62  1  0
 60132  1  0
 60133  1  0
 60134  1  0
 61135  1  0
 61136  1  0
 61137  1  0
 62138  1  0
 62139  1  0
 62140  1  0
 63 65  1  0
 63141  1  0
 63142  1  0
 63143  1  0
 64144  1  0
 65145  1  0
 68 85  1  0
 71 73  2  0
 71 74  1  0
 71146  1  0
 72 73  1  0
 72 75  2  0
 72147  1  0
 73 77  1  0
 74 76  2  0
 74 79  1  0
 75 76  1  0
 75 80  1  0
 76 81  1  0
 77148  1  0
 77149  1  0
 77150  1  0
 78 81  1  0
 78151  1  0
 78152  1  0
 78153  1  0
 79 82  1  0
 79154  1  0
 79155  1  0
 80 85  1  0
 80156  1  0
 80157  1  0
 81158  1  0
 81159  1  0
 82 83  1  0
 82160  1  0
 82161  1  0
 83 84  1  0
 83162  1  0
 83163  1  0
 84 86  1  0
 84164  1  0
 84165  1  0
 85166  1  0
 85167  1  0
 86168  1  0
M  ISO  4   1 100  68 101  85 101  86 100
M  END
$$$$
81
     RDKit          3D

150158  0  0  0  0  0  0  0  0999 V2000
  -30.7652  -14.3608   20.6636 C   0  0  0  0  0  0  0  0  0100  0  0
  -30.4392  -12.2669   19.3775 C   0  0  0  0  0  0  0  0  0101  0  0
  -29.4791  -12.5281   18.1977 C   0  0  0  0  0  0  0  0  0102  0  0
  -27.9985  -12.3963   18.6038 C   0  0  0  0  0  0  0  0  0103  0  0
  -27.6639  -13.2170   19.8820 C   0  0  2  0  0  0  0  0  0104  0  0
  -28.6795  -12.9602   21.0279 C   0  0  0  0  0  0  0  0  0105  0  0
  -25.2633  -13.8245   20.5754 C   0  0  0  0  0  0  0  0  0106  0  0
  -24.1645  -13.0409   20.9408 C   0  0  0  0  0  0  0  0  0107  0  0
  -24.6400  -11.7009   20.8697 C   0  0  0  0  0  0  0  0  0108  0  0
  -23.9005  -10.4085   21.0420 C   0  0  0  0  0  0  0  0  0109  0  0
  -24.3588   -9.4123   21.9123 C   0  0  0  0  0  0  0  0  0110  0  0
  -23.6296   -8.2350   22.0803 C   0  0  0  0  0  0  0  0  0111  0  0
  -22.4385   -8.0419   21.3657 C   0  0  0  0  0  0  0  0  0112  0  0
  -22.0103   -9.0167   20.4678 C   0  0  0  0  0  0  0  0  0113  0  0
  -22.7317  -10.1925   20.3102 C   0  0  0  0  0  0  0  0  0114  0  0
  -21.6857   -6.0709   22.5391 C   0  0  0  0  0  0  0  0  0115  0  0
  -21.4064   -6.5490   23.8264 C   0  0  0  0  0  0  0  0  0116  0  0
  -21.3635   -5.6677   24.9085 C   0  0  0  0  0  0  0  0  0117  0  0
  -21.5973   -4.3067   24.7088 C   0  0  0  0  0  0  0  0  0118  0  0
  -21.8700   -3.8284   23.4282 C   0  0  0  0  0  0  0  0  0119  0  0
  -21.9144   -4.7056   22.3460 C   0  0  0  0  0  0  0  0  0120  0  0
  -22.8194  -13.5263   21.1763 C   0  0  0  0  0  0  0  0  0121  0  0
  -22.1559   -4.2206   21.1063 F   0  0  0  0  0  0  0  0  0122  0  0
  -21.5628   -3.4510   25.7555 F   0  0  0  0  0  0  0  0  0123  0  0
  -30.0261  -13.1803   20.4553 N   0  0  0  0  0  0  0  0  0124  0  0
  -26.2911  -12.9356   20.3443 N   0  0  0  0  0  0  0  0  0125  0  0
  -25.9236  -11.6675   20.5847 N   0  0  0  0  0  0  0  0  0126  0  0
  -22.0708  -12.7905   22.0005 N   0  0  0  0  0  0  0  0  0127  0  0
  -25.4117  -15.1773   20.4097 N   0  0  0  0  0  0  0  0  0128  0  0
  -31.7916  -14.6724   20.0536 O   0  0  0  0  0  0  0  0  0129  0  0
  -21.6670   -6.9022   21.4423 O   0  0  0  0  0  0  0  0  0130  0  0
  -22.3946  -14.5564   20.6568 O   0  0  0  0  0  0  0  0  0131  0  0
  -24.6048  -31.8614   23.2223 C   0  0  0  0  0  0  0  0  0100  0  0
  -25.8822  -32.4841   23.8616 C   0  0  1  0  0  0  0  0  0101  0  0
  -27.2536  -27.5042   20.1156 C   0  0  0  0  0  0  0  0  0102  0  0
  -25.5726  -33.8762   24.2210 N   0  0  0  0  0  0  0  0  0103  0  0
  -23.4066  -30.4859   21.5461 C   0  0  2  0  0  0  0  0  0104  0  0
  -24.8467  -28.9636   20.1247 C   0  0  0  0  0  0  0  0  0105  0  0
  -22.7412  -29.4652   22.5052 C   0  0  0  0  0  0  0  0  0106  0  0
  -18.0167  -28.1302   22.8626 C   0  0  0  0  0  0  0  0  0107  0  0
  -24.1342  -36.7390   23.2568 C   0  0  0  0  0  0  0  0  0108  0  0
  -25.9141  -30.8882   21.3456 C   0  0  0  0  0  0  0  0  0109  0  0
  -25.9930  -29.5029   20.7208 C   0  0  0  0  0  0  0  0  0110  0  0
  -27.1758  -28.7612   20.7331 C   0  0  0  0  0  0  0  0  0111  0  0
  -26.1032  -26.9836   19.5230 C   0  0  0  0  0  0  0  0  0112  0  0
  -24.9097  -27.7011   19.5331 C   0  0  0  0  0  0  0  0  0113  0  0
  -23.5715  -29.7899   20.1582 C   0  0  0  0  0  0  0  0  0114  0  0
  -25.3990  -36.3212   24.0232 C   0  0  1  0  0  0  0  0  0115  0  0
  -20.5793  -28.3813   23.1004 C   0  0  2  0  0  0  0  0  0116  0  0
  -20.6548  -26.9392   22.5411 C   0  0  0  0  0  0  0  0  0117  0  0
  -19.5615  -26.6407   21.5143 C   0  0  0  0  0  0  0  0  0118  0  0
  -18.1797  -26.7818   22.1673 C   0  0  0  0  0  0  0  0  0119  0  0
  -19.1385  -28.8769   23.2988 C   0  0  0  0  0  0  0  0  0120  0  0
  -18.9183  -30.1286   23.8878 C   0  0  0  0  0  0  0  0  0121  0  0
  -17.6396  -30.6493   24.0352 C   0  0  0  0  0  0  0  0  0122  0  0
  -25.9153  -34.9582   23.4993 C   0  0  0  0  0  0  0  0  0123  0  0
  -16.5415  -29.9068   23.6254 C   0  0  0  0  0  0  0  0  0124  0  0
  -16.7331  -28.6521   23.0586 C   0  0  0  0  0  0  0  0  0125  0  0
  -26.4583  -31.6439   25.0683 C   0  0  0  0  0  0  0  0  0126  0  0
  -25.3807  -31.3179   26.1374 C   0  0  0  0  0  0  0  0  0127  0  0
  -27.0530  -30.3024   24.5680 C   0  0  0  0  0  0  0  0  0128  0  0
  -27.6014  -32.4281   25.7651 C   0  0  0  0  0  0  0  0  0129  0  0
  -27.5629  -37.2220   24.8621 C   0  0  0  0  0  0  0  0  0130  0  0
  -21.4133  -29.3375   22.3735 N   0  0  0  0  0  0  0  0  0131  0  0
  -26.4706  -37.3372   23.9061 N   0  0  0  0  0  0  0  0  0132  0  0
  -24.6674  -31.0544   22.1178 N   0  0  0  0  0  0  0  0  0133  0  0
  -23.4259  -28.8150   23.2971 O   0  0  0  0  0  0  0  0  0134  0  0
  -28.3948  -26.7345   20.0089 O   0  0  0  0  0  0  0  0  0135  0  0
  -26.5870  -34.9065   22.4671 O   0  0  0  0  0  0  0  0  0136  0  0
  -23.5365  -32.1254   23.7833 O   0  0  0  0  0  0  0  0  0137  0  0
  -23.0864  -29.9808   20.7499 C   0  0  0  0  0  0  0  0  0  0  0  0
  -25.7521  -30.6709   21.1976 C   0  0  0  0  0  0  0  0  0  0  0  0
  -23.3968  -31.0983   21.5247 C   0  0  0  0  0  0  0  0  0  0  0  0
  -25.4417  -29.5533   20.4228 C   0  0  0  0  0  0  0  0  0  0  0  0
  -24.1088  -29.2082   20.1990 C   0  0  0  0  0  0  0  0  0  0  0  0
  -24.7297  -31.4434   21.7485 C   0  0  0  0  0  0  0  0  0  0  0  0
  -22.2627  -31.9073   22.1016 C   0  0  0  0  0  0  0  0  0  0  0  0
  -22.0302  -31.6647   23.5945 C   0  0  0  0  0  0  0  0  0  0  0  0
  -21.6097  -30.2352   23.9156 C   0  0  0  0  0  0  0  0  0  1  0  0
  -26.5036  -28.7905   19.8767 N   0  0  0  0  0  0  0  0  0  0  0  0
  -23.6805  -27.8323   19.2463 Cl  0  0  0  0  0  0  0  0  0  0  0  0
  -25.1509  -32.8186   22.7030 Cl  0  0  0  0  0  0  0  0  0  0  0  0
  -31.4485  -12.4701   19.0860 H   0  0  0  0  0  0  0  0  0  0  0  0
  -30.3970  -11.2460   19.6950 H   0  0  0  0  0  0  0  0  0  0  0  0
  -29.6870  -11.8204   17.4226 H   0  0  0  0  0  0  0  0  0  0  0  0
  -29.6375  -13.5326   17.8649 H   0  0  0  0  0  0  0  0  0  0  0  0
  -27.7830  -11.3650   18.7904 H   0  0  0  0  0  0  0  0  0  0  0  0
  -27.4028  -12.7801   17.8021 H   0  0  0  0  0  0  0  0  0  0  0  0
  -27.7353  -14.2503   19.6136 H   0  0  0  0  0  0  0  0  0  0  0  0
  -28.5890  -11.9550   21.3832 H   0  0  0  0  0  0  0  0  0  0  0  0
  -28.5005  -13.6134   21.8562 H   0  0  0  0  0  0  0  0  0  0  0  0
  -25.2399   -9.5495   22.4318 H   0  0  0  0  0  0  0  0  0  0  0  0
  -23.9663   -7.5070   22.7297 H   0  0  0  0  0  0  0  0  0  0  0  0
  -21.1515   -8.8641   19.9162 H   0  0  0  0  0  0  0  0  0  0  0  0
  -22.4016  -10.9115   19.6476 H   0  0  0  0  0  0  0  0  0  0  0  0
  -21.2319   -7.5552   23.9750 H   0  0  0  0  0  0  0  0  0  0  0  0
  -21.1589   -6.0228   25.8556 H   0  0  0  0  0  0  0  0  0  0  0  0
  -22.0396   -2.8212   23.2809 H   0  0  0  0  0  0  0  0  0  0  0  0
  -22.4401  -11.9703   22.4008 H   0  0  0  0  0  0  0  0  0  0  0  0
  -21.1493  -13.0679   22.2082 H   0  0  0  0  0  0  0  0  0  0  0  0
  -24.6538  -15.7807   20.5848 H   0  0  0  0  0  0  0  0  0  0  0  0
  -26.2762  -15.5453   20.1156 H   0  0  0  0  0  0  0  0  0  0  0  0
  -26.6778  -32.4663   23.1464 H   0  0  0  0  0  0  0  0  0  0  0  0
  -25.0747  -34.0282   25.0566 H   0  0  0  0  0  0  0  0  0  0  0  0
  -22.7881  -31.3489   21.4131 H   0  0  0  0  0  0  0  0  0  0  0  0
  -23.3854  -35.9823   23.3648 H   0  0  0  0  0  0  0  0  0  0  0  0
  -24.3696  -36.8624   22.2204 H   0  0  0  0  0  0  0  0  0  0  0  0
  -23.7669  -37.6632   23.6516 H   0  0  0  0  0  0  0  0  0  0  0  0
  -25.9445  -31.6237   20.5691 H   0  0  0  0  0  0  0  0  0  0  0  0
  -26.7436  -31.0079   22.0108 H   0  0  0  0  0  0  0  0  0  0  0  0
  -28.0090  -29.1452   21.2057 H   0  0  0  0  0  0  0  0  0  0  0  0
  -26.1369  -26.0560   19.0719 H   0  0  0  0  0  0  0  0  0  0  0  0
  -24.0652  -27.2961   19.0997 H   0  0  0  0  0  0  0  0  0  0  0  0
  -23.6156  -30.5365   19.3930 H   0  0  0  0  0  0  0  0  0  0  0  0
  -22.7355  -29.1425   19.9945 H   0  0  0  0  0  0  0  0  0  0  0  0
  -25.1353  -36.2335   25.0565 H   0  0  0  0  0  0  0  0  0  0  0  0
  -21.0070  -28.3206   24.0793 H   0  0  0  0  0  0  0  0  0  0  0  0
  -20.5555  -26.2518   23.3550 H   0  0  0  0  0  0  0  0  0  0  0  0
  -21.5974  -26.8362   22.0454 H   0  0  0  0  0  0  0  0  0  0  0  0
  -19.6810  -25.6422   21.1488 H   0  0  0  0  0  0  0  0  0  0  0  0
  -19.6406  -27.3343   20.7034 H   0  0  0  0  0  0  0  0  0  0  0  0
  -17.4282  -26.6888   21.4113 H   0  0  0  0  0  0  0  0  0  0  0  0
  -18.0803  -26.0130   22.9049 H   0  0  0  0  0  0  0  0  0  0  0  0
  -19.7265  -30.6774   24.2204 H   0  0  0  0  0  0  0  0  0  0  0  0
  -17.5064  -31.5856   24.4483 H   0  0  0  0  0  0  0  0  0  0  0  0
  -15.5878  -30.2839   23.7407 H   0  0  0  0  0  0  0  0  0  0  0  0
  -15.9120  -28.0941   22.7766 H   0  0  0  0  0  0  0  0  0  0  0  0
  -24.5787  -30.7757   25.6817 H   0  0  0  0  0  0  0  0  0  0  0  0
  -25.0041  -32.2289   26.5536 H   0  0  0  0  0  0  0  0  0  0  0  0
  -25.8166  -30.7245   26.9138 H   0  0  0  0  0  0  0  0  0  0  0  0
  -26.2892  -29.7335   24.0803 H   0  0  0  0  0  0  0  0  0  0  0  0
  -27.4336  -29.7484   25.4006 H   0  0  0  0  0  0  0  0  0  0  0  0
  -27.8466  -30.4994   23.8779 H   0  0  0  0  0  0  0  0  0  0  0  0
  -27.2251  -33.3632   26.1242 H   0  0  0  0  0  0  0  0  0  0  0  0
  -28.3902  -32.6065   25.0645 H   0  0  0  0  0  0  0  0  0  0  0  0
  -27.9772  -31.8555   26.5872 H   0  0  0  0  0  0  0  0  0  0  0  0
  -28.2744  -38.0016   24.6863 H   0  0  0  0  0  0  0  0  0  0  0  0
  -28.0396  -36.2711   24.7461 H   0  0  0  0  0  0  0  0  0  0  0  0
  -27.1773  -37.3087   25.8564 H   0  0  0  0  0  0  0  0  0  0  0  0
  -20.9627  -29.9365   21.7352 H   0  0  0  0  0  0  0  0  0  0  0  0
  -26.0447  -38.2561   24.0273 H   0  0  0  0  0  0  0  0  0  0  0  0
  -22.1003  -29.7256   20.5842 H   0  0  0  0  0  0  0  0  0  0  0  0
  -26.7382  -30.9262   21.3632 H   0  0  0  0  0  0  0  0  0  0  0  0
  -21.3661  -31.6553   21.5749 H   0  0  0  0  0  0  0  0  0  0  0  0
  -22.5261  -32.9383   21.9900 H   0  0  0  0  0  0  0  0  0  0  0  0
  -21.2611  -32.3284   23.9305 H   0  0  0  0  0  0  0  0  0  0  0  0
  -22.9609  -31.8403   24.0924 H   0  0  0  0  0  0  0  0  0  0  0  0
  -20.6773  -29.9596   23.4688 H   0  0  0  0  0  0  0  0  0  0  0  0
  -21.4252  -29.9786   24.9379 H   0  0  0  0  0  0  0  0  0  0  0  0
  -27.1041  -29.3303   19.3134 H   0  0  0  0  0  0  0  0  0  0  0  0
  1 25  1  0
  1 30  2  0
  1 80  1  0
  2  3  1  0
  2 25  1  0
  2 83  1  0
  2 84  1  0
  3  4  1  0
  3 85  1  0
  3 86  1  0
  4  5  1  0
  4 87  1  0
  4 88  1  0
  5  6  1  0
  5 26  1  0
  5 89  1  6
  6 25  1  0
  6 90  1  0
  6 91  1  0
  7  8  2  0
  7 26  1  0
  7 29  1  0
  8  9  1  0
  8 22  1  0
  9 10  1  0
  9 27  2  0
 10 11  2  0
 10 15  1  0
 11 12  1  0
 11 92  1  0
 12 13  2  0
 12 93  1  0
 13 14  1  0
 13 31  1  0
 14 15  2  0
 14 94  1  0
 15 95  1  0
 16 17  2  0
 16 21  1  0
 16 31  1  0
 17 18  1  0
 17 96  1  0
 18 19  2  0
 18 97  1  0
 19 20  1  0
 19 24  1  0
 20 21  2  0
 20 98  1  0
 21 23  1  0
 22 28  1  0
 22 32  2  0
 26 27  1  0
 28 99  1  0
 28100  1  0
 29101  1  0
 29102  1  0
 33 34  1  0
 33 66  1  0
 33 70  2  0
 34 36  1  0
 34 59  1  0
 34103  1  6
 35 44  2  0
 35 45  1  0
 35 68  1  0
 36 56  1  0
 36104  1  0
 37 39  1  0
 37 47  1  0
 37 66  1  0
 37105  1  6
 38 43  2  0
 38 46  1  0
 38 47  1  0
 39 64  1  0
 39 67  2  0
 40 52  1  0
 40 53  2  0
 40 58  1  0
 41106  1  0
 41107  1  0
 41108  1  0
 42 43  1  0
 42 66  1  0
 42109  1  0
 42110  1  0
 43 44  1  0
 44111  1  0
 45 46  2  0
 45112  1  0
 46113  1  0
 47114  1  0
 47115  1  0
 48 41  1  0
 48 56  1  0
 48 65  1  0
 48116  1  1
 49 50  1  0
 49 53  1  0
 49 64  1  0
 49117  1  1
 50 51  1  0
 50118  1  0
 50119  1  0
 51 52  1  0
 51120  1  0
 51121  1  0
 52122  1  0
 52123  1  0
 53 54  1  0
 54 55  2  0
 54124  1  0
 55 57  1  0
 55125  1  0
 56 69  2  0
 57 58  2  0
 57126  1  0
 58127  1  0
 59 60  1  0
 59 61  1  0
 59 62  1  0
 60128  1  0
 60129  1  0
 60130  1  0
 61131  1  0
 61132  1  0
 61133  1  0
 62134  1  0
 62135  1  0
 62136  1  0
 63 65  1  0
 63137  1  0
 63138  1  0
 63139  1  0
 64140  1  0
 65141  1  0
 68 79  1  0
 71 73  2  0
 71 75  1  0
 71142  1  0
 72 74  1  0
 72 76  2  0
 72143  1  0
 73 76  1  0
 73 77  1  0
 74 75  2  0
 74 80  1  0
 75 81  1  0
 76 82  1  0
 77 78  1  0
 77144  1  0
 77145  1  0
 78 79  1  0
 78146  1  0
 78147  1  0
 79148  1  0
 79149  1  0
 80150  1  0
M  ISO  4   1 100  68 101  79 101  80 100
M  END
$$$$
82
     RDKit          3D

160168  0  0  0  0  0  0  0  0999 V2000
  -30.7652  -14.3608   20.6636 C   0  0  0  0  0  0  0  0  0100  0  0
  -30.4392  -12.2669   19.3775 C   0  0  0  0  0  0  0  0  0101  0  0
  -29.4791  -12.5281   18.1977 C   0  0  0  0  0  0  0  0  0102  0  0
  -27.9985  -12.3963   18.6038 C   0  0  0  0  0  0  0  0  0103  0  0
  -27.6639  -13.2170   19.8820 C   0  0  2  0  0  0  0  0  0104  0  0
  -28.6795  -12.9602   21.0279 C   0  0  0  0  0  0  0  0  0105  0  0
  -25.2633  -13.8245   20.5754 C   0  0  0  0  0  0  0  0  0106  0  0
  -24.1645  -13.0409   20.9408 C   0  0  0  0  0  0  0  0  0107  0  0
  -24.6400  -11.7009   20.8697 C   0  0  0  0  0  0  0  0  0108  0  0
  -23.9005  -10.4085   21.0420 C   0  0  0  0  0  0  0  0  0109  0  0
  -24.3588   -9.4123   21.9123 C   0  0  0  0  0  0  0  0  0110  0  0
  -23.6296   -8.2350   22.0803 C   0  0  0  0  0  0  0  0  0111  0  0
  -22.4385   -8.0419   21.3657 C   0  0  0  0  0  0  0  0  0112  0  0
  -22.0103   -9.0167   20.4678 C   0  0  0  0  0  0  0  0  0113  0  0
  -22.7317  -10.1925   20.3102 C   0  0  0  0  0  0  0  0  0114  0  0
  -21.6857   -6.0709   22.5391 C   0  0  0  0  0  0  0  0  0115  0  0
  -21.4064   -6.5490   23.8264 C   0  0  0  0  0  0  0  0  0116  0  0
  -21.3635   -5.6677   24.9085 C   0  0  0  0  0  0  0  0  0117  0  0
  -21.5973   -4.3067   24.7088 C   0  0  0  0  0  0  0  0  0118  0  0
  -21.8700   -3.8284   23.4282 C   0  0  0  0  0  0  0  0  0119  0  0
  -21.9144   -4.7056   22.3460 C   0  0  0  0  0  0  0  0  0120  0  0
  -22.8194  -13.5263   21.1763 C   0  0  0  0  0  0  0  0  0121  0  0
  -22.1559   -4.2206   21.1063 F   0  0  0  0  0  0  0  0  0122  0  0
  -21.5628   -3.4510   25.7555 F   0  0  0  0  0  0  0  0  0123  0  0
  -30.0261  -13.1803   20.4553 N   0  0  0  0  0  0  0  0  0124  0  0
  -26.2911  -12.9356   20.3443 N   0  0  0  0  0  0  0  0  0125  0  0
  -25.9236  -11.6675   20.5847 N   0  0  0  0  0  0  0  0  0126  0  0
  -22.0708  -12.7905   22.0005 N   0  0  0  0  0  0  0  0  0127  0  0
  -25.4117  -15.1773   20.4097 N   0  0  0  0  0  0  0  0  0128  0  0
  -31.7916  -14.6724   20.0536 O   0  0  0  0  0  0  0  0  0129  0  0
  -21.6670   -6.9022   21.4423 O   0  0  0  0  0  0  0  0  0130  0  0
  -22.3946  -14.5564   20.6568 O   0  0  0  0  0  0  0  0  0131  0  0
  -24.6048  -31.8614   23.2223 C   0  0  0  0  0  0  0  0  0100  0  0
  -25.8822  -32.4841   23.8616 C   0  0  1  0  0  0  0  0  0101  0  0
  -27.2536  -27.5042   20.1156 C   0  0  0  0  0  0  0  0  0102  0  0
  -25.5726  -33.8762   24.2210 N   0  0  0  0  0  0  0  0  0103  0  0
  -23.4066  -30.4859   21.5461 C   0  0  2  0  0  0  0  0  0104  0  0
  -24.8467  -28.9636   20.1247 C   0  0  0  0  0  0  0  0  0105  0  0
  -22.7412  -29.4652   22.5052 C   0  0  0  0  0  0  0  0  0106  0  0
  -18.0167  -28.1302   22.8626 C   0  0  0  0  0  0  0  0  0107  0  0
  -24.1342  -36.7390   23.2568 C   0  0  0  0  0  0  0  0  0108  0  0
  -25.9141  -30.8882   21.3456 C   0  0  0  0  0  0  0  0  0109  0  0
  -25.9930  -29.5029   20.7208 C   0  0  0  0  0  0  0  0  0110  0  0
  -27.1758  -28.7612   20.7331 C   0  0  0  0  0  0  0  0  0111  0  0
  -26.1032  -26.9836   19.5230 C   0  0  0  0  0  0  0  0  0112  0  0
  -24.9097  -27.7011   19.5331 C   0  0  0  0  0  0  0  0  0113  0  0
  -23.5715  -29.7899   20.1582 C   0  0  0  0  0  0  0  0  0114  0  0
  -25.3990  -36.3212   24.0232 C   0  0  1  0  0  0  0  0  0115  0  0
  -20.5793  -28.3813   23.1004 C   0  0  2  0  0  0  0  0  0116  0  0
  -20.6548  -26.9392   22.5411 C   0  0  0  0  0  0  0  0  0117  0  0
  -19.5615  -26.6407   21.5143 C   0  0  0  0  0  0  0  0  0118  0  0
  -18.1797  -26.7818   22.1673 C   0  0  0  0  0  0  0  0  0119  0  0
  -19.1385  -28.8769   23.2988 C   0  0  0  0  0  0  0  0  0120  0  0
  -18.9183  -30.1286   23.8878 C   0  0  0  0  0  0  0  0  0121  0  0
  -17.6396  -30.6493   24.0352 C   0  0  0  0  0  0  0  0  0122  0  0
  -25.9153  -34.9582   23.4993 C   0  0  0  0  0  0  0  0  0123  0  0
  -16.5415  -29.9068   23.6254 C   0  0  0  0  0  0  0  0  0124  0  0
  -16.7331  -28.6521   23.0586 C   0  0  0  0  0  0  0  0  0125  0  0
  -26.4583  -31.6439   25.0683 C   0  0  0  0  0  0  0  0  0126  0  0
  -25.3807  -31.3179   26.1374 C   0  0  0  0  0  0  0  0  0127  0  0
  -27.0530  -30.3024   24.5680 C   0  0  0  0  0  0  0  0  0128  0  0
  -27.6014  -32.4281   25.7651 C   0  0  0  0  0  0  0  0  0129  0  0
  -27.5629  -37.2220   24.8621 C   0  0  0  0  0  0  0  0  0130  0  0
  -21.4133  -29.3375   22.3735 N   0  0  0  0  0  0  0  0  0131  0  0
  -26.4706  -37.3372   23.9061 N   0  0  0  0  0  0  0  0  0132  0  0
  -24.6674  -31.0544   22.1178 N   0  0  0  0  0  0  0  0  0133  0  0
  -23.4259  -28.8150   23.2971 O   0  0  0  0  0  0  0  0  0134  0  0
  -28.3948  -26.7345   20.0089 O   0  0  0  0  0  0  0  0  0135  0  0
  -26.5870  -34.9065   22.4671 O   0  0  0  0  0  0  0  0  0136  0  0
  -23.5365  -32.1254   23.7833 O   0  0  0  0  0  0  0  0  0137  0  0
  -24.0236  -13.3688   20.6597 C   0  0  0  0  0  0  0  0  0  0  0  0
  -26.4377  -13.3044   20.5884 C   0  0  0  0  0  0  0  0  0  0  0  0
  -23.9928  -11.9894   20.8638 C   0  0  0  0  0  0  0  0  0  0  0  0
  -26.4069  -11.9249   20.7926 C   0  0  0  0  0  0  0  0  0  0  0  0
  -25.2461  -14.0264   20.5219 C   0  0  0  0  0  0  0  0  0  0  0  0
  -25.1844  -11.2674   20.9303 C   0  0  0  0  0  0  0  0  0  0  0  0
  -22.6600  -11.3269   21.0062 C   0  0  0  0  0  0  0  0  0  0  0  0
  -27.7085  -11.1919   20.8570 C   0  0  0  0  0  0  0  0  0  0  0  0
  -28.0869  -10.4559   19.5583 C   0  0  0  0  0  0  0  0  0  0  0  0
  -28.1764  -11.3557   18.3276 C   0  0  0  0  0  0  0  0  0  0  0  0
  -25.9214  -17.1438   18.8351 C   0  0  0  0  0  0  0  0  0  1  0  0
  -26.3682  -15.8933   19.5674 C   0  0  0  0  0  0  0  0  0  0  0  0
  -29.1394  -12.4219   18.4911 N   0  0  0  0  0  0  0  0  0  0  0  0
  -25.2762  -15.3814   20.3215 O   0  0  0  0  0  0  0  0  0  0  0  0
  -25.1460   -9.5547   21.1836 Cl  0  0  0  0  0  0  0  0  0  0  0  0
  -31.4485  -12.4701   19.0860 H   0  0  0  0  0  0  0  0  0  0  0  0
  -30.3970  -11.2460   19.6950 H   0  0  0  0  0  0  0  0  0  0  0  0
  -29.6870  -11.8204   17.4226 H   0  0  0  0  0  0  0  0  0  0  0  0
  -29.6375  -13.5326   17.8649 H   0  0  0  0  0  0  0  0  0  0  0  0
  -27.7830  -11.3650   18.7904 H   0  0  0  0  0  0  0  0  0  0  0  0
  -27.4028  -12.7801   17.8021 H   0  0  0  0  0  0  0  0  0  0  0  0
  -27.7353  -14.2503   19.6136 H   0  0  0  0  0  0  0  0  0  0  0  0
  -28.5890  -11.9550   21.3832 H   0  0  0  0  0  0  0  0  0  0  0  0
  -28.5005  -13.6134   21.8562 H   0  0  0  0  0  0  0  0  0  0  0  0
  -25.2399   -9.5495   22.4318 H   0  0  0  0  0  0  0  0  0  0  0  0
  -23.9663   -7.5070   22.7297 H   0  0  0  0  0  0  0  0  0  0  0  0
  -21.1515   -8.8641   19.9162 H   0  0  0  0  0  0  0  0  0  0  0  0
  -22.4016  -10.9115   19.6476 H   0  0  0  0  0  0  0  0  0  0  0  0
  -21.2319   -7.5552   23.9750 H   0  0  0  0  0  0  0  0  0  0  0  0
  -21.1589   -6.0228   25.8556 H   0  0  0  0  0  0  0  0  0  0  0  0
  -22.0396   -2.8212   23.2809 H   0  0  0  0  0  0  0  0  0  0  0  0
  -22.4401  -11.9703   22.4008 H   0  0  0  0  0  0  0  0  0  0  0  0
  -21.1493  -13.0679   22.2082 H   0  0  0  0  0  0  0  0  0  0  0  0
  -24.6538  -15.7807   20.5848 H   0  0  0  0  0  0  0  0  0  0  0  0
  -26.2762  -15.5453   20.1156 H   0  0  0  0  0  0  0  0  0  0  0  0
  -26.6778  -32.4663   23.1464 H   0  0  0  0  0  0  0  0  0  0  0  0
  -25.0747  -34.0282   25.0566 H   0  0  0  0  0  0  0  0  0  0  0  0
  -22.7881  -31.3489   21.4131 H   0  0  0  0  0  0  0  0  0  0  0  0
  -23.3854  -35.9823   23.3648 H   0  0  0  0  0  0  0  0  0  0  0  0
  -24.3696  -36.8624   22.2204 H   0  0  0  0  0  0  0  0  0  0  0  0
  -23.7669  -37.6632   23.6516 H   0  0  0  0  0  0  0  0  0  0  0  0
  -25.9445  -31.6237   20.5691 H   0  0  0  0  0  0  0  0  0  0  0  0
  -26.7436  -31.0079   22.0108 H   0  0  0  0  0  0  0  0  0  0  0  0
  -28.0090  -29.1452   21.2057 H   0  0  0  0  0  0  0  0  0  0  0  0
  -26.1369  -26.0560   19.0719 H   0  0  0  0  0  0  0  0  0  0  0  0
  -24.0652  -27.2961   19.0997 H   0  0  0  0  0  0  0  0  0  0  0  0
  -23.6156  -30.5365   19.3930 H   0  0  0  0  0  0  0  0  0  0  0  0
  -22.7355  -29.1425   19.9945 H   0  0  0  0  0  0  0  0  0  0  0  0
  -25.1353  -36.2335   25.0565 H   0  0  0  0  0  0  0  0  0  0  0  0
  -21.0070  -28.3206   24.0793 H   0  0  0  0  0  0  0  0  0  0  0  0
  -20.5555  -26.2518   23.3550 H   0  0  0  0  0  0  0  0  0  0  0  0
  -21.5974  -26.8362   22.0454 H   0  0  0  0  0  0  0  0  0  0  0  0
  -19.6810  -25.6422   21.1488 H   0  0  0  0  0  0  0  0  0  0  0  0
  -19.6406  -27.3343   20.7034 H   0  0  0  0  0  0  0  0  0  0  0  0
  -17.4282  -26.6888   21.4113 H   0  0  0  0  0  0  0  0  0  0  0  0
  -18.0803  -26.0130   22.9049 H   0  0  0  0  0  0  0  0  0  0  0  0
  -19.7265  -30.6774   24.2204 H   0  0  0  0  0  0  0  0  0  0  0  0
  -17.5064  -31.5856   24.4483 H   0  0  0  0  0  0  0  0  0  0  0  0
  -15.5878  -30.2839   23.7407 H   0  0  0  0  0  0  0  0  0  0  0  0
  -15.9120  -28.0941   22.7766 H   0  0  0  0  0  0  0  0  0  0  0  0
  -24.5787  -30.7757   25.6817 H   0  0  0  0  0  0  0  0  0  0  0  0
  -25.0041  -32.2289   26.5536 H   0  0  0  0  0  0  0  0  0  0  0  0
  -25.8166  -30.7245   26.9138 H   0  0  0  0  0  0  0  0  0  0  0  0
  -26.2892  -29.7335   24.0803 H   0  0  0  0  0  0  0  0  0  0  0  0
  -27.4336  -29.7484   25.4006 H   0  0  0  0  0  0  0  0  0  0  0  0
  -27.8466  -30.4994   23.8779 H   0  0  0  0  0  0  0  0  0  0  0  0
  -27.2251  -33.3632   26.1242 H   0  0  0  0  0  0  0  0  0  0  0  0
  -28.3902  -32.6065   25.0645 H   0  0  0  0  0  0  0  0  0  0  0  0
  -27.9772  -31.8555   26.5872 H   0  0  0  0  0  0  0  0  0  0  0  0
  -28.2744  -38.0016   24.6863 H   0  0  0  0  0  0  0  0  0  0  0  0
  -28.0396  -36.2711   24.7461 H   0  0  0  0  0  0  0  0  0  0  0  0
  -27.1773  -37.3087   25.8564 H   0  0  0  0  0  0  0  0  0  0  0  0
  -20.9627  -29.9365   21.7352 H   0  0  0  0  0  0  0  0  0  0  0  0
  -26.0447  -38.2561   24.0273 H   0  0  0  0  0  0  0  0  0  0  0  0
  -23.1420  -13.9030   20.6106 H   0  0  0  0  0  0  0  0  0  0  0  0
  -27.3421  -13.7909   20.4865 H   0  0  0  0  0  0  0  0  0  0  0  0
  -21.8861  -12.0612   20.9239 H   0  0  0  0  0  0  0  0  0  0  0  0
  -22.5990  -10.8501   21.9621 H   0  0  0  0  0  0  0  0  0  0  0  0
  -22.5411  -10.5953   20.2345 H   0  0  0  0  0  0  0  0  0  0  0  0
  -27.6483  -10.4709   21.6453 H   0  0  0  0  0  0  0  0  0  0  0  0
  -28.4667  -11.9283   21.0236 H   0  0  0  0  0  0  0  0  0  0  0  0
  -27.3477   -9.7053   19.3712 H   0  0  0  0  0  0  0  0  0  0  0  0
  -29.0645  -10.0488   19.7112 H   0  0  0  0  0  0  0  0  0  0  0  0
  -27.2140  -11.7871   18.1470 H   0  0  0  0  0  0  0  0  0  0  0  0
  -28.4967  -10.7511   17.5049 H   0  0  0  0  0  0  0  0  0  0  0  0
  -24.8579  -17.1400   18.9525 H   0  0  0  0  0  0  0  0  0  0  0  0
  -26.4882  -16.9762   17.9432 H   0  0  0  0  0  0  0  0  0  0  0  0
  -27.1772  -16.1330   20.2254 H   0  0  0  0  0  0  0  0  0  0  0  0
  -26.6948  -15.1588   18.8612 H   0  0  0  0  0  0  0  0  0  0  0  0
  -29.4381  -12.6830   17.5901 H   0  0  0  0  0  0  0  0  0  0  0  0
  1 25  1  0
  1 30  2  0
  1 83  1  0
  2  3  1  0
  2 25  1  0
  2 86  1  0
  2 87  1  0
  3  4  1  0
  3 88  1  0
  3 89  1  0
  4  5  1  0
  4 90  1  0
  4 91  1  0
  5  6  1  0
  5 26  1  0
  5 92  1  6
  6 25  1  0
  6 93  1  0
  6 94  1  0
  7  8  2  0
  7 26  1  0
  7 29  1  0
  8  9  1  0
  8 22  1  0
  9 10  1  0
  9 27  2  0
 10 11  2  0
 10 15  1  0
 11 12  1  0
 11 95  1  0
 12 13  2  0
 12 96  1  0
 13 14  1  0
 13 31  1  0
 14 15  2  0
 14 97  1  0
 15 98  1  0
 16 17  2  0
 16 21  1  0
 16 31  1  0
 17 18  1  0
 17 99  1  0
 18 19  2  0
 18100  1  0
 19 20  1  0
 19 24  1  0
 20 21  2  0
 20101  1  0
 21 23  1  0
 22 28  1  0
 22 32  2  0
 26 27  1  0
 28102  1  0
 28103  1  0
 29104  1  0
 29105  1  0
 33 34  1  0
 33 66  1  0
 33 70  2  0
 34 36  1  0
 34 59  1  0
 34106  1  6
 35 44  2  0
 35 45  1  0
 35 68  1  0
 36 56  1  0
 36107  1  0
 37 39  1  0
 37 47  1  0
 37 66  1  0
 37108  1  6
 38 43  2  0
 38 46  1  0
 38 47  1  0
 39 64  1  0
 39 67  2  0
 40 52  1  0
 40 53  2  0
 40 58  1  0
 41109  1  0
 41110  1  0
 41111  1  0
 42 43  1  0
 42 66  1  0
 42112  1  0
 42113  1  0
 43 44  1  0
 44114  1  0
 45 46  2  0
 45115  1  0
 46116  1  0
 47117  1  0
 47118  1  0
 48 41  1  0
 48 56  1  0
 48 65  1  0
 48119  1  1
 49 50  1  0
 49 53  1  0
 49 64  1  0
 49120  1  1
 50 51  1  0
 50121  1  0
 50122  1  0
 51 52  1  0
 51123  1  0
 51124  1  0
 52125  1  0
 52126  1  0
 53 54  1  0
 54 55  2  0
 54127  1  0
 55 57  1  0
 55128  1  0
 56 69  2  0
 57 58  2  0
 57129  1  0
 58130  1  0
 59 60  1  0
 59 61  1  0
 59 62  1  0
 60131  1  0
 60132  1  0
 60133  1  0
 61134  1  0
 61135  1  0
 61136  1  0
 62137  1  0
 62138  1  0
 62139  1  0
 63 65  1  0
 63140  1  0
 63141  1  0
 63142  1  0
 64143  1  0
 65144  1  0
 68 81  1  0
 71 73  2  0
 71 75  1  0
 71145  1  0
 72 74  1  0
 72 75  2  0
 72146  1  0
 73 76  1  0
 73 77  1  0
 74 76  2  0
 74 78  1  0
 75 84  1  0
 76 85  1  0
 77147  1  0
 77148  1  0
 77149  1  0
 78 79  1  0
 78150  1  0
 78151  1  0
 79 80  1  0
 79152  1  0
 79153  1  0
 80 83  1  0
 80154  1  0
 80155  1  0
 81 82  1  0
 81156  1  0
 81157  1  0
 82 84  1  0
 82158  1  0
 82159  1  0
 83160  1  0
M  ISO  4   1 100  68 101  81 101  83 100
M  END
$$$$
83
     RDKit          3D

150158  0  0  0  0  0  0  0  0999 V2000
  -30.7652  -14.3608   20.6636 C   0  0  0  0  0  0  0  0  0100  0  0
  -30.4392  -12.2669   19.3775 C   0  0  0  0  0  0  0  0  0101  0  0
  -29.4791  -12.5281   18.1977 C   0  0  0  0  0  0  0  0  0102  0  0
  -27.9985  -12.3963   18.6038 C   0  0  0  0  0  0  0  0  0103  0  0
  -27.6639  -13.2170   19.8820 C   0  0  2  0  0  0  0  0  0104  0  0
  -28.6795  -12.9602   21.0279 C   0  0  0  0  0  0  0  0  0105  0  0
  -25.2633  -13.8245   20.5754 C   0  0  0  0  0  0  0  0  0106  0  0
  -24.1645  -13.0409   20.9408 C   0  0  0  0  0  0  0  0  0107  0  0
  -24.6400  -11.7009   20.8697 C   0  0  0  0  0  0  0  0  0108  0  0
  -23.9005  -10.4085   21.0420 C   0  0  0  0  0  0  0  0  0109  0  0
  -24.3588   -9.4123   21.9123 C   0  0  0  0  0  0  0  0  0110  0  0
  -23.6296   -8.2350   22.0803 C   0  0  0  0  0  0  0  0  0111  0  0
  -22.4385   -8.0419   21.3657 C   0  0  0  0  0  0  0  0  0112  0  0
  -22.0103   -9.0167   20.4678 C   0  0  0  0  0  0  0  0  0113  0  0
  -22.7317  -10.1925   20.3102 C   0  0  0  0  0  0  0  0  0114  0  0
  -21.6857   -6.0709   22.5391 C   0  0  0  0  0  0  0  0  0115  0  0
  -21.4064   -6.5490   23.8264 C   0  0  0  0  0  0  0  0  0116  0  0
  -21.3635   -5.6677   24.9085 C   0  0  0  0  0  0  0  0  0117  0  0
  -21.5973   -4.3067   24.7088 C   0  0  0  0  0  0  0  0  0118  0  0
  -21.8700   -3.8284   23.4282 C   0  0  0  0  0  0  0  0  0119  0  0
  -21.9144   -4.7056   22.3460 C   0  0  0  0  0  0  0  0  0120  0  0
  -22.8194  -13.5263   21.1763 C   0  0  0  0  0  0  0  0  0121  0  0
  -22.1559   -4.2206   21.1063 F   0  0  0  0  0  0  0  0  0122  0  0
  -21.5628   -3.4510   25.7555 F   0  0  0  0  0  0  0  0  0123  0  0
  -30.0261  -13.1803   20.4553 N   0  0  0  0  0  0  0  0  0124  0  0
  -26.2911  -12.9356   20.3443 N   0  0  0  0  0  0  0  0  0125  0  0
  -25.9236  -11.6675   20.5847 N   0  0  0  0  0  0  0  0  0126  0  0
  -22.0708  -12.7905   22.0005 N   0  0  0  0  0  0  0  0  0127  0  0
  -25.4117  -15.1773   20.4097 N   0  0  0  0  0  0  0  0  0128  0  0
  -31.7916  -14.6724   20.0536 O   0  0  0  0  0  0  0  0  0129  0  0
  -21.6670   -6.9022   21.4423 O   0  0  0  0  0  0  0  0  0130  0  0
  -22.3946  -14.5564   20.6568 O   0  0  0  0  0  0  0  0  0131  0  0
  -24.6048  -31.8614   23.2223 C   0  0  0  0  0  0  0  0  0100  0  0
  -25.8822  -32.4841   23.8616 C   0  0  1  0  0  0  0  0  0101  0  0
  -27.2536  -27.5042   20.1156 C   0  0  0  0  0  0  0  0  0102  0  0
  -25.5726  -33.8762   24.2210 N   0  0  0  0  0  0  0  0  0103  0  0
  -23.4066  -30.4859   21.5461 C   0  0  2  0  0  0  0  0  0104  0  0
  -24.8467  -28.9636   20.1247 C   0  0  0  0  0  0  0  0  0105  0  0
  -22.7412  -29.4652   22.5052 C   0  0  0  0  0  0  0  0  0106  0  0
  -18.0167  -28.1302   22.8626 C   0  0  0  0  0  0  0  0  0107  0  0
  -24.1342  -36.7390   23.2568 C   0  0  0  0  0  0  0  0  0108  0  0
  -25.9141  -30.8882   21.3456 C   0  0  0  0  0  0  0  0  0109  0  0
  -25.9930  -29.5029   20.7208 C   0  0  0  0  0  0  0  0  0110  0  0
  -27.1758  -28.7612   20.7331 C   0  0  0  0  0  0  0  0  0111  0  0
  -26.1032  -26.9836   19.5230 C   0  0  0  0  0  0  0  0  0112  0  0
  -24.9097  -27.7011   19.5331 C   0  0  0  0  0  0  0  0  0113  0  0
  -23.5715  -29.7899   20.1582 C   0  0  0  0  0  0  0  0  0114  0  0
  -25.3990  -36.3212   24.0232 C   0  0  1  0  0  0  0  0  0115  0  0
  -20.5793  -28.3813   23.1004 C   0  0  2  0  0  0  0  0  0116  0  0
  -20.6548  -26.9392   22.5411 C   0  0  0  0  0  0  0  0  0117  0  0
  -19.5615  -26.6407   21.5143 C   0  0  0  0  0  0  0  0  0118  0  0
  -18.1797  -26.7818   22.1673 C   0  0  0  0  0  0  0  0  0119  0  0
  -19.1385  -28.8769   23.2988 C   0  0  0  0  0  0  0  0  0120  0  0
  -18.9183  -30.1286   23.8878 C   0  0  0  0  0  0  0  0  0121  0  0
  -17.6396  -30.6493   24.0352 C   0  0  0  0  0  0  0  0  0122  0  0
  -25.9153  -34.9582   23.4993 C   0  0  0  0  0  0  0  0  0123  0  0
  -16.5415  -29.9068   23.6254 C   0  0  0  0  0  0  0  0  0124  0  0
  -16.7331  -28.6521   23.0586 C   0  0  0  0  0  0  0  0  0125  0  0
  -26.4583  -31.6439   25.0683 C   0  0  0  0  0  0  0  0  0126  0  0
  -25.3807  -31.3179   26.1374 C   0  0  0  0  0  0  0  0  0127  0  0
  -27.0530  -30.3024   24.5680 C   0  0  0  0  0  0  0  0  0128  0  0
  -27.6014  -32.4281   25.7651 C   0  0  0  0  0  0  0  0  0129  0  0
  -27.5629  -37.2220   24.8621 C   0  0  0  0  0  0  0  0  0130  0  0
  -21.4133  -29.3375   22.3735 N   0  0  0  0  0  0  0  0  0131  0  0
  -26.4706  -37.3372   23.9061 N   0  0  0  0  0  0  0  0  0132  0  0
  -24.6674  -31.0544   22.1178 N   0  0  0  0  0  0  0  0  0133  0  0
  -23.4259  -28.8150   23.2971 O   0  0  0  0  0  0  0  0  0134  0  0
  -28.3948  -26.7345   20.0089 O   0  0  0  0  0  0  0  0  0135  0  0
  -26.5870  -34.9065   22.4671 O   0  0  0  0  0  0  0  0  0136  0  0
  -23.5365  -32.1254   23.7833 O   0  0  0  0  0  0  0  0  0137  0  0
  -17.9944  -22.5792   17.7151 C   0  0  0  0  0  0  0  0  0  0  0  0
  -15.6795  -23.6759   18.8200 C   0  0  0  0  0  0  0  0  0  0  0  0
  -16.9052  -21.7587   18.0082 C   0  0  0  0  0  0  0  0  0  0  0  0
  -16.7688  -24.4964   18.5270 C   0  0  0  0  0  0  0  0  0  0  0  0
  -15.7477  -22.3070   18.5607 C   0  0  0  0  0  0  0  0  0  0  0  0
  -17.9262  -23.9481   17.9745 C   0  0  0  0  0  0  0  0  0  0  0  0
  -17.0196  -20.2831   17.7119 C   0  0  0  0  0  0  0  0  0  0  0  0
  -16.6568  -25.9580   18.8202 C   0  0  0  0  0  0  0  0  0  0  0  0
  -18.2005  -19.6376   18.4287 C   0  0  0  0  0  0  0  0  0  1  0  0
  -17.6676  -26.4078   19.7513 N   0  0  0  0  0  0  0  0  0  0  0  0
  -14.3802  -21.3227   18.9349 Cl  0  0  0  0  0  0  0  0  0  0  0  0
  -19.2936  -24.9324   17.5989 Cl  0  0  0  0  0  0  0  0  0  0  0  0
  -31.4485  -12.4701   19.0860 H   0  0  0  0  0  0  0  0  0  0  0  0
  -30.3970  -11.2460   19.6950 H   0  0  0  0  0  0  0  0  0  0  0  0
  -29.6870  -11.8204   17.4226 H   0  0  0  0  0  0  0  0  0  0  0  0
  -29.6375  -13.5326   17.8649 H   0  0  0  0  0  0  0  0  0  0  0  0
  -27.7830  -11.3650   18.7904 H   0  0  0  0  0  0  0  0  0  0  0  0
  -27.4028  -12.7801   17.8021 H   0  0  0  0  0  0  0  0  0  0  0  0
  -27.7353  -14.2503   19.6136 H   0  0  0  0  0  0  0  0  0  0  0  0
  -28.5890  -11.9550   21.3832 H   0  0  0  0  0  0  0  0  0  0  0  0
  -28.5005  -13.6134   21.8562 H   0  0  0  0  0  0  0  0  0  0  0  0
  -25.2399   -9.5495   22.4318 H   0  0  0  0  0  0  0  0  0  0  0  0
  -23.9663   -7.5070   22.7297 H   0  0  0  0  0  0  0  0  0  0  0  0
  -21.1515   -8.8641   19.9162 H   0  0  0  0  0  0  0  0  0  0  0  0
  -22.4016  -10.9115   19.6476 H   0  0  0  0  0  0  0  0  0  0  0  0
  -21.2319   -7.5552   23.9750 H   0  0  0  0  0  0  0  0  0  0  0  0
  -21.1589   -6.0228   25.8556 H   0  0  0  0  0  0  0  0  0  0  0  0
  -22.0396   -2.8212   23.2809 H   0  0  0  0  0  0  0  0  0  0  0  0
  -22.4401  -11.9703   22.4008 H   0  0  0  0  0  0  0  0  0  0  0  0
  -21.1493  -13.0679   22.2082 H   0  0  0  0  0  0  0  0  0  0  0  0
  -24.6538  -15.7807   20.5848 H   0  0  0  0  0  0  0  0  0  0  0  0
  -26.2762  -15.5453   20.1156 H   0  0  0  0  0  0  0  0  0  0  0  0
  -26.6778  -32.4663   23.1464 H   0  0  0  0  0  0  0  0  0  0  0  0
  -25.0747  -34.0282   25.0566 H   0  0  0  0  0  0  0  0  0  0  0  0
  -22.7881  -31.3489   21.4131 H   0  0  0  0  0  0  0  0  0  0  0  0
  -23.3854  -35.9823   23.3648 H   0  0  0  0  0  0  0  0  0  0  0  0
  -24.3696  -36.8624   22.2204 H   0  0  0  0  0  0  0  0  0  0  0  0
  -23.7669  -37.6632   23.6516 H   0  0  0  0  0  0  0  0  0  0  0  0
  -25.9445  -31.6237   20.5691 H   0  0  0  0  0  0  0  0  0  0  0  0
  -26.7436  -31.0079   22.0108 H   0  0  0  0  0  0  0  0  0  0  0  0
  -28.0090  -29.1452   21.2057 H   0  0  0  0  0  0  0  0  0  0  0  0
  -26.1369  -26.0560   19.0719 H   0  0  0  0  0  0  0  0  0  0  0  0
  -24.0652  -27.2961   19.0997 H   0  0  0  0  0  0  0  0  0  0  0  0
  -23.6156  -30.5365   19.3930 H   0  0  0  0  0  0  0  0  0  0  0  0
  -22.7355  -29.1425   19.9945 H   0  0  0  0  0  0  0  0  0  0  0  0
  -25.1353  -36.2335   25.0565 H   0  0  0  0  0  0  0  0  0  0  0  0
  -21.0070  -28.3206   24.0793 H   0  0  0  0  0  0  0  0  0  0  0  0
  -20.5555  -26.2518   23.3550 H   0  0  0  0  0  0  0  0  0  0  0  0
  -21.5974  -26.8362   22.0454 H   0  0  0  0  0  0  0  0  0  0  0  0
  -19.6810  -25.6422   21.1488 H   0  0  0  0  0  0  0  0  0  0  0  0
  -19.6406  -27.3343   20.7034 H   0  0  0  0  0  0  0  0  0  0  0  0
  -17.4282  -26.6888   21.4113 H   0  0  0  0  0  0  0  0  0  0  0  0
  -18.0803  -26.0130   22.9049 H   0  0  0  0  0  0  0  0  0  0  0  0
  -19.7265  -30.6774   24.2204 H   0  0  0  0  0  0  0  0  0  0  0  0
  -17.5064  -31.5856   24.4483 H   0  0  0  0  0  0  0  0  0  0  0  0
  -15.5878  -30.2839   23.7407 H   0  0  0  0  0  0  0  0  0  0  0  0
  -15.9120  -28.0941   22.7766 H   0  0  0  0  0  0  0  0  0  0  0  0
  -24.5787  -30.7757   25.6817 H   0  0  0  0  0  0  0  0  0  0  0  0
  -25.0041  -32.2289   26.5536 H   0  0  0  0  0  0  0  0  0  0  0  0
  -25.8166  -30.7245   26.9138 H   0  0  0  0  0  0  0  0  0  0  0  0
  -26.2892  -29.7335   24.0803 H   0  0  0  0  0  0  0  0  0  0  0  0
  -27.4336  -29.7484   25.4006 H   0  0  0  0  0  0  0  0  0  0  0  0
  -27.8466  -30.4994   23.8779 H   0  0  0  0  0  0  0  0  0  0  0  0
  -27.2251  -33.3632   26.1242 H   0  0  0  0  0  0  0  0  0  0  0  0
  -28.3902  -32.6065   25.0645 H   0  0  0  0  0  0  0  0  0  0  0  0
  -27.9772  -31.8555   26.5872 H   0  0  0  0  0  0  0  0  0  0  0  0
  -28.2744  -38.0016   24.6863 H   0  0  0  0  0  0  0  0  0  0  0  0
  -28.0396  -36.2711   24.7461 H   0  0  0  0  0  0  0  0  0  0  0  0
  -27.1773  -37.3087   25.8564 H   0  0  0  0  0  0  0  0  0  0  0  0
  -20.9627  -29.9365   21.7352 H   0  0  0  0  0  0  0  0  0  0  0  0
  -26.0447  -38.2561   24.0273 H   0  0  0  0  0  0  0  0  0  0  0  0
  -18.8508  -22.1735   17.3063 H   0  0  0  0  0  0  0  0  0  0  0  0
  -14.8231  -24.0816   19.2286 H   0  0  0  0  0  0  0  0  0  0  0  0
  -17.1445  -20.1528   16.6572 H   0  0  0  0  0  0  0  0  0  0  0  0
  -16.1263  -19.8093   18.0617 H   0  0  0  0  0  0  0  0  0  0  0  0
  -15.6916  -26.1524   19.2391 H   0  0  0  0  0  0  0  0  0  0  0  0
  -16.7970  -26.4888   17.9018 H   0  0  0  0  0  0  0  0  0  0  0  0
  -18.4900  -18.7757   17.8647 H   0  0  0  0  0  0  0  0  0  0  0  0
  -17.8484  -19.4282   19.4172 H   0  0  0  0  0  0  0  0  0  0  0  0
  -17.6368  -27.2514   20.2578 H   0  0  0  0  0  0  0  0  0  0  0  0
  1 25  1  0
  1 30  2  0
  1 80  1  0
  2  3  1  0
  2 25  1  0
  2 83  1  0
  2 84  1  0
  3  4  1  0
  3 85  1  0
  3 86  1  0
  4  5  1  0
  4 87  1  0
  4 88  1  0
  5  6  1  0
  5 26  1  0
  5 89  1  6
  6 25  1  0
  6 90  1  0
  6 91  1  0
  7  8  2  0
  7 26  1  0
  7 29  1  0
  8  9  1  0
  8 22  1  0
  9 10  1  0
  9 27  2  0
 10 11  2  0
 10 15  1  0
 11 12  1  0
 11 92  1  0
 12 13  2  0
 12 93  1  0
 13 14  1  0
 13 31  1  0
 14 15  2  0
 14 94  1  0
 15 95  1  0
 16 17  2  0
 16 21  1  0
 16 31  1  0
 17 18  1  0
 17 96  1  0
 18 19  2  0
 18 97  1  0
 19 20  1  0
 19 24  1  0
 20 21  2  0
 20 98  1  0
 21 23  1  0
 22 28  1  0
 22 32  2  0
 26 27  1  0
 28 99  1  0
 28100  1  0
 29101  1  0
 29102  1  0
 33 34  1  0
 33 66  1  0
 33 70  2  0
 34 36  1  0
 34 59  1  0
 34103  1  6
 35 44  2  0
 35 45  1  0
 35 68  1  0
 36 56  1  0
 36104  1  0
 37 39  1  0
 37 47  1  0
 37 66  1  0
 37105  1  6
 38 43  2  0
 38 46  1  0
 38 47  1  0
 39 64  1  0
 39 67  2  0
 40 52  1  0
 40 53  2  0
 40 58  1  0
 41106  1  0
 41107  1  0
 41108  1  0
 42 43  1  0
 42 66  1  0
 42109  1  0
 42110  1  0
 43 44  1  0
 44111  1  0
 45 46  2  0
 45112  1  0
 46113  1  0
 47114  1  0
 47115  1  0
 48 41  1  0
 48 56  1  0
 48 65  1  0
 48116  1  1
 49 50  1  0
 49 53  1  0
 49 64  1  0
 49117  1  1
 50 51  1  0
 50118  1  0
 50119  1  0
 51 52  1  0
 51120  1  0
 51121  1  0
 52122  1  0
 52123  1  0
 53 54  1  0
 54 55  2  0
 54124  1  0
 55 57  1  0
 55125  1  0
 56 69  2  0
 57 58  2  0
 57126  1  0
 58127  1  0
 59 60  1  0
 59 61  1  0
 59 62  1  0
 60128  1  0
 60129  1  0
 60130  1  0
 61131  1  0
 61132  1  0
 61133  1  0
 62134  1  0
 62135  1  0
 62136  1  0
 63 65  1  0
 63137  1  0
 63138  1  0
 63139  1  0
 64140  1  0
 65141  1  0
 68 79  1  0
 71 73  2  0
 71 76  1  0
 71142  1  0
 72 74  1  0
 72 75  2  0
 72143  1  0
 73 75  1  0
 73 77  1  0
 74 76  2  0
 74 78  1  0
 75 81  1  0
 76 82  1  0
 77 79  1  0
 77144  1  0
 77145  1  0
 78 80  1  0
 78146  1  0
 78147  1  0
 79148  1  0
 79149  1  0
 80150  1  0
M  ISO  4   1 100  68 101  79 101  80 100
M  END
$$$$
84
     RDKit          3D

165173  0  0  0  0  0  0  0  0999 V2000
  -30.7652  -14.3608   20.6636 C   0  0  0  0  0  0  0  0  0100  0  0
  -30.4392  -12.2669   19.3775 C   0  0  0  0  0  0  0  0  0101  0  0
  -29.4791  -12.5281   18.1977 C   0  0  0  0  0  0  0  0  0102  0  0
  -27.9985  -12.3963   18.6038 C   0  0  0  0  0  0  0  0  0103  0  0
  -27.6639  -13.2170   19.8820 C   0  0  2  0  0  0  0  0  0104  0  0
  -28.6795  -12.9602   21.0279 C   0  0  0  0  0  0  0  0  0105  0  0
  -25.2633  -13.8245   20.5754 C   0  0  0  0  0  0  0  0  0106  0  0
  -24.1645  -13.0409   20.9408 C   0  0  0  0  0  0  0  0  0107  0  0
  -24.6400  -11.7009   20.8697 C   0  0  0  0  0  0  0  0  0108  0  0
  -23.9005  -10.4085   21.0420 C   0  0  0  0  0  0  0  0  0109  0  0
  -24.3588   -9.4123   21.9123 C   0  0  0  0  0  0  0  0  0110  0  0
  -23.6296   -8.2350   22.0803 C   0  0  0  0  0  0  0  0  0111  0  0
  -22.4385   -8.0419   21.3657 C   0  0  0  0  0  0  0  0  0112  0  0
  -22.0103   -9.0167   20.4678 C   0  0  0  0  0  0  0  0  0113  0  0
  -22.7317  -10.1925   20.3102 C   0  0  0  0  0  0  0  0  0114  0  0
  -21.6857   -6.0709   22.5391 C   0  0  0  0  0  0  0  0  0115  0  0
  -21.4064   -6.5490   23.8264 C   0  0  0  0  0  0  0  0  0116  0  0
  -21.3635   -5.6677   24.9085 C   0  0  0  0  0  0  0  0  0117  0  0
  -21.5973   -4.3067   24.7088 C   0  0  0  0  0  0  0  0  0118  0  0
  -21.8700   -3.8284   23.4282 C   0  0  0  0  0  0  0  0  0119  0  0
  -21.9144   -4.7056   22.3460 C   0  0  0  0  0  0  0  0  0120  0  0
  -22.8194  -13.5263   21.1763 C   0  0  0  0  0  0  0  0  0121  0  0
  -22.1559   -4.2206   21.1063 F   0  0  0  0  0  0  0  0  0122  0  0
  -21.5628   -3.4510   25.7555 F   0  0  0  0  0  0  0  0  0123  0  0
  -30.0261  -13.1803   20.4553 N   0  0  0  0  0  0  0  0  0124  0  0
  -26.2911  -12.9356   20.3443 N   0  0  0  0  0  0  0  0  0125  0  0
  -25.9236  -11.6675   20.5847 N   0  0  0  0  0  0  0  0  0126  0  0
  -22.0708  -12.7905   22.0005 N   0  0  0  0  0  0  0  0  0127  0  0
  -25.4117  -15.1773   20.4097 N   0  0  0  0  0  0  0  0  0128  0  0
  -31.7916  -14.6724   20.0536 O   0  0  0  0  0  0  0  0  0129  0  0
  -21.6670   -6.9022   21.4423 O   0  0  0  0  0  0  0  0  0130  0  0
  -22.3946  -14.5564   20.6568 O   0  0  0  0  0  0  0  0  0131  0  0
  -24.6048  -31.8614   23.2223 C   0  0  0  0  0  0  0  0  0100  0  0
  -25.8822  -32.4841   23.8616 C   0  0  1  0  0  0  0  0  0101  0  0
  -27.2536  -27.5042   20.1156 C   0  0  0  0  0  0  0  0  0102  0  0
  -25.5726  -33.8762   24.2210 N   0  0  0  0  0  0  0  0  0103  0  0
  -23.4066  -30.4859   21.5461 C   0  0  2  0  0  0  0  0  0104  0  0
  -24.8467  -28.9636   20.1247 C   0  0  0  0  0  0  0  0  0105  0  0
  -22.7412  -29.4652   22.5052 C   0  0  0  0  0  0  0  0  0106  0  0
  -18.0167  -28.1302   22.8626 C   0  0  0  0  0  0  0  0  0107  0  0
  -24.1342  -36.7390   23.2568 C   0  0  0  0  0  0  0  0  0108  0  0
  -25.9141  -30.8882   21.3456 C   0  0  0  0  0  0  0  0  0109  0  0
  -25.9930  -29.5029   20.7208 C   0  0  0  0  0  0  0  0  0110  0  0
  -27.1758  -28.7612   20.7331 C   0  0  0  0  0  0  0  0  0111  0  0
  -26.1032  -26.9836   19.5230 C   0  0  0  0  0  0  0  0  0112  0  0
  -24.9097  -27.7011   19.5331 C   0  0  0  0  0  0  0  0  0113  0  0
  -23.5715  -29.7899   20.1582 C   0  0  0  0  0  0  0  0  0114  0  0
  -25.3990  -36.3212   24.0232 C   0  0  1  0  0  0  0  0  0115  0  0
  -20.5793  -28.3813   23.1004 C   0  0  2  0  0  0  0  0  0116  0  0
  -20.6548  -26.9392   22.5411 C   0  0  0  0  0  0  0  0  0117  0  0
  -19.5615  -26.6407   21.5143 C   0  0  0  0  0  0  0  0  0118  0  0
  -18.1797  -26.7818   22.1673 C   0  0  0  0  0  0  0  0  0119  0  0
  -19.1385  -28.8769   23.2988 C   0  0  0  0  0  0  0  0  0120  0  0
  -18.9183  -30.1286   23.8878 C   0  0  0  0  0  0  0  0  0121  0  0
  -17.6396  -30.6493   24.0352 C   0  0  0  0  0  0  0  0  0122  0  0
  -25.9153  -34.9582   23.4993 C   0  0  0  0  0  0  0  0  0123  0  0
  -16.5415  -29.9068   23.6254 C   0  0  0  0  0  0  0  0  0124  0  0
  -16.7331  -28.6521   23.0586 C   0  0  0  0  0  0  0  0  0125  0  0
  -26.4583  -31.6439   25.0683 C   0  0  0  0  0  0  0  0  0126  0  0
  -25.3807  -31.3179   26.1374 C   0  0  0  0  0  0  0  0  0127  0  0
  -27.0530  -30.3024   24.5680 C   0  0  0  0  0  0  0  0  0128  0  0
  -27.6014  -32.4281   25.7651 C   0  0  0  0  0  0  0  0  0129  0  0
  -27.5629  -37.2220   24.8621 C   0  0  0  0  0  0  0  0  0130  0  0
  -21.4133  -29.3375   22.3735 N   0  0  0  0  0  0  0  0  0131  0  0
  -26.4706  -37.3372   23.9061 N   0  0  0  0  0  0  0  0  0132  0  0
  -24.6674  -31.0544   22.1178 N   0  0  0  0  0  0  0  0  0133  0  0
  -23.4259  -28.8150   23.2971 O   0  0  0  0  0  0  0  0  0134  0  0
  -28.3948  -26.7345   20.0089 O   0  0  0  0  0  0  0  0  0135  0  0
  -26.5870  -34.9065   22.4671 O   0  0  0  0  0  0  0  0  0136  0  0
  -23.5365  -32.1254   23.7833 O   0  0  0  0  0  0  0  0  0137  0  0
  -29.1062  -20.8149   17.1960 C   0  0  0  0  0  0  0  0  0  0  0  0
  -28.2998  -20.8588   16.0588 C   0  0  0  0  0  0  0  0  0  0  0  0
  -30.2072  -21.6646   17.3037 C   0  0  0  0  0  0  0  0  0  0  0  0
  -28.5944  -21.7524   15.0291 C   0  0  0  0  0  0  0  0  0  0  0  0
  -29.6953  -22.6022   15.1366 C   0  0  0  0  0  0  0  0  0  0  0  0
  -30.5017  -22.5582   16.2739 C   0  0  0  0  0  0  0  0  0  0  0  0
  -27.7254  -21.7966   13.8118 C   0  0  0  0  0  0  0  0  0  0  0  0
  -30.6497  -22.8613   12.8326 C   0  0  0  0  0  0  0  0  0  0  0  0
  -27.1147  -19.9285   15.9674 C   0  0  0  0  0  0  0  0  0  0  0  0
  -31.0430  -21.5822   18.5407 C   0  0  0  0  0  0  0  0  0  0  0  0
  -29.9945  -23.5553   14.0209 C   0  0  0  0  0  0  0  0  0  0  0  0
  -30.7586  -22.6887   19.5732 C   0  0  0  0  0  0  0  0  0  0  0  0
  -29.3098  -22.7451   20.0528 C   0  0  0  0  0  0  0  0  0  0  0  0
  -26.1455  -20.1081   17.1308 C   0  0  0  0  0  0  0  0  0  1  0  0
  -28.8770  -21.5026   20.6525 N   0  0  0  0  0  0  0  0  0  0  0  0
  -31.8704  -23.6114   16.4107 Cl  0  0  0  0  0  0  0  0  0  0  0  0
  -31.4485  -12.4701   19.0860 H   0  0  0  0  0  0  0  0  0  0  0  0
  -30.3970  -11.2460   19.6950 H   0  0  0  0  0  0  0  0  0  0  0  0
  -29.6870  -11.8204   17.4226 H   0  0  0  0  0  0  0  0  0  0  0  0
  -29.6375  -13.5326   17.8649 H   0  0  0  0  0  0  0  0  0  0  0  0
  -27.7830  -11.3650   18.7904 H   0  0  0  0  0  0  0  0  0  0  0  0
  -27.4028  -12.7801   17.8021 H   0  0  0  0  0  0  0  0  0  0  0  0
  -27.7353  -14.2503   19.6136 H   0  0  0  0  0  0  0  0  0  0  0  0
  -28.5890  -11.9550   21.3832 H   0  0  0  0  0  0  0  0  0  0  0  0
  -28.5005  -13.6134   21.8562 H   0  0  0  0  0  0  0  0  0  0  0  0
  -25.2399   -9.5495   22.4318 H   0  0  0  0  0  0  0  0  0  0  0  0
  -23.9663   -7.5070   22.7297 H   0  0  0  0  0  0  0  0  0  0  0  0
  -21.1515   -8.8641   19.9162 H   0  0  0  0  0  0  0  0  0  0  0  0
  -22.4016  -10.9115   19.6476 H   0  0  0  0  0  0  0  0  0  0  0  0
  -21.2319   -7.5552   23.9750 H   0  0  0  0  0  0  0  0  0  0  0  0
  -21.1589   -6.0228   25.8556 H   0  0  0  0  0  0  0  0  0  0  0  0
  -22.0396   -2.8212   23.2809 H   0  0  0  0  0  0  0  0  0  0  0  0
  -22.4401  -11.9703   22.4008 H   0  0  0  0  0  0  0  0  0  0  0  0
  -21.1493  -13.0679   22.2082 H   0  0  0  0  0  0  0  0  0  0  0  0
  -24.6538  -15.7807   20.5848 H   0  0  0  0  0  0  0  0  0  0  0  0
  -26.2762  -15.5453   20.1156 H   0  0  0  0  0  0  0  0  0  0  0  0
  -26.6778  -32.4663   23.1464 H   0  0  0  0  0  0  0  0  0  0  0  0
  -25.0747  -34.0282   25.0566 H   0  0  0  0  0  0  0  0  0  0  0  0
  -22.7881  -31.3489   21.4131 H   0  0  0  0  0  0  0  0  0  0  0  0
  -23.3854  -35.9823   23.3648 H   0  0  0  0  0  0  0  0  0  0  0  0
  -24.3696  -36.8624   22.2204 H   0  0  0  0  0  0  0  0  0  0  0  0
  -23.7669  -37.6632   23.6516 H   0  0  0  0  0  0  0  0  0  0  0  0
  -25.9445  -31.6237   20.5691 H   0  0  0  0  0  0  0  0  0  0  0  0
  -26.7436  -31.0079   22.0108 H   0  0  0  0  0  0  0  0  0  0  0  0
  -28.0090  -29.1452   21.2057 H   0  0  0  0  0  0  0  0  0  0  0  0
  -26.1369  -26.0560   19.0719 H   0  0  0  0  0  0  0  0  0  0  0  0
  -24.0652  -27.2961   19.0997 H   0  0  0  0  0  0  0  0  0  0  0  0
  -23.6156  -30.5365   19.3930 H   0  0  0  0  0  0  0  0  0  0  0  0
  -22.7355  -29.1425   19.9945 H   0  0  0  0  0  0  0  0  0  0  0  0
  -25.1353  -36.2335   25.0565 H   0  0  0  0  0  0  0  0  0  0  0  0
  -21.0070  -28.3206   24.0793 H   0  0  0  0  0  0  0  0  0  0  0  0
  -20.5555  -26.2518   23.3550 H   0  0  0  0  0  0  0  0  0  0  0  0
  -21.5974  -26.8362   22.0454 H   0  0  0  0  0  0  0  0  0  0  0  0
  -19.6810  -25.6422   21.1488 H   0  0  0  0  0  0  0  0  0  0  0  0
  -19.6406  -27.3343   20.7034 H   0  0  0  0  0  0  0  0  0  0  0  0
  -17.4282  -26.6888   21.4113 H   0  0  0  0  0  0  0  0  0  0  0  0
  -18.0803  -26.0130   22.9049 H   0  0  0  0  0  0  0  0  0  0  0  0
  -19.7265  -30.6774   24.2204 H   0  0  0  0  0  0  0  0  0  0  0  0
  -17.5064  -31.5856   24.4483 H   0  0  0  0  0  0  0  0  0  0  0  0
  -15.5878  -30.2839   23.7407 H   0  0  0  0  0  0  0  0  0  0  0  0
  -15.9120  -28.0941   22.7766 H   0  0  0  0  0  0  0  0  0  0  0  0
  -24.5787  -30.7757   25.6817 H   0  0  0  0  0  0  0  0  0  0  0  0
  -25.0041  -32.2289   26.5536 H   0  0  0  0  0  0  0  0  0  0  0  0
  -25.8166  -30.7245   26.9138 H   0  0  0  0  0  0  0  0  0  0  0  0
  -26.2892  -29.7335   24.0803 H   0  0  0  0  0  0  0  0  0  0  0  0
  -27.4336  -29.7484   25.4006 H   0  0  0  0  0  0  0  0  0  0  0  0
  -27.8466  -30.4994   23.8779 H   0  0  0  0  0  0  0  0  0  0  0  0
  -27.2251  -33.3632   26.1242 H   0  0  0  0  0  0  0  0  0  0  0  0
  -28.3902  -32.6065   25.0645 H   0  0  0  0  0  0  0  0  0  0  0  0
  -27.9772  -31.8555   26.5872 H   0  0  0  0  0  0  0  0  0  0  0  0
  -28.2744  -38.0016   24.6863 H   0  0  0  0  0  0  0  0  0  0  0  0
  -28.0396  -36.2711   24.7461 H   0  0  0  0  0  0  0  0  0  0  0  0
  -27.1773  -37.3087   25.8564 H   0  0  0  0  0  0  0  0  0  0  0  0
  -20.9627  -29.9365   21.7352 H   0  0  0  0  0  0  0  0  0  0  0  0
  -26.0447  -38.2561   24.0273 H   0  0  0  0  0  0  0  0  0  0  0  0
  -28.8883  -20.1537   17.9578 H   0  0  0  0  0  0  0  0  0  0  0  0
  -26.9380  -21.0787   13.9094 H   0  0  0  0  0  0  0  0  0  0  0  0
  -28.3117  -21.5676   12.9465 H   0  0  0  0  0  0  0  0  0  0  0  0
  -27.3051  -22.7752   13.7090 H   0  0  0  0  0  0  0  0  0  0  0  0
  -30.8441  -23.5790   12.0632 H   0  0  0  0  0  0  0  0  0  0  0  0
  -29.9945  -22.1037   12.4563 H   0  0  0  0  0  0  0  0  0  0  0  0
  -31.5705  -22.4140   13.1441 H   0  0  0  0  0  0  0  0  0  0  0  0
  -27.4692  -18.9189   15.9678 H   0  0  0  0  0  0  0  0  0  0  0  0
  -26.5879  -20.1579   15.0647 H   0  0  0  0  0  0  0  0  0  0  0  0
  -32.0720  -21.6474   18.2547 H   0  0  0  0  0  0  0  0  0  0  0  0
  -30.8003  -20.6532   19.0128 H   0  0  0  0  0  0  0  0  0  0  0  0
  -30.6552  -24.3147   14.3839 H   0  0  0  0  0  0  0  0  0  0  0  0
  -29.0675  -23.9732   13.6877 H   0  0  0  0  0  0  0  0  0  0  0  0
  -31.0013  -23.6315   19.1291 H   0  0  0  0  0  0  0  0  0  0  0  0
  -31.3567  -22.4666   20.4322 H   0  0  0  0  0  0  0  0  0  0  0  0
  -28.6792  -22.9601   19.2156 H   0  0  0  0  0  0  0  0  0  0  0  0
  -29.2440  -23.5076   20.8005 H   0  0  0  0  0  0  0  0  0  0  0  0
  -26.2450  -19.3187   17.8462 H   0  0  0  0  0  0  0  0  0  0  0  0
  -25.1150  -20.0878   16.8435 H   0  0  0  0  0  0  0  0  0  0  0  0
  -28.0967  -21.6537   21.2335 H   0  0  0  0  0  0  0  0  0  0  0  0
  1 25  1  0
  1 30  2  0
  1 85  1  0
  2  3  1  0
  2 25  1  0
  2 87  1  0
  2 88  1  0
  3  4  1  0
  3 89  1  0
  3 90  1  0
  4  5  1  0
  4 91  1  0
  4 92  1  0
  5  6  1  0
  5 26  1  0
  5 93  1  6
  6 25  1  0
  6 94  1  0
  6 95  1  0
  7  8  2  0
  7 26  1  0
  7 29  1  0
  8  9  1  0
  8 22  1  0
  9 10  1  0
  9 27  2  0
 10 11  2  0
 10 15  1  0
 11 12  1  0
 11 96  1  0
 12 13  2  0
 12 97  1  0
 13 14  1  0
 13 31  1  0
 14 15  2  0
 14 98  1  0
 15 99  1  0
 16 17  2  0
 16 21  1  0
 16 31  1  0
 17 18  1  0
 17100  1  0
 18 19  2  0
 18101  1  0
 19 20  1  0
 19 24  1  0
 20 21  2  0
 20102  1  0
 21 23  1  0
 22 28  1  0
 22 32  2  0
 26 27  1  0
 28103  1  0
 28104  1  0
 29105  1  0
 29106  1  0
 33 34  1  0
 33 66  1  0
 33 70  2  0
 34 36  1  0
 34 59  1  0
 34107  1  6
 35 44  2  0
 35 45  1  0
 35 68  1  0
 36 56  1  0
 36108  1  0
 37 39  1  0
 37 47  1  0
 37 66  1  0
 37109  1  6
 38 43  2  0
 38 46  1  0
 38 47  1  0
 39 64  1  0
 39 67  2  0
 40 52  1  0
 40 53  2  0
 40 58  1  0
 41110  1  0
 41111  1  0
 41112  1  0
 42 43  1  0
 42 66  1  0
 42113  1  0
 42114  1  0
 43 44  1  0
 44115  1  0
 45 46  2  0
 45116  1  0
 46117  1  0
 47118  1  0
 47119  1  0
 48 41  1  0
 48 56  1  0
 48 65  1  0
 48120  1  1
 49 50  1  0
 49 53  1  0
 49 64  1  0
 49121  1  1
 50 51  1  0
 50122  1  0
 50123  1  0
 51 52  1  0
 51124  1  0
 51125  1  0
 52126  1  0
 52127  1  0
 53 54  1  0
 54 55  2  0
 54128  1  0
 55 57  1  0
 55129  1  0
 56 69  2  0
 57 58  2  0
 57130  1  0
 58131  1  0
 59 60  1  0
 59 61  1  0
 59 62  1  0
 60132  1  0
 60133  1  0
 60134  1  0
 61135  1  0
 61136  1  0
 61137  1  0
 62138  1  0
 62139  1  0
 62140  1  0
 63 65  1  0
 63141  1  0
 63142  1  0
 63143  1  0
 64144  1  0
 65145  1  0
 68 84  1  0
 71 72  2  0
 71 73  1  0
 71146  1  0
 72 74  1  0
 72 79  1  0
 73 76  2  0
 73 80  1  0
 74 75  2  0
 74 77  1  0
 75 76  1  0
 75 81  1  0
 76 86  1  0
 77147  1  0
 77148  1  0
 77149  1  0
 78 81  1  0
 78150  1  0
 78151  1  0
 78152  1  0
 79 84  1  0
 79153  1  0
 79154  1  0
 80 82  1  0
 80155  1  0
 80156  1  0
 81157  1  0
 81158  1  0
 82 83  1  0
 82159  1  0
 82160  1  0
 83 85  1  0
 83161  1  0
 83162  1  0
 84163  1  0
 84164  1  0
 85165  1  0
M  ISO  4   1 100  68 101  84 101  85 100
M  END
$$$$
85
     RDKit          3D

168177  0  0  0  0  0  0  0  0999 V2000
  -30.7652  -14.3608   20.6636 C   0  0  0  0  0  0  0  0  0100  0  0
  -30.4392  -12.2669   19.3775 C   0  0  0  0  0  0  0  0  0101  0  0
  -29.4791  -12.5281   18.1977 C   0  0  0  0  0  0  0  0  0102  0  0
  -27.9985  -12.3963   18.6038 C   0  0  0  0  0  0  0  0  0103  0  0
  -27.6639  -13.2170   19.8820 C   0  0  2  0  0  0  0  0  0104  0  0
  -28.6795  -12.9602   21.0279 C   0  0  0  0  0  0  0  0  0105  0  0
  -25.2633  -13.8245   20.5754 C   0  0  0  0  0  0  0  0  0106  0  0
  -24.1645  -13.0409   20.9408 C   0  0  0  0  0  0  0  0  0107  0  0
  -24.6400  -11.7009   20.8697 C   0  0  0  0  0  0  0  0  0108  0  0
  -23.9005  -10.4085   21.0420 C   0  0  0  0  0  0  0  0  0109  0  0
  -24.3588   -9.4123   21.9123 C   0  0  0  0  0  0  0  0  0110  0  0
  -23.6296   -8.2350   22.0803 C   0  0  0  0  0  0  0  0  0111  0  0
  -22.4385   -8.0419   21.3657 C   0  0  0  0  0  0  0  0  0112  0  0
  -22.0103   -9.0167   20.4678 C   0  0  0  0  0  0  0  0  0113  0  0
  -22.7317  -10.1925   20.3102 C   0  0  0  0  0  0  0  0  0114  0  0
  -21.6857   -6.0709   22.5391 C   0  0  0  0  0  0  0  0  0115  0  0
  -21.4064   -6.5490   23.8264 C   0  0  0  0  0  0  0  0  0116  0  0
  -21.3635   -5.6677   24.9085 C   0  0  0  0  0  0  0  0  0117  0  0
  -21.5973   -4.3067   24.7088 C   0  0  0  0  0  0  0  0  0118  0  0
  -21.8700   -3.8284   23.4282 C   0  0  0  0  0  0  0  0  0119  0  0
  -21.9144   -4.7056   22.3460 C   0  0  0  0  0  0  0  0  0120  0  0
  -22.8194  -13.5263   21.1763 C   0  0  0  0  0  0  0  0  0121  0  0
  -22.1559   -4.2206   21.1063 F   0  0  0  0  0  0  0  0  0122  0  0
  -21.5628   -3.4510   25.7555 F   0  0  0  0  0  0  0  0  0123  0  0
  -30.0261  -13.1803   20.4553 N   0  0  0  0  0  0  0  0  0124  0  0
  -26.2911  -12.9356   20.3443 N   0  0  0  0  0  0  0  0  0125  0  0
  -25.9236  -11.6675   20.5847 N   0  0  0  0  0  0  0  0  0126  0  0
  -22.0708  -12.7905   22.0005 N   0  0  0  0  0  0  0  0  0127  0  0
  -25.4117  -15.1773   20.4097 N   0  0  0  0  0  0  0  0  0128  0  0
  -31.7916  -14.6724   20.0536 O   0  0  0  0  0  0  0  0  0129  0  0
  -21.6670   -6.9022   21.4423 O   0  0  0  0  0  0  0  0  0130  0  0
  -22.3946  -14.5564   20.6568 O   0  0  0  0  0  0  0  0  0131  0  0
  -24.6048  -31.8614   23.2223 C   0  0  0  0  0  0  0  0  0100  0  0
  -25.8822  -32.4841   23.8616 C   0  0  1  0  0  0  0  0  0101  0  0
  -27.2536  -27.5042   20.1156 C   0  0  0  0  0  0  0  0  0102  0  0
  -25.5726  -33.8762   24.2210 N   0  0  0  0  0  0  0  0  0103  0  0
  -23.4066  -30.4859   21.5461 C   0  0  2  0  0  0  0  0  0104  0  0
  -24.8467  -28.9636   20.1247 C   0  0  0  0  0  0  0  0  0105  0  0
  -22.7412  -29.4652   22.5052 C   0  0  0  0  0  0  0  0  0106  0  0
  -18.0167  -28.1302   22.8626 C   0  0  0  0  0  0  0  0  0107  0  0
  -24.1342  -36.7390   23.2568 C   0  0  0  0  0  0  0  0  0108  0  0
  -25.9141  -30.8882   21.3456 C   0  0  0  0  0  0  0  0  0109  0  0
  -25.9930  -29.5029   20.7208 C   0  0  0  0  0  0  0  0  0110  0  0
  -27.1758  -28.7612   20.7331 C   0  0  0  0  0  0  0  0  0111  0  0
  -26.1032  -26.9836   19.5230 C   0  0  0  0  0  0  0  0  0112  0  0
  -24.9097  -27.7011   19.5331 C   0  0  0  0  0  0  0  0  0113  0  0
  -23.5715  -29.7899   20.1582 C   0  0  0  0  0  0  0  0  0114  0  0
  -25.3990  -36.3212   24.0232 C   0  0  1  0  0  0  0  0  0115  0  0
  -20.5793  -28.3813   23.1004 C   0  0  2  0  0  0  0  0  0116  0  0
  -20.6548  -26.9392   22.5411 C   0  0  0  0  0  0  0  0  0117  0  0
  -19.5615  -26.6407   21.5143 C   0  0  0  0  0  0  0  0  0118  0  0
  -18.1797  -26.7818   22.1673 C   0  0  0  0  0  0  0  0  0119  0  0
  -19.1385  -28.8769   23.2988 C   0  0  0  0  0  0  0  0  0120  0  0
  -18.9183  -30.1286   23.8878 C   0  0  0  0  0  0  0  0  0121  0  0
  -17.6396  -30.6493   24.0352 C   0  0  0  0  0  0  0  0  0122  0  0
  -25.9153  -34.9582   23.4993 C   0  0  0  0  0  0  0  0  0123  0  0
  -16.5415  -29.9068   23.6254 C   0  0  0  0  0  0  0  0  0124  0  0
  -16.7331  -28.6521   23.0586 C   0  0  0  0  0  0  0  0  0125  0  0
  -26.4583  -31.6439   25.0683 C   0  0  0  0  0  0  0  0  0126  0  0
  -25.3807  -31.3179   26.1374 C   0  0  0  0  0  0  0  0  0127  0  0
  -27.0530  -30.3024   24.5680 C   0  0  0  0  0  0  0  0  0128  0  0
  -27.6014  -32.4281   25.7651 C   0  0  0  0  0  0  0  0  0129  0  0
  -27.5629  -37.2220   24.8621 C   0  0  0  0  0  0  0  0  0130  0  0
  -21.4133  -29.3375   22.3735 N   0  0  0  0  0  0  0  0  0131  0  0
  -26.4706  -37.3372   23.9061 N   0  0  0  0  0  0  0  0  0132  0  0
  -24.6674  -31.0544   22.1178 N   0  0  0  0  0  0  0  0  0133  0  0
  -23.4259  -28.8150   23.2971 O   0  0  0  0  0  0  0  0  0134  0  0
  -28.3948  -26.7345   20.0089 O   0  0  0  0  0  0  0  0  0135  0  0
  -26.5870  -34.9065   22.4671 O   0  0  0  0  0  0  0  0  0136  0  0
  -23.5365  -32.1254   23.7833 O   0  0  0  0  0  0  0  0  0137  0  0
  -20.2317  -24.6018   22.2632 C   0  0  0  0  0  0  0  0  0  0  0  0
  -19.2749  -25.6219   22.1890 C   0  0  0  0  0  0  0  0  0  0  0  0
  -17.9302  -25.3431   22.3979 C   0  0  0  0  0  0  0  0  0  0  0  0
  -19.7759  -23.3116   22.5534 C   0  0  0  0  0  0  0  0  0  0  0  0
  -17.5807  -24.0369   22.6792 C   0  0  0  0  0  0  0  0  0  0  0  0
  -20.7302  -22.1592   22.7248 C   0  0  0  0  0  0  0  0  0  0  0  0
  -22.6189  -23.7906   22.5131 C   0  0  0  0  0  0  0  0  0  0  0  0
  -21.6908  -24.9090   22.0071 C   0  0  1  0  0  0  0  0  0  0  0  0
  -22.1114  -22.4026   22.1048 C   0  0  1  0  0  0  0  0  0  0  0  0
  -16.1569  -23.6505   22.9179 C   0  0  0  0  0  0  0  0  0  0  0  0
  -21.9284  -25.1922   20.5182 C   0  0  0  0  0  0  0  0  0  0  0  0
  -19.6944  -27.0362   21.9173 C   0  0  0  0  0  0  0  0  0  0  0  0
  -23.0936  -21.3151   22.5370 C   0  0  0  0  0  0  0  0  0  1  0  0
  -19.7520  -27.9273   23.1694 C   0  0  0  0  0  0  0  0  0  0  0  0
  -20.2321  -29.3533   22.9081 C   0  0  0  0  0  0  0  0  0  0  0  0
  -18.4663  -23.0211   22.7662 N   0  0  0  0  0  0  0  0  0  0  0  0
  -21.5802  -29.3962   22.3869 N   0  0  0  0  0  0  0  0  0  0  0  0
  -16.7324  -26.5841   22.3142 Cl  0  0  0  0  0  0  0  0  0  0  0  0
  -31.4485  -12.4701   19.0860 H   0  0  0  0  0  0  0  0  0  0  0  0
  -30.3970  -11.2460   19.6950 H   0  0  0  0  0  0  0  0  0  0  0  0
  -29.6870  -11.8204   17.4226 H   0  0  0  0  0  0  0  0  0  0  0  0
  -29.6375  -13.5326   17.8649 H   0  0  0  0  0  0  0  0  0  0  0  0
  -27.7830  -11.3650   18.7904 H   0  0  0  0  0  0  0  0  0  0  0  0
  -27.4028  -12.7801   17.8021 H   0  0  0  0  0  0  0  0  0  0  0  0
  -27.7353  -14.2503   19.6136 H   0  0  0  0  0  0  0  0  0  0  0  0
  -28.5890  -11.9550   21.3832 H   0  0  0  0  0  0  0  0  0  0  0  0
  -28.5005  -13.6134   21.8562 H   0  0  0  0  0  0  0  0  0  0  0  0
  -25.2399   -9.5495   22.4318 H   0  0  0  0  0  0  0  0  0  0  0  0
  -23.9663   -7.5070   22.7297 H   0  0  0  0  0  0  0  0  0  0  0  0
  -21.1515   -8.8641   19.9162 H   0  0  0  0  0  0  0  0  0  0  0  0
  -22.4016  -10.9115   19.6476 H   0  0  0  0  0  0  0  0  0  0  0  0
  -21.2319   -7.5552   23.9750 H   0  0  0  0  0  0  0  0  0  0  0  0
  -21.1589   -6.0228   25.8556 H   0  0  0  0  0  0  0  0  0  0  0  0
  -22.0396   -2.8212   23.2809 H   0  0  0  0  0  0  0  0  0  0  0  0
  -22.4401  -11.9703   22.4008 H   0  0  0  0  0  0  0  0  0  0  0  0
  -21.1493  -13.0679   22.2082 H   0  0  0  0  0  0  0  0  0  0  0  0
  -24.6538  -15.7807   20.5848 H   0  0  0  0  0  0  0  0  0  0  0  0
  -26.2762  -15.5453   20.1156 H   0  0  0  0  0  0  0  0  0  0  0  0
  -26.6778  -32.4663   23.1464 H   0  0  0  0  0  0  0  0  0  0  0  0
  -25.0747  -34.0282   25.0566 H   0  0  0  0  0  0  0  0  0  0  0  0
  -22.7881  -31.3489   21.4131 H   0  0  0  0  0  0  0  0  0  0  0  0
  -23.3854  -35.9823   23.3648 H   0  0  0  0  0  0  0  0  0  0  0  0
  -24.3696  -36.8624   22.2204 H   0  0  0  0  0  0  0  0  0  0  0  0
  -23.7669  -37.6632   23.6516 H   0  0  0  0  0  0  0  0  0  0  0  0
  -25.9445  -31.6237   20.5691 H   0  0  0  0  0  0  0  0  0  0  0  0
  -26.7436  -31.0079   22.0108 H   0  0  0  0  0  0  0  0  0  0  0  0
  -28.0090  -29.1452   21.2057 H   0  0  0  0  0  0  0  0  0  0  0  0
  -26.1369  -26.0560   19.0719 H   0  0  0  0  0  0  0  0  0  0  0  0
  -24.0652  -27.2961   19.0997 H   0  0  0  0  0  0  0  0  0  0  0  0
  -23.6156  -30.5365   19.3930 H   0  0  0  0  0  0  0  0  0  0  0  0
  -22.7355  -29.1425   19.9945 H   0  0  0  0  0  0  0  0  0  0  0  0
  -25.1353  -36.2335   25.0565 H   0  0  0  0  0  0  0  0  0  0  0  0
  -21.0070  -28.3206   24.0793 H   0  0  0  0  0  0  0  0  0  0  0  0
  -20.5555  -26.2518   23.3550 H   0  0  0  0  0  0  0  0  0  0  0  0
  -21.5974  -26.8362   22.0454 H   0  0  0  0  0  0  0  0  0  0  0  0
  -19.6810  -25.6422   21.1488 H   0  0  0  0  0  0  0  0  0  0  0  0
  -19.6406  -27.3343   20.7034 H   0  0  0  0  0  0  0  0  0  0  0  0
  -17.4282  -26.6888   21.4113 H   0  0  0  0  0  0  0  0  0  0  0  0
  -18.0803  -26.0130   22.9049 H   0  0  0  0  0  0  0  0  0  0  0  0
  -19.7265  -30.6774   24.2204 H   0  0  0  0  0  0  0  0  0  0  0  0
  -17.5064  -31.5856   24.4483 H   0  0  0  0  0  0  0  0  0  0  0  0
  -15.5878  -30.2839   23.7407 H   0  0  0  0  0  0  0  0  0  0  0  0
  -15.9120  -28.0941   22.7766 H   0  0  0  0  0  0  0  0  0  0  0  0
  -24.5787  -30.7757   25.6817 H   0  0  0  0  0  0  0  0  0  0  0  0
  -25.0041  -32.2289   26.5536 H   0  0  0  0  0  0  0  0  0  0  0  0
  -25.8166  -30.7245   26.9138 H   0  0  0  0  0  0  0  0  0  0  0  0
  -26.2892  -29.7335   24.0803 H   0  0  0  0  0  0  0  0  0  0  0  0
  -27.4336  -29.7484   25.4006 H   0  0  0  0  0  0  0  0  0  0  0  0
  -27.8466  -30.4994   23.8779 H   0  0  0  0  0  0  0  0  0  0  0  0
  -27.2251  -33.3632   26.1242 H   0  0  0  0  0  0  0  0  0  0  0  0
  -28.3902  -32.6065   25.0645 H   0  0  0  0  0  0  0  0  0  0  0  0
  -27.9772  -31.8555   26.5872 H   0  0  0  0  0  0  0  0  0  0  0  0
  -28.2744  -38.0016   24.6863 H   0  0  0  0  0  0  0  0  0  0  0  0
  -28.0396  -36.2711   24.7461 H   0  0  0  0  0  0  0  0  0  0  0  0
  -27.1773  -37.3087   25.8564 H   0  0  0  0  0  0  0  0  0  0  0  0
  -20.9627  -29.9365   21.7352 H   0  0  0  0  0  0  0  0  0  0  0  0
  -26.0447  -38.2561   24.0273 H   0  0  0  0  0  0  0  0  0  0  0  0
  -20.3010  -21.2943   22.2637 H   0  0  0  0  0  0  0  0  0  0  0  0
  -20.8787  -22.0311   23.7767 H   0  0  0  0  0  0  0  0  0  0  0  0
  -22.6712  -23.8402   23.5807 H   0  0  0  0  0  0  0  0  0  0  0  0
  -23.5840  -23.9347   22.0741 H   0  0  0  0  0  0  0  0  0  0  0  0
  -21.9346  -25.7889   22.5650 H   0  0  0  0  0  0  0  0  0  0  0  0
  -22.0296  -22.3638   21.0386 H   0  0  0  0  0  0  0  0  0  0  0  0
  -15.5329  -24.5151   22.8287 H   0  0  0  0  0  0  0  0  0  0  0  0
  -16.0588  -23.2398   23.9011 H   0  0  0  0  0  0  0  0  0  0  0  0
  -15.8596  -22.9199   22.1949 H   0  0  0  0  0  0  0  0  0  0  0  0
  -21.6886  -24.3201   19.9466 H   0  0  0  0  0  0  0  0  0  0  0  0
  -22.9556  -25.4488   20.3634 H   0  0  0  0  0  0  0  0  0  0  0  0
  -21.3068  -26.0053   20.2062 H   0  0  0  0  0  0  0  0  0  0  0  0
  -18.9965  -27.4673   21.2303 H   0  0  0  0  0  0  0  0  0  0  0  0
  -20.6888  -26.9923   21.5246 H   0  0  0  0  0  0  0  0  0  0  0  0
  -23.0558  -20.4025   21.9796 H   0  0  0  0  0  0  0  0  0  0  0  0
  -23.1064  -20.8525   23.5018 H   0  0  0  0  0  0  0  0  0  0  0  0
  -20.4186  -27.4735   23.8726 H   0  0  0  0  0  0  0  0  0  0  0  0
  -18.7494  -28.0051   23.5349 H   0  0  0  0  0  0  0  0  0  0  0  0
  -20.2020  -29.8995   23.8277 H   0  0  0  0  0  0  0  0  0  0  0  0
  -19.5852  -29.7850   22.1732 H   0  0  0  0  0  0  0  0  0  0  0  0
  -21.9847  -30.2561   22.1295 H   0  0  0  0  0  0  0  0  0  0  0  0
  1 25  1  0
  1 30  2  0
  1 87  1  0
  2  3  1  0
  2 25  1  0
  2 89  1  0
  2 90  1  0
  3  4  1  0
  3 91  1  0
  3 92  1  0
  4  5  1  0
  4 93  1  0
  4 94  1  0
  5  6  1  0
  5 26  1  0
  5 95  1  6
  6 25  1  0
  6 96  1  0
  6 97  1  0
  7  8  2  0
  7 26  1  0
  7 29  1  0
  8  9  1  0
  8 22  1  0
  9 10  1  0
  9 27  2  0
 10 11  2  0
 10 15  1  0
 11 12  1  0
 11 98  1  0
 12 13  2  0
 12 99  1  0
 13 14  1  0
 13 31  1  0
 14 15  2  0
 14100  1  0
 15101  1  0
 16 17  2  0
 16 21  1  0
 16 31  1  0
 17 18  1  0
 17102  1  0
 18 19  2  0
 18103  1  0
 19 20  1  0
 19 24  1  0
 20 21  2  0
 20104  1  0
 21 23  1  0
 22 28  1  0
 22 32  2  0
 26 27  1  0
 28105  1  0
 28106  1  0
 29107  1  0
 29108  1  0
 33 34  1  0
 33 66  1  0
 33 70  2  0
 34 36  1  0
 34 59  1  0
 34109  1  6
 35 44  2  0
 35 45  1  0
 35 68  1  0
 36 56  1  0
 36110  1  0
 37 39  1  0
 37 47  1  0
 37 66  1  0
 37111  1  6
 38 43  2  0
 38 46  1  0
 38 47  1  0
 39 64  1  0
 39 67  2  0
 40 52  1  0
 40 53  2  0
 40 58  1  0
 41112  1  0
 41113  1  0
 41114  1  0
 42 43  1  0
 42 66  1  0
 42115  1  0
 42116  1  0
 43 44  1  0
 44117  1  0
 45 46  2  0
 45118  1  0
 46119  1  0
 47120  1  0
 47121  1  0
 48 41  1  0
 48 56  1  0
 48 65  1  0
 48122  1  1
 49 50  1  0
 49 53  1  0
 49 64  1  0
 49123  1  1
 50 51  1  0
 50124  1  0
 50125  1  0
 51 52  1  0
 51126  1  0
 51127  1  0
 52128  1  0
 52129  1  0
 53 54  1  0
 54 55  2  0
 54130  1  0
 55 57  1  0
 55131  1  0
 56 69  2  0
 57 58  2  0
 57132  1  0
 58133  1  0
 59 60  1  0
 59 61  1  0
 59 62  1  0
 60134  1  0
 60135  1  0
 60136  1  0
 61137  1  0
 61138  1  0
 61139  1  0
 62140  1  0
 62141  1  0
 62142  1  0
 63 65  1  0
 63143  1  0
 63144  1  0
 63145  1  0
 64146  1  0
 65147  1  0
 68 83  1  0
 71 72  1  0
 71 74  2  0
 71 78  1  0
 72 73  2  0
 72 82  1  0
 73 75  1  0
 73 88  1  0
 74 76  1  0
 74 86  1  0
 75 80  1  0
 75 86  2  0
 76 79  1  0
 76148  1  0
 76149  1  0
 77 78  1  0
 77 79  1  0
 77150  1  0
 77151  1  0
 78 81  1  0
 78152  1  1
 79 83  1  0
 79153  1  6
 80154  1  0
 80155  1  0
 80156  1  0
 81157  1  0
 81158  1  0
 81159  1  0
 82 84  1  0
 82160  1  0
 82161  1  0
 83162  1  0
 83163  1  0
 84 85  1  0
 84164  1  0
 84165  1  0
 85 87  1  0
 85166  1  0
 85167  1  0
 87168  1  0
M  ISO  4   1 100  68 101  83 101  87 100
M  END
$$$$
86
     RDKit          3D

157165  0  0  0  0  0  0  0  0999 V2000
  -30.7652  -14.3608   20.6636 C   0  0  0  0  0  0  0  0  0100  0  0
  -30.4392  -12.2669   19.3775 C   0  0  0  0  0  0  0  0  0101  0  0
  -29.4791  -12.5281   18.1977 C   0  0  0  0  0  0  0  0  0102  0  0
  -27.9985  -12.3963   18.6038 C   0  0  0  0  0  0  0  0  0103  0  0
  -27.6639  -13.2170   19.8820 C   0  0  2  0  0  0  0  0  0104  0  0
  -28.6795  -12.9602   21.0279 C   0  0  0  0  0  0  0  0  0105  0  0
  -25.2633  -13.8245   20.5754 C   0  0  0  0  0  0  0  0  0106  0  0
  -24.1645  -13.0409   20.9408 C   0  0  0  0  0  0  0  0  0107  0  0
  -24.6400  -11.7009   20.8697 C   0  0  0  0  0  0  0  0  0108  0  0
  -23.9005  -10.4085   21.0420 C   0  0  0  0  0  0  0  0  0109  0  0
  -24.3588   -9.4123   21.9123 C   0  0  0  0  0  0  0  0  0110  0  0
  -23.6296   -8.2350   22.0803 C   0  0  0  0  0  0  0  0  0111  0  0
  -22.4385   -8.0419   21.3657 C   0  0  0  0  0  0  0  0  0112  0  0
  -22.0103   -9.0167   20.4678 C   0  0  0  0  0  0  0  0  0113  0  0
  -22.7317  -10.1925   20.3102 C   0  0  0  0  0  0  0  0  0114  0  0
  -21.6857   -6.0709   22.5391 C   0  0  0  0  0  0  0  0  0115  0  0
  -21.4064   -6.5490   23.8264 C   0  0  0  0  0  0  0  0  0116  0  0
  -21.3635   -5.6677   24.9085 C   0  0  0  0  0  0  0  0  0117  0  0
  -21.5973   -4.3067   24.7088 C   0  0  0  0  0  0  0  0  0118  0  0
  -21.8700   -3.8284   23.4282 C   0  0  0  0  0  0  0  0  0119  0  0
  -21.9144   -4.7056   22.3460 C   0  0  0  0  0  0  0  0  0120  0  0
  -22.8194  -13.5263   21.1763 C   0  0  0  0  0  0  0  0  0121  0  0
  -22.1559   -4.2206   21.1063 F   0  0  0  0  0  0  0  0  0122  0  0
  -21.5628   -3.4510   25.7555 F   0  0  0  0  0  0  0  0  0123  0  0
  -30.0261  -13.1803   20.4553 N   0  0  0  0  0  0  0  0  0124  0  0
  -26.2911  -12.9356   20.3443 N   0  0  0  0  0  0  0  0  0125  0  0
  -25.9236  -11.6675   20.5847 N   0  0  0  0  0  0  0  0  0126  0  0
  -22.0708  -12.7905   22.0005 N   0  0  0  0  0  0  0  0  0127  0  0
  -25.4117  -15.1773   20.4097 N   0  0  0  0  0  0  0  0  0128  0  0
  -31.7916  -14.6724   20.0536 O   0  0  0  0  0  0  0  0  0129  0  0
  -21.6670   -6.9022   21.4423 O   0  0  0  0  0  0  0  0  0130  0  0
  -22.3946  -14.5564   20.6568 O   0  0  0  0  0  0  0  0  0131  0  0
  -24.6048  -31.8614   23.2223 C   0  0  0  0  0  0  0  0  0100  0  0
  -25.8822  -32.4841   23.8616 C   0  0  1  0  0  0  0  0  0101  0  0
  -27.2536  -27.5042   20.1156 C   0  0  0  0  0  0  0  0  0102  0  0
  -25.5726  -33.8762   24.2210 N   0  0  0  0  0  0  0  0  0103  0  0
  -23.4066  -30.4859   21.5461 C   0  0  2  0  0  0  0  0  0104  0  0
  -24.8467  -28.9636   20.1247 C   0  0  0  0  0  0  0  0  0105  0  0
  -22.7412  -29.4652   22.5052 C   0  0  0  0  0  0  0  0  0106  0  0
  -18.0167  -28.1302   22.8626 C   0  0  0  0  0  0  0  0  0107  0  0
  -24.1342  -36.7390   23.2568 C   0  0  0  0  0  0  0  0  0108  0  0
  -25.9141  -30.8882   21.3456 C   0  0  0  0  0  0  0  0  0109  0  0
  -25.9930  -29.5029   20.7208 C   0  0  0  0  0  0  0  0  0110  0  0
  -27.1758  -28.7612   20.7331 C   0  0  0  0  0  0  0  0  0111  0  0
  -26.1032  -26.9836   19.5230 C   0  0  0  0  0  0  0  0  0112  0  0
  -24.9097  -27.7011   19.5331 C   0  0  0  0  0  0  0  0  0113  0  0
  -23.5715  -29.7899   20.1582 C   0  0  0  0  0  0  0  0  0114  0  0
  -25.3990  -36.3212   24.0232 C   0  0  1  0  0  0  0  0  0115  0  0
  -20.5793  -28.3813   23.1004 C   0  0  2  0  0  0  0  0  0116  0  0
  -20.6548  -26.9392   22.5411 C   0  0  0  0  0  0  0  0  0117  0  0
  -19.5615  -26.6407   21.5143 C   0  0  0  0  0  0  0  0  0118  0  0
  -18.1797  -26.7818   22.1673 C   0  0  0  0  0  0  0  0  0119  0  0
  -19.1385  -28.8769   23.2988 C   0  0  0  0  0  0  0  0  0120  0  0
  -18.9183  -30.1286   23.8878 C   0  0  0  0  0  0  0  0  0121  0  0
  -17.6396  -30.6493   24.0352 C   0  0  0  0  0  0  0  0  0122  0  0
  -25.9153  -34.9582   23.4993 C   0  0  0  0  0  0  0  0  0123  0  0
  -16.5415  -29.9068   23.6254 C   0  0  0  0  0  0  0  0  0124  0  0
  -16.7331  -28.6521   23.0586 C   0  0  0  0  0  0  0  0  0125  0  0
  -26.4583  -31.6439   25.0683 C   0  0  0  0  0  0  0  0  0126  0  0
  -25.3807  -31.3179   26.1374 C   0  0  0  0  0  0  0  0  0127  0  0
  -27.0530  -30.3024   24.5680 C   0  0  0  0  0  0  0  0  0128  0  0
  -27.6014  -32.4281   25.7651 C   0  0  0  0  0  0  0  0  0129  0  0
  -27.5629  -37.2220   24.8621 C   0  0  0  0  0  0  0  0  0130  0  0
  -21.4133  -29.3375   22.3735 N   0  0  0  0  0  0  0  0  0131  0  0
  -26.4706  -37.3372   23.9061 N   0  0  0  0  0  0  0  0  0132  0  0
  -24.6674  -31.0544   22.1178 N   0  0  0  0  0  0  0  0  0133  0  0
  -23.4259  -28.8150   23.2971 O   0  0  0  0  0  0  0  0  0134  0  0
  -28.3948  -26.7345   20.0089 O   0  0  0  0  0  0  0  0  0135  0  0
  -26.5870  -34.9065   22.4671 O   0  0  0  0  0  0  0  0  0136  0  0
  -23.5365  -32.1254   23.7833 O   0  0  0  0  0  0  0  0  0137  0  0
  -23.1319  -13.7385   22.4440 C   0  0  0  0  0  0  0  0  0  0  0  0
  -24.8665  -11.8179   21.4026 C   0  0  0  0  0  0  0  0  0  0  0  0
  -23.5833  -12.6952   23.2521 C   0  0  0  0  0  0  0  0  0  0  0  0
  -24.4150  -12.8613   20.5944 C   0  0  0  0  0  0  0  0  0  0  0  0
  -23.5476  -13.8216   21.1151 C   0  0  0  0  0  0  0  0  0  0  0  0
  -24.4507  -11.7348   22.7315 C   0  0  0  0  0  0  0  0  0  0  0  0
  -23.1135  -12.6407   24.6700 C   0  0  0  0  0  0  0  0  0  0  0  0
  -23.8752  -13.3065   18.1927 C   0  0  0  0  0  0  0  0  0  0  0  0
  -23.0746  -17.2473   20.0742 C   0  0  0  0  0  0  0  0  0  0  0  0
  -22.7783  -18.5821   20.7399 C   0  0  0  0  0  0  0  0  0  1  0  0
  -22.7956  -16.0749   21.0014 C   0  0  0  0  0  0  0  0  0  0  0  0
  -24.8530  -12.9328   19.2203 N   0  0  0  0  0  0  0  0  0  0  0  0
  -23.0912  -14.8537   20.3373 O   0  0  0  0  0  0  0  0  0  0  0  0
  -25.0288  -10.4293   23.7014 Cl  0  0  0  0  0  0  0  0  0  0  0  0
  -31.4485  -12.4701   19.0860 H   0  0  0  0  0  0  0  0  0  0  0  0
  -30.3970  -11.2460   19.6950 H   0  0  0  0  0  0  0  0  0  0  0  0
  -29.6870  -11.8204   17.4226 H   0  0  0  0  0  0  0  0  0  0  0  0
  -29.6375  -13.5326   17.8649 H   0  0  0  0  0  0  0  0  0  0  0  0
  -27.7830  -11.3650   18.7904 H   0  0  0  0  0  0  0  0  0  0  0  0
  -27.4028  -12.7801   17.8021 H   0  0  0  0  0  0  0  0  0  0  0  0
  -27.7353  -14.2503   19.6136 H   0  0  0  0  0  0  0  0  0  0  0  0
  -28.5890  -11.9550   21.3832 H   0  0  0  0  0  0  0  0  0  0  0  0
  -28.5005  -13.6134   21.8562 H   0  0  0  0  0  0  0  0  0  0  0  0
  -25.2399   -9.5495   22.4318 H   0  0  0  0  0  0  0  0  0  0  0  0
  -23.9663   -7.5070   22.7297 H   0  0  0  0  0  0  0  0  0  0  0  0
  -21.1515   -8.8641   19.9162 H   0  0  0  0  0  0  0  0  0  0  0  0
  -22.4016  -10.9115   19.6476 H   0  0  0  0  0  0  0  0  0  0  0  0
  -21.2319   -7.5552   23.9750 H   0  0  0  0  0  0  0  0  0  0  0  0
  -21.1589   -6.0228   25.8556 H   0  0  0  0  0  0  0  0  0  0  0  0
  -22.0396   -2.8212   23.2809 H   0  0  0  0  0  0  0  0  0  0  0  0
  -22.4401  -11.9703   22.4008 H   0  0  0  0  0  0  0  0  0  0  0  0
  -21.1493  -13.0679   22.2082 H   0  0  0  0  0  0  0  0  0  0  0  0
  -24.6538  -15.7807   20.5848 H   0  0  0  0  0  0  0  0  0  0  0  0
  -26.2762  -15.5453   20.1156 H   0  0  0  0  0  0  0  0  0  0  0  0
  -26.6778  -32.4663   23.1464 H   0  0  0  0  0  0  0  0  0  0  0  0
  -25.0747  -34.0282   25.0566 H   0  0  0  0  0  0  0  0  0  0  0  0
  -22.7881  -31.3489   21.4131 H   0  0  0  0  0  0  0  0  0  0  0  0
  -23.3854  -35.9823   23.3648 H   0  0  0  0  0  0  0  0  0  0  0  0
  -24.3696  -36.8624   22.2204 H   0  0  0  0  0  0  0  0  0  0  0  0
  -23.7669  -37.6632   23.6516 H   0  0  0  0  0  0  0  0  0  0  0  0
  -25.9445  -31.6237   20.5691 H   0  0  0  0  0  0  0  0  0  0  0  0
  -26.7436  -31.0079   22.0108 H   0  0  0  0  0  0  0  0  0  0  0  0
  -28.0090  -29.1452   21.2057 H   0  0  0  0  0  0  0  0  0  0  0  0
  -26.1369  -26.0560   19.0719 H   0  0  0  0  0  0  0  0  0  0  0  0
  -24.0652  -27.2961   19.0997 H   0  0  0  0  0  0  0  0  0  0  0  0
  -23.6156  -30.5365   19.3930 H   0  0  0  0  0  0  0  0  0  0  0  0
  -22.7355  -29.1425   19.9945 H   0  0  0  0  0  0  0  0  0  0  0  0
  -25.1353  -36.2335   25.0565 H   0  0  0  0  0  0  0  0  0  0  0  0
  -21.0070  -28.3206   24.0793 H   0  0  0  0  0  0  0  0  0  0  0  0
  -20.5555  -26.2518   23.3550 H   0  0  0  0  0  0  0  0  0  0  0  0
  -21.5974  -26.8362   22.0454 H   0  0  0  0  0  0  0  0  0  0  0  0
  -19.6810  -25.6422   21.1488 H   0  0  0  0  0  0  0  0  0  0  0  0
  -19.6406  -27.3343   20.7034 H   0  0  0  0  0  0  0  0  0  0  0  0
  -17.4282  -26.6888   21.4113 H   0  0  0  0  0  0  0  0  0  0  0  0
  -18.0803  -26.0130   22.9049 H   0  0  0  0  0  0  0  0  0  0  0  0
  -19.7265  -30.6774   24.2204 H   0  0  0  0  0  0  0  0  0  0  0  0
  -17.5064  -31.5856   24.4483 H   0  0  0  0  0  0  0  0  0  0  0  0
  -15.5878  -30.2839   23.7407 H   0  0  0  0  0  0  0  0  0  0  0  0
  -15.9120  -28.0941   22.7766 H   0  0  0  0  0  0  0  0  0  0  0  0
  -24.5787  -30.7757   25.6817 H   0  0  0  0  0  0  0  0  0  0  0  0
  -25.0041  -32.2289   26.5536 H   0  0  0  0  0  0  0  0  0  0  0  0
  -25.8166  -30.7245   26.9138 H   0  0  0  0  0  0  0  0  0  0  0  0
  -26.2892  -29.7335   24.0803 H   0  0  0  0  0  0  0  0  0  0  0  0
  -27.4336  -29.7484   25.4006 H   0  0  0  0  0  0  0  0  0  0  0  0
  -27.8466  -30.4994   23.8779 H   0  0  0  0  0  0  0  0  0  0  0  0
  -27.2251  -33.3632   26.1242 H   0  0  0  0  0  0  0  0  0  0  0  0
  -28.3902  -32.6065   25.0645 H   0  0  0  0  0  0  0  0  0  0  0  0
  -27.9772  -31.8555   26.5872 H   0  0  0  0  0  0  0  0  0  0  0  0
  -28.2744  -38.0016   24.6863 H   0  0  0  0  0  0  0  0  0  0  0  0
  -28.0396  -36.2711   24.7461 H   0  0  0  0  0  0  0  0  0  0  0  0
  -27.1773  -37.3087   25.8564 H   0  0  0  0  0  0  0  0  0  0  0  0
  -20.9627  -29.9365   21.7352 H   0  0  0  0  0  0  0  0  0  0  0  0
  -26.0447  -38.2561   24.0273 H   0  0  0  0  0  0  0  0  0  0  0  0
  -22.4903  -14.4491   22.8293 H   0  0  0  0  0  0  0  0  0  0  0  0
  -25.5082  -11.1074   21.0174 H   0  0  0  0  0  0  0  0  0  0  0  0
  -22.4599  -13.4661   24.8612 H   0  0  0  0  0  0  0  0  0  0  0  0
  -23.9562  -12.6934   25.3272 H   0  0  0  0  0  0  0  0  0  0  0  0
  -22.5880  -11.7236   24.8366 H   0  0  0  0  0  0  0  0  0  0  0  0
  -22.9594  -12.7803   18.3637 H   0  0  0  0  0  0  0  0  0  0  0  0
  -24.2580  -13.0516   17.2266 H   0  0  0  0  0  0  0  0  0  0  0  0
  -23.6950  -14.3602   18.2383 H   0  0  0  0  0  0  0  0  0  0  0  0
  -24.1057  -17.2246   19.7891 H   0  0  0  0  0  0  0  0  0  0  0  0
  -22.4354  -17.1539   19.2212 H   0  0  0  0  0  0  0  0  0  0  0  0
  -22.7208  -18.3702   21.7871 H   0  0  0  0  0  0  0  0  0  0  0  0
  -21.9234  -18.8899   20.1748 H   0  0  0  0  0  0  0  0  0  0  0  0
  -21.7639  -16.0842   21.2849 H   0  0  0  0  0  0  0  0  0  0  0  0
  -23.4103  -16.1603   21.8730 H   0  0  0  0  0  0  0  0  0  0  0  0
  1 25  1  0
  1 30  2  0
  1 82  1  0
  2  3  1  0
  2 25  1  0
  2 85  1  0
  2 86  1  0
  3  4  1  0
  3 87  1  0
  3 88  1  0
  4  5  1  0
  4 89  1  0
  4 90  1  0
  5  6  1  0
  5 26  1  0
  5 91  1  6
  6 25  1  0
  6 92  1  0
  6 93  1  0
  7  8  2  0
  7 26  1  0
  7 29  1  0
  8  9  1  0
  8 22  1  0
  9 10  1  0
  9 27  2  0
 10 11  2  0
 10 15  1  0
 11 12  1  0
 11 94  1  0
 12 13  2  0
 12 95  1  0
 13 14  1  0
 13 31  1  0
 14 15  2  0
 14 96  1  0
 15 97  1  0
 16 17  2  0
 16 21  1  0
 16 31  1  0
 17 18  1  0
 17 98  1  0
 18 19  2  0
 18 99  1  0
 19 20  1  0
 19 24  1  0
 20 21  2  0
 20100  1  0
 21 23  1  0
 22 28  1  0
 22 32  2  0
 26 27  1  0
 28101  1  0
 28102  1  0
 29103  1  0
 29104  1  0
 33 34  1  0
 33 66  1  0
 33 70  2  0
 34 36  1  0
 34 59  1  0
 34105  1  6
 35 44  2  0
 35 45  1  0
 35 68  1  0
 36 56  1  0
 36106  1  0
 37 39  1  0
 37 47  1  0
 37 66  1  0
 37107  1  6
 38 43  2  0
 38 46  1  0
 38 47  1  0
 39 64  1  0
 39 67  2  0
 40 52  1  0
 40 53  2  0
 40 58  1  0
 41108  1  0
 41109  1  0
 41110  1  0
 42 43  1  0
 42 66  1  0
 42111  1  0
 42112  1  0
 43 44  1  0
 44113  1  0
 45 46  2  0
 45114  1  0
 46115  1  0
 47116  1  0
 47117  1  0
 48 41  1  0
 48 56  1  0
 48 65  1  0
 48118  1  1
 49 50  1  0
 49 53  1  0
 49 64  1  0
 49119  1  1
 50 51  1  0
 50120  1  0
 50121  1  0
 51 52  1  0
 51122  1  0
 51123  1  0
 52124  1  0
 52125  1  0
 53 54  1  0
 54 55  2  0
 54126  1  0
 55 57  1  0
 55127  1  0
 56 69  2  0
 57 58  2  0
 57128  1  0
 58129  1  0
 59 60  1  0
 59 61  1  0
 59 62  1  0
 60130  1  0
 60131  1  0
 60132  1  0
 61133  1  0
 61134  1  0
 61135  1  0
 62136  1  0
 62137  1  0
 62138  1  0
 63 65  1  0
 63139  1  0
 63140  1  0
 63141  1  0
 64142  1  0
 65143  1  0
 68 80  1  0
 71 73  2  0
 71 75  1  0
 71144  1  0
 72 74  1  0
 72 76  2  0
 72145  1  0
 73 76  1  0
 73 77  1  0
 74 75  2  0
 74 82  1  0
 75 83  1  0
 76 84  1  0
 77146  1  0
 77147  1  0
 77148  1  0
 78 82  1  0
 78149  1  0
 78150  1  0
 78151  1  0
 79 80  1  0
 79 81  1  0
 79152  1  0
 79153  1  0
 80154  1  0
 80155  1  0
 81 83  1  0
 81156  1  0
 81157  1  0
M  ISO  4   1 100  68 101  80 101  82 100
M  END
$$$$
87
     RDKit          3D

175184  0  0  0  0  0  0  0  0999 V2000
  -30.7652  -14.3608   20.6636 C   0  0  0  0  0  0  0  0  0100  0  0
  -30.4392  -12.2669   19.3775 C   0  0  0  0  0  0  0  0  0101  0  0
  -29.4791  -12.5281   18.1977 C   0  0  0  0  0  0  0  0  0102  0  0
  -27.9985  -12.3963   18.6038 C   0  0  0  0  0  0  0  0  0103  0  0
  -27.6639  -13.2170   19.8820 C   0  0  2  0  0  0  0  0  0104  0  0
  -28.6795  -12.9602   21.0279 C   0  0  0  0  0  0  0  0  0105  0  0
  -25.2633  -13.8245   20.5754 C   0  0  0  0  0  0  0  0  0106  0  0
  -24.1645  -13.0409   20.9408 C   0  0  0  0  0  0  0  0  0107  0  0
  -24.6400  -11.7009   20.8697 C   0  0  0  0  0  0  0  0  0108  0  0
  -23.9005  -10.4085   21.0420 C   0  0  0  0  0  0  0  0  0109  0  0
  -24.3588   -9.4123   21.9123 C   0  0  0  0  0  0  0  0  0110  0  0
  -23.6296   -8.2350   22.0803 C   0  0  0  0  0  0  0  0  0111  0  0
  -22.4385   -8.0419   21.3657 C   0  0  0  0  0  0  0  0  0112  0  0
  -22.0103   -9.0167   20.4678 C   0  0  0  0  0  0  0  0  0113  0  0
  -22.7317  -10.1925   20.3102 C   0  0  0  0  0  0  0  0  0114  0  0
  -21.6857   -6.0709   22.5391 C   0  0  0  0  0  0  0  0  0115  0  0
  -21.4064   -6.5490   23.8264 C   0  0  0  0  0  0  0  0  0116  0  0
  -21.3635   -5.6677   24.9085 C   0  0  0  0  0  0  0  0  0117  0  0
  -21.5973   -4.3067   24.7088 C   0  0  0  0  0  0  0  0  0118  0  0
  -21.8700   -3.8284   23.4282 C   0  0  0  0  0  0  0  0  0119  0  0
  -21.9144   -4.7056   22.3460 C   0  0  0  0  0  0  0  0  0120  0  0
  -22.8194  -13.5263   21.1763 C   0  0  0  0  0  0  0  0  0121  0  0
  -22.1559   -4.2206   21.1063 F   0  0  0  0  0  0  0  0  0122  0  0
  -21.5628   -3.4510   25.7555 F   0  0  0  0  0  0  0  0  0123  0  0
  -30.0261  -13.1803   20.4553 N   0  0  0  0  0  0  0  0  0124  0  0
  -26.2911  -12.9356   20.3443 N   0  0  0  0  0  0  0  0  0125  0  0
  -25.9236  -11.6675   20.5847 N   0  0  0  0  0  0  0  0  0126  0  0
  -22.0708  -12.7905   22.0005 N   0  0  0  0  0  0  0  0  0127  0  0
  -25.4117  -15.1773   20.4097 N   0  0  0  0  0  0  0  0  0128  0  0
  -31.7916  -14.6724   20.0536 O   0  0  0  0  0  0  0  0  0129  0  0
  -21.6670   -6.9022   21.4423 O   0  0  0  0  0  0  0  0  0130  0  0
  -22.3946  -14.5564   20.6568 O   0  0  0  0  0  0  0  0  0131  0  0
  -24.6048  -31.8614   23.2223 C   0  0  0  0  0  0  0  0  0100  0  0
  -25.8822  -32.4841   23.8616 C   0  0  1  0  0  0  0  0  0101  0  0
  -27.2536  -27.5042   20.1156 C   0  0  0  0  0  0  0  0  0102  0  0
  -25.5726  -33.8762   24.2210 N   0  0  0  0  0  0  0  0  0103  0  0
  -23.4066  -30.4859   21.5461 C   0  0  2  0  0  0  0  0  0104  0  0
  -24.8467  -28.9636   20.1247 C   0  0  0  0  0  0  0  0  0105  0  0
  -22.7412  -29.4652   22.5052 C   0  0  0  0  0  0  0  0  0106  0  0
  -18.0167  -28.1302   22.8626 C   0  0  0  0  0  0  0  0  0107  0  0
  -24.1342  -36.7390   23.2568 C   0  0  0  0  0  0  0  0  0108  0  0
  -25.9141  -30.8882   21.3456 C   0  0  0  0  0  0  0  0  0109  0  0
  -25.9930  -29.5029   20.7208 C   0  0  0  0  0  0  0  0  0110  0  0
  -27.1758  -28.7612   20.7331 C   0  0  0  0  0  0  0  0  0111  0  0
  -26.1032  -26.9836   19.5230 C   0  0  0  0  0  0  0  0  0112  0  0
  -24.9097  -27.7011   19.5331 C   0  0  0  0  0  0  0  0  0113  0  0
  -23.5715  -29.7899   20.1582 C   0  0  0  0  0  0  0  0  0114  0  0
  -25.3990  -36.3212   24.0232 C   0  0  1  0  0  0  0  0  0115  0  0
  -20.5793  -28.3813   23.1004 C   0  0  2  0  0  0  0  0  0116  0  0
  -20.6548  -26.9392   22.5411 C   0  0  0  0  0  0  0  0  0117  0  0
  -19.5615  -26.6407   21.5143 C   0  0  0  0  0  0  0  0  0118  0  0
  -18.1797  -26.7818   22.1673 C   0  0  0  0  0  0  0  0  0119  0  0
  -19.1385  -28.8769   23.2988 C   0  0  0  0  0  0  0  0  0120  0  0
  -18.9183  -30.1286   23.8878 C   0  0  0  0  0  0  0  0  0121  0  0
  -17.6396  -30.6493   24.0352 C   0  0  0  0  0  0  0  0  0122  0  0
  -25.9153  -34.9582   23.4993 C   0  0  0  0  0  0  0  0  0123  0  0
  -16.5415  -29.9068   23.6254 C   0  0  0  0  0  0  0  0  0124  0  0
  -16.7331  -28.6521   23.0586 C   0  0  0  0  0  0  0  0  0125  0  0
  -26.4583  -31.6439   25.0683 C   0  0  0  0  0  0  0  0  0126  0  0
  -25.3807  -31.3179   26.1374 C   0  0  0  0  0  0  0  0  0127  0  0
  -27.0530  -30.3024   24.5680 C   0  0  0  0  0  0  0  0  0128  0  0
  -27.6014  -32.4281   25.7651 C   0  0  0  0  0  0  0  0  0129  0  0
  -27.5629  -37.2220   24.8621 C   0  0  0  0  0  0  0  0  0130  0  0
  -21.4133  -29.3375   22.3735 N   0  0  0  0  0  0  0  0  0131  0  0
  -26.4706  -37.3372   23.9061 N   0  0  0  0  0  0  0  0  0132  0  0
  -24.6674  -31.0544   22.1178 N   0  0  0  0  0  0  0  0  0133  0  0
  -23.4259  -28.8150   23.2971 O   0  0  0  0  0  0  0  0  0134  0  0
  -28.3948  -26.7345   20.0089 O   0  0  0  0  0  0  0  0  0135  0  0
  -26.5870  -34.9065   22.4671 O   0  0  0  0  0  0  0  0  0136  0  0
  -23.5365  -32.1254   23.7833 O   0  0  0  0  0  0  0  0  0137  0  0
  -28.6104  -25.7439   20.3710 C   0  0  0  0  0  0  0  0  0  0  0  0
  -29.9291  -25.8001   18.2114 C   0  0  0  0  0  0  0  0  0  0  0  0
  -30.7998  -19.7502   20.9787 C   0  0  0  0  0  0  0  0  0  0  0  0
  -28.2074  -24.2970   20.0869 C   0  0  0  0  0  0  0  0  0  0  0  0
  -29.5258  -24.3531   17.9280 C   0  0  0  0  0  0  0  0  0  0  0  0
  -30.4948  -20.8097   19.9200 C   0  0  0  0  0  0  0  0  0  0  0  0
  -28.8845  -26.5212   19.0754 C   0  0  2  0  0  0  0  0  0  0  0  0
  -29.8629  -18.5393   20.8655 C   0  0  2  0  0  0  0  0  0  0  0  0
  -28.0519  -20.0356   19.8317 C   0  0  2  0  0  0  0  0  0  0  0  0
  -29.2575  -23.5987   19.2272 C   0  0  2  0  0  0  0  0  0  0  0  0
  -29.0245  -21.2241   19.9660 C   0  0  2  0  0  0  0  0  0  0  0  0
  -28.3917  -18.9787   20.8968 C   0  0  2  0  0  0  0  0  0  0  0  0
  -28.0141  -19.4082   18.4334 C   0  0  0  0  0  0  0  0  0  0  0  0
  -30.1529  -17.5382   21.9842 C   0  0  0  0  0  0  0  0  0  0  0  0
  -29.3356  -27.9468   19.3880 C   0  0  0  0  0  0  0  0  0  1  0  0
  -29.6504  -16.2235   21.6524 N   0  0  0  0  0  0  0  0  0  0  0  0
  -28.7781  -22.2299   18.8989 N   0  0  0  0  0  0  0  0  0  0  0  0
  -28.1361  -19.5301   22.1212 F   0  0  0  0  0  0  0  0  0  0  0  0
  -31.4485  -12.4701   19.0860 H   0  0  0  0  0  0  0  0  0  0  0  0
  -30.3970  -11.2460   19.6950 H   0  0  0  0  0  0  0  0  0  0  0  0
  -29.6870  -11.8204   17.4226 H   0  0  0  0  0  0  0  0  0  0  0  0
  -29.6375  -13.5326   17.8649 H   0  0  0  0  0  0  0  0  0  0  0  0
  -27.7830  -11.3650   18.7904 H   0  0  0  0  0  0  0  0  0  0  0  0
  -27.4028  -12.7801   17.8021 H   0  0  0  0  0  0  0  0  0  0  0  0
  -27.7353  -14.2503   19.6136 H   0  0  0  0  0  0  0  0  0  0  0  0
  -28.5890  -11.9550   21.3832 H   0  0  0  0  0  0  0  0  0  0  0  0
  -28.5005  -13.6134   21.8562 H   0  0  0  0  0  0  0  0  0  0  0  0
  -25.2399   -9.5495   22.4318 H   0  0  0  0  0  0  0  0  0  0  0  0
  -23.9663   -7.5070   22.7297 H   0  0  0  0  0  0  0  0  0  0  0  0
  -21.1515   -8.8641   19.9162 H   0  0  0  0  0  0  0  0  0  0  0  0
  -22.4016  -10.9115   19.6476 H   0  0  0  0  0  0  0  0  0  0  0  0
  -21.2319   -7.5552   23.9750 H   0  0  0  0  0  0  0  0  0  0  0  0
  -21.1589   -6.0228   25.8556 H   0  0  0  0  0  0  0  0  0  0  0  0
  -22.0396   -2.8212   23.2809 H   0  0  0  0  0  0  0  0  0  0  0  0
  -22.4401  -11.9703   22.4008 H   0  0  0  0  0  0  0  0  0  0  0  0
  -21.1493  -13.0679   22.2082 H   0  0  0  0  0  0  0  0  0  0  0  0
  -24.6538  -15.7807   20.5848 H   0  0  0  0  0  0  0  0  0  0  0  0
  -26.2762  -15.5453   20.1156 H   0  0  0  0  0  0  0  0  0  0  0  0
  -26.6778  -32.4663   23.1464 H   0  0  0  0  0  0  0  0  0  0  0  0
  -25.0747  -34.0282   25.0566 H   0  0  0  0  0  0  0  0  0  0  0  0
  -22.7881  -31.3489   21.4131 H   0  0  0  0  0  0  0  0  0  0  0  0
  -23.3854  -35.9823   23.3648 H   0  0  0  0  0  0  0  0  0  0  0  0
  -24.3696  -36.8624   22.2204 H   0  0  0  0  0  0  0  0  0  0  0  0
  -23.7669  -37.6632   23.6516 H   0  0  0  0  0  0  0  0  0  0  0  0
  -25.9445  -31.6237   20.5691 H   0  0  0  0  0  0  0  0  0  0  0  0
  -26.7436  -31.0079   22.0108 H   0  0  0  0  0  0  0  0  0  0  0  0
  -28.0090  -29.1452   21.2057 H   0  0  0  0  0  0  0  0  0  0  0  0
  -26.1369  -26.0560   19.0719 H   0  0  0  0  0  0  0  0  0  0  0  0
  -24.0652  -27.2961   19.0997 H   0  0  0  0  0  0  0  0  0  0  0  0
  -23.6156  -30.5365   19.3930 H   0  0  0  0  0  0  0  0  0  0  0  0
  -22.7355  -29.1425   19.9945 H   0  0  0  0  0  0  0  0  0  0  0  0
  -25.1353  -36.2335   25.0565 H   0  0  0  0  0  0  0  0  0  0  0  0
  -21.0070  -28.3206   24.0793 H   0  0  0  0  0  0  0  0  0  0  0  0
  -20.5555  -26.2518   23.3550 H   0  0  0  0  0  0  0  0  0  0  0  0
  -21.5974  -26.8362   22.0454 H   0  0  0  0  0  0  0  0  0  0  0  0
  -19.6810  -25.6422   21.1488 H   0  0  0  0  0  0  0  0  0  0  0  0
  -19.6406  -27.3343   20.7034 H   0  0  0  0  0  0  0  0  0  0  0  0
  -17.4282  -26.6888   21.4113 H   0  0  0  0  0  0  0  0  0  0  0  0
  -18.0803  -26.0130   22.9049 H   0  0  0  0  0  0  0  0  0  0  0  0
  -19.7265  -30.6774   24.2204 H   0  0  0  0  0  0  0  0  0  0  0  0
  -17.5064  -31.5856   24.4483 H   0  0  0  0  0  0  0  0  0  0  0  0
  -15.5878  -30.2839   23.7407 H   0  0  0  0  0  0  0  0  0  0  0  0
  -15.9120  -28.0941   22.7766 H   0  0  0  0  0  0  0  0  0  0  0  0
  -24.5787  -30.7757   25.6817 H   0  0  0  0  0  0  0  0  0  0  0  0
  -25.0041  -32.2289   26.5536 H   0  0  0  0  0  0  0  0  0  0  0  0
  -25.8166  -30.7245   26.9138 H   0  0  0  0  0  0  0  0  0  0  0  0
  -26.2892  -29.7335   24.0803 H   0  0  0  0  0  0  0  0  0  0  0  0
  -27.4336  -29.7484   25.4006 H   0  0  0  0  0  0  0  0  0  0  0  0
  -27.8466  -30.4994   23.8779 H   0  0  0  0  0  0  0  0  0  0  0  0
  -27.2251  -33.3632   26.1242 H   0  0  0  0  0  0  0  0  0  0  0  0
  -28.3902  -32.6065   25.0645 H   0  0  0  0  0  0  0  0  0  0  0  0
  -27.9772  -31.8555   26.5872 H   0  0  0  0  0  0  0  0  0  0  0  0
  -28.2744  -38.0016   24.6863 H   0  0  0  0  0  0  0  0  0  0  0  0
  -28.0396  -36.2711   24.7461 H   0  0  0  0  0  0  0  0  0  0  0  0
  -27.1773  -37.3087   25.8564 H   0  0  0  0  0  0  0  0  0  0  0  0
  -20.9627  -29.9365   21.7352 H   0  0  0  0  0  0  0  0  0  0  0  0
  -26.0447  -38.2561   24.0273 H   0  0  0  0  0  0  0  0  0  0  0  0
  -29.4965  -25.7458   20.9707 H   0  0  0  0  0  0  0  0  0  0  0  0
  -27.8009  -26.2217   20.8821 H   0  0  0  0  0  0  0  0  0  0  0  0
  -30.0295  -26.3206   17.2819 H   0  0  0  0  0  0  0  0  0  0  0  0
  -30.8555  -25.7898   18.7467 H   0  0  0  0  0  0  0  0  0  0  0  0
  -30.6841  -20.1873   21.9485 H   0  0  0  0  0  0  0  0  0  0  0  0
  -31.8022  -19.4085   20.8258 H   0  0  0  0  0  0  0  0  0  0  0  0
  -27.2702  -24.2892   19.5707 H   0  0  0  0  0  0  0  0  0  0  0  0
  -28.1254  -23.7756   21.0177 H   0  0  0  0  0  0  0  0  0  0  0  0
  -30.3171  -23.8663   17.3971 H   0  0  0  0  0  0  0  0  0  0  0  0
  -28.6300  -24.3560   17.3428 H   0  0  0  0  0  0  0  0  0  0  0  0
  -30.7155  -20.4106   18.9521 H   0  0  0  0  0  0  0  0  0  0  0  0
  -31.0977  -21.6714   20.1171 H   0  0  0  0  0  0  0  0  0  0  0  0
  -27.9717  -26.5700   18.5192 H   0  0  0  0  0  0  0  0  0  0  0  0
  -30.0428  -18.0610   19.9254 H   0  0  0  0  0  0  0  0  0  0  0  0
  -27.0670  -20.4229   19.9897 H   0  0  0  0  0  0  0  0  0  0  0  0
  -30.1706  -23.5644   19.7839 H   0  0  0  0  0  0  0  0  0  0  0  0
  -28.8334  -21.6465   20.9303 H   0  0  0  0  0  0  0  0  0  0  0  0
  -27.7980  -18.1107   20.6993 H   0  0  0  0  0  0  0  0  0  0  0  0
  -28.9736  -18.9953   18.2017 H   0  0  0  0  0  0  0  0  0  0  0  0
  -27.7652  -20.1586   17.7124 H   0  0  0  0  0  0  0  0  0  0  0  0
  -27.2771  -18.6328   18.4102 H   0  0  0  0  0  0  0  0  0  0  0  0
  -29.6825  -17.8747   22.8844 H   0  0  0  0  0  0  0  0  0  0  0  0
  -31.2130  -17.4730   22.1142 H   0  0  0  0  0  0  0  0  0  0  0  0
  -28.9284  -28.8066   18.8983 H   0  0  0  0  0  0  0  0  0  0  0  0
  -30.1997  -28.5455   19.5875 H   0  0  0  0  0  0  0  0  0  0  0  0
  -28.7015  -16.0741   21.8679 H   0  0  0  0  0  0  0  0  0  0  0  0
  -29.2531  -21.9196   18.0513 H   0  0  0  0  0  0  0  0  0  0  0  0
  -27.7665  -22.2937   18.7850 H   0  0  0  0  0  0  0  0  0  0  0  0
  1 25  1  0
  1 30  2  0
  1 86  1  0
  2  3  1  0
  2 25  1  0
  2 89  1  0
  2 90  1  0
  3  4  1  0
  3 91  1  0
  3 92  1  0
  4  5  1  0
  4 93  1  0
  4 94  1  0
  5  6  1  0
  5 26  1  0
  5 95  1  6
  6 25  1  0
  6 96  1  0
  6 97  1  0
  7  8  2  0
  7 26  1  0
  7 29  1  0
  8  9  1  0
  8 22  1  0
  9 10  1  0
  9 27  2  0
 10 11  2  0
 10 15  1  0
 11 12  1  0
 11 98  1  0
 12 13  2  0
 12 99  1  0
 13 14  1  0
 13 31  1  0
 14 15  2  0
 14100  1  0
 15101  1  0
 16 17  2  0
 16 21  1  0
 16 31  1  0
 17 18  1  0
 17102  1  0
 18 19  2  0
 18103  1  0
 19 20  1  0
 19 24  1  0
 20 21  2  0
 20104  1  0
 21 23  1  0
 22 28  1  0
 22 32  2  0
 26 27  1  0
 28105  1  0
 28106  1  0
 29107  1  0
 29108  1  0
 33 34  1  0
 33 66  1  0
 33 70  2  0
 34 36  1  0
 34 59  1  0
 34109  1  6
 35 44  2  0
 35 45  1  0
 35 68  1  0
 36 56  1  0
 36110  1  0
 37 39  1  0
 37 47  1  0
 37 66  1  0
 37111  1  6
 38 43  2  0
 38 46  1  0
 38 47  1  0
 39 64  1  0
 39 67  2  0
 40 52  1  0
 40 53  2  0
 40 58  1  0
 41112  1  0
 41113  1  0
 41114  1  0
 42 43  1  0
 42 66  1  0
 42115  1  0
 42116  1  0
 43 44  1  0
 44117  1  0
 45 46  2  0
 45118  1  0
 46119  1  0
 47120  1  0
 47121  1  0
 48 41  1  0
 48 56  1  0
 48 65  1  0
 48122  1  1
 49 50  1  0
 49 53  1  0
 49 64  1  0
 49123  1  1
 50 51  1  0
 50124  1  0
 50125  1  0
 51 52  1  0
 51126  1  0
 51127  1  0
 52128  1  0
 52129  1  0
 53 54  1  0
 54 55  2  0
 54130  1  0
 55 57  1  0
 55131  1  0
 56 69  2  0
 57 58  2  0
 57132  1  0
 58133  1  0
 59 60  1  0
 59 61  1  0
 59 62  1  0
 60134  1  0
 60135  1  0
 60136  1  0
 61137  1  0
 61138  1  0
 61139  1  0
 62140  1  0
 62141  1  0
 62142  1  0
 63 65  1  0
 63143  1  0
 63144  1  0
 63145  1  0
 64146  1  0
 65147  1  0
 68 85  1  0
 71 74  1  0
 71 77  1  0
 71148  1  0
 71149  1  0
 72 75  1  0
 72 77  1  0
 72150  1  0
 72151  1  0
 73 76  1  0
 73 78  1  0
 73152  1  0
 73153  1  0
 74 80  1  0
 74154  1  0
 74155  1  0
 75 80  1  0
 75156  1  0
 75157  1  0
 76 81  1  0
 76158  1  0
 76159  1  0
 77 85  1  0
 77160  1  6
 78 82  1  0
 78 84  1  0
 78161  1  6
 79 81  1  0
 79 82  1  0
 79 83  1  0
 79162  1  1
 80 87  1  0
 80163  1  1
 81 87  1  0
 81164  1  1
 82 88  1  0
 82165  1  6
 83166  1  0
 83167  1  0
 83168  1  0
 84 86  1  0
 84169  1  0
 84170  1  0
 85171  1  0
 85172  1  0
 86173  1  0
 87174  1  0
 87175  1  0
M  CHG  1  87   1
M  ISO  4   1 100  68 101  85 101  86 100
M  END
$$$$
88
     RDKit          3D

168177  0  0  0  0  0  0  0  0999 V2000
  -30.7652  -14.3608   20.6636 C   0  0  0  0  0  0  0  0  0100  0  0
  -30.4392  -12.2669   19.3775 C   0  0  0  0  0  0  0  0  0101  0  0
  -29.4791  -12.5281   18.1977 C   0  0  0  0  0  0  0  0  0102  0  0
  -27.9985  -12.3963   18.6038 C   0  0  0  0  0  0  0  0  0103  0  0
  -27.6639  -13.2170   19.8820 C   0  0  2  0  0  0  0  0  0104  0  0
  -28.6795  -12.9602   21.0279 C   0  0  0  0  0  0  0  0  0105  0  0
  -25.2633  -13.8245   20.5754 C   0  0  0  0  0  0  0  0  0106  0  0
  -24.1645  -13.0409   20.9408 C   0  0  0  0  0  0  0  0  0107  0  0
  -24.6400  -11.7009   20.8697 C   0  0  0  0  0  0  0  0  0108  0  0
  -23.9005  -10.4085   21.0420 C   0  0  0  0  0  0  0  0  0109  0  0
  -24.3588   -9.4123   21.9123 C   0  0  0  0  0  0  0  0  0110  0  0
  -23.6296   -8.2350   22.0803 C   0  0  0  0  0  0  0  0  0111  0  0
  -22.4385   -8.0419   21.3657 C   0  0  0  0  0  0  0  0  0112  0  0
  -22.0103   -9.0167   20.4678 C   0  0  0  0  0  0  0  0  0113  0  0
  -22.7317  -10.1925   20.3102 C   0  0  0  0  0  0  0  0  0114  0  0
  -21.6857   -6.0709   22.5391 C   0  0  0  0  0  0  0  0  0115  0  0
  -21.4064   -6.5490   23.8264 C   0  0  0  0  0  0  0  0  0116  0  0
  -21.3635   -5.6677   24.9085 C   0  0  0  0  0  0  0  0  0117  0  0
  -21.5973   -4.3067   24.7088 C   0  0  0  0  0  0  0  0  0118  0  0
  -21.8700   -3.8284   23.4282 C   0  0  0  0  0  0  0  0  0119  0  0
  -21.9144   -4.7056   22.3460 C   0  0  0  0  0  0  0  0  0120  0  0
  -22.8194  -13.5263   21.1763 C   0  0  0  0  0  0  0  0  0121  0  0
  -22.1559   -4.2206   21.1063 F   0  0  0  0  0  0  0  0  0122  0  0
  -21.5628   -3.4510   25.7555 F   0  0  0  0  0  0  0  0  0123  0  0
  -30.0261  -13.1803   20.4553 N   0  0  0  0  0  0  0  0  0124  0  0
  -26.2911  -12.9356   20.3443 N   0  0  0  0  0  0  0  0  0125  0  0
  -25.9236  -11.6675   20.5847 N   0  0  0  0  0  0  0  0  0126  0  0
  -22.0708  -12.7905   22.0005 N   0  0  0  0  0  0  0  0  0127  0  0
  -25.4117  -15.1773   20.4097 N   0  0  0  0  0  0  0  0  0128  0  0
  -31.7916  -14.6724   20.0536 O   0  0  0  0  0  0  0  0  0129  0  0
  -21.6670   -6.9022   21.4423 O   0  0  0  0  0  0  0  0  0130  0  0
  -22.3946  -14.5564   20.6568 O   0  0  0  0  0  0  0  0  0131  0  0
  -24.6048  -31.8614   23.2223 C   0  0  0  0  0  0  0  0  0100  0  0
  -25.8822  -32.4841   23.8616 C   0  0  1  0  0  0  0  0  0101  0  0
  -27.2536  -27.5042   20.1156 C   0  0  0  0  0  0  0  0  0102  0  0
  -25.5726  -33.8762   24.2210 N   0  0  0  0  0  0  0  0  0103  0  0
  -23.4066  -30.4859   21.5461 C   0  0  2  0  0  0  0  0  0104  0  0
  -24.8467  -28.9636   20.1247 C   0  0  0  0  0  0  0  0  0105  0  0
  -22.7412  -29.4652   22.5052 C   0  0  0  0  0  0  0  0  0106  0  0
  -18.0167  -28.1302   22.8626 C   0  0  0  0  0  0  0  0  0107  0  0
  -24.1342  -36.7390   23.2568 C   0  0  0  0  0  0  0  0  0108  0  0
  -25.9141  -30.8882   21.3456 C   0  0  0  0  0  0  0  0  0109  0  0
  -25.9930  -29.5029   20.7208 C   0  0  0  0  0  0  0  0  0110  0  0
  -27.1758  -28.7612   20.7331 C   0  0  0  0  0  0  0  0  0111  0  0
  -26.1032  -26.9836   19.5230 C   0  0  0  0  0  0  0  0  0112  0  0
  -24.9097  -27.7011   19.5331 C   0  0  0  0  0  0  0  0  0113  0  0
  -23.5715  -29.7899   20.1582 C   0  0  0  0  0  0  0  0  0114  0  0
  -25.3990  -36.3212   24.0232 C   0  0  1  0  0  0  0  0  0115  0  0
  -20.5793  -28.3813   23.1004 C   0  0  2  0  0  0  0  0  0116  0  0
  -20.6548  -26.9392   22.5411 C   0  0  0  0  0  0  0  0  0117  0  0
  -19.5615  -26.6407   21.5143 C   0  0  0  0  0  0  0  0  0118  0  0
  -18.1797  -26.7818   22.1673 C   0  0  0  0  0  0  0  0  0119  0  0
  -19.1385  -28.8769   23.2988 C   0  0  0  0  0  0  0  0  0120  0  0
  -18.9183  -30.1286   23.8878 C   0  0  0  0  0  0  0  0  0121  0  0
  -17.6396  -30.6493   24.0352 C   0  0  0  0  0  0  0  0  0122  0  0
  -25.9153  -34.9582   23.4993 C   0  0  0  0  0  0  0  0  0123  0  0
  -16.5415  -29.9068   23.6254 C   0  0  0  0  0  0  0  0  0124  0  0
  -16.7331  -28.6521   23.0586 C   0  0  0  0  0  0  0  0  0125  0  0
  -26.4583  -31.6439   25.0683 C   0  0  0  0  0  0  0  0  0126  0  0
  -25.3807  -31.3179   26.1374 C   0  0  0  0  0  0  0  0  0127  0  0
  -27.0530  -30.3024   24.5680 C   0  0  0  0  0  0  0  0  0128  0  0
  -27.6014  -32.4281   25.7651 C   0  0  0  0  0  0  0  0  0129  0  0
  -27.5629  -37.2220   24.8621 C   0  0  0  0  0  0  0  0  0130  0  0
  -21.4133  -29.3375   22.3735 N   0  0  0  0  0  0  0  0  0131  0  0
  -26.4706  -37.3372   23.9061 N   0  0  0  0  0  0  0  0  0132  0  0
  -24.6674  -31.0544   22.1178 N   0  0  0  0  0  0  0  0  0133  0  0
  -23.4259  -28.8150   23.2971 O   0  0  0  0  0  0  0  0  0134  0  0
  -28.3948  -26.7345   20.0089 O   0  0  0  0  0  0  0  0  0135  0  0
  -26.5870  -34.9065   22.4671 O   0  0  0  0  0  0  0  0  0136  0  0
  -23.5365  -32.1254   23.7833 O   0  0  0  0  0  0  0  0  0137  0  0
  -31.4454  -22.4159   19.4475 C   0  0  0  0  0  0  0  0  0  0  0  0
  -32.1613  -23.5076   19.8353 C   0  0  0  0  0  0  0  0  0  0  0  0
  -31.7124  -21.4502   20.4127 C   0  0  0  0  0  0  0  0  0  0  0  0
  -30.6932  -22.6720   18.2091 C   0  0  0  0  0  0  0  0  0  0  0  0
  -31.3521  -24.0150   17.7091 C   0  0  0  0  0  0  0  0  0  0  0  0
  -32.0310  -24.6843   18.9621 C   0  0  2  0  0  0  0  0  0  0  0  0
  -33.3313  -25.3861   18.6364 C   0  0  0  0  0  0  0  0  0  0  0  0
  -33.0382  -25.3594   22.2836 C   0  0  0  0  0  0  0  0  0  0  0  0
  -30.6963  -17.8622   20.9408 C   0  0  0  0  0  0  0  0  0  0  0  0
  -33.7028  -24.0627   21.8160 C   0  0  0  0  0  0  0  0  0  0  0  0
  -31.4076  -19.1543   21.3411 C   0  0  0  0  0  0  0  0  0  0  0  0
  -30.9447  -16.6946   21.8932 C   0  0  0  0  0  0  0  0  0  0  0  0
  -31.8525  -25.1293   23.2134 C   0  0  0  0  0  0  0  0  0  1  0  0
  -32.5500  -21.9128   21.3594 N   0  0  0  0  0  0  0  0  0  0  0  0
  -32.8054  -23.1896   20.9758 N   0  0  0  0  0  0  0  0  0  0  0  0
  -31.1667  -20.2090   20.3607 N   0  0  0  0  0  0  0  0  0  0  0  0
  -30.2296  -15.5008   21.5006 N   0  0  0  0  0  0  0  0  0  0  0  0
  -31.1600  -25.5814   19.4970 F   0  0  0  0  0  0  0  0  0  0  0  0
  -31.4485  -12.4701   19.0860 H   0  0  0  0  0  0  0  0  0  0  0  0
  -30.3970  -11.2460   19.6950 H   0  0  0  0  0  0  0  0  0  0  0  0
  -29.6870  -11.8204   17.4226 H   0  0  0  0  0  0  0  0  0  0  0  0
  -29.6375  -13.5326   17.8649 H   0  0  0  0  0  0  0  0  0  0  0  0
  -27.7830  -11.3650   18.7904 H   0  0  0  0  0  0  0  0  0  0  0  0
  -27.4028  -12.7801   17.8021 H   0  0  0  0  0  0  0  0  0  0  0  0
  -27.7353  -14.2503   19.6136 H   0  0  0  0  0  0  0  0  0  0  0  0
  -28.5890  -11.9550   21.3832 H   0  0  0  0  0  0  0  0  0  0  0  0
  -28.5005  -13.6134   21.8562 H   0  0  0  0  0  0  0  0  0  0  0  0
  -25.2399   -9.5495   22.4318 H   0  0  0  0  0  0  0  0  0  0  0  0
  -23.9663   -7.5070   22.7297 H   0  0  0  0  0  0  0  0  0  0  0  0
  -21.1515   -8.8641   19.9162 H   0  0  0  0  0  0  0  0  0  0  0  0
  -22.4016  -10.9115   19.6476 H   0  0  0  0  0  0  0  0  0  0  0  0
  -21.2319   -7.5552   23.9750 H   0  0  0  0  0  0  0  0  0  0  0  0
  -21.1589   -6.0228   25.8556 H   0  0  0  0  0  0  0  0  0  0  0  0
  -22.0396   -2.8212   23.2809 H   0  0  0  0  0  0  0  0  0  0  0  0
  -22.4401  -11.9703   22.4008 H   0  0  0  0  0  0  0  0  0  0  0  0
  -21.1493  -13.0679   22.2082 H   0  0  0  0  0  0  0  0  0  0  0  0
  -24.6538  -15.7807   20.5848 H   0  0  0  0  0  0  0  0  0  0  0  0
  -26.2762  -15.5453   20.1156 H   0  0  0  0  0  0  0  0  0  0  0  0
  -26.6778  -32.4663   23.1464 H   0  0  0  0  0  0  0  0  0  0  0  0
  -25.0747  -34.0282   25.0566 H   0  0  0  0  0  0  0  0  0  0  0  0
  -22.7881  -31.3489   21.4131 H   0  0  0  0  0  0  0  0  0  0  0  0
  -23.3854  -35.9823   23.3648 H   0  0  0  0  0  0  0  0  0  0  0  0
  -24.3696  -36.8624   22.2204 H   0  0  0  0  0  0  0  0  0  0  0  0
  -23.7669  -37.6632   23.6516 H   0  0  0  0  0  0  0  0  0  0  0  0
  -25.9445  -31.6237   20.5691 H   0  0  0  0  0  0  0  0  0  0  0  0
  -26.7436  -31.0079   22.0108 H   0  0  0  0  0  0  0  0  0  0  0  0
  -28.0090  -29.1452   21.2057 H   0  0  0  0  0  0  0  0  0  0  0  0
  -26.1369  -26.0560   19.0719 H   0  0  0  0  0  0  0  0  0  0  0  0
  -24.0652  -27.2961   19.0997 H   0  0  0  0  0  0  0  0  0  0  0  0
  -23.6156  -30.5365   19.3930 H   0  0  0  0  0  0  0  0  0  0  0  0
  -22.7355  -29.1425   19.9945 H   0  0  0  0  0  0  0  0  0  0  0  0
  -25.1353  -36.2335   25.0565 H   0  0  0  0  0  0  0  0  0  0  0  0
  -21.0070  -28.3206   24.0793 H   0  0  0  0  0  0  0  0  0  0  0  0
  -20.5555  -26.2518   23.3550 H   0  0  0  0  0  0  0  0  0  0  0  0
  -21.5974  -26.8362   22.0454 H   0  0  0  0  0  0  0  0  0  0  0  0
  -19.6810  -25.6422   21.1488 H   0  0  0  0  0  0  0  0  0  0  0  0
  -19.6406  -27.3343   20.7034 H   0  0  0  0  0  0  0  0  0  0  0  0
  -17.4282  -26.6888   21.4113 H   0  0  0  0  0  0  0  0  0  0  0  0
  -18.0803  -26.0130   22.9049 H   0  0  0  0  0  0  0  0  0  0  0  0
  -19.7265  -30.6774   24.2204 H   0  0  0  0  0  0  0  0  0  0  0  0
  -17.5064  -31.5856   24.4483 H   0  0  0  0  0  0  0  0  0  0  0  0
  -15.5878  -30.2839   23.7407 H   0  0  0  0  0  0  0  0  0  0  0  0
  -15.9120  -28.0941   22.7766 H   0  0  0  0  0  0  0  0  0  0  0  0
  -24.5787  -30.7757   25.6817 H   0  0  0  0  0  0  0  0  0  0  0  0
  -25.0041  -32.2289   26.5536 H   0  0  0  0  0  0  0  0  0  0  0  0
  -25.8166  -30.7245   26.9138 H   0  0  0  0  0  0  0  0  0  0  0  0
  -26.2892  -29.7335   24.0803 H   0  0  0  0  0  0  0  0  0  0  0  0
  -27.4336  -29.7484   25.4006 H   0  0  0  0  0  0  0  0  0  0  0  0
  -27.8466  -30.4994   23.8779 H   0  0  0  0  0  0  0  0  0  0  0  0
  -27.2251  -33.3632   26.1242 H   0  0  0  0  0  0  0  0  0  0  0  0
  -28.3902  -32.6065   25.0645 H   0  0  0  0  0  0  0  0  0  0  0  0
  -27.9772  -31.8555   26.5872 H   0  0  0  0  0  0  0  0  0  0  0  0
  -28.2744  -38.0016   24.6863 H   0  0  0  0  0  0  0  0  0  0  0  0
  -28.0396  -36.2711   24.7461 H   0  0  0  0  0  0  0  0  0  0  0  0
  -27.1773  -37.3087   25.8564 H   0  0  0  0  0  0  0  0  0  0  0  0
  -20.9627  -29.9365   21.7352 H   0  0  0  0  0  0  0  0  0  0  0  0
  -26.0447  -38.2561   24.0273 H   0  0  0  0  0  0  0  0  0  0  0  0
  -29.6491  -22.7990   18.4057 H   0  0  0  0  0  0  0  0  0  0  0  0
  -30.7402  -21.8734   17.4985 H   0  0  0  0  0  0  0  0  0  0  0  0
  -30.6036  -24.6643   17.3053 H   0  0  0  0  0  0  0  0  0  0  0  0
  -32.0705  -23.8261   16.9390 H   0  0  0  0  0  0  0  0  0  0  0  0
  -34.0199  -24.6838   18.2151 H   0  0  0  0  0  0  0  0  0  0  0  0
  -33.7469  -25.8002   19.5312 H   0  0  0  0  0  0  0  0  0  0  0  0
  -33.1466  -26.1706   17.9326 H   0  0  0  0  0  0  0  0  0  0  0  0
  -32.6956  -25.8948   21.4228 H   0  0  0  0  0  0  0  0  0  0  0  0
  -33.7713  -25.9094   22.8359 H   0  0  0  0  0  0  0  0  0  0  0  0
  -31.0359  -17.5794   19.9663 H   0  0  0  0  0  0  0  0  0  0  0  0
  -29.6462  -18.0659   20.9687 H   0  0  0  0  0  0  0  0  0  0  0  0
  -34.0028  -23.5066   22.6795 H   0  0  0  0  0  0  0  0  0  0  0  0
  -34.5327  -24.3413   21.2007 H   0  0  0  0  0  0  0  0  0  0  0  0
  -32.4596  -18.9694   21.4049 H   0  0  0  0  0  0  0  0  0  0  0  0
  -31.0255  -19.4748   22.2877 H   0  0  0  0  0  0  0  0  0  0  0  0
  -30.6269  -16.9783   22.8747 H   0  0  0  0  0  0  0  0  0  0  0  0
  -31.9908  -16.4709   21.8689 H   0  0  0  0  0  0  0  0  0  0  0  0
  -31.9014  -25.7228   24.1024 H   0  0  0  0  0  0  0  0  0  0  0  0
  -31.7289  -24.1463   23.6176 H   0  0  0  0  0  0  0  0  0  0  0  0
  -30.5655  -20.0051   19.6083 H   0  0  0  0  0  0  0  0  0  0  0  0
  -29.2983  -15.4220   21.8100 H   0  0  0  0  0  0  0  0  0  0  0  0
  1 25  1  0
  1 30  2  0
  1 87  1  0
  2  3  1  0
  2 25  1  0
  2 89  1  0
  2 90  1  0
  3  4  1  0
  3 91  1  0
  3 92  1  0
  4  5  1  0
  4 93  1  0
  4 94  1  0
  5  6  1  0
  5 26  1  0
  5 95  1  6
  6 25  1  0
  6 96  1  0
  6 97  1  0
  7  8  2  0
  7 26  1  0
  7 29  1  0
  8  9  1  0
  8 22  1  0
  9 10  1  0
  9 27  2  0
 10 11  2  0
 10 15  1  0
 11 12  1  0
 11 98  1  0
 12 13  2  0
 12 99  1  0
 13 14  1  0
 13 31  1  0
 14 15  2  0
 14100  1  0
 15101  1  0
 16 17  2  0
 16 21  1  0
 16 31  1  0
 17 18  1  0
 17102  1  0
 18 19  2  0
 18103  1  0
 19 20  1  0
 19 24  1  0
 20 21  2  0
 20104  1  0
 21 23  1  0
 22 28  1  0
 22 32  2  0
 26 27  1  0
 28105  1  0
 28106  1  0
 29107  1  0
 29108  1  0
 33 34  1  0
 33 66  1  0
 33 70  2  0
 34 36  1  0
 34 59  1  0
 34109  1  6
 35 44  2  0
 35 45  1  0
 35 68  1  0
 36 56  1  0
 36110  1  0
 37 39  1  0
 37 47  1  0
 37 66  1  0
 37111  1  6
 38 43  2  0
 38 46  1  0
 38 47  1  0
 39 64  1  0
 39 67  2  0
 40 52  1  0
 40 53  2  0
 40 58  1  0
 41112  1  0
 41113  1  0
 41114  1  0
 42 43  1  0
 42 66  1  0
 42115  1  0
 42116  1  0
 43 44  1  0
 44117  1  0
 45 46  2  0
 45118  1  0
 46119  1  0
 47120  1  0
 47121  1  0
 48 41  1  0
 48 56  1  0
 48 65  1  0
 48122  1  1
 49 50  1  0
 49 53  1  0
 49 64  1  0
 49123  1  1
 50 51  1  0
 50124  1  0
 50125  1  0
 51 52  1  0
 51126  1  0
 51127  1  0
 52128  1  0
 52129  1  0
 53 54  1  0
 54 55  2  0
 54130  1  0
 55 57  1  0
 55131  1  0
 56 69  2  0
 57 58  2  0
 57132  1  0
 58133  1  0
 59 60  1  0
 59 61  1  0
 59 62  1  0
 60134  1  0
 60135  1  0
 60136  1  0
 61137  1  0
 61138  1  0
 61139  1  0
 62140  1  0
 62141  1  0
 62142  1  0
 63 65  1  0
 63143  1  0
 63144  1  0
 63145  1  0
 64146  1  0
 65147  1  0
 68 83  1  0
 71 72  2  0
 71 73  1  0
 71 74  1  0
 72 76  1  0
 72 85  1  0
 73 84  2  0
 73 86  1  0
 74 75  1  0
 74148  1  0
 74149  1  0
 75 76  1  0
 75150  1  0
 75151  1  0
 76 77  1  0
 76 88  1  1
 77152  1  0
 77153  1  0
 77154  1  0
 78 80  1  0
 78 83  1  0
 78155  1  0
 78156  1  0
 79 81  1  0
 79 82  1  0
 79157  1  0
 79158  1  0
 80 85  1  0
 80159  1  0
 80160  1  0
 81 86  1  0
 81161  1  0
 81162  1  0
 82 87  1  0
 82163  1  0
 82164  1  0
 83165  1  0
 83166  1  0
 84 85  1  0
 86167  1  0
 87168  1  0
M  ISO  4   1 100  68 101  83 101  87 100
M  END
$$$$
89
     RDKit          3D

163171  0  0  0  0  0  0  0  0999 V2000
  -30.7652  -14.3608   20.6636 C   0  0  0  0  0  0  0  0  0100  0  0
  -30.4392  -12.2669   19.3775 C   0  0  0  0  0  0  0  0  0101  0  0
  -29.4791  -12.5281   18.1977 C   0  0  0  0  0  0  0  0  0102  0  0
  -27.9985  -12.3963   18.6038 C   0  0  0  0  0  0  0  0  0103  0  0
  -27.6639  -13.2170   19.8820 C   0  0  2  0  0  0  0  0  0104  0  0
  -28.6795  -12.9602   21.0279 C   0  0  0  0  0  0  0  0  0105  0  0
  -25.2633  -13.8245   20.5754 C   0  0  0  0  0  0  0  0  0106  0  0
  -24.1645  -13.0409   20.9408 C   0  0  0  0  0  0  0  0  0107  0  0
  -24.6400  -11.7009   20.8697 C   0  0  0  0  0  0  0  0  0108  0  0
  -23.9005  -10.4085   21.0420 C   0  0  0  0  0  0  0  0  0109  0  0
  -24.3588   -9.4123   21.9123 C   0  0  0  0  0  0  0  0  0110  0  0
  -23.6296   -8.2350   22.0803 C   0  0  0  0  0  0  0  0  0111  0  0
  -22.4385   -8.0419   21.3657 C   0  0  0  0  0  0  0  0  0112  0  0
  -22.0103   -9.0167   20.4678 C   0  0  0  0  0  0  0  0  0113  0  0
  -22.7317  -10.1925   20.3102 C   0  0  0  0  0  0  0  0  0114  0  0
  -21.6857   -6.0709   22.5391 C   0  0  0  0  0  0  0  0  0115  0  0
  -21.4064   -6.5490   23.8264 C   0  0  0  0  0  0  0  0  0116  0  0
  -21.3635   -5.6677   24.9085 C   0  0  0  0  0  0  0  0  0117  0  0
  -21.5973   -4.3067   24.7088 C   0  0  0  0  0  0  0  0  0118  0  0
  -21.8700   -3.8284   23.4282 C   0  0  0  0  0  0  0  0  0119  0  0
  -21.9144   -4.7056   22.3460 C   0  0  0  0  0  0  0  0  0120  0  0
  -22.8194  -13.5263   21.1763 C   0  0  0  0  0  0  0  0  0121  0  0
  -22.1559   -4.2206   21.1063 F   0  0  0  0  0  0  0  0  0122  0  0
  -21.5628   -3.4510   25.7555 F   0  0  0  0  0  0  0  0  0123  0  0
  -30.0261  -13.1803   20.4553 N   0  0  0  0  0  0  0  0  0124  0  0
  -26.2911  -12.9356   20.3443 N   0  0  0  0  0  0  0  0  0125  0  0
  -25.9236  -11.6675   20.5847 N   0  0  0  0  0  0  0  0  0126  0  0
  -22.0708  -12.7905   22.0005 N   0  0  0  0  0  0  0  0  0127  0  0
  -25.4117  -15.1773   20.4097 N   0  0  0  0  0  0  0  0  0128  0  0
  -31.7916  -14.6724   20.0536 O   0  0  0  0  0  0  0  0  0129  0  0
  -21.6670   -6.9022   21.4423 O   0  0  0  0  0  0  0  0  0130  0  0
  -22.3946  -14.5564   20.6568 O   0  0  0  0  0  0  0  0  0131  0  0
  -24.6048  -31.8614   23.2223 C   0  0  0  0  0  0  0  0  0100  0  0
  -25.8822  -32.4841   23.8616 C   0  0  1  0  0  0  0  0  0101  0  0
  -27.2536  -27.5042   20.1156 C   0  0  0  0  0  0  0  0  0102  0  0
  -25.5726  -33.8762   24.2210 N   0  0  0  0  0  0  0  0  0103  0  0
  -23.4066  -30.4859   21.5461 C   0  0  2  0  0  0  0  0  0104  0  0
  -24.8467  -28.9636   20.1247 C   0  0  0  0  0  0  0  0  0105  0  0
  -22.7412  -29.4652   22.5052 C   0  0  0  0  0  0  0  0  0106  0  0
  -18.0167  -28.1302   22.8626 C   0  0  0  0  0  0  0  0  0107  0  0
  -24.1342  -36.7390   23.2568 C   0  0  0  0  0  0  0  0  0108  0  0
  -25.9141  -30.8882   21.3456 C   0  0  0  0  0  0  0  0  0109  0  0
  -25.9930  -29.5029   20.7208 C   0  0  0  0  0  0  0  0  0110  0  0
  -27.1758  -28.7612   20.7331 C   0  0  0  0  0  0  0  0  0111  0  0
  -26.1032  -26.9836   19.5230 C   0  0  0  0  0  0  0  0  0112  0  0
  -24.9097  -27.7011   19.5331 C   0  0  0  0  0  0  0  0  0113  0  0
  -23.5715  -29.7899   20.1582 C   0  0  0  0  0  0  0  0  0114  0  0
  -25.3990  -36.3212   24.0232 C   0  0  1  0  0  0  0  0  0115  0  0
  -20.5793  -28.3813   23.1004 C   0  0  2  0  0  0  0  0  0116  0  0
  -20.6548  -26.9392   22.5411 C   0  0  0  0  0  0  0  0  0117  0  0
  -19.5615  -26.6407   21.5143 C   0  0  0  0  0  0  0  0  0118  0  0
  -18.1797  -26.7818   22.1673 C   0  0  0  0  0  0  0  0  0119  0  0
  -19.1385  -28.8769   23.2988 C   0  0  0  0  0  0  0  0  0120  0  0
  -18.9183  -30.1286   23.8878 C   0  0  0  0  0  0  0  0  0121  0  0
  -17.6396  -30.6493   24.0352 C   0  0  0  0  0  0  0  0  0122  0  0
  -25.9153  -34.9582   23.4993 C   0  0  0  0  0  0  0  0  0123  0  0
  -16.5415  -29.9068   23.6254 C   0  0  0  0  0  0  0  0  0124  0  0
  -16.7331  -28.6521   23.0586 C   0  0  0  0  0  0  0  0  0125  0  0
  -26.4583  -31.6439   25.0683 C   0  0  0  0  0  0  0  0  0126  0  0
  -25.3807  -31.3179   26.1374 C   0  0  0  0  0  0  0  0  0127  0  0
  -27.0530  -30.3024   24.5680 C   0  0  0  0  0  0  0  0  0128  0  0
  -27.6014  -32.4281   25.7651 C   0  0  0  0  0  0  0  0  0129  0  0
  -27.5629  -37.2220   24.8621 C   0  0  0  0  0  0  0  0  0130  0  0
  -21.4133  -29.3375   22.3735 N   0  0  0  0  0  0  0  0  0131  0  0
  -26.4706  -37.3372   23.9061 N   0  0  0  0  0  0  0  0  0132  0  0
  -24.6674  -31.0544   22.1178 N   0  0  0  0  0  0  0  0  0133  0  0
  -23.4259  -28.8150   23.2971 O   0  0  0  0  0  0  0  0  0134  0  0
  -28.3948  -26.7345   20.0089 O   0  0  0  0  0  0  0  0  0135  0  0
  -26.5870  -34.9065   22.4671 O   0  0  0  0  0  0  0  0  0136  0  0
  -23.5365  -32.1254   23.7833 O   0  0  0  0  0  0  0  0  0137  0  0
  -20.1145  -25.7241   24.7938 C   0  0  0  0  0  0  0  0  0  0  0  0
  -20.5579  -24.5252   22.3141 C   0  0  0  0  0  0  0  0  0  0  0  0
  -19.4278  -26.1770   23.6674 C   0  0  0  0  0  0  0  0  0  0  0  0
  -21.0230  -24.6717   24.6804 C   0  0  0  0  0  0  0  0  0  0  0  0
  -19.6494  -25.5776   22.4276 C   0  0  0  0  0  0  0  0  0  0  0  0
  -21.2447  -24.0722   23.4406 C   0  0  0  0  0  0  0  0  0  0  0  0
  -18.4614  -27.3066   23.8114 C   0  0  0  0  0  0  0  0  0  0  0  0
  -18.9200  -26.0526   21.1945 C   0  0  0  0  0  0  0  0  0  0  0  0
  -21.7385  -24.2160   25.9110 C   0  0  0  0  0  0  0  0  0  0  0  0
  -25.9385  -23.1651   25.6879 C   0  0  0  0  0  0  0  0  0  0  0  0
  -25.4457  -24.0841   26.8008 C   0  0  0  0  0  0  0  0  0  0  0  0
  -23.9482  -23.9432   27.0431 C   0  0  0  0  0  0  0  0  0  0  0  0
  -19.7965  -26.9250   20.3024 C   0  0  0  0  0  0  0  0  0  1  0  0
  -23.2178  -24.3372   25.8096 N   0  0  0  0  0  0  0  0  0  0  0  0
  -22.3612  -22.7681   23.2617 Cl  0  0  0  0  0  0  0  0  0  0  0  0
  -31.4485  -12.4701   19.0860 H   0  0  0  0  0  0  0  0  0  0  0  0
  -30.3970  -11.2460   19.6950 H   0  0  0  0  0  0  0  0  0  0  0  0
  -29.6870  -11.8204   17.4226 H   0  0  0  0  0  0  0  0  0  0  0  0
  -29.6375  -13.5326   17.8649 H   0  0  0  0  0  0  0  0  0  0  0  0
  -27.7830  -11.3650   18.7904 H   0  0  0  0  0  0  0  0  0  0  0  0
  -27.4028  -12.7801   17.8021 H   0  0  0  0  0  0  0  0  0  0  0  0
  -27.7353  -14.2503   19.6136 H   0  0  0  0  0  0  0  0  0  0  0  0
  -28.5890  -11.9550   21.3832 H   0  0  0  0  0  0  0  0  0  0  0  0
  -28.5005  -13.6134   21.8562 H   0  0  0  0  0  0  0  0  0  0  0  0
  -25.2399   -9.5495   22.4318 H   0  0  0  0  0  0  0  0  0  0  0  0
  -23.9663   -7.5070   22.7297 H   0  0  0  0  0  0  0  0  0  0  0  0
  -21.1515   -8.8641   19.9162 H   0  0  0  0  0  0  0  0  0  0  0  0
  -22.4016  -10.9115   19.6476 H   0  0  0  0  0  0  0  0  0  0  0  0
  -21.2319   -7.5552   23.9750 H   0  0  0  0  0  0  0  0  0  0  0  0
  -21.1589   -6.0228   25.8556 H   0  0  0  0  0  0  0  0  0  0  0  0
  -22.0396   -2.8212   23.2809 H   0  0  0  0  0  0  0  0  0  0  0  0
  -22.4401  -11.9703   22.4008 H   0  0  0  0  0  0  0  0  0  0  0  0
  -21.1493  -13.0679   22.2082 H   0  0  0  0  0  0  0  0  0  0  0  0
  -24.6538  -15.7807   20.5848 H   0  0  0  0  0  0  0  0  0  0  0  0
  -26.2762  -15.5453   20.1156 H   0  0  0  0  0  0  0  0  0  0  0  0
  -26.6778  -32.4663   23.1464 H   0  0  0  0  0  0  0  0  0  0  0  0
  -25.0747  -34.0282   25.0566 H   0  0  0  0  0  0  0  0  0  0  0  0
  -22.7881  -31.3489   21.4131 H   0  0  0  0  0  0  0  0  0  0  0  0
  -23.3854  -35.9823   23.3648 H   0  0  0  0  0  0  0  0  0  0  0  0
  -24.3696  -36.8624   22.2204 H   0  0  0  0  0  0  0  0  0  0  0  0
  -23.7669  -37.6632   23.6516 H   0  0  0  0  0  0  0  0  0  0  0  0
  -25.9445  -31.6237   20.5691 H   0  0  0  0  0  0  0  0  0  0  0  0
  -26.7436  -31.0079   22.0108 H   0  0  0  0  0  0  0  0  0  0  0  0
  -28.0090  -29.1452   21.2057 H   0  0  0  0  0  0  0  0  0  0  0  0
  -26.1369  -26.0560   19.0719 H   0  0  0  0  0  0  0  0  0  0  0  0
  -24.0652  -27.2961   19.0997 H   0  0  0  0  0  0  0  0  0  0  0  0
  -23.6156  -30.5365   19.3930 H   0  0  0  0  0  0  0  0  0  0  0  0
  -22.7355  -29.1425   19.9945 H   0  0  0  0  0  0  0  0  0  0  0  0
  -25.1353  -36.2335   25.0565 H   0  0  0  0  0  0  0  0  0  0  0  0
  -21.0070  -28.3206   24.0793 H   0  0  0  0  0  0  0  0  0  0  0  0
  -20.5555  -26.2518   23.3550 H   0  0  0  0  0  0  0  0  0  0  0  0
  -21.5974  -26.8362   22.0454 H   0  0  0  0  0  0  0  0  0  0  0  0
  -19.6810  -25.6422   21.1488 H   0  0  0  0  0  0  0  0  0  0  0  0
  -19.6406  -27.3343   20.7034 H   0  0  0  0  0  0  0  0  0  0  0  0
  -17.4282  -26.6888   21.4113 H   0  0  0  0  0  0  0  0  0  0  0  0
  -18.0803  -26.0130   22.9049 H   0  0  0  0  0  0  0  0  0  0  0  0
  -19.7265  -30.6774   24.2204 H   0  0  0  0  0  0  0  0  0  0  0  0
  -17.5064  -31.5856   24.4483 H   0  0  0  0  0  0  0  0  0  0  0  0
  -15.5878  -30.2839   23.7407 H   0  0  0  0  0  0  0  0  0  0  0  0
  -15.9120  -28.0941   22.7766 H   0  0  0  0  0  0  0  0  0  0  0  0
  -24.5787  -30.7757   25.6817 H   0  0  0  0  0  0  0  0  0  0  0  0
  -25.0041  -32.2289   26.5536 H   0  0  0  0  0  0  0  0  0  0  0  0
  -25.8166  -30.7245   26.9138 H   0  0  0  0  0  0  0  0  0  0  0  0
  -26.2892  -29.7335   24.0803 H   0  0  0  0  0  0  0  0  0  0  0  0
  -27.4336  -29.7484   25.4006 H   0  0  0  0  0  0  0  0  0  0  0  0
  -27.8466  -30.4994   23.8779 H   0  0  0  0  0  0  0  0  0  0  0  0
  -27.2251  -33.3632   26.1242 H   0  0  0  0  0  0  0  0  0  0  0  0
  -28.3902  -32.6065   25.0645 H   0  0  0  0  0  0  0  0  0  0  0  0
  -27.9772  -31.8555   26.5872 H   0  0  0  0  0  0  0  0  0  0  0  0
  -28.2744  -38.0016   24.6863 H   0  0  0  0  0  0  0  0  0  0  0  0
  -28.0396  -36.2711   24.7461 H   0  0  0  0  0  0  0  0  0  0  0  0
  -27.1773  -37.3087   25.8564 H   0  0  0  0  0  0  0  0  0  0  0  0
  -20.9627  -29.9365   21.7352 H   0  0  0  0  0  0  0  0  0  0  0  0
  -26.0447  -38.2561   24.0273 H   0  0  0  0  0  0  0  0  0  0  0  0
  -19.9505  -26.1676   25.7111 H   0  0  0  0  0  0  0  0  0  0  0  0
  -20.7219  -24.0818   21.3968 H   0  0  0  0  0  0  0  0  0  0  0  0
  -18.4345  -27.6250   24.8326 H   0  0  0  0  0  0  0  0  0  0  0  0
  -17.4864  -26.9821   23.5132 H   0  0  0  0  0  0  0  0  0  0  0  0
  -18.7710  -28.1220   23.1916 H   0  0  0  0  0  0  0  0  0  0  0  0
  -18.0653  -26.6204   21.4978 H   0  0  0  0  0  0  0  0  0  0  0  0
  -18.6359  -25.1892   20.6298 H   0  0  0  0  0  0  0  0  0  0  0  0
  -21.4929  -23.1894   26.0863 H   0  0  0  0  0  0  0  0  0  0  0  0
  -21.4227  -24.8485   26.7142 H   0  0  0  0  0  0  0  0  0  0  0  0
  -26.5137  -23.9098   25.1786 H   0  0  0  0  0  0  0  0  0  0  0  0
  -25.1245  -22.5152   25.9327 H   0  0  0  0  0  0  0  0  0  0  0  0
  -25.6570  -25.0974   26.5298 H   0  0  0  0  0  0  0  0  0  0  0  0
  -25.9516  -23.8084   27.7024 H   0  0  0  0  0  0  0  0  0  0  0  0
  -23.6546  -24.5789   27.8521 H   0  0  0  0  0  0  0  0  0  0  0  0
  -23.7166  -22.9284   27.2912 H   0  0  0  0  0  0  0  0  0  0  0  0
  -19.5448  -27.9331   20.5579 H   0  0  0  0  0  0  0  0  0  0  0  0
  -19.5675  -26.5037   19.3459 H   0  0  0  0  0  0  0  0  0  0  0  0
  -23.4454  -25.3091   25.5999 H   0  0  0  0  0  0  0  0  0  0  0  0
  -23.5146  -23.6942   25.0755 H   0  0  0  0  0  0  0  0  0  0  0  0
  1 25  1  0
  1 30  2  0
  1 80  1  0
  2  3  1  0
  2 25  1  0
  2 86  1  0
  2 87  1  0
  3  4  1  0
  3 88  1  0
  3 89  1  0
  4  5  1  0
  4 90  1  0
  4 91  1  0
  5  6  1  0
  5 26  1  0
  5 92  1  6
  6 25  1  0
  6 93  1  0
  6 94  1  0
  7  8  2  0
  7 26  1  0
  7 29  1  0
  8  9  1  0
  8 22  1  0
  9 10  1  0
  9 27  2  0
 10 11  2  0
 10 15  1  0
 11 12  1  0
 11 95  1  0
 12 13  2  0
 12 96  1  0
 13 14  1  0
 13 31  1  0
 14 15  2  0
 14 97  1  0
 15 98  1  0
 16 17  2  0
 16 21  1  0
 16 31  1  0
 17 18  1  0
 17 99  1  0
 18 19  2  0
 18100  1  0
 19 20  1  0
 19 24  1  0
 20 21  2  0
 20101  1  0
 21 23  1  0
 22 28  1  0
 22 32  2  0
 26 27  1  0
 28102  1  0
 28103  1  0
 29104  1  0
 29105  1  0
 33 34  1  0
 33 66  1  0
 33 70  2  0
 34 36  1  0
 34 59  1  0
 34106  1  6
 35 44  2  0
 35 45  1  0
 35 68  1  0
 36 56  1  0
 36107  1  0
 37 39  1  0
 37 47  1  0
 37 66  1  0
 37108  1  6
 38 43  2  0
 38 46  1  0
 38 47  1  0
 39 64  1  0
 39 67  2  0
 40 52  1  0
 40 53  2  0
 40 58  1  0
 41109  1  0
 41110  1  0
 41111  1  0
 42 43  1  0
 42 66  1  0
 42112  1  0
 42113  1  0
 43 44  1  0
 44114  1  0
 45 46  2  0
 45115  1  0
 46116  1  0
 47117  1  0
 47118  1  0
 48 41  1  0
 48 56  1  0
 48 65  1  0
 48119  1  1
 49 50  1  0
 49 53  1  0
 49 64  1  0
 49120  1  1
 50 51  1  0
 50121  1  0
 50122  1  0
 51 52  1  0
 51123  1  0
 51124  1  0
 52125  1  0
 52126  1  0
 53 54  1  0
 54 55  2  0
 54127  1  0
 55 57  1  0
 55128  1  0
 56 69  2  0
 57 58  2  0
 57129  1  0
 58130  1  0
 59 60  1  0
 59 61  1  0
 59 62  1  0
 60131  1  0
 60132  1  0
 60133  1  0
 61134  1  0
 61135  1  0
 61136  1  0
 62137  1  0
 62138  1  0
 62139  1  0
 63 65  1  0
 63140  1  0
 63141  1  0
 63142  1  0
 64143  1  0
 65144  1  0
 68 83  1  0
 71 73  2  0
 71 74  1  0
 71145  1  0
 72 75  2  0
 72 76  1  0
 72146  1  0
 73 75  1  0
 73 77  1  0
 74 76  2  0
 74 79  1  0
 75 78  1  0
 76 85  1  0
 77147  1  0
 77148  1  0
 77149  1  0
 78 83  1  0
 78150  1  0
 78151  1  0
 79 84  1  0
 79152  1  0
 79153  1  0
 80 81  1  0
 80154  1  0
 80155  1  0
 81 82  1  0
 81156  1  0
 81157  1  0
 82 84  1  0
 82158  1  0
 82159  1  0
 83160  1  0
 83161  1  0
 84162  1  0
 84163  1  0
M  CHG  1  84   1
M  ISO  4   1 100  68 101  80 100  83 101
M  END
$$$$
90
     RDKit          3D

161169  0  0  0  0  0  0  0  0999 V2000
  -30.7652  -14.3608   20.6636 C   0  0  0  0  0  0  0  0  0100  0  0
  -30.4392  -12.2669   19.3775 C   0  0  0  0  0  0  0  0  0101  0  0
  -29.4791  -12.5281   18.1977 C   0  0  0  0  0  0  0  0  0102  0  0
  -27.9985  -12.3963   18.6038 C   0  0  0  0  0  0  0  0  0103  0  0
  -27.6639  -13.2170   19.8820 C   0  0  2  0  0  0  0  0  0104  0  0
  -28.6795  -12.9602   21.0279 C   0  0  0  0  0  0  0  0  0105  0  0
  -25.2633  -13.8245   20.5754 C   0  0  0  0  0  0  0  0  0106  0  0
  -24.1645  -13.0409   20.9408 C   0  0  0  0  0  0  0  0  0107  0  0
  -24.6400  -11.7009   20.8697 C   0  0  0  0  0  0  0  0  0108  0  0
  -23.9005  -10.4085   21.0420 C   0  0  0  0  0  0  0  0  0109  0  0
  -24.3588   -9.4123   21.9123 C   0  0  0  0  0  0  0  0  0110  0  0
  -23.6296   -8.2350   22.0803 C   0  0  0  0  0  0  0  0  0111  0  0
  -22.4385   -8.0419   21.3657 C   0  0  0  0  0  0  0  0  0112  0  0
  -22.0103   -9.0167   20.4678 C   0  0  0  0  0  0  0  0  0113  0  0
  -22.7317  -10.1925   20.3102 C   0  0  0  0  0  0  0  0  0114  0  0
  -21.6857   -6.0709   22.5391 C   0  0  0  0  0  0  0  0  0115  0  0
  -21.4064   -6.5490   23.8264 C   0  0  0  0  0  0  0  0  0116  0  0
  -21.3635   -5.6677   24.9085 C   0  0  0  0  0  0  0  0  0117  0  0
  -21.5973   -4.3067   24.7088 C   0  0  0  0  0  0  0  0  0118  0  0
  -21.8700   -3.8284   23.4282 C   0  0  0  0  0  0  0  0  0119  0  0
  -21.9144   -4.7056   22.3460 C   0  0  0  0  0  0  0  0  0120  0  0
  -22.8194  -13.5263   21.1763 C   0  0  0  0  0  0  0  0  0121  0  0
  -22.1559   -4.2206   21.1063 F   0  0  0  0  0  0  0  0  0122  0  0
  -21.5628   -3.4510   25.7555 F   0  0  0  0  0  0  0  0  0123  0  0
  -30.0261  -13.1803   20.4553 N   0  0  0  0  0  0  0  0  0124  0  0
  -26.2911  -12.9356   20.3443 N   0  0  0  0  0  0  0  0  0125  0  0
  -25.9236  -11.6675   20.5847 N   0  0  0  0  0  0  0  0  0126  0  0
  -22.0708  -12.7905   22.0005 N   0  0  0  0  0  0  0  0  0127  0  0
  -25.4117  -15.1773   20.4097 N   0  0  0  0  0  0  0  0  0128  0  0
  -31.7916  -14.6724   20.0536 O   0  0  0  0  0  0  0  0  0129  0  0
  -21.6670   -6.9022   21.4423 O   0  0  0  0  0  0  0  0  0130  0  0
  -22.3946  -14.5564   20.6568 O   0  0  0  0  0  0  0  0  0131  0  0
  -24.6048  -31.8614   23.2223 C   0  0  0  0  0  0  0  0  0100  0  0
  -25.8822  -32.4841   23.8616 C   0  0  1  0  0  0  0  0  0101  0  0
  -27.2536  -27.5042   20.1156 C   0  0  0  0  0  0  0  0  0102  0  0
  -25.5726  -33.8762   24.2210 N   0  0  0  0  0  0  0  0  0103  0  0
  -23.4066  -30.4859   21.5461 C   0  0  2  0  0  0  0  0  0104  0  0
  -24.8467  -28.9636   20.1247 C   0  0  0  0  0  0  0  0  0105  0  0
  -22.7412  -29.4652   22.5052 C   0  0  0  0  0  0  0  0  0106  0  0
  -18.0167  -28.1302   22.8626 C   0  0  0  0  0  0  0  0  0107  0  0
  -24.1342  -36.7390   23.2568 C   0  0  0  0  0  0  0  0  0108  0  0
  -25.9141  -30.8882   21.3456 C   0  0  0  0  0  0  0  0  0109  0  0
  -25.9930  -29.5029   20.7208 C   0  0  0  0  0  0  0  0  0110  0  0
  -27.1758  -28.7612   20.7331 C   0  0  0  0  0  0  0  0  0111  0  0
  -26.1032  -26.9836   19.5230 C   0  0  0  0  0  0  0  0  0112  0  0
  -24.9097  -27.7011   19.5331 C   0  0  0  0  0  0  0  0  0113  0  0
  -23.5715  -29.7899   20.1582 C   0  0  0  0  0  0  0  0  0114  0  0
  -25.3990  -36.3212   24.0232 C   0  0  1  0  0  0  0  0  0115  0  0
  -20.5793  -28.3813   23.1004 C   0  0  2  0  0  0  0  0  0116  0  0
  -20.6548  -26.9392   22.5411 C   0  0  0  0  0  0  0  0  0117  0  0
  -19.5615  -26.6407   21.5143 C   0  0  0  0  0  0  0  0  0118  0  0
  -18.1797  -26.7818   22.1673 C   0  0  0  0  0  0  0  0  0119  0  0
  -19.1385  -28.8769   23.2988 C   0  0  0  0  0  0  0  0  0120  0  0
  -18.9183  -30.1286   23.8878 C   0  0  0  0  0  0  0  0  0121  0  0
  -17.6396  -30.6493   24.0352 C   0  0  0  0  0  0  0  0  0122  0  0
  -25.9153  -34.9582   23.4993 C   0  0  0  0  0  0  0  0  0123  0  0
  -16.5415  -29.9068   23.6254 C   0  0  0  0  0  0  0  0  0124  0  0
  -16.7331  -28.6521   23.0586 C   0  0  0  0  0  0  0  0  0125  0  0
  -26.4583  -31.6439   25.0683 C   0  0  0  0  0  0  0  0  0126  0  0
  -25.3807  -31.3179   26.1374 C   0  0  0  0  0  0  0  0  0127  0  0
  -27.0530  -30.3024   24.5680 C   0  0  0  0  0  0  0  0  0128  0  0
  -27.6014  -32.4281   25.7651 C   0  0  0  0  0  0  0  0  0129  0  0
  -27.5629  -37.2220   24.8621 C   0  0  0  0  0  0  0  0  0130  0  0
  -21.4133  -29.3375   22.3735 N   0  0  0  0  0  0  0  0  0131  0  0
  -26.4706  -37.3372   23.9061 N   0  0  0  0  0  0  0  0  0132  0  0
  -24.6674  -31.0544   22.1178 N   0  0  0  0  0  0  0  0  0133  0  0
  -23.4259  -28.8150   23.2971 O   0  0  0  0  0  0  0  0  0134  0  0
  -28.3948  -26.7345   20.0089 O   0  0  0  0  0  0  0  0  0135  0  0
  -26.5870  -34.9065   22.4671 O   0  0  0  0  0  0  0  0  0136  0  0
  -23.5365  -32.1254   23.7833 O   0  0  0  0  0  0  0  0  0137  0  0
  -30.6120  -27.1110   22.3373 C   0  0  0  0  0  0  0  0  0  0  0  0
  -31.3387  -24.8952   21.7055 C   0  0  0  0  0  0  0  0  0  0  0  0
  -30.9951  -25.8180   22.6935 C   0  0  0  0  0  0  0  0  0  0  0  0
  -30.5723  -27.4813   20.9930 C   0  0  0  0  0  0  0  0  0  0  0  0
  -31.2991  -25.2655   20.3612 C   0  0  0  0  0  0  0  0  0  0  0  0
  -30.9159  -26.5586   20.0050 C   0  0  0  0  0  0  0  0  0  0  0  0
  -30.1612  -28.8644   20.6153 C   0  0  0  0  0  0  0  0  0  0  0  0
  -31.0393  -25.4175   24.1481 C   0  0  0  0  0  0  0  0  0  0  0  0
  -32.4341  -22.2383   18.3894 C   0  0  0  0  0  0  0  0  0  0  0  0
  -32.0494  -22.9907   19.6627 C   0  0  0  0  0  0  0  0  0  0  0  0
  -31.2909  -22.0838   17.3886 C   0  0  0  0  0  0  0  0  0  0  0  0
  -29.7122  -24.8433   24.6320 C   0  0  0  0  0  0  0  0  0  1  0  0
  -31.6477  -24.3304   19.3644 N   0  0  0  0  0  0  0  0  0  0  0  0
  -30.1823  -21.3295   17.9298 N   0  0  0  0  0  0  0  0  0  0  0  0
  -30.8755  -26.9156   18.7123 F   0  0  0  0  0  0  0  0  0  0  0  0
  -31.4485  -12.4701   19.0860 H   0  0  0  0  0  0  0  0  0  0  0  0
  -30.3970  -11.2460   19.6950 H   0  0  0  0  0  0  0  0  0  0  0  0
  -29.6870  -11.8204   17.4226 H   0  0  0  0  0  0  0  0  0  0  0  0
  -29.6375  -13.5326   17.8649 H   0  0  0  0  0  0  0  0  0  0  0  0
  -27.7830  -11.3650   18.7904 H   0  0  0  0  0  0  0  0  0  0  0  0
  -27.4028  -12.7801   17.8021 H   0  0  0  0  0  0  0  0  0  0  0  0
  -27.7353  -14.2503   19.6136 H   0  0  0  0  0  0  0  0  0  0  0  0
  -28.5890  -11.9550   21.3832 H   0  0  0  0  0  0  0  0  0  0  0  0
  -28.5005  -13.6134   21.8562 H   0  0  0  0  0  0  0  0  0  0  0  0
  -25.2399   -9.5495   22.4318 H   0  0  0  0  0  0  0  0  0  0  0  0
  -23.9663   -7.5070   22.7297 H   0  0  0  0  0  0  0  0  0  0  0  0
  -21.1515   -8.8641   19.9162 H   0  0  0  0  0  0  0  0  0  0  0  0
  -22.4016  -10.9115   19.6476 H   0  0  0  0  0  0  0  0  0  0  0  0
  -21.2319   -7.5552   23.9750 H   0  0  0  0  0  0  0  0  0  0  0  0
  -21.1589   -6.0228   25.8556 H   0  0  0  0  0  0  0  0  0  0  0  0
  -22.0396   -2.8212   23.2809 H   0  0  0  0  0  0  0  0  0  0  0  0
  -22.4401  -11.9703   22.4008 H   0  0  0  0  0  0  0  0  0  0  0  0
  -21.1493  -13.0679   22.2082 H   0  0  0  0  0  0  0  0  0  0  0  0
  -24.6538  -15.7807   20.5848 H   0  0  0  0  0  0  0  0  0  0  0  0
  -26.2762  -15.5453   20.1156 H   0  0  0  0  0  0  0  0  0  0  0  0
  -26.6778  -32.4663   23.1464 H   0  0  0  0  0  0  0  0  0  0  0  0
  -25.0747  -34.0282   25.0566 H   0  0  0  0  0  0  0  0  0  0  0  0
  -22.7881  -31.3489   21.4131 H   0  0  0  0  0  0  0  0  0  0  0  0
  -23.3854  -35.9823   23.3648 H   0  0  0  0  0  0  0  0  0  0  0  0
  -24.3696  -36.8624   22.2204 H   0  0  0  0  0  0  0  0  0  0  0  0
  -23.7669  -37.6632   23.6516 H   0  0  0  0  0  0  0  0  0  0  0  0
  -25.9445  -31.6237   20.5691 H   0  0  0  0  0  0  0  0  0  0  0  0
  -26.7436  -31.0079   22.0108 H   0  0  0  0  0  0  0  0  0  0  0  0
  -28.0090  -29.1452   21.2057 H   0  0  0  0  0  0  0  0  0  0  0  0
  -26.1369  -26.0560   19.0719 H   0  0  0  0  0  0  0  0  0  0  0  0
  -24.0652  -27.2961   19.0997 H   0  0  0  0  0  0  0  0  0  0  0  0
  -23.6156  -30.5365   19.3930 H   0  0  0  0  0  0  0  0  0  0  0  0
  -22.7355  -29.1425   19.9945 H   0  0  0  0  0  0  0  0  0  0  0  0
  -25.1353  -36.2335   25.0565 H   0  0  0  0  0  0  0  0  0  0  0  0
  -21.0070  -28.3206   24.0793 H   0  0  0  0  0  0  0  0  0  0  0  0
  -20.5555  -26.2518   23.3550 H   0  0  0  0  0  0  0  0  0  0  0  0
  -21.5974  -26.8362   22.0454 H   0  0  0  0  0  0  0  0  0  0  0  0
  -19.6810  -25.6422   21.1488 H   0  0  0  0  0  0  0  0  0  0  0  0
  -19.6406  -27.3343   20.7034 H   0  0  0  0  0  0  0  0  0  0  0  0
  -17.4282  -26.6888   21.4113 H   0  0  0  0  0  0  0  0  0  0  0  0
  -18.0803  -26.0130   22.9049 H   0  0  0  0  0  0  0  0  0  0  0  0
  -19.7265  -30.6774   24.2204 H   0  0  0  0  0  0  0  0  0  0  0  0
  -17.5064  -31.5856   24.4483 H   0  0  0  0  0  0  0  0  0  0  0  0
  -15.5878  -30.2839   23.7407 H   0  0  0  0  0  0  0  0  0  0  0  0
  -15.9120  -28.0941   22.7766 H   0  0  0  0  0  0  0  0  0  0  0  0
  -24.5787  -30.7757   25.6817 H   0  0  0  0  0  0  0  0  0  0  0  0
  -25.0041  -32.2289   26.5536 H   0  0  0  0  0  0  0  0  0  0  0  0
  -25.8166  -30.7245   26.9138 H   0  0  0  0  0  0  0  0  0  0  0  0
  -26.2892  -29.7335   24.0803 H   0  0  0  0  0  0  0  0  0  0  0  0
  -27.4336  -29.7484   25.4006 H   0  0  0  0  0  0  0  0  0  0  0  0
  -27.8466  -30.4994   23.8779 H   0  0  0  0  0  0  0  0  0  0  0  0
  -27.2251  -33.3632   26.1242 H   0  0  0  0  0  0  0  0  0  0  0  0
  -28.3902  -32.6065   25.0645 H   0  0  0  0  0  0  0  0  0  0  0  0
  -27.9772  -31.8555   26.5872 H   0  0  0  0  0  0  0  0  0  0  0  0
  -28.2744  -38.0016   24.6863 H   0  0  0  0  0  0  0  0  0  0  0  0
  -28.0396  -36.2711   24.7461 H   0  0  0  0  0  0  0  0  0  0  0  0
  -27.1773  -37.3087   25.8564 H   0  0  0  0  0  0  0  0  0  0  0  0
  -20.9627  -29.9365   21.7352 H   0  0  0  0  0  0  0  0  0  0  0  0
  -26.0447  -38.2561   24.0273 H   0  0  0  0  0  0  0  0  0  0  0  0
  -30.3579  -27.7937   23.0683 H   0  0  0  0  0  0  0  0  0  0  0  0
  -31.6222  -23.9385   21.9691 H   0  0  0  0  0  0  0  0  0  0  0  0
  -29.9369  -29.4238   21.4994 H   0  0  0  0  0  0  0  0  0  0  0  0
  -29.2932  -28.8206   19.9912 H   0  0  0  0  0  0  0  0  0  0  0  0
  -30.9586  -29.3410   20.0843 H   0  0  0  0  0  0  0  0  0  0  0  0
  -31.2752  -26.2803   24.7353 H   0  0  0  0  0  0  0  0  0  0  0  0
  -31.7833  -24.6560   24.2550 H   0  0  0  0  0  0  0  0  0  0  0  0
  -32.7737  -21.2619   18.6654 H   0  0  0  0  0  0  0  0  0  0  0  0
  -33.1926  -22.8174   17.9054 H   0  0  0  0  0  0  0  0  0  0  0  0
  -32.8918  -23.0165   20.3220 H   0  0  0  0  0  0  0  0  0  0  0  0
  -31.2281  -22.4831   20.1238 H   0  0  0  0  0  0  0  0  0  0  0  0
  -31.6598  -21.5777   16.5210 H   0  0  0  0  0  0  0  0  0  0  0  0
  -30.9328  -23.0632   17.1488 H   0  0  0  0  0  0  0  0  0  0  0  0
  -29.2699  -25.3138   25.4852 H   0  0  0  0  0  0  0  0  0  0  0  0
  -29.5419  -23.8465   24.9818 H   0  0  0  0  0  0  0  0  0  0  0  0
  -31.6129  -24.6124   18.4218 H   0  0  0  0  0  0  0  0  0  0  0  0
  -29.2953  -21.7565   17.9405 H   0  0  0  0  0  0  0  0  0  0  0  0
  1 25  1  0
  1 30  2  0
  1 84  1  0
  2  3  1  0
  2 25  1  0
  2 86  1  0
  2 87  1  0
  3  4  1  0
  3 88  1  0
  3 89  1  0
  4  5  1  0
  4 90  1  0
  4 91  1  0
  5  6  1  0
  5 26  1  0
  5 92  1  6
  6 25  1  0
  6 93  1  0
  6 94  1  0
  7  8  2  0
  7 26  1  0
  7 29  1  0
  8  9  1  0
  8 22  1  0
  9 10  1  0
  9 27  2  0
 10 11  2  0
 10 15  1  0
 11 12  1  0
 11 95  1  0
 12 13  2  0
 12 96  1  0
 13 14  1  0
 13 31  1  0
 14 15  2  0
 14 97  1  0
 15 98  1  0
 16 17  2  0
 16 21  1  0
 16 31  1  0
 17 18  1  0
 17 99  1  0
 18 19  2  0
 18100  1  0
 19 20  1  0
 19 24  1  0
 20 21  2  0
 20101  1  0
 21 23  1  0
 22 28  1  0
 22 32  2  0
 26 27  1  0
 28102  1  0
 28103  1  0
 29104  1  0
 29105  1  0
 33 34  1  0
 33 66  1  0
 33 70  2  0
 34 36  1  0
 34 59  1  0
 34106  1  6
 35 44  2  0
 35 45  1  0
 35 68  1  0
 36 56  1  0
 36107  1  0
 37 39  1  0
 37 47  1  0
 37 66  1  0
 37108  1  6
 38 43  2  0
 38 46  1  0
 38 47  1  0
 39 64  1  0
 39 67  2  0
 40 52  1  0
 40 53  2  0
 40 58  1  0
 41109  1  0
 41110  1  0
 41111  1  0
 42 43  1  0
 42 66  1  0
 42112  1  0
 42113  1  0
 43 44  1  0
 44114  1  0
 45 46  2  0
 45115  1  0
 46116  1  0
 47117  1  0
 47118  1  0
 48 41  1  0
 48 56  1  0
 48 65  1  0
 48119  1  1
 49 50  1  0
 49 53  1  0
 49 64  1  0
 49120  1  1
 50 51  1  0
 50121  1  0
 50122  1  0
 51 52  1  0
 51123  1  0
 51124  1  0
 52125  1  0
 52126  1  0
 53 54  1  0
 54 55  2  0
 54127  1  0
 55 57  1  0
 55128  1  0
 56 69  2  0
 57 58  2  0
 57129  1  0
 58130  1  0
 59 60  1  0
 59 61  1  0
 59 62  1  0
 60131  1  0
 60132  1  0
 60133  1  0
 61134  1  0
 61135  1  0
 61136  1  0
 62137  1  0
 62138  1  0
 62139  1  0
 63 65  1  0
 63140  1  0
 63141  1  0
 63142  1  0
 64143  1  0
 65144  1  0
 68 82  1  0
 71 73  2  0
 71 74  1  0
 71145  1  0
 72 73  1  0
 72 75  2  0
 72146  1  0
 73 78  1  0
 74 76  2  0
 74 77  1  0
 75 76  1  0
 75 83  1  0
 76 85  1  0
 77147  1  0
 77148  1  0
 77149  1  0
 78 82  1  0
 78150  1  0
 78151  1  0
 79 80  1  0
 79 81  1  0
 79152  1  0
 79153  1  0
 80 83  1  0
 80154  1  0
 80155  1  0
 81 84  1  0
 81156  1  0
 81157  1  0
 82158  1  0
 82159  1  0
 83160  1  0
 84161  1  0
M  ISO  4   1 100  68 101  82 101  84 100
M  END
$$$$
91
     RDKit          3D

177186  0  0  0  0  0  0  0  0999 V2000
  -30.7652  -14.3608   20.6636 C   0  0  0  0  0  0  0  0  0100  0  0
  -30.4392  -12.2669   19.3775 C   0  0  0  0  0  0  0  0  0101  0  0
  -29.4791  -12.5281   18.1977 C   0  0  0  0  0  0  0  0  0102  0  0
  -27.9985  -12.3963   18.6038 C   0  0  0  0  0  0  0  0  0103  0  0
  -27.6639  -13.2170   19.8820 C   0  0  2  0  0  0  0  0  0104  0  0
  -28.6795  -12.9602   21.0279 C   0  0  0  0  0  0  0  0  0105  0  0
  -25.2633  -13.8245   20.5754 C   0  0  0  0  0  0  0  0  0106  0  0
  -24.1645  -13.0409   20.9408 C   0  0  0  0  0  0  0  0  0107  0  0
  -24.6400  -11.7009   20.8697 C   0  0  0  0  0  0  0  0  0108  0  0
  -23.9005  -10.4085   21.0420 C   0  0  0  0  0  0  0  0  0109  0  0
  -24.3588   -9.4123   21.9123 C   0  0  0  0  0  0  0  0  0110  0  0
  -23.6296   -8.2350   22.0803 C   0  0  0  0  0  0  0  0  0111  0  0
  -22.4385   -8.0419   21.3657 C   0  0  0  0  0  0  0  0  0112  0  0
  -22.0103   -9.0167   20.4678 C   0  0  0  0  0  0  0  0  0113  0  0
  -22.7317  -10.1925   20.3102 C   0  0  0  0  0  0  0  0  0114  0  0
  -21.6857   -6.0709   22.5391 C   0  0  0  0  0  0  0  0  0115  0  0
  -21.4064   -6.5490   23.8264 C   0  0  0  0  0  0  0  0  0116  0  0
  -21.3635   -5.6677   24.9085 C   0  0  0  0  0  0  0  0  0117  0  0
  -21.5973   -4.3067   24.7088 C   0  0  0  0  0  0  0  0  0118  0  0
  -21.8700   -3.8284   23.4282 C   0  0  0  0  0  0  0  0  0119  0  0
  -21.9144   -4.7056   22.3460 C   0  0  0  0  0  0  0  0  0120  0  0
  -22.8194  -13.5263   21.1763 C   0  0  0  0  0  0  0  0  0121  0  0
  -22.1559   -4.2206   21.1063 F   0  0  0  0  0  0  0  0  0122  0  0
  -21.5628   -3.4510   25.7555 F   0  0  0  0  0  0  0  0  0123  0  0
  -30.0261  -13.1803   20.4553 N   0  0  0  0  0  0  0  0  0124  0  0
  -26.2911  -12.9356   20.3443 N   0  0  0  0  0  0  0  0  0125  0  0
  -25.9236  -11.6675   20.5847 N   0  0  0  0  0  0  0  0  0126  0  0
  -22.0708  -12.7905   22.0005 N   0  0  0  0  0  0  0  0  0127  0  0
  -25.4117  -15.1773   20.4097 N   0  0  0  0  0  0  0  0  0128  0  0
  -31.7916  -14.6724   20.0536 O   0  0  0  0  0  0  0  0  0129  0  0
  -21.6670   -6.9022   21.4423 O   0  0  0  0  0  0  0  0  0130  0  0
  -22.3946  -14.5564   20.6568 O   0  0  0  0  0  0  0  0  0131  0  0
  -24.6048  -31.8614   23.2223 C   0  0  0  0  0  0  0  0  0100  0  0
  -25.8822  -32.4841   23.8616 C   0  0  1  0  0  0  0  0  0101  0  0
  -27.2536  -27.5042   20.1156 C   0  0  0  0  0  0  0  0  0102  0  0
  -25.5726  -33.8762   24.2210 N   0  0  0  0  0  0  0  0  0103  0  0
  -23.4066  -30.4859   21.5461 C   0  0  2  0  0  0  0  0  0104  0  0
  -24.8467  -28.9636   20.1247 C   0  0  0  0  0  0  0  0  0105  0  0
  -22.7412  -29.4652   22.5052 C   0  0  0  0  0  0  0  0  0106  0  0
  -18.0167  -28.1302   22.8626 C   0  0  0  0  0  0  0  0  0107  0  0
  -24.1342  -36.7390   23.2568 C   0  0  0  0  0  0  0  0  0108  0  0
  -25.9141  -30.8882   21.3456 C   0  0  0  0  0  0  0  0  0109  0  0
  -25.9930  -29.5029   20.7208 C   0  0  0  0  0  0  0  0  0110  0  0
  -27.1758  -28.7612   20.7331 C   0  0  0  0  0  0  0  0  0111  0  0
  -26.1032  -26.9836   19.5230 C   0  0  0  0  0  0  0  0  0112  0  0
  -24.9097  -27.7011   19.5331 C   0  0  0  0  0  0  0  0  0113  0  0
  -23.5715  -29.7899   20.1582 C   0  0  0  0  0  0  0  0  0114  0  0
  -25.3990  -36.3212   24.0232 C   0  0  1  0  0  0  0  0  0115  0  0
  -20.5793  -28.3813   23.1004 C   0  0  2  0  0  0  0  0  0116  0  0
  -20.6548  -26.9392   22.5411 C   0  0  0  0  0  0  0  0  0117  0  0
  -19.5615  -26.6407   21.5143 C   0  0  0  0  0  0  0  0  0118  0  0
  -18.1797  -26.7818   22.1673 C   0  0  0  0  0  0  0  0  0119  0  0
  -19.1385  -28.8769   23.2988 C   0  0  0  0  0  0  0  0  0120  0  0
  -18.9183  -30.1286   23.8878 C   0  0  0  0  0  0  0  0  0121  0  0
  -17.6396  -30.6493   24.0352 C   0  0  0  0  0  0  0  0  0122  0  0
  -25.9153  -34.9582   23.4993 C   0  0  0  0  0  0  0  0  0123  0  0
  -16.5415  -29.9068   23.6254 C   0  0  0  0  0  0  0  0  0124  0  0
  -16.7331  -28.6521   23.0586 C   0  0  0  0  0  0  0  0  0125  0  0
  -26.4583  -31.6439   25.0683 C   0  0  0  0  0  0  0  0  0126  0  0
  -25.3807  -31.3179   26.1374 C   0  0  0  0  0  0  0  0  0127  0  0
  -27.0530  -30.3024   24.5680 C   0  0  0  0  0  0  0  0  0128  0  0
  -27.6014  -32.4281   25.7651 C   0  0  0  0  0  0  0  0  0129  0  0
  -27.5629  -37.2220   24.8621 C   0  0  0  0  0  0  0  0  0130  0  0
  -21.4133  -29.3375   22.3735 N   0  0  0  0  0  0  0  0  0131  0  0
  -26.4706  -37.3372   23.9061 N   0  0  0  0  0  0  0  0  0132  0  0
  -24.6674  -31.0544   22.1178 N   0  0  0  0  0  0  0  0  0133  0  0
  -23.4259  -28.8150   23.2971 O   0  0  0  0  0  0  0  0  0134  0  0
  -28.3948  -26.7345   20.0089 O   0  0  0  0  0  0  0  0  0135  0  0
  -26.5870  -34.9065   22.4671 O   0  0  0  0  0  0  0  0  0136  0  0
  -23.5365  -32.1254   23.7833 O   0  0  0  0  0  0  0  0  0137  0  0
  -23.8565  -24.7219   16.1163 C   0  0  0  0  0  0  0  0  0  0  0  0
  -22.8402  -25.5993   15.6579 C   0  0  0  0  0  0  0  0  0  0  0  0
  -23.2337  -23.7069   16.8090 C   0  0  0  0  0  0  0  0  0  0  0  0
  -21.6281  -25.0963   16.0831 C   0  0  0  0  0  0  0  0  0  0  0  0
  -21.5354  -21.9939   18.0375 C   0  0  0  0  0  0  0  0  0  0  0  0
  -21.0107  -23.0639   17.4139 C   0  0  0  0  0  0  0  0  0  0  0  0
  -23.7118  -22.5274   17.5052 C   0  0  0  0  0  0  0  0  0  0  0  0
  -25.3046  -24.8940   15.8772 C   0  0  0  0  0  0  0  0  0  0  0  0
  -20.2608  -25.6222   15.8770 C   0  0  0  0  0  0  0  0  0  0  0  0
  -23.0399  -26.8318   14.8669 C   0  0  0  0  0  0  0  0  0  1  0  0
  -25.1740  -22.2319   17.5576 C   0  0  0  0  0  0  0  0  0  0  0  0
  -25.4751  -21.1316   18.5718 C   0  0  0  0  0  0  0  0  0  0  0  0
  -26.9720  -20.8171   18.6657 C   0  0  0  0  0  0  0  0  0  0  0  0
  -27.2982  -19.7075   19.6704 C   0  0  0  0  0  0  0  0  0  0  0  0
  -28.7897  -19.3741   19.7483 C   0  0  0  0  0  0  0  0  0  0  0  0
  -29.0587  -18.2775   20.7816 C   0  0  0  0  0  0  0  0  0  0  0  0
  -30.5516  -17.9655   20.8858 C   0  0  0  0  0  0  0  0  0  0  0  0
  -30.8160  -16.8467   21.8861 C   0  0  0  0  0  0  0  0  0  0  0  0
  -22.8887  -21.7024   18.0976 N   0  0  0  0  0  0  0  0  0  0  0  0
  -21.8750  -23.9440   16.7835 N   0  0  0  0  0  0  0  0  0  0  0  0
  -30.1380  -15.6262   21.5101 N   0  0  0  0  0  0  0  0  0  0  0  0
  -31.4485  -12.4701   19.0860 H   0  0  0  0  0  0  0  0  0  0  0  0
  -30.3970  -11.2460   19.6950 H   0  0  0  0  0  0  0  0  0  0  0  0
  -29.6870  -11.8204   17.4226 H   0  0  0  0  0  0  0  0  0  0  0  0
  -29.6375  -13.5326   17.8649 H   0  0  0  0  0  0  0  0  0  0  0  0
  -27.7830  -11.3650   18.7904 H   0  0  0  0  0  0  0  0  0  0  0  0
  -27.4028  -12.7801   17.8021 H   0  0  0  0  0  0  0  0  0  0  0  0
  -27.7353  -14.2503   19.6136 H   0  0  0  0  0  0  0  0  0  0  0  0
  -28.5890  -11.9550   21.3832 H   0  0  0  0  0  0  0  0  0  0  0  0
  -28.5005  -13.6134   21.8562 H   0  0  0  0  0  0  0  0  0  0  0  0
  -25.2399   -9.5495   22.4318 H   0  0  0  0  0  0  0  0  0  0  0  0
  -23.9663   -7.5070   22.7297 H   0  0  0  0  0  0  0  0  0  0  0  0
  -21.1515   -8.8641   19.9162 H   0  0  0  0  0  0  0  0  0  0  0  0
  -22.4016  -10.9115   19.6476 H   0  0  0  0  0  0  0  0  0  0  0  0
  -21.2319   -7.5552   23.9750 H   0  0  0  0  0  0  0  0  0  0  0  0
  -21.1589   -6.0228   25.8556 H   0  0  0  0  0  0  0  0  0  0  0  0
  -22.0396   -2.8212   23.2809 H   0  0  0  0  0  0  0  0  0  0  0  0
  -22.4401  -11.9703   22.4008 H   0  0  0  0  0  0  0  0  0  0  0  0
  -21.1493  -13.0679   22.2082 H   0  0  0  0  0  0  0  0  0  0  0  0
  -24.6538  -15.7807   20.5848 H   0  0  0  0  0  0  0  0  0  0  0  0
  -26.2762  -15.5453   20.1156 H   0  0  0  0  0  0  0  0  0  0  0  0
  -26.6778  -32.4663   23.1464 H   0  0  0  0  0  0  0  0  0  0  0  0
  -25.0747  -34.0282   25.0566 H   0  0  0  0  0  0  0  0  0  0  0  0
  -22.7881  -31.3489   21.4131 H   0  0  0  0  0  0  0  0  0  0  0  0
  -23.3854  -35.9823   23.3648 H   0  0  0  0  0  0  0  0  0  0  0  0
  -24.3696  -36.8624   22.2204 H   0  0  0  0  0  0  0  0  0  0  0  0
  -23.7669  -37.6632   23.6516 H   0  0  0  0  0  0  0  0  0  0  0  0
  -25.9445  -31.6237   20.5691 H   0  0  0  0  0  0  0  0  0  0  0  0
  -26.7436  -31.0079   22.0108 H   0  0  0  0  0  0  0  0  0  0  0  0
  -28.0090  -29.1452   21.2057 H   0  0  0  0  0  0  0  0  0  0  0  0
  -26.1369  -26.0560   19.0719 H   0  0  0  0  0  0  0  0  0  0  0  0
  -24.0652  -27.2961   19.0997 H   0  0  0  0  0  0  0  0  0  0  0  0
  -23.6156  -30.5365   19.3930 H   0  0  0  0  0  0  0  0  0  0  0  0
  -22.7355  -29.1425   19.9945 H   0  0  0  0  0  0  0  0  0  0  0  0
  -25.1353  -36.2335   25.0565 H   0  0  0  0  0  0  0  0  0  0  0  0
  -21.0070  -28.3206   24.0793 H   0  0  0  0  0  0  0  0  0  0  0  0
  -20.5555  -26.2518   23.3550 H   0  0  0  0  0  0  0  0  0  0  0  0
  -21.5974  -26.8362   22.0454 H   0  0  0  0  0  0  0  0  0  0  0  0
  -19.6810  -25.6422   21.1488 H   0  0  0  0  0  0  0  0  0  0  0  0
  -19.6406  -27.3343   20.7034 H   0  0  0  0  0  0  0  0  0  0  0  0
  -17.4282  -26.6888   21.4113 H   0  0  0  0  0  0  0  0  0  0  0  0
  -18.0803  -26.0130   22.9049 H   0  0  0  0  0  0  0  0  0  0  0  0
  -19.7265  -30.6774   24.2204 H   0  0  0  0  0  0  0  0  0  0  0  0
  -17.5064  -31.5856   24.4483 H   0  0  0  0  0  0  0  0  0  0  0  0
  -15.5878  -30.2839   23.7407 H   0  0  0  0  0  0  0  0  0  0  0  0
  -15.9120  -28.0941   22.7766 H   0  0  0  0  0  0  0  0  0  0  0  0
  -24.5787  -30.7757   25.6817 H   0  0  0  0  0  0  0  0  0  0  0  0
  -25.0041  -32.2289   26.5536 H   0  0  0  0  0  0  0  0  0  0  0  0
  -25.8166  -30.7245   26.9138 H   0  0  0  0  0  0  0  0  0  0  0  0
  -26.2892  -29.7335   24.0803 H   0  0  0  0  0  0  0  0  0  0  0  0
  -27.4336  -29.7484   25.4006 H   0  0  0  0  0  0  0  0  0  0  0  0
  -27.8466  -30.4994   23.8779 H   0  0  0  0  0  0  0  0  0  0  0  0
  -27.2251  -33.3632   26.1242 H   0  0  0  0  0  0  0  0  0  0  0  0
  -28.3902  -32.6065   25.0645 H   0  0  0  0  0  0  0  0  0  0  0  0
  -27.9772  -31.8555   26.5872 H   0  0  0  0  0  0  0  0  0  0  0  0
  -28.2744  -38.0016   24.6863 H   0  0  0  0  0  0  0  0  0  0  0  0
  -28.0396  -36.2711   24.7461 H   0  0  0  0  0  0  0  0  0  0  0  0
  -27.1773  -37.3087   25.8564 H   0  0  0  0  0  0  0  0  0  0  0  0
  -20.9627  -29.9365   21.7352 H   0  0  0  0  0  0  0  0  0  0  0  0
  -26.0447  -38.2561   24.0273 H   0  0  0  0  0  0  0  0  0  0  0  0
  -20.8838  -21.3439   18.5043 H   0  0  0  0  0  0  0  0  0  0  0  0
  -19.9914  -23.2249   17.4053 H   0  0  0  0  0  0  0  0  0  0  0  0
  -25.4684  -25.7832   15.3050 H   0  0  0  0  0  0  0  0  0  0  0  0
  -25.6801  -24.0491   15.3387 H   0  0  0  0  0  0  0  0  0  0  0  0
  -25.8138  -24.9744   16.8148 H   0  0  0  0  0  0  0  0  0  0  0  0
  -20.3085  -26.5258   15.3059 H   0  0  0  0  0  0  0  0  0  0  0  0
  -19.8093  -25.8234   16.8260 H   0  0  0  0  0  0  0  0  0  0  0  0
  -19.6757  -24.8977   15.3501 H   0  0  0  0  0  0  0  0  0  0  0  0
  -22.2941  -27.5953   14.9433 H   0  0  0  0  0  0  0  0  0  0  0  0
  -23.1304  -26.9408   13.8063 H   0  0  0  0  0  0  0  0  0  0  0  0
  -25.7004  -23.1201   17.8386 H   0  0  0  0  0  0  0  0  0  0  0  0
  -25.4888  -21.8989   16.5907 H   0  0  0  0  0  0  0  0  0  0  0  0
  -24.9550  -20.2433   18.2796 H   0  0  0  0  0  0  0  0  0  0  0  0
  -25.1534  -21.4764   19.5323 H   0  0  0  0  0  0  0  0  0  0  0  0
  -27.4875  -21.7063   18.9631 H   0  0  0  0  0  0  0  0  0  0  0  0
  -27.2836  -20.4724   17.7019 H   0  0  0  0  0  0  0  0  0  0  0  0
  -26.7681  -18.8236   19.3829 H   0  0  0  0  0  0  0  0  0  0  0  0
  -27.0037  -20.0609   20.6365 H   0  0  0  0  0  0  0  0  0  0  0  0
  -29.3302  -20.2550   20.0255 H   0  0  0  0  0  0  0  0  0  0  0  0
  -29.1086  -19.0217   18.7896 H   0  0  0  0  0  0  0  0  0  0  0  0
  -28.5367  -17.3897   20.4914 H   0  0  0  0  0  0  0  0  0  0  0  0
  -28.7187  -18.6223   21.7358 H   0  0  0  0  0  0  0  0  0  0  0  0
  -31.0702  -18.8461   21.2029 H   0  0  0  0  0  0  0  0  0  0  0  0
  -30.8976  -17.6473   19.9246 H   0  0  0  0  0  0  0  0  0  0  0  0
  -30.4690  -17.1539   22.8505 H   0  0  0  0  0  0  0  0  0  0  0  0
  -31.8684  -16.6539   21.9025 H   0  0  0  0  0  0  0  0  0  0  0  0
  -29.1982  -15.5426   21.7911 H   0  0  0  0  0  0  0  0  0  0  0  0
  1 25  1  0
  1 30  2  0
  1 91  1  0
  2  3  1  0
  2 25  1  0
  2 92  1  0
  2 93  1  0
  3  4  1  0
  3 94  1  0
  3 95  1  0
  4  5  1  0
  4 96  1  0
  4 97  1  0
  5  6  1  0
  5 26  1  0
  5 98  1  6
  6 25  1  0
  6 99  1  0
  6100  1  0
  7  8  2  0
  7 26  1  0
  7 29  1  0
  8  9  1  0
  8 22  1  0
  9 10  1  0
  9 27  2  0
 10 11  2  0
 10 15  1  0
 11 12  1  0
 11101  1  0
 12 13  2  0
 12102  1  0
 13 14  1  0
 13 31  1  0
 14 15  2  0
 14103  1  0
 15104  1  0
 16 17  2  0
 16 21  1  0
 16 31  1  0
 17 18  1  0
 17105  1  0
 18 19  2  0
 18106  1  0
 19 20  1  0
 19 24  1  0
 20 21  2  0
 20107  1  0
 21 23  1  0
 22 28  1  0
 22 32  2  0
 26 27  1  0
 28108  1  0
 28109  1  0
 29110  1  0
 29111  1  0
 33 34  1  0
 33 66  1  0
 33 70  2  0
 34 36  1  0
 34 59  1  0
 34112  1  6
 35 44  2  0
 35 45  1  0
 35 68  1  0
 36 56  1  0
 36113  1  0
 37 39  1  0
 37 47  1  0
 37 66  1  0
 37114  1  6
 38 43  2  0
 38 46  1  0
 38 47  1  0
 39 64  1  0
 39 67  2  0
 40 52  1  0
 40 53  2  0
 40 58  1  0
 41115  1  0
 41116  1  0
 41117  1  0
 42 43  1  0
 42 66  1  0
 42118  1  0
 42119  1  0
 43 44  1  0
 44120  1  0
 45 46  2  0
 45121  1  0
 46122  1  0
 47123  1  0
 47124  1  0
 48 41  1  0
 48 56  1  0
 48 65  1  0
 48125  1  1
 49 50  1  0
 49 53  1  0
 49 64  1  0
 49126  1  1
 50 51  1  0
 50127  1  0
 50128  1  0
 51 52  1  0
 51129  1  0
 51130  1  0
 52131  1  0
 52132  1  0
 53 54  1  0
 54 55  2  0
 54133  1  0
 55 57  1  0
 55134  1  0
 56 69  2  0
 57 58  2  0
 57135  1  0
 58136  1  0
 59 60  1  0
 59 61  1  0
 59 62  1  0
 60137  1  0
 60138  1  0
 60139  1  0
 61140  1  0
 61141  1  0
 61142  1  0
 62143  1  0
 62144  1  0
 62145  1  0
 63 65  1  0
 63146  1  0
 63147  1  0
 63148  1  0
 64149  1  0
 65150  1  0
 68 80  1  0
 71 72  1  0
 71 73  2  0
 71 78  1  0
 72 74  2  0
 72 80  1  0
 73 77  1  0
 73 90  1  0
 74 79  1  0
 74 90  1  0
 75 76  2  0
 75 89  1  0
 75151  1  0
 76 90  1  0
 76152  1  0
 77 81  1  0
 77 89  2  0
 78153  1  0
 78154  1  0
 78155  1  0
 79156  1  0
 79157  1  0
 79158  1  0
 80159  1  0
 80160  1  0
 81 82  1  0
 81161  1  0
 81162  1  0
 82 83  1  0
 82163  1  0
 82164  1  0
 83 84  1  0
 83165  1  0
 83166  1  0
 84 85  1  0
 84167  1  0
 84168  1  0
 85 86  1  0
 85169  1  0
 85170  1  0
 86 87  1  0
 86171  1  0
 86172  1  0
 87 88  1  0
 87173  1  0
 87174  1  0
 88 91  1  0
 88175  1  0
 88176  1  0
 91177  1  0
M  ISO  4   1 100  68 101  80 101  91 100
M  END
$$$$
92
     RDKit          3D

147155  0  0  0  0  0  0  0  0999 V2000
  -30.7652  -14.3608   20.6636 C   0  0  0  0  0  0  0  0  0100  0  0
  -30.4392  -12.2669   19.3775 C   0  0  0  0  0  0  0  0  0101  0  0
  -29.4791  -12.5281   18.1977 C   0  0  0  0  0  0  0  0  0102  0  0
  -27.9985  -12.3963   18.6038 C   0  0  0  0  0  0  0  0  0103  0  0
  -27.6639  -13.2170   19.8820 C   0  0  2  0  0  0  0  0  0104  0  0
  -28.6795  -12.9602   21.0279 C   0  0  0  0  0  0  0  0  0105  0  0
  -25.2633  -13.8245   20.5754 C   0  0  0  0  0  0  0  0  0106  0  0
  -24.1645  -13.0409   20.9408 C   0  0  0  0  0  0  0  0  0107  0  0
  -24.6400  -11.7009   20.8697 C   0  0  0  0  0  0  0  0  0108  0  0
  -23.9005  -10.4085   21.0420 C   0  0  0  0  0  0  0  0  0109  0  0
  -24.3588   -9.4123   21.9123 C   0  0  0  0  0  0  0  0  0110  0  0
  -23.6296   -8.2350   22.0803 C   0  0  0  0  0  0  0  0  0111  0  0
  -22.4385   -8.0419   21.3657 C   0  0  0  0  0  0  0  0  0112  0  0
  -22.0103   -9.0167   20.4678 C   0  0  0  0  0  0  0  0  0113  0  0
  -22.7317  -10.1925   20.3102 C   0  0  0  0  0  0  0  0  0114  0  0
  -21.6857   -6.0709   22.5391 C   0  0  0  0  0  0  0  0  0115  0  0
  -21.4064   -6.5490   23.8264 C   0  0  0  0  0  0  0  0  0116  0  0
  -21.3635   -5.6677   24.9085 C   0  0  0  0  0  0  0  0  0117  0  0
  -21.5973   -4.3067   24.7088 C   0  0  0  0  0  0  0  0  0118  0  0
  -21.8700   -3.8284   23.4282 C   0  0  0  0  0  0  0  0  0119  0  0
  -21.9144   -4.7056   22.3460 C   0  0  0  0  0  0  0  0  0120  0  0
  -22.8194  -13.5263   21.1763 C   0  0  0  0  0  0  0  0  0121  0  0
  -22.1559   -4.2206   21.1063 F   0  0  0  0  0  0  0  0  0122  0  0
  -21.5628   -3.4510   25.7555 F   0  0  0  0  0  0  0  0  0123  0  0
  -30.0261  -13.1803   20.4553 N   0  0  0  0  0  0  0  0  0124  0  0
  -26.2911  -12.9356   20.3443 N   0  0  0  0  0  0  0  0  0125  0  0
  -25.9236  -11.6675   20.5847 N   0  0  0  0  0  0  0  0  0126  0  0
  -22.0708  -12.7905   22.0005 N   0  0  0  0  0  0  0  0  0127  0  0
  -25.4117  -15.1773   20.4097 N   0  0  0  0  0  0  0  0  0128  0  0
  -31.7916  -14.6724   20.0536 O   0  0  0  0  0  0  0  0  0129  0  0
  -21.6670   -6.9022   21.4423 O   0  0  0  0  0  0  0  0  0130  0  0
  -22.3946  -14.5564   20.6568 O   0  0  0  0  0  0  0  0  0131  0  0
  -24.6048  -31.8614   23.2223 C   0  0  0  0  0  0  0  0  0100  0  0
  -25.8822  -32.4841   23.8616 C   0  0  1  0  0  0  0  0  0101  0  0
  -27.2536  -27.5042   20.1156 C   0  0  0  0  0  0  0  0  0102  0  0
  -25.5726  -33.8762   24.2210 N   0  0  0  0  0  0  0  0  0103  0  0
  -23.4066  -30.4859   21.5461 C   0  0  2  0  0  0  0  0  0104  0  0
  -24.8467  -28.9636   20.1247 C   0  0  0  0  0  0  0  0  0105  0  0
  -22.7412  -29.4652   22.5052 C   0  0  0  0  0  0  0  0  0106  0  0
  -18.0167  -28.1302   22.8626 C   0  0  0  0  0  0  0  0  0107  0  0
  -24.1342  -36.7390   23.2568 C   0  0  0  0  0  0  0  0  0108  0  0
  -25.9141  -30.8882   21.3456 C   0  0  0  0  0  0  0  0  0109  0  0
  -25.9930  -29.5029   20.7208 C   0  0  0  0  0  0  0  0  0110  0  0
  -27.1758  -28.7612   20.7331 C   0  0  0  0  0  0  0  0  0111  0  0
  -26.1032  -26.9836   19.5230 C   0  0  0  0  0  0  0  0  0112  0  0
  -24.9097  -27.7011   19.5331 C   0  0  0  0  0  0  0  0  0113  0  0
  -23.5715  -29.7899   20.1582 C   0  0  0  0  0  0  0  0  0114  0  0
  -25.3990  -36.3212   24.0232 C   0  0  1  0  0  0  0  0  0115  0  0
  -20.5793  -28.3813   23.1004 C   0  0  2  0  0  0  0  0  0116  0  0
  -20.6548  -26.9392   22.5411 C   0  0  0  0  0  0  0  0  0117  0  0
  -19.5615  -26.6407   21.5143 C   0  0  0  0  0  0  0  0  0118  0  0
  -18.1797  -26.7818   22.1673 C   0  0  0  0  0  0  0  0  0119  0  0
  -19.1385  -28.8769   23.2988 C   0  0  0  0  0  0  0  0  0120  0  0
  -18.9183  -30.1286   23.8878 C   0  0  0  0  0  0  0  0  0121  0  0
  -17.6396  -30.6493   24.0352 C   0  0  0  0  0  0  0  0  0122  0  0
  -25.9153  -34.9582   23.4993 C   0  0  0  0  0  0  0  0  0123  0  0
  -16.5415  -29.9068   23.6254 C   0  0  0  0  0  0  0  0  0124  0  0
  -16.7331  -28.6521   23.0586 C   0  0  0  0  0  0  0  0  0125  0  0
  -26.4583  -31.6439   25.0683 C   0  0  0  0  0  0  0  0  0126  0  0
  -25.3807  -31.3179   26.1374 C   0  0  0  0  0  0  0  0  0127  0  0
  -27.0530  -30.3024   24.5680 C   0  0  0  0  0  0  0  0  0128  0  0
  -27.6014  -32.4281   25.7651 C   0  0  0  0  0  0  0  0  0129  0  0
  -27.5629  -37.2220   24.8621 C   0  0  0  0  0  0  0  0  0130  0  0
  -21.4133  -29.3375   22.3735 N   0  0  0  0  0  0  0  0  0131  0  0
  -26.4706  -37.3372   23.9061 N   0  0  0  0  0  0  0  0  0132  0  0
  -24.6674  -31.0544   22.1178 N   0  0  0  0  0  0  0  0  0133  0  0
  -23.4259  -28.8150   23.2971 O   0  0  0  0  0  0  0  0  0134  0  0
  -28.3948  -26.7345   20.0089 O   0  0  0  0  0  0  0  0  0135  0  0
  -26.5870  -34.9065   22.4671 O   0  0  0  0  0  0  0  0  0136  0  0
  -23.5365  -32.1254   23.7833 O   0  0  0  0  0  0  0  0  0137  0  0
  -28.2563  -19.6896   21.3692 C   0  0  0  0  0  0  0  0  0  0  0  0
  -27.4463  -19.5383   24.0345 C   0  0  0  0  0  0  0  0  0  0  0  0
  -28.8675  -18.7811   22.2334 C   0  0  0  0  0  0  0  0  0  0  0  0
  -26.8351  -20.4468   23.1704 C   0  0  0  0  0  0  0  0  0  0  0  0
  -28.4625  -18.7055   23.5660 C   0  0  0  0  0  0  0  0  0  0  0  0
  -27.2401  -20.5224   21.8378 C   0  0  0  0  0  0  0  0  0  0  0  0
  -29.9518  -17.9065   21.6919 C   0  0  0  0  0  0  0  0  0  0  0  0
  -25.7466  -21.3256   23.7127 C   0  0  0  0  0  0  0  0  0  1  0  0
  -29.5030  -16.5490   21.4762 N   0  0  0  0  0  0  0  0  0  0  0  0
  -29.1951  -17.5927   24.6633 Cl  0  0  0  0  0  0  0  0  0  0  0  0
  -26.5068  -21.6343   20.7397 Cl  0  0  0  0  0  0  0  0  0  0  0  0
  -31.4485  -12.4701   19.0860 H   0  0  0  0  0  0  0  0  0  0  0  0
  -30.3970  -11.2460   19.6950 H   0  0  0  0  0  0  0  0  0  0  0  0
  -29.6870  -11.8204   17.4226 H   0  0  0  0  0  0  0  0  0  0  0  0
  -29.6375  -13.5326   17.8649 H   0  0  0  0  0  0  0  0  0  0  0  0
  -27.7830  -11.3650   18.7904 H   0  0  0  0  0  0  0  0  0  0  0  0
  -27.4028  -12.7801   17.8021 H   0  0  0  0  0  0  0  0  0  0  0  0
  -27.7353  -14.2503   19.6136 H   0  0  0  0  0  0  0  0  0  0  0  0
  -28.5890  -11.9550   21.3832 H   0  0  0  0  0  0  0  0  0  0  0  0
  -28.5005  -13.6134   21.8562 H   0  0  0  0  0  0  0  0  0  0  0  0
  -25.2399   -9.5495   22.4318 H   0  0  0  0  0  0  0  0  0  0  0  0
  -23.9663   -7.5070   22.7297 H   0  0  0  0  0  0  0  0  0  0  0  0
  -21.1515   -8.8641   19.9162 H   0  0  0  0  0  0  0  0  0  0  0  0
  -22.4016  -10.9115   19.6476 H   0  0  0  0  0  0  0  0  0  0  0  0
  -21.2319   -7.5552   23.9750 H   0  0  0  0  0  0  0  0  0  0  0  0
  -21.1589   -6.0228   25.8556 H   0  0  0  0  0  0  0  0  0  0  0  0
  -22.0396   -2.8212   23.2809 H   0  0  0  0  0  0  0  0  0  0  0  0
  -22.4401  -11.9703   22.4008 H   0  0  0  0  0  0  0  0  0  0  0  0
  -21.1493  -13.0679   22.2082 H   0  0  0  0  0  0  0  0  0  0  0  0
  -24.6538  -15.7807   20.5848 H   0  0  0  0  0  0  0  0  0  0  0  0
  -26.2762  -15.5453   20.1156 H   0  0  0  0  0  0  0  0  0  0  0  0
  -26.6778  -32.4663   23.1464 H   0  0  0  0  0  0  0  0  0  0  0  0
  -25.0747  -34.0282   25.0566 H   0  0  0  0  0  0  0  0  0  0  0  0
  -22.7881  -31.3489   21.4131 H   0  0  0  0  0  0  0  0  0  0  0  0
  -23.3854  -35.9823   23.3648 H   0  0  0  0  0  0  0  0  0  0  0  0
  -24.3696  -36.8624   22.2204 H   0  0  0  0  0  0  0  0  0  0  0  0
  -23.7669  -37.6632   23.6516 H   0  0  0  0  0  0  0  0  0  0  0  0
  -25.9445  -31.6237   20.5691 H   0  0  0  0  0  0  0  0  0  0  0  0
  -26.7436  -31.0079   22.0108 H   0  0  0  0  0  0  0  0  0  0  0  0
  -28.0090  -29.1452   21.2057 H   0  0  0  0  0  0  0  0  0  0  0  0
  -26.1369  -26.0560   19.0719 H   0  0  0  0  0  0  0  0  0  0  0  0
  -24.0652  -27.2961   19.0997 H   0  0  0  0  0  0  0  0  0  0  0  0
  -23.6156  -30.5365   19.3930 H   0  0  0  0  0  0  0  0  0  0  0  0
  -22.7355  -29.1425   19.9945 H   0  0  0  0  0  0  0  0  0  0  0  0
  -25.1353  -36.2335   25.0565 H   0  0  0  0  0  0  0  0  0  0  0  0
  -21.0070  -28.3206   24.0793 H   0  0  0  0  0  0  0  0  0  0  0  0
  -20.5555  -26.2518   23.3550 H   0  0  0  0  0  0  0  0  0  0  0  0
  -21.5974  -26.8362   22.0454 H   0  0  0  0  0  0  0  0  0  0  0  0
  -19.6810  -25.6422   21.1488 H   0  0  0  0  0  0  0  0  0  0  0  0
  -19.6406  -27.3343   20.7034 H   0  0  0  0  0  0  0  0  0  0  0  0
  -17.4282  -26.6888   21.4113 H   0  0  0  0  0  0  0  0  0  0  0  0
  -18.0803  -26.0130   22.9049 H   0  0  0  0  0  0  0  0  0  0  0  0
  -19.7265  -30.6774   24.2204 H   0  0  0  0  0  0  0  0  0  0  0  0
  -17.5064  -31.5856   24.4483 H   0  0  0  0  0  0  0  0  0  0  0  0
  -15.5878  -30.2839   23.7407 H   0  0  0  0  0  0  0  0  0  0  0  0
  -15.9120  -28.0941   22.7766 H   0  0  0  0  0  0  0  0  0  0  0  0
  -24.5787  -30.7757   25.6817 H   0  0  0  0  0  0  0  0  0  0  0  0
  -25.0041  -32.2289   26.5536 H   0  0  0  0  0  0  0  0  0  0  0  0
  -25.8166  -30.7245   26.9138 H   0  0  0  0  0  0  0  0  0  0  0  0
  -26.2892  -29.7335   24.0803 H   0  0  0  0  0  0  0  0  0  0  0  0
  -27.4336  -29.7484   25.4006 H   0  0  0  0  0  0  0  0  0  0  0  0
  -27.8466  -30.4994   23.8779 H   0  0  0  0  0  0  0  0  0  0  0  0
  -27.2251  -33.3632   26.1242 H   0  0  0  0  0  0  0  0  0  0  0  0
  -28.3902  -32.6065   25.0645 H   0  0  0  0  0  0  0  0  0  0  0  0
  -27.9772  -31.8555   26.5872 H   0  0  0  0  0  0  0  0  0  0  0  0
  -28.2744  -38.0016   24.6863 H   0  0  0  0  0  0  0  0  0  0  0  0
  -28.0396  -36.2711   24.7461 H   0  0  0  0  0  0  0  0  0  0  0  0
  -27.1773  -37.3087   25.8564 H   0  0  0  0  0  0  0  0  0  0  0  0
  -20.9627  -29.9365   21.7352 H   0  0  0  0  0  0  0  0  0  0  0  0
  -26.0447  -38.2561   24.0273 H   0  0  0  0  0  0  0  0  0  0  0  0
  -28.5559  -19.7456   20.3832 H   0  0  0  0  0  0  0  0  0  0  0  0
  -27.1467  -19.4823   25.0205 H   0  0  0  0  0  0  0  0  0  0  0  0
  -30.7643  -17.8942   22.3880 H   0  0  0  0  0  0  0  0  0  0  0  0
  -30.2544  -18.3062   20.7466 H   0  0  0  0  0  0  0  0  0  0  0  0
  -25.7788  -21.4615   24.7735 H   0  0  0  0  0  0  0  0  0  0  0  0
  -24.7181  -21.0468   23.6161 H   0  0  0  0  0  0  0  0  0  0  0  0
  -28.5472  -16.4101   21.6672 H   0  0  0  0  0  0  0  0  0  0  0  0
  1 25  1  0
  1 30  2  0
  1 79  1  0
  2  3  1  0
  2 25  1  0
  2 82  1  0
  2 83  1  0
  3  4  1  0
  3 84  1  0
  3 85  1  0
  4  5  1  0
  4 86  1  0
  4 87  1  0
  5  6  1  0
  5 26  1  0
  5 88  1  6
  6 25  1  0
  6 89  1  0
  6 90  1  0
  7  8  2  0
  7 26  1  0
  7 29  1  0
  8  9  1  0
  8 22  1  0
  9 10  1  0
  9 27  2  0
 10 11  2  0
 10 15  1  0
 11 12  1  0
 11 91  1  0
 12 13  2  0
 12 92  1  0
 13 14  1  0
 13 31  1  0
 14 15  2  0
 14 93  1  0
 15 94  1  0
 16 17  2  0
 16 21  1  0
 16 31  1  0
 17 18  1  0
 17 95  1  0
 18 19  2  0
 18 96  1  0
 19 20  1  0
 19 24  1  0
 20 21  2  0
 20 97  1  0
 21 23  1  0
 22 28  1  0
 22 32  2  0
 26 27  1  0
 28 98  1  0
 28 99  1  0
 29100  1  0
 29101  1  0
 33 34  1  0
 33 66  1  0
 33 70  2  0
 34 36  1  0
 34 59  1  0
 34102  1  6
 35 44  2  0
 35 45  1  0
 35 68  1  0
 36 56  1  0
 36103  1  0
 37 39  1  0
 37 47  1  0
 37 66  1  0
 37104  1  6
 38 43  2  0
 38 46  1  0
 38 47  1  0
 39 64  1  0
 39 67  2  0
 40 52  1  0
 40 53  2  0
 40 58  1  0
 41105  1  0
 41106  1  0
 41107  1  0
 42 43  1  0
 42 66  1  0
 42108  1  0
 42109  1  0
 43 44  1  0
 44110  1  0
 45 46  2  0
 45111  1  0
 46112  1  0
 47113  1  0
 47114  1  0
 48 41  1  0
 48 56  1  0
 48 65  1  0
 48115  1  1
 49 50  1  0
 49 53  1  0
 49 64  1  0
 49116  1  1
 50 51  1  0
 50117  1  0
 50118  1  0
 51 52  1  0
 51119  1  0
 51120  1  0
 52121  1  0
 52122  1  0
 53 54  1  0
 54 55  2  0
 54123  1  0
 55 57  1  0
 55124  1  0
 56 69  2  0
 57 58  2  0
 57125  1  0
 58126  1  0
 59 60  1  0
 59 61  1  0
 59 62  1  0
 60127  1  0
 60128  1  0
 60129  1  0
 61130  1  0
 61131  1  0
 61132  1  0
 62133  1  0
 62134  1  0
 62135  1  0
 63 65  1  0
 63136  1  0
 63137  1  0
 63138  1  0
 64139  1  0
 65140  1  0
 68 78  1  0
 71 73  2  0
 71 76  1  0
 71141  1  0
 72 74  1  0
 72 75  2  0
 72142  1  0
 73 75  1  0
 73 77  1  0
 74 76  2  0
 74 78  1  0
 75 80  1  0
 76 81  1  0
 77 79  1  0
 77143  1  0
 77144  1  0
 78145  1  0
 78146  1  0
 79147  1  0
M  ISO  4   1 100  68 101  78 101  79 100
M  END
$$$$
93
     RDKit          3D

156164  0  0  0  0  0  0  0  0999 V2000
  -30.7652  -14.3608   20.6636 C   0  0  0  0  0  0  0  0  0100  0  0
  -30.4392  -12.2669   19.3775 C   0  0  0  0  0  0  0  0  0101  0  0
  -29.4791  -12.5281   18.1977 C   0  0  0  0  0  0  0  0  0102  0  0
  -27.9985  -12.3963   18.6038 C   0  0  0  0  0  0  0  0  0103  0  0
  -27.6639  -13.2170   19.8820 C   0  0  2  0  0  0  0  0  0104  0  0
  -28.6795  -12.9602   21.0279 C   0  0  0  0  0  0  0  0  0105  0  0
  -25.2633  -13.8245   20.5754 C   0  0  0  0  0  0  0  0  0106  0  0
  -24.1645  -13.0409   20.9408 C   0  0  0  0  0  0  0  0  0107  0  0
  -24.6400  -11.7009   20.8697 C   0  0  0  0  0  0  0  0  0108  0  0
  -23.9005  -10.4085   21.0420 C   0  0  0  0  0  0  0  0  0109  0  0
  -24.3588   -9.4123   21.9123 C   0  0  0  0  0  0  0  0  0110  0  0
  -23.6296   -8.2350   22.0803 C   0  0  0  0  0  0  0  0  0111  0  0
  -22.4385   -8.0419   21.3657 C   0  0  0  0  0  0  0  0  0112  0  0
  -22.0103   -9.0167   20.4678 C   0  0  0  0  0  0  0  0  0113  0  0
  -22.7317  -10.1925   20.3102 C   0  0  0  0  0  0  0  0  0114  0  0
  -21.6857   -6.0709   22.5391 C   0  0  0  0  0  0  0  0  0115  0  0
  -21.4064   -6.5490   23.8264 C   0  0  0  0  0  0  0  0  0116  0  0
  -21.3635   -5.6677   24.9085 C   0  0  0  0  0  0  0  0  0117  0  0
  -21.5973   -4.3067   24.7088 C   0  0  0  0  0  0  0  0  0118  0  0
  -21.8700   -3.8284   23.4282 C   0  0  0  0  0  0  0  0  0119  0  0
  -21.9144   -4.7056   22.3460 C   0  0  0  0  0  0  0  0  0120  0  0
  -22.8194  -13.5263   21.1763 C   0  0  0  0  0  0  0  0  0121  0  0
  -22.1559   -4.2206   21.1063 F   0  0  0  0  0  0  0  0  0122  0  0
  -21.5628   -3.4510   25.7555 F   0  0  0  0  0  0  0  0  0123  0  0
  -30.0261  -13.1803   20.4553 N   0  0  0  0  0  0  0  0  0124  0  0
  -26.2911  -12.9356   20.3443 N   0  0  0  0  0  0  0  0  0125  0  0
  -25.9236  -11.6675   20.5847 N   0  0  0  0  0  0  0  0  0126  0  0
  -22.0708  -12.7905   22.0005 N   0  0  0  0  0  0  0  0  0127  0  0
  -25.4117  -15.1773   20.4097 N   0  0  0  0  0  0  0  0  0128  0  0
  -31.7916  -14.6724   20.0536 O   0  0  0  0  0  0  0  0  0129  0  0
  -21.6670   -6.9022   21.4423 O   0  0  0  0  0  0  0  0  0130  0  0
  -22.3946  -14.5564   20.6568 O   0  0  0  0  0  0  0  0  0131  0  0
  -24.6048  -31.8614   23.2223 C   0  0  0  0  0  0  0  0  0100  0  0
  -25.8822  -32.4841   23.8616 C   0  0  1  0  0  0  0  0  0101  0  0
  -27.2536  -27.5042   20.1156 C   0  0  0  0  0  0  0  0  0102  0  0
  -25.5726  -33.8762   24.2210 N   0  0  0  0  0  0  0  0  0103  0  0
  -23.4066  -30.4859   21.5461 C   0  0  2  0  0  0  0  0  0104  0  0
  -24.8467  -28.9636   20.1247 C   0  0  0  0  0  0  0  0  0105  0  0
  -22.7412  -29.4652   22.5052 C   0  0  0  0  0  0  0  0  0106  0  0
  -18.0167  -28.1302   22.8626 C   0  0  0  0  0  0  0  0  0107  0  0
  -24.1342  -36.7390   23.2568 C   0  0  0  0  0  0  0  0  0108  0  0
  -25.9141  -30.8882   21.3456 C   0  0  0  0  0  0  0  0  0109  0  0
  -25.9930  -29.5029   20.7208 C   0  0  0  0  0  0  0  0  0110  0  0
  -27.1758  -28.7612   20.7331 C   0  0  0  0  0  0  0  0  0111  0  0
  -26.1032  -26.9836   19.5230 C   0  0  0  0  0  0  0  0  0112  0  0
  -24.9097  -27.7011   19.5331 C   0  0  0  0  0  0  0  0  0113  0  0
  -23.5715  -29.7899   20.1582 C   0  0  0  0  0  0  0  0  0114  0  0
  -25.3990  -36.3212   24.0232 C   0  0  1  0  0  0  0  0  0115  0  0
  -20.5793  -28.3813   23.1004 C   0  0  2  0  0  0  0  0  0116  0  0
  -20.6548  -26.9392   22.5411 C   0  0  0  0  0  0  0  0  0117  0  0
  -19.5615  -26.6407   21.5143 C   0  0  0  0  0  0  0  0  0118  0  0
  -18.1797  -26.7818   22.1673 C   0  0  0  0  0  0  0  0  0119  0  0
  -19.1385  -28.8769   23.2988 C   0  0  0  0  0  0  0  0  0120  0  0
  -18.9183  -30.1286   23.8878 C   0  0  0  0  0  0  0  0  0121  0  0
  -17.6396  -30.6493   24.0352 C   0  0  0  0  0  0  0  0  0122  0  0
  -25.9153  -34.9582   23.4993 C   0  0  0  0  0  0  0  0  0123  0  0
  -16.5415  -29.9068   23.6254 C   0  0  0  0  0  0  0  0  0124  0  0
  -16.7331  -28.6521   23.0586 C   0  0  0  0  0  0  0  0  0125  0  0
  -26.4583  -31.6439   25.0683 C   0  0  0  0  0  0  0  0  0126  0  0
  -25.3807  -31.3179   26.1374 C   0  0  0  0  0  0  0  0  0127  0  0
  -27.0530  -30.3024   24.5680 C   0  0  0  0  0  0  0  0  0128  0  0
  -27.6014  -32.4281   25.7651 C   0  0  0  0  0  0  0  0  0129  0  0
  -27.5629  -37.2220   24.8621 C   0  0  0  0  0  0  0  0  0130  0  0
  -21.4133  -29.3375   22.3735 N   0  0  0  0  0  0  0  0  0131  0  0
  -26.4706  -37.3372   23.9061 N   0  0  0  0  0  0  0  0  0132  0  0
  -24.6674  -31.0544   22.1178 N   0  0  0  0  0  0  0  0  0133  0  0
  -23.4259  -28.8150   23.2971 O   0  0  0  0  0  0  0  0  0134  0  0
  -28.3948  -26.7345   20.0089 O   0  0  0  0  0  0  0  0  0135  0  0
  -26.5870  -34.9065   22.4671 O   0  0  0  0  0  0  0  0  0136  0  0
  -23.5365  -32.1254   23.7833 O   0  0  0  0  0  0  0  0  0137  0  0
  -29.8709  -19.8902   16.7649 C   0  0  0  0  0  0  0  0  0  0  0  0
  -31.3258  -21.0144   18.3321 C   0  0  0  0  0  0  0  0  0  0  0  0
  -30.0888  -22.2955   16.6994 C   0  0  0  0  0  0  0  0  0  0  0  0
  -30.7682  -19.8379   17.8315 C   0  0  0  0  0  0  0  0  0  0  0  0
  -29.5312  -21.1190   16.1987 C   0  0  0  0  0  0  0  0  0  0  0  0
  -30.9861  -22.2432   17.7660 C   0  0  0  0  0  0  0  0  0  0  0  0
  -27.8790  -25.2865   15.7334 C   0  0  0  0  0  0  0  0  0  0  0  0
  -29.7213  -23.6253   16.0863 C   0  0  0  0  0  0  0  0  0  0  0  0
  -28.8774  -25.0062   18.0558 C   0  0  0  0  0  0  0  0  0  0  0  0
  -27.7054  -25.6831   18.7582 C   0  0  0  0  0  0  0  0  0  1  0  0
  -28.4947  -24.3048   16.7370 C   0  0  1  0  0  0  0  0  0  0  0  0
  -31.1126  -18.5896   18.4066 N   0  0  0  0  0  0  0  0  0  0  0  0
  -28.4183  -21.1378   14.8783 Cl  0  0  0  0  0  0  0  0  0  0  0  0
  -31.6997  -23.6751   18.4165 Cl  0  0  0  0  0  0  0  0  0  0  0  0
  -31.4485  -12.4701   19.0860 H   0  0  0  0  0  0  0  0  0  0  0  0
  -30.3970  -11.2460   19.6950 H   0  0  0  0  0  0  0  0  0  0  0  0
  -29.6870  -11.8204   17.4226 H   0  0  0  0  0  0  0  0  0  0  0  0
  -29.6375  -13.5326   17.8649 H   0  0  0  0  0  0  0  0  0  0  0  0
  -27.7830  -11.3650   18.7904 H   0  0  0  0  0  0  0  0  0  0  0  0
  -27.4028  -12.7801   17.8021 H   0  0  0  0  0  0  0  0  0  0  0  0
  -27.7353  -14.2503   19.6136 H   0  0  0  0  0  0  0  0  0  0  0  0
  -28.5890  -11.9550   21.3832 H   0  0  0  0  0  0  0  0  0  0  0  0
  -28.5005  -13.6134   21.8562 H   0  0  0  0  0  0  0  0  0  0  0  0
  -25.2399   -9.5495   22.4318 H   0  0  0  0  0  0  0  0  0  0  0  0
  -23.9663   -7.5070   22.7297 H   0  0  0  0  0  0  0  0  0  0  0  0
  -21.1515   -8.8641   19.9162 H   0  0  0  0  0  0  0  0  0  0  0  0
  -22.4016  -10.9115   19.6476 H   0  0  0  0  0  0  0  0  0  0  0  0
  -21.2319   -7.5552   23.9750 H   0  0  0  0  0  0  0  0  0  0  0  0
  -21.1589   -6.0228   25.8556 H   0  0  0  0  0  0  0  0  0  0  0  0
  -22.0396   -2.8212   23.2809 H   0  0  0  0  0  0  0  0  0  0  0  0
  -22.4401  -11.9703   22.4008 H   0  0  0  0  0  0  0  0  0  0  0  0
  -21.1493  -13.0679   22.2082 H   0  0  0  0  0  0  0  0  0  0  0  0
  -24.6538  -15.7807   20.5848 H   0  0  0  0  0  0  0  0  0  0  0  0
  -26.2762  -15.5453   20.1156 H   0  0  0  0  0  0  0  0  0  0  0  0
  -26.6778  -32.4663   23.1464 H   0  0  0  0  0  0  0  0  0  0  0  0
  -25.0747  -34.0282   25.0566 H   0  0  0  0  0  0  0  0  0  0  0  0
  -22.7881  -31.3489   21.4131 H   0  0  0  0  0  0  0  0  0  0  0  0
  -23.3854  -35.9823   23.3648 H   0  0  0  0  0  0  0  0  0  0  0  0
  -24.3696  -36.8624   22.2204 H   0  0  0  0  0  0  0  0  0  0  0  0
  -23.7669  -37.6632   23.6516 H   0  0  0  0  0  0  0  0  0  0  0  0
  -25.9445  -31.6237   20.5691 H   0  0  0  0  0  0  0  0  0  0  0  0
  -26.7436  -31.0079   22.0108 H   0  0  0  0  0  0  0  0  0  0  0  0
  -28.0090  -29.1452   21.2057 H   0  0  0  0  0  0  0  0  0  0  0  0
  -26.1369  -26.0560   19.0719 H   0  0  0  0  0  0  0  0  0  0  0  0
  -24.0652  -27.2961   19.0997 H   0  0  0  0  0  0  0  0  0  0  0  0
  -23.6156  -30.5365   19.3930 H   0  0  0  0  0  0  0  0  0  0  0  0
  -22.7355  -29.1425   19.9945 H   0  0  0  0  0  0  0  0  0  0  0  0
  -25.1353  -36.2335   25.0565 H   0  0  0  0  0  0  0  0  0  0  0  0
  -21.0070  -28.3206   24.0793 H   0  0  0  0  0  0  0  0  0  0  0  0
  -20.5555  -26.2518   23.3550 H   0  0  0  0  0  0  0  0  0  0  0  0
  -21.5974  -26.8362   22.0454 H   0  0  0  0  0  0  0  0  0  0  0  0
  -19.6810  -25.6422   21.1488 H   0  0  0  0  0  0  0  0  0  0  0  0
  -19.6406  -27.3343   20.7034 H   0  0  0  0  0  0  0  0  0  0  0  0
  -17.4282  -26.6888   21.4113 H   0  0  0  0  0  0  0  0  0  0  0  0
  -18.0803  -26.0130   22.9049 H   0  0  0  0  0  0  0  0  0  0  0  0
  -19.7265  -30.6774   24.2204 H   0  0  0  0  0  0  0  0  0  0  0  0
  -17.5064  -31.5856   24.4483 H   0  0  0  0  0  0  0  0  0  0  0  0
  -15.5878  -30.2839   23.7407 H   0  0  0  0  0  0  0  0  0  0  0  0
  -15.9120  -28.0941   22.7766 H   0  0  0  0  0  0  0  0  0  0  0  0
  -24.5787  -30.7757   25.6817 H   0  0  0  0  0  0  0  0  0  0  0  0
  -25.0041  -32.2289   26.5536 H   0  0  0  0  0  0  0  0  0  0  0  0
  -25.8166  -30.7245   26.9138 H   0  0  0  0  0  0  0  0  0  0  0  0
  -26.2892  -29.7335   24.0803 H   0  0  0  0  0  0  0  0  0  0  0  0
  -27.4336  -29.7484   25.4006 H   0  0  0  0  0  0  0  0  0  0  0  0
  -27.8466  -30.4994   23.8779 H   0  0  0  0  0  0  0  0  0  0  0  0
  -27.2251  -33.3632   26.1242 H   0  0  0  0  0  0  0  0  0  0  0  0
  -28.3902  -32.6065   25.0645 H   0  0  0  0  0  0  0  0  0  0  0  0
  -27.9772  -31.8555   26.5872 H   0  0  0  0  0  0  0  0  0  0  0  0
  -28.2744  -38.0016   24.6863 H   0  0  0  0  0  0  0  0  0  0  0  0
  -28.0396  -36.2711   24.7461 H   0  0  0  0  0  0  0  0  0  0  0  0
  -27.1773  -37.3087   25.8564 H   0  0  0  0  0  0  0  0  0  0  0  0
  -20.9627  -29.9365   21.7352 H   0  0  0  0  0  0  0  0  0  0  0  0
  -26.0447  -38.2561   24.0273 H   0  0  0  0  0  0  0  0  0  0  0  0
  -29.4583  -19.0198   16.3946 H   0  0  0  0  0  0  0  0  0  0  0  0
  -31.9897  -20.9757   19.1213 H   0  0  0  0  0  0  0  0  0  0  0  0
  -27.6270  -24.7654   14.8335 H   0  0  0  0  0  0  0  0  0  0  0  0
  -28.5847  -26.0598   15.5121 H   0  0  0  0  0  0  0  0  0  0  0  0
  -26.9956  -25.7195   16.1541 H   0  0  0  0  0  0  0  0  0  0  0  0
  -29.5080  -23.4694   15.0494 H   0  0  0  0  0  0  0  0  0  0  0  0
  -30.5545  -24.2778   16.2442 H   0  0  0  0  0  0  0  0  0  0  0  0
  -29.2907  -24.2750   18.7187 H   0  0  0  0  0  0  0  0  0  0  0  0
  -29.5769  -25.7765   17.8063 H   0  0  0  0  0  0  0  0  0  0  0  0
  -27.0692  -24.9478   19.2048 H   0  0  0  0  0  0  0  0  0  0  0  0
  -27.1162  -26.2466   18.0652 H   0  0  0  0  0  0  0  0  0  0  0  0
  -27.7680  -23.5603   16.9872 H   0  0  0  0  0  0  0  0  0  0  0  0
  -32.0776  -18.5862   18.2116 H   0  0  0  0  0  0  0  0  0  0  0  0
  1 25  1  0
  1 30  2  0
  1 82  1  0
  2  3  1  0
  2 25  1  0
  2 85  1  0
  2 86  1  0
  3  4  1  0
  3 87  1  0
  3 88  1  0
  4  5  1  0
  4 89  1  0
  4 90  1  0
  5  6  1  0
  5 26  1  0
  5 91  1  6
  6 25  1  0
  6 92  1  0
  6 93  1  0
  7  8  2  0
  7 26  1  0
  7 29  1  0
  8  9  1  0
  8 22  1  0
  9 10  1  0
  9 27  2  0
 10 11  2  0
 10 15  1  0
 11 12  1  0
 11 94  1  0
 12 13  2  0
 12 95  1  0
 13 14  1  0
 13 31  1  0
 14 15  2  0
 14 96  1  0
 15 97  1  0
 16 17  2  0
 16 21  1  0
 16 31  1  0
 17 18  1  0
 17 98  1  0
 18 19  2  0
 18 99  1  0
 19 20  1  0
 19 24  1  0
 20 21  2  0
 20100  1  0
 21 23  1  0
 22 28  1  0
 22 32  2  0
 26 27  1  0
 28101  1  0
 28102  1  0
 29103  1  0
 29104  1  0
 33 34  1  0
 33 66  1  0
 33 70  2  0
 34 36  1  0
 34 59  1  0
 34105  1  6
 35 44  2  0
 35 45  1  0
 35 68  1  0
 36 56  1  0
 36106  1  0
 37 39  1  0
 37 47  1  0
 37 66  1  0
 37107  1  6
 38 43  2  0
 38 46  1  0
 38 47  1  0
 39 64  1  0
 39 67  2  0
 40 52  1  0
 40 53  2  0
 40 58  1  0
 41108  1  0
 41109  1  0
 41110  1  0
 42 43  1  0
 42 66  1  0
 42111  1  0
 42112  1  0
 43 44  1  0
 44113  1  0
 45 46  2  0
 45114  1  0
 46115  1  0
 47116  1  0
 47117  1  0
 48 41  1  0
 48 56  1  0
 48 65  1  0
 48118  1  1
 49 50  1  0
 49 53  1  0
 49 64  1  0
 49119  1  1
 50 51  1  0
 50120  1  0
 50121  1  0
 51 52  1  0
 51122  1  0
 51123  1  0
 52124  1  0
 52125  1  0
 53 54  1  0
 54 55  2  0
 54126  1  0
 55 57  1  0
 55127  1  0
 56 69  2  0
 57 58  2  0
 57128  1  0
 58129  1  0
 59 60  1  0
 59 61  1  0
 59 62  1  0
 60130  1  0
 60131  1  0
 60132  1  0
 61133  1  0
 61134  1  0
 61135  1  0
 62136  1  0
 62137  1  0
 62138  1  0
 63 65  1  0
 63139  1  0
 63140  1  0
 63141  1  0
 64142  1  0
 65143  1  0
 68 80  1  0
 71 74  2  0
 71 75  1  0
 71144  1  0
 72 74  1  0
 72 76  2  0
 72145  1  0
 73 75  2  0
 73 76  1  0
 73 78  1  0
 74 82  1  0
 75 83  1  0
 76 84  1  0
 77146  1  0
 77147  1  0
 77148  1  0
 78 81  1  0
 78149  1  0
 78150  1  0
 79 80  1  0
 79 81  1  0
 79151  1  0
 79152  1  0
 80153  1  0
 80154  1  0
 81 77  1  0
 81155  1  1
 82156  1  0
M  ISO  4   1 100  68 101  80 101  82 100
M  END
$$$$
94
     RDKit          3D

152160  0  0  0  0  0  0  0  0999 V2000
  -30.7652  -14.3608   20.6636 C   0  0  0  0  0  0  0  0  0100  0  0
  -30.4392  -12.2669   19.3775 C   0  0  0  0  0  0  0  0  0101  0  0
  -29.4791  -12.5281   18.1977 C   0  0  0  0  0  0  0  0  0102  0  0
  -27.9985  -12.3963   18.6038 C   0  0  0  0  0  0  0  0  0103  0  0
  -27.6639  -13.2170   19.8820 C   0  0  2  0  0  0  0  0  0104  0  0
  -28.6795  -12.9602   21.0279 C   0  0  0  0  0  0  0  0  0105  0  0
  -25.2633  -13.8245   20.5754 C   0  0  0  0  0  0  0  0  0106  0  0
  -24.1645  -13.0409   20.9408 C   0  0  0  0  0  0  0  0  0107  0  0
  -24.6400  -11.7009   20.8697 C   0  0  0  0  0  0  0  0  0108  0  0
  -23.9005  -10.4085   21.0420 C   0  0  0  0  0  0  0  0  0109  0  0
  -24.3588   -9.4123   21.9123 C   0  0  0  0  0  0  0  0  0110  0  0
  -23.6296   -8.2350   22.0803 C   0  0  0  0  0  0  0  0  0111  0  0
  -22.4385   -8.0419   21.3657 C   0  0  0  0  0  0  0  0  0112  0  0
  -22.0103   -9.0167   20.4678 C   0  0  0  0  0  0  0  0  0113  0  0
  -22.7317  -10.1925   20.3102 C   0  0  0  0  0  0  0  0  0114  0  0
  -21.6857   -6.0709   22.5391 C   0  0  0  0  0  0  0  0  0115  0  0
  -21.4064   -6.5490   23.8264 C   0  0  0  0  0  0  0  0  0116  0  0
  -21.3635   -5.6677   24.9085 C   0  0  0  0  0  0  0  0  0117  0  0
  -21.5973   -4.3067   24.7088 C   0  0  0  0  0  0  0  0  0118  0  0
  -21.8700   -3.8284   23.4282 C   0  0  0  0  0  0  0  0  0119  0  0
  -21.9144   -4.7056   22.3460 C   0  0  0  0  0  0  0  0  0120  0  0
  -22.8194  -13.5263   21.1763 C   0  0  0  0  0  0  0  0  0121  0  0
  -22.1559   -4.2206   21.1063 F   0  0  0  0  0  0  0  0  0122  0  0
  -21.5628   -3.4510   25.7555 F   0  0  0  0  0  0  0  0  0123  0  0
  -30.0261  -13.1803   20.4553 N   0  0  0  0  0  0  0  0  0124  0  0
  -26.2911  -12.9356   20.3443 N   0  0  0  0  0  0  0  0  0125  0  0
  -25.9236  -11.6675   20.5847 N   0  0  0  0  0  0  0  0  0126  0  0
  -22.0708  -12.7905   22.0005 N   0  0  0  0  0  0  0  0  0127  0  0
  -25.4117  -15.1773   20.4097 N   0  0  0  0  0  0  0  0  0128  0  0
  -31.7916  -14.6724   20.0536 O   0  0  0  0  0  0  0  0  0129  0  0
  -21.6670   -6.9022   21.4423 O   0  0  0  0  0  0  0  0  0130  0  0
  -22.3946  -14.5564   20.6568 O   0  0  0  0  0  0  0  0  0131  0  0
  -24.6048  -31.8614   23.2223 C   0  0  0  0  0  0  0  0  0100  0  0
  -25.8822  -32.4841   23.8616 C   0  0  1  0  0  0  0  0  0101  0  0
  -27.2536  -27.5042   20.1156 C   0  0  0  0  0  0  0  0  0102  0  0
  -25.5726  -33.8762   24.2210 N   0  0  0  0  0  0  0  0  0103  0  0
  -23.4066  -30.4859   21.5461 C   0  0  2  0  0  0  0  0  0104  0  0
  -24.8467  -28.9636   20.1247 C   0  0  0  0  0  0  0  0  0105  0  0
  -22.7412  -29.4652   22.5052 C   0  0  0  0  0  0  0  0  0106  0  0
  -18.0167  -28.1302   22.8626 C   0  0  0  0  0  0  0  0  0107  0  0
  -24.1342  -36.7390   23.2568 C   0  0  0  0  0  0  0  0  0108  0  0
  -25.9141  -30.8882   21.3456 C   0  0  0  0  0  0  0  0  0109  0  0
  -25.9930  -29.5029   20.7208 C   0  0  0  0  0  0  0  0  0110  0  0
  -27.1758  -28.7612   20.7331 C   0  0  0  0  0  0  0  0  0111  0  0
  -26.1032  -26.9836   19.5230 C   0  0  0  0  0  0  0  0  0112  0  0
  -24.9097  -27.7011   19.5331 C   0  0  0  0  0  0  0  0  0113  0  0
  -23.5715  -29.7899   20.1582 C   0  0  0  0  0  0  0  0  0114  0  0
  -25.3990  -36.3212   24.0232 C   0  0  1  0  0  0  0  0  0115  0  0
  -20.5793  -28.3813   23.1004 C   0  0  2  0  0  0  0  0  0116  0  0
  -20.6548  -26.9392   22.5411 C   0  0  0  0  0  0  0  0  0117  0  0
  -19.5615  -26.6407   21.5143 C   0  0  0  0  0  0  0  0  0118  0  0
  -18.1797  -26.7818   22.1673 C   0  0  0  0  0  0  0  0  0119  0  0
  -19.1385  -28.8769   23.2988 C   0  0  0  0  0  0  0  0  0120  0  0
  -18.9183  -30.1286   23.8878 C   0  0  0  0  0  0  0  0  0121  0  0
  -17.6396  -30.6493   24.0352 C   0  0  0  0  0  0  0  0  0122  0  0
  -25.9153  -34.9582   23.4993 C   0  0  0  0  0  0  0  0  0123  0  0
  -16.5415  -29.9068   23.6254 C   0  0  0  0  0  0  0  0  0124  0  0
  -16.7331  -28.6521   23.0586 C   0  0  0  0  0  0  0  0  0125  0  0
  -26.4583  -31.6439   25.0683 C   0  0  0  0  0  0  0  0  0126  0  0
  -25.3807  -31.3179   26.1374 C   0  0  0  0  0  0  0  0  0127  0  0
  -27.0530  -30.3024   24.5680 C   0  0  0  0  0  0  0  0  0128  0  0
  -27.6014  -32.4281   25.7651 C   0  0  0  0  0  0  0  0  0129  0  0
  -27.5629  -37.2220   24.8621 C   0  0  0  0  0  0  0  0  0130  0  0
  -21.4133  -29.3375   22.3735 N   0  0  0  0  0  0  0  0  0131  0  0
  -26.4706  -37.3372   23.9061 N   0  0  0  0  0  0  0  0  0132  0  0
  -24.6674  -31.0544   22.1178 N   0  0  0  0  0  0  0  0  0133  0  0
  -23.4259  -28.8150   23.2971 O   0  0  0  0  0  0  0  0  0134  0  0
  -28.3948  -26.7345   20.0089 O   0  0  0  0  0  0  0  0  0135  0  0
  -26.5870  -34.9065   22.4671 O   0  0  0  0  0  0  0  0  0136  0  0
  -23.5365  -32.1254   23.7833 O   0  0  0  0  0  0  0  0  0137  0  0
  -23.1699  -25.3753   27.2502 C   0  0  0  0  0  0  0  0  0  0  0  0
  -23.1691  -22.9972   27.2132 C   0  0  0  0  0  0  0  0  0  0  0  0
  -23.8840  -24.1895   27.1888 C   0  0  0  0  0  0  0  0  0  0  0  0
  -21.7815  -23.0267   27.2973 C   0  0  0  0  0  0  0  0  0  0  0  0
  -21.1615  -24.2645   27.3541 C   0  0  0  0  0  0  0  0  0  0  0  0
  -23.9009  -21.6786   27.1494 C   0  0  0  0  0  0  0  0  0  0  0  0
  -19.6740  -24.3799   27.4451 C   0  0  0  0  0  0  0  0  0  0  0  0
  -18.9615  -24.1652   26.1059 C   0  0  0  0  0  0  0  0  0  0  0  0
  -24.3664  -21.3416   25.7370 C   0  0  0  0  0  0  0  0  0  1  0  0
  -21.8222  -25.4437   27.3325 N   0  0  0  0  0  0  0  0  0  0  0  0
  -19.3907  -25.1125   25.1012 N   0  0  0  0  0  0  0  0  0  0  0  0
  -25.6005  -24.2368   27.0851 Cl  0  0  0  0  0  0  0  0  0  0  0  0
  -20.8579  -21.5682   27.3314 Cl  0  0  0  0  0  0  0  0  0  0  0  0
  -31.4485  -12.4701   19.0860 H   0  0  0  0  0  0  0  0  0  0  0  0
  -30.3970  -11.2460   19.6950 H   0  0  0  0  0  0  0  0  0  0  0  0
  -29.6870  -11.8204   17.4226 H   0  0  0  0  0  0  0  0  0  0  0  0
  -29.6375  -13.5326   17.8649 H   0  0  0  0  0  0  0  0  0  0  0  0
  -27.7830  -11.3650   18.7904 H   0  0  0  0  0  0  0  0  0  0  0  0
  -27.4028  -12.7801   17.8021 H   0  0  0  0  0  0  0  0  0  0  0  0
  -27.7353  -14.2503   19.6136 H   0  0  0  0  0  0  0  0  0  0  0  0
  -28.5890  -11.9550   21.3832 H   0  0  0  0  0  0  0  0  0  0  0  0
  -28.5005  -13.6134   21.8562 H   0  0  0  0  0  0  0  0  0  0  0  0
  -25.2399   -9.5495   22.4318 H   0  0  0  0  0  0  0  0  0  0  0  0
  -23.9663   -7.5070   22.7297 H   0  0  0  0  0  0  0  0  0  0  0  0
  -21.1515   -8.8641   19.9162 H   0  0  0  0  0  0  0  0  0  0  0  0
  -22.4016  -10.9115   19.6476 H   0  0  0  0  0  0  0  0  0  0  0  0
  -21.2319   -7.5552   23.9750 H   0  0  0  0  0  0  0  0  0  0  0  0
  -21.1589   -6.0228   25.8556 H   0  0  0  0  0  0  0  0  0  0  0  0
  -22.0396   -2.8212   23.2809 H   0  0  0  0  0  0  0  0  0  0  0  0
  -22.4401  -11.9703   22.4008 H   0  0  0  0  0  0  0  0  0  0  0  0
  -21.1493  -13.0679   22.2082 H   0  0  0  0  0  0  0  0  0  0  0  0
  -24.6538  -15.7807   20.5848 H   0  0  0  0  0  0  0  0  0  0  0  0
  -26.2762  -15.5453   20.1156 H   0  0  0  0  0  0  0  0  0  0  0  0
  -26.6778  -32.4663   23.1464 H   0  0  0  0  0  0  0  0  0  0  0  0
  -25.0747  -34.0282   25.0566 H   0  0  0  0  0  0  0  0  0  0  0  0
  -22.7881  -31.3489   21.4131 H   0  0  0  0  0  0  0  0  0  0  0  0
  -23.3854  -35.9823   23.3648 H   0  0  0  0  0  0  0  0  0  0  0  0
  -24.3696  -36.8624   22.2204 H   0  0  0  0  0  0  0  0  0  0  0  0
  -23.7669  -37.6632   23.6516 H   0  0  0  0  0  0  0  0  0  0  0  0
  -25.9445  -31.6237   20.5691 H   0  0  0  0  0  0  0  0  0  0  0  0
  -26.7436  -31.0079   22.0108 H   0  0  0  0  0  0  0  0  0  0  0  0
  -28.0090  -29.1452   21.2057 H   0  0  0  0  0  0  0  0  0  0  0  0
  -26.1369  -26.0560   19.0719 H   0  0  0  0  0  0  0  0  0  0  0  0
  -24.0652  -27.2961   19.0997 H   0  0  0  0  0  0  0  0  0  0  0  0
  -23.6156  -30.5365   19.3930 H   0  0  0  0  0  0  0  0  0  0  0  0
  -22.7355  -29.1425   19.9945 H   0  0  0  0  0  0  0  0  0  0  0  0
  -25.1353  -36.2335   25.0565 H   0  0  0  0  0  0  0  0  0  0  0  0
  -21.0070  -28.3206   24.0793 H   0  0  0  0  0  0  0  0  0  0  0  0
  -20.5555  -26.2518   23.3550 H   0  0  0  0  0  0  0  0  0  0  0  0
  -21.5974  -26.8362   22.0454 H   0  0  0  0  0  0  0  0  0  0  0  0
  -19.6810  -25.6422   21.1488 H   0  0  0  0  0  0  0  0  0  0  0  0
  -19.6406  -27.3343   20.7034 H   0  0  0  0  0  0  0  0  0  0  0  0
  -17.4282  -26.6888   21.4113 H   0  0  0  0  0  0  0  0  0  0  0  0
  -18.0803  -26.0130   22.9049 H   0  0  0  0  0  0  0  0  0  0  0  0
  -19.7265  -30.6774   24.2204 H   0  0  0  0  0  0  0  0  0  0  0  0
  -17.5064  -31.5856   24.4483 H   0  0  0  0  0  0  0  0  0  0  0  0
  -15.5878  -30.2839   23.7407 H   0  0  0  0  0  0  0  0  0  0  0  0
  -15.9120  -28.0941   22.7766 H   0  0  0  0  0  0  0  0  0  0  0  0
  -24.5787  -30.7757   25.6817 H   0  0  0  0  0  0  0  0  0  0  0  0
  -25.0041  -32.2289   26.5536 H   0  0  0  0  0  0  0  0  0  0  0  0
  -25.8166  -30.7245   26.9138 H   0  0  0  0  0  0  0  0  0  0  0  0
  -26.2892  -29.7335   24.0803 H   0  0  0  0  0  0  0  0  0  0  0  0
  -27.4336  -29.7484   25.4006 H   0  0  0  0  0  0  0  0  0  0  0  0
  -27.8466  -30.4994   23.8779 H   0  0  0  0  0  0  0  0  0  0  0  0
  -27.2251  -33.3632   26.1242 H   0  0  0  0  0  0  0  0  0  0  0  0
  -28.3902  -32.6065   25.0645 H   0  0  0  0  0  0  0  0  0  0  0  0
  -27.9772  -31.8555   26.5872 H   0  0  0  0  0  0  0  0  0  0  0  0
  -28.2744  -38.0016   24.6863 H   0  0  0  0  0  0  0  0  0  0  0  0
  -28.0396  -36.2711   24.7461 H   0  0  0  0  0  0  0  0  0  0  0  0
  -27.1773  -37.3087   25.8564 H   0  0  0  0  0  0  0  0  0  0  0  0
  -20.9627  -29.9365   21.7352 H   0  0  0  0  0  0  0  0  0  0  0  0
  -26.0447  -38.2561   24.0273 H   0  0  0  0  0  0  0  0  0  0  0  0
  -23.6994  -26.2609   27.2320 H   0  0  0  0  0  0  0  0  0  0  0  0
  -23.2450  -20.9045   27.4892 H   0  0  0  0  0  0  0  0  0  0  0  0
  -24.7691  -21.7563   27.7699 H   0  0  0  0  0  0  0  0  0  0  0  0
  -19.4315  -25.3580   27.8048 H   0  0  0  0  0  0  0  0  0  0  0  0
  -19.3384  -23.6094   28.1073 H   0  0  0  0  0  0  0  0  0  0  0  0
  -17.9076  -24.2745   26.2548 H   0  0  0  0  0  0  0  0  0  0  0  0
  -19.2056  -23.1834   25.7575 H   0  0  0  0  0  0  0  0  0  0  0  0
  -23.4849  -21.0103   25.2290 H   0  0  0  0  0  0  0  0  0  0  0  0
  -25.1907  -20.7032   25.9777 H   0  0  0  0  0  0  0  0  0  0  0  0
  -19.1155  -26.0126   24.8125 H   0  0  0  0  0  0  0  0  0  0  0  0
  1 25  1  0
  1 30  2  0
  1 81  1  0
  2  3  1  0
  2 25  1  0
  2 84  1  0
  2 85  1  0
  3  4  1  0
  3 86  1  0
  3 87  1  0
  4  5  1  0
  4 88  1  0
  4 89  1  0
  5  6  1  0
  5 26  1  0
  5 90  1  6
  6 25  1  0
  6 91  1  0
  6 92  1  0
  7  8  2  0
  7 26  1  0
  7 29  1  0
  8  9  1  0
  8 22  1  0
  9 10  1  0
  9 27  2  0
 10 11  2  0
 10 15  1  0
 11 12  1  0
 11 93  1  0
 12 13  2  0
 12 94  1  0
 13 14  1  0
 13 31  1  0
 14 15  2  0
 14 95  1  0
 15 96  1  0
 16 17  2  0
 16 21  1  0
 16 31  1  0
 17 18  1  0
 17 97  1  0
 18 19  2  0
 18 98  1  0
 19 20  1  0
 19 24  1  0
 20 21  2  0
 20 99  1  0
 21 23  1  0
 22 28  1  0
 22 32  2  0
 26 27  1  0
 28100  1  0
 28101  1  0
 29102  1  0
 29103  1  0
 33 34  1  0
 33 66  1  0
 33 70  2  0
 34 36  1  0
 34 59  1  0
 34104  1  6
 35 44  2  0
 35 45  1  0
 35 68  1  0
 36 56  1  0
 36105  1  0
 37 39  1  0
 37 47  1  0
 37 66  1  0
 37106  1  6
 38 43  2  0
 38 46  1  0
 38 47  1  0
 39 64  1  0
 39 67  2  0
 40 52  1  0
 40 53  2  0
 40 58  1  0
 41107  1  0
 41108  1  0
 41109  1  0
 42 43  1  0
 42 66  1  0
 42110  1  0
 42111  1  0
 43 44  1  0
 44112  1  0
 45 46  2  0
 45113  1  0
 46114  1  0
 47115  1  0
 47116  1  0
 48 41  1  0
 48 56  1  0
 48 65  1  0
 48117  1  1
 49 50  1  0
 49 53  1  0
 49 64  1  0
 49118  1  1
 50 51  1  0
 50119  1  0
 50120  1  0
 51 52  1  0
 51121  1  0
 51122  1  0
 52123  1  0
 52124  1  0
 53 54  1  0
 54 55  2  0
 54125  1  0
 55 57  1  0
 55126  1  0
 56 69  2  0
 57 58  2  0
 57127  1  0
 58128  1  0
 59 60  1  0
 59 61  1  0
 59 62  1  0
 60129  1  0
 60130  1  0
 60131  1  0
 61132  1  0
 61133  1  0
 61134  1  0
 62135  1  0
 62136  1  0
 62137  1  0
 63 65  1  0
 63138  1  0
 63139  1  0
 63140  1  0
 64141  1  0
 65142  1  0
 68 79  1  0
 71 73  2  0
 71 80  1  0
 71143  1  0
 72 73  1  0
 72 74  2  0
 72 76  1  0
 73 82  1  0
 74 75  1  0
 74 83  1  0
 75 77  1  0
 75 80  2  0
 76 79  1  0
 76144  1  0
 76145  1  0
 77 78  1  0
 77146  1  0
 77147  1  0
 78 81  1  0
 78148  1  0
 78149  1  0
 79150  1  0
 79151  1  0
 81152  1  0
M  ISO  4   1 100  68 101  79 101  81 100
M  END
$$$$
95
     RDKit          3D

151159  0  0  0  0  0  0  0  0999 V2000
  -30.7652  -14.3608   20.6636 C   0  0  0  0  0  0  0  0  0100  0  0
  -30.4392  -12.2669   19.3775 C   0  0  0  0  0  0  0  0  0101  0  0
  -29.4791  -12.5281   18.1977 C   0  0  0  0  0  0  0  0  0102  0  0
  -27.9985  -12.3963   18.6038 C   0  0  0  0  0  0  0  0  0103  0  0
  -27.6639  -13.2170   19.8820 C   0  0  2  0  0  0  0  0  0104  0  0
  -28.6795  -12.9602   21.0279 C   0  0  0  0  0  0  0  0  0105  0  0
  -25.2633  -13.8245   20.5754 C   0  0  0  0  0  0  0  0  0106  0  0
  -24.1645  -13.0409   20.9408 C   0  0  0  0  0  0  0  0  0107  0  0
  -24.6400  -11.7009   20.8697 C   0  0  0  0  0  0  0  0  0108  0  0
  -23.9005  -10.4085   21.0420 C   0  0  0  0  0  0  0  0  0109  0  0
  -24.3588   -9.4123   21.9123 C   0  0  0  0  0  0  0  0  0110  0  0
  -23.6296   -8.2350   22.0803 C   0  0  0  0  0  0  0  0  0111  0  0
  -22.4385   -8.0419   21.3657 C   0  0  0  0  0  0  0  0  0112  0  0
  -22.0103   -9.0167   20.4678 C   0  0  0  0  0  0  0  0  0113  0  0
  -22.7317  -10.1925   20.3102 C   0  0  0  0  0  0  0  0  0114  0  0
  -21.6857   -6.0709   22.5391 C   0  0  0  0  0  0  0  0  0115  0  0
  -21.4064   -6.5490   23.8264 C   0  0  0  0  0  0  0  0  0116  0  0
  -21.3635   -5.6677   24.9085 C   0  0  0  0  0  0  0  0  0117  0  0
  -21.5973   -4.3067   24.7088 C   0  0  0  0  0  0  0  0  0118  0  0
  -21.8700   -3.8284   23.4282 C   0  0  0  0  0  0  0  0  0119  0  0
  -21.9144   -4.7056   22.3460 C   0  0  0  0  0  0  0  0  0120  0  0
  -22.8194  -13.5263   21.1763 C   0  0  0  0  0  0  0  0  0121  0  0
  -22.1559   -4.2206   21.1063 F   0  0  0  0  0  0  0  0  0122  0  0
  -21.5628   -3.4510   25.7555 F   0  0  0  0  0  0  0  0  0123  0  0
  -30.0261  -13.1803   20.4553 N   0  0  0  0  0  0  0  0  0124  0  0
  -26.2911  -12.9356   20.3443 N   0  0  0  0  0  0  0  0  0125  0  0
  -25.9236  -11.6675   20.5847 N   0  0  0  0  0  0  0  0  0126  0  0
  -22.0708  -12.7905   22.0005 N   0  0  0  0  0  0  0  0  0127  0  0
  -25.4117  -15.1773   20.4097 N   0  0  0  0  0  0  0  0  0128  0  0
  -31.7916  -14.6724   20.0536 O   0  0  0  0  0  0  0  0  0129  0  0
  -21.6670   -6.9022   21.4423 O   0  0  0  0  0  0  0  0  0130  0  0
  -22.3946  -14.5564   20.6568 O   0  0  0  0  0  0  0  0  0131  0  0
  -24.6048  -31.8614   23.2223 C   0  0  0  0  0  0  0  0  0100  0  0
  -25.8822  -32.4841   23.8616 C   0  0  1  0  0  0  0  0  0101  0  0
  -27.2536  -27.5042   20.1156 C   0  0  0  0  0  0  0  0  0102  0  0
  -25.5726  -33.8762   24.2210 N   0  0  0  0  0  0  0  0  0103  0  0
  -23.4066  -30.4859   21.5461 C   0  0  2  0  0  0  0  0  0104  0  0
  -24.8467  -28.9636   20.1247 C   0  0  0  0  0  0  0  0  0105  0  0
  -22.7412  -29.4652   22.5052 C   0  0  0  0  0  0  0  0  0106  0  0
  -18.0167  -28.1302   22.8626 C   0  0  0  0  0  0  0  0  0107  0  0
  -24.1342  -36.7390   23.2568 C   0  0  0  0  0  0  0  0  0108  0  0
  -25.9141  -30.8882   21.3456 C   0  0  0  0  0  0  0  0  0109  0  0
  -25.9930  -29.5029   20.7208 C   0  0  0  0  0  0  0  0  0110  0  0
  -27.1758  -28.7612   20.7331 C   0  0  0  0  0  0  0  0  0111  0  0
  -26.1032  -26.9836   19.5230 C   0  0  0  0  0  0  0  0  0112  0  0
  -24.9097  -27.7011   19.5331 C   0  0  0  0  0  0  0  0  0113  0  0
  -23.5715  -29.7899   20.1582 C   0  0  0  0  0  0  0  0  0114  0  0
  -25.3990  -36.3212   24.0232 C   0  0  1  0  0  0  0  0  0115  0  0
  -20.5793  -28.3813   23.1004 C   0  0  2  0  0  0  0  0  0116  0  0
  -20.6548  -26.9392   22.5411 C   0  0  0  0  0  0  0  0  0117  0  0
  -19.5615  -26.6407   21.5143 C   0  0  0  0  0  0  0  0  0118  0  0
  -18.1797  -26.7818   22.1673 C   0  0  0  0  0  0  0  0  0119  0  0
  -19.1385  -28.8769   23.2988 C   0  0  0  0  0  0  0  0  0120  0  0
  -18.9183  -30.1286   23.8878 C   0  0  0  0  0  0  0  0  0121  0  0
  -17.6396  -30.6493   24.0352 C   0  0  0  0  0  0  0  0  0122  0  0
  -25.9153  -34.9582   23.4993 C   0  0  0  0  0  0  0  0  0123  0  0
  -16.5415  -29.9068   23.6254 C   0  0  0  0  0  0  0  0  0124  0  0
  -16.7331  -28.6521   23.0586 C   0  0  0  0  0  0  0  0  0125  0  0
  -26.4583  -31.6439   25.0683 C   0  0  0  0  0  0  0  0  0126  0  0
  -25.3807  -31.3179   26.1374 C   0  0  0  0  0  0  0  0  0127  0  0
  -27.0530  -30.3024   24.5680 C   0  0  0  0  0  0  0  0  0128  0  0
  -27.6014  -32.4281   25.7651 C   0  0  0  0  0  0  0  0  0129  0  0
  -27.5629  -37.2220   24.8621 C   0  0  0  0  0  0  0  0  0130  0  0
  -21.4133  -29.3375   22.3735 N   0  0  0  0  0  0  0  0  0131  0  0
  -26.4706  -37.3372   23.9061 N   0  0  0  0  0  0  0  0  0132  0  0
  -24.6674  -31.0544   22.1178 N   0  0  0  0  0  0  0  0  0133  0  0
  -23.4259  -28.8150   23.2971 O   0  0  0  0  0  0  0  0  0134  0  0
  -28.3948  -26.7345   20.0089 O   0  0  0  0  0  0  0  0  0135  0  0
  -26.5870  -34.9065   22.4671 O   0  0  0  0  0  0  0  0  0136  0  0
  -23.5365  -32.1254   23.7833 O   0  0  0  0  0  0  0  0  0137  0  0
  -28.3442  -23.8324   20.6333 C   0  0  0  0  0  0  0  0  0  0  0  0
  -27.3653  -22.8167   20.5021 C   0  0  0  0  0  0  0  0  0  0  0  0
  -28.6950  -24.2322   19.3627 C   0  0  0  0  0  0  0  0  0  0  0  0
  -27.1479  -22.6266   19.1553 C   0  0  0  0  0  0  0  0  0  0  0  0
  -28.0485  -23.6210   17.0315 C   0  0  0  0  0  0  0  0  0  0  0  0
  -26.7065  -22.1008   21.6127 C   0  0  0  0  0  0  0  0  0  0  0  0
  -29.6882  -25.2787   18.9191 C   0  0  0  0  0  0  0  0  0  0  0  0
  -29.0525  -26.6571   18.7748 C   0  0  0  0  0  0  0  0  0  1  0  0
  -27.9617  -23.4922   18.4723 N   0  0  0  0  0  0  0  0  0  0  0  0
  -27.2093  -20.7570   21.7925 N   0  0  0  0  0  0  0  0  0  0  0  0
  -26.1094  -21.5675   18.3221 Cl  0  0  0  0  0  0  0  0  0  0  0  0
  -31.4485  -12.4701   19.0860 H   0  0  0  0  0  0  0  0  0  0  0  0
  -30.3970  -11.2460   19.6950 H   0  0  0  0  0  0  0  0  0  0  0  0
  -29.6870  -11.8204   17.4226 H   0  0  0  0  0  0  0  0  0  0  0  0
  -29.6375  -13.5326   17.8649 H   0  0  0  0  0  0  0  0  0  0  0  0
  -27.7830  -11.3650   18.7904 H   0  0  0  0  0  0  0  0  0  0  0  0
  -27.4028  -12.7801   17.8021 H   0  0  0  0  0  0  0  0  0  0  0  0
  -27.7353  -14.2503   19.6136 H   0  0  0  0  0  0  0  0  0  0  0  0
  -28.5890  -11.9550   21.3832 H   0  0  0  0  0  0  0  0  0  0  0  0
  -28.5005  -13.6134   21.8562 H   0  0  0  0  0  0  0  0  0  0  0  0
  -25.2399   -9.5495   22.4318 H   0  0  0  0  0  0  0  0  0  0  0  0
  -23.9663   -7.5070   22.7297 H   0  0  0  0  0  0  0  0  0  0  0  0
  -21.1515   -8.8641   19.9162 H   0  0  0  0  0  0  0  0  0  0  0  0
  -22.4016  -10.9115   19.6476 H   0  0  0  0  0  0  0  0  0  0  0  0
  -21.2319   -7.5552   23.9750 H   0  0  0  0  0  0  0  0  0  0  0  0
  -21.1589   -6.0228   25.8556 H   0  0  0  0  0  0  0  0  0  0  0  0
  -22.0396   -2.8212   23.2809 H   0  0  0  0  0  0  0  0  0  0  0  0
  -22.4401  -11.9703   22.4008 H   0  0  0  0  0  0  0  0  0  0  0  0
  -21.1493  -13.0679   22.2082 H   0  0  0  0  0  0  0  0  0  0  0  0
  -24.6538  -15.7807   20.5848 H   0  0  0  0  0  0  0  0  0  0  0  0
  -26.2762  -15.5453   20.1156 H   0  0  0  0  0  0  0  0  0  0  0  0
  -26.6778  -32.4663   23.1464 H   0  0  0  0  0  0  0  0  0  0  0  0
  -25.0747  -34.0282   25.0566 H   0  0  0  0  0  0  0  0  0  0  0  0
  -22.7881  -31.3489   21.4131 H   0  0  0  0  0  0  0  0  0  0  0  0
  -23.3854  -35.9823   23.3648 H   0  0  0  0  0  0  0  0  0  0  0  0
  -24.3696  -36.8624   22.2204 H   0  0  0  0  0  0  0  0  0  0  0  0
  -23.7669  -37.6632   23.6516 H   0  0  0  0  0  0  0  0  0  0  0  0
  -25.9445  -31.6237   20.5691 H   0  0  0  0  0  0  0  0  0  0  0  0
  -26.7436  -31.0079   22.0108 H   0  0  0  0  0  0  0  0  0  0  0  0
  -28.0090  -29.1452   21.2057 H   0  0  0  0  0  0  0  0  0  0  0  0
  -26.1369  -26.0560   19.0719 H   0  0  0  0  0  0  0  0  0  0  0  0
  -24.0652  -27.2961   19.0997 H   0  0  0  0  0  0  0  0  0  0  0  0
  -23.6156  -30.5365   19.3930 H   0  0  0  0  0  0  0  0  0  0  0  0
  -22.7355  -29.1425   19.9945 H   0  0  0  0  0  0  0  0  0  0  0  0
  -25.1353  -36.2335   25.0565 H   0  0  0  0  0  0  0  0  0  0  0  0
  -21.0070  -28.3206   24.0793 H   0  0  0  0  0  0  0  0  0  0  0  0
  -20.5555  -26.2518   23.3550 H   0  0  0  0  0  0  0  0  0  0  0  0
  -21.5974  -26.8362   22.0454 H   0  0  0  0  0  0  0  0  0  0  0  0
  -19.6810  -25.6422   21.1488 H   0  0  0  0  0  0  0  0  0  0  0  0
  -19.6406  -27.3343   20.7034 H   0  0  0  0  0  0  0  0  0  0  0  0
  -17.4282  -26.6888   21.4113 H   0  0  0  0  0  0  0  0  0  0  0  0
  -18.0803  -26.0130   22.9049 H   0  0  0  0  0  0  0  0  0  0  0  0
  -19.7265  -30.6774   24.2204 H   0  0  0  0  0  0  0  0  0  0  0  0
  -17.5064  -31.5856   24.4483 H   0  0  0  0  0  0  0  0  0  0  0  0
  -15.5878  -30.2839   23.7407 H   0  0  0  0  0  0  0  0  0  0  0  0
  -15.9120  -28.0941   22.7766 H   0  0  0  0  0  0  0  0  0  0  0  0
  -24.5787  -30.7757   25.6817 H   0  0  0  0  0  0  0  0  0  0  0  0
  -25.0041  -32.2289   26.5536 H   0  0  0  0  0  0  0  0  0  0  0  0
  -25.8166  -30.7245   26.9138 H   0  0  0  0  0  0  0  0  0  0  0  0
  -26.2892  -29.7335   24.0803 H   0  0  0  0  0  0  0  0  0  0  0  0
  -27.4336  -29.7484   25.4006 H   0  0  0  0  0  0  0  0  0  0  0  0
  -27.8466  -30.4994   23.8779 H   0  0  0  0  0  0  0  0  0  0  0  0
  -27.2251  -33.3632   26.1242 H   0  0  0  0  0  0  0  0  0  0  0  0
  -28.3902  -32.6065   25.0645 H   0  0  0  0  0  0  0  0  0  0  0  0
  -27.9772  -31.8555   26.5872 H   0  0  0  0  0  0  0  0  0  0  0  0
  -28.2744  -38.0016   24.6863 H   0  0  0  0  0  0  0  0  0  0  0  0
  -28.0396  -36.2711   24.7461 H   0  0  0  0  0  0  0  0  0  0  0  0
  -27.1773  -37.3087   25.8564 H   0  0  0  0  0  0  0  0  0  0  0  0
  -20.9627  -29.9365   21.7352 H   0  0  0  0  0  0  0  0  0  0  0  0
  -26.0447  -38.2561   24.0273 H   0  0  0  0  0  0  0  0  0  0  0  0
  -28.7244  -24.2042   21.5178 H   0  0  0  0  0  0  0  0  0  0  0  0
  -28.7661  -24.3749   16.7834 H   0  0  0  0  0  0  0  0  0  0  0  0
  -27.0917  -23.8967   16.6398 H   0  0  0  0  0  0  0  0  0  0  0  0
  -28.3517  -22.6866   16.6075 H   0  0  0  0  0  0  0  0  0  0  0  0
  -25.6571  -22.0485   21.4104 H   0  0  0  0  0  0  0  0  0  0  0  0
  -26.9121  -22.6436   22.5116 H   0  0  0  0  0  0  0  0  0  0  0  0
  -30.0957  -24.9872   17.9736 H   0  0  0  0  0  0  0  0  0  0  0  0
  -30.4486  -25.3463   19.6688 H   0  0  0  0  0  0  0  0  0  0  0  0
  -28.3677  -26.6976   17.9536 H   0  0  0  0  0  0  0  0  0  0  0  0
  -29.7346  -27.4556   18.5697 H   0  0  0  0  0  0  0  0  0  0  0  0
  -26.7936  -20.5514   22.6609 H   0  0  0  0  0  0  0  0  0  0  0  0
  1 25  1  0
  1 30  2  0
  1 80  1  0
  2  3  1  0
  2 25  1  0
  2 82  1  0
  2 83  1  0
  3  4  1  0
  3 84  1  0
  3 85  1  0
  4  5  1  0
  4 86  1  0
  4 87  1  0
  5  6  1  0
  5 26  1  0
  5 88  1  6
  6 25  1  0
  6 89  1  0
  6 90  1  0
  7  8  2  0
  7 26  1  0
  7 29  1  0
  8  9  1  0
  8 22  1  0
  9 10  1  0
  9 27  2  0
 10 11  2  0
 10 15  1  0
 11 12  1  0
 11 91  1  0
 12 13  2  0
 12 92  1  0
 13 14  1  0
 13 31  1  0
 14 15  2  0
 14 93  1  0
 15 94  1  0
 16 17  2  0
 16 21  1  0
 16 31  1  0
 17 18  1  0
 17 95  1  0
 18 19  2  0
 18 96  1  0
 19 20  1  0
 19 24  1  0
 20 21  2  0
 20 97  1  0
 21 23  1  0
 22 28  1  0
 22 32  2  0
 26 27  1  0
 28 98  1  0
 28 99  1  0
 29100  1  0
 29101  1  0
 33 34  1  0
 33 66  1  0
 33 70  2  0
 34 36  1  0
 34 59  1  0
 34102  1  6
 35 44  2  0
 35 45  1  0
 35 68  1  0
 36 56  1  0
 36103  1  0
 37 39  1  0
 37 47  1  0
 37 66  1  0
 37104  1  6
 38 43  2  0
 38 46  1  0
 38 47  1  0
 39 64  1  0
 39 67  2  0
 40 52  1  0
 40 53  2  0
 40 58  1  0
 41105  1  0
 41106  1  0
 41107  1  0
 42 43  1  0
 42 66  1  0
 42108  1  0
 42109  1  0
 43 44  1  0
 44110  1  0
 45 46  2  0
 45111  1  0
 46112  1  0
 47113  1  0
 47114  1  0
 48 41  1  0
 48 56  1  0
 48 65  1  0
 48115  1  1
 49 50  1  0
 49 53  1  0
 49 64  1  0
 49116  1  1
 50 51  1  0
 50117  1  0
 50118  1  0
 51 52  1  0
 51119  1  0
 51120  1  0
 52121  1  0
 52122  1  0
 53 54  1  0
 54 55  2  0
 54123  1  0
 55 57  1  0
 55124  1  0
 56 69  2  0
 57 58  2  0
 57125  1  0
 58126  1  0
 59 60  1  0
 59 61  1  0
 59 62  1  0
 60127  1  0
 60128  1  0
 60129  1  0
 61130  1  0
 61131  1  0
 61132  1  0
 62133  1  0
 62134  1  0
 62135  1  0
 63 65  1  0
 63136  1  0
 63137  1  0
 63138  1  0
 64139  1  0
 65140  1  0
 68 78  1  0
 71 72  1  0
 71 73  2  0
 71141  1  0
 72 74  2  0
 72 76  1  0
 73 77  1  0
 73 79  1  0
 74 79  1  0
 74 81  1  0
 75 79  1  0
 75142  1  0
 75143  1  0
 75144  1  0
 76 80  1  0
 76145  1  0
 76146  1  0
 77 78  1  0
 77147  1  0
 77148  1  0
 78149  1  0
 78150  1  0
 80151  1  0
M  ISO  4   1 100  68 101  78 101  80 100
M  END
$$$$
96
     RDKit          3D

156164  0  0  0  0  0  0  0  0999 V2000
  -30.7652  -14.3608   20.6636 C   0  0  0  0  0  0  0  0  0100  0  0
  -30.4392  -12.2669   19.3775 C   0  0  0  0  0  0  0  0  0101  0  0
  -29.4791  -12.5281   18.1977 C   0  0  0  0  0  0  0  0  0102  0  0
  -27.9985  -12.3963   18.6038 C   0  0  0  0  0  0  0  0  0103  0  0
  -27.6639  -13.2170   19.8820 C   0  0  2  0  0  0  0  0  0104  0  0
  -28.6795  -12.9602   21.0279 C   0  0  0  0  0  0  0  0  0105  0  0
  -25.2633  -13.8245   20.5754 C   0  0  0  0  0  0  0  0  0106  0  0
  -24.1645  -13.0409   20.9408 C   0  0  0  0  0  0  0  0  0107  0  0
  -24.6400  -11.7009   20.8697 C   0  0  0  0  0  0  0  0  0108  0  0
  -23.9005  -10.4085   21.0420 C   0  0  0  0  0  0  0  0  0109  0  0
  -24.3588   -9.4123   21.9123 C   0  0  0  0  0  0  0  0  0110  0  0
  -23.6296   -8.2350   22.0803 C   0  0  0  0  0  0  0  0  0111  0  0
  -22.4385   -8.0419   21.3657 C   0  0  0  0  0  0  0  0  0112  0  0
  -22.0103   -9.0167   20.4678 C   0  0  0  0  0  0  0  0  0113  0  0
  -22.7317  -10.1925   20.3102 C   0  0  0  0  0  0  0  0  0114  0  0
  -21.6857   -6.0709   22.5391 C   0  0  0  0  0  0  0  0  0115  0  0
  -21.4064   -6.5490   23.8264 C   0  0  0  0  0  0  0  0  0116  0  0
  -21.3635   -5.6677   24.9085 C   0  0  0  0  0  0  0  0  0117  0  0
  -21.5973   -4.3067   24.7088 C   0  0  0  0  0  0  0  0  0118  0  0
  -21.8700   -3.8284   23.4282 C   0  0  0  0  0  0  0  0  0119  0  0
  -21.9144   -4.7056   22.3460 C   0  0  0  0  0  0  0  0  0120  0  0
  -22.8194  -13.5263   21.1763 C   0  0  0  0  0  0  0  0  0121  0  0
  -22.1559   -4.2206   21.1063 F   0  0  0  0  0  0  0  0  0122  0  0
  -21.5628   -3.4510   25.7555 F   0  0  0  0  0  0  0  0  0123  0  0
  -30.0261  -13.1803   20.4553 N   0  0  0  0  0  0  0  0  0124  0  0
  -26.2911  -12.9356   20.3443 N   0  0  0  0  0  0  0  0  0125  0  0
  -25.9236  -11.6675   20.5847 N   0  0  0  0  0  0  0  0  0126  0  0
  -22.0708  -12.7905   22.0005 N   0  0  0  0  0  0  0  0  0127  0  0
  -25.4117  -15.1773   20.4097 N   0  0  0  0  0  0  0  0  0128  0  0
  -31.7916  -14.6724   20.0536 O   0  0  0  0  0  0  0  0  0129  0  0
  -21.6670   -6.9022   21.4423 O   0  0  0  0  0  0  0  0  0130  0  0
  -22.3946  -14.5564   20.6568 O   0  0  0  0  0  0  0  0  0131  0  0
  -24.6048  -31.8614   23.2223 C   0  0  0  0  0  0  0  0  0100  0  0
  -25.8822  -32.4841   23.8616 C   0  0  1  0  0  0  0  0  0101  0  0
  -27.2536  -27.5042   20.1156 C   0  0  0  0  0  0  0  0  0102  0  0
  -25.5726  -33.8762   24.2210 N   0  0  0  0  0  0  0  0  0103  0  0
  -23.4066  -30.4859   21.5461 C   0  0  2  0  0  0  0  0  0104  0  0
  -24.8467  -28.9636   20.1247 C   0  0  0  0  0  0  0  0  0105  0  0
  -22.7412  -29.4652   22.5052 C   0  0  0  0  0  0  0  0  0106  0  0
  -18.0167  -28.1302   22.8626 C   0  0  0  0  0  0  0  0  0107  0  0
  -24.1342  -36.7390   23.2568 C   0  0  0  0  0  0  0  0  0108  0  0
  -25.9141  -30.8882   21.3456 C   0  0  0  0  0  0  0  0  0109  0  0
  -25.9930  -29.5029   20.7208 C   0  0  0  0  0  0  0  0  0110  0  0
  -27.1758  -28.7612   20.7331 C   0  0  0  0  0  0  0  0  0111  0  0
  -26.1032  -26.9836   19.5230 C   0  0  0  0  0  0  0  0  0112  0  0
  -24.9097  -27.7011   19.5331 C   0  0  0  0  0  0  0  0  0113  0  0
  -23.5715  -29.7899   20.1582 C   0  0  0  0  0  0  0  0  0114  0  0
  -25.3990  -36.3212   24.0232 C   0  0  1  0  0  0  0  0  0115  0  0
  -20.5793  -28.3813   23.1004 C   0  0  2  0  0  0  0  0  0116  0  0
  -20.6548  -26.9392   22.5411 C   0  0  0  0  0  0  0  0  0117  0  0
  -19.5615  -26.6407   21.5143 C   0  0  0  0  0  0  0  0  0118  0  0
  -18.1797  -26.7818   22.1673 C   0  0  0  0  0  0  0  0  0119  0  0
  -19.1385  -28.8769   23.2988 C   0  0  0  0  0  0  0  0  0120  0  0
  -18.9183  -30.1286   23.8878 C   0  0  0  0  0  0  0  0  0121  0  0
  -17.6396  -30.6493   24.0352 C   0  0  0  0  0  0  0  0  0122  0  0
  -25.9153  -34.9582   23.4993 C   0  0  0  0  0  0  0  0  0123  0  0
  -16.5415  -29.9068   23.6254 C   0  0  0  0  0  0  0  0  0124  0  0
  -16.7331  -28.6521   23.0586 C   0  0  0  0  0  0  0  0  0125  0  0
  -26.4583  -31.6439   25.0683 C   0  0  0  0  0  0  0  0  0126  0  0
  -25.3807  -31.3179   26.1374 C   0  0  0  0  0  0  0  0  0127  0  0
  -27.0530  -30.3024   24.5680 C   0  0  0  0  0  0  0  0  0128  0  0
  -27.6014  -32.4281   25.7651 C   0  0  0  0  0  0  0  0  0129  0  0
  -27.5629  -37.2220   24.8621 C   0  0  0  0  0  0  0  0  0130  0  0
  -21.4133  -29.3375   22.3735 N   0  0  0  0  0  0  0  0  0131  0  0
  -26.4706  -37.3372   23.9061 N   0  0  0  0  0  0  0  0  0132  0  0
  -24.6674  -31.0544   22.1178 N   0  0  0  0  0  0  0  0  0133  0  0
  -23.4259  -28.8150   23.2971 O   0  0  0  0  0  0  0  0  0134  0  0
  -28.3948  -26.7345   20.0089 O   0  0  0  0  0  0  0  0  0135  0  0
  -26.5870  -34.9065   22.4671 O   0  0  0  0  0  0  0  0  0136  0  0
  -23.5365  -32.1254   23.7833 O   0  0  0  0  0  0  0  0  0137  0  0
  -30.4669  -18.1212   25.7113 C   0  0  0  0  0  0  0  0  0  0  0  0
  -29.5710  -19.1242   26.0813 C   0  0  0  0  0  0  0  0  0  0  0  0
  -28.7766  -17.1336   24.2954 C   0  0  0  0  0  0  0  0  0  0  0  0
  -30.0697  -17.1259   24.8183 C   0  0  0  0  0  0  0  0  0  0  0  0
  -28.2779  -19.1319   25.5584 C   0  0  0  0  0  0  0  0  0  0  0  0
  -27.8806  -18.1366   24.6655 C   0  0  0  0  0  0  0  0  0  0  0  0
  -31.0275  -16.0533   24.4227 C   0  0  0  0  0  0  0  0  0  0  0  0
  -27.3389  -20.2341   25.9849 C   0  0  0  0  0  0  0  0  0  0  0  0
  -31.8765  -16.3829   23.1790 C   0  0  0  0  0  0  0  0  0  0  0  0
  -31.0654  -16.5919   21.9020 C   0  0  0  0  0  0  0  0  0  0  0  0
  -27.1898  -21.3137   24.9185 C   0  0  0  0  0  0  0  0  0  1  0  0
  -30.3245  -15.4111   21.5179 N   0  0  0  0  0  0  0  0  0  0  0  0
  -26.2884  -18.1137   23.9993 Cl  0  0  0  0  0  0  0  0  0  0  0  0
  -31.4485  -12.4701   19.0860 H   0  0  0  0  0  0  0  0  0  0  0  0
  -30.3970  -11.2460   19.6950 H   0  0  0  0  0  0  0  0  0  0  0  0
  -29.6870  -11.8204   17.4226 H   0  0  0  0  0  0  0  0  0  0  0  0
  -29.6375  -13.5326   17.8649 H   0  0  0  0  0  0  0  0  0  0  0  0
  -27.7830  -11.3650   18.7904 H   0  0  0  0  0  0  0  0  0  0  0  0
  -27.4028  -12.7801   17.8021 H   0  0  0  0  0  0  0  0  0  0  0  0
  -27.7353  -14.2503   19.6136 H   0  0  0  0  0  0  0  0  0  0  0  0
  -28.5890  -11.9550   21.3832 H   0  0  0  0  0  0  0  0  0  0  0  0
  -28.5005  -13.6134   21.8562 H   0  0  0  0  0  0  0  0  0  0  0  0
  -25.2399   -9.5495   22.4318 H   0  0  0  0  0  0  0  0  0  0  0  0
  -23.9663   -7.5070   22.7297 H   0  0  0  0  0  0  0  0  0  0  0  0
  -21.1515   -8.8641   19.9162 H   0  0  0  0  0  0  0  0  0  0  0  0
  -22.4016  -10.9115   19.6476 H   0  0  0  0  0  0  0  0  0  0  0  0
  -21.2319   -7.5552   23.9750 H   0  0  0  0  0  0  0  0  0  0  0  0
  -21.1589   -6.0228   25.8556 H   0  0  0  0  0  0  0  0  0  0  0  0
  -22.0396   -2.8212   23.2809 H   0  0  0  0  0  0  0  0  0  0  0  0
  -22.4401  -11.9703   22.4008 H   0  0  0  0  0  0  0  0  0  0  0  0
  -21.1493  -13.0679   22.2082 H   0  0  0  0  0  0  0  0  0  0  0  0
  -24.6538  -15.7807   20.5848 H   0  0  0  0  0  0  0  0  0  0  0  0
  -26.2762  -15.5453   20.1156 H   0  0  0  0  0  0  0  0  0  0  0  0
  -26.6778  -32.4663   23.1464 H   0  0  0  0  0  0  0  0  0  0  0  0
  -25.0747  -34.0282   25.0566 H   0  0  0  0  0  0  0  0  0  0  0  0
  -22.7881  -31.3489   21.4131 H   0  0  0  0  0  0  0  0  0  0  0  0
  -23.3854  -35.9823   23.3648 H   0  0  0  0  0  0  0  0  0  0  0  0
  -24.3696  -36.8624   22.2204 H   0  0  0  0  0  0  0  0  0  0  0  0
  -23.7669  -37.6632   23.6516 H   0  0  0  0  0  0  0  0  0  0  0  0
  -25.9445  -31.6237   20.5691 H   0  0  0  0  0  0  0  0  0  0  0  0
  -26.7436  -31.0079   22.0108 H   0  0  0  0  0  0  0  0  0  0  0  0
  -28.0090  -29.1452   21.2057 H   0  0  0  0  0  0  0  0  0  0  0  0
  -26.1369  -26.0560   19.0719 H   0  0  0  0  0  0  0  0  0  0  0  0
  -24.0652  -27.2961   19.0997 H   0  0  0  0  0  0  0  0  0  0  0  0
  -23.6156  -30.5365   19.3930 H   0  0  0  0  0  0  0  0  0  0  0  0
  -22.7355  -29.1425   19.9945 H   0  0  0  0  0  0  0  0  0  0  0  0
  -25.1353  -36.2335   25.0565 H   0  0  0  0  0  0  0  0  0  0  0  0
  -21.0070  -28.3206   24.0793 H   0  0  0  0  0  0  0  0  0  0  0  0
  -20.5555  -26.2518   23.3550 H   0  0  0  0  0  0  0  0  0  0  0  0
  -21.5974  -26.8362   22.0454 H   0  0  0  0  0  0  0  0  0  0  0  0
  -19.6810  -25.6422   21.1488 H   0  0  0  0  0  0  0  0  0  0  0  0
  -19.6406  -27.3343   20.7034 H   0  0  0  0  0  0  0  0  0  0  0  0
  -17.4282  -26.6888   21.4113 H   0  0  0  0  0  0  0  0  0  0  0  0
  -18.0803  -26.0130   22.9049 H   0  0  0  0  0  0  0  0  0  0  0  0
  -19.7265  -30.6774   24.2204 H   0  0  0  0  0  0  0  0  0  0  0  0
  -17.5064  -31.5856   24.4483 H   0  0  0  0  0  0  0  0  0  0  0  0
  -15.5878  -30.2839   23.7407 H   0  0  0  0  0  0  0  0  0  0  0  0
  -15.9120  -28.0941   22.7766 H   0  0  0  0  0  0  0  0  0  0  0  0
  -24.5787  -30.7757   25.6817 H   0  0  0  0  0  0  0  0  0  0  0  0
  -25.0041  -32.2289   26.5536 H   0  0  0  0  0  0  0  0  0  0  0  0
  -25.8166  -30.7245   26.9138 H   0  0  0  0  0  0  0  0  0  0  0  0
  -26.2892  -29.7335   24.0803 H   0  0  0  0  0  0  0  0  0  0  0  0
  -27.4336  -29.7484   25.4006 H   0  0  0  0  0  0  0  0  0  0  0  0
  -27.8466  -30.4994   23.8779 H   0  0  0  0  0  0  0  0  0  0  0  0
  -27.2251  -33.3632   26.1242 H   0  0  0  0  0  0  0  0  0  0  0  0
  -28.3902  -32.6065   25.0645 H   0  0  0  0  0  0  0  0  0  0  0  0
  -27.9772  -31.8555   26.5872 H   0  0  0  0  0  0  0  0  0  0  0  0
  -28.2744  -38.0016   24.6863 H   0  0  0  0  0  0  0  0  0  0  0  0
  -28.0396  -36.2711   24.7461 H   0  0  0  0  0  0  0  0  0  0  0  0
  -27.1773  -37.3087   25.8564 H   0  0  0  0  0  0  0  0  0  0  0  0
  -20.9627  -29.9365   21.7352 H   0  0  0  0  0  0  0  0  0  0  0  0
  -26.0447  -38.2561   24.0273 H   0  0  0  0  0  0  0  0  0  0  0  0
  -31.4236  -18.1154   26.0982 H   0  0  0  0  0  0  0  0  0  0  0  0
  -29.8649  -19.8606   26.7419 H   0  0  0  0  0  0  0  0  0  0  0  0
  -28.4828  -16.3973   23.6347 H   0  0  0  0  0  0  0  0  0  0  0  0
  -30.4684  -15.1639   24.2198 H   0  0  0  0  0  0  0  0  0  0  0  0
  -31.7117  -15.9399   25.2375 H   0  0  0  0  0  0  0  0  0  0  0  0
  -27.7193  -20.6835   26.8783 H   0  0  0  0  0  0  0  0  0  0  0  0
  -26.3750  -19.7983   26.1459 H   0  0  0  0  0  0  0  0  0  0  0  0
  -32.5580  -15.5746   23.0146 H   0  0  0  0  0  0  0  0  0  0  0  0
  -32.3717  -17.3093   23.3827 H   0  0  0  0  0  0  0  0  0  0  0  0
  -31.7350  -16.8502   21.1084 H   0  0  0  0  0  0  0  0  0  0  0  0
  -30.3585  -17.3729   22.0897 H   0  0  0  0  0  0  0  0  0  0  0  0
  -26.4387  -21.8550   25.4549 H   0  0  0  0  0  0  0  0  0  0  0  0
  -27.7301  -20.6663   24.2599 H   0  0  0  0  0  0  0  0  0  0  0  0
  -29.4162  -15.3239   21.8874 H   0  0  0  0  0  0  0  0  0  0  0  0
  1 25  1  0
  1 30  2  0
  1 82  1  0
  2  3  1  0
  2 25  1  0
  2 84  1  0
  2 85  1  0
  3  4  1  0
  3 86  1  0
  3 87  1  0
  4  5  1  0
  4 88  1  0
  4 89  1  0
  5  6  1  0
  5 26  1  0
  5 90  1  6
  6 25  1  0
  6 91  1  0
  6 92  1  0
  7  8  2  0
  7 26  1  0
  7 29  1  0
  8  9  1  0
  8 22  1  0
  9 10  1  0
  9 27  2  0
 10 11  2  0
 10 15  1  0
 11 12  1  0
 11 93  1  0
 12 13  2  0
 12 94  1  0
 13 14  1  0
 13 31  1  0
 14 15  2  0
 14 95  1  0
 15 96  1  0
 16 17  2  0
 16 21  1  0
 16 31  1  0
 17 18  1  0
 17 97  1  0
 18 19  2  0
 18 98  1  0
 19 20  1  0
 19 24  1  0
 20 21  2  0
 20 99  1  0
 21 23  1  0
 22 28  1  0
 22 32  2  0
 26 27  1  0
 28100  1  0
 28101  1  0
 29102  1  0
 29103  1  0
 33 34  1  0
 33 66  1  0
 33 70  2  0
 34 36  1  0
 34 59  1  0
 34104  1  6
 35 44  2  0
 35 45  1  0
 35 68  1  0
 36 56  1  0
 36105  1  0
 37 39  1  0
 37 47  1  0
 37 66  1  0
 37106  1  6
 38 43  2  0
 38 46  1  0
 38 47  1  0
 39 64  1  0
 39 67  2  0
 40 52  1  0
 40 53  2  0
 40 58  1  0
 41107  1  0
 41108  1  0
 41109  1  0
 42 43  1  0
 42 66  1  0
 42110  1  0
 42111  1  0
 43 44  1  0
 44112  1  0
 45 46  2  0
 45113  1  0
 46114  1  0
 47115  1  0
 47116  1  0
 48 41  1  0
 48 56  1  0
 48 65  1  0
 48117  1  1
 49 50  1  0
 49 53  1  0
 49 64  1  0
 49118  1  1
 50 51  1  0
 50119  1  0
 50120  1  0
 51 52  1  0
 51121  1  0
 51122  1  0
 52123  1  0
 52124  1  0
 53 54  1  0
 54 55  2  0
 54125  1  0
 55 57  1  0
 55126  1  0
 56 69  2  0
 57 58  2  0
 57127  1  0
 58128  1  0
 59 60  1  0
 59 61  1  0
 59 62  1  0
 60129  1  0
 60130  1  0
 60131  1  0
 61132  1  0
 61133  1  0
 61134  1  0
 62135  1  0
 62136  1  0
 62137  1  0
 63 65  1  0
 63138  1  0
 63139  1  0
 63140  1  0
 64141  1  0
 65142  1  0
 68 81  1  0
 71 72  2  0
 71 74  1  0
 71143  1  0
 72 75  1  0
 72144  1  0
 73 74  2  0
 73 76  1  0
 73145  1  0
 74 77  1  0
 75 76  2  0
 75 78  1  0
 76 83  1  0
 77 79  1  0
 77146  1  0
 77147  1  0
 78 81  1  0
 78148  1  0
 78149  1  0
 79 80  1  0
 79150  1  0
 79151  1  0
 80 82  1  0
 80152  1  0
 80153  1  0
 81154  1  0
 81155  1  0
 82156  1  0
M  ISO  4   1 100  68 101  81 101  82 100
M  END
$$$$
97
     RDKit          3D

163172  0  0  0  0  0  0  0  0999 V2000
  -30.7652  -14.3608   20.6636 C   0  0  0  0  0  0  0  0  0100  0  0
  -30.4392  -12.2669   19.3775 C   0  0  0  0  0  0  0  0  0101  0  0
  -29.4791  -12.5281   18.1977 C   0  0  0  0  0  0  0  0  0102  0  0
  -27.9985  -12.3963   18.6038 C   0  0  0  0  0  0  0  0  0103  0  0
  -27.6639  -13.2170   19.8820 C   0  0  2  0  0  0  0  0  0104  0  0
  -28.6795  -12.9602   21.0279 C   0  0  0  0  0  0  0  0  0105  0  0
  -25.2633  -13.8245   20.5754 C   0  0  0  0  0  0  0  0  0106  0  0
  -24.1645  -13.0409   20.9408 C   0  0  0  0  0  0  0  0  0107  0  0
  -24.6400  -11.7009   20.8697 C   0  0  0  0  0  0  0  0  0108  0  0
  -23.9005  -10.4085   21.0420 C   0  0  0  0  0  0  0  0  0109  0  0
  -24.3588   -9.4123   21.9123 C   0  0  0  0  0  0  0  0  0110  0  0
  -23.6296   -8.2350   22.0803 C   0  0  0  0  0  0  0  0  0111  0  0
  -22.4385   -8.0419   21.3657 C   0  0  0  0  0  0  0  0  0112  0  0
  -22.0103   -9.0167   20.4678 C   0  0  0  0  0  0  0  0  0113  0  0
  -22.7317  -10.1925   20.3102 C   0  0  0  0  0  0  0  0  0114  0  0
  -21.6857   -6.0709   22.5391 C   0  0  0  0  0  0  0  0  0115  0  0
  -21.4064   -6.5490   23.8264 C   0  0  0  0  0  0  0  0  0116  0  0
  -21.3635   -5.6677   24.9085 C   0  0  0  0  0  0  0  0  0117  0  0
  -21.5973   -4.3067   24.7088 C   0  0  0  0  0  0  0  0  0118  0  0
  -21.8700   -3.8284   23.4282 C   0  0  0  0  0  0  0  0  0119  0  0
  -21.9144   -4.7056   22.3460 C   0  0  0  0  0  0  0  0  0120  0  0
  -22.8194  -13.5263   21.1763 C   0  0  0  0  0  0  0  0  0121  0  0
  -22.1559   -4.2206   21.1063 F   0  0  0  0  0  0  0  0  0122  0  0
  -21.5628   -3.4510   25.7555 F   0  0  0  0  0  0  0  0  0123  0  0
  -30.0261  -13.1803   20.4553 N   0  0  0  0  0  0  0  0  0124  0  0
  -26.2911  -12.9356   20.3443 N   0  0  0  0  0  0  0  0  0125  0  0
  -25.9236  -11.6675   20.5847 N   0  0  0  0  0  0  0  0  0126  0  0
  -22.0708  -12.7905   22.0005 N   0  0  0  0  0  0  0  0  0127  0  0
  -25.4117  -15.1773   20.4097 N   0  0  0  0  0  0  0  0  0128  0  0
  -31.7916  -14.6724   20.0536 O   0  0  0  0  0  0  0  0  0129  0  0
  -21.6670   -6.9022   21.4423 O   0  0  0  0  0  0  0  0  0130  0  0
  -22.3946  -14.5564   20.6568 O   0  0  0  0  0  0  0  0  0131  0  0
  -24.6048  -31.8614   23.2223 C   0  0  0  0  0  0  0  0  0100  0  0
  -25.8822  -32.4841   23.8616 C   0  0  1  0  0  0  0  0  0101  0  0
  -27.2536  -27.5042   20.1156 C   0  0  0  0  0  0  0  0  0102  0  0
  -25.5726  -33.8762   24.2210 N   0  0  0  0  0  0  0  0  0103  0  0
  -23.4066  -30.4859   21.5461 C   0  0  2  0  0  0  0  0  0104  0  0
  -24.8467  -28.9636   20.1247 C   0  0  0  0  0  0  0  0  0105  0  0
  -22.7412  -29.4652   22.5052 C   0  0  0  0  0  0  0  0  0106  0  0
  -18.0167  -28.1302   22.8626 C   0  0  0  0  0  0  0  0  0107  0  0
  -24.1342  -36.7390   23.2568 C   0  0  0  0  0  0  0  0  0108  0  0
  -25.9141  -30.8882   21.3456 C   0  0  0  0  0  0  0  0  0109  0  0
  -25.9930  -29.5029   20.7208 C   0  0  0  0  0  0  0  0  0110  0  0
  -27.1758  -28.7612   20.7331 C   0  0  0  0  0  0  0  0  0111  0  0
  -26.1032  -26.9836   19.5230 C   0  0  0  0  0  0  0  0  0112  0  0
  -24.9097  -27.7011   19.5331 C   0  0  0  0  0  0  0  0  0113  0  0
  -23.5715  -29.7899   20.1582 C   0  0  0  0  0  0  0  0  0114  0  0
  -25.3990  -36.3212   24.0232 C   0  0  1  0  0  0  0  0  0115  0  0
  -20.5793  -28.3813   23.1004 C   0  0  2  0  0  0  0  0  0116  0  0
  -20.6548  -26.9392   22.5411 C   0  0  0  0  0  0  0  0  0117  0  0
  -19.5615  -26.6407   21.5143 C   0  0  0  0  0  0  0  0  0118  0  0
  -18.1797  -26.7818   22.1673 C   0  0  0  0  0  0  0  0  0119  0  0
  -19.1385  -28.8769   23.2988 C   0  0  0  0  0  0  0  0  0120  0  0
  -18.9183  -30.1286   23.8878 C   0  0  0  0  0  0  0  0  0121  0  0
  -17.6396  -30.6493   24.0352 C   0  0  0  0  0  0  0  0  0122  0  0
  -25.9153  -34.9582   23.4993 C   0  0  0  0  0  0  0  0  0123  0  0
  -16.5415  -29.9068   23.6254 C   0  0  0  0  0  0  0  0  0124  0  0
  -16.7331  -28.6521   23.0586 C   0  0  0  0  0  0  0  0  0125  0  0
  -26.4583  -31.6439   25.0683 C   0  0  0  0  0  0  0  0  0126  0  0
  -25.3807  -31.3179   26.1374 C   0  0  0  0  0  0  0  0  0127  0  0
  -27.0530  -30.3024   24.5680 C   0  0  0  0  0  0  0  0  0128  0  0
  -27.6014  -32.4281   25.7651 C   0  0  0  0  0  0  0  0  0129  0  0
  -27.5629  -37.2220   24.8621 C   0  0  0  0  0  0  0  0  0130  0  0
  -21.4133  -29.3375   22.3735 N   0  0  0  0  0  0  0  0  0131  0  0
  -26.4706  -37.3372   23.9061 N   0  0  0  0  0  0  0  0  0132  0  0
  -24.6674  -31.0544   22.1178 N   0  0  0  0  0  0  0  0  0133  0  0
  -23.4259  -28.8150   23.2971 O   0  0  0  0  0  0  0  0  0134  0  0
  -28.3948  -26.7345   20.0089 O   0  0  0  0  0  0  0  0  0135  0  0
  -26.5870  -34.9065   22.4671 O   0  0  0  0  0  0  0  0  0136  0  0
  -23.5365  -32.1254   23.7833 O   0  0  0  0  0  0  0  0  0137  0  0
  -20.7135  -22.2877   19.8063 C   0  0  0  0  0  0  0  0  0  0  0  0
  -19.3869  -22.0088   20.2109 C   0  0  0  0  0  0  0  0  0  0  0  0
  -20.7675  -23.6575   19.7263 C   0  0  0  0  0  0  0  0  0  0  0  0
  -21.7373  -21.2443   19.5330 C   0  0  0  0  0  0  0  0  0  0  0  0
  -18.8695  -20.6386   20.4535 C   0  0  0  0  0  0  0  0  0  0  0  0
  -19.7969  -19.5855   19.8146 C   0  0  0  0  0  0  0  0  0  0  0  0
  -21.2918  -19.8686   20.0709 C   0  0  2  0  0  0  0  0  0  1  0  0
  -21.8645  -24.5690   19.3521 C   0  0  0  0  0  0  0  0  0  0  0  0
  -19.5876  -26.1671   21.4115 C   0  0  0  0  0  0  0  0  0  0  0  0
  -19.0749  -27.6080   21.4940 C   0  0  0  0  0  0  0  0  0  0  0  0
  -19.0785  -25.4707   20.1470 C   0  0  0  0  0  0  0  0  0  0  0  0
  -19.5739  -28.3375   22.7370 C   0  0  0  0  0  0  0  0  0  0  0  0
  -18.6563  -23.1129   20.3828 N   0  0  0  0  0  0  0  0  0  0  0  0
  -19.5226  -24.0977   20.0779 N   0  0  0  0  0  0  0  0  0  0  0  0
  -21.0157  -28.4403   22.7747 N   0  0  0  0  0  0  0  0  0  0  0  0
  -31.4485  -12.4701   19.0860 H   0  0  0  0  0  0  0  0  0  0  0  0
  -30.3970  -11.2460   19.6950 H   0  0  0  0  0  0  0  0  0  0  0  0
  -29.6870  -11.8204   17.4226 H   0  0  0  0  0  0  0  0  0  0  0  0
  -29.6375  -13.5326   17.8649 H   0  0  0  0  0  0  0  0  0  0  0  0
  -27.7830  -11.3650   18.7904 H   0  0  0  0  0  0  0  0  0  0  0  0
  -27.4028  -12.7801   17.8021 H   0  0  0  0  0  0  0  0  0  0  0  0
  -27.7353  -14.2503   19.6136 H   0  0  0  0  0  0  0  0  0  0  0  0
  -28.5890  -11.9550   21.3832 H   0  0  0  0  0  0  0  0  0  0  0  0
  -28.5005  -13.6134   21.8562 H   0  0  0  0  0  0  0  0  0  0  0  0
  -25.2399   -9.5495   22.4318 H   0  0  0  0  0  0  0  0  0  0  0  0
  -23.9663   -7.5070   22.7297 H   0  0  0  0  0  0  0  0  0  0  0  0
  -21.1515   -8.8641   19.9162 H   0  0  0  0  0  0  0  0  0  0  0  0
  -22.4016  -10.9115   19.6476 H   0  0  0  0  0  0  0  0  0  0  0  0
  -21.2319   -7.5552   23.9750 H   0  0  0  0  0  0  0  0  0  0  0  0
  -21.1589   -6.0228   25.8556 H   0  0  0  0  0  0  0  0  0  0  0  0
  -22.0396   -2.8212   23.2809 H   0  0  0  0  0  0  0  0  0  0  0  0
  -22.4401  -11.9703   22.4008 H   0  0  0  0  0  0  0  0  0  0  0  0
  -21.1493  -13.0679   22.2082 H   0  0  0  0  0  0  0  0  0  0  0  0
  -24.6538  -15.7807   20.5848 H   0  0  0  0  0  0  0  0  0  0  0  0
  -26.2762  -15.5453   20.1156 H   0  0  0  0  0  0  0  0  0  0  0  0
  -26.6778  -32.4663   23.1464 H   0  0  0  0  0  0  0  0  0  0  0  0
  -25.0747  -34.0282   25.0566 H   0  0  0  0  0  0  0  0  0  0  0  0
  -22.7881  -31.3489   21.4131 H   0  0  0  0  0  0  0  0  0  0  0  0
  -23.3854  -35.9823   23.3648 H   0  0  0  0  0  0  0  0  0  0  0  0
  -24.3696  -36.8624   22.2204 H   0  0  0  0  0  0  0  0  0  0  0  0
  -23.7669  -37.6632   23.6516 H   0  0  0  0  0  0  0  0  0  0  0  0
  -25.9445  -31.6237   20.5691 H   0  0  0  0  0  0  0  0  0  0  0  0
  -26.7436  -31.0079   22.0108 H   0  0  0  0  0  0  0  0  0  0  0  0
  -28.0090  -29.1452   21.2057 H   0  0  0  0  0  0  0  0  0  0  0  0
  -26.1369  -26.0560   19.0719 H   0  0  0  0  0  0  0  0  0  0  0  0
  -24.0652  -27.2961   19.0997 H   0  0  0  0  0  0  0  0  0  0  0  0
  -23.6156  -30.5365   19.3930 H   0  0  0  0  0  0  0  0  0  0  0  0
  -22.7355  -29.1425   19.9945 H   0  0  0  0  0  0  0  0  0  0  0  0
  -25.1353  -36.2335   25.0565 H   0  0  0  0  0  0  0  0  0  0  0  0
  -21.0070  -28.3206   24.0793 H   0  0  0  0  0  0  0  0  0  0  0  0
  -20.5555  -26.2518   23.3550 H   0  0  0  0  0  0  0  0  0  0  0  0
  -21.5974  -26.8362   22.0454 H   0  0  0  0  0  0  0  0  0  0  0  0
  -19.6810  -25.6422   21.1488 H   0  0  0  0  0  0  0  0  0  0  0  0
  -19.6406  -27.3343   20.7034 H   0  0  0  0  0  0  0  0  0  0  0  0
  -17.4282  -26.6888   21.4113 H   0  0  0  0  0  0  0  0  0  0  0  0
  -18.0803  -26.0130   22.9049 H   0  0  0  0  0  0  0  0  0  0  0  0
  -19.7265  -30.6774   24.2204 H   0  0  0  0  0  0  0  0  0  0  0  0
  -17.5064  -31.5856   24.4483 H   0  0  0  0  0  0  0  0  0  0  0  0
  -15.5878  -30.2839   23.7407 H   0  0  0  0  0  0  0  0  0  0  0  0
  -15.9120  -28.0941   22.7766 H   0  0  0  0  0  0  0  0  0  0  0  0
  -24.5787  -30.7757   25.6817 H   0  0  0  0  0  0  0  0  0  0  0  0
  -25.0041  -32.2289   26.5536 H   0  0  0  0  0  0  0  0  0  0  0  0
  -25.8166  -30.7245   26.9138 H   0  0  0  0  0  0  0  0  0  0  0  0
  -26.2892  -29.7335   24.0803 H   0  0  0  0  0  0  0  0  0  0  0  0
  -27.4336  -29.7484   25.4006 H   0  0  0  0  0  0  0  0  0  0  0  0
  -27.8466  -30.4994   23.8779 H   0  0  0  0  0  0  0  0  0  0  0  0
  -27.2251  -33.3632   26.1242 H   0  0  0  0  0  0  0  0  0  0  0  0
  -28.3902  -32.6065   25.0645 H   0  0  0  0  0  0  0  0  0  0  0  0
  -27.9772  -31.8555   26.5872 H   0  0  0  0  0  0  0  0  0  0  0  0
  -28.2744  -38.0016   24.6863 H   0  0  0  0  0  0  0  0  0  0  0  0
  -28.0396  -36.2711   24.7461 H   0  0  0  0  0  0  0  0  0  0  0  0
  -27.1773  -37.3087   25.8564 H   0  0  0  0  0  0  0  0  0  0  0  0
  -20.9627  -29.9365   21.7352 H   0  0  0  0  0  0  0  0  0  0  0  0
  -26.0447  -38.2561   24.0273 H   0  0  0  0  0  0  0  0  0  0  0  0
  -22.6550  -21.5236   20.0071 H   0  0  0  0  0  0  0  0  0  0  0  0
  -21.8671  -21.1673   18.4737 H   0  0  0  0  0  0  0  0  0  0  0  0
  -17.8922  -20.5514   20.0266 H   0  0  0  0  0  0  0  0  0  0  0  0
  -18.8299  -20.4674   21.5090 H   0  0  0  0  0  0  0  0  0  0  0  0
  -19.6271  -19.5768   18.7582 H   0  0  0  0  0  0  0  0  0  0  0  0
  -19.5673  -18.6411   20.2622 H   0  0  0  0  0  0  0  0  0  0  0  0
  -21.2640  -18.8659   20.4432 H   0  0  0  0  0  0  0  0  0  0  0  0
  -22.7386  -23.9979   19.1182 H   0  0  0  0  0  0  0  0  0  0  0  0
  -22.0762  -25.2267   20.1692 H   0  0  0  0  0  0  0  0  0  0  0  0
  -21.5747  -25.1438   18.4974 H   0  0  0  0  0  0  0  0  0  0  0  0
  -19.2472  -25.6257   22.2694 H   0  0  0  0  0  0  0  0  0  0  0  0
  -20.6569  -26.1889   21.3795 H   0  0  0  0  0  0  0  0  0  0  0  0
  -18.0052  -27.5906   21.5131 H   0  0  0  0  0  0  0  0  0  0  0  0
  -19.4457  -28.1335   20.6389 H   0  0  0  0  0  0  0  0  0  0  0  0
  -19.4441  -25.9970   19.2901 H   0  0  0  0  0  0  0  0  0  0  0  0
  -18.0088  -25.4746   20.1716 H   0  0  0  0  0  0  0  0  0  0  0  0
  -19.2448  -27.8037   23.6040 H   0  0  0  0  0  0  0  0  0  0  0  0
  -19.1767  -29.3308   22.7136 H   0  0  0  0  0  0  0  0  0  0  0  0
  -21.4420  -29.3155   22.9211 H   0  0  0  0  0  0  0  0  0  0  0  0
  1 25  1  0
  1 30  2  0
  1 85  1  0
  2  3  1  0
  2 25  1  0
  2 86  1  0
  2 87  1  0
  3  4  1  0
  3 88  1  0
  3 89  1  0
  4  5  1  0
  4 90  1  0
  4 91  1  0
  5  6  1  0
  5 26  1  0
  5 92  1  6
  6 25  1  0
  6 93  1  0
  6 94  1  0
  7  8  2  0
  7 26  1  0
  7 29  1  0
  8  9  1  0
  8 22  1  0
  9 10  1  0
  9 27  2  0
 10 11  2  0
 10 15  1  0
 11 12  1  0
 11 95  1  0
 12 13  2  0
 12 96  1  0
 13 14  1  0
 13 31  1  0
 14 15  2  0
 14 97  1  0
 15 98  1  0
 16 17  2  0
 16 21  1  0
 16 31  1  0
 17 18  1  0
 17 99  1  0
 18 19  2  0
 18100  1  0
 19 20  1  0
 19 24  1  0
 20 21  2  0
 20101  1  0
 21 23  1  0
 22 28  1  0
 22 32  2  0
 26 27  1  0
 28102  1  0
 28103  1  0
 29104  1  0
 29105  1  0
 33 34  1  0
 33 66  1  0
 33 70  2  0
 34 36  1  0
 34 59  1  0
 34106  1  6
 35 44  2  0
 35 45  1  0
 35 68  1  0
 36 56  1  0
 36107  1  0
 37 39  1  0
 37 47  1  0
 37 66  1  0
 37108  1  6
 38 43  2  0
 38 46  1  0
 38 47  1  0
 39 64  1  0
 39 67  2  0
 40 52  1  0
 40 53  2  0
 40 58  1  0
 41109  1  0
 41110  1  0
 41111  1  0
 42 43  1  0
 42 66  1  0
 42112  1  0
 42113  1  0
 43 44  1  0
 44114  1  0
 45 46  2  0
 45115  1  0
 46116  1  0
 47117  1  0
 47118  1  0
 48 41  1  0
 48 56  1  0
 48 65  1  0
 48119  1  1
 49 50  1  0
 49 53  1  0
 49 64  1  0
 49120  1  1
 50 51  1  0
 50121  1  0
 50122  1  0
 51 52  1  0
 51123  1  0
 51124  1  0
 52125  1  0
 52126  1  0
 53 54  1  0
 54 55  2  0
 54127  1  0
 55 57  1  0
 55128  1  0
 56 69  2  0
 57 58  2  0
 57129  1  0
 58130  1  0
 59 60  1  0
 59 61  1  0
 59 62  1  0
 60131  1  0
 60132  1  0
 60133  1  0
 61134  1  0
 61135  1  0
 61136  1  0
 62137  1  0
 62138  1  0
 62139  1  0
 63 65  1  0
 63140  1  0
 63141  1  0
 63142  1  0
 64143  1  0
 65144  1  0
 71 72  1  0
 71 73  2  0
 71 74  1  0
 72 75  1  0
 72 83  2  0
 73 78  1  0
 73 84  1  0
 74 77  1  0
 74145  1  0
 74146  1  0
 75 76  1  0
 75147  1  0
 75148  1  0
 76 77  1  0
 76149  1  0
 76150  1  0
 77 68  1  0
 77151  1  6
 78152  1  0
 78153  1  0
 78154  1  0
 79 80  1  0
 79 81  1  0
 79155  1  0
 79156  1  0
 80 82  1  0
 80157  1  0
 80158  1  0
 81 84  1  0
 81159  1  0
 81160  1  0
 82 85  1  0
 82161  1  0
 82162  1  0
 83 84  1  0
 85163  1  0
M  ISO  4   1 100  68 101  77 101  85 100
M  END
$$$$
98
     RDKit          3D

150158  0  0  0  0  0  0  0  0999 V2000
  -30.7652  -14.3608   20.6636 C   0  0  0  0  0  0  0  0  0100  0  0
  -30.4392  -12.2669   19.3775 C   0  0  0  0  0  0  0  0  0101  0  0
  -29.4791  -12.5281   18.1977 C   0  0  0  0  0  0  0  0  0102  0  0
  -27.9985  -12.3963   18.6038 C   0  0  0  0  0  0  0  0  0103  0  0
  -27.6639  -13.2170   19.8820 C   0  0  2  0  0  0  0  0  0104  0  0
  -28.6795  -12.9602   21.0279 C   0  0  0  0  0  0  0  0  0105  0  0
  -25.2633  -13.8245   20.5754 C   0  0  0  0  0  0  0  0  0106  0  0
  -24.1645  -13.0409   20.9408 C   0  0  0  0  0  0  0  0  0107  0  0
  -24.6400  -11.7009   20.8697 C   0  0  0  0  0  0  0  0  0108  0  0
  -23.9005  -10.4085   21.0420 C   0  0  0  0  0  0  0  0  0109  0  0
  -24.3588   -9.4123   21.9123 C   0  0  0  0  0  0  0  0  0110  0  0
  -23.6296   -8.2350   22.0803 C   0  0  0  0  0  0  0  0  0111  0  0
  -22.4385   -8.0419   21.3657 C   0  0  0  0  0  0  0  0  0112  0  0
  -22.0103   -9.0167   20.4678 C   0  0  0  0  0  0  0  0  0113  0  0
  -22.7317  -10.1925   20.3102 C   0  0  0  0  0  0  0  0  0114  0  0
  -21.6857   -6.0709   22.5391 C   0  0  0  0  0  0  0  0  0115  0  0
  -21.4064   -6.5490   23.8264 C   0  0  0  0  0  0  0  0  0116  0  0
  -21.3635   -5.6677   24.9085 C   0  0  0  0  0  0  0  0  0117  0  0
  -21.5973   -4.3067   24.7088 C   0  0  0  0  0  0  0  0  0118  0  0
  -21.8700   -3.8284   23.4282 C   0  0  0  0  0  0  0  0  0119  0  0
  -21.9144   -4.7056   22.3460 C   0  0  0  0  0  0  0  0  0120  0  0
  -22.8194  -13.5263   21.1763 C   0  0  0  0  0  0  0  0  0121  0  0
  -22.1559   -4.2206   21.1063 F   0  0  0  0  0  0  0  0  0122  0  0
  -21.5628   -3.4510   25.7555 F   0  0  0  0  0  0  0  0  0123  0  0
  -30.0261  -13.1803   20.4553 N   0  0  0  0  0  0  0  0  0124  0  0
  -26.2911  -12.9356   20.3443 N   0  0  0  0  0  0  0  0  0125  0  0
  -25.9236  -11.6675   20.5847 N   0  0  0  0  0  0  0  0  0126  0  0
  -22.0708  -12.7905   22.0005 N   0  0  0  0  0  0  0  0  0127  0  0
  -25.4117  -15.1773   20.4097 N   0  0  0  0  0  0  0  0  0128  0  0
  -31.7916  -14.6724   20.0536 O   0  0  0  0  0  0  0  0  0129  0  0
  -21.6670   -6.9022   21.4423 O   0  0  0  0  0  0  0  0  0130  0  0
  -22.3946  -14.5564   20.6568 O   0  0  0  0  0  0  0  0  0131  0  0
  -24.6048  -31.8614   23.2223 C   0  0  0  0  0  0  0  0  0100  0  0
  -25.8822  -32.4841   23.8616 C   0  0  1  0  0  0  0  0  0101  0  0
  -27.2536  -27.5042   20.1156 C   0  0  0  0  0  0  0  0  0102  0  0
  -25.5726  -33.8762   24.2210 N   0  0  0  0  0  0  0  0  0103  0  0
  -23.4066  -30.4859   21.5461 C   0  0  2  0  0  0  0  0  0104  0  0
  -24.8467  -28.9636   20.1247 C   0  0  0  0  0  0  0  0  0105  0  0
  -22.7412  -29.4652   22.5052 C   0  0  0  0  0  0  0  0  0106  0  0
  -18.0167  -28.1302   22.8626 C   0  0  0  0  0  0  0  0  0107  0  0
  -24.1342  -36.7390   23.2568 C   0  0  0  0  0  0  0  0  0108  0  0
  -25.9141  -30.8882   21.3456 C   0  0  0  0  0  0  0  0  0109  0  0
  -25.9930  -29.5029   20.7208 C   0  0  0  0  0  0  0  0  0110  0  0
  -27.1758  -28.7612   20.7331 C   0  0  0  0  0  0  0  0  0111  0  0
  -26.1032  -26.9836   19.5230 C   0  0  0  0  0  0  0  0  0112  0  0
  -24.9097  -27.7011   19.5331 C   0  0  0  0  0  0  0  0  0113  0  0
  -23.5715  -29.7899   20.1582 C   0  0  0  0  0  0  0  0  0114  0  0
  -25.3990  -36.3212   24.0232 C   0  0  1  0  0  0  0  0  0115  0  0
  -20.5793  -28.3813   23.1004 C   0  0  2  0  0  0  0  0  0116  0  0
  -20.6548  -26.9392   22.5411 C   0  0  0  0  0  0  0  0  0117  0  0
  -19.5615  -26.6407   21.5143 C   0  0  0  0  0  0  0  0  0118  0  0
  -18.1797  -26.7818   22.1673 C   0  0  0  0  0  0  0  0  0119  0  0
  -19.1385  -28.8769   23.2988 C   0  0  0  0  0  0  0  0  0120  0  0
  -18.9183  -30.1286   23.8878 C   0  0  0  0  0  0  0  0  0121  0  0
  -17.6396  -30.6493   24.0352 C   0  0  0  0  0  0  0  0  0122  0  0
  -25.9153  -34.9582   23.4993 C   0  0  0  0  0  0  0  0  0123  0  0
  -16.5415  -29.9068   23.6254 C   0  0  0  0  0  0  0  0  0124  0  0
  -16.7331  -28.6521   23.0586 C   0  0  0  0  0  0  0  0  0125  0  0
  -26.4583  -31.6439   25.0683 C   0  0  0  0  0  0  0  0  0126  0  0
  -25.3807  -31.3179   26.1374 C   0  0  0  0  0  0  0  0  0127  0  0
  -27.0530  -30.3024   24.5680 C   0  0  0  0  0  0  0  0  0128  0  0
  -27.6014  -32.4281   25.7651 C   0  0  0  0  0  0  0  0  0129  0  0
  -27.5629  -37.2220   24.8621 C   0  0  0  0  0  0  0  0  0130  0  0
  -21.4133  -29.3375   22.3735 N   0  0  0  0  0  0  0  0  0131  0  0
  -26.4706  -37.3372   23.9061 N   0  0  0  0  0  0  0  0  0132  0  0
  -24.6674  -31.0544   22.1178 N   0  0  0  0  0  0  0  0  0133  0  0
  -23.4259  -28.8150   23.2971 O   0  0  0  0  0  0  0  0  0134  0  0
  -28.3948  -26.7345   20.0089 O   0  0  0  0  0  0  0  0  0135  0  0
  -26.5870  -34.9065   22.4671 O   0  0  0  0  0  0  0  0  0136  0  0
  -23.5365  -32.1254   23.7833 O   0  0  0  0  0  0  0  0  0137  0  0
  -17.9944  -22.5792   17.7151 C   0  0  0  0  0  0  0  0  0  0  0  0
  -15.6795  -23.6759   18.8200 C   0  0  0  0  0  0  0  0  0  0  0  0
  -16.9052  -21.7587   18.0082 C   0  0  0  0  0  0  0  0  0  0  0  0
  -16.7688  -24.4964   18.5270 C   0  0  0  0  0  0  0  0  0  0  0  0
  -15.7477  -22.3070   18.5607 C   0  0  0  0  0  0  0  0  0  0  0  0
  -17.9262  -23.9481   17.9745 C   0  0  0  0  0  0  0  0  0  0  0  0
  -17.0196  -20.2831   17.7119 C   0  0  0  0  0  0  0  0  0  0  0  0
  -16.6568  -25.9580   18.8202 C   0  0  0  0  0  0  0  0  0  0  0  0
  -18.2005  -19.6376   18.4287 C   0  0  0  0  0  0  0  0  0  1  0  0
  -17.6676  -26.4078   19.7513 N   0  0  0  0  0  0  0  0  0  0  0  0
  -14.3802  -21.3227   18.9349 Cl  0  0  0  0  0  0  0  0  0  0  0  0
  -19.2936  -24.9324   17.5989 Cl  0  0  0  0  0  0  0  0  0  0  0  0
  -31.4485  -12.4701   19.0860 H   0  0  0  0  0  0  0  0  0  0  0  0
  -30.3970  -11.2460   19.6950 H   0  0  0  0  0  0  0  0  0  0  0  0
  -29.6870  -11.8204   17.4226 H   0  0  0  0  0  0  0  0  0  0  0  0
  -29.6375  -13.5326   17.8649 H   0  0  0  0  0  0  0  0  0  0  0  0
  -27.7830  -11.3650   18.7904 H   0  0  0  0  0  0  0  0  0  0  0  0
  -27.4028  -12.7801   17.8021 H   0  0  0  0  0  0  0  0  0  0  0  0
  -27.7353  -14.2503   19.6136 H   0  0  0  0  0  0  0  0  0  0  0  0
  -28.5890  -11.9550   21.3832 H   0  0  0  0  0  0  0  0  0  0  0  0
  -28.5005  -13.6134   21.8562 H   0  0  0  0  0  0  0  0  0  0  0  0
  -25.2399   -9.5495   22.4318 H   0  0  0  0  0  0  0  0  0  0  0  0
  -23.9663   -7.5070   22.7297 H   0  0  0  0  0  0  0  0  0  0  0  0
  -21.1515   -8.8641   19.9162 H   0  0  0  0  0  0  0  0  0  0  0  0
  -22.4016  -10.9115   19.6476 H   0  0  0  0  0  0  0  0  0  0  0  0
  -21.2319   -7.5552   23.9750 H   0  0  0  0  0  0  0  0  0  0  0  0
  -21.1589   -6.0228   25.8556 H   0  0  0  0  0  0  0  0  0  0  0  0
  -22.0396   -2.8212   23.2809 H   0  0  0  0  0  0  0  0  0  0  0  0
  -22.4401  -11.9703   22.4008 H   0  0  0  0  0  0  0  0  0  0  0  0
  -21.1493  -13.0679   22.2082 H   0  0  0  0  0  0  0  0  0  0  0  0
  -24.6538  -15.7807   20.5848 H   0  0  0  0  0  0  0  0  0  0  0  0
  -26.2762  -15.5453   20.1156 H   0  0  0  0  0  0  0  0  0  0  0  0
  -26.6778  -32.4663   23.1464 H   0  0  0  0  0  0  0  0  0  0  0  0
  -25.0747  -34.0282   25.0566 H   0  0  0  0  0  0  0  0  0  0  0  0
  -22.7881  -31.3489   21.4131 H   0  0  0  0  0  0  0  0  0  0  0  0
  -23.3854  -35.9823   23.3648 H   0  0  0  0  0  0  0  0  0  0  0  0
  -24.3696  -36.8624   22.2204 H   0  0  0  0  0  0  0  0  0  0  0  0
  -23.7669  -37.6632   23.6516 H   0  0  0  0  0  0  0  0  0  0  0  0
  -25.9445  -31.6237   20.5691 H   0  0  0  0  0  0  0  0  0  0  0  0
  -26.7436  -31.0079   22.0108 H   0  0  0  0  0  0  0  0  0  0  0  0
  -28.0090  -29.1452   21.2057 H   0  0  0  0  0  0  0  0  0  0  0  0
  -26.1369  -26.0560   19.0719 H   0  0  0  0  0  0  0  0  0  0  0  0
  -24.0652  -27.2961   19.0997 H   0  0  0  0  0  0  0  0  0  0  0  0
  -23.6156  -30.5365   19.3930 H   0  0  0  0  0  0  0  0  0  0  0  0
  -22.7355  -29.1425   19.9945 H   0  0  0  0  0  0  0  0  0  0  0  0
  -25.1353  -36.2335   25.0565 H   0  0  0  0  0  0  0  0  0  0  0  0
  -21.0070  -28.3206   24.0793 H   0  0  0  0  0  0  0  0  0  0  0  0
  -20.5555  -26.2518   23.3550 H   0  0  0  0  0  0  0  0  0  0  0  0
  -21.5974  -26.8362   22.0454 H   0  0  0  0  0  0  0  0  0  0  0  0
  -19.6810  -25.6422   21.1488 H   0  0  0  0  0  0  0  0  0  0  0  0
  -19.6406  -27.3343   20.7034 H   0  0  0  0  0  0  0  0  0  0  0  0
  -17.4282  -26.6888   21.4113 H   0  0  0  0  0  0  0  0  0  0  0  0
  -18.0803  -26.0130   22.9049 H   0  0  0  0  0  0  0  0  0  0  0  0
  -19.7265  -30.6774   24.2204 H   0  0  0  0  0  0  0  0  0  0  0  0
  -17.5064  -31.5856   24.4483 H   0  0  0  0  0  0  0  0  0  0  0  0
  -15.5878  -30.2839   23.7407 H   0  0  0  0  0  0  0  0  0  0  0  0
  -15.9120  -28.0941   22.7766 H   0  0  0  0  0  0  0  0  0  0  0  0
  -24.5787  -30.7757   25.6817 H   0  0  0  0  0  0  0  0  0  0  0  0
  -25.0041  -32.2289   26.5536 H   0  0  0  0  0  0  0  0  0  0  0  0
  -25.8166  -30.7245   26.9138 H   0  0  0  0  0  0  0  0  0  0  0  0
  -26.2892  -29.7335   24.0803 H   0  0  0  0  0  0  0  0  0  0  0  0
  -27.4336  -29.7484   25.4006 H   0  0  0  0  0  0  0  0  0  0  0  0
  -27.8466  -30.4994   23.8779 H   0  0  0  0  0  0  0  0  0  0  0  0
  -27.2251  -33.3632   26.1242 H   0  0  0  0  0  0  0  0  0  0  0  0
  -28.3902  -32.6065   25.0645 H   0  0  0  0  0  0  0  0  0  0  0  0
  -27.9772  -31.8555   26.5872 H   0  0  0  0  0  0  0  0  0  0  0  0
  -28.2744  -38.0016   24.6863 H   0  0  0  0  0  0  0  0  0  0  0  0
  -28.0396  -36.2711   24.7461 H   0  0  0  0  0  0  0  0  0  0  0  0
  -27.1773  -37.3087   25.8564 H   0  0  0  0  0  0  0  0  0  0  0  0
  -20.9627  -29.9365   21.7352 H   0  0  0  0  0  0  0  0  0  0  0  0
  -26.0447  -38.2561   24.0273 H   0  0  0  0  0  0  0  0  0  0  0  0
  -18.8508  -22.1735   17.3063 H   0  0  0  0  0  0  0  0  0  0  0  0
  -14.8231  -24.0816   19.2286 H   0  0  0  0  0  0  0  0  0  0  0  0
  -17.1445  -20.1528   16.6572 H   0  0  0  0  0  0  0  0  0  0  0  0
  -16.1263  -19.8093   18.0617 H   0  0  0  0  0  0  0  0  0  0  0  0
  -15.6916  -26.1524   19.2391 H   0  0  0  0  0  0  0  0  0  0  0  0
  -16.7970  -26.4888   17.9018 H   0  0  0  0  0  0  0  0  0  0  0  0
  -18.4900  -18.7757   17.8647 H   0  0  0  0  0  0  0  0  0  0  0  0
  -17.8484  -19.4282   19.4172 H   0  0  0  0  0  0  0  0  0  0  0  0
  -17.6368  -27.2514   20.2578 H   0  0  0  0  0  0  0  0  0  0  0  0
  1 25  1  0
  1 30  2  0
  1 80  1  0
  2  3  1  0
  2 25  1  0
  2 83  1  0
  2 84  1  0
  3  4  1  0
  3 85  1  0
  3 86  1  0
  4  5  1  0
  4 87  1  0
  4 88  1  0
  5  6  1  0
  5 26  1  0
  5 89  1  6
  6 25  1  0
  6 90  1  0
  6 91  1  0
  7  8  2  0
  7 26  1  0
  7 29  1  0
  8  9  1  0
  8 22  1  0
  9 10  1  0
  9 27  2  0
 10 11  2  0
 10 15  1  0
 11 12  1  0
 11 92  1  0
 12 13  2  0
 12 93  1  0
 13 14  1  0
 13 31  1  0
 14 15  2  0
 14 94  1  0
 15 95  1  0
 16 17  2  0
 16 21  1  0
 16 31  1  0
 17 18  1  0
 17 96  1  0
 18 19  2  0
 18 97  1  0
 19 20  1  0
 19 24  1  0
 20 21  2  0
 20 98  1  0
 21 23  1  0
 22 28  1  0
 22 32  2  0
 26 27  1  0
 28 99  1  0
 28100  1  0
 29101  1  0
 29102  1  0
 33 34  1  0
 33 66  1  0
 33 70  2  0
 34 36  1  0
 34 59  1  0
 34103  1  6
 35 44  2  0
 35 45  1  0
 35 68  1  0
 36 56  1  0
 36104  1  0
 37 39  1  0
 37 47  1  0
 37 66  1  0
 37105  1  6
 38 43  2  0
 38 46  1  0
 38 47  1  0
 39 64  1  0
 39 67  2  0
 40 52  1  0
 40 53  2  0
 40 58  1  0
 41106  1  0
 41107  1  0
 41108  1  0
 42 43  1  0
 42 66  1  0
 42109  1  0
 42110  1  0
 43 44  1  0
 44111  1  0
 45 46  2  0
 45112  1  0
 46113  1  0
 47114  1  0
 47115  1  0
 48 41  1  0
 48 56  1  0
 48 65  1  0
 48116  1  1
 49 50  1  0
 49 53  1  0
 49 64  1  0
 49117  1  1
 50 51  1  0
 50118  1  0
 50119  1  0
 51 52  1  0
 51120  1  0
 51121  1  0
 52122  1  0
 52123  1  0
 53 54  1  0
 54 55  2  0
 54124  1  0
 55 57  1  0
 55125  1  0
 56 69  2  0
 57 58  2  0
 57126  1  0
 58127  1  0
 59 60  1  0
 59 61  1  0
 59 62  1  0
 60128  1  0
 60129  1  0
 60130  1  0
 61131  1  0
 61132  1  0
 61133  1  0
 62134  1  0
 62135  1  0
 62136  1  0
 63 65  1  0
 63137  1  0
 63138  1  0
 63139  1  0
 64140  1  0
 65141  1  0
 68 79  1  0
 71 73  2  0
 71 76  1  0
 71142  1  0
 72 74  1  0
 72 75  2  0
 72143  1  0
 73 75  1  0
 73 77  1  0
 74 76  2  0
 74 78  1  0
 75 81  1  0
 76 82  1  0
 77 79  1  0
 77144  1  0
 77145  1  0
 78 80  1  0
 78146  1  0
 78147  1  0
 79148  1  0
 79149  1  0
 80150  1  0
M  ISO  4   1 100  68 101  79 101  80 100
M  END
$$$$
