0
                    3D
 Structure written by MMmdl.
155163  0  0  1  0            999 V2000
  -30.5102  -15.1103   20.4426 C   0  0  0  0  0  0
  -30.4490  -12.7213   19.4855 C   0  0  0  0  0  0
  -29.5210  -12.5692   18.2541 C   0  0  0  0  0  0
  -28.0628  -12.3062   18.6793 C   0  0  0  0  0  0
  -27.6232  -13.2371   19.8338 C   0  0  2  0  0  0
  -28.6809  -13.2887   20.9600 C   0  0  0  0  0  0
  -25.2384  -13.8115   20.5693 C   0  0  0  0  0  0
  -24.1735  -13.0351   20.9245 C   0  0  0  0  0  0
  -24.6384  -11.6858   20.8783 C   0  0  0  0  0  0
  -23.9077  -10.4246   21.0425 C   0  0  0  0  0  0
  -24.3631   -9.4164   21.9195 C   0  0  0  0  0  0
  -23.6297   -8.2208   22.0756 C   0  0  0  0  0  0
  -22.4277   -8.0260   21.3544 C   0  0  0  0  0  0
  -21.9920   -9.0235   20.4647 C   0  0  0  0  0  0
  -22.7259  -10.2103   20.3058 C   0  0  0  0  0  0
  -21.6848   -6.0733   22.5282 C   0  0  0  0  0  0
  -21.4012   -6.5639   23.8217 C   0  0  0  0  0  0
  -21.3655   -5.6790   24.9178 C   0  0  0  0  0  0
  -21.6043   -4.3053   24.7226 C   0  0  0  0  0  0
  -21.8823   -3.8147   23.4348 C   0  0  0  0  0  0
  -21.9193   -4.6963   22.3407 C   0  0  0  0  0  0
  -22.7764  -13.5144   21.1891 C   0  0  0  0  0  0
  -22.1663   -4.2154   21.0980 F   0  0  0  0  0  0
  -21.5627   -3.4534   25.7737 F   0  0  0  0  0  0
  -29.9123  -13.8271   20.3511 N   0  0  0  0  0  0
  -26.2853  -12.9365   20.3263 N   0  0  0  0  0  0
  -25.9319  -11.6507   20.5773 N   0  0  0  0  0  0
  -22.0415  -12.8152   22.0460 N   0  0  0  0  0  0
  -25.3826  -15.1837   20.4061 N   0  0  0  0  0  0
  -31.7238  -15.1111   20.1925 O   0  0  0  0  0  0
  -21.6628   -6.8871   21.4243 O   0  0  0  0  0  0
  -22.3455  -14.5447   20.6722 O   0  0  0  0  0  0
  -24.6488  -31.8367   23.1765 C   0  0  0  0  0  0
  -25.9230  -32.4657   23.8184 C   0  0  1  0  0  0
  -27.2378  -27.0640   20.1857 C   0  0  0  0  0  0
  -25.5952  -33.8459   24.2124 N   0  0  0  0  0  0
  -23.4577  -30.4481   21.5226 C   0  0  2  0  0  0
  -24.9105  -28.8431   20.1265 C   0  0  0  0  0  0
  -22.7595  -29.4512   22.4822 C   0  0  0  0  0  0
  -18.0314  -28.1408   22.8476 C   0  0  0  0  0  0
  -24.1495  -36.7235   23.2643 C   0  0  0  0  0  0
  -26.0153  -30.6886   21.3837 C   0  0  0  0  0  0
  -26.0891  -29.2854   20.7413 C   0  0  0  0  0  0
  -27.2524  -28.4173   20.7397 C   0  0  0  0  0  0
  -26.0258  -26.7235   19.5497 C   0  0  0  0  0  0
  -24.8949  -27.5770   19.5149 C   0  0  0  0  0  0
  -23.6916  -29.7581   20.1511 C   0  0  0  0  0  0
  -25.4132  -36.3012   24.0311 C   0  0  1  0  0  0
  -20.5929  -28.3738   23.1221 C   0  0  2  0  0  0
  -20.6799  -26.9437   22.5401 C   0  0  0  0  0  0
  -19.5774  -26.6389   21.5215 C   0  0  0  0  0  0
  -18.1954  -26.7945   22.1623 C   0  0  0  0  0  0
  -19.1569  -28.8891   23.2841 C   0  0  0  0  0  0
  -18.9484  -30.1487   23.8873 C   0  0  0  0  0  0
  -17.6476  -30.6597   24.0564 C   0  0  0  0  0  0
  -25.9089  -34.9390   23.5031 C   0  0  0  0  0  0
  -16.5369  -29.9090   23.6335 C   0  0  0  0  0  0
  -16.7298  -28.6510   23.0353 C   0  0  0  0  0  0
  -26.4544  -31.6540   25.0641 C   0  0  0  0  0  0
  -25.3704  -31.3740   26.1315 C   0  0  0  0  0  0
  -27.0422  -30.2928   24.6266 C   0  0  0  0  0  0
  -27.6070  -32.4303   25.7435 C   0  0  0  0  0  0
  -27.5579  -37.1774   24.8468 C   0  0  0  0  0  0
  -21.4276  -29.3050   22.3579 N   0  0  0  0  0  0
  -26.4291  -37.3731   23.9411 N   0  0  0  0  0  0
  -24.7270  -31.0160   22.0827 N   0  0  0  0  0  0
  -23.4202  -28.8088   23.3023 O   0  0  0  0  0  0
  -28.3508  -26.1310   20.1010 O   0  0  0  0  0  0
  -26.5672  -34.8909   22.4618 O   0  0  0  0  0  0
  -23.5588  -32.1266   23.6950 O   0  0  0  0  0  0
  -28.9815  -21.5715   19.9477 C   0  0  0  0  0  0
  -29.6383  -19.3588   20.1799 C   0  0  0  0  0  0
  -28.8726  -18.1780   17.1810 C   0  0  0  0  0  0
  -28.4125  -16.4566   21.0266 C   0  0  0  0  0  0
  -28.1946  -23.0669   19.9524 C   0  0  0  0  0  0
  -30.3528  -17.8991   20.6400 C   0  0  0  0  0  0
  -30.0528  -19.0038   17.7098 C   0  0  0  0  0  0
  -28.5422  -24.6228   20.5909 C   0  0  0  0  0  0
  -29.1757  -20.4922   20.8867 N   0  0  0  0  0  0
  -29.3024  -21.0898   18.7386 N   0  0  0  0  0  0
  -29.6756  -19.7602   18.8918 N   0  0  0  0  0  0
  -29.8007  -16.3888   20.5823 N   0  0  0  0  0  0
  -31.4628  -12.9302   19.1418 H   0  0  0  0  0  0
  -30.5218  -11.7815   20.0365 H   0  0  0  0  0  0
  -29.8751  -11.7676   17.6045 H   0  0  0  0  0  0
  -29.5660  -13.4840   17.6597 H   0  0  0  0  0  0
  -27.9891  -11.2664   18.9970 H   0  0  0  0  0  0
  -27.3919  -12.4162   17.8256 H   0  0  0  0  0  0
  -27.5627  -14.2144   19.3656 H   0  0  0  0  0  0
  -28.8456  -12.2930   21.3745 H   0  0  0  0  0  0
  -28.3482  -13.8752   21.8090 H   0  0  0  0  0  0
  -25.2774   -9.5642   22.4776 H   0  0  0  0  0  0
  -24.0007   -7.4601   22.7476 H   0  0  0  0  0  0
  -21.0849   -8.8766   19.8956 H   0  0  0  0  0  0
  -22.3731  -10.9652   19.6171 H   0  0  0  0  0  0
  -21.2003   -7.6145   23.9728 H   0  0  0  0  0  0
  -21.1474   -6.0512   25.9084 H   0  0  0  0  0  0
  -22.0608   -2.7610   23.2841 H   0  0  0  0  0  0
  -22.4038  -11.9809   22.4835 H   0  0  0  0  0  0
  -21.1033  -13.1183   22.2673 H   0  0  0  0  0  0
  -24.6035  -15.8217   20.5262 H   0  0  0  0  0  0
  -26.2212  -15.6414   20.0779 H   0  0  0  0  0  0
  -26.7292  -32.5261   23.0904 H   0  0  0  0  0  0
  -25.0087  -33.9554   25.0262 H   0  0  0  0  0  0
  -22.7637  -31.2744   21.3550 H   0  0  0  0  0  0
  -23.3767  -35.9556   23.3289 H   0  0  0  0  0  0
  -24.3579  -36.8883   22.2061 H   0  0  0  0  0  0
  -23.7237  -37.6424   23.6688 H   0  0  0  0  0  0
  -26.1731  -31.4333   20.6020 H   0  0  0  0  0  0
  -26.8834  -30.7504   22.0270 H   0  0  0  0  0  0
  -28.1629  -28.7717   21.2021 H   0  0  0  0  0  0
  -25.9523  -25.7583   19.0678 H   0  0  0  0  0  0
  -23.9967  -27.2325   19.0202 H   0  0  0  0  0  0
  -23.8394  -30.5212   19.3859 H   0  0  0  0  0  0
  -22.8052  -29.2017   19.8401 H   0  0  0  0  0  0
  -25.1333  -36.1823   25.0802 H   0  0  0  0  0  0
  -21.0031  -28.3342   24.1339 H   0  0  0  0  0  0
  -20.5702  -26.2359   23.3628 H   0  0  0  0  0  0
  -21.6666  -26.7441   22.1201 H   0  0  0  0  0  0
  -19.6931  -25.6292   21.1264 H   0  0  0  0  0  0
  -19.6708  -27.3185   20.6735 H   0  0  0  0  0  0
  -17.4226  -26.6691   21.4022 H   0  0  0  0  0  0
  -18.0349  -26.0095   22.9029 H   0  0  0  0  0  0
  -19.7954  -30.7317   24.2222 H   0  0  0  0  0  0
  -17.5023  -31.6273   24.5176 H   0  0  0  0  0  0
  -15.5366  -30.2982   23.7668 H   0  0  0  0  0  0
  -15.8703  -28.0825   22.7067 H   0  0  0  0  0  0
  -24.5898  -30.7093   25.7597 H   0  0  0  0  0  0
  -24.8882  -32.2928   26.4652 H   0  0  0  0  0  0
  -25.7954  -30.8940   27.0137 H   0  0  0  0  0  0
  -26.3044  -29.6612   24.1304 H   0  0  0  0  0  0
  -27.4060  -29.7271   25.4855 H   0  0  0  0  0  0
  -27.8943  -30.4151   23.9575 H   0  0  0  0  0  0
  -27.2676  -33.3636   26.1935 H   0  0  0  0  0  0
  -28.3920  -32.6800   25.0282 H   0  0  0  0  0  0
  -28.0696  -31.8466   26.5405 H   0  0  0  0  0  0
  -28.2592  -38.0076   24.7527 H   0  0  0  0  0  0
  -28.1083  -36.2607   24.6291 H   0  0  0  0  0  0
  -27.2296  -37.1416   25.8870 H   0  0  0  0  0  0
  -20.9496  -29.8732   21.6724 H   0  0  0  0  0  0
  -26.0154  -38.2800   24.1405 H   0  0  0  0  0  0
  -29.1436  -17.6596   16.2609 H   0  0  0  0  0  0
  -28.0142  -18.8150   16.9647 H   0  0  0  0  0  0
  -28.5552  -17.4289   17.9080 H   0  0  0  0  0  0
  -28.0730  -17.4718   21.2298 H   0  0  0  0  0  0
  -28.2545  -15.9219   21.9595 H   0  0  0  0  0  0
  -27.7648  -16.0893   20.2450 H   0  0  0  0  0  0
  -27.1779  -22.8483   20.2784 H   0  0  0  0  0  0
  -28.0636  -23.2866   18.8928 H   0  0  0  0  0  0
  -30.6469  -18.0445   21.6795 H   0  0  0  0  0  0
  -31.3096  -17.8609   20.1188 H   0  0  0  0  0  0
  -30.4031  -19.6939   16.9408 H   0  0  0  0  0  0
  -30.8951  -18.3545   17.9450 H   0  0  0  0  0  0
  -29.6290  -24.5923   20.6735 H   0  0  0  0  0  0
  -28.2147  -24.6068   21.6301 H   0  0  0  0  0  0
  1 25  1  0  0  0
  1 30  2  0  0  0
  1 82  1  0  0  0
  2  3  1  0  0  0
  2 25  1  0  0  0
  2 83  1  0  0  0
  2 84  1  0  0  0
  3  4  1  0  0  0
  3 85  1  0  0  0
  3 86  1  0  0  0
  4  5  1  0  0  0
  4 87  1  0  0  0
  4 88  1  0  0  0
  5  6  1  0  0  0
  5 26  1  0  0  0
  5 89  1  0  0  0
  6 25  1  0  0  0
  6 90  1  0  0  0
  6 91  1  0  0  0
  7  8  2  0  0  0
  7 26  1  0  0  0
  7 29  1  0  0  0
  8  9  1  0  0  0
  8 22  1  0  0  0
  9 10  1  0  0  0
  9 27  2  0  0  0
 10 11  2  0  0  0
 10 15  1  0  0  0
 11 12  1  0  0  0
 11 92  1  0  0  0
 12 13  2  0  0  0
 12 93  1  0  0  0
 13 14  1  0  0  0
 13 31  1  0  0  0
 14 15  2  0  0  0
 14 94  1  0  0  0
 15 95  1  0  0  0
 16 17  2  0  0  0
 16 21  1  0  0  0
 16 31  1  0  0  0
 17 18  1  0  0  0
 17 96  1  0  0  0
 18 19  2  0  0  0
 18 97  1  0  0  0
 19 20  1  0  0  0
 19 24  1  0  0  0
 20 21  2  0  0  0
 20 98  1  0  0  0
 21 23  1  0  0  0
 22 28  1  0  0  0
 22 32  2  0  0  0
 26 27  1  0  0  0
 28 99  1  0  0  0
 28100  1  0  0  0
 29101  1  0  0  0
 29102  1  0  0  0
 33 34  1  0  0  0
 33 66  1  0  0  0
 33 70  2  0  0  0
 34 36  1  0  0  0
 34 59  1  0  0  0
 34103  1  0  0  0
 35 44  2  0  0  0
 35 45  1  0  0  0
 35 68  1  0  0  0
 36 56  1  0  0  0
 36104  1  0  0  0
 37 39  1  0  0  0
 37 47  1  0  0  0
 37 66  1  0  0  0
 37105  1  0  0  0
 38 43  2  0  0  0
 38 46  1  0  0  0
 38 47  1  0  0  0
 39 64  1  0  0  0
 39 67  2  0  0  0
 40 52  1  0  0  0
 40 53  2  0  0  0
 40 58  1  0  0  0
 41106  1  0  0  0
 41107  1  0  0  0
 41108  1  0  0  0
 41 48  1  0  0  0
 42 43  1  0  0  0
 42 66  1  0  0  0
 42109  1  0  0  0
 42110  1  0  0  0
 43 44  1  0  0  0
 44111  1  0  0  0
 45 46  2  0  0  0
 45112  1  0  0  0
 46113  1  0  0  0
 47114  1  0  0  0
 47115  1  0  0  0
 48 56  1  0  0  0
 48 65  1  0  0  0
 48116  1  0  0  0
 49 50  1  0  0  0
 49 53  1  0  0  0
 49 64  1  0  0  0
 49117  1  0  0  0
 50 51  1  0  0  0
 50118  1  0  0  0
 50119  1  0  0  0
 51 52  1  0  0  0
 51120  1  0  0  0
 51121  1  0  0  0
 52122  1  0  0  0
 52123  1  0  0  0
 53 54  1  0  0  0
 54 55  2  0  0  0
 54124  1  0  0  0
 55 57  1  0  0  0
 55125  1  0  0  0
 56 69  2  0  0  0
 57 58  2  0  0  0
 57126  1  0  0  0
 58127  1  0  0  0
 59 60  1  0  0  0
 59 61  1  0  0  0
 59 62  1  0  0  0
 60128  1  0  0  0
 60129  1  0  0  0
 60130  1  0  0  0
 61131  1  0  0  0
 61132  1  0  0  0
 61133  1  0  0  0
 62134  1  0  0  0
 62135  1  0  0  0
 62136  1  0  0  0
 63 65  1  0  0  0
 63137  1  0  0  0
 63138  1  0  0  0
 63139  1  0  0  0
 64140  1  0  0  0
 65141  1  0  0  0
 68 78  1  0  0  0
 71 75  1  0  0  0
 71 79  1  0  0  0
 71 80  2  0  0  0
 72 76  1  0  0  0
 72 79  2  0  0  0
 72 81  1  0  0  0
 73 77  1  0  0  0
 73142  1  0  0  0
 73143  1  0  0  0
 73144  1  0  0  0
 74 82  1  0  0  0
 74145  1  0  0  0
 74146  1  0  0  0
 74147  1  0  0  0
 75 78  1  0  0  0
 75148  1  0  0  0
 75149  1  0  0  0
 76 82  1  0  0  0
 76150  1  0  0  0
 76151  1  0  0  0
 77 81  1  0  0  0
 77152  1  0  0  0
 77153  1  0  0  0
 78154  1  0  0  0
 78155  1  0  0  0
 80 81  1  0  0  0
M  ISO  4   1 100  68 101  78 101  82 100
M  END
> <chiral flag>
0

> <version>
0

> <s_m_source_file>
/data/baiqing/PycharmProjects/Reinvent-master-3.2/result/LINK_invent/BTK/process_docking_weight1_custom_sum_contain_oxygen_bond_distance_aromatic_linkinvent_7_9_3/rearranged_h_0054.sdf

> <i_m_source_file_index>
1

> <r_mmod_Potential_Energy-OPLS-2005>
897.579833984375

> <r_mmod_Stretch_Energy-OPLS-2005>
370.954559326172

> <r_mmod_Bend_Energy-OPLS-2005>
433.375061035156

> <r_mmod_Torsional_Energy-OPLS-2005>
270.757171630859

> <r_mmod_Improper_Torsional_Energy-OPLS-2005>
8.20358848571777

> <r_mmod_Van_der_Waal_Energy-OPLS-2005>
114.009773254395

> <r_mmod_Electrostatic_Energy-OPLS-2005>
-345.453338623047

> <r_mmod_Solvation_Energy-OPLS-2005>
-223.724975585938

> <b_mmod_Minimization_Converged-OPLS-2005>
0

> <r_mmod_RMS_Derivative-OPLS-2005>
1.50096476078033

$$$$
1
                    3D
 Structure written by MMmdl.
150158  0  0  1  0            999 V2000
  -30.4009  -15.4207   20.3317 C   0  0  0  0  0  0
  -30.4612  -12.9433   19.5171 C   0  0  0  0  0  0
  -29.5414  -12.5650   18.3249 C   0  0  0  0  0  0
  -28.1209  -12.2245   18.7949 C   0  0  0  0  0  0
  -27.6124  -13.2470   19.8391 C   0  0  2  0  0  0
  -28.6509  -13.5170   20.9590 C   0  0  0  0  0  0
  -25.2334  -13.8048   20.5740 C   0  0  0  0  0  0
  -24.1742  -13.0267   20.9322 C   0  0  0  0  0  0
  -24.6393  -11.6766   20.8847 C   0  0  0  0  0  0
  -23.9066  -10.4169   21.0412 C   0  0  0  0  0  0
  -24.3588   -9.4072   21.9200 C   0  0  0  0  0  0
  -23.6247   -8.2114   22.0717 C   0  0  0  0  0  0
  -22.4234   -8.0213   21.3478 C   0  0  0  0  0  0
  -21.9895   -9.0192   20.4583 C   0  0  0  0  0  0
  -22.7239  -10.2062   20.3047 C   0  0  0  0  0  0
  -21.6807   -6.0741   22.5256 C   0  0  0  0  0  0
  -21.4020   -6.5636   23.8195 C   0  0  0  0  0  0
  -21.3667   -5.6772   24.9141 C   0  0  0  0  0  0
  -21.6043   -4.3034   24.7185 C   0  0  0  0  0  0
  -21.8817   -3.8150   23.4281 C   0  0  0  0  0  0
  -21.9153   -4.6976   22.3358 C   0  0  0  0  0  0
  -22.7766  -13.5016   21.2020 C   0  0  0  0  0  0
  -22.1630   -4.2163   21.0940 F   0  0  0  0  0  0
  -21.5609   -3.4523   25.7698 F   0  0  0  0  0  0
  -29.8408  -14.0946   20.2817 N   0  0  0  0  0  0
  -26.2822  -12.9331   20.3379 N   0  0  0  0  0  0
  -25.9350  -11.6453   20.5898 N   0  0  0  0  0  0
  -22.0375  -12.8057   22.0566 N   0  0  0  0  0  0
  -25.3796  -15.1779   20.4005 N   0  0  0  0  0  0
  -31.6395  -15.3691   20.2200 O   0  0  0  0  0  0
  -21.6538   -6.8872   21.4226 O   0  0  0  0  0  0
  -22.3455  -14.5367   20.6901 O   0  0  0  0  0  0
  -24.6631  -31.8172   23.1651 C   0  0  0  0  0  0
  -25.9282  -32.4567   23.8159 C   0  0  1  0  0  0
  -27.2437  -26.8862   20.1989 C   0  0  0  0  0  0
  -25.5953  -33.8405   24.2070 N   0  0  0  0  0  0
  -23.4824  -30.4219   21.5161 C   0  0  2  0  0  0
  -24.9458  -28.7957   20.1226 C   0  0  0  0  0  0
  -22.7693  -29.4322   22.4775 C   0  0  0  0  0  0
  -18.0317  -28.1428   22.8411 C   0  0  0  0  0  0
  -24.1470  -36.7194   23.2660 C   0  0  0  0  0  0
  -26.0562  -30.6105   21.4027 C   0  0  0  0  0  0
  -26.1319  -29.1941   20.7528 C   0  0  0  0  0  0
  -27.2762  -28.2643   20.7608 C   0  0  0  0  0  0
  -26.0227  -26.6512   19.5248 C   0  0  0  0  0  0
  -24.9196  -27.5461   19.4885 C   0  0  0  0  0  0
  -23.7307  -29.7287   20.1467 C   0  0  0  0  0  0
  -25.4107  -36.2979   24.0318 C   0  0  1  0  0  0
  -20.5935  -28.3719   23.1203 C   0  0  2  0  0  0
  -20.6812  -26.9409   22.5416 C   0  0  0  0  0  0
  -19.5794  -26.6351   21.5243 C   0  0  0  0  0  0
  -18.1943  -26.7928   22.1604 C   0  0  0  0  0  0
  -19.1577  -28.8900   23.2769 C   0  0  0  0  0  0
  -18.9520  -30.1520   23.8741 C   0  0  0  0  0  0
  -17.6511  -30.6586   24.0566 C   0  0  0  0  0  0
  -25.9091  -34.9357   23.5012 C   0  0  0  0  0  0
  -16.5390  -29.9066   23.6414 C   0  0  0  0  0  0
  -16.7310  -28.6550   23.0295 C   0  0  0  0  0  0
  -26.4555  -31.6531   25.0708 C   0  0  0  0  0  0
  -25.3689  -31.3790   26.1376 C   0  0  0  0  0  0
  -27.0512  -30.2912   24.6496 C   0  0  0  0  0  0
  -27.6055  -32.4353   25.7487 C   0  0  0  0  0  0
  -27.5544  -37.1735   24.8484 C   0  0  0  0  0  0
  -21.4358  -29.2993   22.3562 N   0  0  0  0  0  0
  -26.4237  -37.3732   23.9448 N   0  0  0  0  0  0
  -24.7545  -30.9759   22.0819 N   0  0  0  0  0  0
  -23.4217  -28.7878   23.3021 O   0  0  0  0  0  0
  -28.2564  -25.7667   20.1931 O   0  0  0  0  0  0
  -26.5703  -34.8898   22.4620 O   0  0  0  0  0  0
  -23.5678  -32.1177   23.6708 O   0  0  0  0  0  0
  -29.2539  -21.3014   20.9212 C   0  0  0  0  0  0
  -28.7003  -22.5416   20.1872 C   0  0  0  0  0  0
  -29.3695  -20.0226   20.1978 C   0  0  0  0  0  0
  -28.7634  -19.8643   17.7406 C   0  0  0  0  0  0
  -28.2268  -16.7217   20.0863 C   0  0  0  0  0  0
  -28.0017  -24.1560   20.5655 C   0  0  0  0  0  0
  -30.1002  -18.3941   20.3874 C   0  0  0  0  0  0
  -28.5178  -21.9463   18.9901 N   0  0  0  0  0  0
  -28.8944  -20.5821   18.9930 N   0  0  0  0  0  0
  -29.6670  -16.7547   20.3048 N   0  0  0  0  0  0
  -31.4334  -13.2247   19.1029 H   0  0  0  0  0  0
  -30.6757  -12.1090   20.1877 H   0  0  0  0  0  0
  -29.9721  -11.7257   17.7775 H   0  0  0  0  0  0
  -29.4802  -13.3983   17.6252 H   0  0  0  0  0  0
  -28.1592  -11.2303   19.2426 H   0  0  0  0  0  0
  -27.4374  -12.1437   17.9496 H   0  0  0  0  0  0
  -27.4957  -14.1681   19.2710 H   0  0  0  0  0  0
  -28.8936  -12.6146   21.5221 H   0  0  0  0  0  0
  -28.2620  -14.2022   21.7161 H   0  0  0  0  0  0
  -25.2681   -9.5516   22.4858 H   0  0  0  0  0  0
  -23.9894   -7.4483   22.7446 H   0  0  0  0  0  0
  -21.0808   -8.8739   19.8894 H   0  0  0  0  0  0
  -22.3677  -10.9654   19.6211 H   0  0  0  0  0  0
  -21.2079   -7.6151   23.9724 H   0  0  0  0  0  0
  -21.1506   -6.0484   25.9043 H   0  0  0  0  0  0
  -22.0633   -2.7631   23.2725 H   0  0  0  0  0  0
  -22.3875  -11.9690   22.5056 H   0  0  0  0  0  0
  -21.1026  -13.1193   22.2715 H   0  0  0  0  0  0
  -24.6159  -15.8268   20.5564 H   0  0  0  0  0  0
  -26.2173  -15.6371   20.0696 H   0  0  0  0  0  0
  -26.7297  -32.5081   23.0819 H   0  0  0  0  0  0
  -25.0181  -33.9527   25.0273 H   0  0  0  0  0  0
  -22.7969  -31.2521   21.3346 H   0  0  0  0  0  0
  -23.3769  -35.9493   23.3294 H   0  0  0  0  0  0
  -24.3530  -36.8893   22.2084 H   0  0  0  0  0  0
  -23.7182  -37.6349   23.6750 H   0  0  0  0  0  0
  -26.2351  -31.3417   20.6148 H   0  0  0  0  0  0
  -26.9138  -30.6706   22.0576 H   0  0  0  0  0  0
  -28.1768  -28.5875   21.2669 H   0  0  0  0  0  0
  -25.8949  -25.7016   19.0286 H   0  0  0  0  0  0
  -24.0245  -27.2336   18.9714 H   0  0  0  0  0  0
  -23.8989  -30.4993   19.3944 H   0  0  0  0  0  0
  -22.8430  -29.1904   19.8130 H   0  0  0  0  0  0
  -25.1282  -36.1796   25.0807 H   0  0  0  0  0  0
  -20.9991  -28.3319   24.1347 H   0  0  0  0  0  0
  -20.5790  -26.2303   23.3637 H   0  0  0  0  0  0
  -21.6655  -26.7447   22.1164 H   0  0  0  0  0  0
  -19.6991  -25.6269   21.1264 H   0  0  0  0  0  0
  -19.6759  -27.3187   20.6779 H   0  0  0  0  0  0
  -17.4251  -26.6686   21.3989 H   0  0  0  0  0  0
  -18.0307  -26.0117   22.9039 H   0  0  0  0  0  0
  -19.8018  -30.7409   24.1930 H   0  0  0  0  0  0
  -17.5078  -31.6240   24.5220 H   0  0  0  0  0  0
  -15.5391  -30.2912   23.7844 H   0  0  0  0  0  0
  -15.8707  -28.0898   22.6925 H   0  0  0  0  0  0
  -24.5885  -30.7131   25.7672 H   0  0  0  0  0  0
  -24.8862  -32.2985   26.4724 H   0  0  0  0  0  0
  -25.7886  -30.9018   27.0237 H   0  0  0  0  0  0
  -26.3264  -29.6488   24.1482 H   0  0  0  0  0  0
  -27.4050  -29.7376   25.5201 H   0  0  0  0  0  0
  -27.9156  -30.4125   23.9956 H   0  0  0  0  0  0
  -27.2708  -33.3798   26.1785 H   0  0  0  0  0  0
  -28.3965  -32.6640   25.0332 H   0  0  0  0  0  0
  -28.0566  -31.8636   26.5619 H   0  0  0  0  0  0
  -28.2533  -38.0055   24.7528 H   0  0  0  0  0  0
  -28.1042  -36.2574   24.6274 H   0  0  0  0  0  0
  -27.2260  -37.1328   25.8887 H   0  0  0  0  0  0
  -20.9627  -29.8701   21.6704 H   0  0  0  0  0  0
  -26.0086  -38.2785   24.1521 H   0  0  0  0  0  0
  -29.5579  -21.3569   21.9578 H   0  0  0  0  0  0
  -29.0091  -18.8146   17.9048 H   0  0  0  0  0  0
  -29.4507  -20.2644   16.9930 H   0  0  0  0  0  0
  -27.7386  -19.9452   17.3720 H   0  0  0  0  0  0
  -27.7523  -17.6829   20.2935 H   0  0  0  0  0  0
  -27.7690  -16.0385   20.7862 H   0  0  0  0  0  0
  -27.9958  -16.4252   19.0581 H   0  0  0  0  0  0
  -27.9992  -24.1980   21.6577 H   0  0  0  0  0  0
  -26.9425  -24.0450   20.3315 H   0  0  0  0  0  0
  -30.5721  -18.4275   21.3683 H   0  0  0  0  0  0
  -30.9291  -18.4110   19.6774 H   0  0  0  0  0  0
  1 25  1  0  0  0
  1 30  2  0  0  0
  1 80  1  0  0  0
  2  3  1  0  0  0
  2 25  1  0  0  0
  2 81  1  0  0  0
  2 82  1  0  0  0
  3  4  1  0  0  0
  3 83  1  0  0  0
  3 84  1  0  0  0
  4  5  1  0  0  0
  4 85  1  0  0  0
  4 86  1  0  0  0
  5  6  1  0  0  0
  5 26  1  0  0  0
  5 87  1  0  0  0
  6 25  1  0  0  0
  6 88  1  0  0  0
  6 89  1  0  0  0
  7  8  2  0  0  0
  7 26  1  0  0  0
  7 29  1  0  0  0
  8  9  1  0  0  0
  8 22  1  0  0  0
  9 10  1  0  0  0
  9 27  2  0  0  0
 10 11  2  0  0  0
 10 15  1  0  0  0
 11 12  1  0  0  0
 11 90  1  0  0  0
 12 13  2  0  0  0
 12 91  1  0  0  0
 13 14  1  0  0  0
 13 31  1  0  0  0
 14 15  2  0  0  0
 14 92  1  0  0  0
 15 93  1  0  0  0
 16 17  2  0  0  0
 16 21  1  0  0  0
 16 31  1  0  0  0
 17 18  1  0  0  0
 17 94  1  0  0  0
 18 19  2  0  0  0
 18 95  1  0  0  0
 19 20  1  0  0  0
 19 24  1  0  0  0
 20 21  2  0  0  0
 20 96  1  0  0  0
 21 23  1  0  0  0
 22 28  1  0  0  0
 22 32  2  0  0  0
 26 27  1  0  0  0
 28 97  1  0  0  0
 28 98  1  0  0  0
 29 99  1  0  0  0
 29100  1  0  0  0
 33 34  1  0  0  0
 33 66  1  0  0  0
 33 70  2  0  0  0
 34 36  1  0  0  0
 34 59  1  0  0  0
 34101  1  0  0  0
 35 44  2  0  0  0
 35 45  1  0  0  0
 35 68  1  0  0  0
 36 56  1  0  0  0
 36102  1  0  0  0
 37 39  1  0  0  0
 37 47  1  0  0  0
 37 66  1  0  0  0
 37103  1  0  0  0
 38 43  2  0  0  0
 38 46  1  0  0  0
 38 47  1  0  0  0
 39 64  1  0  0  0
 39 67  2  0  0  0
 40 52  1  0  0  0
 40 53  2  0  0  0
 40 58  1  0  0  0
 41104  1  0  0  0
 41105  1  0  0  0
 41106  1  0  0  0
 41 48  1  0  0  0
 42 43  1  0  0  0
 42 66  1  0  0  0
 42107  1  0  0  0
 42108  1  0  0  0
 43 44  1  0  0  0
 44109  1  0  0  0
 45 46  2  0  0  0
 45110  1  0  0  0
 46111  1  0  0  0
 47112  1  0  0  0
 47113  1  0  0  0
 48 56  1  0  0  0
 48 65  1  0  0  0
 48114  1  0  0  0
 49 50  1  0  0  0
 49 53  1  0  0  0
 49 64  1  0  0  0
 49115  1  0  0  0
 50 51  1  0  0  0
 50116  1  0  0  0
 50117  1  0  0  0
 51 52  1  0  0  0
 51118  1  0  0  0
 51119  1  0  0  0
 52120  1  0  0  0
 52121  1  0  0  0
 53 54  1  0  0  0
 54 55  2  0  0  0
 54122  1  0  0  0
 55 57  1  0  0  0
 55123  1  0  0  0
 56 69  2  0  0  0
 57 58  2  0  0  0
 57124  1  0  0  0
 58125  1  0  0  0
 59 60  1  0  0  0
 59 61  1  0  0  0
 59 62  1  0  0  0
 60126  1  0  0  0
 60127  1  0  0  0
 60128  1  0  0  0
 61129  1  0  0  0
 61130  1  0  0  0
 61131  1  0  0  0
 62132  1  0  0  0
 62133  1  0  0  0
 62134  1  0  0  0
 63 65  1  0  0  0
 63135  1  0  0  0
 63136  1  0  0  0
 63137  1  0  0  0
 64138  1  0  0  0
 65139  1  0  0  0
 68 76  1  0  0  0
 71 72  1  0  0  0
 71 73  2  0  0  0
 71140  1  0  0  0
 72 76  1  0  0  0
 72 78  2  0  0  0
 73 77  1  0  0  0
 73 79  1  0  0  0
 74 79  1  0  0  0
 74141  1  0  0  0
 74142  1  0  0  0
 74143  1  0  0  0
 75 80  1  0  0  0
 75144  1  0  0  0
 75145  1  0  0  0
 75146  1  0  0  0
 76147  1  0  0  0
 76148  1  0  0  0
 77 80  1  0  0  0
 77149  1  0  0  0
 77150  1  0  0  0
 78 79  1  0  0  0
M  ISO  4   1 100  68 101  76 101  80 100
M  END
> <chiral flag>
0

> <version>
0

> <s_m_source_file>
/data/baiqing/PycharmProjects/Reinvent-master-3.2/result/LINK_invent/BTK/process_docking_weight1_custom_sum_contain_oxygen_bond_distance_aromatic_linkinvent_7_9_3/rearranged_h_0054.sdf

> <i_m_source_file_index>
2

> <r_mmod_Potential_Energy-OPLS-2005>
1628.93322753906

> <r_mmod_Stretch_Energy-OPLS-2005>
681.663635253906

> <r_mmod_Bend_Energy-OPLS-2005>
507.079467773438

> <r_mmod_Torsional_Energy-OPLS-2005>
277.459747314453

> <r_mmod_Improper_Torsional_Energy-OPLS-2005>
6.59567928314209

> <r_mmod_Van_der_Waal_Energy-OPLS-2005>
109.998954772949

> <r_mmod_Electrostatic_Energy-OPLS-2005>
-313.298614501953

> <r_mmod_Solvation_Energy-OPLS-2005>
-228.314453125

> <b_mmod_Minimization_Converged-OPLS-2005>
0

> <r_mmod_RMS_Derivative-OPLS-2005>
8.0987548828125

$$$$
2
                    3D
 Structure written by MMmdl.
162170  0  0  1  0            999 V2000
  -30.6359  -14.7480   20.5077 C   0  0  0  0  0  0
  -30.4382  -12.4817   19.4504 C   0  0  0  0  0  0
  -29.5051  -12.5299   18.2194 C   0  0  0  0  0  0
  -28.0294  -12.3616   18.6251 C   0  0  0  0  0  0
  -27.6461  -13.2296   19.8519 C   0  0  2  0  0  0
  -28.6952  -13.0930   20.9726 C   0  0  0  0  0  0
  -25.2533  -13.8218   20.5676 C   0  0  0  0  0  0
  -24.1794  -13.0460   20.9193 C   0  0  0  0  0  0
  -24.6390  -11.6952   20.8732 C   0  0  0  0  0  0
  -23.9074  -10.4308   21.0427 C   0  0  0  0  0  0
  -24.3643   -9.4219   21.9192 C   0  0  0  0  0  0
  -23.6318   -8.2253   22.0774 C   0  0  0  0  0  0
  -22.4299   -8.0298   21.3562 C   0  0  0  0  0  0
  -21.9931   -9.0271   20.4665 C   0  0  0  0  0  0
  -22.7256  -10.2150   20.3070 C   0  0  0  0  0  0
  -21.6850   -6.0753   22.5288 C   0  0  0  0  0  0
  -21.4001   -6.5650   23.8220 C   0  0  0  0  0  0
  -21.3671   -5.6797   24.9174 C   0  0  0  0  0  0
  -21.6050   -4.3058   24.7220 C   0  0  0  0  0  0
  -21.8824   -3.8163   23.4336 C   0  0  0  0  0  0
  -21.9186   -4.6982   22.3399 C   0  0  0  0  0  0
  -22.7825  -13.5257   21.1848 C   0  0  0  0  0  0
  -22.1671   -4.2179   21.0977 F   0  0  0  0  0  0
  -21.5643   -3.4550   25.7733 F   0  0  0  0  0  0
  -29.9891  -13.5213   20.4127 N   0  0  0  0  0  0
  -26.2951  -12.9403   20.3267 N   0  0  0  0  0  0
  -25.9313  -11.6553   20.5707 N   0  0  0  0  0  0
  -22.0456  -12.8239   22.0404 N   0  0  0  0  0  0
  -25.4267  -15.1928   20.4171 N   0  0  0  0  0  0
  -31.7801  -14.8404   20.0521 O   0  0  0  0  0  0
  -21.6655   -6.8904   21.4254 O   0  0  0  0  0  0
  -22.3501  -14.5532   20.6676 O   0  0  0  0  0  0
  -24.6325  -31.8559   23.1977 C   0  0  0  0  0  0
  -25.9123  -32.4772   23.8359 C   0  0  1  0  0  0
  -27.2110  -27.2374   20.1515 C   0  0  0  0  0  0
  -25.5921  -33.8575   24.2270 N   0  0  0  0  0  0
  -23.4304  -30.4771   21.5430 C   0  0  2  0  0  0
  -24.8759  -28.9184   20.1148 C   0  0  0  0  0  0
  -22.7514  -29.4615   22.4931 C   0  0  0  0  0  0
  -18.0292  -28.1402   22.8498 C   0  0  0  0  0  0
  -24.1478  -36.7283   23.2641 C   0  0  0  0  0  0
  -25.9758  -30.7601   21.3785 C   0  0  0  0  0  0
  -26.0476  -29.3785   20.7290 C   0  0  0  0  0  0
  -27.2179  -28.5519   20.7338 C   0  0  0  0  0  0
  -26.0143  -26.8460   19.5114 C   0  0  0  0  0  0
  -24.8641  -27.6589   19.4972 C   0  0  0  0  0  0
  -23.6502  -29.8109   20.1602 C   0  0  0  0  0  0
  -25.4107  -36.3067   24.0321 C   0  0  1  0  0  0
  -20.5902  -28.3727   23.1259 C   0  0  2  0  0  0
  -20.6802  -26.9448   22.5408 C   0  0  0  0  0  0
  -19.5762  -26.6403   21.5230 C   0  0  0  0  0  0
  -18.1945  -26.7946   22.1633 C   0  0  0  0  0  0
  -19.1554  -28.8876   23.2872 C   0  0  0  0  0  0
  -18.9481  -30.1483   23.8879 C   0  0  0  0  0  0
  -17.6478  -30.6606   24.0575 C   0  0  0  0  0  0
  -25.9056  -34.9446   23.5107 C   0  0  0  0  0  0
  -16.5372  -29.9104   23.6346 C   0  0  0  0  0  0
  -16.7287  -28.6524   23.0363 C   0  0  0  0  0  0
  -26.4495  -31.6583   25.0745 C   0  0  0  0  0  0
  -25.3696  -31.3722   26.1458 C   0  0  0  0  0  0
  -27.0344  -30.3000   24.6213 C   0  0  0  0  0  0
  -27.6081  -32.4297   25.7491 C   0  0  0  0  0  0
  -27.5578  -37.1775   24.8459 C   0  0  0  0  0  0
  -21.4221  -29.3052   22.3640 N   0  0  0  0  0  0
  -26.4279  -37.3768   23.9425 N   0  0  0  0  0  0
  -24.7002  -31.0499   22.0969 N   0  0  0  0  0  0
  -23.4230  -28.8188   23.3049 O   0  0  0  0  0  0
  -28.3023  -26.3344   20.2259 O   0  0  0  0  0  0
  -26.5646  -34.8913   22.4688 O   0  0  0  0  0  0
  -23.5456  -32.1427   23.7219 O   0  0  0  0  0  0
  -29.6018  -21.1274   19.9614 C   0  0  0  0  0  0
  -29.0188  -22.2063   20.6400 C   0  0  0  0  0  0
  -28.2362  -21.4857   21.6010 C   0  0  0  0  0  0
  -27.3454  -22.0391   22.6726 C   0  0  0  0  0  0
  -29.5306  -15.2352   24.7269 C   0  0  0  0  0  0
  -29.2361  -23.7890   20.5220 C   0  0  0  0  0  0
  -30.2143  -15.2643   23.3615 C   0  0  0  0  0  0
  -29.3025  -18.4301   19.9809 C   0  0  0  0  0  0
  -29.3675  -15.9735   22.2711 C   0  0  0  0  0  0
  -30.3852  -17.3492   20.5247 C   0  0  0  0  0  0
  -28.0482  -24.8438   20.1978 C   0  0  0  0  0  0
  -28.3443  -20.1531   21.5046 N   0  0  0  0  0  0
  -29.1917  -19.8737   20.4867 N   0  0  0  0  0  0
  -29.9647  -15.9145   20.9169 N   0  0  0  0  0  0
  -31.4673  -12.6325   19.1256 H   0  0  0  0  0  0
  -30.4243  -11.4966   19.9196 H   0  0  0  0  0  0
  -29.7865  -11.7540   17.5069 H   0  0  0  0  0  0
  -29.6371  -13.4812   17.6998 H   0  0  0  0  0  0
  -27.8660  -11.3065   18.8533 H   0  0  0  0  0  0
  -27.3784  -12.5981   17.7834 H   0  0  0  0  0  0
  -27.6540  -14.2682   19.5163 H   0  0  0  0  0  0
  -28.7528  -12.0560   21.3061 H   0  0  0  0  0  0
  -28.3870  -13.6341   21.8575 H   0  0  0  0  0  0
  -25.2809   -9.5676   22.4741 H   0  0  0  0  0  0
  -24.0052   -7.4630   22.7461 H   0  0  0  0  0  0
  -21.0885   -8.8756   19.8956 H   0  0  0  0  0  0
  -22.3718  -10.9681   19.6168 H   0  0  0  0  0  0
  -21.1976   -7.6163   23.9719 H   0  0  0  0  0  0
  -21.1504   -6.0536   25.9074 H   0  0  0  0  0  0
  -22.0591   -2.7640   23.2817 H   0  0  0  0  0  0
  -22.4141  -11.9969   22.4843 H   0  0  0  0  0  0
  -21.1062  -13.1234   22.2585 H   0  0  0  0  0  0
  -24.6679  -15.8543   20.5404 H   0  0  0  0  0  0
  -26.2933  -15.6330   20.1360 H   0  0  0  0  0  0
  -26.7202  -32.5408   23.1114 H   0  0  0  0  0  0
  -25.0032  -33.9724   25.0389 H   0  0  0  0  0  0
  -22.7258  -31.2979   21.3951 H   0  0  0  0  0  0
  -23.3740  -35.9607   23.3279 H   0  0  0  0  0  0
  -24.3586  -36.8952   22.2068 H   0  0  0  0  0  0
  -23.7229  -37.6477   23.6685 H   0  0  0  0  0  0
  -26.1030  -31.5075   20.5944 H   0  0  0  0  0  0
  -26.8599  -30.8256   22.0005 H   0  0  0  0  0  0
  -28.1116  -28.8871   21.2435 H   0  0  0  0  0  0
  -25.9324  -25.8834   19.0314 H   0  0  0  0  0  0
  -23.9634  -27.2933   19.0212 H   0  0  0  0  0  0
  -23.7765  -30.5880   19.4060 H   0  0  0  0  0  0
  -22.7657  -29.2482   19.8591 H   0  0  0  0  0  0
  -25.1263  -36.1937   25.0803 H   0  0  0  0  0  0
  -20.9984  -28.3334   24.1384 H   0  0  0  0  0  0
  -20.5753  -26.2342   23.3632 H   0  0  0  0  0  0
  -21.6665  -26.7508   22.1173 H   0  0  0  0  0  0
  -19.6946  -25.6317   21.1266 H   0  0  0  0  0  0
  -19.6700  -27.3203   20.6761 H   0  0  0  0  0  0
  -17.4229  -26.6707   21.4029 H   0  0  0  0  0  0
  -18.0326  -26.0093   22.9020 H   0  0  0  0  0  0
  -19.7953  -30.7307   24.2246 H   0  0  0  0  0  0
  -17.5035  -31.6285   24.5188 H   0  0  0  0  0  0
  -15.5365  -30.3011   23.7674 H   0  0  0  0  0  0
  -15.8681  -28.0844   22.7077 H   0  0  0  0  0  0
  -24.5919  -30.7018   25.7789 H   0  0  0  0  0  0
  -24.8813  -32.2872   26.4807 H   0  0  0  0  0  0
  -25.8006  -30.8988   27.0290 H   0  0  0  0  0  0
  -26.2944  -29.6738   24.1220 H   0  0  0  0  0  0
  -27.4038  -29.7261   25.4728 H   0  0  0  0  0  0
  -27.8800  -30.4291   23.9450 H   0  0  0  0  0  0
  -27.2769  -33.3638   26.2018 H   0  0  0  0  0  0
  -28.3908  -32.6780   25.0310 H   0  0  0  0  0  0
  -28.0720  -31.8448   26.5442 H   0  0  0  0  0  0
  -28.2543  -38.0118   24.7564 H   0  0  0  0  0  0
  -28.1121  -36.2658   24.6192 H   0  0  0  0  0  0
  -27.2313  -37.1321   25.8862 H   0  0  0  0  0  0
  -20.9429  -29.8745   21.6796 H   0  0  0  0  0  0
  -26.0151  -38.2826   24.1480 H   0  0  0  0  0  0
  -30.2869  -21.1502   19.1251 H   0  0  0  0  0  0
  -26.3035  -22.0622   22.3498 H   0  0  0  0  0  0
  -27.6295  -23.0546   22.9443 H   0  0  0  0  0  0
  -27.3897  -21.4324   23.5779 H   0  0  0  0  0  0
  -30.2029  -14.8337   25.4865 H   0  0  0  0  0  0
  -28.6445  -14.6020   24.7063 H   0  0  0  0  0  0
  -29.2331  -16.2333   25.0397 H   0  0  0  0  0  0
  -30.0348  -23.9772   19.8081 H   0  0  0  0  0  0
  -29.6583  -24.1200   21.4682 H   0  0  0  0  0  0
  -30.4405  -14.2275   23.1050 H   0  0  0  0  0  0
  -31.1739  -15.7802   23.4523 H   0  0  0  0  0  0
  -28.3098  -17.9861   20.0622 H   0  0  0  0  0  0
  -29.4628  -18.5178   18.9058 H   0  0  0  0  0  0
  -29.2539  -17.0115   22.5925 H   0  0  0  0  0  0
  -28.3377  -15.6242   22.2478 H   0  0  0  0  0  0
  -30.9573  -17.7878   21.3445 H   0  0  0  0  0  0
  -31.1141  -17.2539   19.7179 H   0  0  0  0  0  0
  -27.2409  -24.6367   20.9020 H   0  0  0  0  0  0
  -27.6596  -24.5902   19.2120 H   0  0  0  0  0  0
  1 25  1  0  0  0
  1 30  2  0  0  0
  1 84  1  0  0  0
  2  3  1  0  0  0
  2 25  1  0  0  0
  2 85  1  0  0  0
  2 86  1  0  0  0
  3  4  1  0  0  0
  3 87  1  0  0  0
  3 88  1  0  0  0
  4  5  1  0  0  0
  4 89  1  0  0  0
  4 90  1  0  0  0
  5  6  1  0  0  0
  5 26  1  0  0  0
  5 91  1  0  0  0
  6 25  1  0  0  0
  6 92  1  0  0  0
  6 93  1  0  0  0
  7  8  2  0  0  0
  7 26  1  0  0  0
  7 29  1  0  0  0
  8  9  1  0  0  0
  8 22  1  0  0  0
  9 10  1  0  0  0
  9 27  2  0  0  0
 10 11  2  0  0  0
 10 15  1  0  0  0
 11 12  1  0  0  0
 11 94  1  0  0  0
 12 13  2  0  0  0
 12 95  1  0  0  0
 13 14  1  0  0  0
 13 31  1  0  0  0
 14 15  2  0  0  0
 14 96  1  0  0  0
 15 97  1  0  0  0
 16 17  2  0  0  0
 16 21  1  0  0  0
 16 31  1  0  0  0
 17 18  1  0  0  0
 17 98  1  0  0  0
 18 19  2  0  0  0
 18 99  1  0  0  0
 19 20  1  0  0  0
 19 24  1  0  0  0
 20 21  2  0  0  0
 20100  1  0  0  0
 21 23  1  0  0  0
 22 28  1  0  0  0
 22 32  2  0  0  0
 26 27  1  0  0  0
 28101  1  0  0  0
 28102  1  0  0  0
 29103  1  0  0  0
 29104  1  0  0  0
 33 34  1  0  0  0
 33 66  1  0  0  0
 33 70  2  0  0  0
 34 36  1  0  0  0
 34 59  1  0  0  0
 34105  1  0  0  0
 35 44  2  0  0  0
 35 45  1  0  0  0
 35 68  1  0  0  0
 36 56  1  0  0  0
 36106  1  0  0  0
 37 39  1  0  0  0
 37 47  1  0  0  0
 37 66  1  0  0  0
 37107  1  0  0  0
 38 43  2  0  0  0
 38 46  1  0  0  0
 38 47  1  0  0  0
 39 64  1  0  0  0
 39 67  2  0  0  0
 40 52  1  0  0  0
 40 53  2  0  0  0
 40 58  1  0  0  0
 41108  1  0  0  0
 41109  1  0  0  0
 41110  1  0  0  0
 41 48  1  0  0  0
 42 43  1  0  0  0
 42 66  1  0  0  0
 42111  1  0  0  0
 42112  1  0  0  0
 43 44  1  0  0  0
 44113  1  0  0  0
 45 46  2  0  0  0
 45114  1  0  0  0
 46115  1  0  0  0
 47116  1  0  0  0
 47117  1  0  0  0
 48 56  1  0  0  0
 48 65  1  0  0  0
 48118  1  0  0  0
 49 50  1  0  0  0
 49 53  1  0  0  0
 49 64  1  0  0  0
 49119  1  0  0  0
 50 51  1  0  0  0
 50120  1  0  0  0
 50121  1  0  0  0
 51 52  1  0  0  0
 51122  1  0  0  0
 51123  1  0  0  0
 52124  1  0  0  0
 52125  1  0  0  0
 53 54  1  0  0  0
 54 55  2  0  0  0
 54126  1  0  0  0
 55 57  1  0  0  0
 55127  1  0  0  0
 56 69  2  0  0  0
 57 58  2  0  0  0
 57128  1  0  0  0
 58129  1  0  0  0
 59 60  1  0  0  0
 59 61  1  0  0  0
 59 62  1  0  0  0
 60130  1  0  0  0
 60131  1  0  0  0
 60132  1  0  0  0
 61133  1  0  0  0
 61134  1  0  0  0
 61135  1  0  0  0
 62136  1  0  0  0
 62137  1  0  0  0
 62138  1  0  0  0
 63 65  1  0  0  0
 63139  1  0  0  0
 63140  1  0  0  0
 63141  1  0  0  0
 64142  1  0  0  0
 65143  1  0  0  0
 68 81  1  0  0  0
 71 72  2  0  0  0
 71 83  1  0  0  0
 71144  1  0  0  0
 72 73  1  0  0  0
 72 76  1  0  0  0
 73 74  1  0  0  0
 73 82  2  0  0  0
 74145  1  0  0  0
 74146  1  0  0  0
 74147  1  0  0  0
 75 77  1  0  0  0
 75148  1  0  0  0
 75149  1  0  0  0
 75150  1  0  0  0
 76 81  1  0  0  0
 76151  1  0  0  0
 76152  1  0  0  0
 77 79  1  0  0  0
 77153  1  0  0  0
 77154  1  0  0  0
 78 80  1  0  0  0
 78 83  1  0  0  0
 78155  1  0  0  0
 78156  1  0  0  0
 79 84  1  0  0  0
 79157  1  0  0  0
 79158  1  0  0  0
 80 84  1  0  0  0
 80159  1  0  0  0
 80160  1  0  0  0
 81161  1  0  0  0
 81162  1  0  0  0
 82 83  1  0  0  0
M  ISO  4   1 100  68 101  81 101  84 100
M  END
> <chiral flag>
0

> <version>
0

> <s_m_source_file>
/data/baiqing/PycharmProjects/Reinvent-master-3.2/result/LINK_invent/BTK/process_docking_weight1_custom_sum_contain_oxygen_bond_distance_aromatic_linkinvent_7_9_3/rearranged_h_0054.sdf

> <i_m_source_file_index>
3

> <r_mmod_Potential_Energy-OPLS-2005>
329.40087890625

> <r_mmod_Stretch_Energy-OPLS-2005>
136.331665039062

> <r_mmod_Bend_Energy-OPLS-2005>
194.482971191406

> <r_mmod_Torsional_Energy-OPLS-2005>
288.816528320312

> <r_mmod_Improper_Torsional_Energy-OPLS-2005>
8.6554536819458

> <r_mmod_Van_der_Waal_Energy-OPLS-2005>
125.879028320312

> <r_mmod_Electrostatic_Energy-OPLS-2005>
-313.132781982422

> <r_mmod_Solvation_Energy-OPLS-2005>
-199.660232543945

> <b_mmod_Minimization_Converged-OPLS-2005>
0

> <r_mmod_RMS_Derivative-OPLS-2005>
4.60275888442993

$$$$
3
                    3D
 Structure written by MMmdl.
157165  0  0  1  0            999 V2000
  -30.6218  -14.6364   20.5420 C   0  0  0  0  0  0
  -30.4487  -12.3877   19.4621 C   0  0  0  0  0  0
  -29.5193  -12.4818   18.2278 C   0  0  0  0  0  0
  -28.0370  -12.3186   18.6312 C   0  0  0  0  0  0
  -27.6516  -13.2038   19.8464 C   0  0  2  0  0  0
  -28.6905  -13.0497   20.9767 C   0  0  0  0  0  0
  -25.2560  -13.8153   20.5579 C   0  0  0  0  0  0
  -24.1836  -13.0449   20.9175 C   0  0  0  0  0  0
  -24.6370  -11.6906   20.8704 C   0  0  0  0  0  0
  -23.9039  -10.4298   21.0383 C   0  0  0  0  0  0
  -24.3592   -9.4218   21.9161 C   0  0  0  0  0  0
  -23.6270   -8.2255   22.0750 C   0  0  0  0  0  0
  -22.4253   -8.0289   21.3559 C   0  0  0  0  0  0
  -21.9893   -9.0244   20.4640 C   0  0  0  0  0  0
  -22.7213  -10.2120   20.3031 C   0  0  0  0  0  0
  -21.6843   -6.0737   22.5288 C   0  0  0  0  0  0
  -21.4011   -6.5646   23.8219 C   0  0  0  0  0  0
  -21.3649   -5.6796   24.9188 C   0  0  0  0  0  0
  -21.6034   -4.3056   24.7234 C   0  0  0  0  0  0
  -21.8813   -3.8148   23.4350 C   0  0  0  0  0  0
  -21.9201   -4.6966   22.3414 C   0  0  0  0  0  0
  -22.7855  -13.5239   21.1867 C   0  0  0  0  0  0
  -22.1661   -4.2159   21.0982 F   0  0  0  0  0  0
  -21.5623   -3.4534   25.7742 F   0  0  0  0  0  0
  -30.0103  -13.4099   20.4358 N   0  0  0  0  0  0
  -26.2961  -12.9294   20.3184 N   0  0  0  0  0  0
  -25.9297  -11.6475   20.5695 N   0  0  0  0  0  0
  -22.0485  -12.8230   22.0397 N   0  0  0  0  0  0
  -25.4250  -15.1866   20.3846 N   0  0  0  0  0  0
  -31.7598  -14.8090   20.0912 O   0  0  0  0  0  0
  -21.6631   -6.8883   21.4250 O   0  0  0  0  0  0
  -22.3568  -14.5561   20.6737 O   0  0  0  0  0  0
  -24.6219  -31.8579   23.1962 C   0  0  0  0  0  0
  -25.9039  -32.4793   23.8326 C   0  0  1  0  0  0
  -27.2440  -27.3303   20.1315 C   0  0  0  0  0  0
  -25.5882  -33.8608   24.2285 N   0  0  0  0  0  0
  -23.4198  -30.4726   21.5376 C   0  0  2  0  0  0
  -24.8721  -28.9243   20.1117 C   0  0  0  0  0  0
  -22.7457  -29.4589   22.4921 C   0  0  0  0  0  0
  -18.0285  -28.1346   22.8523 C   0  0  0  0  0  0
  -24.1484  -36.7291   23.2650 C   0  0  0  0  0  0
  -25.9567  -30.7922   21.3647 C   0  0  0  0  0  0
  -26.0355  -29.4165   20.7151 C   0  0  0  0  0  0
  -27.2197  -28.6316   20.7171 C   0  0  0  0  0  0
  -26.0601  -26.8838   19.4990 C   0  0  0  0  0  0
  -24.8866  -27.6607   19.4950 C   0  0  0  0  0  0
  -23.6355  -29.7946   20.1569 C   0  0  0  0  0  0
  -25.4102  -36.3106   24.0370 C   0  0  1  0  0  0
  -20.5888  -28.3663   23.1308 C   0  0  2  0  0  0
  -20.6778  -26.9388   22.5419 C   0  0  0  0  0  0
  -19.5750  -26.6364   21.5227 C   0  0  0  0  0  0
  -18.1929  -26.7908   22.1628 C   0  0  0  0  0  0
  -19.1537  -28.8810   23.2914 C   0  0  0  0  0  0
  -18.9448  -30.1419   23.8933 C   0  0  0  0  0  0
  -17.6455  -30.6567   24.0564 C   0  0  0  0  0  0
  -25.9020  -34.9476   23.5128 C   0  0  0  0  0  0
  -16.5344  -29.9067   23.6330 C   0  0  0  0  0  0
  -16.7268  -28.6460   23.0402 C   0  0  0  0  0  0
  -26.4432  -31.6588   25.0698 C   0  0  0  0  0  0
  -25.3700  -31.3751   26.1466 C   0  0  0  0  0  0
  -27.0281  -30.3026   24.6124 C   0  0  0  0  0  0
  -27.5996  -32.4343   25.7467 C   0  0  0  0  0  0
  -27.5579  -37.1813   24.8476 C   0  0  0  0  0  0
  -21.4173  -29.3025   22.3688 N   0  0  0  0  0  0
  -26.4297  -37.3788   23.9426 N   0  0  0  0  0  0
  -24.6853  -31.0600   22.0888 N   0  0  0  0  0  0
  -23.4200  -28.8127   23.2995 O   0  0  0  0  0  0
  -28.3913  -26.5289   20.1986 O   0  0  0  0  0  0
  -26.5585  -34.8962   22.4689 O   0  0  0  0  0  0
  -23.5389  -32.1328   23.7283 O   0  0  0  0  0  0
  -28.9483  -20.6139   21.8681 C   0  0  0  0  0  0
  -29.8852  -19.9479   21.0332 C   0  0  0  0  0  0
  -29.3610  -22.6324   20.8037 C   0  0  0  0  0  0
  -29.9843  -15.8601   22.7024 C   0  0  0  0  0  0
  -29.3411  -17.5224   19.3213 C   0  0  0  0  0  0
  -30.4097  -18.4986   21.3901 C   0  0  0  0  0  0
  -29.3306  -24.2047   20.8741 C   0  0  0  0  0  0
  -28.2956  -25.0605   20.0323 C   0  0  0  0  0  0
  -29.8772  -15.8989   21.1584 C   0  0  1  0  0  0
  -28.6891  -21.9497   21.7481 N   0  0  0  0  0  0
  -30.4912  -20.6984   20.0655 N   0  0  0  0  0  0
  -30.2228  -22.0284   19.9475 N   0  0  0  0  0  0
  -30.1971  -17.2604   20.5093 N   0  3  1  0  0  0
  -31.4915  -12.5133   19.1643 H   0  0  0  0  0  0
  -30.3915  -11.3932   19.9081 H   0  0  0  0  0  0
  -29.7896  -11.7164   17.4987 H   0  0  0  0  0  0
  -29.6621  -13.4407   17.7272 H   0  0  0  0  0  0
  -27.8783  -11.2689   18.8794 H   0  0  0  0  0  0
  -27.3852  -12.5256   17.7825 H   0  0  0  0  0  0
  -27.6709  -14.2353   19.4962 H   0  0  0  0  0  0
  -28.7046  -12.0172   21.3296 H   0  0  0  0  0  0
  -28.4110  -13.6459   21.8433 H   0  0  0  0  0  0
  -25.2738   -9.5721   22.4735 H   0  0  0  0  0  0
  -23.9985   -7.4659   22.7476 H   0  0  0  0  0  0
  -21.0835   -8.8742   19.8947 H   0  0  0  0  0  0
  -22.3652  -10.9645   19.6128 H   0  0  0  0  0  0
  -21.1982   -7.6155   23.9734 H   0  0  0  0  0  0
  -21.1471   -6.0523   25.9091 H   0  0  0  0  0  0
  -22.0592   -2.7617   23.2848 H   0  0  0  0  0  0
  -22.4066  -11.9880   22.4794 H   0  0  0  0  0  0
  -21.1090  -13.1262   22.2544 H   0  0  0  0  0  0
  -24.6435  -15.8269   20.4723 H   0  0  0  0  0  0
  -26.2388  -15.6242   19.9739 H   0  0  0  0  0  0
  -26.7116  -32.5463   23.1094 H   0  0  0  0  0  0
  -25.0143  -33.9769   25.0505 H   0  0  0  0  0  0
  -22.7153  -31.2897   21.3827 H   0  0  0  0  0  0
  -23.3764  -35.9603   23.3317 H   0  0  0  0  0  0
  -24.3550  -36.8857   22.2047 H   0  0  0  0  0  0
  -23.7235  -37.6516   23.6630 H   0  0  0  0  0  0
  -26.0839  -31.5468   20.5869 H   0  0  0  0  0  0
  -26.8418  -30.8461   21.9878 H   0  0  0  0  0  0
  -28.1115  -29.0046   21.2012 H   0  0  0  0  0  0
  -26.0183  -25.9204   19.0111 H   0  0  0  0  0  0
  -23.9974  -27.2761   19.0200 H   0  0  0  0  0  0
  -23.7420  -30.5610   19.3875 H   0  0  0  0  0  0
  -22.7669  -29.2047   19.8608 H   0  0  0  0  0  0
  -25.1263  -36.1978   25.0873 H   0  0  0  0  0  0
  -20.9991  -28.3201   24.1428 H   0  0  0  0  0  0
  -20.5703  -26.2245   23.3597 H   0  0  0  0  0  0
  -21.6632  -26.7417   22.1181 H   0  0  0  0  0  0
  -19.6910  -25.6280   21.1239 H   0  0  0  0  0  0
  -19.6702  -27.3210   20.6792 H   0  0  0  0  0  0
  -17.4211  -26.6723   21.4008 H   0  0  0  0  0  0
  -18.0273  -26.0015   22.8971 H   0  0  0  0  0  0
  -19.7919  -30.7234   24.2331 H   0  0  0  0  0  0
  -17.5003  -31.6269   24.5114 H   0  0  0  0  0  0
  -15.5350  -30.2996   23.7615 H   0  0  0  0  0  0
  -15.8659  -28.0766   22.7167 H   0  0  0  0  0  0
  -24.5866  -30.7078   25.7830 H   0  0  0  0  0  0
  -24.8916  -32.2948   26.4875 H   0  0  0  0  0  0
  -25.8057  -30.8964   27.0254 H   0  0  0  0  0  0
  -26.2823  -29.6834   24.1129 H   0  0  0  0  0  0
  -27.3957  -29.7237   25.4607 H   0  0  0  0  0  0
  -27.8715  -30.4321   23.9338 H   0  0  0  0  0  0
  -27.2559  -33.3672   26.1974 H   0  0  0  0  0  0
  -28.3834  -32.6861   25.0297 H   0  0  0  0  0  0
  -28.0639  -31.8525   26.5447 H   0  0  0  0  0  0
  -28.2607  -38.0097   24.7469 H   0  0  0  0  0  0
  -28.1045  -36.2627   24.6322 H   0  0  0  0  0  0
  -27.2283  -37.1451   25.8873 H   0  0  0  0  0  0
  -20.9317  -29.8771   21.6938 H   0  0  0  0  0  0
  -26.0187  -38.2879   24.1371 H   0  0  0  0  0  0
  -28.4760  -20.0996   22.6952 H   0  0  0  0  0  0
  -29.2251  -16.4882   23.1669 H   0  0  0  0  0  0
  -30.9664  -16.1618   23.0655 H   0  0  0  0  0  0
  -29.8004  -14.8589   23.0900 H   0  0  0  0  0  0
  -29.6815  -18.3884   18.7521 H   0  0  0  0  0  0
  -28.3021  -17.6927   19.6105 H   0  0  0  0  0  0
  -29.3620  -16.6762   18.6318 H   0  0  0  0  0  0
  -30.0164  -18.3297   22.3876 H   0  0  0  0  0  0
  -31.4850  -18.5859   21.5539 H   0  0  0  0  0  0
  -30.3369  -24.5530   20.6432 H   0  0  0  0  0  0
  -29.1858  -24.4670   21.9259 H   0  0  0  0  0  0
  -27.3015  -24.7071   20.3033 H   0  0  0  0  0  0
  -28.4318  -24.8409   18.9721 H   0  0  0  0  0  0
  -28.8190  -15.7403   20.9541 H   0  0  0  0  0  0
  -31.1146  -17.0986   20.1132 H   0  0  0  0  0  0
  1 25  1  0  0  0
  1 30  2  0  0  0
  1 79  1  0  0  0
  2  3  1  0  0  0
  2 25  1  0  0  0
  2 84  1  0  0  0
  2 85  1  0  0  0
  3  4  1  0  0  0
  3 86  1  0  0  0
  3 87  1  0  0  0
  4  5  1  0  0  0
  4 88  1  0  0  0
  4 89  1  0  0  0
  5  6  1  0  0  0
  5 26  1  0  0  0
  5 90  1  0  0  0
  6 25  1  0  0  0
  6 91  1  0  0  0
  6 92  1  0  0  0
  7  8  2  0  0  0
  7 26  1  0  0  0
  7 29  1  0  0  0
  8  9  1  0  0  0
  8 22  1  0  0  0
  9 10  1  0  0  0
  9 27  2  0  0  0
 10 11  2  0  0  0
 10 15  1  0  0  0
 11 12  1  0  0  0
 11 93  1  0  0  0
 12 13  2  0  0  0
 12 94  1  0  0  0
 13 14  1  0  0  0
 13 31  1  0  0  0
 14 15  2  0  0  0
 14 95  1  0  0  0
 15 96  1  0  0  0
 16 17  2  0  0  0
 16 21  1  0  0  0
 16 31  1  0  0  0
 17 18  1  0  0  0
 17 97  1  0  0  0
 18 19  2  0  0  0
 18 98  1  0  0  0
 19 20  1  0  0  0
 19 24  1  0  0  0
 20 21  2  0  0  0
 20 99  1  0  0  0
 21 23  1  0  0  0
 22 28  1  0  0  0
 22 32  2  0  0  0
 26 27  1  0  0  0
 28100  1  0  0  0
 28101  1  0  0  0
 29102  1  0  0  0
 29103  1  0  0  0
 33 34  1  0  0  0
 33 66  1  0  0  0
 33 70  2  0  0  0
 34 36  1  0  0  0
 34 59  1  0  0  0
 34104  1  0  0  0
 35 44  2  0  0  0
 35 45  1  0  0  0
 35 68  1  0  0  0
 36 56  1  0  0  0
 36105  1  0  0  0
 37 39  1  0  0  0
 37 47  1  0  0  0
 37 66  1  0  0  0
 37106  1  0  0  0
 38 43  2  0  0  0
 38 46  1  0  0  0
 38 47  1  0  0  0
 39 64  1  0  0  0
 39 67  2  0  0  0
 40 52  1  0  0  0
 40 53  2  0  0  0
 40 58  1  0  0  0
 41107  1  0  0  0
 41108  1  0  0  0
 41109  1  0  0  0
 41 48  1  0  0  0
 42 43  1  0  0  0
 42 66  1  0  0  0
 42110  1  0  0  0
 42111  1  0  0  0
 43 44  1  0  0  0
 44112  1  0  0  0
 45 46  2  0  0  0
 45113  1  0  0  0
 46114  1  0  0  0
 47115  1  0  0  0
 47116  1  0  0  0
 48 56  1  0  0  0
 48 65  1  0  0  0
 48117  1  0  0  0
 49 50  1  0  0  0
 49 53  1  0  0  0
 49 64  1  0  0  0
 49118  1  0  0  0
 50 51  1  0  0  0
 50119  1  0  0  0
 50120  1  0  0  0
 51 52  1  0  0  0
 51121  1  0  0  0
 51122  1  0  0  0
 52123  1  0  0  0
 52124  1  0  0  0
 53 54  1  0  0  0
 54 55  2  0  0  0
 54125  1  0  0  0
 55 57  1  0  0  0
 55126  1  0  0  0
 56 69  2  0  0  0
 57 58  2  0  0  0
 57127  1  0  0  0
 58128  1  0  0  0
 59 60  1  0  0  0
 59 61  1  0  0  0
 59 62  1  0  0  0
 60129  1  0  0  0
 60130  1  0  0  0
 60131  1  0  0  0
 61132  1  0  0  0
 61133  1  0  0  0
 61134  1  0  0  0
 62135  1  0  0  0
 62136  1  0  0  0
 62137  1  0  0  0
 63 65  1  0  0  0
 63138  1  0  0  0
 63139  1  0  0  0
 63140  1  0  0  0
 64141  1  0  0  0
 65142  1  0  0  0
 68 78  1  0  0  0
 71 72  2  0  0  0
 71 80  1  0  0  0
 71143  1  0  0  0
 72 76  1  0  0  0
 72 81  1  0  0  0
 73 77  1  0  0  0
 73 80  2  0  0  0
 73 82  1  0  0  0
 74144  1  0  0  0
 74145  1  0  0  0
 74146  1  0  0  0
 74 79  1  0  0  0
 75147  1  0  0  0
 75148  1  0  0  0
 75149  1  0  0  0
 75 83  1  0  0  0
 76 83  1  0  0  0
 76150  1  0  0  0
 76151  1  0  0  0
 77 78  1  0  0  0
 77152  1  0  0  0
 77153  1  0  0  0
 78154  1  0  0  0
 78155  1  0  0  0
 79 83  1  0  0  0
 79156  1  0  0  0
 81 82  2  0  0  0
 83157  1  0  0  0
M  CHG  1  83   1
M  ISO  4   1 100  68 101  78 101  79 100
M  END
> <chiral flag>
0

> <version>
0

> <s_m_source_file>
/data/baiqing/PycharmProjects/Reinvent-master-3.2/result/LINK_invent/BTK/process_docking_weight1_custom_sum_contain_oxygen_bond_distance_aromatic_linkinvent_7_9_3/rearranged_h_0054.sdf

> <i_m_source_file_index>
4

> <r_mmod_Potential_Energy-OPLS-2005>
-126.815780639648

> <r_mmod_Stretch_Energy-OPLS-2005>
91.85595703125

> <r_mmod_Bend_Energy-OPLS-2005>
161.564498901367

> <r_mmod_Torsional_Energy-OPLS-2005>
187.13688659668

> <r_mmod_Improper_Torsional_Energy-OPLS-2005>
5.4143443107605

> <r_mmod_Van_der_Waal_Energy-OPLS-2005>
152.781646728516

> <r_mmod_Electrostatic_Energy-OPLS-2005>
-304.729064941406

> <r_mmod_Solvation_Energy-OPLS-2005>
-465.641937255859

> <b_mmod_Minimization_Converged-OPLS-2005>
0

> <r_mmod_RMS_Derivative-OPLS-2005>
4.47795343399048

$$$$
4
                    3D
 Structure written by MMmdl.
150158  0  0  1  0            999 V2000
  -30.5361  -15.0125   20.3795 C   0  0  0  0  0  0
  -30.4481  -12.6249   19.4993 C   0  0  0  0  0  0
  -29.5284  -12.5285   18.2586 C   0  0  0  0  0  0
  -28.0647  -12.3094   18.6838 C   0  0  0  0  0  0
  -27.6298  -13.2600   19.8263 C   0  0  2  0  0  0
  -28.6733  -13.3364   20.9601 C   0  0  0  0  0  0
  -25.2481  -13.8226   20.5685 C   0  0  0  0  0  0
  -24.1810  -13.0419   20.9197 C   0  0  0  0  0  0
  -24.6459  -11.6919   20.8793 C   0  0  0  0  0  0
  -23.9144  -10.4275   21.0458 C   0  0  0  0  0  0
  -24.3682   -9.4162   21.9224 C   0  0  0  0  0  0
  -23.6313   -8.2231   22.0806 C   0  0  0  0  0  0
  -22.4306   -8.0296   21.3577 C   0  0  0  0  0  0
  -21.9961   -9.0293   20.4691 C   0  0  0  0  0  0
  -22.7329  -10.2148   20.3079 C   0  0  0  0  0  0
  -21.6847   -6.0756   22.5282 C   0  0  0  0  0  0
  -21.4007   -6.5657   23.8211 C   0  0  0  0  0  0
  -21.3662   -5.6815   24.9183 C   0  0  0  0  0  0
  -21.6010   -4.3061   24.7242 C   0  0  0  0  0  0
  -21.8811   -3.8162   23.4369 C   0  0  0  0  0  0
  -21.9178   -4.6980   22.3414 C   0  0  0  0  0  0
  -22.7825  -13.5190   21.1848 C   0  0  0  0  0  0
  -22.1659   -4.2172   21.0989 F   0  0  0  0  0  0
  -21.5632   -3.4532   25.7751 F   0  0  0  0  0  0
  -29.9444  -13.7459   20.3471 N   0  0  0  0  0  0
  -26.2926  -12.9474   20.3208 N   0  0  0  0  0  0
  -25.9387  -11.6592   20.5751 N   0  0  0  0  0  0
  -22.0475  -12.8196   22.0417 N   0  0  0  0  0  0
  -25.4047  -15.1943   20.4162 N   0  0  0  0  0  0
  -31.7474  -15.0566   20.1402 O   0  0  0  0  0  0
  -21.6634   -6.8907   21.4260 O   0  0  0  0  0  0
  -22.3472  -14.5455   20.6654 O   0  0  0  0  0  0
  -24.6513  -31.8406   23.1870 C   0  0  0  0  0  0
  -25.9229  -32.4713   23.8291 C   0  0  1  0  0  0
  -27.2030  -27.0732   20.1483 C   0  0  0  0  0  0
  -25.5944  -33.8527   24.2204 N   0  0  0  0  0  0
  -23.4571  -30.4595   21.5372 C   0  0  2  0  0  0
  -24.9042  -28.8880   20.1073 C   0  0  0  0  0  0
  -22.7623  -29.4500   22.4889 C   0  0  0  0  0  0
  -18.0306  -28.1383   22.8486 C   0  0  0  0  0  0
  -24.1478  -36.7254   23.2644 C   0  0  0  0  0  0
  -26.0202  -30.6958   21.3934 C   0  0  0  0  0  0
  -26.0880  -29.3006   20.7333 C   0  0  0  0  0  0
  -27.2369  -28.4088   20.7407 C   0  0  0  0  0  0
  -25.9957  -26.7915   19.4639 C   0  0  0  0  0  0
  -24.8780  -27.6510   19.4505 C   0  0  0  0  0  0
  -23.6830  -29.7952   20.1554 C   0  0  0  0  0  0
  -25.4116  -36.3072   24.0334 C   0  0  1  0  0  0
  -20.5935  -28.3705   23.1243 C   0  0  2  0  0  0
  -20.6804  -26.9402   22.5406 C   0  0  0  0  0  0
  -19.5754  -26.6369   21.5234 C   0  0  0  0  0  0
  -18.1942  -26.7925   22.1641 C   0  0  0  0  0  0
  -19.1566  -28.8871   23.2846 C   0  0  0  0  0  0
  -18.9465  -30.1477   23.8864 C   0  0  0  0  0  0
  -17.6456  -30.6580   24.0552 C   0  0  0  0  0  0
  -25.9067  -34.9446   23.5091 C   0  0  0  0  0  0
  -16.5354  -29.9054   23.6337 C   0  0  0  0  0  0
  -16.7288  -28.6474   23.0362 C   0  0  0  0  0  0
  -26.4511  -31.6605   25.0760 C   0  0  0  0  0  0
  -25.3666  -31.3783   26.1436 C   0  0  0  0  0  0
  -27.0367  -30.3026   24.6305 C   0  0  0  0  0  0
  -27.6077  -32.4332   25.7528 C   0  0  0  0  0  0
  -27.5578  -37.1790   24.8476 C   0  0  0  0  0  0
  -21.4316  -29.3034   22.3646 N   0  0  0  0  0  0
  -26.4293  -37.3775   23.9413 N   0  0  0  0  0  0
  -24.7303  -31.0193   22.0940 N   0  0  0  0  0  0
  -23.4249  -28.8061   23.3064 O   0  0  0  0  0  0
  -28.2097  -26.0189   20.2346 O   0  0  0  0  0  0
  -26.5654  -34.8939   22.4674 O   0  0  0  0  0  0
  -23.5610  -32.1322   23.7029 O   0  0  0  0  0  0
  -29.7517  -22.6267   21.0147 C   0  0  0  0  0  0
  -28.2369  -21.7285   19.8336 C   0  0  0  0  0  0
  -28.5996  -23.0439   20.2524 C   0  0  0  0  0  0
  -27.6220  -18.5973   20.8986 C   0  0  0  0  0  0
  -27.8125  -24.5112   19.9760 C   0  0  0  0  0  0
  -30.0630  -17.7867   20.4157 C   0  0  0  0  0  0
  -28.9029  -19.0193   20.1583 C   0  0  2  0  0  0
  -29.9978  -21.2767   21.0501 N   0  0  0  0  0  0
  -29.0590  -20.6245   20.2988 N   0  0  0  0  0  0
  -29.7545  -16.2103   20.4653 N   0  0  0  0  0  0
  -31.4793  -12.7853   19.1785 H   0  0  0  0  0  0
  -30.4531  -11.6883   20.0602 H   0  0  0  0  0  0
  -29.8558  -11.7147   17.6092 H   0  0  0  0  0  0
  -29.6069  -13.4431   17.6675 H   0  0  0  0  0  0
  -27.9785  -11.2790   19.0200 H   0  0  0  0  0  0
  -27.3988  -12.4088   17.8236 H   0  0  0  0  0  0
  -27.5718  -14.2517   19.3712 H   0  0  0  0  0  0
  -28.7700  -12.3804   21.4783 H   0  0  0  0  0  0
  -28.3683  -14.0727   21.7041 H   0  0  0  0  0  0
  -25.2857   -9.5574   22.4811 H   0  0  0  0  0  0
  -23.9965   -7.4624   22.7565 H   0  0  0  0  0  0
  -21.0858   -8.8842   19.9044 H   0  0  0  0  0  0
  -22.3817  -10.9694   19.6188 H   0  0  0  0  0  0
  -21.1995   -7.6162   23.9691 H   0  0  0  0  0  0
  -21.1502   -6.0577   25.9072 H   0  0  0  0  0  0
  -22.0590   -2.7643   23.2857 H   0  0  0  0  0  0
  -22.4083  -11.9834   22.4758 H   0  0  0  0  0  0
  -21.1134  -13.1294   22.2674 H   0  0  0  0  0  0
  -24.6210  -15.8302   20.5287 H   0  0  0  0  0  0
  -26.2272  -15.6444   20.0416 H   0  0  0  0  0  0
  -26.7317  -32.5301   23.1032 H   0  0  0  0  0  0
  -25.0089  -33.9639   25.0356 H   0  0  0  0  0  0
  -22.7623  -31.2884   21.3851 H   0  0  0  0  0  0
  -23.3782  -35.9543   23.3304 H   0  0  0  0  0  0
  -24.3570  -36.8872   22.2058 H   0  0  0  0  0  0
  -23.7173  -37.6431   23.6665 H   0  0  0  0  0  0
  -26.1738  -31.4425   20.6146 H   0  0  0  0  0  0
  -26.8927  -30.7549   22.0317 H   0  0  0  0  0  0
  -28.1314  -28.7139   21.2631 H   0  0  0  0  0  0
  -25.8645  -25.8569   18.9404 H   0  0  0  0  0  0
  -23.9833  -27.3346   18.9334 H   0  0  0  0  0  0
  -23.8166  -30.5699   19.4011 H   0  0  0  0  0  0
  -22.7959  -29.2393   19.8491 H   0  0  0  0  0  0
  -25.1297  -36.1936   25.0827 H   0  0  0  0  0  0
  -21.0001  -28.3274   24.1378 H   0  0  0  0  0  0
  -20.5732  -26.2288   23.3610 H   0  0  0  0  0  0
  -21.6658  -26.7420   22.1183 H   0  0  0  0  0  0
  -19.6905  -25.6277   21.1266 H   0  0  0  0  0  0
  -19.6704  -27.3180   20.6761 H   0  0  0  0  0  0
  -17.4233  -26.6686   21.4016 H   0  0  0  0  0  0
  -18.0327  -26.0058   22.9030 H   0  0  0  0  0  0
  -19.7931  -30.7313   24.2226 H   0  0  0  0  0  0
  -17.4983  -31.6263   24.5131 H   0  0  0  0  0  0
  -15.5343  -30.2928   23.7660 H   0  0  0  0  0  0
  -15.8707  -28.0766   22.7089 H   0  0  0  0  0  0
  -24.5880  -30.7093   25.7734 H   0  0  0  0  0  0
  -24.8801  -32.2947   26.4787 H   0  0  0  0  0  0
  -25.7934  -30.9010   27.0266 H   0  0  0  0  0  0
  -26.2985  -29.6779   24.1268 H   0  0  0  0  0  0
  -27.3965  -29.7298   25.4855 H   0  0  0  0  0  0
  -27.8898  -30.4315   23.9648 H   0  0  0  0  0  0
  -27.2739  -33.3671   26.2055 H   0  0  0  0  0  0
  -28.3915  -32.6798   25.0359 H   0  0  0  0  0  0
  -28.0705  -31.8462   26.5466 H   0  0  0  0  0  0
  -28.2613  -38.0066   24.7539 H   0  0  0  0  0  0
  -28.1055  -36.2616   24.6306 H   0  0  0  0  0  0
  -27.2303  -37.1448   25.8875 H   0  0  0  0  0  0
  -20.9540  -29.8741   21.6828 H   0  0  0  0  0  0
  -26.0186  -38.2856   24.1409 H   0  0  0  0  0  0
  -30.4154  -23.2649   21.5862 H   0  0  0  0  0  0
  -27.3767  -21.4676   19.2326 H   0  0  0  0  0  0
  -26.7617  -19.2063   20.6159 H   0  0  0  0  0  0
  -27.7538  -18.6854   21.9760 H   0  0  0  0  0  0
  -27.3597  -17.5623   20.6790 H   0  0  0  0  0  0
  -26.8500  -24.4141   20.4788 H   0  0  0  0  0  0
  -27.5518  -24.4969   18.9185 H   0  0  0  0  0  0
  -30.8448  -17.9277   19.6661 H   0  0  0  0  0  0
  -30.5499  -18.0059   21.3659 H   0  0  0  0  0  0
  -28.6561  -18.9004   19.1002 H   0  0  0  0  0  0
  -28.7788  -16.0058   20.6174 H   0  0  0  0  0  0
  1 25  1  0  0  0
  1 30  2  0  0  0
  1 80  1  0  0  0
  2  3  1  0  0  0
  2 25  1  0  0  0
  2 81  1  0  0  0
  2 82  1  0  0  0
  3  4  1  0  0  0
  3 83  1  0  0  0
  3 84  1  0  0  0
  4  5  1  0  0  0
  4 85  1  0  0  0
  4 86  1  0  0  0
  5  6  1  0  0  0
  5 26  1  0  0  0
  5 87  1  0  0  0
  6 25  1  0  0  0
  6 88  1  0  0  0
  6 89  1  0  0  0
  7  8  2  0  0  0
  7 26  1  0  0  0
  7 29  1  0  0  0
  8  9  1  0  0  0
  8 22  1  0  0  0
  9 10  1  0  0  0
  9 27  2  0  0  0
 10 11  2  0  0  0
 10 15  1  0  0  0
 11 12  1  0  0  0
 11 90  1  0  0  0
 12 13  2  0  0  0
 12 91  1  0  0  0
 13 14  1  0  0  0
 13 31  1  0  0  0
 14 15  2  0  0  0
 14 92  1  0  0  0
 15 93  1  0  0  0
 16 17  2  0  0  0
 16 21  1  0  0  0
 16 31  1  0  0  0
 17 18  1  0  0  0
 17 94  1  0  0  0
 18 19  2  0  0  0
 18 95  1  0  0  0
 19 20  1  0  0  0
 19 24  1  0  0  0
 20 21  2  0  0  0
 20 96  1  0  0  0
 21 23  1  0  0  0
 22 28  1  0  0  0
 22 32  2  0  0  0
 26 27  1  0  0  0
 28 97  1  0  0  0
 28 98  1  0  0  0
 29 99  1  0  0  0
 29100  1  0  0  0
 33 34  1  0  0  0
 33 66  1  0  0  0
 33 70  2  0  0  0
 34 36  1  0  0  0
 34 59  1  0  0  0
 34101  1  0  0  0
 35 44  2  0  0  0
 35 45  1  0  0  0
 35 68  1  0  0  0
 36 56  1  0  0  0
 36102  1  0  0  0
 37 39  1  0  0  0
 37 47  1  0  0  0
 37 66  1  0  0  0
 37103  1  0  0  0
 38 43  2  0  0  0
 38 46  1  0  0  0
 38 47  1  0  0  0
 39 64  1  0  0  0
 39 67  2  0  0  0
 40 52  1  0  0  0
 40 53  2  0  0  0
 40 58  1  0  0  0
 41104  1  0  0  0
 41105  1  0  0  0
 41106  1  0  0  0
 41 48  1  0  0  0
 42 43  1  0  0  0
 42 66  1  0  0  0
 42107  1  0  0  0
 42108  1  0  0  0
 43 44  1  0  0  0
 44109  1  0  0  0
 45 46  2  0  0  0
 45110  1  0  0  0
 46111  1  0  0  0
 47112  1  0  0  0
 47113  1  0  0  0
 48 56  1  0  0  0
 48 65  1  0  0  0
 48114  1  0  0  0
 49 50  1  0  0  0
 49 53  1  0  0  0
 49 64  1  0  0  0
 49115  1  0  0  0
 50 51  1  0  0  0
 50116  1  0  0  0
 50117  1  0  0  0
 51 52  1  0  0  0
 51118  1  0  0  0
 51119  1  0  0  0
 52120  1  0  0  0
 52121  1  0  0  0
 53 54  1  0  0  0
 54 55  2  0  0  0
 54122  1  0  0  0
 55 57  1  0  0  0
 55123  1  0  0  0
 56 69  2  0  0  0
 57 58  2  0  0  0
 57124  1  0  0  0
 58125  1  0  0  0
 59 60  1  0  0  0
 59 61  1  0  0  0
 59 62  1  0  0  0
 60126  1  0  0  0
 60127  1  0  0  0
 60128  1  0  0  0
 61129  1  0  0  0
 61130  1  0  0  0
 61131  1  0  0  0
 62132  1  0  0  0
 62133  1  0  0  0
 62134  1  0  0  0
 63 65  1  0  0  0
 63135  1  0  0  0
 63136  1  0  0  0
 63137  1  0  0  0
 64138  1  0  0  0
 65139  1  0  0  0
 68 75  1  0  0  0
 71 73  1  0  0  0
 71 78  2  0  0  0
 71140  1  0  0  0
 72 73  2  0  0  0
 72 79  1  0  0  0
 72141  1  0  0  0
 73 75  1  0  0  0
 74142  1  0  0  0
 74143  1  0  0  0
 74144  1  0  0  0
 74 77  1  0  0  0
 75145  1  0  0  0
 75146  1  0  0  0
 76 77  1  0  0  0
 76 80  1  0  0  0
 76147  1  0  0  0
 76148  1  0  0  0
 77 79  1  0  0  0
 77149  1  0  0  0
 78 79  1  0  0  0
 80150  1  0  0  0
M  ISO  4   1 100  68 101  75 101  80 100
M  END
> <chiral flag>
0

> <version>
0

> <s_m_source_file>
/data/baiqing/PycharmProjects/Reinvent-master-3.2/result/LINK_invent/BTK/process_docking_weight1_custom_sum_contain_oxygen_bond_distance_aromatic_linkinvent_7_9_3/rearranged_h_0054.sdf

> <i_m_source_file_index>
5

> <r_mmod_Potential_Energy-OPLS-2005>
605.189514160156

> <r_mmod_Stretch_Energy-OPLS-2005>
312.799774169922

> <r_mmod_Bend_Energy-OPLS-2005>
300.679138183594

> <r_mmod_Torsional_Energy-OPLS-2005>
236.669830322266

> <r_mmod_Improper_Torsional_Energy-OPLS-2005>
5.14674139022827

> <r_mmod_Van_der_Waal_Energy-OPLS-2005>
110.249534606934

> <r_mmod_Electrostatic_Energy-OPLS-2005>
-378.512573242188

> <r_mmod_Solvation_Energy-OPLS-2005>
-235.43342590332

> <b_mmod_Minimization_Converged-OPLS-2005>
0

> <r_mmod_RMS_Derivative-OPLS-2005>
4.9219126701355

$$$$
5
                    3D
 Structure written by MMmdl.
159167  0  0  1  0            999 V2000
  -30.6173  -14.7435   20.5017 C   0  0  0  0  0  0
  -30.4384  -12.4761   19.4460 C   0  0  0  0  0  0
  -29.5086  -12.5543   18.2127 C   0  0  0  0  0  0
  -28.0274  -12.3795   18.6146 C   0  0  0  0  0  0
  -27.6434  -13.2293   19.8558 C   0  0  2  0  0  0
  -28.6956  -13.0557   20.9665 C   0  0  0  0  0  0
  -25.2494  -13.8159   20.5675 C   0  0  0  0  0  0
  -24.1794  -13.0418   20.9222 C   0  0  0  0  0  0
  -24.6375  -11.6896   20.8744 C   0  0  0  0  0  0
  -23.9039  -10.4284   21.0386 C   0  0  0  0  0  0
  -24.3591   -9.4208   21.9157 C   0  0  0  0  0  0
  -23.6285   -8.2242   22.0728 C   0  0  0  0  0  0
  -22.4272   -8.0270   21.3526 C   0  0  0  0  0  0
  -21.9897   -9.0237   20.4630 C   0  0  0  0  0  0
  -22.7214  -10.2122   20.3039 C   0  0  0  0  0  0
  -21.6878   -6.0727   22.5287 C   0  0  0  0  0  0
  -21.4015   -6.5623   23.8216 C   0  0  0  0  0  0
  -21.3660   -5.6772   24.9173 C   0  0  0  0  0  0
  -21.6054   -4.3038   24.7226 C   0  0  0  0  0  0
  -21.8813   -3.8131   23.4343 C   0  0  0  0  0  0
  -21.9187   -4.6951   22.3404 C   0  0  0  0  0  0
  -22.7823  -13.5219   21.1899 C   0  0  0  0  0  0
  -22.1660   -4.2150   21.0984 F   0  0  0  0  0  0
  -21.5633   -3.4507   25.7719 F   0  0  0  0  0  0
  -29.9830  -13.5092   20.4123 N   0  0  0  0  0  0
  -26.2941  -12.9370   20.3296 N   0  0  0  0  0  0
  -25.9318  -11.6507   20.5722 N   0  0  0  0  0  0
  -22.0454  -12.8224   22.0451 N   0  0  0  0  0  0
  -25.4120  -15.1876   20.4021 N   0  0  0  0  0  0
  -31.7829  -14.8186   20.0944 O   0  0  0  0  0  0
  -21.6648   -6.8866   21.4242 O   0  0  0  0  0  0
  -22.3520  -14.5528   20.6756 O   0  0  0  0  0  0
  -24.6294  -31.8564   23.2011 C   0  0  0  0  0  0
  -25.9131  -32.4767   23.8336 C   0  0  1  0  0  0
  -27.2046  -27.2559   20.0937 C   0  0  0  0  0  0
  -25.5928  -33.8570   24.2243 N   0  0  0  0  0  0
  -23.4248  -30.4859   21.5460 C   0  0  2  0  0  0
  -24.8673  -28.9410   20.1057 C   0  0  0  0  0  0
  -22.7486  -29.4607   22.4889 C   0  0  0  0  0  0
  -18.0286  -28.1404   22.8470 C   0  0  0  0  0  0
  -24.1482  -36.7266   23.2641 C   0  0  0  0  0  0
  -25.9738  -30.7639   21.3851 C   0  0  0  0  0  0
  -26.0418  -29.3902   20.7164 C   0  0  0  0  0  0
  -27.2089  -28.5577   20.7104 C   0  0  0  0  0  0
  -25.9969  -26.8849   19.4535 C   0  0  0  0  0  0
  -24.8484  -27.6950   19.4702 C   0  0  0  0  0  0
  -23.6414  -29.8324   20.1586 C   0  0  0  0  0  0
  -25.4119  -36.3075   24.0321 C   0  0  1  0  0  0
  -20.5893  -28.3701   23.1266 C   0  0  2  0  0  0
  -20.6776  -26.9419   22.5400 C   0  0  0  0  0  0
  -19.5747  -26.6385   21.5206 C   0  0  0  0  0  0
  -18.1931  -26.7940   22.1632 C   0  0  0  0  0  0
  -19.1543  -28.8867   23.2870 C   0  0  0  0  0  0
  -18.9474  -30.1467   23.8885 C   0  0  0  0  0  0
  -17.6480  -30.6613   24.0564 C   0  0  0  0  0  0
  -25.9066  -34.9448   23.5087 C   0  0  0  0  0  0
  -16.5362  -29.9123   23.6333 C   0  0  0  0  0  0
  -16.7274  -28.6547   23.0334 C   0  0  0  0  0  0
  -26.4485  -31.6600   25.0724 C   0  0  0  0  0  0
  -25.3708  -31.3766   26.1446 C   0  0  0  0  0  0
  -27.0335  -30.3025   24.6217 C   0  0  0  0  0  0
  -27.6031  -32.4357   25.7499 C   0  0  0  0  0  0
  -27.5574  -37.1790   24.8466 C   0  0  0  0  0  0
  -21.4188  -29.3063   22.3655 N   0  0  0  0  0  0
  -26.4279  -37.3784   23.9419 N   0  0  0  0  0  0
  -24.6957  -31.0520   22.0999 N   0  0  0  0  0  0
  -23.4190  -28.8117   23.2963 O   0  0  0  0  0  0
  -28.2988  -26.3555   20.1977 O   0  0  0  0  0  0
  -26.5643  -34.8917   22.4659 O   0  0  0  0  0  0
  -23.5452  -32.1399   23.7313 O   0  0  0  0  0  0
  -28.2886  -19.0900   20.5399 C   0  0  0  0  0  0
  -30.1444  -19.9826   19.9202 C   0  0  0  0  0  0
  -29.6476  -18.7189   20.2642 C   0  0  0  0  0  0
  -28.3245  -15.2758   24.2240 C   0  0  0  0  0  0
  -30.4202  -17.3025   20.2491 C   0  0  0  0  0  0
  -29.4710  -15.5209   23.2350 C   0  0  0  0  0  0
  -28.8249  -23.7433   20.3337 C   0  0  0  0  0  0
  -29.1475  -22.4277   19.4474 C   0  0  0  0  0  0
  -28.9517  -16.0478   21.8784 C   0  0  0  0  0  0
  -28.3784  -25.0948   19.5548 C   0  0  2  0  0  0
  -28.0157  -20.3993   20.3920 N   0  0  0  0  0  0
  -29.1630  -20.9995   19.9936 N   0  0  0  0  0  0
  -29.9145  -15.9376   20.7669 N   0  0  0  0  0  0
  -29.4205  -25.2897   18.0741 Cl  0  0  0  0  0  0
  -31.4769  -12.6123   19.1412 H   0  0  0  0  0  0
  -30.4027  -11.4793   19.8892 H   0  0  0  0  0  0
  -29.7922  -11.8051   17.4719 H   0  0  0  0  0  0
  -29.6392  -13.5220   17.7247 H   0  0  0  0  0  0
  -27.8593  -11.3218   18.8207 H   0  0  0  0  0  0
  -27.3786  -12.6277   17.7729 H   0  0  0  0  0  0
  -27.6588  -14.2738   19.5419 H   0  0  0  0  0  0
  -28.7528  -12.0040   21.2526 H   0  0  0  0  0  0
  -28.4038  -13.5474   21.8825 H   0  0  0  0  0  0
  -25.2726   -9.5716   22.4739 H   0  0  0  0  0  0
  -24.0007   -7.4633   22.7443 H   0  0  0  0  0  0
  -21.0831   -8.8732   19.8947 H   0  0  0  0  0  0
  -22.3633  -10.9647   19.6153 H   0  0  0  0  0  0
  -21.2005   -7.6130   23.9717 H   0  0  0  0  0  0
  -21.1505   -6.0502   25.9080 H   0  0  0  0  0  0
  -22.0593   -2.7597   23.2841 H   0  0  0  0  0  0
  -22.4050  -11.9905   22.4884 H   0  0  0  0  0  0
  -21.1057  -13.1253   22.2603 H   0  0  0  0  0  0
  -24.6336  -15.8315   20.4874 H   0  0  0  0  0  0
  -26.2479  -15.6268   20.0397 H   0  0  0  0  0  0
  -26.7169  -32.5400   23.1047 H   0  0  0  0  0  0
  -25.0032  -33.9709   25.0359 H   0  0  0  0  0  0
  -22.7215  -31.3103   21.4079 H   0  0  0  0  0  0
  -23.3765  -35.9578   23.3306 H   0  0  0  0  0  0
  -24.3565  -36.8881   22.2053 H   0  0  0  0  0  0
  -23.7204  -37.6447   23.6675 H   0  0  0  0  0  0
  -26.1196  -31.5273   20.6203 H   0  0  0  0  0  0
  -26.8479  -30.8036   22.0230 H   0  0  0  0  0  0
  -28.1017  -28.8917   21.2192 H   0  0  0  0  0  0
  -25.8554  -25.9463   18.9470 H   0  0  0  0  0  0
  -23.9430  -27.3420   18.9958 H   0  0  0  0  0  0
  -23.7737  -30.6159   19.4112 H   0  0  0  0  0  0
  -22.7550  -29.2775   19.8469 H   0  0  0  0  0  0
  -25.1307  -36.1906   25.0812 H   0  0  0  0  0  0
  -20.9984  -28.3279   24.1391 H   0  0  0  0  0  0
  -20.5668  -26.2311   23.3607 H   0  0  0  0  0  0
  -21.6646  -26.7442   22.1197 H   0  0  0  0  0  0
  -19.6909  -25.6289   21.1249 H   0  0  0  0  0  0
  -19.6694  -27.3190   20.6736 H   0  0  0  0  0  0
  -17.4187  -26.6632   21.4055 H   0  0  0  0  0  0
  -18.0370  -26.0110   22.9065 H   0  0  0  0  0  0
  -19.7958  -30.7276   24.2235 H   0  0  0  0  0  0
  -17.5058  -31.6292   24.5169 H   0  0  0  0  0  0
  -15.5373  -30.3039   23.7679 H   0  0  0  0  0  0
  -15.8664  -28.0896   22.7029 H   0  0  0  0  0  0
  -24.5865  -30.7143   25.7756 H   0  0  0  0  0  0
  -24.8924  -32.2945   26.4875 H   0  0  0  0  0  0
  -25.8008  -30.8914   27.0216 H   0  0  0  0  0  0
  -26.2925  -29.6783   24.1212 H   0  0  0  0  0  0
  -27.3975  -29.7286   25.4736 H   0  0  0  0  0  0
  -27.8818  -30.4297   23.9501 H   0  0  0  0  0  0
  -27.2629  -33.3659   26.2071 H   0  0  0  0  0  0
  -28.3848  -32.6920   25.0338 H   0  0  0  0  0  0
  -28.0703  -31.8494   26.5415 H   0  0  0  0  0  0
  -28.2583  -38.0098   24.7543 H   0  0  0  0  0  0
  -28.1070  -36.2623   24.6265 H   0  0  0  0  0  0
  -27.2287  -37.1408   25.8866 H   0  0  0  0  0  0
  -20.9350  -29.8830   21.6911 H   0  0  0  0  0  0
  -26.0143  -38.2834   24.1490 H   0  0  0  0  0  0
  -27.4648  -18.4464   20.8148 H   0  0  0  0  0  0
  -31.1329  -20.2397   19.5637 H   0  0  0  0  0  0
  -28.7151  -15.0339   25.2125 H   0  0  0  0  0  0
  -27.7026  -14.4368   23.9047 H   0  0  0  0  0  0
  -27.6771  -16.1481   24.3180 H   0  0  0  0  0  0
  -31.3746  -17.4447   20.7556 H   0  0  0  0  0  0
  -30.7112  -17.1115   19.2141 H   0  0  0  0  0  0
  -30.0332  -14.5933   23.1381 H   0  0  0  0  0  0
  -30.1719  -16.2460   23.6522 H   0  0  0  0  0  0
  -29.7005  -23.9610   20.9437 H   0  0  0  0  0  0
  -28.0342  -23.4977   21.0403 H   0  0  0  0  0  0
  -30.1063  -22.5926   18.9533 H   0  0  0  0  0  0
  -28.4281  -22.4168   18.6282 H   0  0  0  0  0  0
  -28.6899  -17.0802   22.0679 H   0  0  0  0  0  0
  -28.0078  -15.5929   21.5842 H   0  0  0  0  0  0
  -27.4342  -24.8020   19.1148 H   0  0  0  0  0  0
  1 25  1  0  0  0
  1 30  2  0  0  0
  1 83  1  0  0  0
  2  3  1  0  0  0
  2 25  1  0  0  0
  2 85  1  0  0  0
  2 86  1  0  0  0
  3  4  1  0  0  0
  3 87  1  0  0  0
  3 88  1  0  0  0
  4  5  1  0  0  0
  4 89  1  0  0  0
  4 90  1  0  0  0
  5  6  1  0  0  0
  5 26  1  0  0  0
  5 91  1  0  0  0
  6 25  1  0  0  0
  6 92  1  0  0  0
  6 93  1  0  0  0
  7  8  2  0  0  0
  7 26  1  0  0  0
  7 29  1  0  0  0
  8  9  1  0  0  0
  8 22  1  0  0  0
  9 10  1  0  0  0
  9 27  2  0  0  0
 10 11  2  0  0  0
 10 15  1  0  0  0
 11 12  1  0  0  0
 11 94  1  0  0  0
 12 13  2  0  0  0
 12 95  1  0  0  0
 13 14  1  0  0  0
 13 31  1  0  0  0
 14 15  2  0  0  0
 14 96  1  0  0  0
 15 97  1  0  0  0
 16 17  2  0  0  0
 16 21  1  0  0  0
 16 31  1  0  0  0
 17 18  1  0  0  0
 17 98  1  0  0  0
 18 19  2  0  0  0
 18 99  1  0  0  0
 19 20  1  0  0  0
 19 24  1  0  0  0
 20 21  2  0  0  0
 20100  1  0  0  0
 21 23  1  0  0  0
 22 28  1  0  0  0
 22 32  2  0  0  0
 26 27  1  0  0  0
 28101  1  0  0  0
 28102  1  0  0  0
 29103  1  0  0  0
 29104  1  0  0  0
 33 34  1  0  0  0
 33 66  1  0  0  0
 33 70  2  0  0  0
 34 36  1  0  0  0
 34 59  1  0  0  0
 34105  1  0  0  0
 35 44  2  0  0  0
 35 45  1  0  0  0
 35 68  1  0  0  0
 36 56  1  0  0  0
 36106  1  0  0  0
 37 39  1  0  0  0
 37 47  1  0  0  0
 37 66  1  0  0  0
 37107  1  0  0  0
 38 43  2  0  0  0
 38 46  1  0  0  0
 38 47  1  0  0  0
 39 64  1  0  0  0
 39 67  2  0  0  0
 40 52  1  0  0  0
 40 53  2  0  0  0
 40 58  1  0  0  0
 41108  1  0  0  0
 41109  1  0  0  0
 41110  1  0  0  0
 41 48  1  0  0  0
 42 43  1  0  0  0
 42 66  1  0  0  0
 42111  1  0  0  0
 42112  1  0  0  0
 43 44  1  0  0  0
 44113  1  0  0  0
 45 46  2  0  0  0
 45114  1  0  0  0
 46115  1  0  0  0
 47116  1  0  0  0
 47117  1  0  0  0
 48 56  1  0  0  0
 48 65  1  0  0  0
 48118  1  0  0  0
 49 50  1  0  0  0
 49 53  1  0  0  0
 49 64  1  0  0  0
 49119  1  0  0  0
 50 51  1  0  0  0
 50120  1  0  0  0
 50121  1  0  0  0
 51 52  1  0  0  0
 51122  1  0  0  0
 51123  1  0  0  0
 52124  1  0  0  0
 52125  1  0  0  0
 53 54  1  0  0  0
 54 55  2  0  0  0
 54126  1  0  0  0
 55 57  1  0  0  0
 55127  1  0  0  0
 56 69  2  0  0  0
 57 58  2  0  0  0
 57128  1  0  0  0
 58129  1  0  0  0
 59 60  1  0  0  0
 59 61  1  0  0  0
 59 62  1  0  0  0
 60130  1  0  0  0
 60131  1  0  0  0
 60132  1  0  0  0
 61133  1  0  0  0
 61134  1  0  0  0
 61135  1  0  0  0
 62136  1  0  0  0
 62137  1  0  0  0
 62138  1  0  0  0
 63 65  1  0  0  0
 63139  1  0  0  0
 63140  1  0  0  0
 63141  1  0  0  0
 64142  1  0  0  0
 65143  1  0  0  0
 68 80  1  0  0  0
 71 73  1  0  0  0
 71 81  2  0  0  0
 71144  1  0  0  0
 72 73  2  0  0  0
 72 82  1  0  0  0
 72145  1  0  0  0
 73 75  1  0  0  0
 74 76  1  0  0  0
 74146  1  0  0  0
 74147  1  0  0  0
 74148  1  0  0  0
 75 83  1  0  0  0
 75149  1  0  0  0
 75150  1  0  0  0
 76 79  1  0  0  0
 76151  1  0  0  0
 76152  1  0  0  0
 77 78  1  0  0  0
 77 80  1  0  0  0
 77153  1  0  0  0
 77154  1  0  0  0
 78 82  1  0  0  0
 78155  1  0  0  0
 78156  1  0  0  0
 79 83  1  0  0  0
 79157  1  0  0  0
 79158  1  0  0  0
 80 84  1  0  0  0
 80159  1  0  0  0
 81 82  1  0  0  0
M  ISO  4   1 100  68 101  80 101  83 100
M  END
> <chiral flag>
0

> <version>
0

> <s_m_source_file>
/data/baiqing/PycharmProjects/Reinvent-master-3.2/result/LINK_invent/BTK/process_docking_weight1_custom_sum_contain_oxygen_bond_distance_aromatic_linkinvent_7_9_3/rearranged_h_0054.sdf

> <i_m_source_file_index>
6

> <r_mmod_Potential_Energy-OPLS-2005>
313.768585205078

> <r_mmod_Stretch_Energy-OPLS-2005>
133.341552734375

> <r_mmod_Bend_Energy-OPLS-2005>
211.097061157227

> <r_mmod_Torsional_Energy-OPLS-2005>
250.937164306641

> <r_mmod_Improper_Torsional_Energy-OPLS-2005>
9.81334686279297

> <r_mmod_Van_der_Waal_Energy-OPLS-2005>
134.321548461914

> <r_mmod_Electrostatic_Energy-OPLS-2005>
-302.973693847656

> <r_mmod_Solvation_Energy-OPLS-2005>
-204.190277099609

> <b_mmod_Minimization_Converged-OPLS-2005>
0

> <r_mmod_RMS_Derivative-OPLS-2005>
3.42685556411743

$$$$
6
                    3D
 Structure written by MMmdl.
174182  0  0  1  0            999 V2000
  -30.8089  -14.3162   20.7536 C   0  0  0  0  0  0
  -30.4166  -12.2862   19.4044 C   0  0  0  0  0  0
  -29.4953  -12.5330   18.1974 C   0  0  0  0  0  0
  -28.0194  -12.3728   18.6006 C   0  0  0  0  0  0
  -27.6644  -13.2043   19.8574 C   0  0  2  0  0  0
  -28.6861  -12.9724   20.9863 C   0  0  0  0  0  0
  -25.2597  -13.8157   20.5620 C   0  0  0  0  0  0
  -24.1847  -13.0448   20.9133 C   0  0  0  0  0  0
  -24.6391  -11.6914   20.8678 C   0  0  0  0  0  0
  -23.9052  -10.4308   21.0382 C   0  0  0  0  0  0
  -24.3607   -9.4218   21.9159 C   0  0  0  0  0  0
  -23.6286   -8.2243   22.0746 C   0  0  0  0  0  0
  -22.4264   -8.0278   21.3547 C   0  0  0  0  0  0
  -21.9893   -9.0245   20.4649 C   0  0  0  0  0  0
  -22.7221  -10.2129   20.3038 C   0  0  0  0  0  0
  -21.6850   -6.0730   22.5276 C   0  0  0  0  0  0
  -21.4026   -6.5637   23.8209 C   0  0  0  0  0  0
  -21.3657   -5.6786   24.9172 C   0  0  0  0  0  0
  -21.6029   -4.3044   24.7224 C   0  0  0  0  0  0
  -21.8816   -3.8143   23.4350 C   0  0  0  0  0  0
  -21.9200   -4.6958   22.3404 C   0  0  0  0  0  0
  -22.7865  -13.5247   21.1821 C   0  0  0  0  0  0
  -22.1669   -4.2151   21.0981 F   0  0  0  0  0  0
  -21.5620   -3.4530   25.7741 F   0  0  0  0  0  0
  -30.0557  -13.2151   20.4870 N   0  0  0  0  0  0
  -26.3021  -12.9327   20.3186 N   0  0  0  0  0  0
  -25.9306  -11.6491   20.5618 N   0  0  0  0  0  0
  -22.0503  -12.8267   22.0392 N   0  0  0  0  0  0
  -25.4337  -15.1886   20.4098 N   0  0  0  0  0  0
  -31.6960  -14.7157   19.9916 O   0  0  0  0  0  0
  -21.6637   -6.8875   21.4237 O   0  0  0  0  0  0
  -22.3550  -14.5545   20.6672 O   0  0  0  0  0  0
  -24.6113  -31.8707   23.2125 C   0  0  0  0  0  0
  -25.9020  -32.4840   23.8417 C   0  0  1  0  0  0
  -27.2483  -27.4745   20.0925 C   0  0  0  0  0  0
  -25.5878  -33.8630   24.2342 N   0  0  0  0  0  0
  -23.3990  -30.4948   21.5509 C   0  0  2  0  0  0
  -24.8502  -28.9665   20.1176 C   0  0  0  0  0  0
  -22.7402  -29.4672   22.4991 C   0  0  0  0  0  0
  -18.0264  -28.1396   22.8493 C   0  0  0  0  0  0
  -24.1479  -36.7324   23.2638 C   0  0  0  0  0  0
  -25.9230  -30.8516   21.3599 C   0  0  0  0  0  0
  -26.0065  -29.4860   20.7147 C   0  0  0  0  0  0
  -27.2097  -28.7485   20.7071 C   0  0  0  0  0  0
  -26.0784  -26.9662   19.4949 C   0  0  0  0  0  0
  -24.8792  -27.7015   19.5059 C   0  0  0  0  0  0
  -23.6082  -29.8264   20.1662 C   0  0  0  0  0  0
  -25.4097  -36.3113   24.0337 C   0  0  1  0  0  0
  -20.5851  -28.3666   23.1329 C   0  0  2  0  0  0
  -20.6750  -26.9405   22.5431 C   0  0  0  0  0  0
  -19.5734  -26.6395   21.5220 C   0  0  0  0  0  0
  -18.1907  -26.7940   22.1628 C   0  0  0  0  0  0
  -19.1511  -28.8846   23.2909 C   0  0  0  0  0  0
  -18.9447  -30.1451   23.8926 C   0  0  0  0  0  0
  -17.6448  -30.6596   24.0572 C   0  0  0  0  0  0
  -25.9022  -34.9479   23.5138 C   0  0  0  0  0  0
  -16.5339  -29.9106   23.6323 C   0  0  0  0  0  0
  -16.7252  -28.6522   23.0343 C   0  0  0  0  0  0
  -26.4468  -31.6603   25.0727 C   0  0  0  0  0  0
  -25.3728  -31.3719   26.1472 C   0  0  0  0  0  0
  -27.0301  -30.3047   24.6079 C   0  0  0  0  0  0
  -27.6057  -32.4313   25.7476 C   0  0  0  0  0  0
  -27.5577  -37.1806   24.8459 C   0  0  0  0  0  0
  -21.4126  -29.3040   22.3732 N   0  0  0  0  0  0
  -26.4288  -37.3794   23.9407 N   0  0  0  0  0  0
  -24.6621  -31.0851   22.1009 N   0  0  0  0  0  0
  -23.4183  -28.8198   23.3011 O   0  0  0  0  0  0
  -28.3635  -26.6758   20.0119 O   0  0  0  0  0  0
  -26.5592  -34.8928   22.4699 O   0  0  0  0  0  0
  -23.5312  -32.1435   23.7547 O   0  0  0  0  0  0
  -30.5605  -19.5314   22.2391 C   0  0  0  0  0  0
  -31.6781  -18.6644   22.0677 C   0  0  0  0  0  0
  -31.0789  -20.7990   22.1784 C   0  0  0  0  0  0
  -32.7348  -12.8524   22.9119 C   0  0  0  0  0  0
  -31.8971  -13.4226   25.2091 C   0  0  0  0  0  0
  -33.4837  -21.6514   21.8509 C   0  0  0  0  0  0
  -31.7627  -17.1576   22.1239 C   0  0  0  0  0  0
  -30.3960  -22.1247   22.3851 C   0  0  0  0  0  0
  -30.5273  -23.1513   21.2394 C   0  0  0  0  0  0
  -29.8074  -24.4823   21.5495 C   0  0  0  0  0  0
  -30.3800  -25.6954   20.7873 C   0  0  0  0  0  0
  -30.4144  -16.4293   21.9437 C   0  0  0  0  0  0
  -30.5875  -14.2869   23.2375 C   0  0  0  0  0  0
  -29.4757  -26.9390   20.8537 C   0  0  0  0  0  0
  -32.0019  -13.9133   23.7563 C   0  0  0  0  0  0
  -32.7939  -19.3493   21.8776 N   0  0  0  0  0  0
  -32.4411  -20.6498   21.9667 N   0  0  0  0  0  0
  -30.5492  -14.9588   21.9194 N   0  0  0  0  0  0
  -31.4624  -12.3836   19.1084 H   0  0  0  0  0  0
  -30.3124  -11.2615   19.7624 H   0  0  0  0  0  0
  -29.7438  -11.8418   17.3904 H   0  0  0  0  0  0
  -29.6668  -13.5356   17.8009 H   0  0  0  0  0  0
  -27.8330  -11.3159   18.7875 H   0  0  0  0  0  0
  -27.3724  -12.6545   17.7687 H   0  0  0  0  0  0
  -27.7193  -14.2550   19.5665 H   0  0  0  0  0  0
  -28.6197  -11.9538   21.3697 H   0  0  0  0  0  0
  -28.3987  -13.6274   21.8071 H   0  0  0  0  0  0
  -25.2769   -9.5697   22.4715 H   0  0  0  0  0  0
  -24.0009   -7.4637   22.7467 H   0  0  0  0  0  0
  -21.0812   -8.8747   19.8966 H   0  0  0  0  0  0
  -22.3667  -10.9645   19.6127 H   0  0  0  0  0  0
  -21.2026   -7.6151   23.9722 H   0  0  0  0  0  0
  -21.1475   -6.0514   25.9073 H   0  0  0  0  0  0
  -22.0606   -2.7609   23.2837 H   0  0  0  0  0  0
  -22.4120  -11.9956   22.4825 H   0  0  0  0  0  0
  -21.1102  -13.1285   22.2566 H   0  0  0  0  0  0
  -24.6720  -15.8483   20.5304 H   0  0  0  0  0  0
  -26.2953  -15.6283   20.1105 H   0  0  0  0  0  0
  -26.7107  -32.5586   23.1205 H   0  0  0  0  0  0
  -24.9982  -33.9797   25.0452 H   0  0  0  0  0  0
  -22.6856  -31.3098   21.4128 H   0  0  0  0  0  0
  -23.3732  -35.9670   23.3313 H   0  0  0  0  0  0
  -24.3579  -36.8926   22.2054 H   0  0  0  0  0  0
  -23.7255  -37.6537   23.6648 H   0  0  0  0  0  0
  -26.0234  -31.6157   20.5872 H   0  0  0  0  0  0
  -26.8157  -30.9149   21.9702 H   0  0  0  0  0  0
  -28.0961  -29.1726   21.1577 H   0  0  0  0  0  0
  -26.1012  -25.9955   19.0201 H   0  0  0  0  0  0
  -23.9921  -27.2946   19.0399 H   0  0  0  0  0  0
  -23.7123  -30.6003   19.4050 H   0  0  0  0  0  0
  -22.7363  -29.2395   19.8719 H   0  0  0  0  0  0
  -25.1274  -36.1978   25.0834 H   0  0  0  0  0  0
  -20.9950  -28.3242   24.1443 H   0  0  0  0  0  0
  -20.5633  -26.2282   23.3616 H   0  0  0  0  0  0
  -21.6623  -26.7437   22.1237 H   0  0  0  0  0  0
  -19.6886  -25.6306   21.1241 H   0  0  0  0  0  0
  -19.6679  -27.3212   20.6753 H   0  0  0  0  0  0
  -17.4176  -26.6683   21.4032 H   0  0  0  0  0  0
  -18.0309  -26.0091   22.9033 H   0  0  0  0  0  0
  -19.7918  -30.7253   24.2318 H   0  0  0  0  0  0
  -17.5007  -31.6282   24.5175 H   0  0  0  0  0  0
  -15.5341  -30.3023   23.7637 H   0  0  0  0  0  0
  -15.8651  -28.0861   22.7046 H   0  0  0  0  0  0
  -24.5884  -30.7092   25.7799 H   0  0  0  0  0  0
  -24.8938  -32.2886   26.4919 H   0  0  0  0  0  0
  -25.8061  -30.8872   27.0226 H   0  0  0  0  0  0
  -26.2846  -29.6808   24.1131 H   0  0  0  0  0  0
  -27.4085  -29.7282   25.4531 H   0  0  0  0  0  0
  -27.8669  -30.4383   23.9219 H   0  0  0  0  0  0
  -27.2689  -33.3597   26.2099 H   0  0  0  0  0  0
  -28.3833  -32.6893   25.0275 H   0  0  0  0  0  0
  -28.0760  -31.8405   26.5345 H   0  0  0  0  0  0
  -28.2599  -38.0097   24.7497 H   0  0  0  0  0  0
  -28.1065  -36.2628   24.6282 H   0  0  0  0  0  0
  -27.2300  -37.1462   25.8864 H   0  0  0  0  0  0
  -20.9270  -29.8783   21.6977 H   0  0  0  0  0  0
  -26.0176  -38.2869   24.1410 H   0  0  0  0  0  0
  -29.5302  -19.2593   22.4246 H   0  0  0  0  0  0
  -32.1353  -11.9497   22.7910 H   0  0  0  0  0  0
  -33.0024  -13.2146   21.9205 H   0  0  0  0  0  0
  -33.6715  -12.5581   23.3880 H   0  0  0  0  0  0
  -32.8775  -13.1815   25.6219 H   0  0  0  0  0  0
  -31.2753  -12.5287   25.2863 H   0  0  0  0  0  0
  -31.4569  -14.1854   25.8538 H   0  0  0  0  0  0
  -33.5511  -21.9899   20.8169 H   0  0  0  0  0  0
  -34.4478  -21.2375   22.1484 H   0  0  0  0  0  0
  -33.2665  -22.5034   22.4945 H   0  0  0  0  0  0
  -32.1899  -16.8791   23.0872 H   0  0  0  0  0  0
  -32.4694  -16.8083   21.3717 H   0  0  0  0  0  0
  -30.7844  -22.5670   23.3032 H   0  0  0  0  0  0
  -29.3361  -21.9446   22.5712 H   0  0  0  0  0  0
  -30.1243  -22.7286   20.3178 H   0  0  0  0  0  0
  -31.5792  -23.3548   21.0442 H   0  0  0  0  0  0
  -29.8690  -24.6969   22.6175 H   0  0  0  0  0  0
  -28.7447  -24.3693   21.3308 H   0  0  0  0  0  0
  -30.5551  -25.4386   19.7411 H   0  0  0  0  0  0
  -31.3571  -25.9402   21.2063 H   0  0  0  0  0  0
  -29.9497  -16.7627   21.0135 H   0  0  0  0  0  0
  -29.7188  -16.7254   22.7294 H   0  0  0  0  0  0
  -30.1009  -14.9315   23.9709 H   0  0  0  0  0  0
  -29.9848  -13.3800   23.2379 H   0  0  0  0  0  0
  -30.0109  -27.8172   20.4911 H   0  0  0  0  0  0
  -29.1676  -27.1313   21.8834 H   0  0  0  0  0  0
  -32.6246  -14.8076   23.7661 H   0  0  0  0  0  0
  1 25  1  0  0  0
  1 30  2  0  0  0
  1 88  1  0  0  0
  2  3  1  0  0  0
  2 25  1  0  0  0
  2 89  1  0  0  0
  2 90  1  0  0  0
  3  4  1  0  0  0
  3 91  1  0  0  0
  3 92  1  0  0  0
  4  5  1  0  0  0
  4 93  1  0  0  0
  4 94  1  0  0  0
  5  6  1  0  0  0
  5 26  1  0  0  0
  5 95  1  0  0  0
  6 25  1  0  0  0
  6 96  1  0  0  0
  6 97  1  0  0  0
  7  8  2  0  0  0
  7 26  1  0  0  0
  7 29  1  0  0  0
  8  9  1  0  0  0
  8 22  1  0  0  0
  9 10  1  0  0  0
  9 27  2  0  0  0
 10 11  2  0  0  0
 10 15  1  0  0  0
 11 12  1  0  0  0
 11 98  1  0  0  0
 12 13  2  0  0  0
 12 99  1  0  0  0
 13 14  1  0  0  0
 13 31  1  0  0  0
 14 15  2  0  0  0
 14100  1  0  0  0
 15101  1  0  0  0
 16 17  2  0  0  0
 16 21  1  0  0  0
 16 31  1  0  0  0
 17 18  1  0  0  0
 17102  1  0  0  0
 18 19  2  0  0  0
 18103  1  0  0  0
 19 20  1  0  0  0
 19 24  1  0  0  0
 20 21  2  0  0  0
 20104  1  0  0  0
 21 23  1  0  0  0
 22 28  1  0  0  0
 22 32  2  0  0  0
 26 27  1  0  0  0
 28105  1  0  0  0
 28106  1  0  0  0
 29107  1  0  0  0
 29108  1  0  0  0
 33 34  1  0  0  0
 33 66  1  0  0  0
 33 70  2  0  0  0
 34 36  1  0  0  0
 34 59  1  0  0  0
 34109  1  0  0  0
 35 44  2  0  0  0
 35 45  1  0  0  0
 35 68  1  0  0  0
 36 56  1  0  0  0
 36110  1  0  0  0
 37 39  1  0  0  0
 37 47  1  0  0  0
 37 66  1  0  0  0
 37111  1  0  0  0
 38 43  2  0  0  0
 38 46  1  0  0  0
 38 47  1  0  0  0
 39 64  1  0  0  0
 39 67  2  0  0  0
 40 52  1  0  0  0
 40 53  2  0  0  0
 40 58  1  0  0  0
 41112  1  0  0  0
 41113  1  0  0  0
 41114  1  0  0  0
 41 48  1  0  0  0
 42 43  1  0  0  0
 42 66  1  0  0  0
 42115  1  0  0  0
 42116  1  0  0  0
 43 44  1  0  0  0
 44117  1  0  0  0
 45 46  2  0  0  0
 45118  1  0  0  0
 46119  1  0  0  0
 47120  1  0  0  0
 47121  1  0  0  0
 48 56  1  0  0  0
 48 65  1  0  0  0
 48122  1  0  0  0
 49 50  1  0  0  0
 49 53  1  0  0  0
 49 64  1  0  0  0
 49123  1  0  0  0
 50 51  1  0  0  0
 50124  1  0  0  0
 50125  1  0  0  0
 51 52  1  0  0  0
 51126  1  0  0  0
 51127  1  0  0  0
 52128  1  0  0  0
 52129  1  0  0  0
 53 54  1  0  0  0
 54 55  2  0  0  0
 54130  1  0  0  0
 55 57  1  0  0  0
 55131  1  0  0  0
 56 69  2  0  0  0
 57 58  2  0  0  0
 57132  1  0  0  0
 58133  1  0  0  0
 59 60  1  0  0  0
 59 61  1  0  0  0
 59 62  1  0  0  0
 60134  1  0  0  0
 60135  1  0  0  0
 60136  1  0  0  0
 61137  1  0  0  0
 61138  1  0  0  0
 61139  1  0  0  0
 62140  1  0  0  0
 62141  1  0  0  0
 62142  1  0  0  0
 63 65  1  0  0  0
 63143  1  0  0  0
 63144  1  0  0  0
 63145  1  0  0  0
 64146  1  0  0  0
 65147  1  0  0  0
 68 84  1  0  0  0
 71 72  1  0  0  0
 71 73  2  0  0  0
 71148  1  0  0  0
 72 77  1  0  0  0
 72 86  2  0  0  0
 73 78  1  0  0  0
 73 87  1  0  0  0
 74149  1  0  0  0
 74150  1  0  0  0
 74151  1  0  0  0
 74 85  1  0  0  0
 75 85  1  0  0  0
 75152  1  0  0  0
 75153  1  0  0  0
 75154  1  0  0  0
 76 87  1  0  0  0
 76155  1  0  0  0
 76156  1  0  0  0
 76157  1  0  0  0
 77 82  1  0  0  0
 77158  1  0  0  0
 77159  1  0  0  0
 78 79  1  0  0  0
 78160  1  0  0  0
 78161  1  0  0  0
 79 80  1  0  0  0
 79162  1  0  0  0
 79163  1  0  0  0
 80 81  1  0  0  0
 80164  1  0  0  0
 80165  1  0  0  0
 81 84  1  0  0  0
 81166  1  0  0  0
 81167  1  0  0  0
 82 88  1  0  0  0
 82168  1  0  0  0
 82169  1  0  0  0
 83 85  1  0  0  0
 83 88  1  0  0  0
 83170  1  0  0  0
 83171  1  0  0  0
 84172  1  0  0  0
 84173  1  0  0  0
 85174  1  0  0  0
 86 87  1  0  0  0
M  ISO  4   1 100  68 101  84 101  88 100
M  END
> <chiral flag>
0

> <version>
0

> <s_m_source_file>
/data/baiqing/PycharmProjects/Reinvent-master-3.2/result/LINK_invent/BTK/process_docking_weight1_custom_sum_contain_oxygen_bond_distance_aromatic_linkinvent_7_9_3/rearranged_h_0054.sdf

> <i_m_source_file_index>
7

> <r_mmod_Potential_Energy-OPLS-2005>
56.8949661254883

> <r_mmod_Stretch_Energy-OPLS-2005>
35.0283737182617

> <r_mmod_Bend_Energy-OPLS-2005>
104.518798828125

> <r_mmod_Torsional_Energy-OPLS-2005>
293.306793212891

> <r_mmod_Improper_Torsional_Energy-OPLS-2005>
2.16588425636292

> <r_mmod_Van_der_Waal_Energy-OPLS-2005>
129.669830322266

> <r_mmod_Electrostatic_Energy-OPLS-2005>
-322.179779052734

> <r_mmod_Solvation_Energy-OPLS-2005>
-194.797180175781

> <b_mmod_Minimization_Converged-OPLS-2005>
0

> <r_mmod_RMS_Derivative-OPLS-2005>
2.37773609161377

$$$$
7
                    3D
 Structure written by MMmdl.
154162  0  0  1  0            999 V2000
  -30.3906  -15.3043   20.3821 C   0  0  0  0  0  0
  -30.4502  -12.8278   19.5505 C   0  0  0  0  0  0
  -29.5519  -12.5840   18.3082 C   0  0  0  0  0  0
  -28.1035  -12.2833   18.7326 C   0  0  0  0  0  0
  -27.6149  -13.2682   19.8214 C   0  0  2  0  0  0
  -28.6372  -13.4490   20.9619 C   0  0  0  0  0  0
  -25.2430  -13.8217   20.5726 C   0  0  0  0  0  0
  -24.1762  -13.0425   20.9232 C   0  0  0  0  0  0
  -24.6389  -11.6918   20.8726 C   0  0  0  0  0  0
  -23.9073  -10.4286   21.0380 C   0  0  0  0  0  0
  -24.3619   -9.4207   21.9166 C   0  0  0  0  0  0
  -23.6287   -8.2244   22.0749 C   0  0  0  0  0  0
  -22.4272   -8.0271   21.3539 C   0  0  0  0  0  0
  -21.9912   -9.0245   20.4641 C   0  0  0  0  0  0
  -22.7243  -10.2121   20.3038 C   0  0  0  0  0  0
  -21.6854   -6.0728   22.5277 C   0  0  0  0  0  0
  -21.4014   -6.5629   23.8209 C   0  0  0  0  0  0
  -21.3663   -5.6789   24.9172 C   0  0  0  0  0  0
  -21.6049   -4.3052   24.7227 C   0  0  0  0  0  0
  -21.8820   -3.8138   23.4346 C   0  0  0  0  0  0
  -21.9195   -4.6954   22.3398 C   0  0  0  0  0  0
  -22.7792  -13.5202   21.1878 C   0  0  0  0  0  0
  -22.1667   -4.2134   21.0975 F   0  0  0  0  0  0
  -21.5632   -3.4530   25.7738 F   0  0  0  0  0  0
  -29.8788  -13.9678   20.3621 N   0  0  0  0  0  0
  -26.2828  -12.9469   20.3159 N   0  0  0  0  0  0
  -25.9321  -11.6586   20.5672 N   0  0  0  0  0  0
  -22.0430  -12.8189   22.0431 N   0  0  0  0  0  0
  -25.4119  -15.1942   20.4186 N   0  0  0  0  0  0
  -31.5996  -15.3169   20.0997 O   0  0  0  0  0  0
  -21.6648   -6.8864   21.4236 O   0  0  0  0  0  0
  -22.3483  -14.5508   20.6716 O   0  0  0  0  0  0
  -24.6653  -31.8204   23.1690 C   0  0  0  0  0  0
  -25.9328  -32.4570   23.8163 C   0  0  1  0  0  0
  -27.2200  -26.9008   20.1757 C   0  0  0  0  0  0
  -25.5987  -33.8387   24.2058 N   0  0  0  0  0  0
  -23.4826  -30.4304   21.5182 C   0  0  2  0  0  0
  -24.9378  -28.8160   20.1069 C   0  0  0  0  0  0
  -22.7671  -29.4424   22.4763 C   0  0  0  0  0  0
  -18.0321  -28.1398   22.8459 C   0  0  0  0  0  0
  -24.1495  -36.7212   23.2647 C   0  0  0  0  0  0
  -26.0524  -30.6135   21.4084 C   0  0  0  0  0  0
  -26.1201  -29.2019   20.7505 C   0  0  0  0  0  0
  -27.2529  -28.2633   20.7652 C   0  0  0  0  0  0
  -26.0141  -26.6828   19.4705 C   0  0  0  0  0  0
  -24.9114  -27.5770   19.4472 C   0  0  0  0  0  0
  -23.7234  -29.7457   20.1450 C   0  0  0  0  0  0
  -25.4133  -36.2958   24.0289 C   0  0  1  0  0  0
  -20.5937  -28.3757   23.1163 C   0  0  2  0  0  0
  -20.6797  -26.9438   22.5380 C   0  0  0  0  0  0
  -19.5779  -26.6373   21.5190 C   0  0  0  0  0  0
  -18.1963  -26.7937   22.1597 C   0  0  0  0  0  0
  -19.1578  -28.8899   23.2799 C   0  0  0  0  0  0
  -18.9496  -30.1483   23.8836 C   0  0  0  0  0  0
  -17.6496  -30.6597   24.0546 C   0  0  0  0  0  0
  -25.9105  -34.9344   23.5005 C   0  0  0  0  0  0
  -16.5383  -29.9077   23.6346 C   0  0  0  0  0  0
  -16.7307  -28.6492   23.0371 C   0  0  0  0  0  0
  -26.4571  -31.6536   25.0710 C   0  0  0  0  0  0
  -25.3680  -31.3761   26.1353 C   0  0  0  0  0  0
  -27.0497  -30.2905   24.6483 C   0  0  0  0  0  0
  -27.6050  -32.4378   25.7499 C   0  0  0  0  0  0
  -27.5574  -37.1735   24.8454 C   0  0  0  0  0  0
  -21.4331  -29.3054   22.3512 N   0  0  0  0  0  0
  -26.4274  -37.3696   23.9419 N   0  0  0  0  0  0
  -24.7543  -30.9823   22.0851 N   0  0  0  0  0  0
  -23.4197  -28.8002   23.3029 O   0  0  0  0  0  0
  -28.1957  -25.7630   20.2821 O   0  0  0  0  0  0
  -26.5722  -34.8885   22.4611 O   0  0  0  0  0  0
  -23.5710  -32.1200   23.6752 O   0  0  0  0  0  0
  -28.7143  -21.2865   19.6216 C   0  0  0  0  0  0
  -28.6183  -22.5792   20.3016 C   0  0  0  0  0  0
  -29.1704  -22.0252   21.5226 C   0  0  0  0  0  0
  -29.3689  -22.8004   22.7919 C   0  0  0  0  0  0
  -27.9093  -24.1731   19.9111 C   0  0  0  0  0  0
  -29.7295  -18.5046   19.9348 C   0  0  0  0  0  0
  -29.3667  -17.0681   22.1742 C   0  0  0  0  0  0
  -29.5612  -16.8548   20.6558 C   0  0  2  0  0  0
  -29.5179  -20.6821   21.5332 N   0  0  0  0  0  0
  -29.2306  -20.0737   20.3378 N   0  0  0  0  0  0
  -30.4173  -17.9060   22.7848 N   0  3  0  0  0  0
  -31.4680  -13.0416   19.2216 H   0  0  0  0  0  0
  -30.5274  -11.9240   20.1576 H   0  0  0  0  0  0
  -29.9486  -11.7622   17.7105 H   0  0  0  0  0  0
  -29.5698  -13.4680   17.6687 H   0  0  0  0  0  0
  -28.0839  -11.2664   19.1296 H   0  0  0  0  0  0
  -27.4377  -12.2899   17.8693 H   0  0  0  0  0  0
  -27.5330  -14.2302   19.3150 H   0  0  0  0  0  0
  -28.8041  -12.5132   21.4979 H   0  0  0  0  0  0
  -28.2554  -14.1574   21.6975 H   0  0  0  0  0  0
  -25.2756   -9.5689   22.4756 H   0  0  0  0  0  0
  -23.9999   -7.4637   22.7474 H   0  0  0  0  0  0
  -21.0852   -8.8751   19.8948 H   0  0  0  0  0  0
  -22.3688  -10.9648   19.6157 H   0  0  0  0  0  0
  -21.2005   -7.6134   23.9704 H   0  0  0  0  0  0
  -21.1489   -6.0515   25.9074 H   0  0  0  0  0  0
  -22.0597   -2.7593   23.2850 H   0  0  0  0  0  0
  -22.4073  -11.9874   22.4843 H   0  0  0  0  0  0
  -21.1035  -13.1197   22.2594 H   0  0  0  0  0  0
  -24.6410  -15.8441   20.5269 H   0  0  0  0  0  0
  -26.2489  -15.6299   20.0537 H   0  0  0  0  0  0
  -26.7396  -32.5084   23.0857 H   0  0  0  0  0  0
  -25.0079  -33.9461   25.0174 H   0  0  0  0  0  0
  -22.7973  -31.2619   21.3457 H   0  0  0  0  0  0
  -23.3775  -35.9520   23.3245 H   0  0  0  0  0  0
  -24.3575  -36.8939   22.2076 H   0  0  0  0  0  0
  -23.7228  -37.6362   23.6762 H   0  0  0  0  0  0
  -26.2377  -31.3529   20.6283 H   0  0  0  0  0  0
  -26.9096  -30.6683   22.0671 H   0  0  0  0  0  0
  -28.1408  -28.5513   21.3091 H   0  0  0  0  0  0
  -25.8775  -25.7454   18.9534 H   0  0  0  0  0  0
  -24.0154  -27.2744   18.9202 H   0  0  0  0  0  0
  -23.8779  -30.5141   19.3872 H   0  0  0  0  0  0
  -22.8314  -29.1999   19.8312 H   0  0  0  0  0  0
  -25.1318  -36.1746   25.0768 H   0  0  0  0  0  0
  -21.0015  -28.3379   24.1290 H   0  0  0  0  0  0
  -20.5674  -26.2381   23.3621 H   0  0  0  0  0  0
  -21.6661  -26.7424   22.1185 H   0  0  0  0  0  0
  -19.6946  -25.6264   21.1273 H   0  0  0  0  0  0
  -19.6719  -27.3131   20.6680 H   0  0  0  0  0  0
  -17.4221  -26.6677   21.4007 H   0  0  0  0  0  0
  -18.0360  -26.0078   22.8992 H   0  0  0  0  0  0
  -19.7979  -30.7302   24.2180 H   0  0  0  0  0  0
  -17.5061  -31.6275   24.5161 H   0  0  0  0  0  0
  -15.5380  -30.2969   23.7719 H   0  0  0  0  0  0
  -15.8702  -28.0802   22.7127 H   0  0  0  0  0  0
  -24.5876  -30.7117   25.7621 H   0  0  0  0  0  0
  -24.8857  -32.2952   26.4684 H   0  0  0  0  0  0
  -25.7902  -30.8961   27.0197 H   0  0  0  0  0  0
  -26.3180  -29.6538   24.1504 H   0  0  0  0  0  0
  -27.4021  -29.7317   25.5162 H   0  0  0  0  0  0
  -27.9119  -30.4070   23.9920 H   0  0  0  0  0  0
  -27.2613  -33.3738   26.1912 H   0  0  0  0  0  0
  -28.3924  -32.6858   25.0370 H   0  0  0  0  0  0
  -28.0661  -31.8636   26.5539 H   0  0  0  0  0  0
  -28.2516  -38.0106   24.7579 H   0  0  0  0  0  0
  -28.1153  -36.2636   24.6193 H   0  0  0  0  0  0
  -27.2307  -37.1248   25.8857 H   0  0  0  0  0  0
  -20.9587  -29.8763   21.6654 H   0  0  0  0  0  0
  -26.0127  -38.2738   24.1488 H   0  0  0  0  0  0
  -28.4221  -21.1172   18.5946 H   0  0  0  0  0  0
  -29.6601  -23.8302   22.5832 H   0  0  0  0  0  0
  -30.1463  -22.3630   23.4174 H   0  0  0  0  0  0
  -28.4490  -22.8328   23.3753 H   0  0  0  0  0  0
  -26.8620  -24.0728   20.1952 H   0  0  0  0  0  0
  -27.8616  -24.2089   18.8222 H   0  0  0  0  0  0
  -29.3820  -18.3777   18.9090 H   0  0  0  0  0  0
  -30.8065  -18.6094   19.8031 H   0  0  0  0  0  0
  -29.3199  -16.1146   22.7001 H   0  0  0  0  0  0
  -28.4063  -17.5529   22.3535 H   0  0  0  0  0  0
  -28.5689  -16.5670   20.3084 H   0  0  0  0  0  0
  -31.3314  -17.5145   22.6438 H   0  0  0  0  0  0
  -30.2584  -17.9850   23.7743 H   0  0  0  0  0  0
  -30.3831  -18.8380   22.3952 H   0  0  0  0  0  0
  1 25  1  0  0  0
  1 30  2  0  0  0
  1 78  1  0  0  0
  2  3  1  0  0  0
  2 25  1  0  0  0
  2 82  1  0  0  0
  2 83  1  0  0  0
  3  4  1  0  0  0
  3 84  1  0  0  0
  3 85  1  0  0  0
  4  5  1  0  0  0
  4 86  1  0  0  0
  4 87  1  0  0  0
  5  6  1  0  0  0
  5 26  1  0  0  0
  5 88  1  0  0  0
  6 25  1  0  0  0
  6 89  1  0  0  0
  6 90  1  0  0  0
  7  8  2  0  0  0
  7 26  1  0  0  0
  7 29  1  0  0  0
  8  9  1  0  0  0
  8 22  1  0  0  0
  9 10  1  0  0  0
  9 27  2  0  0  0
 10 11  2  0  0  0
 10 15  1  0  0  0
 11 12  1  0  0  0
 11 91  1  0  0  0
 12 13  2  0  0  0
 12 92  1  0  0  0
 13 14  1  0  0  0
 13 31  1  0  0  0
 14 15  2  0  0  0
 14 93  1  0  0  0
 15 94  1  0  0  0
 16 17  2  0  0  0
 16 21  1  0  0  0
 16 31  1  0  0  0
 17 18  1  0  0  0
 17 95  1  0  0  0
 18 19  2  0  0  0
 18 96  1  0  0  0
 19 20  1  0  0  0
 19 24  1  0  0  0
 20 21  2  0  0  0
 20 97  1  0  0  0
 21 23  1  0  0  0
 22 28  1  0  0  0
 22 32  2  0  0  0
 26 27  1  0  0  0
 28 98  1  0  0  0
 28 99  1  0  0  0
 29100  1  0  0  0
 29101  1  0  0  0
 33 34  1  0  0  0
 33 66  1  0  0  0
 33 70  2  0  0  0
 34 36  1  0  0  0
 34 59  1  0  0  0
 34102  1  0  0  0
 35 44  2  0  0  0
 35 45  1  0  0  0
 35 68  1  0  0  0
 36 56  1  0  0  0
 36103  1  0  0  0
 37 39  1  0  0  0
 37 47  1  0  0  0
 37 66  1  0  0  0
 37104  1  0  0  0
 38 43  2  0  0  0
 38 46  1  0  0  0
 38 47  1  0  0  0
 39 64  1  0  0  0
 39 67  2  0  0  0
 40 52  1  0  0  0
 40 53  2  0  0  0
 40 58  1  0  0  0
 41105  1  0  0  0
 41106  1  0  0  0
 41107  1  0  0  0
 41 48  1  0  0  0
 42 43  1  0  0  0
 42 66  1  0  0  0
 42108  1  0  0  0
 42109  1  0  0  0
 43 44  1  0  0  0
 44110  1  0  0  0
 45 46  2  0  0  0
 45111  1  0  0  0
 46112  1  0  0  0
 47113  1  0  0  0
 47114  1  0  0  0
 48 56  1  0  0  0
 48 65  1  0  0  0
 48115  1  0  0  0
 49 50  1  0  0  0
 49 53  1  0  0  0
 49 64  1  0  0  0
 49116  1  0  0  0
 50 51  1  0  0  0
 50117  1  0  0  0
 50118  1  0  0  0
 51 52  1  0  0  0
 51119  1  0  0  0
 51120  1  0  0  0
 52121  1  0  0  0
 52122  1  0  0  0
 53 54  1  0  0  0
 54 55  2  0  0  0
 54123  1  0  0  0
 55 57  1  0  0  0
 55124  1  0  0  0
 56 69  2  0  0  0
 57 58  2  0  0  0
 57125  1  0  0  0
 58126  1  0  0  0
 59 60  1  0  0  0
 59 61  1  0  0  0
 59 62  1  0  0  0
 60127  1  0  0  0
 60128  1  0  0  0
 60129  1  0  0  0
 61130  1  0  0  0
 61131  1  0  0  0
 61132  1  0  0  0
 62133  1  0  0  0
 62134  1  0  0  0
 62135  1  0  0  0
 63 65  1  0  0  0
 63136  1  0  0  0
 63137  1  0  0  0
 63138  1  0  0  0
 64139  1  0  0  0
 65140  1  0  0  0
 68 75  1  0  0  0
 71 72  2  0  0  0
 71 80  1  0  0  0
 71141  1  0  0  0
 72 73  1  0  0  0
 72 75  1  0  0  0
 73 74  1  0  0  0
 73 79  2  0  0  0
 74142  1  0  0  0
 74143  1  0  0  0
 74144  1  0  0  0
 75145  1  0  0  0
 75146  1  0  0  0
 76 80  1  0  0  0
 76147  1  0  0  0
 76148  1  0  0  0
 76 78  1  0  0  0
 77 78  1  0  0  0
 77 81  1  0  0  0
 77149  1  0  0  0
 77150  1  0  0  0
 78151  1  0  0  0
 79 80  1  0  0  0
 81152  1  0  0  0
 81153  1  0  0  0
 81154  1  0  0  0
M  CHG  1  81   1
M  ISO  4   1 100  68 101  75 101  78 100
M  END
> <chiral flag>
0

> <version>
0

> <s_m_source_file>
/data/baiqing/PycharmProjects/Reinvent-master-3.2/result/LINK_invent/BTK/process_docking_weight1_custom_sum_contain_oxygen_bond_distance_aromatic_linkinvent_7_9_3/rearranged_h_0054.sdf

> <i_m_source_file_index>
8

> <r_mmod_Potential_Energy-OPLS-2005>
1046.55676269531

> <r_mmod_Stretch_Energy-OPLS-2005>
620.529235839844

> <r_mmod_Bend_Energy-OPLS-2005>
455.097991943359

> <r_mmod_Torsional_Energy-OPLS-2005>
203.403854370117

> <r_mmod_Improper_Torsional_Energy-OPLS-2005>
4.43697738647461

> <r_mmod_Van_der_Waal_Energy-OPLS-2005>
101.771263122559

> <r_mmod_Electrostatic_Energy-OPLS-2005>
-377.469146728516

> <r_mmod_Solvation_Energy-OPLS-2005>
-465.131500244141

> <b_mmod_Minimization_Converged-OPLS-2005>
0

> <r_mmod_RMS_Derivative-OPLS-2005>
2.15574049949646

$$$$
8
                    3D
 Structure written by MMmdl.
162170  0  0  1  0            999 V2000
  -30.6762  -14.6090   20.3971 C   0  0  0  0  0  0
  -30.4190  -12.3403   19.4631 C   0  0  0  0  0  0
  -29.4932  -12.4072   18.2295 C   0  0  0  0  0  0
  -28.0166  -12.2935   18.6557 C   0  0  0  0  0  0
  -27.6452  -13.2104   19.8526 C   0  0  2  0  0  0
  -28.6998  -13.1483   20.9788 C   0  0  0  0  0  0
  -25.2557  -13.8180   20.5688 C   0  0  0  0  0  0
  -24.1821  -13.0454   20.9197 C   0  0  0  0  0  0
  -24.6393  -11.6929   20.8806 C   0  0  0  0  0  0
  -23.9065  -10.4307   21.0426 C   0  0  0  0  0  0
  -24.3633   -9.4217   21.9193 C   0  0  0  0  0  0
  -23.6304   -8.2249   22.0763 C   0  0  0  0  0  0
  -22.4288   -8.0289   21.3546 C   0  0  0  0  0  0
  -21.9914   -9.0267   20.4656 C   0  0  0  0  0  0
  -22.7241  -10.2149   20.3065 C   0  0  0  0  0  0
  -21.6851   -6.0747   22.5280 C   0  0  0  0  0  0
  -21.4013   -6.5651   23.8215 C   0  0  0  0  0  0
  -21.3653   -5.6802   24.9179 C   0  0  0  0  0  0
  -21.6035   -4.3063   24.7226 C   0  0  0  0  0  0
  -21.8820   -3.8163   23.4349 C   0  0  0  0  0  0
  -21.9194   -4.6974   22.3408 C   0  0  0  0  0  0
  -22.7848  -13.5239   21.1855 C   0  0  0  0  0  0
  -22.1658   -4.2159   21.0982 F   0  0  0  0  0  0
  -21.5622   -3.4548   25.7741 F   0  0  0  0  0  0
  -30.0064  -13.4200   20.3716 N   0  0  0  0  0  0
  -26.2978  -12.9343   20.3394 N   0  0  0  0  0  0
  -25.9333  -11.6514   20.5909 N   0  0  0  0  0  0
  -22.0516  -12.8208   22.0414 N   0  0  0  0  0  0
  -25.4294  -15.1877   20.4023 N   0  0  0  0  0  0
  -31.9003  -14.6587   20.2492 O   0  0  0  0  0  0
  -21.6644   -6.8894   21.4241 O   0  0  0  0  0  0
  -22.3524  -14.5557   20.6729 O   0  0  0  0  0  0
  -24.6188  -31.8651   23.2078 C   0  0  0  0  0  0
  -25.9043  -32.4846   23.8381 C   0  0  1  0  0  0
  -27.2081  -27.3625   20.1099 C   0  0  0  0  0  0
  -25.5866  -33.8631   24.2296 N   0  0  0  0  0  0
  -23.4077  -30.4904   21.5544 C   0  0  2  0  0  0
  -24.8519  -28.9641   20.1143 C   0  0  0  0  0  0
  -22.7424  -29.4620   22.4992 C   0  0  0  0  0  0
  -18.0260  -28.1369   22.8494 C   0  0  0  0  0  0
  -24.1498  -36.7308   23.2627 C   0  0  0  0  0  0
  -25.9477  -30.8188   21.3683 C   0  0  0  0  0  0
  -26.0225  -29.4499   20.7089 C   0  0  0  0  0  0
  -27.2082  -28.6598   20.6970 C   0  0  0  0  0  0
  -26.0082  -26.9225   19.5006 C   0  0  0  0  0  0
  -24.8439  -27.7043   19.5066 C   0  0  0  0  0  0
  -23.6176  -29.8362   20.1668 C   0  0  0  0  0  0
  -25.4125  -36.3127   24.0340 C   0  0  1  0  0  0
  -20.5862  -28.3638   23.1400 C   0  0  2  0  0  0
  -20.6765  -26.9347   22.5550 C   0  0  0  0  0  0
  -19.5780  -26.6340   21.5292 C   0  0  0  0  0  0
  -18.1911  -26.7921   22.1600 C   0  0  0  0  0  0
  -19.1508  -28.8822   23.2952 C   0  0  0  0  0  0
  -18.9412  -30.1438   23.8944 C   0  0  0  0  0  0
  -17.6393  -30.6575   24.0529 C   0  0  0  0  0  0
  -25.9044  -34.9495   23.5119 C   0  0  0  0  0  0
  -16.5288  -29.9047   23.6335 C   0  0  0  0  0  0
  -16.7241  -28.6499   23.0320 C   0  0  0  0  0  0
  -26.4442  -31.6631   25.0726 C   0  0  0  0  0  0
  -25.3680  -31.3709   26.1442 C   0  0  0  0  0  0
  -27.0234  -30.3067   24.6120 C   0  0  0  0  0  0
  -27.6050  -32.4308   25.7486 C   0  0  0  0  0  0
  -27.5586  -37.1819   24.8455 C   0  0  0  0  0  0
  -21.4129  -29.3002   22.3751 N   0  0  0  0  0  0
  -26.4305  -37.3827   23.9394 N   0  0  0  0  0  0
  -24.6771  -31.0722   22.1007 N   0  0  0  0  0  0
  -23.4186  -28.8120   23.2997 O   0  0  0  0  0  0
  -28.3313  -26.5344   20.1423 O   0  0  0  0  0  0
  -26.5622  -34.8952   22.4701 O   0  0  0  0  0  0
  -23.5368  -32.1368   23.7475 O   0  0  0  0  0  0
  -27.9163  -21.1173   21.8222 C   0  0  0  0  0  0
  -28.0178  -19.7593   21.6421 C   0  0  0  0  0  0
  -29.2602  -19.5777   20.9495 C   0  0  0  0  0  0
  -28.8123  -16.3490   17.7984 C   0  0  0  0  0  0
  -29.9523  -18.3205   20.3697 C   0  0  0  0  0  0
  -29.3113  -24.1339   20.2187 C   0  0  0  0  0  0
  -29.4489  -23.1447   21.4301 C   0  0  0  0  0  0
  -30.1391  -16.0349   18.5214 C   0  0  0  0  0  0
  -29.5299  -16.8483   20.8181 C   0  0  0  0  0  0
  -28.0756  -25.0903   20.1679 C   0  0  0  0  0  0
  -27.0160  -18.7305   22.0984 C   0  0  0  0  0  0
  -29.8417  -20.7771   20.7388 N   0  0  0  0  0  0
  -29.0255  -21.7294   21.2810 N   0  0  0  0  0  0
  -29.9522  -15.6886   19.9511 N   0  0  0  0  0  0
  -26.0316  -19.3219   22.7759 F   0  0  0  0  0  0
  -26.4895  -18.1060   21.0477 F   0  0  0  0  0  0
  -27.5973  -17.8426   22.9015 F   0  0  0  0  0  0
  -31.4676  -12.4221   19.1700 H   0  0  0  0  0  0
  -30.3237  -11.3768   19.9650 H   0  0  0  0  0  0
  -29.7368  -11.5974   17.5418 H   0  0  0  0  0  0
  -29.6426  -13.3286   17.6714 H   0  0  0  0  0  0
  -27.8515  -11.2508   18.9292 H   0  0  0  0  0  0
  -27.3599  -12.4895   17.8072 H   0  0  0  0  0  0
  -27.6414  -14.2286   19.4705 H   0  0  0  0  0  0
  -28.7034  -12.1737   21.4693 H   0  0  0  0  0  0
  -28.4811  -13.8908   21.7489 H   0  0  0  0  0  0
  -25.2787   -9.5685   22.4752 H   0  0  0  0  0  0
  -24.0024   -7.4632   22.7480 H   0  0  0  0  0  0
  -21.0845   -8.8788   19.8955 H   0  0  0  0  0  0
  -22.3709  -10.9694   19.6172 H   0  0  0  0  0  0
  -21.2010   -7.6159   23.9711 H   0  0  0  0  0  0
  -21.1460   -6.0543   25.9077 H   0  0  0  0  0  0
  -22.0605   -2.7623   23.2849 H   0  0  0  0  0  0
  -22.4169  -11.9866   22.4757 H   0  0  0  0  0  0
  -21.1144  -13.1219   22.2691 H   0  0  0  0  0  0
  -24.6695  -15.8500   20.5115 H   0  0  0  0  0  0
  -26.2920  -15.6258   20.1083 H   0  0  0  0  0  0
  -26.7120  -32.5557   23.1147 H   0  0  0  0  0  0
  -24.9970  -33.9805   25.0402 H   0  0  0  0  0  0
  -22.6963  -31.3088   21.4215 H   0  0  0  0  0  0
  -23.3799  -35.9601   23.3316 H   0  0  0  0  0  0
  -24.3581  -36.8904   22.2034 H   0  0  0  0  0  0
  -23.7226  -37.6515   23.6629 H   0  0  0  0  0  0
  -26.0627  -31.5875   20.6034 H   0  0  0  0  0  0
  -26.8343  -30.8726   21.9884 H   0  0  0  0  0  0
  -28.1094  -29.0296   21.1662 H   0  0  0  0  0  0
  -25.9204  -25.9684   19.0091 H   0  0  0  0  0  0
  -23.9425  -27.3258   19.0447 H   0  0  0  0  0  0
  -23.7252  -30.6144   19.4104 H   0  0  0  0  0  0
  -22.7410  -29.2592   19.8693 H   0  0  0  0  0  0
  -25.1334  -36.1986   25.0843 H   0  0  0  0  0  0
  -20.9941  -28.3225   24.1524 H   0  0  0  0  0  0
  -20.5634  -26.2249   23.3757 H   0  0  0  0  0  0
  -21.6663  -26.7366   22.1399 H   0  0  0  0  0  0
  -19.6968  -25.6231   21.1363 H   0  0  0  0  0  0
  -19.6856  -27.3154   20.6828 H   0  0  0  0  0  0
  -17.4199  -26.6738   21.3948 H   0  0  0  0  0  0
  -18.0206  -26.0048   22.8964 H   0  0  0  0  0  0
  -19.7816  -30.7303   24.2381 H   0  0  0  0  0  0
  -17.4941  -31.6304   24.5026 H   0  0  0  0  0  0
  -15.5298  -30.2939   23.7708 H   0  0  0  0  0  0
  -15.8658  -28.0820   22.6984 H   0  0  0  0  0  0
  -24.5925  -30.7001   25.7729 H   0  0  0  0  0  0
  -24.8761  -32.2822   26.4845 H   0  0  0  0  0  0
  -25.7988  -30.8900   27.0216 H   0  0  0  0  0  0
  -26.2752  -29.6903   24.1121 H   0  0  0  0  0  0
  -27.3899  -29.7288   25.4607 H   0  0  0  0  0  0
  -27.8656  -30.4394   23.9329 H   0  0  0  0  0  0
  -27.2750  -33.3627   26.2087 H   0  0  0  0  0  0
  -28.3848  -32.6811   25.0280 H   0  0  0  0  0  0
  -28.0710  -31.8372   26.5359 H   0  0  0  0  0  0
  -28.2638  -38.0092   24.7539 H   0  0  0  0  0  0
  -28.1068  -36.2643   24.6280 H   0  0  0  0  0  0
  -27.2289  -37.1465   25.8851 H   0  0  0  0  0  0
  -20.9291  -29.8640   21.6915 H   0  0  0  0  0  0
  -26.0213  -38.2903   24.1421 H   0  0  0  0  0  0
  -27.1548  -21.6926   22.3315 H   0  0  0  0  0  0
  -28.2353  -17.1287   18.2969 H   0  0  0  0  0  0
  -28.1795  -15.4674   17.7112 H   0  0  0  0  0  0
  -29.0027  -16.6960   16.7831 H   0  0  0  0  0  0
  -31.0266  -18.4129   20.5392 H   0  0  0  0  0  0
  -29.8403  -18.4353   19.2964 H   0  0  0  0  0  0
  -29.3770  -23.5776   19.2841 H   0  0  0  0  0  0
  -30.1969  -24.7677   20.2193 H   0  0  0  0  0  0
  -28.9514  -23.5611   22.3068 H   0  0  0  0  0  0
  -30.5036  -23.1175   21.7069 H   0  0  0  0  0  0
  -30.8606  -16.8405   18.4043 H   0  0  0  0  0  0
  -30.6195  -15.2217   17.9756 H   0  0  0  0  0  0
  -28.4468  -16.7708   20.8284 H   0  0  0  0  0  0
  -29.8507  -16.6802   21.8471 H   0  0  0  0  0  0
  -27.5542  -24.7871   19.2604 H   0  0  0  0  0  0
  -27.3999  -24.8709   20.9959 H   0  0  0  0  0  0
  1 25  1  0  0  0
  1 30  2  0  0  0
  1 84  1  0  0  0
  2  3  1  0  0  0
  2 25  1  0  0  0
  2 88  1  0  0  0
  2 89  1  0  0  0
  3  4  1  0  0  0
  3 90  1  0  0  0
  3 91  1  0  0  0
  4  5  1  0  0  0
  4 92  1  0  0  0
  4 93  1  0  0  0
  5  6  1  0  0  0
  5 26  1  0  0  0
  5 94  1  0  0  0
  6 25  1  0  0  0
  6 95  1  0  0  0
  6 96  1  0  0  0
  7  8  2  0  0  0
  7 26  1  0  0  0
  7 29  1  0  0  0
  8  9  1  0  0  0
  8 22  1  0  0  0
  9 10  1  0  0  0
  9 27  2  0  0  0
 10 11  2  0  0  0
 10 15  1  0  0  0
 11 12  1  0  0  0
 11 97  1  0  0  0
 12 13  2  0  0  0
 12 98  1  0  0  0
 13 14  1  0  0  0
 13 31  1  0  0  0
 14 15  2  0  0  0
 14 99  1  0  0  0
 15100  1  0  0  0
 16 17  2  0  0  0
 16 21  1  0  0  0
 16 31  1  0  0  0
 17 18  1  0  0  0
 17101  1  0  0  0
 18 19  2  0  0  0
 18102  1  0  0  0
 19 20  1  0  0  0
 19 24  1  0  0  0
 20 21  2  0  0  0
 20103  1  0  0  0
 21 23  1  0  0  0
 22 28  1  0  0  0
 22 32  2  0  0  0
 26 27  1  0  0  0
 28104  1  0  0  0
 28105  1  0  0  0
 29106  1  0  0  0
 29107  1  0  0  0
 33 34  1  0  0  0
 33 66  1  0  0  0
 33 70  2  0  0  0
 34 36  1  0  0  0
 34 59  1  0  0  0
 34108  1  0  0  0
 35 44  2  0  0  0
 35 45  1  0  0  0
 35 68  1  0  0  0
 36 56  1  0  0  0
 36109  1  0  0  0
 37 39  1  0  0  0
 37 47  1  0  0  0
 37 66  1  0  0  0
 37110  1  0  0  0
 38 43  2  0  0  0
 38 46  1  0  0  0
 38 47  1  0  0  0
 39 64  1  0  0  0
 39 67  2  0  0  0
 40 52  1  0  0  0
 40 53  2  0  0  0
 40 58  1  0  0  0
 41111  1  0  0  0
 41112  1  0  0  0
 41113  1  0  0  0
 41 48  1  0  0  0
 42 43  1  0  0  0
 42 66  1  0  0  0
 42114  1  0  0  0
 42115  1  0  0  0
 43 44  1  0  0  0
 44116  1  0  0  0
 45 46  2  0  0  0
 45117  1  0  0  0
 46118  1  0  0  0
 47119  1  0  0  0
 47120  1  0  0  0
 48 56  1  0  0  0
 48 65  1  0  0  0
 48121  1  0  0  0
 49 50  1  0  0  0
 49 53  1  0  0  0
 49 64  1  0  0  0
 49122  1  0  0  0
 50 51  1  0  0  0
 50123  1  0  0  0
 50124  1  0  0  0
 51 52  1  0  0  0
 51125  1  0  0  0
 51126  1  0  0  0
 52127  1  0  0  0
 52128  1  0  0  0
 53 54  1  0  0  0
 54 55  2  0  0  0
 54129  1  0  0  0
 55 57  1  0  0  0
 55130  1  0  0  0
 56 69  2  0  0  0
 57 58  2  0  0  0
 57131  1  0  0  0
 58132  1  0  0  0
 59 60  1  0  0  0
 59 61  1  0  0  0
 59 62  1  0  0  0
 60133  1  0  0  0
 60134  1  0  0  0
 60135  1  0  0  0
 61136  1  0  0  0
 61137  1  0  0  0
 61138  1  0  0  0
 62139  1  0  0  0
 62140  1  0  0  0
 62141  1  0  0  0
 63 65  1  0  0  0
 63142  1  0  0  0
 63143  1  0  0  0
 63144  1  0  0  0
 64145  1  0  0  0
 65146  1  0  0  0
 68 80  1  0  0  0
 71 72  2  0  0  0
 71 83  1  0  0  0
 71147  1  0  0  0
 72 73  1  0  0  0
 72 81  1  0  0  0
 73 75  1  0  0  0
 73 82  2  0  0  0
 74 78  1  0  0  0
 74148  1  0  0  0
 74149  1  0  0  0
 74150  1  0  0  0
 75 79  1  0  0  0
 75151  1  0  0  0
 75152  1  0  0  0
 76 77  1  0  0  0
 76 80  1  0  0  0
 76153  1  0  0  0
 76154  1  0  0  0
 77 83  1  0  0  0
 77155  1  0  0  0
 77156  1  0  0  0
 78 84  1  0  0  0
 78157  1  0  0  0
 78158  1  0  0  0
 79 84  1  0  0  0
 79159  1  0  0  0
 79160  1  0  0  0
 80161  1  0  0  0
 80162  1  0  0  0
 81 85  1  0  0  0
 81 86  1  0  0  0
 81 87  1  0  0  0
 82 83  1  0  0  0
M  ISO  4   1 100  68 101  80 101  84 100
M  END
> <chiral flag>
0

> <version>
0

> <s_m_source_file>
/data/baiqing/PycharmProjects/Reinvent-master-3.2/result/LINK_invent/BTK/process_docking_weight1_custom_sum_contain_oxygen_bond_distance_aromatic_linkinvent_7_9_3/rearranged_h_0054.sdf

> <i_m_source_file_index>
9

> <r_mmod_Potential_Energy-OPLS-2005>
247.301513671875

> <r_mmod_Stretch_Energy-OPLS-2005>
63.9528579711914

> <r_mmod_Bend_Energy-OPLS-2005>
137.626205444336

> <r_mmod_Torsional_Energy-OPLS-2005>
354.529296875

> <r_mmod_Improper_Torsional_Energy-OPLS-2005>
24.9928302764893

> <r_mmod_Van_der_Waal_Energy-OPLS-2005>
129.126678466797

> <r_mmod_Electrostatic_Energy-OPLS-2005>
-315.858856201172

> <r_mmod_Solvation_Energy-OPLS-2005>
-197.806198120117

> <b_mmod_Minimization_Converged-OPLS-2005>
0

> <r_mmod_RMS_Derivative-OPLS-2005>
3.87017130851746

$$$$
9
                    3D
 Structure written by MMmdl.
153161  0  0  1  0            999 V2000
  -30.4207  -15.2200   20.3851 C   0  0  0  0  0  0
  -30.4477  -12.7656   19.5311 C   0  0  0  0  0  0
  -29.5424  -12.5840   18.2842 C   0  0  0  0  0  0
  -28.0785  -12.3282   18.6916 C   0  0  0  0  0  0
  -27.6205  -13.2718   19.8327 C   0  0  2  0  0  0
  -28.6581  -13.3653   20.9683 C   0  0  0  0  0  0
  -25.2383  -13.8245   20.5646 C   0  0  0  0  0  0
  -24.1746  -13.0443   20.9187 C   0  0  0  0  0  0
  -24.6403  -11.6937   20.8730 C   0  0  0  0  0  0
  -23.9092  -10.4297   21.0376 C   0  0  0  0  0  0
  -24.3631   -9.4218   21.9164 C   0  0  0  0  0  0
  -23.6287   -8.2270   22.0769 C   0  0  0  0  0  0
  -22.4276   -8.0299   21.3548 C   0  0  0  0  0  0
  -21.9903   -9.0271   20.4653 C   0  0  0  0  0  0
  -22.7252  -10.2137   20.3038 C   0  0  0  0  0  0
  -21.6865   -6.0727   22.5263 C   0  0  0  0  0  0
  -21.4035   -6.5635   23.8195 C   0  0  0  0  0  0
  -21.3665   -5.6786   24.9157 C   0  0  0  0  0  0
  -21.6041   -4.3049   24.7207 C   0  0  0  0  0  0
  -21.8820   -3.8143   23.4332 C   0  0  0  0  0  0
  -21.9196   -4.6953   22.3388 C   0  0  0  0  0  0
  -22.7762  -13.5197   21.1849 C   0  0  0  0  0  0
  -22.1657   -4.2137   21.0962 F   0  0  0  0  0  0
  -21.5617   -3.4540   25.7723 F   0  0  0  0  0  0
  -29.9010  -13.8911   20.3748 N   0  0  0  0  0  0
  -26.2843  -12.9522   20.3196 N   0  0  0  0  0  0
  -25.9348  -11.6629   20.5701 N   0  0  0  0  0  0
  -22.0445  -12.8195   22.0434 N   0  0  0  0  0  0
  -25.3933  -15.1983   20.3997 N   0  0  0  0  0  0
  -31.6350  -15.2199   20.1212 O   0  0  0  0  0  0
  -21.6655   -6.8884   21.4232 O   0  0  0  0  0  0
  -22.3419  -14.5490   20.6690 O   0  0  0  0  0  0
  -24.6603  -31.8251   23.1735 C   0  0  0  0  0  0
  -25.9303  -32.4605   23.8168 C   0  0  1  0  0  0
  -27.2224  -26.9593   20.1809 C   0  0  0  0  0  0
  -25.5958  -33.8415   24.2051 N   0  0  0  0  0  0
  -23.4751  -30.4390   21.5229 C   0  0  2  0  0  0
  -24.9283  -28.8302   20.1150 C   0  0  0  0  0  0
  -22.7643  -29.4462   22.4783 C   0  0  0  0  0  0
  -18.0320  -28.1441   22.8429 C   0  0  0  0  0  0
  -24.1493  -36.7242   23.2650 C   0  0  0  0  0  0
  -26.0423  -30.6392   21.4042 C   0  0  0  0  0  0
  -26.1109  -29.2337   20.7483 C   0  0  0  0  0  0
  -27.2535  -28.3188   20.7565 C   0  0  0  0  0  0
  -26.0114  -26.6990   19.4981 C   0  0  0  0  0  0
  -24.9014  -27.5827   19.4714 C   0  0  0  0  0  0
  -23.7164  -29.7601   20.1483 C   0  0  0  0  0  0
  -25.4136  -36.2966   24.0271 C   0  0  1  0  0  0
  -20.5934  -28.3786   23.1175 C   0  0  2  0  0  0
  -20.6826  -26.9465   22.5406 C   0  0  0  0  0  0
  -19.5799  -26.6379   21.5231 C   0  0  0  0  0  0
  -18.1967  -26.7968   22.1608 C   0  0  0  0  0  0
  -19.1577  -28.8934   23.2785 C   0  0  0  0  0  0
  -18.9501  -30.1531   23.8811 C   0  0  0  0  0  0
  -17.6499  -30.6625   24.0561 C   0  0  0  0  0  0
  -25.9085  -34.9356   23.4975 C   0  0  0  0  0  0
  -16.5383  -29.9117   23.6361 C   0  0  0  0  0  0
  -16.7303  -28.6559   23.0317 C   0  0  0  0  0  0
  -26.4544  -31.6578   25.0720 C   0  0  0  0  0  0
  -25.3629  -31.3861   26.1351 C   0  0  0  0  0  0
  -27.0446  -30.2925   24.6515 C   0  0  0  0  0  0
  -27.5976  -32.4450   25.7550 C   0  0  0  0  0  0
  -27.5561  -37.1767   24.8442 C   0  0  0  0  0  0
  -21.4314  -29.3077   22.3520 N   0  0  0  0  0  0
  -26.4277  -37.3698   23.9378 N   0  0  0  0  0  0
  -24.7468  -30.9928   22.0881 N   0  0  0  0  0  0
  -23.4191  -28.8032   23.3019 O   0  0  0  0  0  0
  -28.2387  -25.8781   20.2575 O   0  0  0  0  0  0
  -26.5719  -34.8878   22.4582 O   0  0  0  0  0  0
  -23.5675  -32.1221   23.6839 O   0  0  0  0  0  0
  -31.9705  -19.4182   20.8710 C   0  0  0  0  0  0
  -29.9206  -19.7958   20.4774 C   0  0  0  0  0  0
  -33.4038  -19.6584   21.1931 C   0  0  0  0  0  0
  -28.6774  -16.6854   21.7819 C   0  0  0  0  0  0
  -28.7457  -21.0270   20.2895 C   0  0  0  0  0  0
  -29.0078  -22.8066   20.3778 C   0  0  0  0  0  0
  -27.9802  -24.2617   20.1793 C   0  0  0  0  0  0
  -29.5616  -16.7627   20.5247 C   0  0  1  0  0  0
  -31.0852  -20.4208   20.6701 N   0  0  0  0  0  0
  -31.4978  -18.1895   20.7887 N   0  0  0  0  0  0
  -30.1684  -18.3051   20.5270 N   0  0  0  0  0  0
  -31.4696  -12.9665   19.2062 H   0  0  0  0  0  0
  -30.5030  -11.8376   20.1036 H   0  0  0  0  0  0
  -29.9085  -11.7662   17.6622 H   0  0  0  0  0  0
  -29.5953  -13.4851   17.6711 H   0  0  0  0  0  0
  -28.0016  -11.2898   19.0163 H   0  0  0  0  0  0
  -27.4212  -12.4294   17.8259 H   0  0  0  0  0  0
  -27.5606  -14.2626   19.3841 H   0  0  0  0  0  0
  -28.8107  -12.3903   21.4325 H   0  0  0  0  0  0
  -28.3059  -14.0122   21.7688 H   0  0  0  0  0  0
  -25.2779   -9.5696   22.4738 H   0  0  0  0  0  0
  -23.9982   -7.4676   22.7523 H   0  0  0  0  0  0
  -21.0824   -8.8798   19.8978 H   0  0  0  0  0  0
  -22.3703  -10.9669   19.6149 H   0  0  0  0  0  0
  -21.2054   -7.6150   23.9691 H   0  0  0  0  0  0
  -21.1481   -6.0520   25.9052 H   0  0  0  0  0  0
  -22.0597   -2.7606   23.2833 H   0  0  0  0  0  0
  -22.4085  -11.9853   22.4800 H   0  0  0  0  0  0
  -21.1094  -13.1239   22.2713 H   0  0  0  0  0  0
  -24.6104  -15.8370   20.4950 H   0  0  0  0  0  0
  -26.2241  -15.6474   20.0378 H   0  0  0  0  0  0
  -26.7372  -32.5134   23.0869 H   0  0  0  0  0  0
  -24.9995  -33.9498   25.0121 H   0  0  0  0  0  0
  -22.7908  -31.2724   21.3568 H   0  0  0  0  0  0
  -23.3735  -35.9598   23.3290 H   0  0  0  0  0  0
  -24.3558  -36.8947   22.2077 H   0  0  0  0  0  0
  -23.7305  -37.6423   23.6764 H   0  0  0  0  0  0
  -26.2231  -31.3815   20.6270 H   0  0  0  0  0  0
  -26.8996  -30.6910   22.0635 H   0  0  0  0  0  0
  -28.1495  -28.6250   21.2795 H   0  0  0  0  0  0
  -25.8920  -25.7492   18.9972 H   0  0  0  0  0  0
  -24.0013  -27.2708   18.9596 H   0  0  0  0  0  0
  -23.8809  -30.5340   19.3975 H   0  0  0  0  0  0
  -22.8222  -29.2249   19.8260 H   0  0  0  0  0  0
  -25.1351  -36.1750   25.0761 H   0  0  0  0  0  0
  -21.0006  -28.3449   24.1296 H   0  0  0  0  0  0
  -20.5801  -26.2391   23.3656 H   0  0  0  0  0  0
  -21.6679  -26.7512   22.1157 H   0  0  0  0  0  0
  -19.6964  -25.6263   21.1330 H   0  0  0  0  0  0
  -19.6762  -27.3146   20.6726 H   0  0  0  0  0  0
  -17.4242  -26.6694   21.4008 H   0  0  0  0  0  0
  -18.0330  -26.0165   22.9049 H   0  0  0  0  0  0
  -19.7992  -30.7356   24.2124 H   0  0  0  0  0  0
  -17.5070  -31.6282   24.5198 H   0  0  0  0  0  0
  -15.5385  -30.2981   23.7779 H   0  0  0  0  0  0
  -15.8700  -28.0904   22.6996 H   0  0  0  0  0  0
  -24.5773  -30.7291   25.7601 H   0  0  0  0  0  0
  -24.8871  -32.3093   26.4659 H   0  0  0  0  0  0
  -25.7785  -30.9040   27.0209 H   0  0  0  0  0  0
  -26.3124  -29.6574   24.1517 H   0  0  0  0  0  0
  -27.3906  -29.7339   25.5223 H   0  0  0  0  0  0
  -27.9096  -30.4051   23.9982 H   0  0  0  0  0  0
  -27.2462  -33.3764   26.1996 H   0  0  0  0  0  0
  -28.3843  -32.7022   25.0445 H   0  0  0  0  0  0
  -28.0601  -31.8717   26.5588 H   0  0  0  0  0  0
  -28.2514  -38.0118   24.7472 H   0  0  0  0  0  0
  -28.1112  -36.2618   24.6282 H   0  0  0  0  0  0
  -27.2253  -37.1416   25.8839 H   0  0  0  0  0  0
  -20.9573  -29.8775   21.6648 H   0  0  0  0  0  0
  -26.0111  -38.2739   24.1424 H   0  0  0  0  0  0
  -33.6677  -20.7026   21.0294 H   0  0  0  0  0  0
  -34.0445  -19.0388   20.5662 H   0  0  0  0  0  0
  -33.6014  -19.4140   22.2371 H   0  0  0  0  0  0
  -28.3748  -17.6734   22.1281 H   0  0  0  0  0  0
  -29.2013  -16.2048   22.6090 H   0  0  0  0  0  0
  -27.7573  -16.1376   21.5919 H   0  0  0  0  0  0
  -27.9615  -20.7930   21.0087 H   0  0  0  0  0  0
  -28.2797  -20.8339   19.3231 H   0  0  0  0  0  0
  -29.8263  -22.9762   19.6786 H   0  0  0  0  0  0
  -29.4685  -22.9458   21.3556 H   0  0  0  0  0  0
  -27.1620  -24.1187   20.8856 H   0  0  0  0  0  0
  -27.5115  -24.1236   19.2058 H   0  0  0  0  0  0
  -28.8921  -16.7546   19.6647 H   0  0  0  0  0  0
  1 25  1  0  0  0
  1 30  2  0  0  0
  1 78  1  0  0  0
  2  3  1  0  0  0
  2 25  1  0  0  0
  2 82  1  0  0  0
  2 83  1  0  0  0
  3  4  1  0  0  0
  3 84  1  0  0  0
  3 85  1  0  0  0
  4  5  1  0  0  0
  4 86  1  0  0  0
  4 87  1  0  0  0
  5  6  1  0  0  0
  5 26  1  0  0  0
  5 88  1  0  0  0
  6 25  1  0  0  0
  6 89  1  0  0  0
  6 90  1  0  0  0
  7  8  2  0  0  0
  7 26  1  0  0  0
  7 29  1  0  0  0
  8  9  1  0  0  0
  8 22  1  0  0  0
  9 10  1  0  0  0
  9 27  2  0  0  0
 10 11  2  0  0  0
 10 15  1  0  0  0
 11 12  1  0  0  0
 11 91  1  0  0  0
 12 13  2  0  0  0
 12 92  1  0  0  0
 13 14  1  0  0  0
 13 31  1  0  0  0
 14 15  2  0  0  0
 14 93  1  0  0  0
 15 94  1  0  0  0
 16 17  2  0  0  0
 16 21  1  0  0  0
 16 31  1  0  0  0
 17 18  1  0  0  0
 17 95  1  0  0  0
 18 19  2  0  0  0
 18 96  1  0  0  0
 19 20  1  0  0  0
 19 24  1  0  0  0
 20 21  2  0  0  0
 20 97  1  0  0  0
 21 23  1  0  0  0
 22 28  1  0  0  0
 22 32  2  0  0  0
 26 27  1  0  0  0
 28 98  1  0  0  0
 28 99  1  0  0  0
 29100  1  0  0  0
 29101  1  0  0  0
 33 34  1  0  0  0
 33 66  1  0  0  0
 33 70  2  0  0  0
 34 36  1  0  0  0
 34 59  1  0  0  0
 34102  1  0  0  0
 35 44  2  0  0  0
 35 45  1  0  0  0
 35 68  1  0  0  0
 36 56  1  0  0  0
 36103  1  0  0  0
 37 39  1  0  0  0
 37 47  1  0  0  0
 37 66  1  0  0  0
 37104  1  0  0  0
 38 43  2  0  0  0
 38 46  1  0  0  0
 38 47  1  0  0  0
 39 64  1  0  0  0
 39 67  2  0  0  0
 40 52  1  0  0  0
 40 53  2  0  0  0
 40 58  1  0  0  0
 41105  1  0  0  0
 41106  1  0  0  0
 41107  1  0  0  0
 41 48  1  0  0  0
 42 43  1  0  0  0
 42 66  1  0  0  0
 42108  1  0  0  0
 42109  1  0  0  0
 43 44  1  0  0  0
 44110  1  0  0  0
 45 46  2  0  0  0
 45111  1  0  0  0
 46112  1  0  0  0
 47113  1  0  0  0
 47114  1  0  0  0
 48 56  1  0  0  0
 48 65  1  0  0  0
 48115  1  0  0  0
 49 50  1  0  0  0
 49 53  1  0  0  0
 49 64  1  0  0  0
 49116  1  0  0  0
 50 51  1  0  0  0
 50117  1  0  0  0
 50118  1  0  0  0
 51 52  1  0  0  0
 51119  1  0  0  0
 51120  1  0  0  0
 52121  1  0  0  0
 52122  1  0  0  0
 53 54  1  0  0  0
 54 55  2  0  0  0
 54123  1  0  0  0
 55 57  1  0  0  0
 55124  1  0  0  0
 56 69  2  0  0  0
 57 58  2  0  0  0
 57125  1  0  0  0
 58126  1  0  0  0
 59 60  1  0  0  0
 59 61  1  0  0  0
 59 62  1  0  0  0
 60127  1  0  0  0
 60128  1  0  0  0
 60129  1  0  0  0
 61130  1  0  0  0
 61131  1  0  0  0
 61132  1  0  0  0
 62133  1  0  0  0
 62134  1  0  0  0
 62135  1  0  0  0
 63 65  1  0  0  0
 63136  1  0  0  0
 63137  1  0  0  0
 63138  1  0  0  0
 64139  1  0  0  0
 65140  1  0  0  0
 68 77  1  0  0  0
 71 73  1  0  0  0
 71 79  1  0  0  0
 71 80  2  0  0  0
 72 75  1  0  0  0
 72 79  2  0  0  0
 72 81  1  0  0  0
 73141  1  0  0  0
 73142  1  0  0  0
 73143  1  0  0  0
 74144  1  0  0  0
 74145  1  0  0  0
 74146  1  0  0  0
 74 78  1  0  0  0
 75 76  1  0  0  0
 75147  1  0  0  0
 75148  1  0  0  0
 76 77  1  0  0  0
 76149  1  0  0  0
 76150  1  0  0  0
 77151  1  0  0  0
 77152  1  0  0  0
 78 81  1  0  0  0
 78153  1  0  0  0
 80 81  1  0  0  0
M  ISO  4   1 100  68 101  77 101  78 100
M  END
> <chiral flag>
0

> <version>
0

> <s_m_source_file>
/data/baiqing/PycharmProjects/Reinvent-master-3.2/result/LINK_invent/BTK/process_docking_weight1_custom_sum_contain_oxygen_bond_distance_aromatic_linkinvent_7_9_3/rearranged_h_0054.sdf

> <i_m_source_file_index>
10

> <r_mmod_Potential_Energy-OPLS-2005>
1265.58349609375

> <r_mmod_Stretch_Energy-OPLS-2005>
599.736328125

> <r_mmod_Bend_Energy-OPLS-2005>
475.752990722656

> <r_mmod_Torsional_Energy-OPLS-2005>
223.717834472656

> <r_mmod_Improper_Torsional_Energy-OPLS-2005>
3.82063508033752

> <r_mmod_Van_der_Waal_Energy-OPLS-2005>
106.779312133789

> <r_mmod_Electrostatic_Energy-OPLS-2005>
-320.913024902344

> <r_mmod_Solvation_Energy-OPLS-2005>
-224.446731567383

> <b_mmod_Minimization_Converged-OPLS-2005>
0

> <r_mmod_RMS_Derivative-OPLS-2005>
2.74653816223145

$$$$
10
                    3D
 Structure written by MMmdl.
151159  0  0  1  0            999 V2000
  -30.5339  -14.9970   20.4119 C   0  0  0  0  0  0
  -30.4354  -12.6244   19.5018 C   0  0  0  0  0  0
  -29.5212  -12.5275   18.2586 C   0  0  0  0  0  0
  -28.0562  -12.3044   18.6752 C   0  0  0  0  0  0
  -27.6178  -13.2533   19.8214 C   0  0  2  0  0  0
  -28.6558  -13.3200   20.9608 C   0  0  0  0  0  0
  -25.2408  -13.8228   20.5702 C   0  0  0  0  0  0
  -24.1733  -13.0437   20.9248 C   0  0  0  0  0  0
  -24.6359  -11.6931   20.8738 C   0  0  0  0  0  0
  -23.9045  -10.4295   21.0398 C   0  0  0  0  0  0
  -24.3607   -9.4213   21.9169 C   0  0  0  0  0  0
  -23.6293   -8.2237   22.0736 C   0  0  0  0  0  0
  -22.4271   -8.0269   21.3535 C   0  0  0  0  0  0
  -21.9902   -9.0234   20.4631 C   0  0  0  0  0  0
  -22.7219  -10.2123   20.3044 C   0  0  0  0  0  0
  -21.6853   -6.0726   22.5280 C   0  0  0  0  0  0
  -21.4011   -6.5627   23.8215 C   0  0  0  0  0  0
  -21.3666   -5.6783   24.9176 C   0  0  0  0  0  0
  -21.6049   -4.3044   24.7227 C   0  0  0  0  0  0
  -21.8819   -3.8132   23.4346 C   0  0  0  0  0  0
  -21.9195   -4.6953   22.3404 C   0  0  0  0  0  0
  -22.7758  -13.5208   21.1916 C   0  0  0  0  0  0
  -22.1660   -4.2138   21.0982 F   0  0  0  0  0  0
  -21.5636   -3.4530   25.7739 F   0  0  0  0  0  0
  -29.9254  -13.7401   20.3551 N   0  0  0  0  0  0
  -26.2809  -12.9458   20.3149 N   0  0  0  0  0  0
  -25.9278  -11.6585   20.5658 N   0  0  0  0  0  0
  -22.0398  -12.8193   22.0476 N   0  0  0  0  0  0
  -25.4083  -15.1953   20.4146 N   0  0  0  0  0  0
  -31.7509  -15.0058   20.2003 O   0  0  0  0  0  0
  -21.6637   -6.8867   21.4239 O   0  0  0  0  0  0
  -22.3429  -14.5503   20.6756 O   0  0  0  0  0  0
  -24.6445  -31.8419   23.1862 C   0  0  0  0  0  0
  -25.9208  -32.4685   23.8261 C   0  0  1  0  0  0
  -27.2068  -27.0940   20.1564 C   0  0  0  0  0  0
  -25.5964  -33.8496   24.2183 N   0  0  0  0  0  0
  -23.4510  -30.4567   21.5349 C   0  0  2  0  0  0
  -24.8994  -28.8800   20.1100 C   0  0  0  0  0  0
  -22.7585  -29.4511   22.4889 C   0  0  0  0  0  0
  -18.0298  -28.1401   22.8470 C   0  0  0  0  0  0
  -24.1498  -36.7232   23.2641 C   0  0  0  0  0  0
  -26.0091  -30.6997   21.3935 C   0  0  0  0  0  0
  -26.0788  -29.3090   20.7308 C   0  0  0  0  0  0
  -27.2339  -28.4333   20.7323 C   0  0  0  0  0  0
  -26.0006  -26.7770   19.4934 C   0  0  0  0  0  0
  -24.8762  -27.6312   19.4722 C   0  0  0  0  0  0
  -23.6799  -29.7875   20.1537 C   0  0  0  0  0  0
  -25.4135  -36.3020   24.0310 C   0  0  1  0  0  0
  -20.5908  -28.3726   23.1251 C   0  0  2  0  0  0
  -20.6794  -26.9442   22.5403 C   0  0  0  0  0  0
  -19.5769  -26.6394   21.5214 C   0  0  0  0  0  0
  -18.1949  -26.7944   22.1620 C   0  0  0  0  0  0
  -19.1554  -28.8887   23.2845 C   0  0  0  0  0  0
  -18.9470  -30.1487   23.8866 C   0  0  0  0  0  0
  -17.6467  -30.6604   24.0556 C   0  0  0  0  0  0
  -25.9083  -34.9398   23.5054 C   0  0  0  0  0  0
  -16.5356  -29.9093   23.6340 C   0  0  0  0  0  0
  -16.7282  -28.6509   23.0360 C   0  0  0  0  0  0
  -26.4526  -31.6562   25.0714 C   0  0  0  0  0  0
  -25.3706  -31.3744   26.1406 C   0  0  0  0  0  0
  -27.0402  -30.2954   24.6317 C   0  0  0  0  0  0
  -27.6053  -32.4346   25.7493 C   0  0  0  0  0  0
  -27.5581  -37.1773   24.8470 C   0  0  0  0  0  0
  -21.4275  -29.3044   22.3634 N   0  0  0  0  0  0
  -26.4294  -37.3737   23.9408 N   0  0  0  0  0  0
  -24.7215  -31.0215   22.0931 N   0  0  0  0  0  0
  -23.4205  -28.8078   23.3071 O   0  0  0  0  0  0
  -28.2440  -26.0810   20.2369 O   0  0  0  0  0  0
  -26.5659  -34.8892   22.4628 O   0  0  0  0  0  0
  -23.5552  -32.1340   23.7037 O   0  0  0  0  0  0
  -27.4177  -21.2091   19.5775 C   0  0  0  0  0  0
  -27.8996  -18.9004   19.6502 C   0  0  0  0  0  0
  -28.6369  -21.5741   20.1916 C   0  0  0  0  0  0
  -29.1579  -19.0942   20.2632 C   0  0  0  0  0  0
  -31.4061  -18.0333   19.6741 C   0  0  0  0  0  0
  -28.9665  -23.1946   20.4301 C   0  0  0  0  0  0
  -27.9657  -24.5353   20.0683 C   0  0  0  0  0  0
  -30.1578  -17.7845   20.5404 C   0  0  2  0  0  0
  -27.0590  -19.9204   19.3190 N   0  0  0  0  0  0
  -29.4931  -20.4688   20.5304 N   0  0  0  0  0  0
  -29.7825  -16.2200   20.4993 N   0  0  0  0  0  0
  -31.4668  -12.7912   19.1866 H   0  0  0  0  0  0
  -30.4456  -11.6838   20.0548 H   0  0  0  0  0  0
  -29.8515  -11.7190   17.6046 H   0  0  0  0  0  0
  -29.5987  -13.4467   17.6763 H   0  0  0  0  0  0
  -27.9642  -11.2680   19.0007 H   0  0  0  0  0  0
  -27.3957  -12.4094   17.8137 H   0  0  0  0  0  0
  -27.5669  -14.2431   19.3670 H   0  0  0  0  0  0
  -28.7527  -12.3555   21.4616 H   0  0  0  0  0  0
  -28.3416  -14.0363   21.7218 H   0  0  0  0  0  0
  -25.2749   -9.5698   22.4739 H   0  0  0  0  0  0
  -24.0012   -7.4632   22.7453 H   0  0  0  0  0  0
  -21.0835   -8.8736   19.8938 H   0  0  0  0  0  0
  -22.3665  -10.9649   19.6144 H   0  0  0  0  0  0
  -21.1993   -7.6134   23.9720 H   0  0  0  0  0  0
  -21.1492   -6.0505   25.9086 H   0  0  0  0  0  0
  -22.0593   -2.7595   23.2843 H   0  0  0  0  0  0
  -22.4021  -11.9878   22.4906 H   0  0  0  0  0  0
  -21.0993  -13.1177   22.2637 H   0  0  0  0  0  0
  -24.6360  -15.8444   20.5203 H   0  0  0  0  0  0
  -26.2417  -15.6319   20.0446 H   0  0  0  0  0  0
  -26.7262  -32.5269   23.0971 H   0  0  0  0  0  0
  -25.0113  -33.9619   25.0329 H   0  0  0  0  0  0
  -22.7537  -31.2818   21.3792 H   0  0  0  0  0  0
  -23.3777  -35.9549   23.3298 H   0  0  0  0  0  0
  -24.3564  -36.8869   22.2055 H   0  0  0  0  0  0
  -23.7238  -37.6415   23.6685 H   0  0  0  0  0  0
  -26.1703  -31.4573   20.6263 H   0  0  0  0  0  0
  -26.8761  -30.7457   22.0409 H   0  0  0  0  0  0
  -28.1335  -28.7549   21.2376 H   0  0  0  0  0  0
  -25.8891  -25.8213   19.0040 H   0  0  0  0  0  0
  -23.9758  -27.3027   18.9697 H   0  0  0  0  0  0
  -23.8210  -30.5636   19.4005 H   0  0  0  0  0  0
  -22.7941  -29.2333   19.8394 H   0  0  0  0  0  0
  -25.1327  -36.1840   25.0800 H   0  0  0  0  0  0
  -20.9953  -28.3294   24.1392 H   0  0  0  0  0  0
  -20.5716  -26.2337   23.3612 H   0  0  0  0  0  0
  -21.6661  -26.7491   22.1189 H   0  0  0  0  0  0
  -19.6943  -25.6299   21.1272 H   0  0  0  0  0  0
  -19.6700  -27.3180   20.6723 H   0  0  0  0  0  0
  -17.4223  -26.6672   21.4024 H   0  0  0  0  0  0
  -18.0354  -26.0098   22.9027 H   0  0  0  0  0  0
  -19.7940  -30.7314   24.2222 H   0  0  0  0  0  0
  -17.5015  -31.6276   24.5171 H   0  0  0  0  0  0
  -15.5354  -30.2982   23.7695 H   0  0  0  0  0  0
  -15.8678  -28.0815   22.7107 H   0  0  0  0  0  0
  -24.5902  -30.7083   25.7704 H   0  0  0  0  0  0
  -24.8879  -32.2923   26.4772 H   0  0  0  0  0  0
  -25.7981  -30.8943   27.0221 H   0  0  0  0  0  0
  -26.3024  -29.6670   24.1318 H   0  0  0  0  0  0
  -27.3999  -29.7255   25.4894 H   0  0  0  0  0  0
  -27.8943  -30.4185   23.9656 H   0  0  0  0  0  0
  -27.2645  -33.3675   26.1997 H   0  0  0  0  0  0
  -28.3888  -32.6869   25.0335 H   0  0  0  0  0  0
  -28.0709  -31.8537   26.5465 H   0  0  0  0  0  0
  -28.2592  -38.0074   24.7519 H   0  0  0  0  0  0
  -28.1082  -36.2599   24.6310 H   0  0  0  0  0  0
  -27.2287  -37.1436   25.8869 H   0  0  0  0  0  0
  -20.9512  -29.8711   21.6758 H   0  0  0  0  0  0
  -26.0157  -38.2800   24.1413 H   0  0  0  0  0  0
  -26.7087  -21.9651   19.2732 H   0  0  0  0  0  0
  -27.5613  -17.9071   19.3942 H   0  0  0  0  0  0
  -31.7681  -19.0543   19.8026 H   0  0  0  0  0  0
  -31.1807  -17.8937   18.6173 H   0  0  0  0  0  0
  -32.2417  -17.3876   19.9352 H   0  0  0  0  0  0
  -29.9089  -23.3626   19.9099 H   0  0  0  0  0  0
  -29.2222  -23.2813   21.4860 H   0  0  0  0  0  0
  -27.7005  -24.4126   19.0178 H   0  0  0  0  0  0
  -27.0374  -24.3538   20.6118 H   0  0  0  0  0  0
  -30.4683  -17.9277   21.5760 H   0  0  0  0  0  0
  -28.7927  -16.0536   20.6027 H   0  0  0  0  0  0
  1 25  1  0  0  0
  1 30  2  0  0  0
  1 81  1  0  0  0
  2  3  1  0  0  0
  2 25  1  0  0  0
  2 82  1  0  0  0
  2 83  1  0  0  0
  3  4  1  0  0  0
  3 84  1  0  0  0
  3 85  1  0  0  0
  4  5  1  0  0  0
  4 86  1  0  0  0
  4 87  1  0  0  0
  5  6  1  0  0  0
  5 26  1  0  0  0
  5 88  1  0  0  0
  6 25  1  0  0  0
  6 89  1  0  0  0
  6 90  1  0  0  0
  7  8  2  0  0  0
  7 26  1  0  0  0
  7 29  1  0  0  0
  8  9  1  0  0  0
  8 22  1  0  0  0
  9 10  1  0  0  0
  9 27  2  0  0  0
 10 11  2  0  0  0
 10 15  1  0  0  0
 11 12  1  0  0  0
 11 91  1  0  0  0
 12 13  2  0  0  0
 12 92  1  0  0  0
 13 14  1  0  0  0
 13 31  1  0  0  0
 14 15  2  0  0  0
 14 93  1  0  0  0
 15 94  1  0  0  0
 16 17  2  0  0  0
 16 21  1  0  0  0
 16 31  1  0  0  0
 17 18  1  0  0  0
 17 95  1  0  0  0
 18 19  2  0  0  0
 18 96  1  0  0  0
 19 20  1  0  0  0
 19 24  1  0  0  0
 20 21  2  0  0  0
 20 97  1  0  0  0
 21 23  1  0  0  0
 22 28  1  0  0  0
 22 32  2  0  0  0
 26 27  1  0  0  0
 28 98  1  0  0  0
 28 99  1  0  0  0
 29100  1  0  0  0
 29101  1  0  0  0
 33 34  1  0  0  0
 33 66  1  0  0  0
 33 70  2  0  0  0
 34 36  1  0  0  0
 34 59  1  0  0  0
 34102  1  0  0  0
 35 44  2  0  0  0
 35 45  1  0  0  0
 35 68  1  0  0  0
 36 56  1  0  0  0
 36103  1  0  0  0
 37 39  1  0  0  0
 37 47  1  0  0  0
 37 66  1  0  0  0
 37104  1  0  0  0
 38 43  2  0  0  0
 38 46  1  0  0  0
 38 47  1  0  0  0
 39 64  1  0  0  0
 39 67  2  0  0  0
 40 52  1  0  0  0
 40 53  2  0  0  0
 40 58  1  0  0  0
 41105  1  0  0  0
 41106  1  0  0  0
 41107  1  0  0  0
 41 48  1  0  0  0
 42 43  1  0  0  0
 42 66  1  0  0  0
 42108  1  0  0  0
 42109  1  0  0  0
 43 44  1  0  0  0
 44110  1  0  0  0
 45 46  2  0  0  0
 45111  1  0  0  0
 46112  1  0  0  0
 47113  1  0  0  0
 47114  1  0  0  0
 48 56  1  0  0  0
 48 65  1  0  0  0
 48115  1  0  0  0
 49 50  1  0  0  0
 49 53  1  0  0  0
 49 64  1  0  0  0
 49116  1  0  0  0
 50 51  1  0  0  0
 50117  1  0  0  0
 50118  1  0  0  0
 51 52  1  0  0  0
 51119  1  0  0  0
 51120  1  0  0  0
 52121  1  0  0  0
 52122  1  0  0  0
 53 54  1  0  0  0
 54 55  2  0  0  0
 54123  1  0  0  0
 55 57  1  0  0  0
 55124  1  0  0  0
 56 69  2  0  0  0
 57 58  2  0  0  0
 57125  1  0  0  0
 58126  1  0  0  0
 59 60  1  0  0  0
 59 61  1  0  0  0
 59 62  1  0  0  0
 60127  1  0  0  0
 60128  1  0  0  0
 60129  1  0  0  0
 61130  1  0  0  0
 61131  1  0  0  0
 61132  1  0  0  0
 62133  1  0  0  0
 62134  1  0  0  0
 62135  1  0  0  0
 63 65  1  0  0  0
 63136  1  0  0  0
 63137  1  0  0  0
 63138  1  0  0  0
 64139  1  0  0  0
 65140  1  0  0  0
 68 77  1  0  0  0
 71 73  2  0  0  0
 71 79  1  0  0  0
 71141  1  0  0  0
 72 74  1  0  0  0
 72 79  2  0  0  0
 72142  1  0  0  0
 73 76  1  0  0  0
 73 80  1  0  0  0
 74 78  1  0  0  0
 74 80  2  0  0  0
 75143  1  0  0  0
 75144  1  0  0  0
 75145  1  0  0  0
 75 78  1  0  0  0
 76 77  1  0  0  0
 76146  1  0  0  0
 76147  1  0  0  0
 77148  1  0  0  0
 77149  1  0  0  0
 78 81  1  0  0  0
 78150  1  0  0  0
 81151  1  0  0  0
M  ISO  4   1 100  68 101  77 101  81 100
M  END
> <chiral flag>
0

> <version>
0

> <s_m_source_file>
/data/baiqing/PycharmProjects/Reinvent-master-3.2/result/LINK_invent/BTK/process_docking_weight1_custom_sum_contain_oxygen_bond_distance_aromatic_linkinvent_7_9_3/rearranged_h_0054.sdf

> <i_m_source_file_index>
11

> <r_mmod_Potential_Energy-OPLS-2005>
599.125122070312

> <r_mmod_Stretch_Energy-OPLS-2005>
314.222259521484

> <r_mmod_Bend_Energy-OPLS-2005>
273.856567382812

> <r_mmod_Torsional_Energy-OPLS-2005>
192.862075805664

> <r_mmod_Improper_Torsional_Energy-OPLS-2005>
4.44846343994141

> <r_mmod_Van_der_Waal_Energy-OPLS-2005>
130.347747802734

> <r_mmod_Electrostatic_Energy-OPLS-2005>
-319.883026123047

> <r_mmod_Solvation_Energy-OPLS-2005>
-229.024612426758

> <b_mmod_Minimization_Converged-OPLS-2005>
0

> <r_mmod_RMS_Derivative-OPLS-2005>
1.81322658061981

$$$$
11
                    3D
 Structure written by MMmdl.
161169  0  0  1  0            999 V2000
  -30.7204  -14.4837   20.4915 C   0  0  0  0  0  0
  -30.4138  -12.2945   19.4195 C   0  0  0  0  0  0
  -29.4850  -12.4686   18.2012 C   0  0  0  0  0  0
  -28.0065  -12.3420   18.6229 C   0  0  0  0  0  0
  -27.6454  -13.1976   19.8682 C   0  0  2  0  0  0
  -28.7044  -13.0444   20.9834 C   0  0  0  0  0  0
  -25.2529  -13.8119   20.5733 C   0  0  0  0  0  0
  -24.1786  -13.0402   20.9215 C   0  0  0  0  0  0
  -24.6341  -11.6866   20.8764 C   0  0  0  0  0  0
  -23.9004  -10.4274   21.0406 C   0  0  0  0  0  0
  -24.3573   -9.4194   21.9178 C   0  0  0  0  0  0
  -23.6265   -8.2225   22.0748 C   0  0  0  0  0  0
  -22.4241   -8.0257   21.3544 C   0  0  0  0  0  0
  -21.9879   -9.0219   20.4643 C   0  0  0  0  0  0
  -22.7185  -10.2109   20.3048 C   0  0  0  0  0  0
  -21.6834   -6.0716   22.5271 C   0  0  0  0  0  0
  -21.4008   -6.5622   23.8201 C   0  0  0  0  0  0
  -21.3657   -5.6778   24.9167 C   0  0  0  0  0  0
  -21.6039   -4.3046   24.7222 C   0  0  0  0  0  0
  -21.8819   -3.8127   23.4337 C   0  0  0  0  0  0
  -21.9187   -4.6941   22.3390 C   0  0  0  0  0  0
  -22.7810  -13.5219   21.1845 C   0  0  0  0  0  0
  -22.1661   -4.2137   21.0972 F   0  0  0  0  0  0
  -21.5632   -3.4523   25.7735 F   0  0  0  0  0  0
  -30.0249  -13.3190   20.3970 N   0  0  0  0  0  0
  -26.2946  -12.9251   20.3408 N   0  0  0  0  0  0
  -25.9258  -11.6426   20.5815 N   0  0  0  0  0  0
  -22.0450  -12.8238   22.0413 N   0  0  0  0  0  0
  -25.4245  -15.1841   20.4161 N   0  0  0  0  0  0
  -31.9140  -14.5789   20.1958 O   0  0  0  0  0  0
  -21.6610   -6.8848   21.4233 O   0  0  0  0  0  0
  -22.3506  -14.5518   20.6663 O   0  0  0  0  0  0
  -24.6107  -31.8714   23.2106 C   0  0  0  0  0  0
  -25.8995  -32.4839   23.8430 C   0  0  1  0  0  0
  -27.2387  -27.4561   20.0991 C   0  0  0  0  0  0
  -25.5842  -33.8632   24.2349 N   0  0  0  0  0  0
  -23.4045  -30.4908   21.5494 C   0  0  2  0  0  0
  -24.8591  -28.9654   20.1102 C   0  0  0  0  0  0
  -22.7422  -29.4635   22.4949 C   0  0  0  0  0  0
  -18.0262  -28.1368   22.8480 C   0  0  0  0  0  0
  -24.1484  -36.7329   23.2642 C   0  0  0  0  0  0
  -25.9313  -30.8444   21.3675 C   0  0  0  0  0  0
  -26.0160  -29.4801   20.7123 C   0  0  0  0  0  0
  -27.2139  -28.7294   20.7082 C   0  0  0  0  0  0
  -26.0734  -26.9558   19.4820 C   0  0  0  0  0  0
  -24.8789  -27.7013   19.4908 C   0  0  0  0  0  0
  -23.6202  -29.8286   20.1630 C   0  0  0  0  0  0
  -25.4108  -36.3119   24.0345 C   0  0  1  0  0  0
  -20.5854  -28.3653   23.1298 C   0  0  2  0  0  0
  -20.6769  -26.9372   22.5418 C   0  0  0  0  0  0
  -19.5764  -26.6371   21.5183 C   0  0  0  0  0  0
  -18.1920  -26.7908   22.1592 C   0  0  0  0  0  0
  -19.1505  -28.8818   23.2878 C   0  0  0  0  0  0
  -18.9460  -30.1439   23.8894 C   0  0  0  0  0  0
  -17.6471  -30.6583   24.0552 C   0  0  0  0  0  0
  -25.8999  -34.9476   23.5137 C   0  0  0  0  0  0
  -16.5336  -29.9091   23.6312 C   0  0  0  0  0  0
  -16.7236  -28.6514   23.0326 C   0  0  0  0  0  0
  -26.4415  -31.6643   25.0761 C   0  0  0  0  0  0
  -25.3670  -31.3782   26.1515 C   0  0  0  0  0  0
  -27.0241  -30.3085   24.6115 C   0  0  0  0  0  0
  -27.5995  -32.4381   25.7518 C   0  0  0  0  0  0
  -27.5591  -37.1807   24.8459 C   0  0  0  0  0  0
  -21.4141  -29.3050   22.3738 N   0  0  0  0  0  0
  -26.4303  -37.3798   23.9398 N   0  0  0  0  0  0
  -24.6674  -31.0790   22.1029 N   0  0  0  0  0  0
  -23.4215  -28.8139   23.2940 O   0  0  0  0  0  0
  -28.3567  -26.6588   20.1587 O   0  0  0  0  0  0
  -26.5556  -34.8925   22.4689 O   0  0  0  0  0  0
  -23.5296  -32.1449   23.7475 O   0  0  0  0  0  0
  -27.7537  -18.3854   22.9863 C   0  0  0  0  0  0
  -29.4394  -17.5662   22.1208 C   0  0  0  0  0  0
  -30.3460  -17.1919   18.7025 C   0  0  0  0  0  0
  -30.4660  -16.5778   21.6627 C   0  0  0  0  0  0
  -28.3727  -23.2358   21.8935 C   0  0  0  0  0  0
  -28.8683  -21.7851   21.6844 C   0  0  0  0  0  0
  -28.8304  -24.2941   20.8607 C   0  0  0  0  0  0
  -28.2985  -20.8422   22.7732 C   0  0  0  0  0  0
  -29.4047  -16.2264   19.4457 C   0  0  0  0  0  0
  -28.2463  -25.6832   21.2089 C   0  0  0  0  0  0
  -28.2726  -17.1866   22.7259 N   0  0  0  0  0  0
  -29.6316  -18.8877   22.0090 N   0  0  0  0  0  0
  -28.5090  -19.4083   22.5684 N   0  0  0  0  0  0
  -29.9905  -15.6092   20.6582 N   0  0  0  0  0  0
  -31.4595  -12.3768   19.1145 H   0  0  0  0  0  0
  -30.3009  -11.2981   19.8517 H   0  0  0  0  0  0
  -29.7179  -11.7213   17.4418 H   0  0  0  0  0  0
  -29.6553  -13.4371   17.7306 H   0  0  0  0  0  0
  -27.8203  -11.2893   18.8376 H   0  0  0  0  0  0
  -27.3549  -12.5985   17.7874 H   0  0  0  0  0  0
  -27.6415  -14.2313   19.5444 H   0  0  0  0  0  0
  -28.6835  -12.0343   21.3939 H   0  0  0  0  0  0
  -28.4900  -13.7139   21.8180 H   0  0  0  0  0  0
  -25.2713   -9.5655   22.4759 H   0  0  0  0  0  0
  -23.9957   -7.4604   22.7462 H   0  0  0  0  0  0
  -21.0807   -8.8696   19.8958 H   0  0  0  0  0  0
  -22.3608  -10.9631   19.6149 H   0  0  0  0  0  0
  -21.2001   -7.6130   23.9701 H   0  0  0  0  0  0
  -21.1489   -6.0513   25.9073 H   0  0  0  0  0  0
  -22.0608   -2.7592   23.2827 H   0  0  0  0  0  0
  -22.4072  -11.9901   22.4800 H   0  0  0  0  0  0
  -21.1055  -13.1254   22.2618 H   0  0  0  0  0  0
  -24.6625  -15.8437   20.5353 H   0  0  0  0  0  0
  -26.2971  -15.6261   20.1546 H   0  0  0  0  0  0
  -26.7058  -32.5572   23.1210 H   0  0  0  0  0  0
  -25.0053  -33.9814   25.0534 H   0  0  0  0  0  0
  -22.6880  -31.3017   21.4081 H   0  0  0  0  0  0
  -23.3730  -35.9685   23.3327 H   0  0  0  0  0  0
  -24.3567  -36.8924   22.2043 H   0  0  0  0  0  0
  -23.7247  -37.6546   23.6656 H   0  0  0  0  0  0
  -26.0370  -31.6136   20.6008 H   0  0  0  0  0  0
  -26.8201  -30.8992   21.9849 H   0  0  0  0  0  0
  -28.1052  -29.1083   21.1912 H   0  0  0  0  0  0
  -26.0853  -25.9797   19.0167 H   0  0  0  0  0  0
  -23.9890  -27.2977   19.0256 H   0  0  0  0  0  0
  -23.7323  -30.6088   19.4085 H   0  0  0  0  0  0
  -22.7488  -29.2488   19.8559 H   0  0  0  0  0  0
  -25.1263  -36.2034   25.0840 H   0  0  0  0  0  0
  -20.9917  -28.3246   24.1420 H   0  0  0  0  0  0
  -20.5680  -26.2231   23.3617 H   0  0  0  0  0  0
  -21.6641  -26.7449   22.1173 H   0  0  0  0  0  0
  -19.6935  -25.6270   21.1225 H   0  0  0  0  0  0
  -19.6724  -27.3195   20.6707 H   0  0  0  0  0  0
  -17.4191  -26.6645   21.3972 H   0  0  0  0  0  0
  -18.0329  -26.0048   22.8995 H   0  0  0  0  0  0
  -19.7952  -30.7219   24.2309 H   0  0  0  0  0  0
  -17.5027  -31.6249   24.5144 H   0  0  0  0  0  0
  -15.5341  -30.2986   23.7658 H   0  0  0  0  0  0
  -15.8641  -28.0822   22.7045 H   0  0  0  0  0  0
  -24.5814  -30.7157   25.7886 H   0  0  0  0  0  0
  -24.8856  -32.2914   26.4992 H   0  0  0  0  0  0
  -25.7969  -30.8964   27.0291 H   0  0  0  0  0  0
  -26.2805  -29.6881   24.1083 H   0  0  0  0  0  0
  -27.3925  -29.7305   25.4606 H   0  0  0  0  0  0
  -27.8675  -30.4429   23.9351 H   0  0  0  0  0  0
  -27.2636  -33.3706   26.2097 H   0  0  0  0  0  0
  -28.3795  -32.6903   25.0321 H   0  0  0  0  0  0
  -28.0662  -31.8501   26.5437 H   0  0  0  0  0  0
  -28.2582  -38.0123   24.7489 H   0  0  0  0  0  0
  -28.1113  -36.2634   24.6323 H   0  0  0  0  0  0
  -27.2287  -37.1479   25.8858 H   0  0  0  0  0  0
  -20.9340  -29.8846   21.7002 H   0  0  0  0  0  0
  -26.0201  -38.2888   24.1416 H   0  0  0  0  0  0
  -26.8190  -18.5251   23.5153 H   0  0  0  0  0  0
  -29.9258  -17.4672   17.7354 H   0  0  0  0  0  0
  -31.3213  -16.7410   18.5120 H   0  0  0  0  0  0
  -30.4981  -18.1197   19.2541 H   0  0  0  0  0  0
  -30.8382  -16.0515   22.5442 H   0  0  0  0  0  0
  -31.3269  -17.1194   21.2690 H   0  0  0  0  0  0
  -28.6713  -23.5668   22.8898 H   0  0  0  0  0  0
  -27.2823  -23.2179   21.8986 H   0  0  0  0  0  0
  -29.9568  -21.7531   21.7121 H   0  0  0  0  0  0
  -28.5605  -21.4327   20.6983 H   0  0  0  0  0  0
  -28.4993  -23.9981   19.8632 H   0  0  0  0  0  0
  -29.9191  -24.3474   20.8251 H   0  0  0  0  0  0
  -27.2211  -20.9994   22.8620 H   0  0  0  0  0  0
  -28.7201  -21.1020   23.7457 H   0  0  0  0  0  0
  -29.1418  -15.4564   18.7216 H   0  0  0  0  0  0
  -28.4689  -16.7271   19.6935 H   0  0  0  0  0  0
  -28.7280  -26.0819   22.1011 H   0  0  0  0  0  0
  -27.2026  -25.5377   21.4942 H   0  0  0  0  0  0
  1 25  1  0  0  0
  1 30  2  0  0  0
  1 84  1  0  0  0
  2  3  1  0  0  0
  2 25  1  0  0  0
  2 85  1  0  0  0
  2 86  1  0  0  0
  3  4  1  0  0  0
  3 87  1  0  0  0
  3 88  1  0  0  0
  4  5  1  0  0  0
  4 89  1  0  0  0
  4 90  1  0  0  0
  5  6  1  0  0  0
  5 26  1  0  0  0
  5 91  1  0  0  0
  6 25  1  0  0  0
  6 92  1  0  0  0
  6 93  1  0  0  0
  7  8  2  0  0  0
  7 26  1  0  0  0
  7 29  1  0  0  0
  8  9  1  0  0  0
  8 22  1  0  0  0
  9 10  1  0  0  0
  9 27  2  0  0  0
 10 11  2  0  0  0
 10 15  1  0  0  0
 11 12  1  0  0  0
 11 94  1  0  0  0
 12 13  2  0  0  0
 12 95  1  0  0  0
 13 14  1  0  0  0
 13 31  1  0  0  0
 14 15  2  0  0  0
 14 96  1  0  0  0
 15 97  1  0  0  0
 16 17  2  0  0  0
 16 21  1  0  0  0
 16 31  1  0  0  0
 17 18  1  0  0  0
 17 98  1  0  0  0
 18 19  2  0  0  0
 18 99  1  0  0  0
 19 20  1  0  0  0
 19 24  1  0  0  0
 20 21  2  0  0  0
 20100  1  0  0  0
 21 23  1  0  0  0
 22 28  1  0  0  0
 22 32  2  0  0  0
 26 27  1  0  0  0
 28101  1  0  0  0
 28102  1  0  0  0
 29103  1  0  0  0
 29104  1  0  0  0
 33 34  1  0  0  0
 33 66  1  0  0  0
 33 70  2  0  0  0
 34 36  1  0  0  0
 34 59  1  0  0  0
 34105  1  0  0  0
 35 44  2  0  0  0
 35 45  1  0  0  0
 35 68  1  0  0  0
 36 56  1  0  0  0
 36106  1  0  0  0
 37 39  1  0  0  0
 37 47  1  0  0  0
 37 66  1  0  0  0
 37107  1  0  0  0
 38 43  2  0  0  0
 38 46  1  0  0  0
 38 47  1  0  0  0
 39 64  1  0  0  0
 39 67  2  0  0  0
 40 52  1  0  0  0
 40 53  2  0  0  0
 40 58  1  0  0  0
 41108  1  0  0  0
 41109  1  0  0  0
 41110  1  0  0  0
 41 48  1  0  0  0
 42 43  1  0  0  0
 42 66  1  0  0  0
 42111  1  0  0  0
 42112  1  0  0  0
 43 44  1  0  0  0
 44113  1  0  0  0
 45 46  2  0  0  0
 45114  1  0  0  0
 46115  1  0  0  0
 47116  1  0  0  0
 47117  1  0  0  0
 48 56  1  0  0  0
 48 65  1  0  0  0
 48118  1  0  0  0
 49 50  1  0  0  0
 49 53  1  0  0  0
 49 64  1  0  0  0
 49119  1  0  0  0
 50 51  1  0  0  0
 50120  1  0  0  0
 50121  1  0  0  0
 51 52  1  0  0  0
 51122  1  0  0  0
 51123  1  0  0  0
 52124  1  0  0  0
 52125  1  0  0  0
 53 54  1  0  0  0
 54 55  2  0  0  0
 54126  1  0  0  0
 55 57  1  0  0  0
 55127  1  0  0  0
 56 69  2  0  0  0
 57 58  2  0  0  0
 57128  1  0  0  0
 58129  1  0  0  0
 59 60  1  0  0  0
 59 61  1  0  0  0
 59 62  1  0  0  0
 60130  1  0  0  0
 60131  1  0  0  0
 60132  1  0  0  0
 61133  1  0  0  0
 61134  1  0  0  0
 61135  1  0  0  0
 62136  1  0  0  0
 62137  1  0  0  0
 62138  1  0  0  0
 63 65  1  0  0  0
 63139  1  0  0  0
 63140  1  0  0  0
 63141  1  0  0  0
 64142  1  0  0  0
 65143  1  0  0  0
 68 80  1  0  0  0
 71 81  2  0  0  0
 71 83  1  0  0  0
 71144  1  0  0  0
 72 74  1  0  0  0
 72 81  1  0  0  0
 72 82  2  0  0  0
 73 79  1  0  0  0
 73145  1  0  0  0
 73146  1  0  0  0
 73147  1  0  0  0
 74 84  1  0  0  0
 74148  1  0  0  0
 74149  1  0  0  0
 75 76  1  0  0  0
 75 77  1  0  0  0
 75150  1  0  0  0
 75151  1  0  0  0
 76 78  1  0  0  0
 76152  1  0  0  0
 76153  1  0  0  0
 77 80  1  0  0  0
 77154  1  0  0  0
 77155  1  0  0  0
 78 83  1  0  0  0
 78156  1  0  0  0
 78157  1  0  0  0
 79 84  1  0  0  0
 79158  1  0  0  0
 79159  1  0  0  0
 80160  1  0  0  0
 80161  1  0  0  0
 82 83  1  0  0  0
M  ISO  4   1 100  68 101  80 101  84 100
M  END
> <chiral flag>
0

> <version>
0

> <s_m_source_file>
/data/baiqing/PycharmProjects/Reinvent-master-3.2/result/LINK_invent/BTK/process_docking_weight1_custom_sum_contain_oxygen_bond_distance_aromatic_linkinvent_7_9_3/rearranged_h_0054.sdf

> <i_m_source_file_index>
12

> <r_mmod_Potential_Energy-OPLS-2005>
66.225471496582

> <r_mmod_Stretch_Energy-OPLS-2005>
35.9122085571289

> <r_mmod_Bend_Energy-OPLS-2005>
104.20108795166

> <r_mmod_Torsional_Energy-OPLS-2005>
326.746490478516

> <r_mmod_Improper_Torsional_Energy-OPLS-2005>
9.71987152099609

> <r_mmod_Van_der_Waal_Energy-OPLS-2005>
123.562980651855

> <r_mmod_Electrostatic_Energy-OPLS-2005>
-352.699890136719

> <r_mmod_Solvation_Energy-OPLS-2005>
-203.729339599609

> <b_mmod_Minimization_Converged-OPLS-2005>
0

> <r_mmod_RMS_Derivative-OPLS-2005>
4.81456851959229

$$$$
12
                    3D
 Structure written by MMmdl.
157165  0  0  1  0            999 V2000
  -30.5808  -14.9094   20.4278 C   0  0  0  0  0  0
  -30.4515  -12.5652   19.5062 C   0  0  0  0  0  0
  -29.5412  -12.5403   18.2575 C   0  0  0  0  0  0
  -28.0627  -12.3486   18.6499 C   0  0  0  0  0  0
  -27.6415  -13.2560   19.8385 C   0  0  2  0  0  0
  -28.6838  -13.2616   20.9787 C   0  0  0  0  0  0
  -25.2482  -13.8266   20.5641 C   0  0  0  0  0  0
  -24.1811  -13.0470   20.9164 C   0  0  0  0  0  0
  -24.6444  -11.6967   20.8691 C   0  0  0  0  0  0
  -23.9134  -10.4332   21.0379 C   0  0  0  0  0  0
  -24.3676   -9.4240   21.9169 C   0  0  0  0  0  0
  -23.6349   -8.2268   22.0745 C   0  0  0  0  0  0
  -22.4326   -8.0317   21.3540 C   0  0  0  0  0  0
  -21.9947   -9.0297   20.4621 C   0  0  0  0  0  0
  -22.7309  -10.2167   20.3035 C   0  0  0  0  0  0
  -21.6881   -6.0769   22.5291 C   0  0  0  0  0  0
  -21.4029   -6.5654   23.8231 C   0  0  0  0  0  0
  -21.3641   -5.6787   24.9176 C   0  0  0  0  0  0
  -21.6061   -4.3048   24.7233 C   0  0  0  0  0  0
  -21.8802   -3.8157   23.4326 C   0  0  0  0  0  0
  -21.9176   -4.7000   22.3405 C   0  0  0  0  0  0
  -22.7799  -13.5212   21.1799 C   0  0  0  0  0  0
  -22.1648   -4.2172   21.0992 F   0  0  0  0  0  0
  -21.5632   -3.4522   25.7727 F   0  0  0  0  0  0
  -29.9761  -13.6584   20.3965 N   0  0  0  0  0  0
  -26.2941  -12.9509   20.3157 N   0  0  0  0  0  0
  -25.9384  -11.6621   20.5695 N   0  0  0  0  0  0
  -22.0426  -12.8218   22.0370 N   0  0  0  0  0  0
  -25.4118  -15.2007   20.4082 N   0  0  0  0  0  0
  -31.7713  -14.9817   20.1054 O   0  0  0  0  0  0
  -21.6675   -6.8906   21.4247 O   0  0  0  0  0  0
  -22.3445  -14.5499   20.6621 O   0  0  0  0  0  0
  -24.6406  -31.8499   23.1956 C   0  0  0  0  0  0
  -25.9213  -32.4715   23.8307 C   0  0  1  0  0  0
  -27.2131  -27.1503   20.1372 C   0  0  0  0  0  0
  -25.6015  -33.8525   24.2226 N   0  0  0  0  0  0
  -23.4439  -30.4684   21.5432 C   0  0  2  0  0  0
  -24.8928  -28.9073   20.1035 C   0  0  0  0  0  0
  -22.7569  -29.4570   22.4932 C   0  0  0  0  0  0
  -18.0300  -28.1382   22.8519 C   0  0  0  0  0  0
  -24.1490  -36.7243   23.2637 C   0  0  0  0  0  0
  -26.0004  -30.7192   21.3999 C   0  0  0  0  0  0
  -26.0655  -29.3325   20.7388 C   0  0  0  0  0  0
  -27.2222  -28.4638   20.7521 C   0  0  0  0  0  0
  -26.0238  -26.8459   19.4334 C   0  0  0  0  0  0
  -24.8851  -27.6777   19.4326 C   0  0  0  0  0  0
  -23.6650  -29.8024   20.1577 C   0  0  0  0  0  0
  -25.4134  -36.3045   24.0300 C   0  0  1  0  0  0
  -20.5914  -28.3714   23.1295 C   0  0  2  0  0  0
  -20.6813  -26.9441   22.5428 C   0  0  0  0  0  0
  -19.5776  -26.6391   21.5241 C   0  0  0  0  0  0
  -18.1948  -26.7935   22.1635 C   0  0  0  0  0  0
  -19.1558  -28.8871   23.2887 C   0  0  0  0  0  0
  -18.9469  -30.1487   23.8869 C   0  0  0  0  0  0
  -17.6461  -30.6592   24.0566 C   0  0  0  0  0  0
  -25.9103  -34.9410   23.5072 C   0  0  0  0  0  0
  -16.5357  -29.9063   23.6354 C   0  0  0  0  0  0
  -16.7287  -28.6479   23.0389 C   0  0  0  0  0  0
  -26.4543  -31.6565   25.0719 C   0  0  0  0  0  0
  -25.3718  -31.3736   26.1394 C   0  0  0  0  0  0
  -27.0415  -30.2980   24.6276 C   0  0  0  0  0  0
  -27.6110  -32.4289   25.7485 C   0  0  0  0  0  0
  -27.5588  -37.1765   24.8461 C   0  0  0  0  0  0
  -21.4267  -29.3028   22.3665 N   0  0  0  0  0  0
  -26.4286  -37.3754   23.9413 N   0  0  0  0  0  0
  -24.7152  -31.0317   22.1002 N   0  0  0  0  0  0
  -23.4244  -28.8152   23.3086 O   0  0  0  0  0  0
  -28.2508  -26.1484   20.2396 O   0  0  0  0  0  0
  -26.5652  -34.8899   22.4633 O   0  0  0  0  0  0
  -23.5538  -32.1383   23.7165 O   0  0  0  0  0  0
  -28.9060  -22.2341   19.2113 C   0  0  0  0  0  0
  -28.6967  -23.2740   20.1815 C   0  0  0  0  0  0
  -28.9267  -22.7321   21.4768 C   0  0  0  0  0  0
  -29.4537  -20.4921   20.7349 C   0  0  0  0  0  0
  -28.6841  -23.5899   22.7000 C   0  0  0  0  0  0
  -28.5982  -18.5026   22.1473 C   0  0  0  0  0  0
  -31.0706  -18.9434   22.0115 C   0  0  0  0  0  0
  -27.9530  -24.6934   19.8066 C   0  0  0  0  0  0
  -29.9723  -17.6014   20.1703 C   0  0  0  0  0  0
  -29.7509  -18.9128   21.1962 C   0  0  0  0  0  0
  -29.2577  -20.9131   19.4712 N   0  0  0  0  0  0
  -29.3027  -21.4187   21.7132 N   0  0  0  0  0  0
  -29.8135  -16.0837   20.6034 N   0  0  0  0  0  0
  -31.4914  -12.7034   19.2065 H   0  0  0  0  0  0
  -30.4371  -11.6105   20.0353 H   0  0  0  0  0  0
  -29.8599  -11.7545   17.5695 H   0  0  0  0  0  0
  -29.6536  -13.4749   17.7058 H   0  0  0  0  0  0
  -27.9128  -11.3004   18.9102 H   0  0  0  0  0  0
  -27.4206  -12.5351   17.7882 H   0  0  0  0  0  0
  -27.6221  -14.2685   19.4328 H   0  0  0  0  0  0
  -28.7483  -12.2821   21.4568 H   0  0  0  0  0  0
  -28.3939  -13.9656   21.7587 H   0  0  0  0  0  0
  -25.2845   -9.5745   22.4710 H   0  0  0  0  0  0
  -24.0084   -7.4670   22.7474 H   0  0  0  0  0  0
  -21.0871   -8.8849   19.8924 H   0  0  0  0  0  0
  -22.3804  -10.9714   19.6125 H   0  0  0  0  0  0
  -21.2057   -7.6158   23.9742 H   0  0  0  0  0  0
  -21.1467   -6.0509   25.9076 H   0  0  0  0  0  0
  -22.0590   -2.7619   23.2824 H   0  0  0  0  0  0
  -22.4080  -12.0011   22.4955 H   0  0  0  0  0  0
  -21.1013  -13.1216   22.2487 H   0  0  0  0  0  0
  -24.6401  -15.8488   20.5270 H   0  0  0  0  0  0
  -26.2539  -15.6422   20.0567 H   0  0  0  0  0  0
  -26.7292  -32.5305   23.1047 H   0  0  0  0  0  0
  -25.0184  -33.9663   25.0398 H   0  0  0  0  0  0
  -22.7440  -31.2934   21.3967 H   0  0  0  0  0  0
  -23.3767  -35.9558   23.3265 H   0  0  0  0  0  0
  -24.3608  -36.8908   22.2069 H   0  0  0  0  0  0
  -23.7199  -37.6408   23.6697 H   0  0  0  0  0  0
  -26.1564  -31.4813   20.6338 H   0  0  0  0  0  0
  -26.8725  -30.7706   22.0400 H   0  0  0  0  0  0
  -28.1057  -28.7702   21.2915 H   0  0  0  0  0  0
  -25.9208  -25.9267   18.8787 H   0  0  0  0  0  0
  -24.0000  -27.3609   18.8978 H   0  0  0  0  0  0
  -23.7905  -30.5797   19.4044 H   0  0  0  0  0  0
  -22.7777  -29.2430   19.8526 H   0  0  0  0  0  0
  -25.1305  -36.1886   25.0780 H   0  0  0  0  0  0
  -20.9994  -28.3284   24.1424 H   0  0  0  0  0  0
  -20.5798  -26.2312   23.3632 H   0  0  0  0  0  0
  -21.6676  -26.7537   22.1174 H   0  0  0  0  0  0
  -19.6966  -25.6297   21.1280 H   0  0  0  0  0  0
  -19.6689  -27.3197   20.6761 H   0  0  0  0  0  0
  -17.4251  -26.6744   21.3997 H   0  0  0  0  0  0
  -18.0310  -26.0056   22.9000 H   0  0  0  0  0  0
  -19.7932  -30.7347   24.2208 H   0  0  0  0  0  0
  -17.4987  -31.6259   24.5188 H   0  0  0  0  0  0
  -15.5351  -30.2951   23.7669 H   0  0  0  0  0  0
  -15.8692  -28.0772   22.7120 H   0  0  0  0  0  0
  -24.5915  -30.7089   25.7680 H   0  0  0  0  0  0
  -24.8876  -32.2900   26.4767 H   0  0  0  0  0  0
  -25.7964  -30.8925   27.0209 H   0  0  0  0  0  0
  -26.3037  -29.6685   24.1296 H   0  0  0  0  0  0
  -27.4092  -29.7277   25.4815 H   0  0  0  0  0  0
  -27.8916  -30.4248   23.9566 H   0  0  0  0  0  0
  -27.2785  -33.3625   26.2027 H   0  0  0  0  0  0
  -28.3933  -32.6772   25.0301 H   0  0  0  0  0  0
  -28.0780  -31.8422   26.5408 H   0  0  0  0  0  0
  -28.2559  -38.0105   24.7579 H   0  0  0  0  0  0
  -28.1102  -36.2634   24.6176 H   0  0  0  0  0  0
  -27.2323  -37.1304   25.8862 H   0  0  0  0  0  0
  -20.9501  -29.8653   21.6763 H   0  0  0  0  0  0
  -26.0145  -38.2809   24.1432 H   0  0  0  0  0  0
  -28.7100  -22.4471   18.1720 H   0  0  0  0  0  0
  -27.7143  -24.0850   22.6352 H   0  0  0  0  0  0
  -29.4517  -24.3590   22.7635 H   0  0  0  0  0  0
  -28.7137  -23.0026   23.6188 H   0  0  0  0  0  0
  -28.5478  -19.1629   23.0151 H   0  0  0  0  0  0
  -28.7214  -17.4913   22.5404 H   0  0  0  0  0  0
  -27.6291  -18.5493   21.6450 H   0  0  0  0  0  0
  -31.0575  -19.7101   22.7907 H   0  0  0  0  0  0
  -31.9265  -19.1554   21.3683 H   0  0  0  0  0  0
  -31.2616  -17.9893   22.5062 H   0  0  0  0  0  0
  -26.9299  -24.4823   20.1200 H   0  0  0  0  0  0
  -27.9292  -24.7255   18.7157 H   0  0  0  0  0  0
  -30.9293  -17.7122   19.6545 H   0  0  0  0  0  0
  -29.2326  -17.7293   19.3792 H   0  0  0  0  0  0
  -28.8674  -15.8691   20.8839 H   0  0  0  0  0  0
  1 25  1  0  0  0
  1 30  2  0  0  0
  1 83  1  0  0  0
  2  3  1  0  0  0
  2 25  1  0  0  0
  2 84  1  0  0  0
  2 85  1  0  0  0
  3  4  1  0  0  0
  3 86  1  0  0  0
  3 87  1  0  0  0
  4  5  1  0  0  0
  4 88  1  0  0  0
  4 89  1  0  0  0
  5  6  1  0  0  0
  5 26  1  0  0  0
  5 90  1  0  0  0
  6 25  1  0  0  0
  6 91  1  0  0  0
  6 92  1  0  0  0
  7  8  2  0  0  0
  7 26  1  0  0  0
  7 29  1  0  0  0
  8  9  1  0  0  0
  8 22  1  0  0  0
  9 10  1  0  0  0
  9 27  2  0  0  0
 10 11  2  0  0  0
 10 15  1  0  0  0
 11 12  1  0  0  0
 11 93  1  0  0  0
 12 13  2  0  0  0
 12 94  1  0  0  0
 13 14  1  0  0  0
 13 31  1  0  0  0
 14 15  2  0  0  0
 14 95  1  0  0  0
 15 96  1  0  0  0
 16 17  2  0  0  0
 16 21  1  0  0  0
 16 31  1  0  0  0
 17 18  1  0  0  0
 17 97  1  0  0  0
 18 19  2  0  0  0
 18 98  1  0  0  0
 19 20  1  0  0  0
 19 24  1  0  0  0
 20 21  2  0  0  0
 20 99  1  0  0  0
 21 23  1  0  0  0
 22 28  1  0  0  0
 22 32  2  0  0  0
 26 27  1  0  0  0
 28100  1  0  0  0
 28101  1  0  0  0
 29102  1  0  0  0
 29103  1  0  0  0
 33 34  1  0  0  0
 33 66  1  0  0  0
 33 70  2  0  0  0
 34 36  1  0  0  0
 34 59  1  0  0  0
 34104  1  0  0  0
 35 44  2  0  0  0
 35 45  1  0  0  0
 35 68  1  0  0  0
 36 56  1  0  0  0
 36105  1  0  0  0
 37 39  1  0  0  0
 37 47  1  0  0  0
 37 66  1  0  0  0
 37106  1  0  0  0
 38 43  2  0  0  0
 38 46  1  0  0  0
 38 47  1  0  0  0
 39 64  1  0  0  0
 39 67  2  0  0  0
 40 52  1  0  0  0
 40 53  2  0  0  0
 40 58  1  0  0  0
 41107  1  0  0  0
 41108  1  0  0  0
 41109  1  0  0  0
 41 48  1  0  0  0
 42 43  1  0  0  0
 42 66  1  0  0  0
 42110  1  0  0  0
 42111  1  0  0  0
 43 44  1  0  0  0
 44112  1  0  0  0
 45 46  2  0  0  0
 45113  1  0  0  0
 46114  1  0  0  0
 47115  1  0  0  0
 47116  1  0  0  0
 48 56  1  0  0  0
 48 65  1  0  0  0
 48117  1  0  0  0
 49 50  1  0  0  0
 49 53  1  0  0  0
 49 64  1  0  0  0
 49118  1  0  0  0
 50 51  1  0  0  0
 50119  1  0  0  0
 50120  1  0  0  0
 51 52  1  0  0  0
 51121  1  0  0  0
 51122  1  0  0  0
 52123  1  0  0  0
 52124  1  0  0  0
 53 54  1  0  0  0
 54 55  2  0  0  0
 54125  1  0  0  0
 55 57  1  0  0  0
 55126  1  0  0  0
 56 69  2  0  0  0
 57 58  2  0  0  0
 57127  1  0  0  0
 58128  1  0  0  0
 59 60  1  0  0  0
 59 61  1  0  0  0
 59 62  1  0  0  0
 60129  1  0  0  0
 60130  1  0  0  0
 60131  1  0  0  0
 61132  1  0  0  0
 61133  1  0  0  0
 61134  1  0  0  0
 62135  1  0  0  0
 62136  1  0  0  0
 62137  1  0  0  0
 63 65  1  0  0  0
 63138  1  0  0  0
 63139  1  0  0  0
 63140  1  0  0  0
 64141  1  0  0  0
 65142  1  0  0  0
 68 78  1  0  0  0
 71 72  2  0  0  0
 71 81  1  0  0  0
 71143  1  0  0  0
 72 73  1  0  0  0
 72 78  1  0  0  0
 73 75  1  0  0  0
 73 82  2  0  0  0
 74 80  1  0  0  0
 74 81  2  0  0  0
 74 82  1  0  0  0
 75144  1  0  0  0
 75145  1  0  0  0
 75146  1  0  0  0
 76147  1  0  0  0
 76148  1  0  0  0
 76149  1  0  0  0
 76 80  1  0  0  0
 77 80  1  0  0  0
 77150  1  0  0  0
 77151  1  0  0  0
 77152  1  0  0  0
 78153  1  0  0  0
 78154  1  0  0  0
 79 80  1  0  0  0
 79 83  1  0  0  0
 79155  1  0  0  0
 79156  1  0  0  0
 83157  1  0  0  0
M  ISO  4   1 100  68 101  78 101  83 100
M  END
> <chiral flag>
0

> <version>
0

> <s_m_source_file>
/data/baiqing/PycharmProjects/Reinvent-master-3.2/result/LINK_invent/BTK/process_docking_weight1_custom_sum_contain_oxygen_bond_distance_aromatic_linkinvent_7_9_3/rearranged_h_0054.sdf

> <i_m_source_file_index>
13

> <r_mmod_Potential_Energy-OPLS-2005>
50.3563461303711

> <r_mmod_Stretch_Energy-OPLS-2005>
228.254608154297

> <r_mmod_Bend_Energy-OPLS-2005>
273.179870605469

> <r_mmod_Torsional_Energy-OPLS-2005>
227.257522583008

> <r_mmod_Improper_Torsional_Energy-OPLS-2005>
8.58547401428223

> <r_mmod_Van_der_Waal_Energy-OPLS-2005>
141.804641723633

> <r_mmod_Electrostatic_Energy-OPLS-2005>
-776.598449707031

> <r_mmod_Solvation_Energy-OPLS-2005>
-228.82160949707

> <b_mmod_Minimization_Converged-OPLS-2005>
0

> <r_mmod_RMS_Derivative-OPLS-2005>
6.71845579147339

$$$$
13
                    3D
 Structure written by MMmdl.
153161  0  0  1  0            999 V2000
  -30.5974  -14.7342   20.4881 C   0  0  0  0  0  0
  -30.4296  -12.4528   19.4724 C   0  0  0  0  0  0
  -29.5041  -12.4987   18.2379 C   0  0  0  0  0  0
  -28.0370  -12.2971   18.6636 C   0  0  0  0  0  0
  -27.6353  -13.2177   19.8441 C   0  0  2  0  0  0
  -28.6733  -13.1633   20.9842 C   0  0  0  0  0  0
  -25.2524  -13.8159   20.5671 C   0  0  0  0  0  0
  -24.1804  -13.0447   20.9207 C   0  0  0  0  0  0
  -24.6348  -11.6902   20.8740 C   0  0  0  0  0  0
  -23.9022  -10.4296   21.0401 C   0  0  0  0  0  0
  -24.3584   -9.4224   21.9192 C   0  0  0  0  0  0
  -23.6279   -8.2252   22.0747 C   0  0  0  0  0  0
  -22.4272   -8.0281   21.3531 C   0  0  0  0  0  0
  -21.9895   -9.0249   20.4653 C   0  0  0  0  0  0
  -22.7195  -10.2134   20.3064 C   0  0  0  0  0  0
  -21.6845   -6.0729   22.5272 C   0  0  0  0  0  0
  -21.4016   -6.5642   23.8205 C   0  0  0  0  0  0
  -21.3661   -5.6804   24.9182 C   0  0  0  0  0  0
  -21.6017   -4.3060   24.7235 C   0  0  0  0  0  0
  -21.8820   -3.8148   23.4367 C   0  0  0  0  0  0
  -21.9200   -4.6958   22.3417 C   0  0  0  0  0  0
  -22.7849  -13.5261   21.1880 C   0  0  0  0  0  0
  -22.1660   -4.2127   21.0995 F   0  0  0  0  0  0
  -21.5621   -3.4555   25.7757 F   0  0  0  0  0  0
  -29.9780  -13.5103   20.4045 N   0  0  0  0  0  0
  -26.2892  -12.9324   20.3227 N   0  0  0  0  0  0
  -25.9260  -11.6479   20.5725 N   0  0  0  0  0  0
  -22.0492  -12.8239   22.0434 N   0  0  0  0  0  0
  -25.4304  -15.1884   20.4028 N   0  0  0  0  0  0
  -31.7887  -14.8505   20.1861 O   0  0  0  0  0  0
  -21.6653   -6.8867   21.4224 O   0  0  0  0  0  0
  -22.3543  -14.5570   20.6738 O   0  0  0  0  0  0
  -24.6291  -31.8561   23.2021 C   0  0  0  0  0  0
  -25.9117  -32.4764   23.8357 C   0  0  1  0  0  0
  -27.2103  -27.2685   20.1419 C   0  0  0  0  0  0
  -25.5916  -33.8559   24.2272 N   0  0  0  0  0  0
  -23.4275  -30.4776   21.5449 C   0  0  2  0  0  0
  -24.8775  -28.9327   20.1065 C   0  0  0  0  0  0
  -22.7500  -29.4591   22.4933 C   0  0  0  0  0  0
  -18.0318  -28.1370   22.8485 C   0  0  0  0  0  0
  -24.1479  -36.7276   23.2632 C   0  0  0  0  0  0
  -25.9729  -30.7711   21.3820 C   0  0  0  0  0  0
  -26.0474  -29.3963   20.7236 C   0  0  0  0  0  0
  -27.2221  -28.5779   20.7314 C   0  0  0  0  0  0
  -26.0290  -26.8814   19.4750 C   0  0  0  0  0  0
  -24.8736  -27.6843   19.4669 C   0  0  0  0  0  0
  -23.6450  -29.8138   20.1601 C   0  0  0  0  0  0
  -25.4103  -36.3059   24.0327 C   0  0  1  0  0  0
  -20.5906  -28.3691   23.1308 C   0  0  2  0  0  0
  -20.6800  -26.9420   22.5420 C   0  0  0  0  0  0
  -19.5809  -26.6455   21.5175 C   0  0  0  0  0  0
  -18.1980  -26.7925   22.1597 C   0  0  0  0  0  0
  -19.1557  -28.8852   23.2895 C   0  0  0  0  0  0
  -18.9444  -30.1455   23.8922 C   0  0  0  0  0  0
  -17.6431  -30.6567   24.0554 C   0  0  0  0  0  0
  -25.9049  -34.9435   23.5101 C   0  0  0  0  0  0
  -16.5343  -29.9039   23.6310 C   0  0  0  0  0  0
  -16.7300  -28.6453   23.0346 C   0  0  0  0  0  0
  -26.4504  -31.6585   25.0737 C   0  0  0  0  0  0
  -25.3750  -31.3730   26.1473 C   0  0  0  0  0  0
  -27.0360  -30.3008   24.6225 C   0  0  0  0  0  0
  -27.6075  -32.4316   25.7495 C   0  0  0  0  0  0
  -27.5570  -37.1784   24.8473 C   0  0  0  0  0  0
  -21.4197  -29.3073   22.3717 N   0  0  0  0  0  0
  -26.4284  -37.3757   23.9405 N   0  0  0  0  0  0
  -24.6958  -31.0504   22.1006 N   0  0  0  0  0  0
  -23.4211  -28.8081   23.2995 O   0  0  0  0  0  0
  -28.2571  -26.3240   20.1997 O   0  0  0  0  0  0
  -26.5625  -34.8912   22.4674 O   0  0  0  0  0  0
  -23.5438  -32.1374   23.7313 O   0  0  0  0  0  0
  -28.3768  -22.4405   21.3629 C   0  0  0  0  0  0
  -29.6108  -21.9234   19.6998 C   0  0  0  0  0  0
  -28.5423  -23.6181   20.6172 C   0  0  0  0  0  0
  -28.1554  -19.6227   22.4070 C   0  0  0  0  0  0
  -27.9083  -25.0474   20.9119 C   0  0  0  0  0  0
  -29.4098  -18.5803   20.4425 C   0  0  0  0  0  0
  -30.1766  -17.2889   21.0806 C   0  0  0  0  0  0
  -29.2557  -19.9148   21.3597 C   0  0  1  0  0  0
  -29.3470  -23.2410   19.5338 N   0  0  0  0  0  0
  -29.0534  -21.3282   20.7785 N   0  0  0  0  0  0
  -29.8060  -15.8447   20.7361 N   0  0  0  0  0  0
  -31.4695  -12.5854   19.1700 H   0  0  0  0  0  0
  -30.3778  -11.4779   19.9609 H   0  0  0  0  0  0
  -29.7913  -11.7326   17.5160 H   0  0  0  0  0  0
  -29.6060  -13.4580   17.7304 H   0  0  0  0  0  0
  -27.9240  -11.2520   18.9606 H   0  0  0  0  0  0
  -27.3661  -12.4460   17.8167 H   0  0  0  0  0  0
  -27.6274  -14.2329   19.4446 H   0  0  0  0  0  0
  -28.7043  -12.1729   21.4393 H   0  0  0  0  0  0
  -28.3979  -13.8538   21.7837 H   0  0  0  0  0  0
  -25.2709   -9.5727   22.4789 H   0  0  0  0  0  0
  -23.9992   -7.4642   22.7450 H   0  0  0  0  0  0
  -21.0837   -8.8772   19.8950 H   0  0  0  0  0  0
  -22.3640  -10.9689   19.6204 H   0  0  0  0  0  0
  -21.2000   -7.6150   23.9696 H   0  0  0  0  0  0
  -21.1472   -6.0547   25.9074 H   0  0  0  0  0  0
  -22.0590   -2.7602   23.2887 H   0  0  0  0  0  0
  -22.4123  -11.9892   22.4796 H   0  0  0  0  0  0
  -21.1109  -13.1249   22.2642 H   0  0  0  0  0  0
  -24.6731  -15.8535   20.5208 H   0  0  0  0  0  0
  -26.2759  -15.6115   20.0409 H   0  0  0  0  0  0
  -26.7175  -32.5419   23.1081 H   0  0  0  0  0  0
  -25.0050  -33.9710   25.0407 H   0  0  0  0  0  0
  -22.7216  -31.2992   21.3982 H   0  0  0  0  0  0
  -23.3745  -35.9613   23.3310 H   0  0  0  0  0  0
  -24.3558  -36.8883   22.2048 H   0  0  0  0  0  0
  -23.7244  -37.6484   23.6658 H   0  0  0  0  0  0
  -26.1098  -31.5334   20.6143 H   0  0  0  0  0  0
  -26.8520  -30.8229   22.0143 H   0  0  0  0  0  0
  -28.1133  -28.9174   21.2393 H   0  0  0  0  0  0
  -25.9854  -25.9195   18.9839 H   0  0  0  0  0  0
  -23.9814  -27.3276   18.9693 H   0  0  0  0  0  0
  -23.7613  -30.5914   19.4040 H   0  0  0  0  0  0
  -22.7685  -29.2391   19.8572 H   0  0  0  0  0  0
  -25.1279  -36.1916   25.0827 H   0  0  0  0  0  0
  -20.9978  -28.3282   24.1451 H   0  0  0  0  0  0
  -20.5684  -26.2289   23.3595 H   0  0  0  0  0  0
  -21.6687  -26.7445   22.1239 H   0  0  0  0  0  0
  -19.7002  -25.6406   21.1123 H   0  0  0  0  0  0
  -19.6740  -27.3332   20.6756 H   0  0  0  0  0  0
  -17.4266  -26.6641   21.3993 H   0  0  0  0  0  0
  -18.0426  -26.0029   22.8972 H   0  0  0  0  0  0
  -19.7897  -30.7277   24.2341 H   0  0  0  0  0  0
  -17.4958  -31.6243   24.5153 H   0  0  0  0  0  0
  -15.5331  -30.2923   23.7629 H   0  0  0  0  0  0
  -15.8711  -28.0734   22.7092 H   0  0  0  0  0  0
  -24.5920  -30.7076   25.7803 H   0  0  0  0  0  0
  -24.8944  -32.2905   26.4897 H   0  0  0  0  0  0
  -25.8074  -30.8910   27.0254 H   0  0  0  0  0  0
  -26.2961  -29.6738   24.1239 H   0  0  0  0  0  0
  -27.4040  -29.7265   25.4734 H   0  0  0  0  0  0
  -27.8835  -30.4266   23.9482 H   0  0  0  0  0  0
  -27.2709  -33.3611   26.2089 H   0  0  0  0  0  0
  -28.3886  -32.6875   25.0326 H   0  0  0  0  0  0
  -28.0773  -31.8444   26.5394 H   0  0  0  0  0  0
  -28.2600  -38.0060   24.7480 H   0  0  0  0  0  0
  -28.1042  -36.2587   24.6343 H   0  0  0  0  0  0
  -27.2285  -37.1501   25.8874 H   0  0  0  0  0  0
  -20.9377  -29.8844   21.6970 H   0  0  0  0  0  0
  -26.0165  -38.2831   24.1407 H   0  0  0  0  0  0
  -27.8245  -22.3309   22.2878 H   0  0  0  0  0  0
  -30.2571  -21.3803   19.0278 H   0  0  0  0  0  0
  -28.1753  -20.3326   23.2343 H   0  0  0  0  0  0
  -28.2735  -18.6350   22.8497 H   0  0  0  0  0  0
  -27.1610  -19.6499   21.9580 H   0  0  0  0  0  0
  -28.1105  -25.2720   21.9595 H   0  0  0  0  0  0
  -26.8263  -24.9033   20.9007 H   0  0  0  0  0  0
  -28.4128  -18.2787   20.1212 H   0  0  0  0  0  0
  -29.9361  -18.8481   19.5273 H   0  0  0  0  0  0
  -31.2512  -17.4155   20.9310 H   0  0  0  0  0  0
  -30.0534  -17.3414   22.1617 H   0  0  0  0  0  0
  -30.1962  -19.9873   21.9079 H   0  0  0  0  0  0
  -28.8312  -15.6186   20.8640 H   0  0  0  0  0  0
  1 25  1  0  0  0
  1 30  2  0  0  0
  1 81  1  0  0  0
  2  3  1  0  0  0
  2 25  1  0  0  0
  2 82  1  0  0  0
  2 83  1  0  0  0
  3  4  1  0  0  0
  3 84  1  0  0  0
  3 85  1  0  0  0
  4  5  1  0  0  0
  4 86  1  0  0  0
  4 87  1  0  0  0
  5  6  1  0  0  0
  5 26  1  0  0  0
  5 88  1  0  0  0
  6 25  1  0  0  0
  6 89  1  0  0  0
  6 90  1  0  0  0
  7  8  2  0  0  0
  7 26  1  0  0  0
  7 29  1  0  0  0
  8  9  1  0  0  0
  8 22  1  0  0  0
  9 10  1  0  0  0
  9 27  2  0  0  0
 10 11  2  0  0  0
 10 15  1  0  0  0
 11 12  1  0  0  0
 11 91  1  0  0  0
 12 13  2  0  0  0
 12 92  1  0  0  0
 13 14  1  0  0  0
 13 31  1  0  0  0
 14 15  2  0  0  0
 14 93  1  0  0  0
 15 94  1  0  0  0
 16 17  2  0  0  0
 16 21  1  0  0  0
 16 31  1  0  0  0
 17 18  1  0  0  0
 17 95  1  0  0  0
 18 19  2  0  0  0
 18 96  1  0  0  0
 19 20  1  0  0  0
 19 24  1  0  0  0
 20 21  2  0  0  0
 20 97  1  0  0  0
 21 23  1  0  0  0
 22 28  1  0  0  0
 22 32  2  0  0  0
 26 27  1  0  0  0
 28 98  1  0  0  0
 28 99  1  0  0  0
 29100  1  0  0  0
 29101  1  0  0  0
 33 34  1  0  0  0
 33 66  1  0  0  0
 33 70  2  0  0  0
 34 36  1  0  0  0
 34 59  1  0  0  0
 34102  1  0  0  0
 35 44  2  0  0  0
 35 45  1  0  0  0
 35 68  1  0  0  0
 36 56  1  0  0  0
 36103  1  0  0  0
 37 39  1  0  0  0
 37 47  1  0  0  0
 37 66  1  0  0  0
 37104  1  0  0  0
 38 43  2  0  0  0
 38 46  1  0  0  0
 38 47  1  0  0  0
 39 64  1  0  0  0
 39 67  2  0  0  0
 40 52  1  0  0  0
 40 53  2  0  0  0
 40 58  1  0  0  0
 41105  1  0  0  0
 41106  1  0  0  0
 41107  1  0  0  0
 41 48  1  0  0  0
 42 43  1  0  0  0
 42 66  1  0  0  0
 42108  1  0  0  0
 42109  1  0  0  0
 43 44  1  0  0  0
 44110  1  0  0  0
 45 46  2  0  0  0
 45111  1  0  0  0
 46112  1  0  0  0
 47113  1  0  0  0
 47114  1  0  0  0
 48 56  1  0  0  0
 48 65  1  0  0  0
 48115  1  0  0  0
 49 50  1  0  0  0
 49 53  1  0  0  0
 49 64  1  0  0  0
 49116  1  0  0  0
 50 51  1  0  0  0
 50117  1  0  0  0
 50118  1  0  0  0
 51 52  1  0  0  0
 51119  1  0  0  0
 51120  1  0  0  0
 52121  1  0  0  0
 52122  1  0  0  0
 53 54  1  0  0  0
 54 55  2  0  0  0
 54123  1  0  0  0
 55 57  1  0  0  0
 55124  1  0  0  0
 56 69  2  0  0  0
 57 58  2  0  0  0
 57125  1  0  0  0
 58126  1  0  0  0
 59 60  1  0  0  0
 59 61  1  0  0  0
 59 62  1  0  0  0
 60127  1  0  0  0
 60128  1  0  0  0
 60129  1  0  0  0
 61130  1  0  0  0
 61131  1  0  0  0
 61132  1  0  0  0
 62133  1  0  0  0
 62134  1  0  0  0
 62135  1  0  0  0
 63 65  1  0  0  0
 63136  1  0  0  0
 63137  1  0  0  0
 63138  1  0  0  0
 64139  1  0  0  0
 65140  1  0  0  0
 68 75  1  0  0  0
 71 73  2  0  0  0
 71 80  1  0  0  0
 71141  1  0  0  0
 72 79  2  0  0  0
 72 80  1  0  0  0
 72142  1  0  0  0
 73 75  1  0  0  0
 73 79  1  0  0  0
 74143  1  0  0  0
 74144  1  0  0  0
 74145  1  0  0  0
 74 78  1  0  0  0
 75146  1  0  0  0
 75147  1  0  0  0
 76 77  1  0  0  0
 76 78  1  0  0  0
 76148  1  0  0  0
 76149  1  0  0  0
 77 81  1  0  0  0
 77150  1  0  0  0
 77151  1  0  0  0
 78 80  1  0  0  0
 78152  1  0  0  0
 81153  1  0  0  0
M  ISO  4   1 100  68 101  75 101  81 100
M  END
> <chiral flag>
0

> <version>
0

> <s_m_source_file>
/data/baiqing/PycharmProjects/Reinvent-master-3.2/result/LINK_invent/BTK/process_docking_weight1_custom_sum_contain_oxygen_bond_distance_aromatic_linkinvent_7_9_3/rearranged_h_0054.sdf

> <i_m_source_file_index>
14

> <r_mmod_Potential_Energy-OPLS-2005>
216.044281005859

> <r_mmod_Stretch_Energy-OPLS-2005>
121.544967651367

> <r_mmod_Bend_Energy-OPLS-2005>
185.262420654297

> <r_mmod_Torsional_Energy-OPLS-2005>
261.436706542969

> <r_mmod_Improper_Torsional_Energy-OPLS-2005>
5.48777151107788

> <r_mmod_Van_der_Waal_Energy-OPLS-2005>
119.369064331055

> <r_mmod_Electrostatic_Energy-OPLS-2005>
-331.115203857422

> <r_mmod_Solvation_Energy-OPLS-2005>
-235.624816894531

> <b_mmod_Minimization_Converged-OPLS-2005>
0

> <r_mmod_RMS_Derivative-OPLS-2005>
3.65196084976196

$$$$
14
                    3D
 Structure written by MMmdl.
158166  0  0  1  0            999 V2000
  -30.7806  -14.3698   20.7478 C   0  0  0  0  0  0
  -30.4198  -12.3163   19.4121 C   0  0  0  0  0  0
  -29.4960  -12.5489   18.2042 C   0  0  0  0  0  0
  -28.0247  -12.3761   18.6146 C   0  0  0  0  0  0
  -27.6675  -13.2028   19.8753 C   0  0  2  0  0  0
  -28.6928  -12.9627   21.0010 C   0  0  0  0  0  0
  -25.2611  -13.8140   20.5602 C   0  0  0  0  0  0
  -24.1846  -13.0444   20.9117 C   0  0  0  0  0  0
  -24.6368  -11.6898   20.8668 C   0  0  0  0  0  0
  -23.9032  -10.4303   21.0397 C   0  0  0  0  0  0
  -24.3589   -9.4229   21.9184 C   0  0  0  0  0  0
  -23.6266   -8.2254   22.0759 C   0  0  0  0  0  0
  -22.4257   -8.0273   21.3539 C   0  0  0  0  0  0
  -21.9889   -9.0265   20.4662 C   0  0  0  0  0  0
  -22.7203  -10.2146   20.3073 C   0  0  0  0  0  0
  -21.6862   -6.0717   22.5282 C   0  0  0  0  0  0
  -21.4022   -6.5624   23.8212 C   0  0  0  0  0  0
  -21.3657   -5.6782   24.9176 C   0  0  0  0  0  0
  -21.6040   -4.3050   24.7229 C   0  0  0  0  0  0
  -21.8810   -3.8142   23.4346 C   0  0  0  0  0  0
  -21.9190   -4.6953   22.3401 C   0  0  0  0  0  0
  -22.7889  -13.5274   21.1823 C   0  0  0  0  0  0
  -22.1665   -4.2134   21.0986 F   0  0  0  0  0  0
  -21.5632   -3.4528   25.7737 F   0  0  0  0  0  0
  -30.0477  -13.2501   20.4883 N   0  0  0  0  0  0
  -26.3046  -12.9308   20.3301 N   0  0  0  0  0  0
  -25.9305  -11.6469   20.5693 N   0  0  0  0  0  0
  -22.0509  -12.8302   22.0392 N   0  0  0  0  0  0
  -25.4340  -15.1847   20.3960 N   0  0  0  0  0  0
  -31.7306  -14.7177   20.0302 O   0  0  0  0  0  0
  -21.6642   -6.8848   21.4240 O   0  0  0  0  0  0
  -22.3604  -14.5589   20.6673 O   0  0  0  0  0  0
  -24.6100  -31.8690   23.2098 C   0  0  0  0  0  0
  -25.9019  -32.4789   23.8398 C   0  0  1  0  0  0
  -27.2455  -27.4532   20.1060 C   0  0  0  0  0  0
  -25.5900  -33.8595   24.2305 N   0  0  0  0  0  0
  -23.3983  -30.4881   21.5476 C   0  0  2  0  0  0
  -24.8479  -28.9558   20.1117 C   0  0  0  0  0  0
  -22.7377  -29.4670   22.5005 C   0  0  0  0  0  0
  -18.0253  -28.1340   22.8472 C   0  0  0  0  0  0
  -24.1512  -36.7281   23.2641 C   0  0  0  0  0  0
  -25.9234  -30.8337   21.3683 C   0  0  0  0  0  0
  -26.0042  -29.4757   20.7075 C   0  0  0  0  0  0
  -27.2060  -28.7354   20.6956 C   0  0  0  0  0  0
  -26.0751  -26.9424   19.5025 C   0  0  0  0  0  0
  -24.8813  -27.6892   19.5012 C   0  0  0  0  0  0
  -23.6043  -29.8114   20.1647 C   0  0  0  0  0  0
  -25.4130  -36.3083   24.0337 C   0  0  1  0  0  0
  -20.5833  -28.3633   23.1325 C   0  0  2  0  0  0
  -20.6772  -26.9393   22.5353 C   0  0  0  0  0  0
  -19.5711  -26.6358   21.5203 C   0  0  0  0  0  0
  -18.1905  -26.7892   22.1626 C   0  0  0  0  0  0
  -19.1478  -28.8782   23.2911 C   0  0  0  0  0  0
  -18.9435  -30.1382   23.8903 C   0  0  0  0  0  0
  -17.6439  -30.6547   24.0540 C   0  0  0  0  0  0
  -25.9065  -34.9445   23.5112 C   0  0  0  0  0  0
  -16.5337  -29.9053   23.6280 C   0  0  0  0  0  0
  -16.7238  -28.6464   23.0320 C   0  0  0  0  0  0
  -26.4426  -31.6591   25.0741 C   0  0  0  0  0  0
  -25.3675  -31.3743   26.1469 C   0  0  0  0  0  0
  -27.0215  -30.3005   24.6152 C   0  0  0  0  0  0
  -27.6014  -32.4301   25.7501 C   0  0  0  0  0  0
  -27.5581  -37.1801   24.8463 C   0  0  0  0  0  0
  -21.4105  -29.3076   22.3780 N   0  0  0  0  0  0
  -26.4300  -37.3780   23.9404 N   0  0  0  0  0  0
  -24.6591  -31.0821   22.0988 N   0  0  0  0  0  0
  -23.4177  -28.8222   23.3049 O   0  0  0  0  0  0
  -28.4248  -26.7399   20.1214 O   0  0  0  0  0  0
  -26.5609  -34.8886   22.4683 O   0  0  0  0  0  0
  -23.5310  -32.1459   23.7494 O   0  0  0  0  0  0
  -28.9369  -19.7782   21.5195 C   0  0  0  0  0  0
  -29.1041  -20.6400   20.4656 C   0  0  0  0  0  0
  -30.4107  -14.5330   23.1679 C   0  0  0  0  0  0
  -29.2897  -22.1436   20.4637 C   0  0  0  0  0  0
  -28.3573  -22.9421   19.5160 C   0  0  0  0  0  0
  -28.7350  -24.4361   19.3245 C   0  0  0  0  0  0
  -29.0174  -17.1968   21.5738 C   0  0  0  0  0  0
  -30.4235  -16.5901   21.8094 C   0  0  0  0  0  0
  -28.3415  -25.3559   20.4940 C   0  0  0  0  0  0
  -29.2689  -19.8746   19.3108 N   0  0  0  0  0  0
  -29.2218  -18.6117   19.6100 N   0  0  0  0  0  0
  -29.0508  -18.5189   20.9492 N   0  0  0  0  0  0
  -30.3884  -15.1125   21.8162 N   0  0  0  0  0  0
  -30.3159  -11.2921   19.7719 H   0  0  0  0  0  0
  -31.4665  -12.4209   19.1219 H   0  0  0  0  0  0
  -29.7475  -11.8568   17.3975 H   0  0  0  0  0  0
  -29.6500  -13.5523   17.8114 H   0  0  0  0  0  0
  -27.8496  -11.3152   18.8031 H   0  0  0  0  0  0
  -27.3704  -12.6560   17.7874 H   0  0  0  0  0  0
  -27.7244  -14.2560   19.5977 H   0  0  0  0  0  0
  -28.6586  -11.9259   21.3402 H   0  0  0  0  0  0
  -28.4020  -13.5639   21.8615 H   0  0  0  0  0  0
  -25.2737   -9.5729   22.4740 H   0  0  0  0  0  0
  -23.9979   -7.4664   22.7493 H   0  0  0  0  0  0
  -21.0799   -8.8782   19.8980 H   0  0  0  0  0  0
  -22.3647  -10.9673   19.6171 H   0  0  0  0  0  0
  -21.2032   -7.6148   23.9710 H   0  0  0  0  0  0
  -21.1480   -6.0520   25.9067 H   0  0  0  0  0  0
  -22.0588   -2.7598   23.2846 H   0  0  0  0  0  0
  -22.4073  -11.9951   22.4798 H   0  0  0  0  0  0
  -21.1133  -13.1378   22.2583 H   0  0  0  0  0  0
  -24.6647  -15.8361   20.5080 H   0  0  0  0  0  0
  -26.2736  -15.6213   20.0367 H   0  0  0  0  0  0
  -26.7088  -32.5456   23.1176 H   0  0  0  0  0  0
  -25.0014  -33.9742   25.0401 H   0  0  0  0  0  0
  -22.6877  -31.3032   21.4008 H   0  0  0  0  0  0
  -23.3749  -35.9642   23.3292 H   0  0  0  0  0  0
  -24.3631  -36.8893   22.2062 H   0  0  0  0  0  0
  -23.7259  -37.6493   23.6629 H   0  0  0  0  0  0
  -26.8018  -30.8712   22.0011 H   0  0  0  0  0  0
  -26.0542  -31.6111   20.6140 H   0  0  0  0  0  0
  -28.1004  -29.1375   21.1528 H   0  0  0  0  0  0
  -26.0857  -25.9733   19.0280 H   0  0  0  0  0  0
  -23.9969  -27.2816   19.0304 H   0  0  0  0  0  0
  -23.6966  -30.5796   19.3970 H   0  0  0  0  0  0
  -22.7340  -29.2186   19.8773 H   0  0  0  0  0  0
  -25.1297  -36.1919   25.0824 H   0  0  0  0  0  0
  -20.9916  -28.3144   24.1431 H   0  0  0  0  0  0
  -20.5774  -26.2222   23.3522 H   0  0  0  0  0  0
  -21.6620  -26.7513   22.1081 H   0  0  0  0  0  0
  -19.6885  -25.6232   21.1313 H   0  0  0  0  0  0
  -19.6637  -27.3081   20.6657 H   0  0  0  0  0  0
  -17.4185  -26.6621   21.4013 H   0  0  0  0  0  0
  -18.0332  -25.9993   22.8975 H   0  0  0  0  0  0
  -19.7900  -30.7181   24.2343 H   0  0  0  0  0  0
  -17.4997  -31.6208   24.5160 H   0  0  0  0  0  0
  -15.5333  -30.2960   23.7589 H   0  0  0  0  0  0
  -15.8648  -28.0762   22.7043 H   0  0  0  0  0  0
  -24.5828  -30.7094   25.7838 H   0  0  0  0  0  0
  -24.8848  -32.2919   26.4828 H   0  0  0  0  0  0
  -25.8027  -30.8979   27.0267 H   0  0  0  0  0  0
  -26.2787  -29.6859   24.1063 H   0  0  0  0  0  0
  -27.3714  -29.7134   25.4659 H   0  0  0  0  0  0
  -27.8769  -30.4297   23.9499 H   0  0  0  0  0  0
  -27.2646  -33.3628   26.2041 H   0  0  0  0  0  0
  -28.3872  -32.6772   25.0349 H   0  0  0  0  0  0
  -28.0644  -31.8462   26.5457 H   0  0  0  0  0  0
  -28.2573  -38.0109   24.7499 H   0  0  0  0  0  0
  -28.1097  -36.2641   24.6287 H   0  0  0  0  0  0
  -27.2334  -37.1466   25.8877 H   0  0  0  0  0  0
  -20.9241  -29.8911   21.7106 H   0  0  0  0  0  0
  -26.0160  -38.2854   24.1392 H   0  0  0  0  0  0
  -28.8036  -19.9441   22.5813 H   0  0  0  0  0  0
  -29.5673  -14.9023   23.7525 H   0  0  0  0  0  0
  -30.3539  -13.4415   23.1719 H   0  0  0  0  0  0
  -31.3314  -14.7946   23.6944 H   0  0  0  0  0  0
  -30.3264  -22.3571   20.1990 H   0  0  0  0  0  0
  -29.1628  -22.5248   21.4768 H   0  0  0  0  0  0
  -27.3193  -22.8636   19.8372 H   0  0  0  0  0  0
  -28.3952  -22.4804   18.5300 H   0  0  0  0  0  0
  -28.2408  -24.8048   18.4248 H   0  0  0  0  0  0
  -29.8050  -24.5332   19.1325 H   0  0  0  0  0  0
  -28.4795  -17.2690   22.5219 H   0  0  0  0  0  0
  -28.4192  -16.5386   20.9411 H   0  0  0  0  0  0
  -30.8119  -16.9587   22.7626 H   0  0  0  0  0  0
  -31.1213  -16.9642   21.0543 H   0  0  0  0  0  0
  -29.0258  -25.1939   21.3281 H   0  0  0  0  0  0
  -27.3512  -25.0914   20.8667 H   0  0  0  0  0  0
  1 25  1  0  0  0
  1 30  2  0  0  0
  1 83  1  0  0  0
  2  3  1  0  0  0
  2 25  1  0  0  0
  2 84  1  0  0  0
  2 85  1  0  0  0
  3  4  1  0  0  0
  3 86  1  0  0  0
  3 87  1  0  0  0
  4  5  1  0  0  0
  4 88  1  0  0  0
  4 89  1  0  0  0
  5  6  1  0  0  0
  5 26  1  0  0  0
  5 90  1  0  0  0
  6 25  1  0  0  0
  6 91  1  0  0  0
  6 92  1  0  0  0
  7  8  2  0  0  0
  7 26  1  0  0  0
  7 29  1  0  0  0
  8  9  1  0  0  0
  8 22  1  0  0  0
  9 10  1  0  0  0
  9 27  2  0  0  0
 10 11  2  0  0  0
 10 15  1  0  0  0
 11 12  1  0  0  0
 11 93  1  0  0  0
 12 13  2  0  0  0
 12 94  1  0  0  0
 13 14  1  0  0  0
 13 31  1  0  0  0
 14 15  2  0  0  0
 14 95  1  0  0  0
 15 96  1  0  0  0
 16 17  2  0  0  0
 16 21  1  0  0  0
 16 31  1  0  0  0
 17 18  1  0  0  0
 17 97  1  0  0  0
 18 19  2  0  0  0
 18 98  1  0  0  0
 19 20  1  0  0  0
 19 24  1  0  0  0
 20 21  2  0  0  0
 20 99  1  0  0  0
 21 23  1  0  0  0
 22 28  1  0  0  0
 22 32  2  0  0  0
 26 27  1  0  0  0
 28100  1  0  0  0
 28101  1  0  0  0
 29102  1  0  0  0
 29103  1  0  0  0
 33 34  1  0  0  0
 33 66  1  0  0  0
 33 70  2  0  0  0
 34 36  1  0  0  0
 34 59  1  0  0  0
 34104  1  0  0  0
 35 44  2  0  0  0
 35 45  1  0  0  0
 35 68  1  0  0  0
 36 56  1  0  0  0
 36105  1  0  0  0
 37 39  1  0  0  0
 37 47  1  0  0  0
 37 66  1  0  0  0
 37106  1  0  0  0
 38 43  2  0  0  0
 38 46  1  0  0  0
 38 47  1  0  0  0
 39 64  1  0  0  0
 39 67  2  0  0  0
 40 52  1  0  0  0
 40 53  2  0  0  0
 40 58  1  0  0  0
 41107  1  0  0  0
 41108  1  0  0  0
 41109  1  0  0  0
 41 48  1  0  0  0
 42 43  1  0  0  0
 42 66  1  0  0  0
 42110  1  0  0  0
 42111  1  0  0  0
 43 44  1  0  0  0
 44112  1  0  0  0
 45 46  2  0  0  0
 45113  1  0  0  0
 46114  1  0  0  0
 47115  1  0  0  0
 47116  1  0  0  0
 48 56  1  0  0  0
 48 65  1  0  0  0
 48117  1  0  0  0
 49 50  1  0  0  0
 49 53  1  0  0  0
 49 64  1  0  0  0
 49118  1  0  0  0
 50 51  1  0  0  0
 50119  1  0  0  0
 50120  1  0  0  0
 51 52  1  0  0  0
 51121  1  0  0  0
 51122  1  0  0  0
 52123  1  0  0  0
 52124  1  0  0  0
 53 54  1  0  0  0
 54 55  2  0  0  0
 54125  1  0  0  0
 55 57  1  0  0  0
 55126  1  0  0  0
 56 69  2  0  0  0
 57 58  2  0  0  0
 57127  1  0  0  0
 58128  1  0  0  0
 59 60  1  0  0  0
 59 61  1  0  0  0
 59 62  1  0  0  0
 60129  1  0  0  0
 60130  1  0  0  0
 60131  1  0  0  0
 61132  1  0  0  0
 61133  1  0  0  0
 61134  1  0  0  0
 62135  1  0  0  0
 62136  1  0  0  0
 62137  1  0  0  0
 63 65  1  0  0  0
 63138  1  0  0  0
 63139  1  0  0  0
 63140  1  0  0  0
 64141  1  0  0  0
 65142  1  0  0  0
 68 79  1  0  0  0
 71 72  2  0  0  0
 71 82  1  0  0  0
 71143  1  0  0  0
 72 74  1  0  0  0
 72 80  1  0  0  0
 73 83  1  0  0  0
 73144  1  0  0  0
 73145  1  0  0  0
 73146  1  0  0  0
 74 75  1  0  0  0
 74147  1  0  0  0
 74148  1  0  0  0
 75 76  1  0  0  0
 75149  1  0  0  0
 75150  1  0  0  0
 76 79  1  0  0  0
 76151  1  0  0  0
 76152  1  0  0  0
 77 78  1  0  0  0
 77 82  1  0  0  0
 77153  1  0  0  0
 77154  1  0  0  0
 78 83  1  0  0  0
 78155  1  0  0  0
 78156  1  0  0  0
 79157  1  0  0  0
 79158  1  0  0  0
 80 81  2  0  0  0
 81 82  1  0  0  0
M  ISO  4   1 100  68 101  79 101  83 100
M  END
> <chiral flag>
0

> <version>
0

> <s_m_source_file>
/data/baiqing/PycharmProjects/Reinvent-master-3.2/result/LINK_invent/BTK/process_docking_weight1_custom_sum_contain_oxygen_bond_distance_aromatic_linkinvent_7_9_3/rearranged_h_0054.sdf

> <i_m_source_file_index>
15

> <r_mmod_Potential_Energy-OPLS-2005>
39.7895851135254

> <r_mmod_Stretch_Energy-OPLS-2005>
36.2782974243164

> <r_mmod_Bend_Energy-OPLS-2005>
93.0861587524414

> <r_mmod_Torsional_Energy-OPLS-2005>
290.628356933594

> <r_mmod_Improper_Torsional_Energy-OPLS-2005>
3.80920171737671

> <r_mmod_Van_der_Waal_Energy-OPLS-2005>
127.391662597656

> <r_mmod_Electrostatic_Energy-OPLS-2005>
-308.25927734375

> <r_mmod_Solvation_Energy-OPLS-2005>
-213.053359985352

> <b_mmod_Minimization_Converged-OPLS-2005>
0

> <r_mmod_RMS_Derivative-OPLS-2005>
5.26500034332275

$$$$
15
                    3D
 Structure written by MMmdl.
165173  0  0  1  0            999 V2000
  -30.5138  -14.9786   20.5253 C   0  0  0  0  0  0
  -30.4544  -12.6327   19.4992 C   0  0  0  0  0  0
  -29.5271  -12.5713   18.2589 C   0  0  0  0  0  0
  -28.0553  -12.3488   18.6621 C   0  0  0  0  0  0
  -27.6368  -13.2435   19.8561 C   0  0  2  0  0  0
  -28.6861  -13.1726   20.9812 C   0  0  0  0  0  0
  -25.2389  -13.8154   20.5511 C   0  0  0  0  0  0
  -24.1741  -13.0400   20.9144 C   0  0  0  0  0  0
  -24.6393  -11.6898   20.8747 C   0  0  0  0  0  0
  -23.9078  -10.4278   21.0413 C   0  0  0  0  0  0
  -24.3626   -9.4196   21.9191 C   0  0  0  0  0  0
  -23.6295   -8.2233   22.0762 C   0  0  0  0  0  0
  -22.4276   -8.0274   21.3547 C   0  0  0  0  0  0
  -21.9916   -9.0248   20.4653 C   0  0  0  0  0  0
  -22.7246  -10.2124   20.3063 C   0  0  0  0  0  0
  -21.6846   -6.0740   22.5283 C   0  0  0  0  0  0
  -21.4008   -6.5642   23.8219 C   0  0  0  0  0  0
  -21.3663   -5.6793   24.9180 C   0  0  0  0  0  0
  -21.6048   -4.3056   24.7225 C   0  0  0  0  0  0
  -21.8819   -3.8150   23.4345 C   0  0  0  0  0  0
  -21.9184   -4.6970   22.3401 C   0  0  0  0  0  0
  -22.7773  -13.5188   21.1832 C   0  0  0  0  0  0
  -22.1647   -4.2164   21.0975 F   0  0  0  0  0  0
  -21.5630   -3.4529   25.7730 F   0  0  0  0  0  0
  -29.9459  -13.6930   20.4294 N   0  0  0  0  0  0
  -26.2901  -12.9411   20.3283 N   0  0  0  0  0  0
  -25.9337  -11.6542   20.5784 N   0  0  0  0  0  0
  -22.0455  -12.8203   22.0440 N   0  0  0  0  0  0
  -25.3873  -15.1834   20.3591 N   0  0  0  0  0  0
  -31.6617  -15.0773   20.0665 O   0  0  0  0  0  0
  -21.6631   -6.8878   21.4244 O   0  0  0  0  0  0
  -22.3430  -14.5482   20.6681 O   0  0  0  0  0  0
  -24.6438  -31.8421   23.1848 C   0  0  0  0  0  0
  -25.9200  -32.4686   23.8253 C   0  0  1  0  0  0
  -27.2321  -27.1244   20.1762 C   0  0  0  0  0  0
  -25.5944  -33.8492   24.2180 N   0  0  0  0  0  0
  -23.4489  -30.4568   21.5307 C   0  0  2  0  0  0
  -24.9001  -28.8642   20.1270 C   0  0  0  0  0  0
  -22.7563  -29.4536   22.4869 C   0  0  0  0  0  0
  -18.0305  -28.1407   22.8472 C   0  0  0  0  0  0
  -24.1493  -36.7250   23.2644 C   0  0  0  0  0  0
  -26.0033  -30.7129   21.3835 C   0  0  0  0  0  0
  -26.0763  -29.3162   20.7398 C   0  0  0  0  0  0
  -27.2439  -28.4653   20.7376 C   0  0  0  0  0  0
  -26.0268  -26.7598   19.5430 C   0  0  0  0  0  0
  -24.8871  -27.5988   19.5147 C   0  0  0  0  0  0
  -23.6787  -29.7720   20.1560 C   0  0  0  0  0  0
  -25.4126  -36.3024   24.0313 C   0  0  1  0  0  0
  -20.5911  -28.3730   23.1243 C   0  0  2  0  0  0
  -20.6793  -26.9432   22.5415 C   0  0  0  0  0  0
  -19.5772  -26.6387   21.5221 C   0  0  0  0  0  0
  -18.1949  -26.7942   22.1619 C   0  0  0  0  0  0
  -19.1558  -28.8885   23.2852 C   0  0  0  0  0  0
  -18.9482  -30.1476   23.8885 C   0  0  0  0  0  0
  -17.6480  -30.6600   24.0572 C   0  0  0  0  0  0
  -25.9079  -34.9401   23.5060 C   0  0  0  0  0  0
  -16.5370  -29.9098   23.6342 C   0  0  0  0  0  0
  -16.7288  -28.6519   23.0353 C   0  0  0  0  0  0
  -26.4527  -31.6557   25.0699 C   0  0  0  0  0  0
  -25.3713  -31.3735   26.1398 C   0  0  0  0  0  0
  -27.0393  -30.2954   24.6277 C   0  0  0  0  0  0
  -27.6060  -32.4319   25.7483 C   0  0  0  0  0  0
  -27.5573  -37.1779   24.8464 C   0  0  0  0  0  0
  -21.4253  -29.3056   22.3616 N   0  0  0  0  0  0
  -26.4286  -37.3741   23.9406 N   0  0  0  0  0  0
  -24.7184  -31.0266   22.0884 N   0  0  0  0  0  0
  -23.4196  -28.8093   23.3037 O   0  0  0  0  0  0
  -28.3479  -26.2193   20.0882 O   0  0  0  0  0  0
  -26.5665  -34.8900   22.4641 O   0  0  0  0  0  0
  -23.5556  -32.1296   23.7069 O   0  0  0  0  0  0
  -29.6154  -21.1107   22.2104 C   0  0  0  0  0  0
  -29.4185  -20.6244   20.9460 C   0  0  0  0  0  0
  -29.7695  -19.1238   21.1038 C   0  0  0  0  0  0
  -27.8828  -16.8283   24.2889 C   0  0  0  0  0  0
  -27.1641  -17.5225   21.9840 C   0  0  0  0  0  0
  -30.5562  -20.2089   24.3836 C   0  0  0  0  0  0
  -29.0148  -21.7897   19.8630 C   0  0  0  0  0  0
  -29.8640  -17.6534   20.3145 C   0  0  0  0  0  0
  -28.1233  -23.2337   20.0947 C   0  0  0  0  0  0
  -29.4000  -16.1239   22.3797 C   0  0  0  0  0  0
  -28.5156  -24.7745   20.6640 C   0  0  0  0  0  0
  -27.9286  -16.4661   22.7972 C   0  0  0  0  0  0
  -30.2721  -18.9864   22.3248 N   0  0  0  0  0  0
  -30.1368  -20.1306   22.9999 N   0  0  0  0  0  0
  -29.7868  -16.1584   20.9388 N   0  0  0  0  0  0
  -27.1899  -15.3683   22.7012 F   0  0  0  0  0  0
  -31.4783  -12.8249   19.1767 H   0  0  0  0  0  0
  -30.4955  -11.6637   19.9991 H   0  0  0  0  0  0
  -29.8539  -11.7828   17.5795 H   0  0  0  0  0  0
  -29.6102  -13.5062   17.7027 H   0  0  0  0  0  0
  -27.9410  -11.2991   18.9350 H   0  0  0  0  0  0
  -27.3967  -12.5179   17.8090 H   0  0  0  0  0  0
  -27.6218  -14.2686   19.4841 H   0  0  0  0  0  0
  -28.8004  -12.1440   21.3261 H   0  0  0  0  0  0
  -28.3709  -13.7045   21.8608 H   0  0  0  0  0  0
  -25.2767   -9.5677   22.4773 H   0  0  0  0  0  0
  -24.0003   -7.4624   22.7478 H   0  0  0  0  0  0
  -21.0853   -8.8764   19.8954 H   0  0  0  0  0  0
  -22.3700  -10.9664   19.6176 H   0  0  0  0  0  0
  -21.2001   -7.6151   23.9724 H   0  0  0  0  0  0
  -21.1483   -6.0522   25.9083 H   0  0  0  0  0  0
  -22.0599   -2.7616   23.2829 H   0  0  0  0  0  0
  -22.4085  -11.9871   22.4821 H   0  0  0  0  0  0
  -21.1077  -13.1220   22.2669 H   0  0  0  0  0  0
  -24.6317  -15.8367   20.5255 H   0  0  0  0  0  0
  -26.2728  -15.6320   20.1710 H   0  0  0  0  0  0
  -26.7265  -32.5300   23.0981 H   0  0  0  0  0  0
  -25.0060  -33.9609   25.0308 H   0  0  0  0  0  0
  -22.7530  -31.2827   21.3676 H   0  0  0  0  0  0
  -23.3760  -35.9578   23.3292 H   0  0  0  0  0  0
  -24.3581  -36.8901   22.2061 H   0  0  0  0  0  0
  -23.7242  -37.6438   23.6694 H   0  0  0  0  0  0
  -26.1547  -31.4589   20.6022 H   0  0  0  0  0  0
  -26.8759  -30.7739   22.0223 H   0  0  0  0  0  0
  -28.1532  -28.8214   21.2009 H   0  0  0  0  0  0
  -25.9676  -25.7958   19.0584 H   0  0  0  0  0  0
  -23.9895  -27.2493   19.0235 H   0  0  0  0  0  0
  -23.8227  -30.5387   19.3941 H   0  0  0  0  0  0
  -22.7936  -29.2138   19.8450 H   0  0  0  0  0  0
  -25.1316  -36.1846   25.0803 H   0  0  0  0  0  0
  -21.0002  -28.3331   24.1366 H   0  0  0  0  0  0
  -20.5687  -26.2342   23.3637 H   0  0  0  0  0  0
  -21.6666  -26.7443   22.1216 H   0  0  0  0  0  0
  -19.6940  -25.6295   21.1265 H   0  0  0  0  0  0
  -19.6726  -27.3182   20.6736 H   0  0  0  0  0  0
  -17.4224  -26.6680   21.4015 H   0  0  0  0  0  0
  -18.0356  -26.0092   22.9025 H   0  0  0  0  0  0
  -19.7958  -30.7293   24.2252 H   0  0  0  0  0  0
  -17.5037  -31.6271   24.5186 H   0  0  0  0  0  0
  -15.5369  -30.3000   23.7687 H   0  0  0  0  0  0
  -15.8686  -28.0839   22.7080 H   0  0  0  0  0  0
  -24.5910  -30.7065   25.7711 H   0  0  0  0  0  0
  -24.8887  -32.2915   26.4762 H   0  0  0  0  0  0
  -25.8011  -30.8947   27.0210 H   0  0  0  0  0  0
  -26.3008  -29.6666   24.1289 H   0  0  0  0  0  0
  -27.4015  -29.7258   25.4845 H   0  0  0  0  0  0
  -27.8912  -30.4190   23.9586 H   0  0  0  0  0  0
  -27.2659  -33.3642   26.2004 H   0  0  0  0  0  0
  -28.3903  -32.6841   25.0331 H   0  0  0  0  0  0
  -28.0697  -31.8478   26.5445 H   0  0  0  0  0  0
  -28.2579  -38.0085   24.7516 H   0  0  0  0  0  0
  -28.1077  -36.2612   24.6287 H   0  0  0  0  0  0
  -27.2290  -37.1427   25.8867 H   0  0  0  0  0  0
  -20.9469  -29.8759   21.6782 H   0  0  0  0  0  0
  -26.0145  -38.2806   24.1418 H   0  0  0  0  0  0
  -29.4812  -22.1110   22.5997 H   0  0  0  0  0  0
  -28.4242  -17.7553   24.4835 H   0  0  0  0  0  0
  -28.3308  -16.0470   24.9033 H   0  0  0  0  0  0
  -26.8577  -16.9669   24.6342 H   0  0  0  0  0  0
  -27.5187  -18.5294   22.1899 H   0  0  0  0  0  0
  -26.1079  -17.5191   22.2538 H   0  0  0  0  0  0
  -27.2139  -17.3410   20.9123 H   0  0  0  0  0  0
  -29.6814  -20.2196   25.0338 H   0  0  0  0  0  0
  -31.1281  -21.1236   24.5441 H   0  0  0  0  0  0
  -31.1819  -19.3548   24.6456 H   0  0  0  0  0  0
  -28.4739  -21.2734   19.0692 H   0  0  0  0  0  0
  -29.9329  -22.1046   19.3646 H   0  0  0  0  0  0
  -30.8002  -17.6693   19.7548 H   0  0  0  0  0  0
  -29.1069  -17.6643   19.5305 H   0  0  0  0  0  0
  -27.1987  -22.9489   20.5974 H   0  0  0  0  0  0
  -27.7881  -23.4617   19.0825 H   0  0  0  0  0  0
  -29.6230  -15.1498   22.8167 H   0  0  0  0  0  0
  -30.1077  -16.7196   22.9445 H   0  0  0  0  0  0
  -29.5935  -24.7198   20.8201 H   0  0  0  0  0  0
  -28.1210  -24.8287   21.6793 H   0  0  0  0  0  0
  1 25  1  0  0  0
  1 30  2  0  0  0
  1 85  1  0  0  0
  2  3  1  0  0  0
  2 25  1  0  0  0
  2 87  1  0  0  0
  2 88  1  0  0  0
  3  4  1  0  0  0
  3 89  1  0  0  0
  3 90  1  0  0  0
  4  5  1  0  0  0
  4 91  1  0  0  0
  4 92  1  0  0  0
  5  6  1  0  0  0
  5 26  1  0  0  0
  5 93  1  0  0  0
  6 25  1  0  0  0
  6 94  1  0  0  0
  6 95  1  0  0  0
  7  8  2  0  0  0
  7 26  1  0  0  0
  7 29  1  0  0  0
  8  9  1  0  0  0
  8 22  1  0  0  0
  9 10  1  0  0  0
  9 27  2  0  0  0
 10 11  2  0  0  0
 10 15  1  0  0  0
 11 12  1  0  0  0
 11 96  1  0  0  0
 12 13  2  0  0  0
 12 97  1  0  0  0
 13 14  1  0  0  0
 13 31  1  0  0  0
 14 15  2  0  0  0
 14 98  1  0  0  0
 15 99  1  0  0  0
 16 17  2  0  0  0
 16 21  1  0  0  0
 16 31  1  0  0  0
 17 18  1  0  0  0
 17100  1  0  0  0
 18 19  2  0  0  0
 18101  1  0  0  0
 19 20  1  0  0  0
 19 24  1  0  0  0
 20 21  2  0  0  0
 20102  1  0  0  0
 21 23  1  0  0  0
 22 28  1  0  0  0
 22 32  2  0  0  0
 26 27  1  0  0  0
 28103  1  0  0  0
 28104  1  0  0  0
 29105  1  0  0  0
 29106  1  0  0  0
 33 34  1  0  0  0
 33 66  1  0  0  0
 33 70  2  0  0  0
 34 36  1  0  0  0
 34 59  1  0  0  0
 34107  1  0  0  0
 35 44  2  0  0  0
 35 45  1  0  0  0
 35 68  1  0  0  0
 36 56  1  0  0  0
 36108  1  0  0  0
 37 39  1  0  0  0
 37 47  1  0  0  0
 37 66  1  0  0  0
 37109  1  0  0  0
 38 43  2  0  0  0
 38 46  1  0  0  0
 38 47  1  0  0  0
 39 64  1  0  0  0
 39 67  2  0  0  0
 40 52  1  0  0  0
 40 53  2  0  0  0
 40 58  1  0  0  0
 41110  1  0  0  0
 41111  1  0  0  0
 41112  1  0  0  0
 41 48  1  0  0  0
 42 43  1  0  0  0
 42 66  1  0  0  0
 42113  1  0  0  0
 42114  1  0  0  0
 43 44  1  0  0  0
 44115  1  0  0  0
 45 46  2  0  0  0
 45116  1  0  0  0
 46117  1  0  0  0
 47118  1  0  0  0
 47119  1  0  0  0
 48 56  1  0  0  0
 48 65  1  0  0  0
 48120  1  0  0  0
 49 50  1  0  0  0
 49 53  1  0  0  0
 49 64  1  0  0  0
 49121  1  0  0  0
 50 51  1  0  0  0
 50122  1  0  0  0
 50123  1  0  0  0
 51 52  1  0  0  0
 51124  1  0  0  0
 51125  1  0  0  0
 52126  1  0  0  0
 52127  1  0  0  0
 53 54  1  0  0  0
 54 55  2  0  0  0
 54128  1  0  0  0
 55 57  1  0  0  0
 55129  1  0  0  0
 56 69  2  0  0  0
 57 58  2  0  0  0
 57130  1  0  0  0
 58131  1  0  0  0
 59 60  1  0  0  0
 59 61  1  0  0  0
 59 62  1  0  0  0
 60132  1  0  0  0
 60133  1  0  0  0
 60134  1  0  0  0
 61135  1  0  0  0
 61136  1  0  0  0
 61137  1  0  0  0
 62138  1  0  0  0
 62139  1  0  0  0
 62140  1  0  0  0
 63 65  1  0  0  0
 63141  1  0  0  0
 63142  1  0  0  0
 63143  1  0  0  0
 64144  1  0  0  0
 65145  1  0  0  0
 68 81  1  0  0  0
 71 72  2  0  0  0
 71 84  1  0  0  0
 71146  1  0  0  0
 72 73  1  0  0  0
 72 77  1  0  0  0
 73 78  1  0  0  0
 73 83  2  0  0  0
 74147  1  0  0  0
 74148  1  0  0  0
 74149  1  0  0  0
 74 82  1  0  0  0
 75 82  1  0  0  0
 75150  1  0  0  0
 75151  1  0  0  0
 75152  1  0  0  0
 76 84  1  0  0  0
 76153  1  0  0  0
 76154  1  0  0  0
 76155  1  0  0  0
 77 79  1  0  0  0
 77156  1  0  0  0
 77157  1  0  0  0
 78 85  1  0  0  0
 78158  1  0  0  0
 78159  1  0  0  0
 79 81  1  0  0  0
 79160  1  0  0  0
 79161  1  0  0  0
 80 82  1  0  0  0
 80 85  1  0  0  0
 80162  1  0  0  0
 80163  1  0  0  0
 81164  1  0  0  0
 81165  1  0  0  0
 82 86  1  0  0  0
 83 84  1  0  0  0
M  ISO  4   1 100  68 101  81 101  85 100
M  END
> <chiral flag>
0

> <version>
0

> <s_m_source_file>
/data/baiqing/PycharmProjects/Reinvent-master-3.2/result/LINK_invent/BTK/process_docking_weight1_custom_sum_contain_oxygen_bond_distance_aromatic_linkinvent_7_9_3/rearranged_h_0054.sdf

> <i_m_source_file_index>
16

> <r_mmod_Potential_Energy-OPLS-2005>
734.177673339844

> <r_mmod_Stretch_Energy-OPLS-2005>
331.244689941406

> <r_mmod_Bend_Energy-OPLS-2005>
411.676666259766

> <r_mmod_Torsional_Energy-OPLS-2005>
314.730926513672

> <r_mmod_Improper_Torsional_Energy-OPLS-2005>
6.68991708755493

> <r_mmod_Van_der_Waal_Energy-OPLS-2005>
117.9404296875

> <r_mmod_Electrostatic_Energy-OPLS-2005>
-436.787414550781

> <r_mmod_Solvation_Energy-OPLS-2005>
-199.583480834961

> <b_mmod_Minimization_Converged-OPLS-2005>
0

> <r_mmod_RMS_Derivative-OPLS-2005>
1.30396640300751

$$$$
16
                    3D
 Structure written by MMmdl.
159167  0  0  1  0            999 V2000
  -30.5256  -15.0008   20.4532 C   0  0  0  0  0  0
  -30.4290  -12.6268   19.5050 C   0  0  0  0  0  0
  -29.5121  -12.5429   18.2593 C   0  0  0  0  0  0
  -28.0469  -12.3166   18.6755 C   0  0  0  0  0  0
  -27.6204  -13.2486   19.8365 C   0  0  2  0  0  0
  -28.6566  -13.2647   20.9753 C   0  0  0  0  0  0
  -25.2410  -13.8227   20.5723 C   0  0  0  0  0  0
  -24.1707  -13.0437   20.9233 C   0  0  0  0  0  0
  -24.6318  -11.6935   20.8739 C   0  0  0  0  0  0
  -23.9005  -10.4298   21.0407 C   0  0  0  0  0  0
  -24.3562   -9.4219   21.9187 C   0  0  0  0  0  0
  -23.6256   -8.2239   22.0746 C   0  0  0  0  0  0
  -22.4250   -8.0255   21.3526 C   0  0  0  0  0  0
  -21.9867   -9.0225   20.4643 C   0  0  0  0  0  0
  -22.7176  -10.2120   20.3062 C   0  0  0  0  0  0
  -21.6855   -6.0702   22.5260 C   0  0  0  0  0  0
  -21.4026   -6.5619   23.8192 C   0  0  0  0  0  0
  -21.3655   -5.6781   24.9158 C   0  0  0  0  0  0
  -21.6036   -4.3041   24.7228 C   0  0  0  0  0  0
  -21.8823   -3.8123   23.4351 C   0  0  0  0  0  0
  -21.9192   -4.6928   22.3400 C   0  0  0  0  0  0
  -22.7740  -13.5219   21.1912 C   0  0  0  0  0  0
  -22.1657   -4.2103   21.0980 F   0  0  0  0  0  0
  -21.5618   -3.4536   25.7748 F   0  0  0  0  0  0
  -29.9302  -13.7268   20.3962 N   0  0  0  0  0  0
  -26.2802  -12.9436   20.3233 N   0  0  0  0  0  0
  -25.9244  -11.6566   20.5713 N   0  0  0  0  0  0
  -22.0393  -12.8193   22.0477 N   0  0  0  0  0  0
  -25.4190  -15.1940   20.4149 N   0  0  0  0  0  0
  -31.6891  -15.0597   20.0340 O   0  0  0  0  0  0
  -21.6631   -6.8841   21.4223 O   0  0  0  0  0  0
  -22.3413  -14.5517   20.6773 O   0  0  0  0  0  0
  -24.6467  -31.8436   23.1803 C   0  0  0  0  0  0
  -25.9233  -32.4670   23.8243 C   0  0  1  0  0  0
  -27.2067  -27.0902   20.1458 C   0  0  0  0  0  0
  -25.5967  -33.8496   24.2153 N   0  0  0  0  0  0
  -23.4507  -30.4520   21.5346 C   0  0  2  0  0  0
  -24.8966  -28.8714   20.1135 C   0  0  0  0  0  0
  -22.7604  -29.4493   22.4927 C   0  0  0  0  0  0
  -18.0313  -28.1309   22.8491 C   0  0  0  0  0  0
  -24.1479  -36.7241   23.2642 C   0  0  0  0  0  0
  -26.0116  -30.6906   21.3937 C   0  0  0  0  0  0
  -26.0783  -29.3016   20.7300 C   0  0  0  0  0  0
  -27.2360  -28.4301   20.7214 C   0  0  0  0  0  0
  -25.9932  -26.7679   19.4998 C   0  0  0  0  0  0
  -24.8691  -27.6199   19.4820 C   0  0  0  0  0  0
  -23.6757  -29.7771   20.1568 C   0  0  0  0  0  0
  -25.4132  -36.3040   24.0298 C   0  0  1  0  0  0
  -20.5919  -28.3670   23.1234 C   0  0  2  0  0  0
  -20.6786  -26.9391   22.5373 C   0  0  0  0  0  0
  -19.5766  -26.6342   21.5173 C   0  0  0  0  0  0
  -18.1953  -26.7858   22.1604 C   0  0  0  0  0  0
  -19.1560  -28.8816   23.2836 C   0  0  0  0  0  0
  -18.9488  -30.1425   23.8841 C   0  0  0  0  0  0
  -17.6484  -30.6536   24.0534 C   0  0  0  0  0  0
  -25.9103  -34.9410   23.5045 C   0  0  0  0  0  0
  -16.5381  -29.9005   23.6332 C   0  0  0  0  0  0
  -16.7296  -28.6399   23.0393 C   0  0  0  0  0  0
  -26.4534  -31.6581   25.0736 C   0  0  0  0  0  0
  -25.3641  -31.3783   26.1377 C   0  0  0  0  0  0
  -27.0431  -30.2962   24.6391 C   0  0  0  0  0  0
  -27.6079  -32.4397   25.7483 C   0  0  0  0  0  0
  -27.5591  -37.1762   24.8476 C   0  0  0  0  0  0
  -21.4293  -29.2999   22.3651 N   0  0  0  0  0  0
  -26.4305  -37.3750   23.9418 N   0  0  0  0  0  0
  -24.7231  -31.0206   22.0883 N   0  0  0  0  0  0
  -23.4233  -28.8106   23.3143 O   0  0  0  0  0  0
  -28.2503  -26.0842   20.1981 O   0  0  0  0  0  0
  -26.5728  -34.8916   22.4650 O   0  0  0  0  0  0
  -23.5573  -32.1392   23.6953 O   0  0  0  0  0  0
  -28.1496  -19.6041   21.2865 C   0  0  0  0  0  0
  -29.2515  -19.1883   20.5333 C   0  0  0  0  0  0
  -28.8270  -21.5922   20.4503 C   0  0  0  0  0  0
  -27.6123  -18.9562   23.6476 C   0  0  0  0  0  0
  -30.7685  -20.7097   19.1243 C   0  0  0  0  0  0
  -29.3197  -16.2266   22.1610 C   0  0  0  0  0  0
  -27.2214  -18.8254   22.1636 C   0  0  0  0  0  0
  -30.0226  -17.7150   20.2242 C   0  0  0  0  0  0
  -29.0668  -23.2393   20.3248 C   0  0  0  0  0  0
  -27.9625  -24.5321   20.1427 C   0  0  0  0  0  0
  -27.9262  -21.0098   21.2398 N   0  0  0  0  0  0
  -29.6354  -20.5160   20.0077 N   0  0  0  0  0  0
  -29.8052  -16.2161   20.7812 N   0  0  0  0  0  0
  -31.4596  -12.7859   19.1860 H   0  0  0  0  0  0
  -30.4344  -11.6731   20.0363 H   0  0  0  0  0  0
  -29.8382  -11.7381   17.5984 H   0  0  0  0  0  0
  -29.5886  -13.4640   17.6796 H   0  0  0  0  0  0
  -27.9532  -11.2769   18.9926 H   0  0  0  0  0  0
  -27.3806  -12.4324   17.8194 H   0  0  0  0  0  0
  -27.5873  -14.2534   19.4139 H   0  0  0  0  0  0
  -28.7577  -12.2763   21.4235 H   0  0  0  0  0  0
  -28.3061  -13.9095   21.7746 H   0  0  0  0  0  0
  -25.2695   -9.5701   22.4775 H   0  0  0  0  0  0
  -23.9955   -7.4635   22.7473 H   0  0  0  0  0  0
  -21.0795   -8.8728   19.8964 H   0  0  0  0  0  0
  -22.3607  -10.9643   19.6171 H   0  0  0  0  0  0
  -21.2043   -7.6135   23.9680 H   0  0  0  0  0  0
  -21.1469   -6.0522   25.9054 H   0  0  0  0  0  0
  -22.0615   -2.7584   23.2876 H   0  0  0  0  0  0
  -22.3976  -11.9824   22.4832 H   0  0  0  0  0  0
  -21.1020  -13.1232   22.2724 H   0  0  0  0  0  0
  -24.6688  -15.8681   20.5197 H   0  0  0  0  0  0
  -26.2825  -15.6119   20.0897 H   0  0  0  0  0  0
  -26.7317  -32.5245   23.0993 H   0  0  0  0  0  0
  -25.0073  -33.9624   25.0268 H   0  0  0  0  0  0
  -22.7498  -31.2727   21.3694 H   0  0  0  0  0  0
  -23.3770  -35.9537   23.3300 H   0  0  0  0  0  0
  -24.3544  -36.8897   22.2053 H   0  0  0  0  0  0
  -23.7178  -37.6405   23.6706 H   0  0  0  0  0  0
  -26.1932  -31.4420   20.6246 H   0  0  0  0  0  0
  -26.8747  -30.7313   22.0463 H   0  0  0  0  0  0
  -28.1409  -28.7597   21.2119 H   0  0  0  0  0  0
  -25.8762  -25.8113   19.0146 H   0  0  0  0  0  0
  -23.9701  -27.2840   18.9838 H   0  0  0  0  0  0
  -23.8051  -30.5461   19.3942 H   0  0  0  0  0  0
  -22.7906  -29.2108   19.8605 H   0  0  0  0  0  0
  -25.1285  -36.1884   25.0775 H   0  0  0  0  0  0
  -20.9973  -28.3215   24.1369 H   0  0  0  0  0  0
  -20.5631  -26.2311   23.3591 H   0  0  0  0  0  0
  -21.6662  -26.7378   22.1199 H   0  0  0  0  0  0
  -19.6968  -25.6236   21.1252 H   0  0  0  0  0  0
  -19.6660  -27.3108   20.6657 H   0  0  0  0  0  0
  -17.4231  -26.6629   21.3992 H   0  0  0  0  0  0
  -18.0365  -25.9919   22.8916 H   0  0  0  0  0  0
  -19.7960  -30.7258   24.2173 H   0  0  0  0  0  0
  -17.5026  -31.6215   24.5130 H   0  0  0  0  0  0
  -15.5372  -30.2904   23.7621 H   0  0  0  0  0  0
  -15.8702  -28.0671   22.7170 H   0  0  0  0  0  0
  -24.5842  -30.7138   25.7643 H   0  0  0  0  0  0
  -24.8775  -32.2949   26.4714 H   0  0  0  0  0  0
  -25.7803  -30.8982   27.0238 H   0  0  0  0  0  0
  -26.3077  -29.6664   24.1372 H   0  0  0  0  0  0
  -27.4009  -29.7284   25.5000 H   0  0  0  0  0  0
  -27.8998  -30.4190   23.9761 H   0  0  0  0  0  0
  -27.2705  -33.3770   26.1927 H   0  0  0  0  0  0
  -28.3899  -32.6882   25.0289 H   0  0  0  0  0  0
  -28.0768  -31.8643   26.5476 H   0  0  0  0  0  0
  -28.2595  -38.0079   24.7590 H   0  0  0  0  0  0
  -28.1114  -36.2621   24.6234 H   0  0  0  0  0  0
  -27.2349  -37.1324   25.8892 H   0  0  0  0  0  0
  -20.9575  -29.8645   21.6724 H   0  0  0  0  0  0
  -26.0188  -38.2831   24.1397 H   0  0  0  0  0  0
  -26.9747  -18.3478   24.2871 H   0  0  0  0  0  0
  -27.5230  -19.9903   23.9839 H   0  0  0  0  0  0
  -28.6451  -18.6630   23.8288 H   0  0  0  0  0  0
  -31.0748  -19.7616   18.6840 H   0  0  0  0  0  0
  -31.6057  -21.1378   19.6771 H   0  0  0  0  0  0
  -30.4887  -21.3836   18.3144 H   0  0  0  0  0  0
  -29.6125  -17.1424   22.6663 H   0  0  0  0  0  0
  -29.7279  -15.4168   22.7694 H   0  0  0  0  0  0
  -28.2409  -16.1072   22.1924 H   0  0  0  0  0  0
  -27.1567  -17.7961   21.8307 H   0  0  0  0  0  0
  -26.2024  -19.1969   22.0488 H   0  0  0  0  0  0
  -31.0790  -17.9041   20.4205 H   0  0  0  0  0  0
  -29.9985  -17.5790   19.1422 H   0  0  0  0  0  0
  -29.7978  -23.3734   19.5304 H   0  0  0  0  0  0
  -29.6265  -23.4823   21.2260 H   0  0  0  0  0  0
  -27.1986  -24.3857   20.9062 H   0  0  0  0  0  0
  -27.4547  -24.3464   19.1956 H   0  0  0  0  0  0
  1 25  1  0  0  0
  1 30  2  0  0  0
  1 83  1  0  0  0
  2  3  1  0  0  0
  2 25  1  0  0  0
  2 84  1  0  0  0
  2 85  1  0  0  0
  3  4  1  0  0  0
  3 86  1  0  0  0
  3 87  1  0  0  0
  4  5  1  0  0  0
  4 88  1  0  0  0
  4 89  1  0  0  0
  5  6  1  0  0  0
  5 26  1  0  0  0
  5 90  1  0  0  0
  6 25  1  0  0  0
  6 91  1  0  0  0
  6 92  1  0  0  0
  7  8  2  0  0  0
  7 26  1  0  0  0
  7 29  1  0  0  0
  8  9  1  0  0  0
  8 22  1  0  0  0
  9 10  1  0  0  0
  9 27  2  0  0  0
 10 11  2  0  0  0
 10 15  1  0  0  0
 11 12  1  0  0  0
 11 93  1  0  0  0
 12 13  2  0  0  0
 12 94  1  0  0  0
 13 14  1  0  0  0
 13 31  1  0  0  0
 14 15  2  0  0  0
 14 95  1  0  0  0
 15 96  1  0  0  0
 16 17  2  0  0  0
 16 21  1  0  0  0
 16 31  1  0  0  0
 17 18  1  0  0  0
 17 97  1  0  0  0
 18 19  2  0  0  0
 18 98  1  0  0  0
 19 20  1  0  0  0
 19 24  1  0  0  0
 20 21  2  0  0  0
 20 99  1  0  0  0
 21 23  1  0  0  0
 22 28  1  0  0  0
 22 32  2  0  0  0
 26 27  1  0  0  0
 28100  1  0  0  0
 28101  1  0  0  0
 29102  1  0  0  0
 29103  1  0  0  0
 33 34  1  0  0  0
 33 66  1  0  0  0
 33 70  2  0  0  0
 34 36  1  0  0  0
 34 59  1  0  0  0
 34104  1  0  0  0
 35 44  2  0  0  0
 35 45  1  0  0  0
 35 68  1  0  0  0
 36 56  1  0  0  0
 36105  1  0  0  0
 37 39  1  0  0  0
 37 47  1  0  0  0
 37 66  1  0  0  0
 37106  1  0  0  0
 38 43  2  0  0  0
 38 46  1  0  0  0
 38 47  1  0  0  0
 39 64  1  0  0  0
 39 67  2  0  0  0
 40 52  1  0  0  0
 40 53  2  0  0  0
 40 58  1  0  0  0
 41107  1  0  0  0
 41108  1  0  0  0
 41109  1  0  0  0
 41 48  1  0  0  0
 42 43  1  0  0  0
 42 66  1  0  0  0
 42110  1  0  0  0
 42111  1  0  0  0
 43 44  1  0  0  0
 44112  1  0  0  0
 45 46  2  0  0  0
 45113  1  0  0  0
 46114  1  0  0  0
 47115  1  0  0  0
 47116  1  0  0  0
 48 56  1  0  0  0
 48 65  1  0  0  0
 48117  1  0  0  0
 49 50  1  0  0  0
 49 53  1  0  0  0
 49 64  1  0  0  0
 49118  1  0  0  0
 50 51  1  0  0  0
 50119  1  0  0  0
 50120  1  0  0  0
 51 52  1  0  0  0
 51121  1  0  0  0
 51122  1  0  0  0
 52123  1  0  0  0
 52124  1  0  0  0
 53 54  1  0  0  0
 54 55  2  0  0  0
 54125  1  0  0  0
 55 57  1  0  0  0
 55126  1  0  0  0
 56 69  2  0  0  0
 57 58  2  0  0  0
 57127  1  0  0  0
 58128  1  0  0  0
 59 60  1  0  0  0
 59 61  1  0  0  0
 59 62  1  0  0  0
 60129  1  0  0  0
 60130  1  0  0  0
 60131  1  0  0  0
 61132  1  0  0  0
 61133  1  0  0  0
 61134  1  0  0  0
 62135  1  0  0  0
 62136  1  0  0  0
 62137  1  0  0  0
 63 65  1  0  0  0
 63138  1  0  0  0
 63139  1  0  0  0
 63140  1  0  0  0
 64141  1  0  0  0
 65142  1  0  0  0
 68 80  1  0  0  0
 71 72  2  0  0  0
 71 77  1  0  0  0
 71 81  1  0  0  0
 72 78  1  0  0  0
 72 82  1  0  0  0
 73 79  1  0  0  0
 73 81  2  0  0  0
 73 82  1  0  0  0
 74 77  1  0  0  0
 74143  1  0  0  0
 74144  1  0  0  0
 74145  1  0  0  0
 75 82  1  0  0  0
 75146  1  0  0  0
 75147  1  0  0  0
 75148  1  0  0  0
 76 83  1  0  0  0
 76149  1  0  0  0
 76150  1  0  0  0
 76151  1  0  0  0
 77152  1  0  0  0
 77153  1  0  0  0
 78 83  1  0  0  0
 78154  1  0  0  0
 78155  1  0  0  0
 79 80  1  0  0  0
 79156  1  0  0  0
 79157  1  0  0  0
 80158  1  0  0  0
 80159  1  0  0  0
M  ISO  4   1 100  68 101  80 101  83 100
M  END
> <chiral flag>
0

> <version>
0

> <s_m_source_file>
/data/baiqing/PycharmProjects/Reinvent-master-3.2/result/LINK_invent/BTK/process_docking_weight1_custom_sum_contain_oxygen_bond_distance_aromatic_linkinvent_7_9_3/rearranged_h_0054.sdf

> <i_m_source_file_index>
17

> <r_mmod_Potential_Energy-OPLS-2005>
692.842834472656

> <r_mmod_Stretch_Energy-OPLS-2005>
335.544738769531

> <r_mmod_Bend_Energy-OPLS-2005>
317.250061035156

> <r_mmod_Torsional_Energy-OPLS-2005>
246.164093017578

> <r_mmod_Improper_Torsional_Energy-OPLS-2005>
7.6574125289917

> <r_mmod_Van_der_Waal_Energy-OPLS-2005>
115.369781494141

> <r_mmod_Electrostatic_Energy-OPLS-2005>
-341.274719238281

> <r_mmod_Solvation_Energy-OPLS-2005>
-215.526809692383

> <b_mmod_Minimization_Converged-OPLS-2005>
0

> <r_mmod_RMS_Derivative-OPLS-2005>
3.71988248825073

$$$$
17
                    3D
 Structure written by MMmdl.
166174  0  0  1  0            999 V2000
  -30.7731  -14.3739   20.6685 C   0  0  0  0  0  0
  -30.4046  -12.2795   19.4169 C   0  0  0  0  0  0
  -29.4910  -12.5219   18.2002 C   0  0  0  0  0  0
  -28.0103  -12.3845   18.6045 C   0  0  0  0  0  0
  -27.6615  -13.2069   19.8729 C   0  0  2  0  0  0
  -28.6936  -12.9645   20.9936 C   0  0  0  0  0  0
  -25.2573  -13.8174   20.5660 C   0  0  0  0  0  0
  -24.1827  -13.0448   20.9163 C   0  0  0  0  0  0
  -24.6381  -11.6917   20.8711 C   0  0  0  0  0  0
  -23.9046  -10.4303   21.0391 C   0  0  0  0  0  0
  -24.3610   -9.4223   21.9166 C   0  0  0  0  0  0
  -23.6297   -8.2249   22.0746 C   0  0  0  0  0  0
  -22.4276   -8.0277   21.3542 C   0  0  0  0  0  0
  -21.9900   -9.0243   20.4641 C   0  0  0  0  0  0
  -22.7217  -10.2129   20.3043 C   0  0  0  0  0  0
  -21.6850   -6.0724   22.5278 C   0  0  0  0  0  0
  -21.4011   -6.5629   23.8213 C   0  0  0  0  0  0
  -21.3664   -5.6786   24.9178 C   0  0  0  0  0  0
  -21.6052   -4.3044   24.7224 C   0  0  0  0  0  0
  -21.8821   -3.8133   23.4343 C   0  0  0  0  0  0
  -21.9191   -4.6951   22.3394 C   0  0  0  0  0  0
  -22.7851  -13.5246   21.1841 C   0  0  0  0  0  0
  -22.1660   -4.2138   21.0969 F   0  0  0  0  0  0
  -21.5643   -3.4530   25.7738 F   0  0  0  0  0  0
  -30.0366  -13.2470   20.4647 N   0  0  0  0  0  0
  -26.3006  -12.9342   20.3329 N   0  0  0  0  0  0
  -25.9300  -11.6501   20.5710 N   0  0  0  0  0  0
  -22.0490  -12.8250   22.0411 N   0  0  0  0  0  0
  -25.4300  -15.1896   20.4079 N   0  0  0  0  0  0
  -31.8253  -14.5834   20.0516 O   0  0  0  0  0  0
  -21.6643   -6.8871   21.4241 O   0  0  0  0  0  0
  -22.3536  -14.5552   20.6685 O   0  0  0  0  0  0
  -24.6101  -31.8712   23.2137 C   0  0  0  0  0  0
  -25.9015  -32.4839   23.8414 C   0  0  1  0  0  0
  -27.2314  -27.4712   20.0815 C   0  0  0  0  0  0
  -25.5891  -33.8639   24.2346 N   0  0  0  0  0  0
  -23.3959  -30.4949   21.5531 C   0  0  2  0  0  0
  -24.8413  -28.9614   20.1203 C   0  0  0  0  0  0
  -22.7380  -29.4672   22.5010 C   0  0  0  0  0  0
  -18.0262  -28.1373   22.8498 C   0  0  0  0  0  0
  -24.1486  -36.7323   23.2639 C   0  0  0  0  0  0
  -25.9212  -30.8430   21.3644 C   0  0  0  0  0  0
  -25.9981  -29.4765   20.7198 C   0  0  0  0  0  0
  -27.1959  -28.7314   20.7125 C   0  0  0  0  0  0
  -26.0574  -26.9506   19.4988 C   0  0  0  0  0  0
  -24.8617  -27.6925   19.5144 C   0  0  0  0  0  0
  -23.6030  -29.8260   20.1678 C   0  0  0  0  0  0
  -25.4106  -36.3125   24.0342 C   0  0  1  0  0  0
  -20.5847  -28.3650   23.1336 C   0  0  2  0  0  0
  -20.6753  -26.9393   22.5422 C   0  0  0  0  0  0
  -19.5733  -26.6383   21.5216 C   0  0  0  0  0  0
  -18.1912  -26.7921   22.1628 C   0  0  0  0  0  0
  -19.1509  -28.8827   23.2915 C   0  0  0  0  0  0
  -18.9442  -30.1437   23.8918 C   0  0  0  0  0  0
  -17.6446  -30.6585   24.0563 C   0  0  0  0  0  0
  -25.9030  -34.9486   23.5141 C   0  0  0  0  0  0
  -16.5335  -29.9088   23.6323 C   0  0  0  0  0  0
  -16.7252  -28.6502   23.0347 C   0  0  0  0  0  0
  -26.4461  -31.6606   25.0725 C   0  0  0  0  0  0
  -25.3744  -31.3700   26.1486 C   0  0  0  0  0  0
  -27.0285  -30.3055   24.6075 C   0  0  0  0  0  0
  -27.6050  -32.4317   25.7478 C   0  0  0  0  0  0
  -27.5582  -37.1816   24.8466 C   0  0  0  0  0  0
  -21.4115  -29.3027   22.3753 N   0  0  0  0  0  0
  -26.4298  -37.3802   23.9408 N   0  0  0  0  0  0
  -24.6600  -31.0838   22.1025 N   0  0  0  0  0  0
  -23.4171  -28.8213   23.3034 O   0  0  0  0  0  0
  -28.4021  -26.7612   20.0223 O   0  0  0  0  0  0
  -26.5586  -34.8931   22.4698 O   0  0  0  0  0  0
  -23.5307  -32.1455   23.7556 O   0  0  0  0  0  0
  -28.9127  -19.6146   19.6978 C   0  0  0  0  0  0
  -31.3483  -20.7011   20.1532 C   0  0  0  0  0  0
  -29.7834  -19.0983   20.6896 C   0  0  0  0  0  0
  -30.5117  -21.1713   19.1135 C   0  0  0  0  0  0
  -29.2046  -15.3595   23.7803 C   0  0  0  0  0  0
  -29.4867  -17.7996   21.4259 C   0  0  0  0  0  0
  -31.0386  -22.1644   18.0896 C   0  0  0  0  0  0
  -30.4771  -15.1910   22.9263 C   0  0  0  0  0  0
  -30.4941  -16.7163   20.9900 C   0  0  0  0  0  0
  -31.2374  -23.6118   18.5784 C   0  0  0  0  0  0
  -30.2236  -25.8596   18.7083 C   0  0  0  0  0  0
  -28.9278  -26.6781   18.7019 C   0  0  0  0  0  0
  -30.9818  -19.6743   20.9529 N   0  0  0  0  0  0
  -29.2696  -20.6623   18.9112 N   0  0  0  0  0  0
  -30.2486  -15.3372   21.4728 N   0  0  0  0  0  0
  -29.9867  -24.3934   18.7095 N   0  3  0  0  0  0
  -31.4543  -12.3469   19.1245 H   0  0  0  0  0  0
  -30.2737  -11.2625   19.7909 H   0  0  0  0  0  0
  -29.7308  -11.8182   17.4013 H   0  0  0  0  0  0
  -29.6738  -13.5183   17.7957 H   0  0  0  0  0  0
  -27.8129  -11.3265   18.7814 H   0  0  0  0  0  0
  -27.3655  -12.6806   17.7762 H   0  0  0  0  0  0
  -27.7149  -14.2602   19.5957 H   0  0  0  0  0  0
  -28.6514  -11.9312   21.3409 H   0  0  0  0  0  0
  -28.4379  -13.5735   21.8530 H   0  0  0  0  0  0
  -25.2763   -9.5707   22.4727 H   0  0  0  0  0  0
  -24.0013   -7.4644   22.7464 H   0  0  0  0  0  0
  -21.0831   -8.8740   19.8953 H   0  0  0  0  0  0
  -22.3667  -10.9647   19.6136 H   0  0  0  0  0  0
  -21.1995   -7.6140   23.9717 H   0  0  0  0  0  0
  -21.1494   -6.0511   25.9085 H   0  0  0  0  0  0
  -22.0597   -2.7596   23.2841 H   0  0  0  0  0  0
  -22.4093  -11.9909   22.4815 H   0  0  0  0  0  0
  -21.1101  -13.1263   22.2591 H   0  0  0  0  0  0
  -24.6710  -15.8508   20.5307 H   0  0  0  0  0  0
  -26.2921  -15.6271   20.1081 H   0  0  0  0  0  0
  -26.7083  -32.5568   23.1183 H   0  0  0  0  0  0
  -25.0050  -33.9807   25.0495 H   0  0  0  0  0  0
  -22.6834  -31.3108   21.4157 H   0  0  0  0  0  0
  -23.3744  -35.9663   23.3323 H   0  0  0  0  0  0
  -24.3577  -36.8910   22.2049 H   0  0  0  0  0  0
  -23.7246  -37.6542   23.6630 H   0  0  0  0  0  0
  -26.0276  -31.6061   20.5917 H   0  0  0  0  0  0
  -26.8122  -30.9006   21.9776 H   0  0  0  0  0  0
  -28.0925  -29.1274   21.1689 H   0  0  0  0  0  0
  -26.0644  -25.9764   19.0302 H   0  0  0  0  0  0
  -23.9695  -27.2868   19.0569 H   0  0  0  0  0  0
  -23.7090  -30.5991   19.4062 H   0  0  0  0  0  0
  -22.7281  -29.2431   19.8745 H   0  0  0  0  0  0
  -25.1282  -36.1998   25.0837 H   0  0  0  0  0  0
  -20.9944  -28.3208   24.1454 H   0  0  0  0  0  0
  -20.5654  -26.2258   23.3601 H   0  0  0  0  0  0
  -21.6625  -26.7443   22.1212 H   0  0  0  0  0  0
  -19.6894  -25.6301   21.1225 H   0  0  0  0  0  0
  -19.6676  -27.3207   20.6757 H   0  0  0  0  0  0
  -17.4187  -26.6676   21.4025 H   0  0  0  0  0  0
  -18.0310  -26.0051   22.9011 H   0  0  0  0  0  0
  -19.7921  -30.7241   24.2300 H   0  0  0  0  0  0
  -17.5006  -31.6267   24.5162 H   0  0  0  0  0  0
  -15.5338  -30.2997   23.7636 H   0  0  0  0  0  0
  -15.8652  -28.0828   22.7051 H   0  0  0  0  0  0
  -24.5909  -30.7056   25.7826 H   0  0  0  0  0  0
  -24.8947  -32.2852   26.4965 H   0  0  0  0  0  0
  -25.8113  -30.8847   27.0224 H   0  0  0  0  0  0
  -26.2815  -29.6821   24.1148 H   0  0  0  0  0  0
  -27.4086  -29.7282   25.4514 H   0  0  0  0  0  0
  -27.8636  -30.4380   23.9194 H   0  0  0  0  0  0
  -27.2677  -33.3601   26.2098 H   0  0  0  0  0  0
  -28.3836  -32.6903   25.0288 H   0  0  0  0  0  0
  -28.0747  -31.8416   26.5357 H   0  0  0  0  0  0
  -28.2616  -38.0098   24.7504 H   0  0  0  0  0  0
  -28.1061  -36.2632   24.6304 H   0  0  0  0  0  0
  -27.2298  -37.1486   25.8869 H   0  0  0  0  0  0
  -20.9268  -29.8761   21.6994 H   0  0  0  0  0  0
  -26.0194  -38.2887   24.1398 H   0  0  0  0  0  0
  -27.9599  -19.1488   19.4933 H   0  0  0  0  0  0
  -32.3397  -21.1043   20.3025 H   0  0  0  0  0  0
  -29.4719  -15.5576   24.8184 H   0  0  0  0  0  0
  -28.5876  -14.4630   23.7912 H   0  0  0  0  0  0
  -28.5771  -16.1849   23.4491 H   0  0  0  0  0  0
  -28.4657  -17.4802   21.2136 H   0  0  0  0  0  0
  -29.5500  -17.9902   22.4972 H   0  0  0  0  0  0
  -30.4076  -22.1494   17.2000 H   0  0  0  0  0  0
  -32.0055  -21.7810   17.7603 H   0  0  0  0  0  0
  -30.9178  -14.2187   23.1624 H   0  0  0  0  0  0
  -31.2221  -15.9185   23.2528 H   0  0  0  0  0  0
  -31.5066  -17.0174   21.2661 H   0  0  0  0  0  0
  -30.4811  -16.7232   19.8962 H   0  0  0  0  0  0
  -31.8686  -24.1077   17.8393 H   0  0  0  0  0  0
  -31.7938  -23.6373   19.5164 H   0  0  0  0  0  0
  -30.8506  -26.1507   19.5517 H   0  0  0  0  0  0
  -30.7761  -26.1186   17.8041 H   0  0  0  0  0  0
  -28.2128  -26.2576   17.9933 H   0  0  0  0  0  0
  -29.1502  -27.6908   18.3601 H   0  0  0  0  0  0
  -29.5021  -24.1231   19.5522 H   0  0  0  0  0  0
  -29.3883  -24.1648   17.9308 H   0  0  0  0  0  0
  1 25  1  0  0  0
  1 30  2  0  0  0
  1 85  1  0  0  0
  2  3  1  0  0  0
  2 25  1  0  0  0
  2 87  1  0  0  0
  2 88  1  0  0  0
  3  4  1  0  0  0
  3 89  1  0  0  0
  3 90  1  0  0  0
  4  5  1  0  0  0
  4 91  1  0  0  0
  4 92  1  0  0  0
  5  6  1  0  0  0
  5 26  1  0  0  0
  5 93  1  0  0  0
  6 25  1  0  0  0
  6 94  1  0  0  0
  6 95  1  0  0  0
  7  8  2  0  0  0
  7 26  1  0  0  0
  7 29  1  0  0  0
  8  9  1  0  0  0
  8 22  1  0  0  0
  9 10  1  0  0  0
  9 27  2  0  0  0
 10 11  2  0  0  0
 10 15  1  0  0  0
 11 12  1  0  0  0
 11 96  1  0  0  0
 12 13  2  0  0  0
 12 97  1  0  0  0
 13 14  1  0  0  0
 13 31  1  0  0  0
 14 15  2  0  0  0
 14 98  1  0  0  0
 15 99  1  0  0  0
 16 17  2  0  0  0
 16 21  1  0  0  0
 16 31  1  0  0  0
 17 18  1  0  0  0
 17100  1  0  0  0
 18 19  2  0  0  0
 18101  1  0  0  0
 19 20  1  0  0  0
 19 24  1  0  0  0
 20 21  2  0  0  0
 20102  1  0  0  0
 21 23  1  0  0  0
 22 28  1  0  0  0
 22 32  2  0  0  0
 26 27  1  0  0  0
 28103  1  0  0  0
 28104  1  0  0  0
 29105  1  0  0  0
 29106  1  0  0  0
 33 34  1  0  0  0
 33 66  1  0  0  0
 33 70  2  0  0  0
 34 36  1  0  0  0
 34 59  1  0  0  0
 34107  1  0  0  0
 35 44  2  0  0  0
 35 45  1  0  0  0
 35 68  1  0  0  0
 36 56  1  0  0  0
 36108  1  0  0  0
 37 39  1  0  0  0
 37 47  1  0  0  0
 37 66  1  0  0  0
 37109  1  0  0  0
 38 43  2  0  0  0
 38 46  1  0  0  0
 38 47  1  0  0  0
 39 64  1  0  0  0
 39 67  2  0  0  0
 40 52  1  0  0  0
 40 53  2  0  0  0
 40 58  1  0  0  0
 41110  1  0  0  0
 41111  1  0  0  0
 41112  1  0  0  0
 41 48  1  0  0  0
 42 43  1  0  0  0
 42 66  1  0  0  0
 42113  1  0  0  0
 42114  1  0  0  0
 43 44  1  0  0  0
 44115  1  0  0  0
 45 46  2  0  0  0
 45116  1  0  0  0
 46117  1  0  0  0
 47118  1  0  0  0
 47119  1  0  0  0
 48 56  1  0  0  0
 48 65  1  0  0  0
 48120  1  0  0  0
 49 50  1  0  0  0
 49 53  1  0  0  0
 49 64  1  0  0  0
 49121  1  0  0  0
 50 51  1  0  0  0
 50122  1  0  0  0
 50123  1  0  0  0
 51 52  1  0  0  0
 51124  1  0  0  0
 51125  1  0  0  0
 52126  1  0  0  0
 52127  1  0  0  0
 53 54  1  0  0  0
 54 55  2  0  0  0
 54128  1  0  0  0
 55 57  1  0  0  0
 55129  1  0  0  0
 56 69  2  0  0  0
 57 58  2  0  0  0
 57130  1  0  0  0
 58131  1  0  0  0
 59 60  1  0  0  0
 59 61  1  0  0  0
 59 62  1  0  0  0
 60132  1  0  0  0
 60133  1  0  0  0
 60134  1  0  0  0
 61135  1  0  0  0
 61136  1  0  0  0
 61137  1  0  0  0
 62138  1  0  0  0
 62139  1  0  0  0
 62140  1  0  0  0
 63 65  1  0  0  0
 63141  1  0  0  0
 63142  1  0  0  0
 63143  1  0  0  0
 64144  1  0  0  0
 65145  1  0  0  0
 68 82  1  0  0  0
 71 73  2  0  0  0
 71 84  1  0  0  0
 71146  1  0  0  0
 72 74  1  0  0  0
 72 83  2  0  0  0
 72147  1  0  0  0
 73 76  1  0  0  0
 73 83  1  0  0  0
 74 77  1  0  0  0
 74 84  2  0  0  0
 75 78  1  0  0  0
 75148  1  0  0  0
 75149  1  0  0  0
 75150  1  0  0  0
 76 79  1  0  0  0
 76151  1  0  0  0
 76152  1  0  0  0
 77 80  1  0  0  0
 77153  1  0  0  0
 77154  1  0  0  0
 78 85  1  0  0  0
 78155  1  0  0  0
 78156  1  0  0  0
 79 85  1  0  0  0
 79157  1  0  0  0
 79158  1  0  0  0
 80 86  1  0  0  0
 80159  1  0  0  0
 80160  1  0  0  0
 81 82  1  0  0  0
 81 86  1  0  0  0
 81161  1  0  0  0
 81162  1  0  0  0
 82163  1  0  0  0
 82164  1  0  0  0
 86165  1  0  0  0
 86166  1  0  0  0
M  CHG  1  86   1
M  ISO  4   1 100  68 101  82 101  85 100
M  END
> <chiral flag>
0

> <version>
0

> <s_m_source_file>
/data/baiqing/PycharmProjects/Reinvent-master-3.2/result/LINK_invent/BTK/process_docking_weight1_custom_sum_contain_oxygen_bond_distance_aromatic_linkinvent_7_9_3/rearranged_h_0054.sdf

> <i_m_source_file_index>
18

> <r_mmod_Potential_Energy-OPLS-2005>
45.6943283081055

> <r_mmod_Stretch_Energy-OPLS-2005>
37.5162773132324

> <r_mmod_Bend_Energy-OPLS-2005>
105.53377532959

> <r_mmod_Torsional_Energy-OPLS-2005>
314.66796875

> <r_mmod_Improper_Torsional_Energy-OPLS-2005>
7.88715744018555

> <r_mmod_Van_der_Waal_Energy-OPLS-2005>
164.849914550781

> <r_mmod_Electrostatic_Energy-OPLS-2005>
-148.432739257812

> <r_mmod_Solvation_Energy-OPLS-2005>
-443.854766845703

> <b_mmod_Minimization_Converged-OPLS-2005>
0

> <r_mmod_RMS_Derivative-OPLS-2005>
1.59861576557159

$$$$
18
                    3D
 Structure written by MMmdl.
142150  0  0  1  0            999 V2000
  -30.2305  -15.7044   20.3194 C   0  0  0  0  0  0
  -30.4347  -13.1171   19.5631 C   0  0  0  0  0  0
  -29.5663  -12.6796   18.3430 C   0  0  0  0  0  0
  -28.1390  -12.3077   18.7742 C   0  0  0  0  0  0
  -27.5984  -13.3149   19.8119 C   0  0  2  0  0  0
  -28.6049  -13.6560   20.9353 C   0  0  0  0  0  0
  -25.2336  -13.8295   20.5783 C   0  0  0  0  0  0
  -24.1726  -13.0436   20.9268 C   0  0  0  0  0  0
  -24.6432  -11.6949   20.8737 C   0  0  0  0  0  0
  -23.9130  -10.4296   21.0382 C   0  0  0  0  0  0
  -24.3661   -9.4211   21.9171 C   0  0  0  0  0  0
  -23.6318   -8.2254   22.0751 C   0  0  0  0  0  0
  -22.4298   -8.0291   21.3543 C   0  0  0  0  0  0
  -21.9945   -9.0266   20.4642 C   0  0  0  0  0  0
  -22.7290  -10.2136   20.3042 C   0  0  0  0  0  0
  -21.6862   -6.0743   22.5278 C   0  0  0  0  0  0
  -21.4021   -6.5643   23.8212 C   0  0  0  0  0  0
  -21.3663   -5.6794   24.9173 C   0  0  0  0  0  0
  -21.6044   -4.3055   24.7222 C   0  0  0  0  0  0
  -21.8819   -3.8150   23.4343 C   0  0  0  0  0  0
  -21.9195   -4.6969   22.3400 C   0  0  0  0  0  0
  -22.7738  -13.5162   21.1917 C   0  0  0  0  0  0
  -22.1662   -4.2154   21.0978 F   0  0  0  0  0  0
  -21.5628   -3.4539   25.7735 F   0  0  0  0  0  0
  -29.7886  -14.2963   20.3093 N   0  0  0  0  0  0
  -26.2787  -12.9637   20.3197 N   0  0  0  0  0  0
  -25.9380  -11.6701   20.5657 N   0  0  0  0  0  0
  -22.0409  -12.8133   22.0470 N   0  0  0  0  0  0
  -25.3942  -15.2040   20.4269 N   0  0  0  0  0  0
  -31.4613  -15.6674   20.1055 O   0  0  0  0  0  0
  -21.6652   -6.8893   21.4243 O   0  0  0  0  0  0
  -22.3408  -14.5463   20.6762 O   0  0  0  0  0  0
  -24.6897  -31.7931   23.1466 C   0  0  0  0  0  0
  -25.9448  -32.4435   23.8035 C   0  0  1  0  0  0
  -27.2305  -26.6432   20.2215 C   0  0  0  0  0  0
  -25.6002  -33.8263   24.1916 N   0  0  0  0  0  0
  -23.5189  -30.3922   21.5019 C   0  0  2  0  0  0
  -24.9780  -28.7212   20.1204 C   0  0  0  0  0  0
  -22.7795  -29.4278   22.4692 C   0  0  0  0  0  0
  -18.0344  -28.1426   22.8454 C   0  0  0  0  0  0
  -24.1494  -36.7140   23.2653 C   0  0  0  0  0  0
  -26.1024  -30.5066   21.4202 C   0  0  0  0  0  0
  -26.1683  -29.0647   20.7720 C   0  0  0  0  0  0
  -27.2770  -28.0560   20.7877 C   0  0  0  0  0  0
  -26.0062  -26.5254   19.5107 C   0  0  0  0  0  0
  -24.9397  -27.4780   19.4653 C   0  0  0  0  0  0
  -23.7770  -29.6841   20.1399 C   0  0  0  0  0  0
  -25.4148  -36.2876   24.0275 C   0  0  1  0  0  0
  -20.5983  -28.3789   23.1131 C   0  0  2  0  0  0
  -20.6808  -26.9441   22.5406 C   0  0  0  0  0  0
  -19.5785  -26.6371   21.5219 C   0  0  0  0  0  0
  -18.1967  -26.7954   22.1617 C   0  0  0  0  0  0
  -19.1612  -28.8933   23.2772 C   0  0  0  0  0  0
  -18.9515  -30.1515   23.8819 C   0  0  0  0  0  0
  -17.6505  -30.6607   24.0549 C   0  0  0  0  0  0
  -25.9132  -34.9268   23.4937 C   0  0  0  0  0  0
  -16.5394  -29.9089   23.6351 C   0  0  0  0  0  0
  -16.7323  -28.6511   23.0369 C   0  0  0  0  0  0
  -26.4605  -31.6495   25.0682 C   0  0  0  0  0  0
  -25.3653  -31.3832   26.1286 C   0  0  0  0  0  0
  -27.0545  -30.2826   24.6626 C   0  0  0  0  0  0
  -27.6042  -32.4373   25.7501 C   0  0  0  0  0  0
  -27.5563  -37.1727   24.8465 C   0  0  0  0  0  0
  -21.4436  -29.3025   22.3442 N   0  0  0  0  0  0
  -26.4268  -37.3645   23.9407 N   0  0  0  0  0  0
  -24.7945  -30.9317   22.0753 N   0  0  0  0  0  0
  -23.4209  -28.7883   23.3062 O   0  0  0  0  0  0
  -28.1795  -25.3912   20.2946 O   0  0  0  0  0  0
  -26.5780  -34.8856   22.4560 O   0  0  0  0  0  0
  -23.5902  -32.1031   23.6381 O   0  0  0  0  0  0
  -30.1283  -21.4161   20.4088 C   0  0  0  0  0  0
  -28.3708  -20.4221   20.2519 C   0  0  0  0  0  0
  -28.7504  -21.8925   20.2778 C   0  0  0  0  0  0
  -27.9026  -23.6317   20.1626 C   0  0  0  0  0  0
  -29.2964  -17.3597   20.4861 C   0  0  0  0  0  0
  -30.4335  -20.0376   20.4599 N   0  0  0  0  0  0
  -29.3423  -19.1880   20.3344 N   0  0  0  0  0  0
  -31.4261  -13.3896   19.2004 H   0  0  0  0  0  0
  -30.6042  -12.2751   20.2363 H   0  0  0  0  0  0
  -30.0329  -11.8428   17.8215 H   0  0  0  0  0  0
  -29.5235  -13.5018   17.6271 H   0  0  0  0  0  0
  -28.1706  -11.3112   19.2165 H   0  0  0  0  0  0
  -27.4769  -12.2429   17.9099 H   0  0  0  0  0  0
  -27.4601  -14.2345   19.2418 H   0  0  0  0  0  0
  -28.8648  -12.7756   21.5249 H   0  0  0  0  0  0
  -28.1564  -14.3656   21.6322 H   0  0  0  0  0  0
  -25.2802   -9.5685   22.4753 H   0  0  0  0  0  0
  -24.0019   -7.4649   22.7477 H   0  0  0  0  0  0
  -21.0874   -8.8794   19.8950 H   0  0  0  0  0  0
  -22.3747  -10.9675   19.6153 H   0  0  0  0  0  0
  -21.2014   -7.6151   23.9717 H   0  0  0  0  0  0
  -21.1485   -6.0523   25.9077 H   0  0  0  0  0  0
  -22.0593   -2.7612   23.2841 H   0  0  0  0  0  0
  -22.4056  -11.9808   22.4857 H   0  0  0  0  0  0
  -21.1017  -13.1126   22.2677 H   0  0  0  0  0  0
  -24.6248  -15.8536   20.5483 H   0  0  0  0  0  0
  -26.2417  -15.6501   20.1014 H   0  0  0  0  0  0
  -26.7535  -32.4892   23.0749 H   0  0  0  0  0  0
  -25.0059  -33.9290   25.0010 H   0  0  0  0  0  0
  -22.8474  -31.2310   21.3067 H   0  0  0  0  0  0
  -23.3776  -35.9448   23.3259 H   0  0  0  0  0  0
  -24.3557  -36.8863   22.2078 H   0  0  0  0  0  0
  -23.7235  -37.6293   23.6775 H   0  0  0  0  0  0
  -26.3113  -31.2270   20.6281 H   0  0  0  0  0  0
  -26.9508  -30.5777   22.0881 H   0  0  0  0  0  0
  -28.1711  -28.3272   21.3310 H   0  0  0  0  0  0
  -25.8280  -25.5882   19.0029 H   0  0  0  0  0  0
  -24.0436  -27.2052   18.9249 H   0  0  0  0  0  0
  -23.9577  -30.4417   19.3764 H   0  0  0  0  0  0
  -22.8803  -29.1542   19.8139 H   0  0  0  0  0  0
  -25.1359  -36.1629   25.0764 H   0  0  0  0  0  0
  -21.0064  -28.3422   24.1260 H   0  0  0  0  0  0
  -20.5671  -26.2413   23.3673 H   0  0  0  0  0  0
  -21.6669  -26.7378   22.1223 H   0  0  0  0  0  0
  -19.6940  -25.6261   21.1301 H   0  0  0  0  0  0
  -19.6732  -27.3135   20.6712 H   0  0  0  0  0  0
  -17.4238  -26.6700   21.4017 H   0  0  0  0  0  0
  -18.0347  -26.0113   22.9027 H   0  0  0  0  0  0
  -19.7989  -30.7352   24.2153 H   0  0  0  0  0  0
  -17.5053  -31.6277   24.5169 H   0  0  0  0  0  0
  -15.5390  -30.2965   23.7723 H   0  0  0  0  0  0
  -15.8723  -28.0803   22.7132 H   0  0  0  0  0  0
  -24.5865  -30.7154   25.7582 H   0  0  0  0  0  0
  -24.8812  -32.3059   26.4493 H   0  0  0  0  0  0
  -25.7811  -30.9135   27.0208 H   0  0  0  0  0  0
  -26.3272  -29.6421   24.1626 H   0  0  0  0  0  0
  -27.3956  -29.7296   25.5388 H   0  0  0  0  0  0
  -27.9259  -30.3933   24.0171 H   0  0  0  0  0  0
  -27.2577  -33.3758   26.1842 H   0  0  0  0  0  0
  -28.3971  -32.6803   25.0414 H   0  0  0  0  0  0
  -28.0582  -31.8663   26.5610 H   0  0  0  0  0  0
  -28.2542  -38.0057   24.7516 H   0  0  0  0  0  0
  -28.1096  -36.2577   24.6290 H   0  0  0  0  0  0
  -27.2276  -37.1358   25.8866 H   0  0  0  0  0  0
  -20.9756  -29.8674   21.6491 H   0  0  0  0  0  0
  -26.0089  -38.2687   24.1430 H   0  0  0  0  0  0
  -30.9860  -22.0703   20.4831 H   0  0  0  0  0  0
  -27.3368  -20.1134   20.1791 H   0  0  0  0  0  0
  -27.0563  -23.5457   20.8444 H   0  0  0  0  0  0
  -27.4146  -23.6104   19.1884 H   0  0  0  0  0  0
  -28.4236  -17.1171   19.8813 H   0  0  0  0  0  0
  -28.9242  -17.2378   21.5029 H   0  0  0  0  0  0
  1 25  1  0  0  0
  1 30  2  0  0  0
  1 75  1  0  0  0
  2  3  1  0  0  0
  2 25  1  0  0  0
  2 78  1  0  0  0
  2 79  1  0  0  0
  3  4  1  0  0  0
  3 80  1  0  0  0
  3 81  1  0  0  0
  4  5  1  0  0  0
  4 82  1  0  0  0
  4 83  1  0  0  0
  5  6  1  0  0  0
  5 26  1  0  0  0
  5 84  1  0  0  0
  6 25  1  0  0  0
  6 85  1  0  0  0
  6 86  1  0  0  0
  7  8  2  0  0  0
  7 26  1  0  0  0
  7 29  1  0  0  0
  8  9  1  0  0  0
  8 22  1  0  0  0
  9 10  1  0  0  0
  9 27  2  0  0  0
 10 11  2  0  0  0
 10 15  1  0  0  0
 11 12  1  0  0  0
 11 87  1  0  0  0
 12 13  2  0  0  0
 12 88  1  0  0  0
 13 14  1  0  0  0
 13 31  1  0  0  0
 14 15  2  0  0  0
 14 89  1  0  0  0
 15 90  1  0  0  0
 16 17  2  0  0  0
 16 21  1  0  0  0
 16 31  1  0  0  0
 17 18  1  0  0  0
 17 91  1  0  0  0
 18 19  2  0  0  0
 18 92  1  0  0  0
 19 20  1  0  0  0
 19 24  1  0  0  0
 20 21  2  0  0  0
 20 93  1  0  0  0
 21 23  1  0  0  0
 22 28  1  0  0  0
 22 32  2  0  0  0
 26 27  1  0  0  0
 28 94  1  0  0  0
 28 95  1  0  0  0
 29 96  1  0  0  0
 29 97  1  0  0  0
 33 34  1  0  0  0
 33 66  1  0  0  0
 33 70  2  0  0  0
 34 36  1  0  0  0
 34 59  1  0  0  0
 34 98  1  0  0  0
 35 44  2  0  0  0
 35 45  1  0  0  0
 35 68  1  0  0  0
 36 56  1  0  0  0
 36 99  1  0  0  0
 37 39  1  0  0  0
 37 47  1  0  0  0
 37 66  1  0  0  0
 37100  1  0  0  0
 38 43  2  0  0  0
 38 46  1  0  0  0
 38 47  1  0  0  0
 39 64  1  0  0  0
 39 67  2  0  0  0
 40 52  1  0  0  0
 40 53  2  0  0  0
 40 58  1  0  0  0
 41101  1  0  0  0
 41102  1  0  0  0
 41103  1  0  0  0
 41 48  1  0  0  0
 42 43  1  0  0  0
 42 66  1  0  0  0
 42104  1  0  0  0
 42105  1  0  0  0
 43 44  1  0  0  0
 44106  1  0  0  0
 45 46  2  0  0  0
 45107  1  0  0  0
 46108  1  0  0  0
 47109  1  0  0  0
 47110  1  0  0  0
 48 56  1  0  0  0
 48 65  1  0  0  0
 48111  1  0  0  0
 49 50  1  0  0  0
 49 53  1  0  0  0
 49 64  1  0  0  0
 49112  1  0  0  0
 50 51  1  0  0  0
 50113  1  0  0  0
 50114  1  0  0  0
 51 52  1  0  0  0
 51115  1  0  0  0
 51116  1  0  0  0
 52117  1  0  0  0
 52118  1  0  0  0
 53 54  1  0  0  0
 54 55  2  0  0  0
 54119  1  0  0  0
 55 57  1  0  0  0
 55120  1  0  0  0
 56 69  2  0  0  0
 57 58  2  0  0  0
 57121  1  0  0  0
 58122  1  0  0  0
 59 60  1  0  0  0
 59 61  1  0  0  0
 59 62  1  0  0  0
 60123  1  0  0  0
 60124  1  0  0  0
 60125  1  0  0  0
 61126  1  0  0  0
 61127  1  0  0  0
 61128  1  0  0  0
 62129  1  0  0  0
 62130  1  0  0  0
 62131  1  0  0  0
 63 65  1  0  0  0
 63132  1  0  0  0
 63133  1  0  0  0
 63134  1  0  0  0
 64135  1  0  0  0
 65136  1  0  0  0
 68 74  1  0  0  0
 71 73  1  0  0  0
 71 76  2  0  0  0
 71137  1  0  0  0
 72 73  2  0  0  0
 72 77  1  0  0  0
 72138  1  0  0  0
 73 74  1  0  0  0
 74139  1  0  0  0
 74140  1  0  0  0
 75 77  1  0  0  0
 75141  1  0  0  0
 75142  1  0  0  0
 76 77  1  0  0  0
M  ISO  4   1 100  68 101  74 101  75 100
M  END
> <chiral flag>
0

> <version>
0

> <s_m_source_file>
/data/baiqing/PycharmProjects/Reinvent-master-3.2/result/LINK_invent/BTK/process_docking_weight1_custom_sum_contain_oxygen_bond_distance_aromatic_linkinvent_7_9_3/rearranged_h_0054.sdf

> <i_m_source_file_index>
19

> <r_mmod_Potential_Energy-OPLS-2005>
2721.76318359375

> <r_mmod_Stretch_Energy-OPLS-2005>
1193.84729003906

> <r_mmod_Bend_Energy-OPLS-2005>
706.676452636719

> <r_mmod_Torsional_Energy-OPLS-2005>
198.662475585938

> <r_mmod_Improper_Torsional_Energy-OPLS-2005>
2.46753001213074

> <r_mmod_Van_der_Waal_Energy-OPLS-2005>
106.985527038574

> <r_mmod_Electrostatic_Energy-OPLS-2005>
-272.454620361328

> <r_mmod_Solvation_Energy-OPLS-2005>
-234.413299560547

> <b_mmod_Minimization_Converged-OPLS-2005>
0

> <r_mmod_RMS_Derivative-OPLS-2005>
0.328607708215714

$$$$
19
                    3D
 Structure written by MMmdl.
154162  0  0  1  0            999 V2000
  -30.4960  -15.0529   20.3442 C   0  0  0  0  0  0
  -30.4392  -12.6504   19.4938 C   0  0  0  0  0  0
  -29.5092  -12.5233   18.2612 C   0  0  0  0  0  0
  -28.0515  -12.2961   18.6934 C   0  0  0  0  0  0
  -27.6237  -13.2589   19.8283 C   0  0  2  0  0  0
  -28.6682  -13.3379   20.9633 C   0  0  0  0  0  0
  -25.2419  -13.8254   20.5720 C   0  0  0  0  0  0
  -24.1757  -13.0436   20.9297 C   0  0  0  0  0  0
  -24.6418  -11.6948   20.8864 C   0  0  0  0  0  0
  -23.9095  -10.4297   21.0479 C   0  0  0  0  0  0
  -24.3657   -9.4187   21.9209 C   0  0  0  0  0  0
  -23.6316   -8.2243   22.0753 C   0  0  0  0  0  0
  -22.4293   -8.0307   21.3561 C   0  0  0  0  0  0
  -21.9962   -9.0276   20.4656 C   0  0  0  0  0  0
  -22.7300  -10.2138   20.3065 C   0  0  0  0  0  0
  -21.6831   -6.0744   22.5280 C   0  0  0  0  0  0
  -21.4013   -6.5648   23.8222 C   0  0  0  0  0  0
  -21.3661   -5.6794   24.9186 C   0  0  0  0  0  0
  -21.6038   -4.3063   24.7224 C   0  0  0  0  0  0
  -21.8818   -3.8152   23.4352 C   0  0  0  0  0  0
  -21.9195   -4.6972   22.3406 C   0  0  0  0  0  0
  -22.7747  -13.5199   21.1930 C   0  0  0  0  0  0
  -22.1647   -4.2154   21.0981 F   0  0  0  0  0  0
  -21.5634   -3.4543   25.7742 F   0  0  0  0  0  0
  -29.9352  -13.7675   20.3560 N   0  0  0  0  0  0
  -26.2861  -12.9510   20.3277 N   0  0  0  0  0  0
  -25.9344  -11.6655   20.5815 N   0  0  0  0  0  0
  -22.0388  -12.8166   22.0481 N   0  0  0  0  0  0
  -25.4022  -15.1998   20.4105 N   0  0  0  0  0  0
  -31.6832  -15.1232   20.0025 O   0  0  0  0  0  0
  -21.6638   -6.8897   21.4250 O   0  0  0  0  0  0
  -22.3432  -14.5470   20.6746 O   0  0  0  0  0  0
  -24.6482  -31.8378   23.1848 C   0  0  0  0  0  0
  -25.9192  -32.4703   23.8272 C   0  0  1  0  0  0
  -27.2218  -27.0590   20.1549 C   0  0  0  0  0  0
  -25.5919  -33.8518   24.2172 N   0  0  0  0  0  0
  -23.4627  -30.4511   21.5291 C   0  0  2  0  0  0
  -24.9183  -28.8718   20.1068 C   0  0  0  0  0  0
  -22.7621  -29.4491   22.4826 C   0  0  0  0  0  0
  -18.0325  -28.1402   22.8514 C   0  0  0  0  0  0
  -24.1505  -36.7301   23.2647 C   0  0  0  0  0  0
  -26.0213  -30.6827   21.4018 C   0  0  0  0  0  0
  -26.0910  -29.2850   20.7477 C   0  0  0  0  0  0
  -27.2321  -28.3843   20.7753 C   0  0  0  0  0  0
  -26.0240  -26.7803   19.4545 C   0  0  0  0  0  0
  -24.9014  -27.6351   19.4482 C   0  0  0  0  0  0
  -23.6978  -29.7809   20.1489 C   0  0  0  0  0  0
  -25.4137  -36.3065   24.0318 C   0  0  1  0  0  0
  -20.5931  -28.3775   23.1289 C   0  0  2  0  0  0
  -20.6795  -26.9462   22.5481 C   0  0  0  0  0  0
  -19.5810  -26.6477   21.5228 C   0  0  0  0  0  0
  -18.2013  -26.7938   22.1669 C   0  0  0  0  0  0
  -19.1565  -28.8909   23.2921 C   0  0  0  0  0  0
  -18.9453  -30.1564   23.8839 C   0  0  0  0  0  0
  -17.6430  -30.6631   24.0529 C   0  0  0  0  0  0
  -25.9056  -34.9425   23.5057 C   0  0  0  0  0  0
  -16.5351  -29.9077   23.6329 C   0  0  0  0  0  0
  -16.7314  -28.6490   23.0348 C   0  0  0  0  0  0
  -26.4485  -31.6606   25.0740 C   0  0  0  0  0  0
  -25.3648  -31.3785   26.1417 C   0  0  0  0  0  0
  -27.0362  -30.3017   24.6317 C   0  0  0  0  0  0
  -27.6013  -32.4362   25.7517 C   0  0  0  0  0  0
  -27.5590  -37.1823   24.8447 C   0  0  0  0  0  0
  -21.4278  -29.3074   22.3603 N   0  0  0  0  0  0
  -26.4315  -37.3768   23.9378 N   0  0  0  0  0  0
  -24.7319  -31.0145   22.0932 N   0  0  0  0  0  0
  -23.4227  -28.8036   23.3009 O   0  0  0  0  0  0
  -28.2428  -26.0225   20.2902 O   0  0  0  0  0  0
  -26.5657  -34.8918   22.4640 O   0  0  0  0  0  0
  -23.5564  -32.1287   23.6973 O   0  0  0  0  0  0
  -29.5834  -22.0442   20.0365 C   0  0  0  0  0  0
  -28.5484  -23.0408   20.1233 C   0  0  0  0  0  0
  -27.8378  -20.8882   20.6543 C   0  0  0  0  0  0
  -26.8801  -19.8098   21.0484 C   0  0  0  0  0  0
  -30.2644  -19.0535   22.0354 C   0  0  0  0  0  0
  -28.2769  -24.6059   19.5789 C   0  0  0  0  0  0
  -29.5320  -17.7212   19.9012 C   0  0  0  0  0  0
  -29.9263  -19.2592   20.5491 C   0  0  2  0  0  0
  -29.1411  -20.6997   20.3600 N   0  0  0  0  0  0
  -27.5134  -22.2101   20.5289 N   0  3  0  0  0  0
  -29.6896  -16.2320   20.5206 N   0  0  0  0  0  0
  -31.4621  -12.8206   19.1500 H   0  0  0  0  0  0
  -30.4688  -11.7141   20.0556 H   0  0  0  0  0  0
  -29.8360  -11.7003   17.6245 H   0  0  0  0  0  0
  -29.5742  -13.4253   17.6519 H   0  0  0  0  0  0
  -27.9779  -11.2667   19.0501 H   0  0  0  0  0  0
  -27.3750  -12.3717   17.8426 H   0  0  0  0  0  0
  -27.5701  -14.2446   19.3649 H   0  0  0  0  0  0
  -28.7710  -12.3776   21.4721 H   0  0  0  0  0  0
  -28.3492  -14.0627   21.7183 H   0  0  0  0  0  0
  -25.2783   -9.5630   22.4816 H   0  0  0  0  0  0
  -24.0002   -7.4592   22.7460 H   0  0  0  0  0  0
  -21.0883   -8.8833   19.8931 H   0  0  0  0  0  0
  -22.3803  -10.9706   19.6189 H   0  0  0  0  0  0
  -21.2000   -7.6150   23.9736 H   0  0  0  0  0  0
  -21.1476   -6.0520   25.9090 H   0  0  0  0  0  0
  -22.0601   -2.7614   23.2855 H   0  0  0  0  0  0
  -22.4001  -11.9811   22.4869 H   0  0  0  0  0  0
  -21.0970  -13.1164   22.2619 H   0  0  0  0  0  0
  -24.6208  -15.8412   20.5022 H   0  0  0  0  0  0
  -26.2234  -15.6338   20.0163 H   0  0  0  0  0  0
  -26.7250  -32.5281   23.0998 H   0  0  0  0  0  0
  -25.0089  -33.9631   25.0336 H   0  0  0  0  0  0
  -22.7691  -31.2789   21.3635 H   0  0  0  0  0  0
  -23.3774  -35.9627   23.3285 H   0  0  0  0  0  0
  -24.3594  -36.8961   22.2064 H   0  0  0  0  0  0
  -23.7254  -37.6491   23.6697 H   0  0  0  0  0  0
  -26.1711  -31.4268   20.6190 H   0  0  0  0  0  0
  -26.8937  -30.7487   22.0394 H   0  0  0  0  0  0
  -28.1074  -28.6751   21.3415 H   0  0  0  0  0  0
  -25.8827  -25.8489   18.9322 H   0  0  0  0  0  0
  -24.0096  -27.3123   18.9272 H   0  0  0  0  0  0
  -23.8503  -30.5545   19.3952 H   0  0  0  0  0  0
  -22.8154  -29.2247   19.8265 H   0  0  0  0  0  0
  -25.1328  -36.1927   25.0820 H   0  0  0  0  0  0
  -21.0021  -28.3394   24.1419 H   0  0  0  0  0  0
  -20.5603  -26.2411   23.3725 H   0  0  0  0  0  0
  -21.6695  -26.7426   22.1367 H   0  0  0  0  0  0
  -19.6759  -27.3391   20.6841 H   0  0  0  0  0  0
  -19.7051  -25.6437   21.1181 H   0  0  0  0  0  0
  -17.4277  -26.6644   21.4114 H   0  0  0  0  0  0
  -18.0504  -26.0052   22.9055 H   0  0  0  0  0  0
  -19.7919  -30.7422   24.2173 H   0  0  0  0  0  0
  -17.4951  -31.6328   24.5083 H   0  0  0  0  0  0
  -15.5353  -30.2982   23.7546 H   0  0  0  0  0  0
  -15.8727  -28.0773   22.7109 H   0  0  0  0  0  0
  -24.5804  -30.7172   25.7709 H   0  0  0  0  0  0
  -24.8864  -32.2968   26.4833 H   0  0  0  0  0  0
  -25.7912  -30.8936   27.0210 H   0  0  0  0  0  0
  -26.2973  -29.6735   24.1325 H   0  0  0  0  0  0
  -27.3993  -29.7309   25.4873 H   0  0  0  0  0  0
  -27.8873  -30.4290   23.9625 H   0  0  0  0  0  0
  -27.2612  -33.3653   26.2087 H   0  0  0  0  0  0
  -28.3834  -32.6937   25.0368 H   0  0  0  0  0  0
  -28.0677  -31.8503   26.5442 H   0  0  0  0  0  0
  -28.2591  -38.0133   24.7500 H   0  0  0  0  0  0
  -28.1105  -36.2664   24.6278 H   0  0  0  0  0  0
  -27.2294  -37.1467   25.8843 H   0  0  0  0  0  0
  -20.9460  -29.8777   21.6778 H   0  0  0  0  0  0
  -26.0196  -38.2849   24.1359 H   0  0  0  0  0  0
  -30.6080  -22.2057   19.7301 H   0  0  0  0  0  0
  -26.0268  -20.2489   21.5605 H   0  0  0  0  0  0
  -27.3762  -19.1050   21.7140 H   0  0  0  0  0  0
  -26.5489  -19.2962   20.1470 H   0  0  0  0  0  0
  -30.9303  -18.2010   22.1727 H   0  0  0  0  0  0
  -29.3657  -18.8576   22.6200 H   0  0  0  0  0  0
  -30.7664  -19.9208   22.4601 H   0  0  0  0  0  0
  -27.3812  -24.5012   18.9741 H   0  0  0  0  0  0
  -29.0420  -24.7508   18.8174 H   0  0  0  0  0  0
  -28.4650  -17.7914   19.6845 H   0  0  0  0  0  0
  -29.9833  -17.6744   18.9094 H   0  0  0  0  0  0
  -30.8869  -19.4726   20.0777 H   0  0  0  0  0  0
  -26.5713  -22.5522   20.6773 H   0  0  0  0  0  0
  -28.8241  -15.9574   20.9626 H   0  0  0  0  0  0
  1 25  1  0  0  0
  1 30  2  0  0  0
  1 81  1  0  0  0
  2  3  1  0  0  0
  2 25  1  0  0  0
  2 82  1  0  0  0
  2 83  1  0  0  0
  3  4  1  0  0  0
  3 84  1  0  0  0
  3 85  1  0  0  0
  4  5  1  0  0  0
  4 86  1  0  0  0
  4 87  1  0  0  0
  5  6  1  0  0  0
  5 26  1  0  0  0
  5 88  1  0  0  0
  6 25  1  0  0  0
  6 89  1  0  0  0
  6 90  1  0  0  0
  7  8  2  0  0  0
  7 26  1  0  0  0
  7 29  1  0  0  0
  8  9  1  0  0  0
  8 22  1  0  0  0
  9 10  1  0  0  0
  9 27  2  0  0  0
 10 11  2  0  0  0
 10 15  1  0  0  0
 11 12  1  0  0  0
 11 91  1  0  0  0
 12 13  2  0  0  0
 12 92  1  0  0  0
 13 14  1  0  0  0
 13 31  1  0  0  0
 14 15  2  0  0  0
 14 93  1  0  0  0
 15 94  1  0  0  0
 16 17  2  0  0  0
 16 21  1  0  0  0
 16 31  1  0  0  0
 17 18  1  0  0  0
 17 95  1  0  0  0
 18 19  2  0  0  0
 18 96  1  0  0  0
 19 20  1  0  0  0
 19 24  1  0  0  0
 20 21  2  0  0  0
 20 97  1  0  0  0
 21 23  1  0  0  0
 22 28  1  0  0  0
 22 32  2  0  0  0
 26 27  1  0  0  0
 28 98  1  0  0  0
 28 99  1  0  0  0
 29100  1  0  0  0
 29101  1  0  0  0
 33 34  1  0  0  0
 33 66  1  0  0  0
 33 70  2  0  0  0
 34 36  1  0  0  0
 34 59  1  0  0  0
 34102  1  0  0  0
 35 44  2  0  0  0
 35 45  1  0  0  0
 35 68  1  0  0  0
 36 56  1  0  0  0
 36103  1  0  0  0
 37 39  1  0  0  0
 37 47  1  0  0  0
 37 66  1  0  0  0
 37104  1  0  0  0
 38 43  2  0  0  0
 38 46  1  0  0  0
 38 47  1  0  0  0
 39 64  1  0  0  0
 39 67  2  0  0  0
 40 52  1  0  0  0
 40 53  2  0  0  0
 40 58  1  0  0  0
 41105  1  0  0  0
 41106  1  0  0  0
 41107  1  0  0  0
 41 48  1  0  0  0
 42 43  1  0  0  0
 42 66  1  0  0  0
 42108  1  0  0  0
 42109  1  0  0  0
 43 44  1  0  0  0
 44110  1  0  0  0
 45 46  2  0  0  0
 45111  1  0  0  0
 46112  1  0  0  0
 47113  1  0  0  0
 47114  1  0  0  0
 48 56  1  0  0  0
 48 65  1  0  0  0
 48115  1  0  0  0
 49 50  1  0  0  0
 49 53  1  0  0  0
 49 64  1  0  0  0
 49116  1  0  0  0
 50 51  1  0  0  0
 50117  1  0  0  0
 50118  1  0  0  0
 51 52  1  0  0  0
 51119  1  0  0  0
 51120  1  0  0  0
 52121  1  0  0  0
 52122  1  0  0  0
 53 54  1  0  0  0
 54 55  2  0  0  0
 54123  1  0  0  0
 55 57  1  0  0  0
 55124  1  0  0  0
 56 69  2  0  0  0
 57 58  2  0  0  0
 57125  1  0  0  0
 58126  1  0  0  0
 59 60  1  0  0  0
 59 61  1  0  0  0
 59 62  1  0  0  0
 60127  1  0  0  0
 60128  1  0  0  0
 60129  1  0  0  0
 61130  1  0  0  0
 61131  1  0  0  0
 61132  1  0  0  0
 62133  1  0  0  0
 62134  1  0  0  0
 62135  1  0  0  0
 63 65  1  0  0  0
 63136  1  0  0  0
 63137  1  0  0  0
 63138  1  0  0  0
 64139  1  0  0  0
 65140  1  0  0  0
 68 76  1  0  0  0
 71 72  2  0  0  0
 71 79  1  0  0  0
 71141  1  0  0  0
 72 76  1  0  0  0
 72 80  1  0  0  0
 73 74  1  0  0  0
 73 79  1  0  0  0
 73 80  2  0  0  0
 74142  1  0  0  0
 74143  1  0  0  0
 74144  1  0  0  0
 75145  1  0  0  0
 75146  1  0  0  0
 75147  1  0  0  0
 75 78  1  0  0  0
 76148  1  0  0  0
 76149  1  0  0  0
 77 78  1  0  0  0
 77 81  1  0  0  0
 77150  1  0  0  0
 77151  1  0  0  0
 78 79  1  0  0  0
 78152  1  0  0  0
 80153  1  0  0  0
 81154  1  0  0  0
M  CHG  1  80   1
M  ISO  4   1 100  68 101  76 101  81 100
M  END
> <chiral flag>
0

> <version>
0

> <s_m_source_file>
/data/baiqing/PycharmProjects/Reinvent-master-3.2/result/LINK_invent/BTK/process_docking_weight1_custom_sum_contain_oxygen_bond_distance_aromatic_linkinvent_7_9_3/rearranged_h_0054.sdf

> <i_m_source_file_index>
20

> <r_mmod_Potential_Energy-OPLS-2005>
652.713745117188

> <r_mmod_Stretch_Energy-OPLS-2005>
339.786285400391

> <r_mmod_Bend_Energy-OPLS-2005>
344.329620361328

> <r_mmod_Torsional_Energy-OPLS-2005>
267.522338867188

> <r_mmod_Improper_Torsional_Energy-OPLS-2005>
8.50608158111572

> <r_mmod_Van_der_Waal_Energy-OPLS-2005>
108.955940246582

> <r_mmod_Electrostatic_Energy-OPLS-2005>
-256.231872558594

> <r_mmod_Solvation_Energy-OPLS-2005>
-440.937469482422

> <b_mmod_Minimization_Converged-OPLS-2005>
0

> <r_mmod_RMS_Derivative-OPLS-2005>
7.2694149017334

$$$$
20
                    3D
 Structure written by MMmdl.
150158  0  0  1  0            999 V2000
  -30.5013  -15.0718   20.4290 C   0  0  0  0  0  0
  -30.4522  -12.6923   19.4723 C   0  0  0  0  0  0
  -29.5159  -12.5658   18.2453 C   0  0  0  0  0  0
  -28.0534  -12.3231   18.6716 C   0  0  0  0  0  0
  -27.6286  -13.2379   19.8491 C   0  0  2  0  0  0
  -28.6939  -13.2250   20.9661 C   0  0  0  0  0  0
  -25.2405  -13.8115   20.5726 C   0  0  0  0  0  0
  -24.1741  -13.0352   20.9253 C   0  0  0  0  0  0
  -24.6380  -11.6856   20.8783 C   0  0  0  0  0  0
  -23.9065  -10.4246   21.0419 C   0  0  0  0  0  0
  -24.3612   -9.4166   21.9196 C   0  0  0  0  0  0
  -23.6285   -8.2208   22.0753 C   0  0  0  0  0  0
  -22.4269   -8.0259   21.3542 C   0  0  0  0  0  0
  -21.9910   -9.0231   20.4641 C   0  0  0  0  0  0
  -22.7243  -10.2106   20.3060 C   0  0  0  0  0  0
  -21.6842   -6.0730   22.5281 C   0  0  0  0  0  0
  -21.4004   -6.5636   23.8216 C   0  0  0  0  0  0
  -21.3664   -5.6791   24.9177 C   0  0  0  0  0  0
  -21.6044   -4.3049   24.7225 C   0  0  0  0  0  0
  -21.8817   -3.8145   23.4348 C   0  0  0  0  0  0
  -21.9188   -4.6962   22.3404 C   0  0  0  0  0  0
  -22.7770  -13.5146   21.1891 C   0  0  0  0  0  0
  -22.1656   -4.2148   21.0981 F   0  0  0  0  0  0
  -21.5637   -3.4534   25.7740 F   0  0  0  0  0  0
  -29.9198  -13.7819   20.3585 N   0  0  0  0  0  0
  -26.2879  -12.9368   20.3349 N   0  0  0  0  0  0
  -25.9326  -11.6501   20.5812 N   0  0  0  0  0  0
  -22.0414  -12.8161   22.0455 N   0  0  0  0  0  0
  -25.3888  -15.1830   20.4082 N   0  0  0  0  0  0
  -31.7129  -15.0892   20.1681 O   0  0  0  0  0  0
  -21.6623   -6.8865   21.4242 O   0  0  0  0  0  0
  -22.3465  -14.5457   20.6728 O   0  0  0  0  0  0
  -24.6489  -31.8377   23.1818 C   0  0  0  0  0  0
  -25.9238  -32.4655   23.8231 C   0  0  1  0  0  0
  -27.2311  -27.0853   20.1563 C   0  0  0  0  0  0
  -25.5964  -33.8463   24.2146 N   0  0  0  0  0  0
  -23.4560  -30.4535   21.5278 C   0  0  2  0  0  0
  -24.9086  -28.8662   20.1104 C   0  0  0  0  0  0
  -22.7595  -29.4512   22.4831 C   0  0  0  0  0  0
  -18.0311  -28.1398   22.8471 C   0  0  0  0  0  0
  -24.1497  -36.7246   23.2645 C   0  0  0  0  0  0
  -26.0151  -30.6941   21.3882 C   0  0  0  0  0  0
  -26.0876  -29.2997   20.7300 C   0  0  0  0  0  0
  -27.2467  -28.4275   20.7320 C   0  0  0  0  0  0
  -26.0227  -26.7617   19.5010 C   0  0  0  0  0  0
  -24.8923  -27.6125   19.4788 C   0  0  0  0  0  0
  -23.6868  -29.7750   20.1502 C   0  0  0  0  0  0
  -25.4129  -36.3006   24.0308 C   0  0  1  0  0  0
  -20.5928  -28.3734   23.1221 C   0  0  2  0  0  0
  -20.6794  -26.9428   22.5404 C   0  0  0  0  0  0
  -19.5769  -26.6378   21.5213 C   0  0  0  0  0  0
  -18.1953  -26.7934   22.1623 C   0  0  0  0  0  0
  -19.1569  -28.8882   23.2834 C   0  0  0  0  0  0
  -18.9482  -30.1481   23.8862 C   0  0  0  0  0  0
  -17.6481  -30.6591   24.0559 C   0  0  0  0  0  0
  -25.9080  -34.9385   23.5037 C   0  0  0  0  0  0
  -16.5369  -29.9083   23.6337 C   0  0  0  0  0  0
  -16.7295  -28.6504   23.0353 C   0  0  0  0  0  0
  -26.4532  -31.6547   25.0703 C   0  0  0  0  0  0
  -25.3705  -31.3761   26.1393 C   0  0  0  0  0  0
  -27.0413  -30.2934   24.6335 C   0  0  0  0  0  0
  -27.6039  -32.4335   25.7502 C   0  0  0  0  0  0
  -27.5573  -37.1782   24.8461 C   0  0  0  0  0  0
  -21.4280  -29.3046   22.3578 N   0  0  0  0  0  0
  -26.4285  -37.3728   23.9402 N   0  0  0  0  0  0
  -24.7267  -31.0181   22.0873 N   0  0  0  0  0  0
  -23.4209  -28.8071   23.3011 O   0  0  0  0  0  0
  -28.2863  -26.0840   20.2231 O   0  0  0  0  0  0
  -26.5674  -34.8898   22.4621 O   0  0  0  0  0  0
  -23.5596  -32.1275   23.7008 O   0  0  0  0  0  0
  -28.0526  -19.5442   19.8590 C   0  0  0  0  0  0
  -27.8047  -20.9163   19.8654 C   0  0  0  0  0  0
  -29.4161  -19.2998   20.2338 C   0  0  0  0  0  0
  -28.3915  -16.4225   20.9992 C   0  0  0  0  0  0
  -30.2835  -17.8519   20.3352 C   0  0  0  0  0  0
  -29.1614  -23.2376   20.3579 C   0  0  0  0  0  0
  -28.0605  -24.5227   20.0637 C   0  0  0  0  0  0
  -29.9066  -20.6059   20.4319 N   0  0  0  0  0  0
  -28.9348  -21.6479   20.2104 N   0  0  0  0  0  0
  -29.7741  -16.3385   20.5338 N   0  0  0  0  0  0
  -31.4646  -12.9033   19.1257 H   0  0  0  0  0  0
  -30.5277  -11.7424   20.0047 H   0  0  0  0  0  0
  -29.8555  -11.7618   17.5913 H   0  0  0  0  0  0
  -29.5721  -13.4819   17.6551 H   0  0  0  0  0  0
  -27.9656  -11.2787   18.9728 H   0  0  0  0  0  0
  -27.3822  -12.4543   17.8225 H   0  0  0  0  0  0
  -27.5887  -14.2413   19.4306 H   0  0  0  0  0  0
  -28.8499  -12.2012   21.3095 H   0  0  0  0  0  0
  -28.3884  -13.7354   21.8723 H   0  0  0  0  0  0
  -25.2744   -9.5648   22.4784 H   0  0  0  0  0  0
  -23.9987   -7.4595   22.7472 H   0  0  0  0  0  0
  -21.0841   -8.8754   19.8946 H   0  0  0  0  0  0
  -22.3698  -10.9653   19.6176 H   0  0  0  0  0  0
  -21.1985   -7.6140   23.9719 H   0  0  0  0  0  0
  -21.1495   -6.0517   25.9082 H   0  0  0  0  0  0
  -22.0595   -2.7608   23.2844 H   0  0  0  0  0  0
  -22.4028  -11.9832   22.4857 H   0  0  0  0  0  0
  -21.1036  -13.1197   22.2660 H   0  0  0  0  0  0
  -24.6102  -15.8227   20.5205 H   0  0  0  0  0  0
  -26.2335  -15.6347   20.0877 H   0  0  0  0  0  0
  -26.7302  -32.5240   23.0955 H   0  0  0  0  0  0
  -25.0083  -33.9559   25.0274 H   0  0  0  0  0  0
  -22.7617  -31.2807   21.3669 H   0  0  0  0  0  0
  -23.3755  -35.9581   23.3286 H   0  0  0  0  0  0
  -24.3580  -36.8905   22.2063 H   0  0  0  0  0  0
  -23.7258  -37.6437   23.6702 H   0  0  0  0  0  0
  -26.1779  -31.4453   20.6141 H   0  0  0  0  0  0
  -26.8822  -30.7460   22.0350 H   0  0  0  0  0  0
  -28.1439  -28.7573   21.2366 H   0  0  0  0  0  0
  -25.9231  -25.8010   19.0179 H   0  0  0  0  0  0
  -23.9936  -27.2735   18.9820 H   0  0  0  0  0  0
  -23.8282  -30.5469   19.3927 H   0  0  0  0  0  0
  -22.8005  -29.2200   19.8375 H   0  0  0  0  0  0
  -25.1322  -36.1819   25.0799 H   0  0  0  0  0  0
  -21.0022  -28.3332   24.1341 H   0  0  0  0  0  0
  -20.5693  -26.2345   23.3630 H   0  0  0  0  0  0
  -21.6661  -26.7428   22.1201 H   0  0  0  0  0  0
  -19.6933  -25.6280   21.1266 H   0  0  0  0  0  0
  -19.6712  -27.3169   20.6729 H   0  0  0  0  0  0
  -17.4222  -26.6676   21.4023 H   0  0  0  0  0  0
  -18.0350  -26.0084   22.9026 H   0  0  0  0  0  0
  -19.7962  -30.7307   24.2210 H   0  0  0  0  0  0
  -17.5033  -31.6267   24.5170 H   0  0  0  0  0  0
  -15.5370  -30.2973   23.7683 H   0  0  0  0  0  0
  -15.8697  -28.0817   22.7080 H   0  0  0  0  0  0
  -24.5878  -30.7114   25.7716 H   0  0  0  0  0  0
  -24.8906  -32.2956   26.4755 H   0  0  0  0  0  0
  -25.7980  -30.8972   27.0211 H   0  0  0  0  0  0
  -26.3048  -29.6634   24.1335 H   0  0  0  0  0  0
  -27.3989  -29.7259   25.4936 H   0  0  0  0  0  0
  -27.8967  -30.4144   23.9686 H   0  0  0  0  0  0
  -27.2599  -33.3650   26.2012 H   0  0  0  0  0  0
  -28.3891  -32.6877   25.0369 H   0  0  0  0  0  0
  -28.0663  -31.8514   26.5483 H   0  0  0  0  0  0
  -28.2573  -38.0093   24.7501 H   0  0  0  0  0  0
  -28.1086  -36.2618   24.6295 H   0  0  0  0  0  0
  -27.2290  -37.1433   25.8865 H   0  0  0  0  0  0
  -20.9504  -29.8746   21.6740 H   0  0  0  0  0  0
  -26.0142  -38.2792   24.1402 H   0  0  0  0  0  0
  -27.3194  -18.7936   19.6016 H   0  0  0  0  0  0
  -26.8841  -21.4360   19.6360 H   0  0  0  0  0  0
  -28.1912  -17.3652   21.5048 H   0  0  0  0  0  0
  -28.1162  -15.6963   21.7491 H   0  0  0  0  0  0
  -27.7212  -16.3675   20.1454 H   0  0  0  0  0  0
  -31.0168  -17.9859   21.1308 H   0  0  0  0  0  0
  -30.8978  -17.8016   19.4353 H   0  0  0  0  0  0
  -29.5106  -23.3769   21.3810 H   0  0  0  0  0  0
  -30.0374  -23.4569   19.7476 H   0  0  0  0  0  0
  -27.1791  -24.2971   20.6644 H   0  0  0  0  0  0
  -27.7376  -24.3877   19.0312 H   0  0  0  0  0  0
  1 25  1  0  0  0
  1 30  2  0  0  0
  1 80  1  0  0  0
  2  3  1  0  0  0
  2 25  1  0  0  0
  2 81  1  0  0  0
  2 82  1  0  0  0
  3  4  1  0  0  0
  3 83  1  0  0  0
  3 84  1  0  0  0
  4  5  1  0  0  0
  4 85  1  0  0  0
  4 86  1  0  0  0
  5  6  1  0  0  0
  5 26  1  0  0  0
  5 87  1  0  0  0
  6 25  1  0  0  0
  6 88  1  0  0  0
  6 89  1  0  0  0
  7  8  2  0  0  0
  7 26  1  0  0  0
  7 29  1  0  0  0
  8  9  1  0  0  0
  8 22  1  0  0  0
  9 10  1  0  0  0
  9 27  2  0  0  0
 10 11  2  0  0  0
 10 15  1  0  0  0
 11 12  1  0  0  0
 11 90  1  0  0  0
 12 13  2  0  0  0
 12 91  1  0  0  0
 13 14  1  0  0  0
 13 31  1  0  0  0
 14 15  2  0  0  0
 14 92  1  0  0  0
 15 93  1  0  0  0
 16 17  2  0  0  0
 16 21  1  0  0  0
 16 31  1  0  0  0
 17 18  1  0  0  0
 17 94  1  0  0  0
 18 19  2  0  0  0
 18 95  1  0  0  0
 19 20  1  0  0  0
 19 24  1  0  0  0
 20 21  2  0  0  0
 20 96  1  0  0  0
 21 23  1  0  0  0
 22 28  1  0  0  0
 22 32  2  0  0  0
 26 27  1  0  0  0
 28 97  1  0  0  0
 28 98  1  0  0  0
 29 99  1  0  0  0
 29100  1  0  0  0
 33 34  1  0  0  0
 33 66  1  0  0  0
 33 70  2  0  0  0
 34 36  1  0  0  0
 34 59  1  0  0  0
 34101  1  0  0  0
 35 44  2  0  0  0
 35 45  1  0  0  0
 35 68  1  0  0  0
 36 56  1  0  0  0
 36102  1  0  0  0
 37 39  1  0  0  0
 37 47  1  0  0  0
 37 66  1  0  0  0
 37103  1  0  0  0
 38 43  2  0  0  0
 38 46  1  0  0  0
 38 47  1  0  0  0
 39 64  1  0  0  0
 39 67  2  0  0  0
 40 52  1  0  0  0
 40 53  2  0  0  0
 40 58  1  0  0  0
 41104  1  0  0  0
 41105  1  0  0  0
 41106  1  0  0  0
 41 48  1  0  0  0
 42 43  1  0  0  0
 42 66  1  0  0  0
 42107  1  0  0  0
 42108  1  0  0  0
 43 44  1  0  0  0
 44109  1  0  0  0
 45 46  2  0  0  0
 45110  1  0  0  0
 46111  1  0  0  0
 47112  1  0  0  0
 47113  1  0  0  0
 48 56  1  0  0  0
 48 65  1  0  0  0
 48114  1  0  0  0
 49 50  1  0  0  0
 49 53  1  0  0  0
 49 64  1  0  0  0
 49115  1  0  0  0
 50 51  1  0  0  0
 50116  1  0  0  0
 50117  1  0  0  0
 51 52  1  0  0  0
 51118  1  0  0  0
 51119  1  0  0  0
 52120  1  0  0  0
 52121  1  0  0  0
 53 54  1  0  0  0
 54 55  2  0  0  0
 54122  1  0  0  0
 55 57  1  0  0  0
 55123  1  0  0  0
 56 69  2  0  0  0
 57 58  2  0  0  0
 57124  1  0  0  0
 58125  1  0  0  0
 59 60  1  0  0  0
 59 61  1  0  0  0
 59 62  1  0  0  0
 60126  1  0  0  0
 60127  1  0  0  0
 60128  1  0  0  0
 61129  1  0  0  0
 61130  1  0  0  0
 61131  1  0  0  0
 62132  1  0  0  0
 62133  1  0  0  0
 62134  1  0  0  0
 63 65  1  0  0  0
 63135  1  0  0  0
 63136  1  0  0  0
 63137  1  0  0  0
 64138  1  0  0  0
 65139  1  0  0  0
 68 77  1  0  0  0
 71 72  2  0  0  0
 71 73  1  0  0  0
 71140  1  0  0  0
 72 79  1  0  0  0
 72141  1  0  0  0
 73 75  1  0  0  0
 73 78  2  0  0  0
 74 80  1  0  0  0
 74142  1  0  0  0
 74143  1  0  0  0
 74144  1  0  0  0
 75 80  1  0  0  0
 75145  1  0  0  0
 75146  1  0  0  0
 76 77  1  0  0  0
 76 79  1  0  0  0
 76147  1  0  0  0
 76148  1  0  0  0
 77149  1  0  0  0
 77150  1  0  0  0
 78 79  1  0  0  0
M  ISO  4   1 100  68 101  77 101  80 100
M  END
> <chiral flag>
0

> <version>
0

> <s_m_source_file>
/data/baiqing/PycharmProjects/Reinvent-master-3.2/result/LINK_invent/BTK/process_docking_weight1_custom_sum_contain_oxygen_bond_distance_aromatic_linkinvent_7_9_3/rearranged_h_0054.sdf

> <i_m_source_file_index>
21

> <r_mmod_Potential_Energy-OPLS-2005>
718.470275878906

> <r_mmod_Stretch_Energy-OPLS-2005>
345.122406005859

> <r_mmod_Bend_Energy-OPLS-2005>
319.789398193359

> <r_mmod_Torsional_Energy-OPLS-2005>
249.063674926758

> <r_mmod_Improper_Torsional_Energy-OPLS-2005>
5.52518558502197

> <r_mmod_Van_der_Waal_Energy-OPLS-2005>
122.596343994141

> <r_mmod_Electrostatic_Energy-OPLS-2005>
-344.313568115234

> <r_mmod_Solvation_Energy-OPLS-2005>
-232.009216308594

> <b_mmod_Minimization_Converged-OPLS-2005>
0

> <r_mmod_RMS_Derivative-OPLS-2005>
0.952365338802338

$$$$
21
                    3D
 Structure written by MMmdl.
146154  0  0  1  0            999 V2000
  -30.3098  -15.5268   20.3636 C   0  0  0  0  0  0
  -30.4435  -12.9884   19.5561 C   0  0  0  0  0  0
  -29.5583  -12.6391   18.3248 C   0  0  0  0  0  0
  -28.1193  -12.3045   18.7509 C   0  0  0  0  0  0
  -27.6075  -13.2969   19.8197 C   0  0  2  0  0  0
  -28.6253  -13.5596   20.9522 C   0  0  0  0  0  0
  -25.2374  -13.8273   20.5765 C   0  0  0  0  0  0
  -24.1744  -13.0436   20.9257 C   0  0  0  0  0  0
  -24.6425  -11.6941   20.8740 C   0  0  0  0  0  0
  -23.9121  -10.4293   21.0387 C   0  0  0  0  0  0
  -24.3654   -9.4208   21.9172 C   0  0  0  0  0  0
  -23.6311   -8.2253   22.0752 C   0  0  0  0  0  0
  -22.4291   -8.0292   21.3545 C   0  0  0  0  0  0
  -21.9937   -9.0268   20.4643 C   0  0  0  0  0  0
  -22.7286  -10.2136   20.3043 C   0  0  0  0  0  0
  -21.6862   -6.0741   22.5280 C   0  0  0  0  0  0
  -21.4019   -6.5643   23.8213 C   0  0  0  0  0  0
  -21.3659   -5.6794   24.9173 C   0  0  0  0  0  0
  -21.6041   -4.3056   24.7222 C   0  0  0  0  0  0
  -21.8821   -3.8149   23.4344 C   0  0  0  0  0  0
  -21.9194   -4.6967   22.3401 C   0  0  0  0  0  0
  -22.7757  -13.5174   21.1902 C   0  0  0  0  0  0
  -22.1662   -4.2151   21.0978 F   0  0  0  0  0  0
  -21.5623   -3.4539   25.7736 F   0  0  0  0  0  0
  -29.8344  -14.1505   20.3380 N   0  0  0  0  0  0
  -26.2818  -12.9585   20.3208 N   0  0  0  0  0  0
  -25.9370  -11.6669   20.5682 N   0  0  0  0  0  0
  -22.0423  -12.8150   22.0459 N   0  0  0  0  0  0
  -25.4000  -15.2014   20.4227 N   0  0  0  0  0  0
  -31.5185  -15.5155   20.0627 O   0  0  0  0  0  0
  -21.6648   -6.8889   21.4244 O   0  0  0  0  0  0
  -22.3429  -14.5476   20.6744 O   0  0  0  0  0  0
  -24.6781  -31.8049   23.1558 C   0  0  0  0  0  0
  -25.9388  -32.4489   23.8086 C   0  0  1  0  0  0
  -27.2275  -26.7570   20.2077 C   0  0  0  0  0  0
  -25.5992  -33.8313   24.1977 N   0  0  0  0  0  0
  -23.5021  -30.4090   21.5078 C   0  0  2  0  0  0
  -24.9615  -28.7634   20.1127 C   0  0  0  0  0  0
  -22.7747  -29.4334   22.4716 C   0  0  0  0  0  0
  -18.0338  -28.1422   22.8457 C   0  0  0  0  0  0
  -24.1499  -36.7162   23.2656 C   0  0  0  0  0  0
  -26.0804  -30.5556   21.4129 C   0  0  0  0  0  0
  -26.1475  -29.1268   20.7613 C   0  0  0  0  0  0
  -27.2666  -28.1490   20.7825 C   0  0  0  0  0  0
  -26.0123  -26.5937   19.4967 C   0  0  0  0  0  0
  -24.9300  -27.5211   19.4566 C   0  0  0  0  0  0
  -23.7536  -29.7111   20.1403 C   0  0  0  0  0  0
  -25.4146  -36.2903   24.0288 C   0  0  1  0  0  0
  -20.5970  -28.3772   23.1151 C   0  0  2  0  0  0
  -20.6808  -26.9434   22.5402 C   0  0  0  0  0  0
  -19.5784  -26.6368   21.5218 C   0  0  0  0  0  0
  -18.1966  -26.7948   22.1620 C   0  0  0  0  0  0
  -19.1604  -28.8923   23.2786 C   0  0  0  0  0  0
  -18.9511  -30.1509   23.8826 C   0  0  0  0  0  0
  -17.6503  -30.6605   24.0552 C   0  0  0  0  0  0
  -25.9118  -34.9294   23.4961 C   0  0  0  0  0  0
  -16.5392  -29.9083   23.6357 C   0  0  0  0  0  0
  -16.7319  -28.6509   23.0364 C   0  0  0  0  0  0
  -26.4584  -31.6503   25.0687 C   0  0  0  0  0  0
  -25.3668  -31.3799   26.1315 C   0  0  0  0  0  0
  -27.0511  -30.2846   24.6552 C   0  0  0  0  0  0
  -27.6043  -32.4359   25.7498 C   0  0  0  0  0  0
  -27.5551  -37.1752   24.8480 C   0  0  0  0  0  0
  -21.4400  -29.3026   22.3476 N   0  0  0  0  0  0
  -26.4279  -37.3649   23.9392 N   0  0  0  0  0  0
  -24.7764  -30.9548   22.0779 N   0  0  0  0  0  0
  -23.4215  -28.7922   23.3033 O   0  0  0  0  0  0
  -28.1799  -25.5498   20.3161 O   0  0  0  0  0  0
  -26.5749  -34.8858   22.4572 O   0  0  0  0  0  0
  -23.5811  -32.1099   23.6544 O   0  0  0  0  0  0
  -29.8523  -21.4668   20.4879 C   0  0  0  0  0  0
  -28.0100  -19.6201   20.1187 C   0  0  0  0  0  0
  -28.5497  -22.1570   20.2461 C   0  0  0  0  0  0
  -29.2865  -18.9134   20.3670 C   0  0  0  0  0  0
  -29.4903  -17.1260   22.3198 C   0  0  0  0  0  0
  -27.9110  -23.8763   19.9785 C   0  0  0  0  0  0
  -29.4675  -17.1195   20.7810 C   0  0  2  0  0  0
  -27.6943  -21.0378   20.0569 N   0  0  0  0  0  0
  -30.1679  -20.0259   20.5729 N   0  0  0  0  0  0
  -31.4478  -13.2322   19.2080 H   0  0  0  0  0  0
  -30.5725  -12.1146   20.1973 H   0  0  0  0  0  0
  -29.9900  -11.8057   17.7690 H   0  0  0  0  0  0
  -29.5459  -13.4904   17.6428 H   0  0  0  0  0  0
  -28.1194  -11.2940   19.1625 H   0  0  0  0  0  0
  -27.4548  -12.2856   17.8865 H   0  0  0  0  0  0
  -27.4949  -14.2401   19.2838 H   0  0  0  0  0  0
  -28.8459  -12.6492   21.5117 H   0  0  0  0  0  0
  -28.2089  -14.2662   21.6712 H   0  0  0  0  0  0
  -25.2798   -9.5677   22.4747 H   0  0  0  0  0  0
  -24.0011   -7.4644   22.7479 H   0  0  0  0  0  0
  -21.0865   -8.8797   19.8949 H   0  0  0  0  0  0
  -22.3751  -10.9672   19.6146 H   0  0  0  0  0  0
  -21.2021   -7.6151   23.9718 H   0  0  0  0  0  0
  -21.1473   -6.0520   25.9074 H   0  0  0  0  0  0
  -22.0599   -2.7610   23.2845 H   0  0  0  0  0  0
  -22.4068  -11.9826   22.4852 H   0  0  0  0  0  0
  -21.1026  -13.1143   22.2654 H   0  0  0  0  0  0
  -24.6288  -15.8499   20.5380 H   0  0  0  0  0  0
  -26.2429  -15.6443   20.0817 H   0  0  0  0  0  0
  -26.7465  -32.4976   23.0799 H   0  0  0  0  0  0
  -25.0088  -33.9372   25.0092 H   0  0  0  0  0  0
  -22.8244  -31.2455   21.3226 H   0  0  0  0  0  0
  -23.3749  -35.9510   23.3341 H   0  0  0  0  0  0
  -24.3549  -36.8786   22.2063 H   0  0  0  0  0  0
  -23.7291  -37.6368   23.6708 H   0  0  0  0  0  0
  -26.2795  -31.2834   20.6252 H   0  0  0  0  0  0
  -26.9330  -30.6206   22.0764 H   0  0  0  0  0  0
  -28.1544  -28.4284   21.3314 H   0  0  0  0  0  0
  -25.8530  -25.6505   18.9950 H   0  0  0  0  0  0
  -24.0349  -27.2357   18.9216 H   0  0  0  0  0  0
  -23.9215  -30.4742   19.3793 H   0  0  0  0  0  0
  -22.8604  -29.1736   19.8176 H   0  0  0  0  0  0
  -25.1358  -36.1678   25.0780 H   0  0  0  0  0  0
  -21.0064  -28.3397   24.1273 H   0  0  0  0  0  0
  -20.5685  -26.2394   23.3657 H   0  0  0  0  0  0
  -21.6667  -26.7391   22.1210 H   0  0  0  0  0  0
  -19.6942  -25.6262   21.1289 H   0  0  0  0  0  0
  -19.6726  -27.3150   20.6727 H   0  0  0  0  0  0
  -17.4231  -26.6693   21.4024 H   0  0  0  0  0  0
  -18.0356  -26.0106   22.9033 H   0  0  0  0  0  0
  -19.7989  -30.7350   24.2149 H   0  0  0  0  0  0
  -17.5052  -31.6277   24.5169 H   0  0  0  0  0  0
  -15.5388  -30.2964   23.7721 H   0  0  0  0  0  0
  -15.8719  -28.0810   22.7109 H   0  0  0  0  0  0
  -24.5888  -30.7109   25.7617 H   0  0  0  0  0  0
  -24.8821  -32.3013   26.4558 H   0  0  0  0  0  0
  -25.7865  -30.9087   27.0213 H   0  0  0  0  0  0
  -26.3218  -29.6477   24.1539 H   0  0  0  0  0  0
  -27.3949  -29.7271   25.5276 H   0  0  0  0  0  0
  -27.9191  -30.3979   24.0057 H   0  0  0  0  0  0
  -27.2586  -33.3728   26.1878 H   0  0  0  0  0  0
  -28.3943  -32.6814   25.0388 H   0  0  0  0  0  0
  -28.0611  -31.8624   26.5570 H   0  0  0  0  0  0
  -28.2587  -38.0023   24.7436 H   0  0  0  0  0  0
  -28.1020  -36.2540   24.6421 H   0  0  0  0  0  0
  -27.2251  -37.1525   25.8880 H   0  0  0  0  0  0
  -20.9691  -29.8689   21.6558 H   0  0  0  0  0  0
  -26.0112  -38.2709   24.1353 H   0  0  0  0  0  0
  -30.7170  -22.0983   20.6308 H   0  0  0  0  0  0
  -27.1337  -18.9969   20.0114 H   0  0  0  0  0  0
  -28.5931  -17.5986   22.7205 H   0  0  0  0  0  0
  -30.3505  -17.6853   22.6872 H   0  0  0  0  0  0
  -29.5426  -16.1249   22.7488 H   0  0  0  0  0  0
  -26.8837  -23.7611   20.3236 H   0  0  0  0  0  0
  -27.8154  -23.8948   18.8928 H   0  0  0  0  0  0
  -28.4601  -16.8007   20.5140 H   0  0  0  0  0  0
  1 25  1  0  0  0
  1 30  2  0  0  0
  1 77  1  0  0  0
  2  3  1  0  0  0
  2 25  1  0  0  0
  2 80  1  0  0  0
  2 81  1  0  0  0
  3  4  1  0  0  0
  3 82  1  0  0  0
  3 83  1  0  0  0
  4  5  1  0  0  0
  4 84  1  0  0  0
  4 85  1  0  0  0
  5  6  1  0  0  0
  5 26  1  0  0  0
  5 86  1  0  0  0
  6 25  1  0  0  0
  6 87  1  0  0  0
  6 88  1  0  0  0
  7  8  2  0  0  0
  7 26  1  0  0  0
  7 29  1  0  0  0
  8  9  1  0  0  0
  8 22  1  0  0  0
  9 10  1  0  0  0
  9 27  2  0  0  0
 10 11  2  0  0  0
 10 15  1  0  0  0
 11 12  1  0  0  0
 11 89  1  0  0  0
 12 13  2  0  0  0
 12 90  1  0  0  0
 13 14  1  0  0  0
 13 31  1  0  0  0
 14 15  2  0  0  0
 14 91  1  0  0  0
 15 92  1  0  0  0
 16 17  2  0  0  0
 16 21  1  0  0  0
 16 31  1  0  0  0
 17 18  1  0  0  0
 17 93  1  0  0  0
 18 19  2  0  0  0
 18 94  1  0  0  0
 19 20  1  0  0  0
 19 24  1  0  0  0
 20 21  2  0  0  0
 20 95  1  0  0  0
 21 23  1  0  0  0
 22 28  1  0  0  0
 22 32  2  0  0  0
 26 27  1  0  0  0
 28 96  1  0  0  0
 28 97  1  0  0  0
 29 98  1  0  0  0
 29 99  1  0  0  0
 33 34  1  0  0  0
 33 66  1  0  0  0
 33 70  2  0  0  0
 34 36  1  0  0  0
 34 59  1  0  0  0
 34100  1  0  0  0
 35 44  2  0  0  0
 35 45  1  0  0  0
 35 68  1  0  0  0
 36 56  1  0  0  0
 36101  1  0  0  0
 37 39  1  0  0  0
 37 47  1  0  0  0
 37 66  1  0  0  0
 37102  1  0  0  0
 38 43  2  0  0  0
 38 46  1  0  0  0
 38 47  1  0  0  0
 39 64  1  0  0  0
 39 67  2  0  0  0
 40 52  1  0  0  0
 40 53  2  0  0  0
 40 58  1  0  0  0
 41103  1  0  0  0
 41104  1  0  0  0
 41105  1  0  0  0
 41 48  1  0  0  0
 42 43  1  0  0  0
 42 66  1  0  0  0
 42106  1  0  0  0
 42107  1  0  0  0
 43 44  1  0  0  0
 44108  1  0  0  0
 45 46  2  0  0  0
 45109  1  0  0  0
 46110  1  0  0  0
 47111  1  0  0  0
 47112  1  0  0  0
 48 56  1  0  0  0
 48 65  1  0  0  0
 48113  1  0  0  0
 49 50  1  0  0  0
 49 53  1  0  0  0
 49 64  1  0  0  0
 49114  1  0  0  0
 50 51  1  0  0  0
 50115  1  0  0  0
 50116  1  0  0  0
 51 52  1  0  0  0
 51117  1  0  0  0
 51118  1  0  0  0
 52119  1  0  0  0
 52120  1  0  0  0
 53 54  1  0  0  0
 54 55  2  0  0  0
 54121  1  0  0  0
 55 57  1  0  0  0
 55122  1  0  0  0
 56 69  2  0  0  0
 57 58  2  0  0  0
 57123  1  0  0  0
 58124  1  0  0  0
 59 60  1  0  0  0
 59 61  1  0  0  0
 59 62  1  0  0  0
 60125  1  0  0  0
 60126  1  0  0  0
 60127  1  0  0  0
 61128  1  0  0  0
 61129  1  0  0  0
 61130  1  0  0  0
 62131  1  0  0  0
 62132  1  0  0  0
 62133  1  0  0  0
 63 65  1  0  0  0
 63134  1  0  0  0
 63135  1  0  0  0
 63136  1  0  0  0
 64137  1  0  0  0
 65138  1  0  0  0
 68 76  1  0  0  0
 71 73  2  0  0  0
 71 79  1  0  0  0
 71139  1  0  0  0
 72 74  1  0  0  0
 72 78  2  0  0  0
 72140  1  0  0  0
 73 76  1  0  0  0
 73 78  1  0  0  0
 74 77  1  0  0  0
 74 79  2  0  0  0
 75141  1  0  0  0
 75142  1  0  0  0
 75143  1  0  0  0
 75 77  1  0  0  0
 76144  1  0  0  0
 76145  1  0  0  0
 77146  1  0  0  0
M  ISO  4   1 100  68 101  76 101  77 100
M  END
> <chiral flag>
0

> <version>
0

> <s_m_source_file>
/data/baiqing/PycharmProjects/Reinvent-master-3.2/result/LINK_invent/BTK/process_docking_weight1_custom_sum_contain_oxygen_bond_distance_aromatic_linkinvent_7_9_3/rearranged_h_0054.sdf

> <i_m_source_file_index>
22

> <r_mmod_Potential_Energy-OPLS-2005>
2252.24291992188

> <r_mmod_Stretch_Energy-OPLS-2005>
893.947448730469

> <r_mmod_Bend_Energy-OPLS-2005>
688.115234375

> <r_mmod_Torsional_Energy-OPLS-2005>
189.085830688477

> <r_mmod_Improper_Torsional_Energy-OPLS-2005>
4.9815149307251

> <r_mmod_Van_der_Waal_Energy-OPLS-2005>
130.351745605469

> <r_mmod_Electrostatic_Energy-OPLS-2005>
-200.216171264648

> <r_mmod_Solvation_Energy-OPLS-2005>
-222.149200439453

> <b_mmod_Minimization_Converged-OPLS-2005>
0

> <r_mmod_RMS_Derivative-OPLS-2005>
0.841484189033508

$$$$
22
                    3D
 Structure written by MMmdl.
152160  0  0  1  0            999 V2000
  -30.6896  -14.6087   20.4860 C   0  0  0  0  0  0
  -30.4153  -12.3729   19.4618 C   0  0  0  0  0  0
  -29.4988  -12.4859   18.2267 C   0  0  0  0  0  0
  -28.0226  -12.3383   18.6402 C   0  0  0  0  0  0
  -27.6465  -13.2272   19.8571 C   0  0  2  0  0  0
  -28.6907  -13.1289   20.9920 C   0  0  0  0  0  0
  -25.2526  -13.8196   20.5691 C   0  0  0  0  0  0
  -24.1808  -13.0449   20.9211 C   0  0  0  0  0  0
  -24.6391  -11.6925   20.8756 C   0  0  0  0  0  0
  -23.9067  -10.4299   21.0404 C   0  0  0  0  0  0
  -24.3618   -9.4213   21.9180 C   0  0  0  0  0  0
  -23.6298   -8.2245   22.0746 C   0  0  0  0  0  0
  -22.4281   -8.0277   21.3542 C   0  0  0  0  0  0
  -21.9918   -9.0248   20.4644 C   0  0  0  0  0  0
  -22.7239  -10.2131   20.3053 C   0  0  0  0  0  0
  -21.6856   -6.0733   22.5276 C   0  0  0  0  0  0
  -21.4019   -6.5638   23.8211 C   0  0  0  0  0  0
  -21.3656   -5.6790   24.9173 C   0  0  0  0  0  0
  -21.6045   -4.3053   24.7227 C   0  0  0  0  0  0
  -21.8818   -3.8144   23.4350 C   0  0  0  0  0  0
  -21.9197   -4.6961   22.3406 C   0  0  0  0  0  0
  -22.7828  -13.5229   21.1870 C   0  0  0  0  0  0
  -22.1664   -4.2145   21.0984 F   0  0  0  0  0  0
  -21.5632   -3.4541   25.7744 F   0  0  0  0  0  0
  -30.0047  -13.4271   20.4117 N   0  0  0  0  0  0
  -26.2956  -12.9406   20.3314 N   0  0  0  0  0  0
  -25.9324  -11.6550   20.5778 N   0  0  0  0  0  0
  -22.0475  -12.8207   22.0420 N   0  0  0  0  0  0
  -25.4228  -15.1915   20.4080 N   0  0  0  0  0  0
  -31.8711  -14.6727   20.1396 O   0  0  0  0  0  0
  -21.6646   -6.8874   21.4237 O   0  0  0  0  0  0
  -22.3514  -14.5534   20.6718 O   0  0  0  0  0  0
  -24.6237  -31.8603   23.2028 C   0  0  0  0  0  0
  -25.9087  -32.4789   23.8354 C   0  0  1  0  0  0
  -27.2203  -27.3409   20.1239 C   0  0  0  0  0  0
  -25.5905  -33.8589   24.2280 N   0  0  0  0  0  0
  -23.4171  -30.4833   21.5439 C   0  0  2  0  0  0
  -24.8645  -28.9409   20.1087 C   0  0  0  0  0  0
  -22.7459  -29.4622   22.4927 C   0  0  0  0  0  0
  -18.0284  -28.1385   22.8477 C   0  0  0  0  0  0
  -24.1486  -36.7306   23.2637 C   0  0  0  0  0  0
  -25.9556  -30.7989   21.3704 C   0  0  0  0  0  0
  -26.0313  -29.4283   20.7134 C   0  0  0  0  0  0
  -27.2174  -28.6395   20.7103 C   0  0  0  0  0  0
  -26.0402  -26.9013   19.4879 C   0  0  0  0  0  0
  -24.8695  -27.6826   19.4853 C   0  0  0  0  0  0
  -23.6305  -29.8174   20.1589 C   0  0  0  0  0  0
  -25.4112  -36.3094   24.0327 C   0  0  1  0  0  0
  -20.5882  -28.3682   23.1287 C   0  0  2  0  0  0
  -20.6776  -26.9407   22.5410 C   0  0  0  0  0  0
  -19.5756  -26.6384   21.5211 C   0  0  0  0  0  0
  -18.1931  -26.7929   22.1617 C   0  0  0  0  0  0
  -19.1533  -28.8850   23.2880 C   0  0  0  0  0  0
  -18.9460  -30.1452   23.8901 C   0  0  0  0  0  0
  -17.6459  -30.6586   24.0562 C   0  0  0  0  0  0
  -25.9044  -34.9461   23.5109 C   0  0  0  0  0  0
  -16.5351  -29.9085   23.6330 C   0  0  0  0  0  0
  -16.7272  -28.6504   23.0346 C   0  0  0  0  0  0
  -26.4487  -31.6590   25.0709 C   0  0  0  0  0  0
  -25.3731  -31.3717   26.1442 C   0  0  0  0  0  0
  -27.0324  -30.3016   24.6143 C   0  0  0  0  0  0
  -27.6048  -32.4317   25.7483 C   0  0  0  0  0  0
  -27.5581  -37.1807   24.8464 C   0  0  0  0  0  0
  -21.4173  -29.3044   22.3681 N   0  0  0  0  0  0
  -26.4297  -37.3784   23.9404 N   0  0  0  0  0  0
  -24.6839  -31.0640   22.0963 N   0  0  0  0  0  0
  -23.4192  -28.8164   23.2998 O   0  0  0  0  0  0
  -28.3188  -26.4810   20.1642 O   0  0  0  0  0  0
  -26.5626  -34.8924   22.4682 O   0  0  0  0  0  0
  -23.5406  -32.1385   23.7369 O   0  0  0  0  0  0
  -28.0661  -19.9763   21.1745 C   0  0  0  0  0  0
  -28.5837  -18.6562   21.0529 C   0  0  0  0  0  0
  -30.1646  -20.8235   20.4061 C   0  0  0  0  0  0
  -28.8604  -21.1134   20.8607 C   0  0  0  0  0  0
  -29.9089  -18.4730   20.6112 C   0  0  0  0  0  0
  -28.3322  -22.5619   21.1594 C   0  0  0  0  0  0
  -30.6473  -17.1013   20.4889 C   0  0  0  0  0  0
  -28.7204  -23.8382   20.2951 C   0  0  0  0  0  0
  -28.0876  -25.1913   20.8417 C   0  0  0  0  0  0
  -30.6607  -19.5592   20.2855 N   0  0  0  0  0  0
  -30.0035  -15.7668   20.7200 N   0  0  0  0  0  0
  -31.4614  -12.4552   19.1610 H   0  0  0  0  0  0
  -30.3182  -11.3897   19.9257 H   0  0  0  0  0  0
  -29.7571  -11.7201   17.4942 H   0  0  0  0  0  0
  -29.6525  -13.4478   17.7346 H   0  0  0  0  0  0
  -27.8545  -11.2883   18.8831 H   0  0  0  0  0  0
  -27.3697  -12.5592   17.7954 H   0  0  0  0  0  0
  -27.6552  -14.2553   19.4942 H   0  0  0  0  0  0
  -28.6927  -12.1323   21.4356 H   0  0  0  0  0  0
  -28.4499  -13.8228   21.7993 H   0  0  0  0  0  0
  -25.2756   -9.5702   22.4764 H   0  0  0  0  0  0
  -24.0010   -7.4643   22.7469 H   0  0  0  0  0  0
  -21.0848   -8.8760   19.8955 H   0  0  0  0  0  0
  -22.3679  -10.9670   19.6172 H   0  0  0  0  0  0
  -21.2006   -7.6143   23.9711 H   0  0  0  0  0  0
  -21.1482   -6.0523   25.9074 H   0  0  0  0  0  0
  -22.0603   -2.7608   23.2850 H   0  0  0  0  0  0
  -22.4102  -11.9868   22.4800 H   0  0  0  0  0  0
  -21.1089  -13.1219   22.2637 H   0  0  0  0  0  0
  -24.6543  -15.8443   20.5149 H   0  0  0  0  0  0
  -26.2654  -15.6271   20.0558 H   0  0  0  0  0  0
  -26.7154  -32.5469   23.1109 H   0  0  0  0  0  0
  -25.0038  -33.9745   25.0413 H   0  0  0  0  0  0
  -22.7103  -31.3029   21.4005 H   0  0  0  0  0  0
  -23.3746  -35.9642   23.3307 H   0  0  0  0  0  0
  -24.3576  -36.8917   22.2049 H   0  0  0  0  0  0
  -23.7248  -37.6512   23.6660 H   0  0  0  0  0  0
  -26.0852  -31.5615   20.6014 H   0  0  0  0  0  0
  -26.8381  -30.8501   21.9967 H   0  0  0  0  0  0
  -28.1129  -29.0040   21.1935 H   0  0  0  0  0  0
  -26.0161  -25.9313   19.0090 H   0  0  0  0  0  0
  -23.9756  -27.3056   19.0078 H   0  0  0  0  0  0
  -23.7471  -30.5925   19.4012 H   0  0  0  0  0  0
  -22.7512  -29.2441   19.8582 H   0  0  0  0  0  0
  -25.1297  -36.1950   25.0822 H   0  0  0  0  0  0
  -20.9986  -28.3255   24.1403 H   0  0  0  0  0  0
  -20.5675  -26.2292   23.3606 H   0  0  0  0  0  0
  -21.6643  -26.7438   22.1206 H   0  0  0  0  0  0
  -19.6921  -25.6297   21.1231 H   0  0  0  0  0  0
  -19.6694  -27.3197   20.6742 H   0  0  0  0  0  0
  -17.4201  -26.6663   21.4017 H   0  0  0  0  0  0
  -18.0336  -26.0078   22.9022 H   0  0  0  0  0  0
  -19.7938  -30.7263   24.2267 H   0  0  0  0  0  0
  -17.5019  -31.6265   24.5165 H   0  0  0  0  0  0
  -15.5355  -30.2991   23.7658 H   0  0  0  0  0  0
  -15.8669  -28.0829   22.7064 H   0  0  0  0  0  0
  -24.5904  -30.7067   25.7774 H   0  0  0  0  0  0
  -24.8931  -32.2878   26.4885 H   0  0  0  0  0  0
  -25.8062  -30.8880   27.0206 H   0  0  0  0  0  0
  -26.2882  -29.6767   24.1187 H   0  0  0  0  0  0
  -27.4053  -29.7268   25.4634 H   0  0  0  0  0  0
  -27.8741  -30.4312   23.9334 H   0  0  0  0  0  0
  -27.2662  -33.3616   26.2069 H   0  0  0  0  0  0
  -28.3858  -32.6877   25.0308 H   0  0  0  0  0  0
  -28.0723  -31.8434   26.5392 H   0  0  0  0  0  0
  -28.2608  -38.0097   24.7513 H   0  0  0  0  0  0
  -28.1068  -36.2631   24.6292 H   0  0  0  0  0  0
  -27.2298  -37.1459   25.8866 H   0  0  0  0  0  0
  -20.9343  -29.8771   21.6902 H   0  0  0  0  0  0
  -26.0177  -38.2860   24.1395 H   0  0  0  0  0  0
  -27.0619  -20.1100   21.5505 H   0  0  0  0  0  0
  -27.9719  -17.8063   21.3219 H   0  0  0  0  0  0
  -30.8492  -21.6246   20.1697 H   0  0  0  0  0  0
  -28.6093  -22.7690   22.1939 H   0  0  0  0  0  0
  -27.2430  -22.5015   21.1736 H   0  0  0  0  0  0
  -31.5132  -17.1598   21.1507 H   0  0  0  0  0  0
  -31.0581  -17.0825   19.4778 H   0  0  0  0  0  0
  -28.3990  -23.6868   19.2647 H   0  0  0  0  0  0
  -29.8045  -23.9452   20.2635 H   0  0  0  0  0  0
  -28.4528  -25.3330   21.8597 H   0  0  0  0  0  0
  -27.0187  -25.0133   20.9661 H   0  0  0  0  0  0
  -29.0235  -15.7359   20.9512 H   0  0  0  0  0  0
  1 25  1  0  0  0
  1 30  2  0  0  0
  1 81  1  0  0  0
  2  3  1  0  0  0
  2 25  1  0  0  0
  2 82  1  0  0  0
  2 83  1  0  0  0
  3  4  1  0  0  0
  3 84  1  0  0  0
  3 85  1  0  0  0
  4  5  1  0  0  0
  4 86  1  0  0  0
  4 87  1  0  0  0
  5  6  1  0  0  0
  5 26  1  0  0  0
  5 88  1  0  0  0
  6 25  1  0  0  0
  6 89  1  0  0  0
  6 90  1  0  0  0
  7  8  2  0  0  0
  7 26  1  0  0  0
  7 29  1  0  0  0
  8  9  1  0  0  0
  8 22  1  0  0  0
  9 10  1  0  0  0
  9 27  2  0  0  0
 10 11  2  0  0  0
 10 15  1  0  0  0
 11 12  1  0  0  0
 11 91  1  0  0  0
 12 13  2  0  0  0
 12 92  1  0  0  0
 13 14  1  0  0  0
 13 31  1  0  0  0
 14 15  2  0  0  0
 14 93  1  0  0  0
 15 94  1  0  0  0
 16 17  2  0  0  0
 16 21  1  0  0  0
 16 31  1  0  0  0
 17 18  1  0  0  0
 17 95  1  0  0  0
 18 19  2  0  0  0
 18 96  1  0  0  0
 19 20  1  0  0  0
 19 24  1  0  0  0
 20 21  2  0  0  0
 20 97  1  0  0  0
 21 23  1  0  0  0
 22 28  1  0  0  0
 22 32  2  0  0  0
 26 27  1  0  0  0
 28 98  1  0  0  0
 28 99  1  0  0  0
 29100  1  0  0  0
 29101  1  0  0  0
 33 34  1  0  0  0
 33 66  1  0  0  0
 33 70  2  0  0  0
 34 36  1  0  0  0
 34 59  1  0  0  0
 34102  1  0  0  0
 35 44  2  0  0  0
 35 45  1  0  0  0
 35 68  1  0  0  0
 36 56  1  0  0  0
 36103  1  0  0  0
 37 39  1  0  0  0
 37 47  1  0  0  0
 37 66  1  0  0  0
 37104  1  0  0  0
 38 43  2  0  0  0
 38 46  1  0  0  0
 38 47  1  0  0  0
 39 64  1  0  0  0
 39 67  2  0  0  0
 40 52  1  0  0  0
 40 53  2  0  0  0
 40 58  1  0  0  0
 41105  1  0  0  0
 41106  1  0  0  0
 41107  1  0  0  0
 41 48  1  0  0  0
 42 43  1  0  0  0
 42 66  1  0  0  0
 42108  1  0  0  0
 42109  1  0  0  0
 43 44  1  0  0  0
 44110  1  0  0  0
 45 46  2  0  0  0
 45111  1  0  0  0
 46112  1  0  0  0
 47113  1  0  0  0
 47114  1  0  0  0
 48 56  1  0  0  0
 48 65  1  0  0  0
 48115  1  0  0  0
 49 50  1  0  0  0
 49 53  1  0  0  0
 49 64  1  0  0  0
 49116  1  0  0  0
 50 51  1  0  0  0
 50117  1  0  0  0
 50118  1  0  0  0
 51 52  1  0  0  0
 51119  1  0  0  0
 51120  1  0  0  0
 52121  1  0  0  0
 52122  1  0  0  0
 53 54  1  0  0  0
 54 55  2  0  0  0
 54123  1  0  0  0
 55 57  1  0  0  0
 55124  1  0  0  0
 56 69  2  0  0  0
 57 58  2  0  0  0
 57125  1  0  0  0
 58126  1  0  0  0
 59 60  1  0  0  0
 59 61  1  0  0  0
 59 62  1  0  0  0
 60127  1  0  0  0
 60128  1  0  0  0
 60129  1  0  0  0
 61130  1  0  0  0
 61131  1  0  0  0
 61132  1  0  0  0
 62133  1  0  0  0
 62134  1  0  0  0
 62135  1  0  0  0
 63 65  1  0  0  0
 63136  1  0  0  0
 63137  1  0  0  0
 63138  1  0  0  0
 64139  1  0  0  0
 65140  1  0  0  0
 68 79  1  0  0  0
 71 72  2  0  0  0
 71 74  1  0  0  0
 71141  1  0  0  0
 72 75  1  0  0  0
 72142  1  0  0  0
 73 74  2  0  0  0
 73 80  1  0  0  0
 73143  1  0  0  0
 74 76  1  0  0  0
 75 77  1  0  0  0
 75 80  2  0  0  0
 76 78  1  0  0  0
 76144  1  0  0  0
 76145  1  0  0  0
 77 81  1  0  0  0
 77146  1  0  0  0
 77147  1  0  0  0
 78 79  1  0  0  0
 78148  1  0  0  0
 78149  1  0  0  0
 79150  1  0  0  0
 79151  1  0  0  0
 81152  1  0  0  0
M  ISO  4   1 100  68 101  79 101  81 100
M  END
> <chiral flag>
0

> <version>
0

> <s_m_source_file>
/data/baiqing/PycharmProjects/Reinvent-master-3.2/result/LINK_invent/BTK/process_docking_weight1_custom_sum_contain_oxygen_bond_distance_aromatic_linkinvent_7_9_3/rearranged_h_0054.sdf

> <i_m_source_file_index>
23

> <r_mmod_Potential_Energy-OPLS-2005>
-206.312118530273

> <r_mmod_Stretch_Energy-OPLS-2005>
67.1446075439453

> <r_mmod_Bend_Energy-OPLS-2005>
141.575088500977

> <r_mmod_Torsional_Energy-OPLS-2005>
218.45426940918

> <r_mmod_Improper_Torsional_Energy-OPLS-2005>
5.77285671234131

> <r_mmod_Van_der_Waal_Energy-OPLS-2005>
145.772033691406

> <r_mmod_Electrostatic_Energy-OPLS-2005>
-606.867553710938

> <r_mmod_Solvation_Energy-OPLS-2005>
-223.406295776367

> <b_mmod_Minimization_Converged-OPLS-2005>
0

> <r_mmod_RMS_Derivative-OPLS-2005>
1.30824100971222

$$$$
23
                    3D
 Structure written by MMmdl.
155163  0  0  1  0            999 V2000
  -30.4242  -15.3573   20.3518 C   0  0  0  0  0  0
  -30.4462  -12.8837   19.4954 C   0  0  0  0  0  0
  -29.5323  -12.5782   18.2805 C   0  0  0  0  0  0
  -28.0938  -12.2633   18.7309 C   0  0  0  0  0  0
  -27.6077  -13.2458   19.8207 C   0  0  2  0  0  0
  -28.6585  -13.4689   20.9355 C   0  0  0  0  0  0
  -25.2335  -13.8094   20.5703 C   0  0  0  0  0  0
  -24.1700  -13.0327   20.9275 C   0  0  0  0  0  0
  -24.6361  -11.6838   20.8809 C   0  0  0  0  0  0
  -23.9056  -10.4230   21.0431 C   0  0  0  0  0  0
  -24.3605   -9.4150   21.9202 C   0  0  0  0  0  0
  -23.6275   -8.2191   22.0757 C   0  0  0  0  0  0
  -22.4261   -8.0241   21.3537 C   0  0  0  0  0  0
  -21.9901   -9.0220   20.4643 C   0  0  0  0  0  0
  -22.7237  -10.2092   20.3060 C   0  0  0  0  0  0
  -21.6841   -6.0715   22.5276 C   0  0  0  0  0  0
  -21.4007   -6.5622   23.8209 C   0  0  0  0  0  0
  -21.3661   -5.6775   24.9174 C   0  0  0  0  0  0
  -21.6043   -4.3040   24.7223 C   0  0  0  0  0  0
  -21.8820   -3.8129   23.4345 C   0  0  0  0  0  0
  -21.9189   -4.6944   22.3404 C   0  0  0  0  0  0
  -22.7726  -13.5126   21.1899 C   0  0  0  0  0  0
  -22.1657   -4.2130   21.0981 F   0  0  0  0  0  0
  -21.5634   -3.4529   25.7740 F   0  0  0  0  0  0
  -29.8570  -14.0372   20.2784 N   0  0  0  0  0  0
  -26.2801  -12.9347   20.3284 N   0  0  0  0  0  0
  -25.9302  -11.6490   20.5808 N   0  0  0  0  0  0
  -22.0368  -12.8154   22.0468 N   0  0  0  0  0  0
  -25.3778  -15.1807   20.3969 N   0  0  0  0  0  0
  -31.6612  -15.3167   20.2504 O   0  0  0  0  0  0
  -21.6613   -6.8853   21.4235 O   0  0  0  0  0  0
  -22.3432  -14.5439   20.6737 O   0  0  0  0  0  0
  -24.6665  -31.8214   23.1681 C   0  0  0  0  0  0
  -25.9331  -32.4581   23.8160 C   0  0  1  0  0  0
  -27.2330  -26.9083   20.1743 C   0  0  0  0  0  0
  -25.5986  -33.8396   24.2067 N   0  0  0  0  0  0
  -23.4826  -30.4320   21.5195 C   0  0  2  0  0  0
  -24.9369  -28.8155   20.1152 C   0  0  0  0  0  0
  -22.7688  -29.4427   22.4785 C   0  0  0  0  0  0
  -18.0326  -28.1403   22.8471 C   0  0  0  0  0  0
  -24.1499  -36.7200   23.2648 C   0  0  0  0  0  0
  -26.0551  -30.6231   21.3999 C   0  0  0  0  0  0
  -26.1252  -29.2119   20.7403 C   0  0  0  0  0  0
  -27.2654  -28.2825   20.7403 C   0  0  0  0  0  0
  -25.9959  -26.6604   19.5352 C   0  0  0  0  0  0
  -24.8980  -27.5584   19.4939 C   0  0  0  0  0  0
  -23.7242  -29.7464   20.1472 C   0  0  0  0  0  0
  -25.4141  -36.2966   24.0299 C   0  0  1  0  0  0
  -20.5956  -28.3752   23.1188 C   0  0  2  0  0  0
  -20.6807  -26.9434   22.5402 C   0  0  0  0  0  0
  -19.5776  -26.6372   21.5220 C   0  0  0  0  0  0
  -18.1958  -26.7935   22.1626 C   0  0  0  0  0  0
  -19.1588  -28.8899   23.2815 C   0  0  0  0  0  0
  -18.9494  -30.1489   23.8848 C   0  0  0  0  0  0
  -17.6485  -30.6596   24.0550 C   0  0  0  0  0  0
  -25.9105  -34.9347   23.5007 C   0  0  0  0  0  0
  -16.5377  -29.9080   23.6343 C   0  0  0  0  0  0
  -16.7306  -28.6498   23.0368 C   0  0  0  0  0  0
  -26.4569  -31.6531   25.0695 C   0  0  0  0  0  0
  -25.3683  -31.3792   26.1340 C   0  0  0  0  0  0
  -27.0474  -30.2897   24.6446 C   0  0  0  0  0  0
  -27.6056  -32.4344   25.7498 C   0  0  0  0  0  0
  -27.5574  -37.1761   24.8468 C   0  0  0  0  0  0
  -21.4355  -29.3037   22.3535 N   0  0  0  0  0  0
  -26.4288  -37.3701   23.9403 N   0  0  0  0  0  0
  -24.7566  -30.9858   22.0828 N   0  0  0  0  0  0
  -23.4223  -28.8005   23.3041 O   0  0  0  0  0  0
  -28.2455  -25.7999   20.2632 O   0  0  0  0  0  0
  -26.5716  -34.8886   22.4604 O   0  0  0  0  0  0
  -23.5728  -32.1192   23.6759 O   0  0  0  0  0  0
  -30.7094  -22.5391   21.9387 C   0  0  0  0  0  0
  -29.1023  -22.9408   20.6060 C   0  0  0  0  0  0
  -27.5821  -24.7941   17.3528 C   0  0  0  0  0  0
  -28.2677  -16.6077   20.0046 C   0  0  0  0  0  0
  -28.5015  -24.0933   18.3633 C   0  0  0  0  0  0
  -29.0679  -19.8660   20.1713 C   0  0  0  0  0  0
  -30.0161  -18.3286   20.4988 C   0  0  0  0  0  0
  -28.1362  -24.1796   19.8661 C   0  0  2  0  0  0
  -29.9627  -23.5484   21.4291 N   0  0  0  0  0  0
  -30.4241  -21.3151   21.5248 N   0  0  0  0  0  0
  -29.3992  -21.4426   20.6411 N   0  0  0  0  0  0
  -29.6797  -16.6794   20.3401 N   0  0  0  0  0  0
  -31.4454  -13.1252   19.1320 H   0  0  0  0  0  0
  -30.5722  -12.0005   20.1233 H   0  0  0  0  0  0
  -29.9352  -11.7471   17.7008 H   0  0  0  0  0  0
  -29.5224  -13.4409   17.6123 H   0  0  0  0  0  0
  -28.0839  -11.2483   19.1293 H   0  0  0  0  0  0
  -27.4160  -12.2634   17.8765 H   0  0  0  0  0  0
  -27.4862  -14.1733   19.2755 H   0  0  0  0  0  0
  -28.8789  -12.5378   21.4599 H   0  0  0  0  0  0
  -28.2882  -14.1525   21.6988 H   0  0  0  0  0  0
  -25.2738   -9.5624   22.4791 H   0  0  0  0  0  0
  -23.9972   -7.4580   22.7475 H   0  0  0  0  0  0
  -21.0833   -8.8748   19.8951 H   0  0  0  0  0  0
  -22.3701  -10.9641   19.6175 H   0  0  0  0  0  0
  -21.1993   -7.6130   23.9708 H   0  0  0  0  0  0
  -21.1490   -6.0508   25.9080 H   0  0  0  0  0  0
  -22.0605   -2.7592   23.2846 H   0  0  0  0  0  0
  -22.3973  -11.9827   22.4894 H   0  0  0  0  0  0
  -21.0987  -13.1197   22.2655 H   0  0  0  0  0  0
  -24.5999  -15.8225   20.5007 H   0  0  0  0  0  0
  -26.2143  -15.6265   20.0450 H   0  0  0  0  0  0
  -26.7404  -32.5118   23.0876 H   0  0  0  0  0  0
  -25.0084  -33.9469   25.0186 H   0  0  0  0  0  0
  -22.7966  -31.2641   21.3468 H   0  0  0  0  0  0
  -23.3774  -35.9518   23.3294 H   0  0  0  0  0  0
  -24.3570  -36.8861   22.2064 H   0  0  0  0  0  0
  -23.7246  -37.6381   23.6713 H   0  0  0  0  0  0
  -26.2399  -31.3668   20.6235 H   0  0  0  0  0  0
  -26.9120  -30.6775   22.0593 H   0  0  0  0  0  0
  -28.1657  -28.5902   21.2534 H   0  0  0  0  0  0
  -25.8271  -25.6897   19.1000 H   0  0  0  0  0  0
  -23.9886  -27.2371   19.0046 H   0  0  0  0  0  0
  -23.8837  -30.5147   19.3896 H   0  0  0  0  0  0
  -22.8334  -29.2032   19.8273 H   0  0  0  0  0  0
  -25.1346  -36.1763   25.0792 H   0  0  0  0  0  0
  -21.0038  -28.3355   24.1314 H   0  0  0  0  0  0
  -20.5706  -26.2365   23.3642 H   0  0  0  0  0  0
  -21.6668  -26.7419   22.1196 H   0  0  0  0  0  0
  -19.6937  -25.6272   21.1282 H   0  0  0  0  0  0
  -19.6713  -27.3157   20.6732 H   0  0  0  0  0  0
  -17.4232  -26.6684   21.4026 H   0  0  0  0  0  0
  -18.0344  -26.0086   22.9029 H   0  0  0  0  0  0
  -19.7968  -30.7319   24.2198 H   0  0  0  0  0  0
  -17.5034  -31.6272   24.5155 H   0  0  0  0  0  0
  -15.5375  -30.2961   23.7693 H   0  0  0  0  0  0
  -15.8707  -28.0793   22.7118 H   0  0  0  0  0  0
  -24.5857  -30.7161   25.7632 H   0  0  0  0  0  0
  -24.8880  -32.3000   26.4660 H   0  0  0  0  0  0
  -25.7889  -30.9006   27.0192 H   0  0  0  0  0  0
  -26.3150  -29.6553   24.1439 H   0  0  0  0  0  0
  -27.3990  -29.7281   25.5112 H   0  0  0  0  0  0
  -27.9098  -30.4079   23.9881 H   0  0  0  0  0  0
  -27.2621  -33.3681   26.1963 H   0  0  0  0  0  0
  -28.3922  -32.6848   25.0368 H   0  0  0  0  0  0
  -28.0665  -31.8546   26.5505 H   0  0  0  0  0  0
  -28.2585  -38.0064   24.7508 H   0  0  0  0  0  0
  -28.1079  -36.2590   24.6314 H   0  0  0  0  0  0
  -27.2285  -37.1422   25.8869 H   0  0  0  0  0  0
  -20.9617  -29.8711   21.6646 H   0  0  0  0  0  0
  -26.0140  -38.2765   24.1391 H   0  0  0  0  0  0
  -31.5049  -22.7158   22.6490 H   0  0  0  0  0  0
  -27.9247  -24.6032   16.3354 H   0  0  0  0  0  0
  -27.5844  -25.8750   17.4865 H   0  0  0  0  0  0
  -26.5574  -24.4287   17.4194 H   0  0  0  0  0  0
  -27.7448  -16.0508   20.7739 H   0  0  0  0  0  0
  -28.1399  -16.1500   19.0247 H   0  0  0  0  0  0
  -27.7763  -17.5746   19.9461 H   0  0  0  0  0  0
  -29.5242  -24.4463   18.2290 H   0  0  0  0  0  0
  -28.5196  -23.0386   18.0856 H   0  0  0  0  0  0
  -28.0711  -19.6887   20.5744 H   0  0  0  0  0  0
  -28.9145  -19.9101   19.0928 H   0  0  0  0  0  0
  -30.2923  -18.4066   21.5504 H   0  0  0  0  0  0
  -30.9641  -18.4548   19.9755 H   0  0  0  0  0  0
  -27.0972  -23.8790   20.0023 H   0  0  0  0  0  0
  1 25  1  0  0  0
  1 30  2  0  0  0
  1 82  1  0  0  0
  2  3  1  0  0  0
  2 25  1  0  0  0
  2 83  1  0  0  0
  2 84  1  0  0  0
  3  4  1  0  0  0
  3 85  1  0  0  0
  3 86  1  0  0  0
  4  5  1  0  0  0
  4 87  1  0  0  0
  4 88  1  0  0  0
  5  6  1  0  0  0
  5 26  1  0  0  0
  5 89  1  0  0  0
  6 25  1  0  0  0
  6 90  1  0  0  0
  6 91  1  0  0  0
  7  8  2  0  0  0
  7 26  1  0  0  0
  7 29  1  0  0  0
  8  9  1  0  0  0
  8 22  1  0  0  0
  9 10  1  0  0  0
  9 27  2  0  0  0
 10 11  2  0  0  0
 10 15  1  0  0  0
 11 12  1  0  0  0
 11 92  1  0  0  0
 12 13  2  0  0  0
 12 93  1  0  0  0
 13 14  1  0  0  0
 13 31  1  0  0  0
 14 15  2  0  0  0
 14 94  1  0  0  0
 15 95  1  0  0  0
 16 17  2  0  0  0
 16 21  1  0  0  0
 16 31  1  0  0  0
 17 18  1  0  0  0
 17 96  1  0  0  0
 18 19  2  0  0  0
 18 97  1  0  0  0
 19 20  1  0  0  0
 19 24  1  0  0  0
 20 21  2  0  0  0
 20 98  1  0  0  0
 21 23  1  0  0  0
 22 28  1  0  0  0
 22 32  2  0  0  0
 26 27  1  0  0  0
 28 99  1  0  0  0
 28100  1  0  0  0
 29101  1  0  0  0
 29102  1  0  0  0
 33 34  1  0  0  0
 33 66  1  0  0  0
 33 70  2  0  0  0
 34 36  1  0  0  0
 34 59  1  0  0  0
 34103  1  0  0  0
 35 44  2  0  0  0
 35 45  1  0  0  0
 35 68  1  0  0  0
 36 56  1  0  0  0
 36104  1  0  0  0
 37 39  1  0  0  0
 37 47  1  0  0  0
 37 66  1  0  0  0
 37105  1  0  0  0
 38 43  2  0  0  0
 38 46  1  0  0  0
 38 47  1  0  0  0
 39 64  1  0  0  0
 39 67  2  0  0  0
 40 52  1  0  0  0
 40 53  2  0  0  0
 40 58  1  0  0  0
 41106  1  0  0  0
 41107  1  0  0  0
 41108  1  0  0  0
 41 48  1  0  0  0
 42 43  1  0  0  0
 42 66  1  0  0  0
 42109  1  0  0  0
 42110  1  0  0  0
 43 44  1  0  0  0
 44111  1  0  0  0
 45 46  2  0  0  0
 45112  1  0  0  0
 46113  1  0  0  0
 47114  1  0  0  0
 47115  1  0  0  0
 48 56  1  0  0  0
 48 65  1  0  0  0
 48116  1  0  0  0
 49 50  1  0  0  0
 49 53  1  0  0  0
 49 64  1  0  0  0
 49117  1  0  0  0
 50 51  1  0  0  0
 50118  1  0  0  0
 50119  1  0  0  0
 51 52  1  0  0  0
 51120  1  0  0  0
 51121  1  0  0  0
 52122  1  0  0  0
 52123  1  0  0  0
 53 54  1  0  0  0
 54 55  2  0  0  0
 54124  1  0  0  0
 55 57  1  0  0  0
 55125  1  0  0  0
 56 69  2  0  0  0
 57 58  2  0  0  0
 57126  1  0  0  0
 58127  1  0  0  0
 59 60  1  0  0  0
 59 61  1  0  0  0
 59 62  1  0  0  0
 60128  1  0  0  0
 60129  1  0  0  0
 60130  1  0  0  0
 61131  1  0  0  0
 61132  1  0  0  0
 61133  1  0  0  0
 62134  1  0  0  0
 62135  1  0  0  0
 62136  1  0  0  0
 63 65  1  0  0  0
 63137  1  0  0  0
 63138  1  0  0  0
 63139  1  0  0  0
 64140  1  0  0  0
 65141  1  0  0  0
 68 78  1  0  0  0
 71 79  1  0  0  0
 71 80  2  0  0  0
 71142  1  0  0  0
 72 78  1  0  0  0
 72 79  2  0  0  0
 72 81  1  0  0  0
 73 75  1  0  0  0
 73143  1  0  0  0
 73144  1  0  0  0
 73145  1  0  0  0
 74 82  1  0  0  0
 74146  1  0  0  0
 74147  1  0  0  0
 74148  1  0  0  0
 75149  1  0  0  0
 75150  1  0  0  0
 75 78  1  0  0  0
 76 77  1  0  0  0
 76 81  1  0  0  0
 76151  1  0  0  0
 76152  1  0  0  0
 77 82  1  0  0  0
 77153  1  0  0  0
 77154  1  0  0  0
 78155  1  0  0  0
 80 81  1  0  0  0
M  ISO  4   1 100  68 101  78 101  82 100
M  END
> <chiral flag>
0

> <version>
0

> <s_m_source_file>
/data/baiqing/PycharmProjects/Reinvent-master-3.2/result/LINK_invent/BTK/process_docking_weight1_custom_sum_contain_oxygen_bond_distance_aromatic_linkinvent_7_9_3/rearranged_h_0054.sdf

> <i_m_source_file_index>
24

> <r_mmod_Potential_Energy-OPLS-2005>
1655.97338867188

> <r_mmod_Stretch_Energy-OPLS-2005>
694.163818359375

> <r_mmod_Bend_Energy-OPLS-2005>
526.30322265625

> <r_mmod_Torsional_Energy-OPLS-2005>
272.129211425781

> <r_mmod_Improper_Torsional_Energy-OPLS-2005>
4.53764677047729

> <r_mmod_Van_der_Waal_Energy-OPLS-2005>
114.996704101562

> <r_mmod_Electrostatic_Energy-OPLS-2005>
-243.449523925781

> <r_mmod_Solvation_Energy-OPLS-2005>
-236.982696533203

> <b_mmod_Minimization_Converged-OPLS-2005>
0

> <r_mmod_RMS_Derivative-OPLS-2005>
0.998135030269623

$$$$
24
                    3D
 Structure written by MMmdl.
162170  0  0  1  0            999 V2000
  -30.7286  -14.4508   20.5706 C   0  0  0  0  0  0
  -30.4196  -12.2981   19.4165 C   0  0  0  0  0  0
  -29.4901  -12.5042   18.2035 C   0  0  0  0  0  0
  -28.0141  -12.3659   18.6214 C   0  0  0  0  0  0
  -27.6638  -13.2098   19.8776 C   0  0  2  0  0  0
  -28.7077  -12.9979   20.9988 C   0  0  0  0  0  0
  -25.2613  -13.8154   20.5688 C   0  0  0  0  0  0
  -24.1869  -13.0432   20.9185 C   0  0  0  0  0  0
  -24.6417  -11.6888   20.8751 C   0  0  0  0  0  0
  -23.9072  -10.4286   21.0412 C   0  0  0  0  0  0
  -24.3620   -9.4189   21.9183 C   0  0  0  0  0  0
  -23.6290   -8.2228   22.0748 C   0  0  0  0  0  0
  -22.4273   -8.0286   21.3544 C   0  0  0  0  0  0
  -21.9908   -9.0258   20.4635 C   0  0  0  0  0  0
  -22.7242  -10.2132   20.3045 C   0  0  0  0  0  0
  -21.6848   -6.0740   22.5271 C   0  0  0  0  0  0
  -21.4017   -6.5636   23.8205 C   0  0  0  0  0  0
  -21.3656   -5.6785   24.9170 C   0  0  0  0  0  0
  -21.6025   -4.3044   24.7222 C   0  0  0  0  0  0
  -21.8824   -3.8142   23.4338 C   0  0  0  0  0  0
  -21.9192   -4.6965   22.3395 C   0  0  0  0  0  0
  -22.7901  -13.5235   21.1848 C   0  0  0  0  0  0
  -22.1669   -4.2151   21.0974 F   0  0  0  0  0  0
  -21.5623   -3.4524   25.7733 F   0  0  0  0  0  0
  -30.0395  -13.2853   20.4401 N   0  0  0  0  0  0
  -26.3049  -12.9325   20.3398 N   0  0  0  0  0  0
  -25.9350  -11.6477   20.5809 N   0  0  0  0  0  0
  -22.0511  -12.8238   22.0382 N   0  0  0  0  0  0
  -25.4374  -15.1868   20.4112 N   0  0  0  0  0  0
  -31.8573  -14.6164   20.1016 O   0  0  0  0  0  0
  -21.6627   -6.8889   21.4235 O   0  0  0  0  0  0
  -22.3581  -14.5544   20.6695 O   0  0  0  0  0  0
  -24.6112  -31.8680   23.2077 C   0  0  0  0  0  0
  -25.8997  -32.4833   23.8363 C   0  0  1  0  0  0
  -27.2514  -27.4479   20.0997 C   0  0  0  0  0  0
  -25.5831  -33.8626   24.2316 N   0  0  0  0  0  0
  -23.4026  -30.4871   21.5514 C   0  0  2  0  0  0
  -24.8564  -28.9550   20.1133 C   0  0  0  0  0  0
  -22.7387  -29.4663   22.5029 C   0  0  0  0  0  0
  -18.0267  -28.1368   22.8485 C   0  0  0  0  0  0
  -24.1515  -36.7363   23.2642 C   0  0  0  0  0  0
  -25.9291  -30.8428   21.3549 C   0  0  0  0  0  0
  -26.0143  -29.4780   20.7025 C   0  0  0  0  0  0
  -27.2161  -28.7333   20.6916 C   0  0  0  0  0  0
  -26.0839  -26.9426   19.4956 C   0  0  0  0  0  0
  -24.8854  -27.6873   19.5058 C   0  0  0  0  0  0
  -23.6110  -29.8108   20.1701 C   0  0  0  0  0  0
  -25.4112  -36.3143   24.0368 C   0  0  1  0  0  0
  -20.5841  -28.3671   23.1336 C   0  0  2  0  0  0
  -20.6755  -26.9406   22.5438 C   0  0  0  0  0  0
  -19.5748  -26.6394   21.5224 C   0  0  0  0  0  0
  -18.1917  -26.7908   22.1634 C   0  0  0  0  0  0
  -19.1498  -28.8833   23.2907 C   0  0  0  0  0  0
  -18.9427  -30.1428   23.8930 C   0  0  0  0  0  0
  -17.6427  -30.6570   24.0563 C   0  0  0  0  0  0
  -25.9029  -34.9499   23.5163 C   0  0  0  0  0  0
  -16.5323  -29.9073   23.6307 C   0  0  0  0  0  0
  -16.7249  -28.6488   23.0333 C   0  0  0  0  0  0
  -26.4447  -31.6571   25.0658 C   0  0  0  0  0  0
  -25.3717  -31.3630   26.1400 C   0  0  0  0  0  0
  -27.0261  -30.3028   24.5977 C   0  0  0  0  0  0
  -27.6060  -32.4257   25.7382 C   0  0  0  0  0  0
  -27.5607  -37.1830   24.8452 C   0  0  0  0  0  0
  -21.4118  -29.3047   22.3762 N   0  0  0  0  0  0
  -26.4323  -37.3803   23.9402 N   0  0  0  0  0  0
  -24.6662  -31.0774   22.0989 N   0  0  0  0  0  0
  -23.4145  -28.8205   23.3086 O   0  0  0  0  0  0
  -28.3783  -26.6498   20.1455 O   0  0  0  0  0  0
  -26.5624  -34.8941   22.4744 O   0  0  0  0  0  0
  -23.5305  -32.1416   23.7493 O   0  0  0  0  0  0
  -29.0601  -23.5034   21.9865 C   0  0  0  0  0  0
  -29.7830  -24.0800   20.0328 C   0  0  0  0  0  0
  -29.8073  -22.4640   21.4769 C   0  0  0  0  0  0
  -29.2729  -26.6383   22.3873 C   0  0  0  0  0  0
  -32.0863  -20.2949   20.9152 C   0  0  0  0  0  0
  -30.1359  -21.1708   22.2169 C   0  0  0  0  0  0
  -29.3925  -17.9176   20.9809 C   0  0  0  0  0  0
  -30.5339  -16.8796   21.1008 C   0  0  0  0  0  0
  -29.8211  -19.3373   20.5111 C   0  0  0  0  0  0
  -28.4670  -25.8707   21.3215 C   0  0  2  0  0  0
  -30.2514  -22.8334   20.1999 N   0  0  0  0  0  0
  -29.0796  -24.5568   21.0770 N   0  0  0  0  0  0
  -30.0530  -15.4846   21.1041 N   0  0  0  0  0  0
  -30.7319  -20.0335   21.4604 N   0  3  1  0  0  0
  -31.4629  -12.3827   19.1079 H   0  0  0  0  0  0
  -30.3104  -11.2872   19.8137 H   0  0  0  0  0  0
  -29.7211  -11.7795   17.4225 H   0  0  0  0  0  0
  -29.6626  -13.4892   17.7673 H   0  0  0  0  0  0
  -27.8273  -11.3114   18.8222 H   0  0  0  0  0  0
  -27.3597  -12.6321   17.7910 H   0  0  0  0  0  0
  -27.7066  -14.2564   19.5769 H   0  0  0  0  0  0
  -28.6782  -11.9698   21.3581 H   0  0  0  0  0  0
  -28.4786  -13.6163   21.8676 H   0  0  0  0  0  0
  -25.2764   -9.5638   22.4759 H   0  0  0  0  0  0
  -23.9973   -7.4603   22.7462 H   0  0  0  0  0  0
  -21.0825   -8.8775   19.8958 H   0  0  0  0  0  0
  -22.3694  -10.9679   19.6149 H   0  0  0  0  0  0
  -21.2019   -7.6150   23.9720 H   0  0  0  0  0  0
  -21.1481   -6.0516   25.9075 H   0  0  0  0  0  0
  -22.0611   -2.7608   23.2832 H   0  0  0  0  0  0
  -22.4135  -11.9902   22.4776 H   0  0  0  0  0  0
  -21.1145  -13.1290   22.2606 H   0  0  0  0  0  0
  -24.6754  -15.8491   20.5062 H   0  0  0  0  0  0
  -26.2958  -15.6175   20.0885 H   0  0  0  0  0  0
  -26.7062  -32.5585   23.1122 H   0  0  0  0  0  0
  -24.9844  -33.9787   25.0364 H   0  0  0  0  0  0
  -22.6914  -31.3024   21.4050 H   0  0  0  0  0  0
  -23.3770  -35.9713   23.3303 H   0  0  0  0  0  0
  -24.3601  -36.8968   22.2053 H   0  0  0  0  0  0
  -23.7307  -37.6600   23.6620 H   0  0  0  0  0  0
  -26.0272  -31.6109   20.5857 H   0  0  0  0  0  0
  -26.8211  -30.9056   21.9660 H   0  0  0  0  0  0
  -28.1074  -29.1392   21.1478 H   0  0  0  0  0  0
  -26.0965  -25.9626   19.0366 H   0  0  0  0  0  0
  -23.9961  -27.2778   19.0499 H   0  0  0  0  0  0
  -23.7018  -30.5812   19.4031 H   0  0  0  0  0  0
  -22.7361  -29.2176   19.8929 H   0  0  0  0  0  0
  -25.1296  -36.2039   25.0873 H   0  0  0  0  0  0
  -20.9932  -28.3254   24.1462 H   0  0  0  0  0  0
  -20.5655  -26.2285   23.3630 H   0  0  0  0  0  0
  -21.6633  -26.7460   22.1244 H   0  0  0  0  0  0
  -19.6937  -25.6322   21.1224 H   0  0  0  0  0  0
  -19.6692  -27.3232   20.6768 H   0  0  0  0  0  0
  -17.4195  -26.6643   21.4038 H   0  0  0  0  0  0
  -18.0328  -26.0054   22.9027 H   0  0  0  0  0  0
  -19.7891  -30.7220   24.2355 H   0  0  0  0  0  0
  -17.4971  -31.6259   24.5145 H   0  0  0  0  0  0
  -15.5316  -30.2984   23.7599 H   0  0  0  0  0  0
  -15.8648  -28.0811   22.7043 H   0  0  0  0  0  0
  -24.5941  -30.6931   25.7692 H   0  0  0  0  0  0
  -24.8834  -32.2763   26.4807 H   0  0  0  0  0  0
  -25.8069  -30.8807   27.0169 H   0  0  0  0  0  0
  -26.2821  -29.6865   24.0906 H   0  0  0  0  0  0
  -27.3945  -29.7169   25.4408 H   0  0  0  0  0  0
  -27.8688  -30.4383   23.9192 H   0  0  0  0  0  0
  -27.2721  -33.3564   26.1971 H   0  0  0  0  0  0
  -28.3809  -32.6779   25.0129 H   0  0  0  0  0  0
  -28.0776  -31.8341   26.5247 H   0  0  0  0  0  0
  -28.2602  -38.0140   24.7473 H   0  0  0  0  0  0
  -28.1137  -36.2671   24.6303 H   0  0  0  0  0  0
  -27.2308  -37.1495   25.8849 H   0  0  0  0  0  0
  -20.9272  -29.8728   21.6952 H   0  0  0  0  0  0
  -26.0258  -38.2935   24.1297 H   0  0  0  0  0  0
  -28.5577  -23.5978   22.9370 H   0  0  0  0  0  0
  -29.9828  -24.6668   19.1493 H   0  0  0  0  0  0
  -29.3470  -26.0371   23.2951 H   0  0  0  0  0  0
  -30.2776  -26.8519   22.0218 H   0  0  0  0  0  0
  -28.7809  -27.5742   22.6492 H   0  0  0  0  0  0
  -32.7239  -20.7751   21.6549 H   0  0  0  0  0  0
  -32.0617  -20.9307   20.0311 H   0  0  0  0  0  0
  -32.5664  -19.3569   20.6367 H   0  0  0  0  0  0
  -29.2355  -20.7988   22.7077 H   0  0  0  0  0  0
  -30.8168  -21.3968   23.0389 H   0  0  0  0  0  0
  -28.8409  -17.9746   21.9198 H   0  0  0  0  0  0
  -28.6737  -17.5484   20.2474 H   0  0  0  0  0  0
  -31.2267  -17.0343   20.2711 H   0  0  0  0  0  0
  -31.1061  -17.0459   22.0144 H   0  0  0  0  0  0
  -28.9293  -19.9471   20.3560 H   0  0  0  0  0  0
  -30.2826  -19.2666   19.5250 H   0  0  0  0  0  0
  -27.4647  -25.6586   21.7033 H   0  0  0  0  0  0
  -29.1282  -15.2952   21.4593 H   0  0  0  0  0  0
  -30.9031  -19.3604   22.1892 H   0  0  0  0  0  0
  1 25  1  0  0  0
  1 30  2  0  0  0
  1 83  1  0  0  0
  2  3  1  0  0  0
  2 25  1  0  0  0
  2 85  1  0  0  0
  2 86  1  0  0  0
  3  4  1  0  0  0
  3 87  1  0  0  0
  3 88  1  0  0  0
  4  5  1  0  0  0
  4 89  1  0  0  0
  4 90  1  0  0  0
  5  6  1  0  0  0
  5 26  1  0  0  0
  5 91  1  0  0  0
  6 25  1  0  0  0
  6 92  1  0  0  0
  6 93  1  0  0  0
  7  8  2  0  0  0
  7 26  1  0  0  0
  7 29  1  0  0  0
  8  9  1  0  0  0
  8 22  1  0  0  0
  9 10  1  0  0  0
  9 27  2  0  0  0
 10 11  2  0  0  0
 10 15  1  0  0  0
 11 12  1  0  0  0
 11 94  1  0  0  0
 12 13  2  0  0  0
 12 95  1  0  0  0
 13 14  1  0  0  0
 13 31  1  0  0  0
 14 15  2  0  0  0
 14 96  1  0  0  0
 15 97  1  0  0  0
 16 17  2  0  0  0
 16 21  1  0  0  0
 16 31  1  0  0  0
 17 18  1  0  0  0
 17 98  1  0  0  0
 18 19  2  0  0  0
 18 99  1  0  0  0
 19 20  1  0  0  0
 19 24  1  0  0  0
 20 21  2  0  0  0
 20100  1  0  0  0
 21 23  1  0  0  0
 22 28  1  0  0  0
 22 32  2  0  0  0
 26 27  1  0  0  0
 28101  1  0  0  0
 28102  1  0  0  0
 29103  1  0  0  0
 29104  1  0  0  0
 33 34  1  0  0  0
 33 66  1  0  0  0
 33 70  2  0  0  0
 34 36  1  0  0  0
 34 59  1  0  0  0
 34105  1  0  0  0
 35 44  2  0  0  0
 35 45  1  0  0  0
 35 68  1  0  0  0
 36 56  1  0  0  0
 36106  1  0  0  0
 37 39  1  0  0  0
 37 47  1  0  0  0
 37 66  1  0  0  0
 37107  1  0  0  0
 38 43  2  0  0  0
 38 46  1  0  0  0
 38 47  1  0  0  0
 39 64  1  0  0  0
 39 67  2  0  0  0
 40 52  1  0  0  0
 40 53  2  0  0  0
 40 58  1  0  0  0
 41108  1  0  0  0
 41109  1  0  0  0
 41110  1  0  0  0
 41 48  1  0  0  0
 42 43  1  0  0  0
 42 66  1  0  0  0
 42111  1  0  0  0
 42112  1  0  0  0
 43 44  1  0  0  0
 44113  1  0  0  0
 45 46  2  0  0  0
 45114  1  0  0  0
 46115  1  0  0  0
 47116  1  0  0  0
 47117  1  0  0  0
 48 56  1  0  0  0
 48 65  1  0  0  0
 48118  1  0  0  0
 49 50  1  0  0  0
 49 53  1  0  0  0
 49 64  1  0  0  0
 49119  1  0  0  0
 50 51  1  0  0  0
 50120  1  0  0  0
 50121  1  0  0  0
 51 52  1  0  0  0
 51122  1  0  0  0
 51123  1  0  0  0
 52124  1  0  0  0
 52125  1  0  0  0
 53 54  1  0  0  0
 54 55  2  0  0  0
 54126  1  0  0  0
 55 57  1  0  0  0
 55127  1  0  0  0
 56 69  2  0  0  0
 57 58  2  0  0  0
 57128  1  0  0  0
 58129  1  0  0  0
 59 60  1  0  0  0
 59 61  1  0  0  0
 59 62  1  0  0  0
 60130  1  0  0  0
 60131  1  0  0  0
 60132  1  0  0  0
 61133  1  0  0  0
 61134  1  0  0  0
 61135  1  0  0  0
 62136  1  0  0  0
 62137  1  0  0  0
 62138  1  0  0  0
 63 65  1  0  0  0
 63139  1  0  0  0
 63140  1  0  0  0
 63141  1  0  0  0
 64142  1  0  0  0
 65143  1  0  0  0
 68 80  1  0  0  0
 71 73  2  0  0  0
 71 82  1  0  0  0
 71144  1  0  0  0
 72 81  2  0  0  0
 72 82  1  0  0  0
 72145  1  0  0  0
 73 76  1  0  0  0
 73 81  1  0  0  0
 74146  1  0  0  0
 74147  1  0  0  0
 74148  1  0  0  0
 74 80  1  0  0  0
 75149  1  0  0  0
 75150  1  0  0  0
 75151  1  0  0  0
 75 84  1  0  0  0
 76 84  1  0  0  0
 76152  1  0  0  0
 76153  1  0  0  0
 77 78  1  0  0  0
 77 79  1  0  0  0
 77154  1  0  0  0
 77155  1  0  0  0
 78 83  1  0  0  0
 78156  1  0  0  0
 78157  1  0  0  0
 79 84  1  0  0  0
 79158  1  0  0  0
 79159  1  0  0  0
 80 82  1  0  0  0
 80160  1  0  0  0
 83161  1  0  0  0
 84162  1  0  0  0
M  CHG  1  84   1
M  ISO  4   1 100  68 101  80 101  83 100
M  END
> <chiral flag>
0

> <version>
0

> <s_m_source_file>
/data/baiqing/PycharmProjects/Reinvent-master-3.2/result/LINK_invent/BTK/process_docking_weight1_custom_sum_contain_oxygen_bond_distance_aromatic_linkinvent_7_9_3/rearranged_h_0054.sdf

> <i_m_source_file_index>
25

> <r_mmod_Potential_Energy-OPLS-2005>
-189.837509155273

> <r_mmod_Stretch_Energy-OPLS-2005>
38.0296478271484

> <r_mmod_Bend_Energy-OPLS-2005>
117.691032409668

> <r_mmod_Torsional_Energy-OPLS-2005>
255.576110839844

> <r_mmod_Improper_Torsional_Energy-OPLS-2005>
3.70736837387085

> <r_mmod_Van_der_Waal_Energy-OPLS-2005>
125.516334533691

> <r_mmod_Electrostatic_Energy-OPLS-2005>
-287.076202392578

> <r_mmod_Solvation_Energy-OPLS-2005>
-456.094573974609

> <b_mmod_Minimization_Converged-OPLS-2005>
0

> <r_mmod_RMS_Derivative-OPLS-2005>
3.8862578868866

$$$$
25
                    3D
 Structure written by MMmdl.
160168  0  0  1  0            999 V2000
  -30.7244  -14.4942   20.6308 C   0  0  0  0  0  0
  -30.4300  -12.3503   19.4117 C   0  0  0  0  0  0
  -29.4989  -12.5548   18.1948 C   0  0  0  0  0  0
  -28.0140  -12.4088   18.5899 C   0  0  0  0  0  0
  -27.6616  -13.2092   19.8715 C   0  0  2  0  0  0
  -28.7031  -12.9077   20.9649 C   0  0  0  0  0  0
  -25.2584  -13.8163   20.5638 C   0  0  0  0  0  0
  -24.1847  -13.0417   20.9174 C   0  0  0  0  0  0
  -24.6405  -11.6890   20.8718 C   0  0  0  0  0  0
  -23.9075  -10.4263   21.0386 C   0  0  0  0  0  0
  -24.3612   -9.4181   21.9171 C   0  0  0  0  0  0
  -23.6276   -8.2223   22.0752 C   0  0  0  0  0  0
  -22.4265   -8.0259   21.3536 C   0  0  0  0  0  0
  -21.9907   -9.0239   20.4639 C   0  0  0  0  0  0
  -22.7253  -10.2108   20.3033 C   0  0  0  0  0  0
  -21.6847   -6.0720   22.5292 C   0  0  0  0  0  0
  -21.4025   -6.5623   23.8228 C   0  0  0  0  0  0
  -21.3677   -5.6778   24.9194 C   0  0  0  0  0  0
  -21.6051   -4.3042   24.7261 C   0  0  0  0  0  0
  -21.8830   -3.8129   23.4390 C   0  0  0  0  0  0
  -21.9188   -4.6941   22.3436 C   0  0  0  0  0  0
  -22.7876  -13.5203   21.1874 C   0  0  0  0  0  0
  -22.1652   -4.2118   21.1012 F   0  0  0  0  0  0
  -21.5618   -3.4532   25.7776 F   0  0  0  0  0  0
  -30.0281  -13.3175   20.4596 N   0  0  0  0  0  0
  -26.3012  -12.9328   20.3298 N   0  0  0  0  0  0
  -25.9322  -11.6481   20.5691 N   0  0  0  0  0  0
  -22.0523  -12.8155   22.0419 N   0  0  0  0  0  0
  -25.4313  -15.1878   20.4028 N   0  0  0  0  0  0
  -31.8125  -14.6456   20.0640 O   0  0  0  0  0  0
  -21.6618   -6.8860   21.4256 O   0  0  0  0  0  0
  -22.3560  -14.5535   20.6776 O   0  0  0  0  0  0
  -24.6148  -31.8659   23.2098 C   0  0  0  0  0  0
  -25.9044  -32.4810   23.8394 C   0  0  1  0  0  0
  -27.2424  -27.4336   20.1052 C   0  0  0  0  0  0
  -25.5901  -33.8610   24.2326 N   0  0  0  0  0  0
  -23.4046  -30.4854   21.5510 C   0  0  2  0  0  0
  -24.8544  -28.9453   20.1206 C   0  0  0  0  0  0
  -22.7403  -29.4655   22.5034 C   0  0  0  0  0  0
  -18.0262  -28.1373   22.8502 C   0  0  0  0  0  0
  -24.1498  -36.7315   23.2642 C   0  0  0  0  0  0
  -25.9331  -30.8294   21.3654 C   0  0  0  0  0  0
  -26.0139  -29.4636   20.7133 C   0  0  0  0  0  0
  -27.2142  -28.7149   20.7010 C   0  0  0  0  0  0
  -26.0702  -26.9262   19.5088 C   0  0  0  0  0  0
  -24.8767  -27.6748   19.5165 C   0  0  0  0  0  0
  -23.6107  -29.8058   20.1709 C   0  0  0  0  0  0
  -25.4122  -36.3108   24.0335 C   0  0  1  0  0  0
  -20.5850  -28.3671   23.1321 C   0  0  2  0  0  0
  -20.6755  -26.9410   22.5415 C   0  0  0  0  0  0
  -19.5728  -26.6381   21.5219 C   0  0  0  0  0  0
  -18.1904  -26.7930   22.1616 C   0  0  0  0  0  0
  -19.1511  -28.8846   23.2899 C   0  0  0  0  0  0
  -18.9437  -30.1467   23.8881 C   0  0  0  0  0  0
  -17.6436  -30.6594   24.0551 C   0  0  0  0  0  0
  -25.9037  -34.9467   23.5132 C   0  0  0  0  0  0
  -16.5330  -29.9074   23.6342 C   0  0  0  0  0  0
  -16.7252  -28.6486   23.0383 C   0  0  0  0  0  0
  -26.4474  -31.6596   25.0729 C   0  0  0  0  0  0
  -25.3736  -31.3675   26.1475 C   0  0  0  0  0  0
  -27.0319  -30.3034   24.6128 C   0  0  0  0  0  0
  -27.6051  -32.4316   25.7485 C   0  0  0  0  0  0
  -27.5594  -37.1801   24.8460 C   0  0  0  0  0  0
  -21.4132  -29.3040   22.3741 N   0  0  0  0  0  0
  -26.4312  -37.3785   23.9400 N   0  0  0  0  0  0
  -24.6687  -31.0746   22.1001 N   0  0  0  0  0  0
  -23.4163  -28.8206   23.3090 O   0  0  0  0  0  0
  -28.3897  -26.6719   20.0808 O   0  0  0  0  0  0
  -26.5604  -34.8917   22.4696 O   0  0  0  0  0  0
  -23.5335  -32.1425   23.7482 O   0  0  0  0  0  0
  -29.1662  -23.9448   19.3443 C   0  0  0  0  0  0
  -28.7530  -23.1796   21.5543 C   0  0  0  0  0  0
  -28.8001  -24.2628   20.6588 C   0  0  0  0  0  0
  -29.3085  -21.7076   19.8848 C   0  0  0  0  0  0
  -29.2726  -15.4987   22.4342 C   0  0  0  0  0  0
  -31.6972  -19.6409   20.2995 C   0  0  0  0  0  0
  -28.4793  -25.6897   21.1264 C   0  0  0  0  0  0
  -29.4757  -20.2544   19.4128 C   0  0  0  0  0  0
  -30.7131  -16.9612   21.1292 C   0  0  0  0  0  0
  -29.8493  -17.9441   20.2767 C   0  0  0  0  0  0
  -29.4125  -22.6699   18.9676 N   0  0  0  0  0  0
  -29.0131  -21.9071   21.1683 N   0  0  0  0  0  0
  -30.1501  -15.5794   21.2567 N   0  0  0  0  0  0
  -30.2343  -19.3958   20.3659 N   0  3  1  0  0  0
  -31.4734  -12.4569   19.1087 H   0  0  0  0  0  0
  -30.3504  -11.3249   19.7773 H   0  0  0  0  0  0
  -29.7484  -11.8522   17.3980 H   0  0  0  0  0  0
  -29.6642  -13.5497   17.7789 H   0  0  0  0  0  0
  -27.8092  -11.3494   18.7458 H   0  0  0  0  0  0
  -27.3766  -12.7230   17.7625 H   0  0  0  0  0  0
  -27.7230  -14.2696   19.6236 H   0  0  0  0  0  0
  -28.7095  -11.8323   21.1519 H   0  0  0  0  0  0
  -28.4075  -13.2978   21.9262 H   0  0  0  0  0  0
  -25.2755   -9.5645   22.4754 H   0  0  0  0  0  0
  -23.9975   -7.4616   22.7479 H   0  0  0  0  0  0
  -21.0831   -8.8776   19.8952 H   0  0  0  0  0  0
  -22.3723  -10.9642   19.6134 H   0  0  0  0  0  0
  -21.2034   -7.6131   23.9743 H   0  0  0  0  0  0
  -21.1493   -6.0500   25.9098 H   0  0  0  0  0  0
  -22.0603   -2.7586   23.2913 H   0  0  0  0  0  0
  -22.4026  -11.9680   22.4641 H   0  0  0  0  0  0
  -21.1218  -13.1294   22.2792 H   0  0  0  0  0  0
  -24.6664  -15.8471   20.5046 H   0  0  0  0  0  0
  -26.2759  -15.6160   20.0451 H   0  0  0  0  0  0
  -26.7120  -32.5518   23.1164 H   0  0  0  0  0  0
  -25.0071  -33.9776   25.0490 H   0  0  0  0  0  0
  -22.6942  -31.3019   21.4065 H   0  0  0  0  0  0
  -23.3764  -35.9637   23.3284 H   0  0  0  0  0  0
  -24.3600  -36.8951   22.2059 H   0  0  0  0  0  0
  -23.7245  -37.6507   23.6674 H   0  0  0  0  0  0
  -26.0508  -31.5954   20.5977 H   0  0  0  0  0  0
  -26.8183  -30.8788   21.9887 H   0  0  0  0  0  0
  -28.1140  -29.1122   21.1511 H   0  0  0  0  0  0
  -26.0819  -25.9486   19.0476 H   0  0  0  0  0  0
  -23.9848  -27.2648   19.0628 H   0  0  0  0  0  0
  -23.7029  -30.5709   19.3997 H   0  0  0  0  0  0
  -22.7387  -29.2096   19.8938 H   0  0  0  0  0  0
  -25.1301  -36.1972   25.0827 H   0  0  0  0  0  0
  -20.9934  -28.3235   24.1443 H   0  0  0  0  0  0
  -20.5687  -26.2279   23.3599 H   0  0  0  0  0  0
  -21.6620  -26.7471   22.1186 H   0  0  0  0  0  0
  -19.6889  -25.6290   21.1250 H   0  0  0  0  0  0
  -19.6672  -27.3186   20.6742 H   0  0  0  0  0  0
  -17.4194  -26.6741   21.3988 H   0  0  0  0  0  0
  -18.0255  -26.0046   22.8972 H   0  0  0  0  0  0
  -19.7910  -30.7299   24.2219 H   0  0  0  0  0  0
  -17.4988  -31.6285   24.5126 H   0  0  0  0  0  0
  -15.5329  -30.2970   23.7675 H   0  0  0  0  0  0
  -15.8654  -28.0791   22.7121 H   0  0  0  0  0  0
  -24.5931  -30.7008   25.7797 H   0  0  0  0  0  0
  -24.8913  -32.2808   26.4946 H   0  0  0  0  0  0
  -25.8100  -30.8826   27.0220 H   0  0  0  0  0  0
  -26.2868  -29.6771   24.1210 H   0  0  0  0  0  0
  -27.4100  -29.7301   25.4605 H   0  0  0  0  0  0
  -27.8694  -30.4350   23.9279 H   0  0  0  0  0  0
  -27.2686  -33.3621   26.2070 H   0  0  0  0  0  0
  -28.3848  -32.6863   25.0295 H   0  0  0  0  0  0
  -28.0733  -31.8434   26.5389 H   0  0  0  0  0  0
  -28.2596  -38.0113   24.7542 H   0  0  0  0  0  0
  -28.1110  -36.2647   24.6258 H   0  0  0  0  0  0
  -27.2306  -37.1410   25.8859 H   0  0  0  0  0  0
  -20.9307  -29.8751   21.6941 H   0  0  0  0  0  0
  -26.0204  -38.2864   24.1386 H   0  0  0  0  0  0
  -29.2470  -24.7054   18.5813 H   0  0  0  0  0  0
  -28.4909  -23.3275   22.5924 H   0  0  0  0  0  0
  -29.2945  -16.3863   23.0687 H   0  0  0  0  0  0
  -29.5595  -14.6677   23.0812 H   0  0  0  0  0  0
  -28.2326  -15.3921   22.1242 H   0  0  0  0  0  0
  -31.9283  -20.7051   20.2731 H   0  0  0  0  0  0
  -32.1380  -19.1866   19.4110 H   0  0  0  0  0  0
  -32.2041  -19.2372   21.1769 H   0  0  0  0  0  0
  -29.2691  -26.0078   21.8089 H   0  0  0  0  0  0
  -27.5635  -25.6558   21.7227 H   0  0  0  0  0  0
  -29.9395  -20.2225   18.4256 H   0  0  0  0  0  0
  -28.4663  -19.8617   19.2872 H   0  0  0  0  0  0
  -30.8784  -17.3879   22.1177 H   0  0  0  0  0  0
  -31.7158  -16.9342   20.7022 H   0  0  0  0  0  0
  -28.8010  -17.8565   20.5651 H   0  0  0  0  0  0
  -29.9070  -17.6305   19.2318 H   0  0  0  0  0  0
  -29.9230  -19.7592   21.2574 H   0  0  0  0  0  0
  1 25  1  0  0  0
  1 30  2  0  0  0
  1 83  1  0  0  0
  2  3  1  0  0  0
  2 25  1  0  0  0
  2 85  1  0  0  0
  2 86  1  0  0  0
  3  4  1  0  0  0
  3 87  1  0  0  0
  3 88  1  0  0  0
  4  5  1  0  0  0
  4 89  1  0  0  0
  4 90  1  0  0  0
  5  6  1  0  0  0
  5 26  1  0  0  0
  5 91  1  0  0  0
  6 25  1  0  0  0
  6 92  1  0  0  0
  6 93  1  0  0  0
  7  8  2  0  0  0
  7 26  1  0  0  0
  7 29  1  0  0  0
  8  9  1  0  0  0
  8 22  1  0  0  0
  9 10  1  0  0  0
  9 27  2  0  0  0
 10 11  2  0  0  0
 10 15  1  0  0  0
 11 12  1  0  0  0
 11 94  1  0  0  0
 12 13  2  0  0  0
 12 95  1  0  0  0
 13 14  1  0  0  0
 13 31  1  0  0  0
 14 15  2  0  0  0
 14 96  1  0  0  0
 15 97  1  0  0  0
 16 17  2  0  0  0
 16 21  1  0  0  0
 16 31  1  0  0  0
 17 18  1  0  0  0
 17 98  1  0  0  0
 18 19  2  0  0  0
 18 99  1  0  0  0
 19 20  1  0  0  0
 19 24  1  0  0  0
 20 21  2  0  0  0
 20100  1  0  0  0
 21 23  1  0  0  0
 22 28  1  0  0  0
 22 32  2  0  0  0
 26 27  1  0  0  0
 28101  1  0  0  0
 28102  1  0  0  0
 29103  1  0  0  0
 29104  1  0  0  0
 33 34  1  0  0  0
 33 66  1  0  0  0
 33 70  2  0  0  0
 34 36  1  0  0  0
 34 59  1  0  0  0
 34105  1  0  0  0
 35 44  2  0  0  0
 35 45  1  0  0  0
 35 68  1  0  0  0
 36 56  1  0  0  0
 36106  1  0  0  0
 37 39  1  0  0  0
 37 47  1  0  0  0
 37 66  1  0  0  0
 37107  1  0  0  0
 38 43  2  0  0  0
 38 46  1  0  0  0
 38 47  1  0  0  0
 39 64  1  0  0  0
 39 67  2  0  0  0
 40 52  1  0  0  0
 40 53  2  0  0  0
 40 58  1  0  0  0
 41108  1  0  0  0
 41109  1  0  0  0
 41110  1  0  0  0
 41 48  1  0  0  0
 42 43  1  0  0  0
 42 66  1  0  0  0
 42111  1  0  0  0
 42112  1  0  0  0
 43 44  1  0  0  0
 44113  1  0  0  0
 45 46  2  0  0  0
 45114  1  0  0  0
 46115  1  0  0  0
 47116  1  0  0  0
 47117  1  0  0  0
 48 56  1  0  0  0
 48 65  1  0  0  0
 48118  1  0  0  0
 49 50  1  0  0  0
 49 53  1  0  0  0
 49 64  1  0  0  0
 49119  1  0  0  0
 50 51  1  0  0  0
 50120  1  0  0  0
 50121  1  0  0  0
 51 52  1  0  0  0
 51122  1  0  0  0
 51123  1  0  0  0
 52124  1  0  0  0
 52125  1  0  0  0
 53 54  1  0  0  0
 54 55  2  0  0  0
 54126  1  0  0  0
 55 57  1  0  0  0
 55127  1  0  0  0
 56 69  2  0  0  0
 57 58  2  0  0  0
 57128  1  0  0  0
 58129  1  0  0  0
 59 60  1  0  0  0
 59 61  1  0  0  0
 59 62  1  0  0  0
 60130  1  0  0  0
 60131  1  0  0  0
 60132  1  0  0  0
 61133  1  0  0  0
 61134  1  0  0  0
 61135  1  0  0  0
 62136  1  0  0  0
 62137  1  0  0  0
 62138  1  0  0  0
 63 65  1  0  0  0
 63139  1  0  0  0
 63140  1  0  0  0
 63141  1  0  0  0
 64142  1  0  0  0
 65143  1  0  0  0
 68 77  1  0  0  0
 71 73  2  0  0  0
 71 81  1  0  0  0
 71144  1  0  0  0
 72 73  1  0  0  0
 72 82  2  0  0  0
 72145  1  0  0  0
 73 77  1  0  0  0
 74 78  1  0  0  0
 74 81  2  0  0  0
 74 82  1  0  0  0
 75 83  1  0  0  0
 75146  1  0  0  0
 75147  1  0  0  0
 75148  1  0  0  0
 76149  1  0  0  0
 76150  1  0  0  0
 76151  1  0  0  0
 76 84  1  0  0  0
 77152  1  0  0  0
 77153  1  0  0  0
 78 84  1  0  0  0
 78154  1  0  0  0
 78155  1  0  0  0
 79 80  1  0  0  0
 79 83  1  0  0  0
 79156  1  0  0  0
 79157  1  0  0  0
 80 84  1  0  0  0
 80158  1  0  0  0
 80159  1  0  0  0
 84160  1  0  0  0
M  CHG  1  84   1
M  ISO  4   1 100  68 101  77 101  83 100
M  END
> <chiral flag>
0

> <version>
0

> <s_m_source_file>
/data/baiqing/PycharmProjects/Reinvent-master-3.2/result/LINK_invent/BTK/process_docking_weight1_custom_sum_contain_oxygen_bond_distance_aromatic_linkinvent_7_9_3/rearranged_h_0054.sdf

> <i_m_source_file_index>
26

> <r_mmod_Potential_Energy-OPLS-2005>
-493.255981445312

> <r_mmod_Stretch_Energy-OPLS-2005>
48.9720153808594

> <r_mmod_Bend_Energy-OPLS-2005>
125.278366088867

> <r_mmod_Torsional_Energy-OPLS-2005>
290.145660400391

> <r_mmod_Improper_Torsional_Energy-OPLS-2005>
5.59810829162598

> <r_mmod_Van_der_Waal_Energy-OPLS-2005>
176.476501464844

> <r_mmod_Electrostatic_Energy-OPLS-2005>
-716.838256835938

> <r_mmod_Solvation_Energy-OPLS-2005>
-435.951568603516

> <b_mmod_Minimization_Converged-OPLS-2005>
0

> <r_mmod_RMS_Derivative-OPLS-2005>
2.33665418624878

$$$$
26
                    3D
 Structure written by MMmdl.
158166  0  0  1  0            999 V2000
  -30.6251  -14.8470   20.4273 C   0  0  0  0  0  0
  -30.4184  -12.5182   19.5027 C   0  0  0  0  0  0
  -29.5138  -12.5088   18.2517 C   0  0  0  0  0  0
  -28.0440  -12.3131   18.6665 C   0  0  0  0  0  0
  -27.6259  -13.2491   19.8314 C   0  0  2  0  0  0
  -28.6634  -13.2829   20.9714 C   0  0  0  0  0  0
  -25.2464  -13.8225   20.5712 C   0  0  0  0  0  0
  -24.1777  -13.0444   20.9205 C   0  0  0  0  0  0
  -24.6387  -11.6928   20.8736 C   0  0  0  0  0  0
  -23.9077  -10.4299   21.0402 C   0  0  0  0  0  0
  -24.3621   -9.4217   21.9181 C   0  0  0  0  0  0
  -23.6289   -8.2258   22.0758 C   0  0  0  0  0  0
  -22.4271   -8.0288   21.3554 C   0  0  0  0  0  0
  -21.9914   -9.0258   20.4651 C   0  0  0  0  0  0
  -22.7249  -10.2135   20.3056 C   0  0  0  0  0  0
  -21.6859   -6.0733   22.5274 C   0  0  0  0  0  0
  -21.4022   -6.5636   23.8207 C   0  0  0  0  0  0
  -21.3657   -5.6790   24.9170 C   0  0  0  0  0  0
  -21.6039   -4.3052   24.7221 C   0  0  0  0  0  0
  -21.8821   -3.8145   23.4342 C   0  0  0  0  0  0
  -21.9195   -4.6962   22.3398 C   0  0  0  0  0  0
  -22.7805  -13.5216   21.1869 C   0  0  0  0  0  0
  -22.1665   -4.2147   21.0979 F   0  0  0  0  0  0
  -21.5625   -3.4534   25.7736 F   0  0  0  0  0  0
  -29.9582  -13.6304   20.3794 N   0  0  0  0  0  0
  -26.2871  -12.9456   20.3218 N   0  0  0  0  0  0
  -25.9319  -11.6580   20.5725 N   0  0  0  0  0  0
  -22.0460  -12.8199   22.0423 N   0  0  0  0  0  0
  -25.4162  -15.1953   20.4188 N   0  0  0  0  0  0
  -31.8323  -14.8251   20.1571 O   0  0  0  0  0  0
  -21.6641   -6.8878   21.4239 O   0  0  0  0  0  0
  -22.3490  -14.5526   20.6727 O   0  0  0  0  0  0
  -24.6402  -31.8491   23.1937 C   0  0  0  0  0  0
  -25.9200  -32.4720   23.8295 C   0  0  1  0  0  0
  -27.2083  -27.1825   20.1372 C   0  0  0  0  0  0
  -25.5980  -33.8524   24.2223 N   0  0  0  0  0  0
  -23.4383  -30.4718   21.5393 C   0  0  2  0  0  0
  -24.8847  -28.9104   20.1063 C   0  0  0  0  0  0
  -22.7535  -29.4587   22.4904 C   0  0  0  0  0  0
  -18.0295  -28.1400   22.8478 C   0  0  0  0  0  0
  -24.1488  -36.7260   23.2640 C   0  0  0  0  0  0
  -25.9908  -30.7375   21.3844 C   0  0  0  0  0  0
  -26.0605  -29.3536   20.7251 C   0  0  0  0  0  0
  -27.2239  -28.5031   20.7288 C   0  0  0  0  0  0
  -26.0129  -26.8393   19.4663 C   0  0  0  0  0  0
  -24.8720  -27.6653   19.4625 C   0  0  0  0  0  0
  -23.6588  -29.8057   20.1562 C   0  0  0  0  0  0
  -25.4119  -36.3038   24.0319 C   0  0  1  0  0  0
  -20.5900  -28.3724   23.1249 C   0  0  2  0  0  0
  -20.6787  -26.9438   22.5403 C   0  0  0  0  0  0
  -19.5762  -26.6393   21.5211 C   0  0  0  0  0  0
  -18.1937  -26.7940   22.1614 C   0  0  0  0  0  0
  -19.1548  -28.8879   23.2851 C   0  0  0  0  0  0
  -18.9467  -30.1470   23.8887 C   0  0  0  0  0  0
  -17.6470  -30.6602   24.0556 C   0  0  0  0  0  0
  -25.9066  -34.9419   23.5067 C   0  0  0  0  0  0
  -16.5359  -29.9094   23.6342 C   0  0  0  0  0  0
  -16.7275  -28.6510   23.0363 C   0  0  0  0  0  0
  -26.4527  -31.6567   25.0716 C   0  0  0  0  0  0
  -25.3715  -31.3739   26.1409 C   0  0  0  0  0  0
  -27.0388  -30.2968   24.6258 C   0  0  0  0  0  0
  -27.6069  -32.4313   25.7502 C   0  0  0  0  0  0
  -27.5567  -37.1781   24.8469 C   0  0  0  0  0  0
  -21.4235  -29.3057   22.3631 N   0  0  0  0  0  0
  -26.4282  -37.3753   23.9408 N   0  0  0  0  0  0
  -24.7091  -31.0382   22.0950 N   0  0  0  0  0  0
  -23.4196  -28.8132   23.3037 O   0  0  0  0  0  0
  -28.2638  -26.2180   20.2257 O   0  0  0  0  0  0
  -26.5629  -34.8912   22.4630 O   0  0  0  0  0  0
  -23.5537  -32.1371   23.7178 O   0  0  0  0  0  0
  -29.1325  -16.9468   19.6532 C   0  0  0  0  0  0
  -28.8864  -18.3798   19.6849 C   0  0  0  0  0  0
  -29.9956  -16.3048   20.6042 C   0  0  0  0  0  0
  -29.5017  -19.2059   20.6791 C   0  0  0  0  0  0
  -25.0022  -21.3426   18.8591 C   0  0  0  0  0  0
  -29.4757  -20.8360   20.8684 C   0  0  0  0  0  0
  -26.4692  -21.7944   18.8409 C   0  0  0  0  0  0
  -27.1689  -21.5853   20.1984 C   0  0  0  0  0  0
  -28.8933  -23.4412   20.5316 C   0  0  0  0  0  0
  -28.0049  -24.7230   19.9551 C   0  0  0  0  0  0
  -30.5295  -17.1680   21.5366 N   0  0  0  0  0  0
  -30.2828  -18.5146   21.5794 N   0  0  0  0  0  0
  -28.6136  -21.9290   20.1504 N   0  3  1  0  0  0
  -31.4624  -12.6188   19.2043 H   0  0  0  0  0  0
  -30.3541  -11.5661   20.0309 H   0  0  0  0  0  0
  -29.8196  -11.7150   17.5692 H   0  0  0  0  0  0
  -29.6241  -13.4465   17.7046 H   0  0  0  0  0  0
  -27.9290  -11.2725   18.9724 H   0  0  0  0  0  0
  -27.3848  -12.4540   17.8092 H   0  0  0  0  0  0
  -27.5890  -14.2492   19.4017 H   0  0  0  0  0  0
  -28.7186  -12.3228   21.4860 H   0  0  0  0  0  0
  -28.3789  -14.0230   21.7210 H   0  0  0  0  0  0
  -25.2761   -9.5692   22.4756 H   0  0  0  0  0  0
  -23.9992   -7.4649   22.7481 H   0  0  0  0  0  0
  -21.0846   -8.8777   19.8945 H   0  0  0  0  0  0
  -22.3704  -10.9671   19.6162 H   0  0  0  0  0  0
  -21.2026   -7.6145   23.9708 H   0  0  0  0  0  0
  -21.1476   -6.0525   25.9072 H   0  0  0  0  0  0
  -22.0602   -2.7606   23.2847 H   0  0  0  0  0  0
  -22.4066  -11.9839   22.4782 H   0  0  0  0  0  0
  -21.1079  -13.1232   22.2636 H   0  0  0  0  0  0
  -24.6537  -15.8522   20.5446 H   0  0  0  0  0  0
  -26.2768  -15.6406   20.1274 H   0  0  0  0  0  0
  -26.7261  -32.5339   23.1024 H   0  0  0  0  0  0
  -25.0164  -33.9648   25.0397 H   0  0  0  0  0  0
  -22.7396  -31.2972   21.3919 H   0  0  0  0  0  0
  -23.3750  -35.9591   23.3297 H   0  0  0  0  0  0
  -24.3588  -36.8902   22.2057 H   0  0  0  0  0  0
  -23.7241  -37.6455   23.6676 H   0  0  0  0  0  0
  -26.1366  -31.4937   20.6116 H   0  0  0  0  0  0
  -26.8660  -30.7890   22.0212 H   0  0  0  0  0  0
  -28.1164  -28.8321   21.2425 H   0  0  0  0  0  0
  -25.9189  -25.8958   18.9494 H   0  0  0  0  0  0
  -23.9775  -27.3272   18.9568 H   0  0  0  0  0  0
  -23.7867  -30.5832   19.4025 H   0  0  0  0  0  0
  -22.7730  -29.2465   19.8494 H   0  0  0  0  0  0
  -25.1296  -36.1869   25.0810 H   0  0  0  0  0  0
  -20.9979  -28.3323   24.1377 H   0  0  0  0  0  0
  -20.5709  -26.2343   23.3619 H   0  0  0  0  0  0
  -21.6656  -26.7486   22.1187 H   0  0  0  0  0  0
  -19.6944  -25.6299   21.1264 H   0  0  0  0  0  0
  -19.6705  -27.3187   20.6724 H   0  0  0  0  0  0
  -17.4213  -26.6684   21.4007 H   0  0  0  0  0  0
  -18.0329  -26.0082   22.9011 H   0  0  0  0  0  0
  -19.7943  -30.7268   24.2280 H   0  0  0  0  0  0
  -17.5031  -31.6294   24.5137 H   0  0  0  0  0  0
  -15.5358  -30.2990   23.7698 H   0  0  0  0  0  0
  -15.8664  -28.0824   22.7101 H   0  0  0  0  0  0
  -24.5946  -30.7019   25.7743 H   0  0  0  0  0  0
  -24.8828  -32.2899   26.4725 H   0  0  0  0  0  0
  -25.8012  -30.9016   27.0251 H   0  0  0  0  0  0
  -26.3001  -29.6690   24.1256 H   0  0  0  0  0  0
  -27.4016  -29.7262   25.4816 H   0  0  0  0  0  0
  -27.8899  -30.4221   23.9562 H   0  0  0  0  0  0
  -27.2706  -33.3676   26.1972 H   0  0  0  0  0  0
  -28.3948  -32.6766   25.0364 H   0  0  0  0  0  0
  -28.0649  -31.8487   26.5510 H   0  0  0  0  0  0
  -28.2578  -38.0082   24.7517 H   0  0  0  0  0  0
  -28.1073  -36.2617   24.6300 H   0  0  0  0  0  0
  -27.2292  -37.1432   25.8874 H   0  0  0  0  0  0
  -20.9447  -29.8780   21.6819 H   0  0  0  0  0  0
  -26.0148  -38.2825   24.1402 H   0  0  0  0  0  0
  -28.7235  -16.3593   18.8443 H   0  0  0  0  0  0
  -28.2654  -18.8310   18.9253 H   0  0  0  0  0  0
  -24.5229  -21.5292   17.8975 H   0  0  0  0  0  0
  -24.4322  -21.8743   19.6216 H   0  0  0  0  0  0
  -24.9181  -20.2751   19.0633 H   0  0  0  0  0  0
  -30.5114  -21.1469   20.7343 H   0  0  0  0  0  0
  -29.2831  -20.9816   21.9317 H   0  0  0  0  0  0
  -26.5035  -22.8417   18.5446 H   0  0  0  0  0  0
  -26.9945  -21.2396   18.0618 H   0  0  0  0  0  0
  -27.0441  -20.5394   20.4790 H   0  0  0  0  0  0
  -26.6738  -22.1565   20.9847 H   0  0  0  0  0  0
  -28.8410  -23.4964   21.6181 H   0  0  0  0  0  0
  -29.9374  -23.6343   20.2865 H   0  0  0  0  0  0
  -27.9917  -24.6351   18.8684 H   0  0  0  0  0  0
  -26.9859  -24.5192   20.2835 H   0  0  0  0  0  0
  -28.8802  -21.8325   19.1812 H   0  0  0  0  0  0
  1 25  1  0  0  0
  1 30  2  0  0  0
  1 73  1  0  0  0
  2  3  1  0  0  0
  2 25  1  0  0  0
  2 84  1  0  0  0
  2 85  1  0  0  0
  3  4  1  0  0  0
  3 86  1  0  0  0
  3 87  1  0  0  0
  4  5  1  0  0  0
  4 88  1  0  0  0
  4 89  1  0  0  0
  5  6  1  0  0  0
  5 26  1  0  0  0
  5 90  1  0  0  0
  6 25  1  0  0  0
  6 91  1  0  0  0
  6 92  1  0  0  0
  7  8  2  0  0  0
  7 26  1  0  0  0
  7 29  1  0  0  0
  8  9  1  0  0  0
  8 22  1  0  0  0
  9 10  1  0  0  0
  9 27  2  0  0  0
 10 11  2  0  0  0
 10 15  1  0  0  0
 11 12  1  0  0  0
 11 93  1  0  0  0
 12 13  2  0  0  0
 12 94  1  0  0  0
 13 14  1  0  0  0
 13 31  1  0  0  0
 14 15  2  0  0  0
 14 95  1  0  0  0
 15 96  1  0  0  0
 16 17  2  0  0  0
 16 21  1  0  0  0
 16 31  1  0  0  0
 17 18  1  0  0  0
 17 97  1  0  0  0
 18 19  2  0  0  0
 18 98  1  0  0  0
 19 20  1  0  0  0
 19 24  1  0  0  0
 20 21  2  0  0  0
 20 99  1  0  0  0
 21 23  1  0  0  0
 22 28  1  0  0  0
 22 32  2  0  0  0
 26 27  1  0  0  0
 28100  1  0  0  0
 28101  1  0  0  0
 29102  1  0  0  0
 29103  1  0  0  0
 33 34  1  0  0  0
 33 66  1  0  0  0
 33 70  2  0  0  0
 34 36  1  0  0  0
 34 59  1  0  0  0
 34104  1  0  0  0
 35 44  2  0  0  0
 35 45  1  0  0  0
 35 68  1  0  0  0
 36 56  1  0  0  0
 36105  1  0  0  0
 37 39  1  0  0  0
 37 47  1  0  0  0
 37 66  1  0  0  0
 37106  1  0  0  0
 38 43  2  0  0  0
 38 46  1  0  0  0
 38 47  1  0  0  0
 39 64  1  0  0  0
 39 67  2  0  0  0
 40 52  1  0  0  0
 40 53  2  0  0  0
 40 58  1  0  0  0
 41107  1  0  0  0
 41108  1  0  0  0
 41109  1  0  0  0
 41 48  1  0  0  0
 42 43  1  0  0  0
 42 66  1  0  0  0
 42110  1  0  0  0
 42111  1  0  0  0
 43 44  1  0  0  0
 44112  1  0  0  0
 45 46  2  0  0  0
 45113  1  0  0  0
 46114  1  0  0  0
 47115  1  0  0  0
 47116  1  0  0  0
 48 56  1  0  0  0
 48 65  1  0  0  0
 48117  1  0  0  0
 49 50  1  0  0  0
 49 53  1  0  0  0
 49 64  1  0  0  0
 49118  1  0  0  0
 50 51  1  0  0  0
 50119  1  0  0  0
 50120  1  0  0  0
 51 52  1  0  0  0
 51121  1  0  0  0
 51122  1  0  0  0
 52123  1  0  0  0
 52124  1  0  0  0
 53 54  1  0  0  0
 54 55  2  0  0  0
 54125  1  0  0  0
 55 57  1  0  0  0
 55126  1  0  0  0
 56 69  2  0  0  0
 57 58  2  0  0  0
 57127  1  0  0  0
 58128  1  0  0  0
 59 60  1  0  0  0
 59 61  1  0  0  0
 59 62  1  0  0  0
 60129  1  0  0  0
 60130  1  0  0  0
 60131  1  0  0  0
 61132  1  0  0  0
 61133  1  0  0  0
 61134  1  0  0  0
 62135  1  0  0  0
 62136  1  0  0  0
 62137  1  0  0  0
 63 65  1  0  0  0
 63138  1  0  0  0
 63139  1  0  0  0
 63140  1  0  0  0
 64141  1  0  0  0
 65142  1  0  0  0
 68 80  1  0  0  0
 71 72  2  0  0  0
 71 73  1  0  0  0
 71143  1  0  0  0
 72 74  1  0  0  0
 72144  1  0  0  0
 73 81  2  0  0  0
 74 76  1  0  0  0
 74 82  2  0  0  0
 75 77  1  0  0  0
 75145  1  0  0  0
 75146  1  0  0  0
 75147  1  0  0  0
 76148  1  0  0  0
 76149  1  0  0  0
 76 83  1  0  0  0
 77 78  1  0  0  0
 77150  1  0  0  0
 77151  1  0  0  0
 78 83  1  0  0  0
 78152  1  0  0  0
 78153  1  0  0  0
 79 80  1  0  0  0
 79 83  1  0  0  0
 79154  1  0  0  0
 79155  1  0  0  0
 80156  1  0  0  0
 80157  1  0  0  0
 81 82  1  0  0  0
 83158  1  0  0  0
M  CHG  1  83   1
M  ISO  4   1 100  68 101  73 100  80 101
M  END
> <chiral flag>
0

> <version>
0

> <s_m_source_file>
/data/baiqing/PycharmProjects/Reinvent-master-3.2/result/LINK_invent/BTK/process_docking_weight1_custom_sum_contain_oxygen_bond_distance_aromatic_linkinvent_7_9_3/rearranged_h_0054.sdf

> <i_m_source_file_index>
27

> <r_mmod_Potential_Energy-OPLS-2005>
423.76220703125

> <r_mmod_Stretch_Energy-OPLS-2005>
194.642517089844

> <r_mmod_Bend_Energy-OPLS-2005>
253.623397827148

> <r_mmod_Torsional_Energy-OPLS-2005>
219.221115112305

> <r_mmod_Improper_Torsional_Energy-OPLS-2005>
5.80419206619263

> <r_mmod_Van_der_Waal_Energy-OPLS-2005>
129.376998901367

> <r_mmod_Electrostatic_Energy-OPLS-2005>
-53.6983680725098

> <r_mmod_Solvation_Energy-OPLS-2005>
-468.897491455078

> <b_mmod_Minimization_Converged-OPLS-2005>
0

> <r_mmod_RMS_Derivative-OPLS-2005>
1.80913543701172

$$$$
27
                    3D
 Structure written by MMmdl.
160168  0  0  1  0            999 V2000
  -30.6306  -14.7544   20.4536 C   0  0  0  0  0  0
  -30.4305  -12.4701   19.4641 C   0  0  0  0  0  0
  -29.5041  -12.5029   18.2309 C   0  0  0  0  0  0
  -28.0321  -12.3285   18.6474 C   0  0  0  0  0  0
  -27.6374  -13.2349   19.8447 C   0  0  2  0  0  0
  -28.6863  -13.1944   20.9771 C   0  0  0  0  0  0
  -25.2495  -13.8217   20.5722 C   0  0  0  0  0  0
  -24.1795  -13.0458   20.9235 C   0  0  0  0  0  0
  -24.6383  -11.6934   20.8761 C   0  0  0  0  0  0
  -23.9054  -10.4317   21.0392 C   0  0  0  0  0  0
  -24.3603   -9.4231   21.9161 C   0  0  0  0  0  0
  -23.6307   -8.2257   22.0725 C   0  0  0  0  0  0
  -22.4300   -8.0274   21.3516 C   0  0  0  0  0  0
  -21.9931   -9.0241   20.4618 C   0  0  0  0  0  0
  -22.7234  -10.2131   20.3037 C   0  0  0  0  0  0
  -21.6846   -6.0727   22.5278 C   0  0  0  0  0  0
  -21.4012   -6.5627   23.8211 C   0  0  0  0  0  0
  -21.3679   -5.6779   24.9173 C   0  0  0  0  0  0
  -21.6066   -4.3048   24.7211 C   0  0  0  0  0  0
  -21.8819   -3.8133   23.4333 C   0  0  0  0  0  0
  -21.9200   -4.6951   22.3401 C   0  0  0  0  0  0
  -22.7817  -13.5223   21.1892 C   0  0  0  0  0  0
  -22.1654   -4.2142   21.0977 F   0  0  0  0  0  0
  -21.5646   -3.4533   25.7720 F   0  0  0  0  0  0
  -29.9815  -13.5418   20.3812 N   0  0  0  0  0  0
  -26.2913  -12.9417   20.3287 N   0  0  0  0  0  0
  -25.9309  -11.6558   20.5751 N   0  0  0  0  0  0
  -22.0461  -12.8201   22.0440 N   0  0  0  0  0  0
  -25.4189  -15.1939   20.4102 N   0  0  0  0  0  0
  -31.8308  -14.8190   20.1826 O   0  0  0  0  0  0
  -21.6668   -6.8871   21.4237 O   0  0  0  0  0  0
  -22.3502  -14.5512   20.6711 O   0  0  0  0  0  0
  -24.6302  -31.8552   23.1956 C   0  0  0  0  0  0
  -25.9138  -32.4747   23.8286 C   0  0  1  0  0  0
  -27.2092  -27.2583   20.1128 C   0  0  0  0  0  0
  -25.5922  -33.8545   24.2211 N   0  0  0  0  0  0
  -23.4232  -30.4768   21.5446 C   0  0  2  0  0  0
  -24.8616  -28.9212   20.1069 C   0  0  0  0  0  0
  -22.7478  -29.4599   22.4949 C   0  0  0  0  0  0
  -18.0285  -28.1378   22.8521 C   0  0  0  0  0  0
  -24.1479  -36.7261   23.2637 C   0  0  0  0  0  0
  -25.9674  -30.7661   21.3721 C   0  0  0  0  0  0
  -26.0361  -29.3890   20.7112 C   0  0  0  0  0  0
  -27.2083  -28.5680   20.7046 C   0  0  0  0  0  0
  -26.0061  -26.8496   19.4978 C   0  0  0  0  0  0
  -24.8524  -27.6581   19.4941 C   0  0  0  0  0  0
  -23.6331  -29.8094   20.1598 C   0  0  0  0  0  0
  -25.4109  -36.3050   24.0321 C   0  0  1  0  0  0
  -20.5892  -28.3674   23.1299 C   0  0  2  0  0  0
  -20.6781  -26.9394   22.5416 C   0  0  0  0  0  0
  -19.5748  -26.6373   21.5225 C   0  0  0  0  0  0
  -18.1927  -26.7926   22.1647 C   0  0  0  0  0  0
  -19.1544  -28.8843   23.2900 C   0  0  0  0  0  0
  -18.9468  -30.1462   23.8895 C   0  0  0  0  0  0
  -17.6471  -30.6587   24.0565 C   0  0  0  0  0  0
  -25.9063  -34.9431   23.5056 C   0  0  0  0  0  0
  -16.5356  -29.9086   23.6348 C   0  0  0  0  0  0
  -16.7273  -28.6498   23.0367 C   0  0  0  0  0  0
  -26.4482  -31.6600   25.0702 C   0  0  0  0  0  0
  -25.3672  -31.3819   26.1408 C   0  0  0  0  0  0
  -27.0325  -30.3012   24.6209 C   0  0  0  0  0  0
  -27.6021  -32.4345   25.7501 C   0  0  0  0  0  0
  -27.5571  -37.1776   24.8461 C   0  0  0  0  0  0
  -21.4187  -29.3016   22.3686 N   0  0  0  0  0  0
  -26.4274  -37.3759   23.9424 N   0  0  0  0  0  0
  -24.6940  -31.0507   22.0939 N   0  0  0  0  0  0
  -23.4187  -28.8158   23.3053 O   0  0  0  0  0  0
  -28.3250  -26.3905   20.1869 O   0  0  0  0  0  0
  -26.5637  -34.8931   22.4634 O   0  0  0  0  0  0
  -23.5468  -32.1360   23.7275 O   0  0  0  0  0  0
  -29.9464  -20.0050   20.8498 C   0  0  0  0  0  0
  -29.7457  -18.6869   20.4084 C   0  0  0  0  0  0
  -28.5927  -20.1796   19.1318 C   0  0  0  0  0  0
  -28.5370  -20.7078   16.6557 C   0  0  0  0  0  0
  -30.7651  -22.9095   20.6061 C   0  0  0  0  0  0
  -30.4535  -17.3278   20.8185 C   0  0  0  0  0  0
  -27.7716  -20.6914   17.9846 C   0  0  0  0  0  0
  -28.3211  -23.5865   20.2319 C   0  0  0  0  0  0
  -28.4199  -25.0488   19.5114 C   0  0  0  0  0  0
  -29.4683  -22.4826   19.8984 C   0  0  2  0  0  0
  -29.2872  -20.9287   20.0181 N   0  0  0  0  0  0
  -28.8680  -18.8700   19.3618 N   0  3  0  0  0  0
  -29.8958  -15.9200   20.6309 N   0  0  0  0  0  0
  -31.4660  -12.6039   19.1501 H   0  0  0  0  0  0
  -30.3888  -11.4996   19.9617 H   0  0  0  0  0  0
  -29.7916  -11.7223   17.5253 H   0  0  0  0  0  0
  -29.6295  -13.4520   17.7077 H   0  0  0  0  0  0
  -27.8901  -11.2813   18.9140 H   0  0  0  0  0  0
  -27.3741  -12.5157   17.7974 H   0  0  0  0  0  0
  -27.6231  -14.2534   19.4573 H   0  0  0  0  0  0
  -28.7317  -12.2072   21.4375 H   0  0  0  0  0  0
  -28.4208  -13.8922   21.7719 H   0  0  0  0  0  0
  -25.2718   -9.5727   22.4754 H   0  0  0  0  0  0
  -24.0028   -7.4652   22.7427 H   0  0  0  0  0  0
  -21.0870   -8.8724   19.8934 H   0  0  0  0  0  0
  -22.3642  -10.9655   19.6168 H   0  0  0  0  0  0
  -21.1977   -7.6125   23.9707 H   0  0  0  0  0  0
  -21.1517   -6.0506   25.9085 H   0  0  0  0  0  0
  -22.0583   -2.7593   23.2831 H   0  0  0  0  0  0
  -22.4071  -11.9879   22.4858 H   0  0  0  0  0  0
  -21.1050  -13.1184   22.2605 H   0  0  0  0  0  0
  -24.6487  -15.8460   20.5119 H   0  0  0  0  0  0
  -26.2575  -15.6304   20.0521 H   0  0  0  0  0  0
  -26.7199  -32.5379   23.1025 H   0  0  0  0  0  0
  -25.0051  -33.9675   25.0334 H   0  0  0  0  0  0
  -22.7211  -31.3002   21.4019 H   0  0  0  0  0  0
  -23.3754  -35.9576   23.3276 H   0  0  0  0  0  0
  -24.3566  -36.8902   22.2055 H   0  0  0  0  0  0
  -23.7230  -37.6451   23.6680 H   0  0  0  0  0  0
  -26.1061  -31.5311   20.6064 H   0  0  0  0  0  0
  -26.8457  -30.8077   22.0050 H   0  0  0  0  0  0
  -28.1081  -28.9253   21.1855 H   0  0  0  0  0  0
  -25.9127  -25.8762   19.0428 H   0  0  0  0  0  0
  -23.9486  -27.2894   19.0294 H   0  0  0  0  0  0
  -23.7477  -30.5845   19.4002 H   0  0  0  0  0  0
  -22.7500  -29.2402   19.8654 H   0  0  0  0  0  0
  -25.1304  -36.1861   25.0815 H   0  0  0  0  0  0
  -20.9988  -28.3222   24.1417 H   0  0  0  0  0  0
  -20.5683  -26.2264   23.3601 H   0  0  0  0  0  0
  -21.6646  -26.7419   22.1194 H   0  0  0  0  0  0
  -19.6898  -25.6279   21.1248 H   0  0  0  0  0  0
  -19.6692  -27.3192   20.6764 H   0  0  0  0  0  0
  -17.4194  -26.6669   21.4049 H   0  0  0  0  0  0
  -18.0327  -26.0062   22.9040 H   0  0  0  0  0  0
  -19.7950  -30.7286   24.2225 H   0  0  0  0  0  0
  -17.5029  -31.6282   24.5154 H   0  0  0  0  0  0
  -15.5356  -30.2982   23.7692 H   0  0  0  0  0  0
  -15.8669  -28.0823   22.7077 H   0  0  0  0  0  0
  -24.5836  -30.7182   25.7756 H   0  0  0  0  0  0
  -24.8879  -32.3024   26.4753 H   0  0  0  0  0  0
  -25.7945  -30.9057   27.0235 H   0  0  0  0  0  0
  -26.2932  -29.6790   24.1170 H   0  0  0  0  0  0
  -27.3924  -29.7277   25.4759 H   0  0  0  0  0  0
  -27.8832  -30.4300   23.9517 H   0  0  0  0  0  0
  -27.2610  -33.3653   26.2049 H   0  0  0  0  0  0
  -28.3863  -32.6882   25.0357 H   0  0  0  0  0  0
  -28.0630  -31.8472   26.5449 H   0  0  0  0  0  0
  -28.2565  -38.0097   24.7534 H   0  0  0  0  0  0
  -28.1086  -36.2626   24.6246 H   0  0  0  0  0  0
  -27.2285  -37.1372   25.8861 H   0  0  0  0  0  0
  -20.9332  -29.8745   21.6927 H   0  0  0  0  0  0
  -26.0133  -38.2815   24.1456 H   0  0  0  0  0  0
  -30.5989  -20.3448   21.6420 H   0  0  0  0  0  0
  -29.4572  -21.2888   16.7346 H   0  0  0  0  0  0
  -27.9258  -21.1518   15.8700 H   0  0  0  0  0  0
  -28.8028  -19.6987   16.3408 H   0  0  0  0  0  0
  -30.9583  -23.9730   20.4658 H   0  0  0  0  0  0
  -31.6280  -22.3737   20.2100 H   0  0  0  0  0  0
  -30.7063  -22.7351   21.6815 H   0  0  0  0  0  0
  -30.6909  -17.4089   21.8804 H   0  0  0  0  0  0
  -31.4318  -17.3519   20.3364 H   0  0  0  0  0  0
  -27.4343  -21.6938   18.2395 H   0  0  0  0  0  0
  -26.8798  -20.0685   17.9132 H   0  0  0  0  0  0
  -27.3531  -23.1604   19.9700 H   0  0  0  0  0  0
  -28.2781  -23.7241   21.3123 H   0  0  0  0  0  0
  -27.8015  -25.0330   18.6147 H   0  0  0  0  0  0
  -29.4194  -25.0874   19.0825 H   0  0  0  0  0  0
  -29.6703  -22.6238   18.8370 H   0  0  0  0  0  0
  -28.5301  -18.1161   18.7758 H   0  0  0  0  0  0
  -28.9050  -15.8148   20.7688 H   0  0  0  0  0  0
  1 25  1  0  0  0
  1 30  2  0  0  0
  1 83  1  0  0  0
  2  3  1  0  0  0
  2 25  1  0  0  0
  2 84  1  0  0  0
  2 85  1  0  0  0
  3  4  1  0  0  0
  3 86  1  0  0  0
  3 87  1  0  0  0
  4  5  1  0  0  0
  4 88  1  0  0  0
  4 89  1  0  0  0
  5  6  1  0  0  0
  5 26  1  0  0  0
  5 90  1  0  0  0
  6 25  1  0  0  0
  6 91  1  0  0  0
  6 92  1  0  0  0
  7  8  2  0  0  0
  7 26  1  0  0  0
  7 29  1  0  0  0
  8  9  1  0  0  0
  8 22  1  0  0  0
  9 10  1  0  0  0
  9 27  2  0  0  0
 10 11  2  0  0  0
 10 15  1  0  0  0
 11 12  1  0  0  0
 11 93  1  0  0  0
 12 13  2  0  0  0
 12 94  1  0  0  0
 13 14  1  0  0  0
 13 31  1  0  0  0
 14 15  2  0  0  0
 14 95  1  0  0  0
 15 96  1  0  0  0
 16 17  2  0  0  0
 16 21  1  0  0  0
 16 31  1  0  0  0
 17 18  1  0  0  0
 17 97  1  0  0  0
 18 19  2  0  0  0
 18 98  1  0  0  0
 19 20  1  0  0  0
 19 24  1  0  0  0
 20 21  2  0  0  0
 20 99  1  0  0  0
 21 23  1  0  0  0
 22 28  1  0  0  0
 22 32  2  0  0  0
 26 27  1  0  0  0
 28100  1  0  0  0
 28101  1  0  0  0
 29102  1  0  0  0
 29103  1  0  0  0
 33 34  1  0  0  0
 33 66  1  0  0  0
 33 70  2  0  0  0
 34 36  1  0  0  0
 34 59  1  0  0  0
 34104  1  0  0  0
 35 44  2  0  0  0
 35 45  1  0  0  0
 35 68  1  0  0  0
 36 56  1  0  0  0
 36105  1  0  0  0
 37 39  1  0  0  0
 37 47  1  0  0  0
 37 66  1  0  0  0
 37106  1  0  0  0
 38 43  2  0  0  0
 38 46  1  0  0  0
 38 47  1  0  0  0
 39 64  1  0  0  0
 39 67  2  0  0  0
 40 52  1  0  0  0
 40 53  2  0  0  0
 40 58  1  0  0  0
 41107  1  0  0  0
 41108  1  0  0  0
 41109  1  0  0  0
 41 48  1  0  0  0
 42 43  1  0  0  0
 42 66  1  0  0  0
 42110  1  0  0  0
 42111  1  0  0  0
 43 44  1  0  0  0
 44112  1  0  0  0
 45 46  2  0  0  0
 45113  1  0  0  0
 46114  1  0  0  0
 47115  1  0  0  0
 47116  1  0  0  0
 48 56  1  0  0  0
 48 65  1  0  0  0
 48117  1  0  0  0
 49 50  1  0  0  0
 49 53  1  0  0  0
 49 64  1  0  0  0
 49118  1  0  0  0
 50 51  1  0  0  0
 50119  1  0  0  0
 50120  1  0  0  0
 51 52  1  0  0  0
 51121  1  0  0  0
 51122  1  0  0  0
 52123  1  0  0  0
 52124  1  0  0  0
 53 54  1  0  0  0
 54 55  2  0  0  0
 54125  1  0  0  0
 55 57  1  0  0  0
 55126  1  0  0  0
 56 69  2  0  0  0
 57 58  2  0  0  0
 57127  1  0  0  0
 58128  1  0  0  0
 59 60  1  0  0  0
 59 61  1  0  0  0
 59 62  1  0  0  0
 60129  1  0  0  0
 60130  1  0  0  0
 60131  1  0  0  0
 61132  1  0  0  0
 61133  1  0  0  0
 61134  1  0  0  0
 62135  1  0  0  0
 62136  1  0  0  0
 62137  1  0  0  0
 63 65  1  0  0  0
 63138  1  0  0  0
 63139  1  0  0  0
 63140  1  0  0  0
 64141  1  0  0  0
 65142  1  0  0  0
 68 79  1  0  0  0
 71 72  2  0  0  0
 71 81  1  0  0  0
 71143  1  0  0  0
 72 76  1  0  0  0
 72 82  1  0  0  0
 73 77  1  0  0  0
 73 81  1  0  0  0
 73 82  2  0  0  0
 74 77  1  0  0  0
 74144  1  0  0  0
 74145  1  0  0  0
 74146  1  0  0  0
 75147  1  0  0  0
 75148  1  0  0  0
 75149  1  0  0  0
 75 80  1  0  0  0
 76 83  1  0  0  0
 76150  1  0  0  0
 76151  1  0  0  0
 77152  1  0  0  0
 77153  1  0  0  0
 78 79  1  0  0  0
 78 80  1  0  0  0
 78154  1  0  0  0
 78155  1  0  0  0
 79156  1  0  0  0
 79157  1  0  0  0
 80 81  1  0  0  0
 80158  1  0  0  0
 82159  1  0  0  0
 83160  1  0  0  0
M  CHG  1  82   1
M  ISO  4   1 100  68 101  79 101  83 100
M  END
> <chiral flag>
0

> <version>
0

> <s_m_source_file>
/data/baiqing/PycharmProjects/Reinvent-master-3.2/result/LINK_invent/BTK/process_docking_weight1_custom_sum_contain_oxygen_bond_distance_aromatic_linkinvent_7_9_3/rearranged_h_0054.sdf

> <i_m_source_file_index>
28

> <r_mmod_Potential_Energy-OPLS-2005>
81.0464859008789

> <r_mmod_Stretch_Energy-OPLS-2005>
126.503395080566

> <r_mmod_Bend_Energy-OPLS-2005>
199.117599487305

> <r_mmod_Torsional_Energy-OPLS-2005>
252.831283569336

> <r_mmod_Improper_Torsional_Energy-OPLS-2005>
7.10185623168945

> <r_mmod_Van_der_Waal_Energy-OPLS-2005>
115.467346191406

> <r_mmod_Electrostatic_Energy-OPLS-2005>
-279.803039550781

> <r_mmod_Solvation_Energy-OPLS-2005>
-429.351470947266

> <b_mmod_Minimization_Converged-OPLS-2005>
0

> <r_mmod_RMS_Derivative-OPLS-2005>
3.88955354690552

$$$$
28
                    3D
 Structure written by MMmdl.
167175  0  0  1  0            999 V2000
  -30.2415  -15.7132   20.3767 C   0  0  0  0  0  0
  -30.4346  -13.1224   19.5815 C   0  0  0  0  0  0
  -29.5746  -12.7005   18.3474 C   0  0  0  0  0  0
  -28.1373  -12.3359   18.7584 C   0  0  0  0  0  0
  -27.5943  -13.3255   19.8124 C   0  0  2  0  0  0
  -28.6018  -13.6293   20.9425 C   0  0  0  0  0  0
  -25.2152  -13.8284   20.5564 C   0  0  0  0  0  0
  -24.1649  -13.0368   20.9222 C   0  0  0  0  0  0
  -24.6458  -11.6944   20.8781 C   0  0  0  0  0  0
  -23.9168  -10.4301   21.0463 C   0  0  0  0  0  0
  -24.3707   -9.4262   21.9277 C   0  0  0  0  0  0
  -23.6373   -8.2279   22.0806 C   0  0  0  0  0  0
  -22.4346   -8.0346   21.3577 C   0  0  0  0  0  0
  -21.9995   -9.0321   20.4675 C   0  0  0  0  0  0
  -22.7318  -10.2191   20.3113 C   0  0  0  0  0  0
  -21.6881   -6.0797   22.5242 C   0  0  0  0  0  0
  -21.4004   -6.5681   23.8177 C   0  0  0  0  0  0
  -21.3654   -5.6833   24.9141 C   0  0  0  0  0  0
  -21.6072   -4.3095   24.7196 C   0  0  0  0  0  0
  -21.8829   -3.8187   23.4300 C   0  0  0  0  0  0
  -21.9210   -4.7013   22.3372 C   0  0  0  0  0  0
  -22.7686  -13.5121   21.1960 C   0  0  0  0  0  0
  -22.1705   -4.2204   21.0956 F   0  0  0  0  0  0
  -21.5640   -3.4581   25.7702 F   0  0  0  0  0  0
  -29.7865  -14.3011   20.3371 N   0  0  0  0  0  0
  -26.2731  -12.9691   20.3155 N   0  0  0  0  0  0
  -25.9427  -11.6767   20.5768 N   0  0  0  0  0  0
  -22.0388  -12.8016   22.0495 N   0  0  0  0  0  0
  -25.3408  -15.1993   20.3845 N   0  0  0  0  0  0
  -31.4671  -15.6594   20.1327 O   0  0  0  0  0  0
  -21.6683   -6.8947   21.4225 O   0  0  0  0  0  0
  -22.3377  -14.5490   20.6946 O   0  0  0  0  0  0
  -24.6867  -31.7953   23.1516 C   0  0  0  0  0  0
  -25.9416  -32.4448   23.8103 C   0  0  1  0  0  0
  -27.2225  -26.6416   20.2292 C   0  0  0  0  0  0
  -25.5971  -33.8288   24.1999 N   0  0  0  0  0  0
  -23.5192  -30.3944   21.5077 C   0  0  2  0  0  0
  -24.9727  -28.7189   20.1309 C   0  0  0  0  0  0
  -22.7787  -29.4282   22.4717 C   0  0  0  0  0  0
  -18.0337  -28.1427   22.8452 C   0  0  0  0  0  0
  -24.1480  -36.7141   23.2655 C   0  0  0  0  0  0
  -26.1011  -30.5032   21.4279 C   0  0  0  0  0  0
  -26.1647  -29.0620   20.7827 C   0  0  0  0  0  0
  -27.2741  -28.0518   20.7955 C   0  0  0  0  0  0
  -25.9937  -26.5214   19.5291 C   0  0  0  0  0  0
  -24.9281  -27.4727   19.4845 C   0  0  0  0  0  0
  -23.7726  -29.6842   20.1467 C   0  0  0  0  0  0
  -25.4137  -36.2923   24.0291 C   0  0  1  0  0  0
  -20.5995  -28.3829   23.1097 C   0  0  2  0  0  0
  -20.6815  -26.9472   22.5404 C   0  0  0  0  0  0
  -19.5796  -26.6393   21.5210 C   0  0  0  0  0  0
  -18.1971  -26.7951   22.1609 C   0  0  0  0  0  0
  -19.1613  -28.8947   23.2753 C   0  0  0  0  0  0
  -18.9516  -30.1532   23.8797 C   0  0  0  0  0  0
  -17.6504  -30.6613   24.0540 C   0  0  0  0  0  0
  -25.9129  -34.9289   23.5012 C   0  0  0  0  0  0
  -16.5399  -29.9104   23.6330 C   0  0  0  0  0  0
  -16.7318  -28.6523   23.0364 C   0  0  0  0  0  0
  -26.4574  -31.6520   25.0758 C   0  0  0  0  0  0
  -25.3646  -31.3814   26.1400 C   0  0  0  0  0  0
  -27.0525  -30.2869   24.6678 C   0  0  0  0  0  0
  -27.6068  -32.4360   25.7552 C   0  0  0  0  0  0
  -27.5579  -37.1719   24.8461 C   0  0  0  0  0  0
  -21.4436  -29.3065   22.3415 N   0  0  0  0  0  0
  -26.4284  -37.3681   23.9408 N   0  0  0  0  0  0
  -24.7934  -30.9304   22.0836 N   0  0  0  0  0  0
  -23.4184  -28.7876   23.3084 O   0  0  0  0  0  0
  -28.1918  -25.4044   20.2060 O   0  0  0  0  0  0
  -26.5802  -34.8845   22.4646 O   0  0  0  0  0  0
  -23.5870  -32.1064   23.6419 O   0  0  0  0  0  0
  -28.4555  -21.1421   19.0196 C   0  0  0  0  0  0
  -28.6197  -21.9050   20.1880 C   0  0  0  0  0  0
  -29.2608  -19.2829   20.3169 C   0  0  0  0  0  0
  -29.4121  -17.3771   22.2762 C   0  0  0  0  0  0
  -27.9671  -17.0062   20.2750 C   0  0  0  0  0  0
  -29.6042  -22.1540   25.0620 C   0  0  0  0  0  0
  -27.9299  -20.4975   25.8750 C   0  0  0  0  0  0
  -27.1728  -22.3667   24.3710 C   0  0  0  0  0  0
  -28.0368  -23.6737   20.6184 C   0  0  0  0  0  0
  -28.5599  -20.4365   23.4545 C   0  0  0  0  0  0
  -29.5526  -20.8835   22.3522 C   0  0  0  0  0  0
  -29.3779  -17.3995   20.7324 C   0  0  0  0  0  0
  -28.3247  -21.3829   24.6715 C   0  0  0  0  0  0
  -29.1419  -20.6520   20.9528 N   0  0  0  0  0  0
  -28.8278  -19.7551   19.1177 N   0  3  0  0  0  0
  -31.4378  -13.3805   19.2484 H   0  0  0  0  0  0
  -30.5932  -12.2669   20.2390 H   0  0  0  0  0  0
  -30.0415  -11.8620   17.8268 H   0  0  0  0  0  0
  -29.5495  -13.5280   17.6366 H   0  0  0  0  0  0
  -28.1633  -11.3327   19.1845 H   0  0  0  0  0  0
  -27.4814  -12.2922   17.8883 H   0  0  0  0  0  0
  -27.4680  -14.2603   19.2661 H   0  0  0  0  0  0
  -28.8501  -12.7181   21.4877 H   0  0  0  0  0  0
  -28.1521  -14.2789   21.6899 H   0  0  0  0  0  0
  -25.2843   -9.5773   22.4887 H   0  0  0  0  0  0
  -24.0112   -7.4681   22.7510 H   0  0  0  0  0  0
  -21.0957   -8.8882   19.8951 H   0  0  0  0  0  0
  -22.3830  -10.9794   19.6262 H   0  0  0  0  0  0
  -21.1963   -7.6176   23.9662 H   0  0  0  0  0  0
  -21.1480   -6.0576   25.9048 H   0  0  0  0  0  0
  -22.0606   -2.7648   23.2748 H   0  0  0  0  0  0
  -22.4054  -11.9585   22.4637 H   0  0  0  0  0  0
  -21.1066  -13.1067   22.2895 H   0  0  0  0  0  0
  -24.5509  -15.8308   20.4733 H   0  0  0  0  0  0
  -26.1841  -15.6620   20.0739 H   0  0  0  0  0  0
  -26.7516  -32.4907   23.0831 H   0  0  0  0  0  0
  -24.9931  -33.9281   25.0035 H   0  0  0  0  0  0
  -22.8485  -31.2337   21.3162 H   0  0  0  0  0  0
  -23.3803  -35.9403   23.3260 H   0  0  0  0  0  0
  -24.3521  -36.8859   22.2076 H   0  0  0  0  0  0
  -23.7155  -37.6257   23.6777 H   0  0  0  0  0  0
  -26.2985  -31.2126   20.6259 H   0  0  0  0  0  0
  -26.9496  -30.5828   22.0930 H   0  0  0  0  0  0
  -28.1726  -28.3120   21.3393 H   0  0  0  0  0  0
  -25.8159  -25.5833   19.0224 H   0  0  0  0  0  0
  -24.0222  -27.1927   18.9649 H   0  0  0  0  0  0
  -23.9458  -30.4364   19.3757 H   0  0  0  0  0  0
  -22.8747  -29.1465   19.8336 H   0  0  0  0  0  0
  -25.1337  -36.1735   25.0774 H   0  0  0  0  0  0
  -21.0049  -28.3487   24.1241 H   0  0  0  0  0  0
  -20.5692  -26.2446   23.3689 H   0  0  0  0  0  0
  -21.6654  -26.7408   22.1209 H   0  0  0  0  0  0
  -19.6936  -25.6293   21.1274 H   0  0  0  0  0  0
  -19.6711  -27.3141   20.6702 H   0  0  0  0  0  0
  -17.4242  -26.6676   21.4018 H   0  0  0  0  0  0
  -18.0373  -26.0121   22.9044 H   0  0  0  0  0  0
  -19.8004  -30.7371   24.2118 H   0  0  0  0  0  0
  -17.5072  -31.6263   24.5211 H   0  0  0  0  0  0
  -15.5401  -30.2982   23.7739 H   0  0  0  0  0  0
  -15.8714  -28.0809   22.7156 H   0  0  0  0  0  0
  -24.5820  -30.7187   25.7677 H   0  0  0  0  0  0
  -24.8838  -32.3017   26.4730 H   0  0  0  0  0  0
  -25.7812  -30.9014   27.0272 H   0  0  0  0  0  0
  -26.3276  -29.6492   24.1616 H   0  0  0  0  0  0
  -27.3888  -29.7313   25.5442 H   0  0  0  0  0  0
  -27.9263  -30.4010   24.0262 H   0  0  0  0  0  0
  -27.2672  -33.3735   26.1951 H   0  0  0  0  0  0
  -28.3946  -32.6779   25.0417 H   0  0  0  0  0  0
  -28.0674  -31.8619   26.5594 H   0  0  0  0  0  0
  -28.2574  -38.0059   24.7585 H   0  0  0  0  0  0
  -28.1131  -36.2587   24.6250 H   0  0  0  0  0  0
  -27.2282  -37.1292   25.8863 H   0  0  0  0  0  0
  -20.9826  -29.8658   21.6365 H   0  0  0  0  0  0
  -26.0146  -38.2724   24.1475 H   0  0  0  0  0  0
  -28.0199  -21.4733   18.0815 H   0  0  0  0  0  0
  -28.5001  -17.7979   22.6955 H   0  0  0  0  0  0
  -30.2731  -17.9151   22.6797 H   0  0  0  0  0  0
  -29.4637  -16.3651   22.6712 H   0  0  0  0  0  0
  -27.2442  -17.8227   20.3339 H   0  0  0  0  0  0
  -27.9739  -16.6398   19.2461 H   0  0  0  0  0  0
  -27.5932  -16.2145   20.9120 H   0  0  0  0  0  0
  -29.4524  -22.7734   25.9473 H   0  0  0  0  0  0
  -29.9529  -22.8358   24.2862 H   0  0  0  0  0  0
  -30.4162  -21.4606   25.2822 H   0  0  0  0  0  0
  -27.6828  -21.0824   26.7604 H   0  0  0  0  0  0
  -28.7519  -19.8358   26.1546 H   0  0  0  0  0  0
  -27.0721  -19.8605   25.6478 H   0  0  0  0  0  0
  -27.0017  -23.0744   25.1850 H   0  0  0  0  0  0
  -26.2284  -21.8436   24.2105 H   0  0  0  0  0  0
  -27.3698  -22.9504   23.4744 H   0  0  0  0  0  0
  -28.3604  -23.7590   21.6547 H   0  0  0  0  0  0
  -26.9533  -23.5666   20.7206 H   0  0  0  0  0  0
  -28.9872  -19.5259   23.8685 H   0  0  0  0  0  0
  -27.5997  -20.1534   23.0210 H   0  0  0  0  0  0
  -30.5320  -20.4324   22.5134 H   0  0  0  0  0  0
  -29.7227  -21.9548   22.4052 H   0  0  0  0  0  0
  -28.6861  -19.1178   18.3442 H   0  0  0  0  0  0
  1 25  1  0  0  0
  1 30  2  0  0  0
  1 82  1  0  0  0
  2  3  1  0  0  0
  2 25  1  0  0  0
  2 86  1  0  0  0
  2 87  1  0  0  0
  3  4  1  0  0  0
  3 88  1  0  0  0
  3 89  1  0  0  0
  4  5  1  0  0  0
  4 90  1  0  0  0
  4 91  1  0  0  0
  5  6  1  0  0  0
  5 26  1  0  0  0
  5 92  1  0  0  0
  6 25  1  0  0  0
  6 93  1  0  0  0
  6 94  1  0  0  0
  7  8  2  0  0  0
  7 26  1  0  0  0
  7 29  1  0  0  0
  8  9  1  0  0  0
  8 22  1  0  0  0
  9 10  1  0  0  0
  9 27  2  0  0  0
 10 11  2  0  0  0
 10 15  1  0  0  0
 11 12  1  0  0  0
 11 95  1  0  0  0
 12 13  2  0  0  0
 12 96  1  0  0  0
 13 14  1  0  0  0
 13 31  1  0  0  0
 14 15  2  0  0  0
 14 97  1  0  0  0
 15 98  1  0  0  0
 16 17  2  0  0  0
 16 21  1  0  0  0
 16 31  1  0  0  0
 17 18  1  0  0  0
 17 99  1  0  0  0
 18 19  2  0  0  0
 18100  1  0  0  0
 19 20  1  0  0  0
 19 24  1  0  0  0
 20 21  2  0  0  0
 20101  1  0  0  0
 21 23  1  0  0  0
 22 28  1  0  0  0
 22 32  2  0  0  0
 26 27  1  0  0  0
 28102  1  0  0  0
 28103  1  0  0  0
 29104  1  0  0  0
 29105  1  0  0  0
 33 34  1  0  0  0
 33 66  1  0  0  0
 33 70  2  0  0  0
 34 36  1  0  0  0
 34 59  1  0  0  0
 34106  1  0  0  0
 35 44  2  0  0  0
 35 45  1  0  0  0
 35 68  1  0  0  0
 36 56  1  0  0  0
 36107  1  0  0  0
 37 39  1  0  0  0
 37 47  1  0  0  0
 37 66  1  0  0  0
 37108  1  0  0  0
 38 43  2  0  0  0
 38 46  1  0  0  0
 38 47  1  0  0  0
 39 64  1  0  0  0
 39 67  2  0  0  0
 40 52  1  0  0  0
 40 53  2  0  0  0
 40 58  1  0  0  0
 41109  1  0  0  0
 41110  1  0  0  0
 41111  1  0  0  0
 41 48  1  0  0  0
 42 43  1  0  0  0
 42 66  1  0  0  0
 42112  1  0  0  0
 42113  1  0  0  0
 43 44  1  0  0  0
 44114  1  0  0  0
 45 46  2  0  0  0
 45115  1  0  0  0
 46116  1  0  0  0
 47117  1  0  0  0
 47118  1  0  0  0
 48 56  1  0  0  0
 48 65  1  0  0  0
 48119  1  0  0  0
 49 50  1  0  0  0
 49 53  1  0  0  0
 49 64  1  0  0  0
 49120  1  0  0  0
 50 51  1  0  0  0
 50121  1  0  0  0
 50122  1  0  0  0
 51 52  1  0  0  0
 51123  1  0  0  0
 51124  1  0  0  0
 52125  1  0  0  0
 52126  1  0  0  0
 53 54  1  0  0  0
 54 55  2  0  0  0
 54127  1  0  0  0
 55 57  1  0  0  0
 55128  1  0  0  0
 56 69  2  0  0  0
 57 58  2  0  0  0
 57129  1  0  0  0
 58130  1  0  0  0
 59 60  1  0  0  0
 59 61  1  0  0  0
 59 62  1  0  0  0
 60131  1  0  0  0
 60132  1  0  0  0
 60133  1  0  0  0
 61134  1  0  0  0
 61135  1  0  0  0
 61136  1  0  0  0
 62137  1  0  0  0
 62138  1  0  0  0
 62139  1  0  0  0
 63 65  1  0  0  0
 63140  1  0  0  0
 63141  1  0  0  0
 63142  1  0  0  0
 64143  1  0  0  0
 65144  1  0  0  0
 68 79  1  0  0  0
 71 72  2  0  0  0
 71 85  1  0  0  0
 71145  1  0  0  0
 72 79  1  0  0  0
 72 84  1  0  0  0
 73 82  1  0  0  0
 73 84  1  0  0  0
 73 85  2  0  0  0
 74146  1  0  0  0
 74147  1  0  0  0
 74148  1  0  0  0
 74 82  1  0  0  0
 75 82  1  0  0  0
 75149  1  0  0  0
 75150  1  0  0  0
 75151  1  0  0  0
 76152  1  0  0  0
 76153  1  0  0  0
 76154  1  0  0  0
 76 83  1  0  0  0
 77 83  1  0  0  0
 77155  1  0  0  0
 77156  1  0  0  0
 77157  1  0  0  0
 78 83  1  0  0  0
 78158  1  0  0  0
 78159  1  0  0  0
 78160  1  0  0  0
 79161  1  0  0  0
 79162  1  0  0  0
 80 81  1  0  0  0
 80 83  1  0  0  0
 80163  1  0  0  0
 80164  1  0  0  0
 81 84  1  0  0  0
 81165  1  0  0  0
 81166  1  0  0  0
 85167  1  0  0  0
M  CHG  1  85   1
M  ISO  4   1 100  68 101  79 101  82 100
M  END
> <chiral flag>
0

> <version>
0

> <s_m_source_file>
/data/baiqing/PycharmProjects/Reinvent-master-3.2/result/LINK_invent/BTK/process_docking_weight1_custom_sum_contain_oxygen_bond_distance_aromatic_linkinvent_7_9_3/rearranged_h_0054.sdf

> <i_m_source_file_index>
29

> <r_mmod_Potential_Energy-OPLS-2005>
2853.8515625

> <r_mmod_Stretch_Energy-OPLS-2005>
1258.56396484375

> <r_mmod_Bend_Energy-OPLS-2005>
757.492614746094

> <r_mmod_Torsional_Energy-OPLS-2005>
289.97412109375

> <r_mmod_Improper_Torsional_Energy-OPLS-2005>
5.07567501068115

> <r_mmod_Van_der_Waal_Energy-OPLS-2005>
117.124473571777

> <r_mmod_Electrostatic_Energy-OPLS-2005>
-180.669525146484

> <r_mmod_Solvation_Energy-OPLS-2005>
-402.369476318359

> <b_mmod_Minimization_Converged-OPLS-2005>
0

> <r_mmod_RMS_Derivative-OPLS-2005>
7.67311906814575

$$$$
29
                    3D
 Structure written by MMmdl.
146154  0  0  1  0            999 V2000
  -30.4198  -15.1435   20.3961 C   0  0  0  0  0  0
  -30.4585  -12.7116   19.5236 C   0  0  0  0  0  0
  -29.5425  -12.5651   18.2804 C   0  0  0  0  0  0
  -28.0802  -12.3094   18.6940 C   0  0  0  0  0  0
  -27.6258  -13.2580   19.8310 C   0  0  2  0  0  0
  -28.6617  -13.3449   20.9705 C   0  0  0  0  0  0
  -25.2455  -13.8215   20.5714 C   0  0  0  0  0  0
  -24.1780  -13.0430   20.9224 C   0  0  0  0  0  0
  -24.6409  -11.6919   20.8737 C   0  0  0  0  0  0
  -23.9092  -10.4289   21.0397 C   0  0  0  0  0  0
  -24.3635   -9.4207   21.9180 C   0  0  0  0  0  0
  -23.6303   -8.2245   22.0753 C   0  0  0  0  0  0
  -22.4283   -8.0284   21.3545 C   0  0  0  0  0  0
  -21.9923   -9.0258   20.4645 C   0  0  0  0  0  0
  -22.7259  -10.2133   20.3051 C   0  0  0  0  0  0
  -21.6857   -6.0739   22.5279 C   0  0  0  0  0  0
  -21.4017   -6.5641   23.8213 C   0  0  0  0  0  0
  -21.3661   -5.6792   24.9174 C   0  0  0  0  0  0
  -21.6045   -4.3055   24.7224 C   0  0  0  0  0  0
  -21.8819   -3.8148   23.4344 C   0  0  0  0  0  0
  -21.9194   -4.6966   22.3401 C   0  0  0  0  0  0
  -22.7799  -13.5198   21.1886 C   0  0  0  0  0  0
  -22.1662   -4.2152   21.0979 F   0  0  0  0  0  0
  -21.5629   -3.4538   25.7736 F   0  0  0  0  0  0
  -29.9241  -13.8193   20.3832 N   0  0  0  0  0  0
  -26.2878  -12.9460   20.3201 N   0  0  0  0  0  0
  -25.9344  -11.6582   20.5697 N   0  0  0  0  0  0
  -22.0453  -12.8184   22.0442 N   0  0  0  0  0  0
  -25.4113  -15.1949   20.4174 N   0  0  0  0  0  0
  -31.6212  -15.2294   20.0999 O   0  0  0  0  0  0
  -21.6644   -6.8883   21.4242 O   0  0  0  0  0  0
  -22.3479  -14.5502   20.6732 O   0  0  0  0  0  0
  -24.6554  -31.8312   23.1762 C   0  0  0  0  0  0
  -25.9269  -32.4628   23.8201 C   0  0  1  0  0  0
  -27.2238  -27.0092   20.1750 C   0  0  0  0  0  0
  -25.5966  -33.8438   24.2113 N   0  0  0  0  0  0
  -23.4662  -30.4447   21.5241 C   0  0  2  0  0  0
  -24.9189  -28.8442   20.1132 C   0  0  0  0  0  0
  -22.7629  -29.4481   22.4812 C   0  0  0  0  0  0
  -18.0316  -28.1404   22.8470 C   0  0  0  0  0  0
  -24.1494  -36.7226   23.2646 C   0  0  0  0  0  0
  -26.0300  -30.6648   21.3931 C   0  0  0  0  0  0
  -26.1006  -29.2622   20.7379 C   0  0  0  0  0  0
  -27.2505  -28.3650   20.7433 C   0  0  0  0  0  0
  -26.0116  -26.7196   19.5106 C   0  0  0  0  0  0
  -24.8948  -27.5908   19.4809 C   0  0  0  0  0  0
  -23.7012  -29.7626   20.1488 C   0  0  0  0  0  0
  -25.4132  -36.2992   24.0305 C   0  0  1  0  0  0
  -20.5936  -28.3742   23.1206 C   0  0  2  0  0  0
  -20.6796  -26.9432   22.5403 C   0  0  0  0  0  0
  -19.5770  -26.6379   21.5214 C   0  0  0  0  0  0
  -18.1952  -26.7938   22.1623 C   0  0  0  0  0  0
  -19.1575  -28.8892   23.2827 C   0  0  0  0  0  0
  -18.9488  -30.1484   23.8859 C   0  0  0  0  0  0
  -17.6482  -30.6596   24.0557 C   0  0  0  0  0  0
  -25.9090  -34.9371   23.5026 C   0  0  0  0  0  0
  -16.5373  -29.9085   23.6341 C   0  0  0  0  0  0
  -16.7299  -28.6505   23.0359 C   0  0  0  0  0  0
  -26.4547  -31.6544   25.0698 C   0  0  0  0  0  0
  -25.3694  -31.3771   26.1369 C   0  0  0  0  0  0
  -27.0435  -30.2923   24.6374 C   0  0  0  0  0  0
  -27.6048  -32.4340   25.7499 C   0  0  0  0  0  0
  -27.5572  -37.1771   24.8466 C   0  0  0  0  0  0
  -21.4307  -29.3045   22.3563 N   0  0  0  0  0  0
  -26.4283  -37.3719   23.9407 N   0  0  0  0  0  0
  -24.7379  -31.0050   22.0855 N   0  0  0  0  0  0
  -23.4211  -28.8046   23.3024 O   0  0  0  0  0  0
  -28.2587  -25.9626   20.2393 O   0  0  0  0  0  0
  -26.5693  -34.8894   22.4617 O   0  0  0  0  0  0
  -23.5642  -32.1244   23.6906 O   0  0  0  0  0  0
  -29.2297  -19.0645   19.3140 C   0  0  0  0  0  0
  -29.4378  -20.5002   21.5381 C   0  0  0  0  0  0
  -29.5806  -18.2567   20.4774 C   0  0  0  0  0  0
  -29.0940  -21.3104   20.3802 C   0  0  0  0  0  0
  -29.4619  -16.5496   20.6658 C   0  0  0  0  0  0
  -29.1597  -23.0322   20.3252 C   0  0  0  0  0  0
  -28.0220  -24.3615   20.1742 C   0  0  0  0  0  0
  -29.6423  -19.0977   21.5873 N   0  0  0  0  0  0
  -29.0299  -20.4759   19.2623 N   0  0  0  0  0  0
  -31.4825  -12.9115   19.2051 H   0  0  0  0  0  0
  -30.5016  -11.7764   20.0843 H   0  0  0  0  0  0
  -29.8986  -11.7575   17.6397 H   0  0  0  0  0  0
  -29.5972  -13.4766   17.6832 H   0  0  0  0  0  0
  -28.0082  -11.2743   19.0300 H   0  0  0  0  0  0
  -27.4177  -12.3983   17.8323 H   0  0  0  0  0  0
  -27.5676  -14.2450   19.3725 H   0  0  0  0  0  0
  -28.7884  -12.3799   21.4636 H   0  0  0  0  0  0
  -28.3222  -14.0404   21.7394 H   0  0  0  0  0  0
  -25.2779   -9.5683   22.4756 H   0  0  0  0  0  0
  -24.0010   -7.4638   22.7475 H   0  0  0  0  0  0
  -21.0853   -8.8781   19.8951 H   0  0  0  0  0  0
  -22.3718  -10.9672   19.6160 H   0  0  0  0  0  0
  -21.2011   -7.6149   23.9717 H   0  0  0  0  0  0
  -21.1483   -6.0522   25.9078 H   0  0  0  0  0  0
  -22.0596   -2.7610   23.2843 H   0  0  0  0  0  0
  -22.4079  -11.9851   22.4834 H   0  0  0  0  0  0
  -21.1068  -13.1199   22.2646 H   0  0  0  0  0  0
  -24.6419  -15.8451   20.5361 H   0  0  0  0  0  0
  -26.2566  -15.6402   20.0861 H   0  0  0  0  0  0
  -26.7337  -32.5193   23.0921 H   0  0  0  0  0  0
  -25.0070  -33.9529   25.0233 H   0  0  0  0  0  0
  -22.7755  -31.2740   21.3581 H   0  0  0  0  0  0
  -23.3764  -35.9549   23.3284 H   0  0  0  0  0  0
  -24.3573  -36.8892   22.2065 H   0  0  0  0  0  0
  -23.7243  -37.6408   23.6711 H   0  0  0  0  0  0
  -26.1996  -31.4109   20.6155 H   0  0  0  0  0  0
  -26.8943  -30.7204   22.0432 H   0  0  0  0  0  0
  -28.1490  -28.6842   21.2524 H   0  0  0  0  0  0
  -25.8971  -25.7611   19.0268 H   0  0  0  0  0  0
  -23.9949  -27.2644   18.9779 H   0  0  0  0  0  0
  -23.8497  -30.5319   19.3902 H   0  0  0  0  0  0
  -22.8129  -29.2118   19.8345 H   0  0  0  0  0  0
  -25.1328  -36.1798   25.0796 H   0  0  0  0  0  0
  -21.0026  -28.3343   24.1329 H   0  0  0  0  0  0
  -20.5682  -26.2359   23.3636 H   0  0  0  0  0  0
  -21.6660  -26.7419   22.1207 H   0  0  0  0  0  0
  -19.6931  -25.6279   21.1270 H   0  0  0  0  0  0
  -19.6707  -27.3167   20.6725 H   0  0  0  0  0  0
  -17.4221  -26.6680   21.4027 H   0  0  0  0  0  0
  -18.0349  -26.0089   22.9028 H   0  0  0  0  0  0
  -19.7963  -30.7311   24.2211 H   0  0  0  0  0  0
  -17.5033  -31.6272   24.5166 H   0  0  0  0  0  0
  -15.5371  -30.2973   23.7687 H   0  0  0  0  0  0
  -15.8699  -28.0811   22.7094 H   0  0  0  0  0  0
  -24.5885  -30.7110   25.7681 H   0  0  0  0  0  0
  -24.8872  -32.2966   26.4698 H   0  0  0  0  0  0
  -25.7943  -30.9003   27.0210 H   0  0  0  0  0  0
  -26.3084  -29.6612   24.1367 H   0  0  0  0  0  0
  -27.3984  -29.7266   25.5000 H   0  0  0  0  0  0
  -27.9016  -30.4126   23.9759 H   0  0  0  0  0  0
  -27.2620  -33.3673   26.1977 H   0  0  0  0  0  0
  -28.3912  -32.6850   25.0367 H   0  0  0  0  0  0
  -28.0658  -31.8533   26.5499 H   0  0  0  0  0  0
  -28.2576  -38.0080   24.7510 H   0  0  0  0  0  0
  -28.1082  -36.2606   24.6297 H   0  0  0  0  0  0
  -27.2288  -37.1420   25.8869 H   0  0  0  0  0  0
  -20.9546  -29.8737   21.6703 H   0  0  0  0  0  0
  -26.0137  -38.2782   24.1408 H   0  0  0  0  0  0
  -29.0475  -18.5554   18.3786 H   0  0  0  0  0  0
  -29.5994  -21.0038   22.4803 H   0  0  0  0  0  0
  -28.5523  -16.3224   20.1126 H   0  0  0  0  0  0
  -29.1634  -16.4345   21.7070 H   0  0  0  0  0  0
  -29.8899  -23.2172   19.5381 H   0  0  0  0  0  0
  -29.7065  -23.2695   21.2376 H   0  0  0  0  0  0
  -27.2592  -24.1766   20.9309 H   0  0  0  0  0  0
  -27.5140  -24.1889   19.2259 H   0  0  0  0  0  0
  1 25  1  0  0  0
  1 30  2  0  0  0
  1 75  1  0  0  0
  2  3  1  0  0  0
  2 25  1  0  0  0
  2 80  1  0  0  0
  2 81  1  0  0  0
  3  4  1  0  0  0
  3 82  1  0  0  0
  3 83  1  0  0  0
  4  5  1  0  0  0
  4 84  1  0  0  0
  4 85  1  0  0  0
  5  6  1  0  0  0
  5 26  1  0  0  0
  5 86  1  0  0  0
  6 25  1  0  0  0
  6 87  1  0  0  0
  6 88  1  0  0  0
  7  8  2  0  0  0
  7 26  1  0  0  0
  7 29  1  0  0  0
  8  9  1  0  0  0
  8 22  1  0  0  0
  9 10  1  0  0  0
  9 27  2  0  0  0
 10 11  2  0  0  0
 10 15  1  0  0  0
 11 12  1  0  0  0
 11 89  1  0  0  0
 12 13  2  0  0  0
 12 90  1  0  0  0
 13 14  1  0  0  0
 13 31  1  0  0  0
 14 15  2  0  0  0
 14 91  1  0  0  0
 15 92  1  0  0  0
 16 17  2  0  0  0
 16 21  1  0  0  0
 16 31  1  0  0  0
 17 18  1  0  0  0
 17 93  1  0  0  0
 18 19  2  0  0  0
 18 94  1  0  0  0
 19 20  1  0  0  0
 19 24  1  0  0  0
 20 21  2  0  0  0
 20 95  1  0  0  0
 21 23  1  0  0  0
 22 28  1  0  0  0
 22 32  2  0  0  0
 26 27  1  0  0  0
 28 96  1  0  0  0
 28 97  1  0  0  0
 29 98  1  0  0  0
 29 99  1  0  0  0
 33 34  1  0  0  0
 33 66  1  0  0  0
 33 70  2  0  0  0
 34 36  1  0  0  0
 34 59  1  0  0  0
 34100  1  0  0  0
 35 44  2  0  0  0
 35 45  1  0  0  0
 35 68  1  0  0  0
 36 56  1  0  0  0
 36101  1  0  0  0
 37 39  1  0  0  0
 37 47  1  0  0  0
 37 66  1  0  0  0
 37102  1  0  0  0
 38 43  2  0  0  0
 38 46  1  0  0  0
 38 47  1  0  0  0
 39 64  1  0  0  0
 39 67  2  0  0  0
 40 52  1  0  0  0
 40 53  2  0  0  0
 40 58  1  0  0  0
 41103  1  0  0  0
 41104  1  0  0  0
 41105  1  0  0  0
 41 48  1  0  0  0
 42 43  1  0  0  0
 42 66  1  0  0  0
 42106  1  0  0  0
 42107  1  0  0  0
 43 44  1  0  0  0
 44108  1  0  0  0
 45 46  2  0  0  0
 45109  1  0  0  0
 46110  1  0  0  0
 47111  1  0  0  0
 47112  1  0  0  0
 48 56  1  0  0  0
 48 65  1  0  0  0
 48113  1  0  0  0
 49 50  1  0  0  0
 49 53  1  0  0  0
 49 64  1  0  0  0
 49114  1  0  0  0
 50 51  1  0  0  0
 50115  1  0  0  0
 50116  1  0  0  0
 51 52  1  0  0  0
 51117  1  0  0  0
 51118  1  0  0  0
 52119  1  0  0  0
 52120  1  0  0  0
 53 54  1  0  0  0
 54 55  2  0  0  0
 54121  1  0  0  0
 55 57  1  0  0  0
 55122  1  0  0  0
 56 69  2  0  0  0
 57 58  2  0  0  0
 57123  1  0  0  0
 58124  1  0  0  0
 59 60  1  0  0  0
 59 61  1  0  0  0
 59 62  1  0  0  0
 60125  1  0  0  0
 60126  1  0  0  0
 60127  1  0  0  0
 61128  1  0  0  0
 61129  1  0  0  0
 61130  1  0  0  0
 62131  1  0  0  0
 62132  1  0  0  0
 62133  1  0  0  0
 63 65  1  0  0  0
 63134  1  0  0  0
 63135  1  0  0  0
 63136  1  0  0  0
 64137  1  0  0  0
 65138  1  0  0  0
 68 77  1  0  0  0
 71 73  2  0  0  0
 71 79  1  0  0  0
 71139  1  0  0  0
 72 74  1  0  0  0
 72 78  2  0  0  0
 72140  1  0  0  0
 73 75  1  0  0  0
 73 78  1  0  0  0
 74 76  1  0  0  0
 74 79  2  0  0  0
 75141  1  0  0  0
 75142  1  0  0  0
 76 77  1  0  0  0
 76143  1  0  0  0
 76144  1  0  0  0
 77145  1  0  0  0
 77146  1  0  0  0
M  ISO  4   1 100  68 101  75 100  77 101
M  END
> <chiral flag>
0

> <version>
0

> <s_m_source_file>
/data/baiqing/PycharmProjects/Reinvent-master-3.2/result/LINK_invent/BTK/process_docking_weight1_custom_sum_contain_oxygen_bond_distance_aromatic_linkinvent_7_9_3/rearranged_h_0054.sdf

> <i_m_source_file_index>
30

> <r_mmod_Potential_Energy-OPLS-2005>
1021.86224365234

> <r_mmod_Stretch_Energy-OPLS-2005>
433.453521728516

> <r_mmod_Bend_Energy-OPLS-2005>
399.38037109375

> <r_mmod_Torsional_Energy-OPLS-2005>
181.858932495117

> <r_mmod_Improper_Torsional_Energy-OPLS-2005>
7.35363054275513

> <r_mmod_Van_der_Waal_Energy-OPLS-2005>
129.225234985352

> <r_mmod_Electrostatic_Energy-OPLS-2005>
-244.807540893555

> <r_mmod_Solvation_Energy-OPLS-2005>
-224.823165893555

> <b_mmod_Minimization_Converged-OPLS-2005>
0

> <r_mmod_RMS_Derivative-OPLS-2005>
0.128430977463722

$$$$
30
                    3D
 Structure written by MMmdl.
162170  0  0  1  0            999 V2000
  -30.3605  -14.6680   20.6153 C   0  0  0  0  0  0
  -30.3930  -12.4416   19.4586 C   0  0  0  0  0  0
  -29.4442  -12.4224   18.2412 C   0  0  0  0  0  0
  -27.9737  -12.2673   18.6683 C   0  0  0  0  0  0
  -27.5953  -13.1563   19.8626 C   0  0  2  0  0  0
  -28.6392  -12.9316   20.9801 C   0  0  0  0  0  0
  -25.2218  -13.7795   20.5190 C   0  0  0  0  0  0
  -24.1674  -13.0152   20.9308 C   0  0  0  0  0  0
  -24.6317  -11.6774   20.9030 C   0  0  0  0  0  0
  -23.8747  -10.4248   21.0470 C   0  0  0  0  0  0
  -24.3247   -9.4161   21.9132 C   0  0  0  0  0  0
  -23.6072   -8.2108   22.0707 C   0  0  0  0  0  0
  -22.4069   -8.0138   21.3478 C   0  0  0  0  0  0
  -21.9606   -9.0072   20.4623 C   0  0  0  0  0  0
  -22.6854  -10.2066   20.3080 C   0  0  0  0  0  0
  -21.6812   -6.0598   22.5287 C   0  0  0  0  0  0
  -21.3963   -6.5553   23.8213 C   0  0  0  0  0  0
  -21.3634   -5.6727   24.9165 C   0  0  0  0  0  0
  -21.6056   -4.2996   24.7254 C   0  0  0  0  0  0
  -21.8837   -3.8071   23.4390 C   0  0  0  0  0  0
  -21.9191   -4.6835   22.3442 C   0  0  0  0  0  0
  -22.7759  -13.5247   21.1780 C   0  0  0  0  0  0
  -22.1631   -4.2058   21.0988 F   0  0  0  0  0  0
  -21.5649   -3.4506   25.7760 F   0  0  0  0  0  0
  -29.8880  -13.4152   20.4156 N   0  0  0  0  0  0
  -26.2577  -12.8858   20.3211 N   0  0  0  0  0  0
  -25.9249  -11.6226   20.6379 N   0  0  0  0  0  0
  -22.0312  -12.8430   22.0513 N   0  0  0  0  0  0
  -25.3849  -15.1278   20.2858 N   0  0  0  0  0  0
  -31.4659  -14.9954   20.1761 O   0  0  0  0  0  0
  -21.6555   -6.8653   21.4224 O   0  0  0  0  0  0
  -22.3471  -14.5474   20.6706 O   0  0  0  0  0  0
  -24.6151  -31.8946   23.2138 C   0  0  0  0  0  0
  -25.9036  -32.4997   23.8539 C   0  0  1  0  0  0
  -27.1791  -27.3848   20.1363 C   0  0  0  0  0  0
  -25.5735  -33.8812   24.2347 N   0  0  0  0  0  0
  -23.4514  -30.5445   21.5204 C   0  0  2  0  0  0
  -24.9292  -29.0641   20.0233 C   0  0  0  0  0  0
  -22.8382  -29.4481   22.5075 C   0  0  0  0  0  0
  -18.0979  -28.0017   22.8495 C   0  0  0  0  0  0
  -24.1439  -36.7286   23.2674 C   0  0  0  0  0  0
  -25.9715  -30.8177   21.4381 C   0  0  0  0  0  0
  -26.0296  -29.4616   20.7748 C   0  0  0  0  0  0
  -27.1493  -28.5946   20.8911 C   0  0  0  0  0  0
  -26.1468  -27.1327   19.2440 C   0  0  0  0  0  0
  -24.9810  -27.9028   19.2351 C   0  0  0  0  0  0
  -23.6764  -29.9306   20.1064 C   0  0  0  0  0  0
  -25.4077  -36.3221   24.0351 C   0  0  1  0  0  0
  -20.6951  -28.2105   23.0239 C   0  0  2  0  0  0
  -20.7846  -26.8505   22.3269 C   0  0  0  0  0  0
  -19.6356  -26.6833   21.3197 C   0  0  0  0  0  0
  -18.2198  -26.7574   21.9716 C   0  0  0  0  0  0
  -19.2530  -28.7144   23.2726 C   0  0  0  0  0  0
  -19.0327  -30.0055   23.8322 C   0  0  0  0  0  0
  -17.7414  -30.5534   24.0395 C   0  0  0  0  0  0
  -25.8977  -34.9654   23.5156 C   0  0  0  0  0  0
  -16.6184  -29.8103   23.6755 C   0  0  0  0  0  0
  -16.8141  -28.5419   23.0865 C   0  0  0  0  0  0
  -26.4434  -31.6782   25.0916 C   0  0  0  0  0  0
  -25.3703  -31.3903   26.1616 C   0  0  0  0  0  0
  -27.0246  -30.3141   24.6535 C   0  0  0  0  0  0
  -27.6079  -32.4635   25.7369 C   0  0  0  0  0  0
  -27.5585  -37.1704   24.8449 C   0  0  0  0  0  0
  -21.5353  -29.1865   22.3291 N   0  0  0  0  0  0
  -26.4276  -37.3858   23.9453 N   0  0  0  0  0  0
  -24.7019  -31.1338   22.0980 N   0  0  0  0  0  0
  -23.5284  -28.8721   23.3390 O   0  0  0  0  0  0
  -28.0825  -26.3790   20.3805 O   0  0  0  0  0  0
  -26.5811  -34.8996   22.4878 O   0  0  0  0  0  0
  -23.5267  -32.1714   23.7265 O   0  0  0  0  0  0
  -26.0719  -23.4313   21.6903 C   0  0  0  0  0  0
  -25.5412  -22.2243   21.0917 C   0  0  0  0  0  0
  -26.3563  -24.3197   20.6446 C   0  0  0  0  0  0
  -24.1894  -24.8173   19.2499 C   0  0  0  0  0  0
  -24.3100  -18.4831   21.4510 C   0  0  0  0  0  0
  -25.3228  -20.7676   21.7229 C   0  0  0  0  0  0
  -27.7178  -24.9523   20.1437 C   0  0  0  0  0  0
  -27.4066  -17.2736   21.5839 C   0  0  0  0  0  0
  -28.5806  -16.5490   20.6587 C   0  0  0  0  0  0
  -26.7942  -18.6160   20.8451 C   0  0  0  0  0  0
  -24.9122  -22.6300   19.9904 N   0  0  0  0  0  0
  -25.2899  -23.9725   19.7902 N   0  0  0  0  0  0
  -29.4814  -15.4958   21.2529 N   0  0  0  0  0  0
  -25.4491  -19.3543   21.0325 N   0  3  1  0  0  0
  -31.4175  -12.6727   19.1285 H   0  0  0  0  0  0
  -30.3952  -11.4697   19.9590 H   0  0  0  0  0  0
  -29.7461  -11.6142   17.5887 H   0  0  0  0  0  0
  -29.5388  -13.3435   17.6555 H   0  0  0  0  0  0
  -27.8203  -11.2356   18.9024 H   0  0  0  0  0  0
  -27.3305  -12.4080   17.8089 H   0  0  0  0  0  0
  -27.5753  -14.1639   19.4367 H   0  0  0  0  0  0
  -28.7740  -11.8688   21.2235 H   0  0  0  0  0  0
  -28.3894  -13.4226   21.9230 H   0  0  0  0  0  0
  -25.2347   -9.5814   22.4694 H   0  0  0  0  0  0
  -23.9920   -7.4526   22.7463 H   0  0  0  0  0  0
  -21.0432   -8.8361   19.9000 H   0  0  0  0  0  0
  -22.2990  -10.9453   19.6242 H   0  0  0  0  0  0
  -21.1900   -7.6065   23.9668 H   0  0  0  0  0  0
  -21.1430   -6.0454   25.9058 H   0  0  0  0  0  0
  -22.0661   -2.7555   23.2905 H   0  0  0  0  0  0
  -22.3889  -12.0218   22.5077 H   0  0  0  0  0  0
  -21.0980  -13.1719   22.2862 H   0  0  0  0  0  0
  -24.6109  -15.7470   20.4980 H   0  0  0  0  0  0
  -26.2937  -15.5575   20.2036 H   0  0  0  0  0  0
  -26.7236  -32.5893   23.1403 H   0  0  0  0  0  0
  -24.9109  -33.9915   24.9905 H   0  0  0  0  0  0
  -22.7068  -31.3313   21.3713 H   0  0  0  0  0  0
  -23.3749  -35.9558   23.3339 H   0  0  0  0  0  0
  -24.3468  -36.8943   22.2087 H   0  0  0  0  0  0
  -23.7059  -37.6406   23.6694 H   0  0  0  0  0  0
  -26.1942  -31.6112   20.7211 H   0  0  0  0  0  0
  -26.8265  -30.8348   22.1072 H   0  0  0  0  0  0
  -27.9840  -28.8172   21.5326 H   0  0  0  0  0  0
  -26.2728  -26.3056   18.5678 H   0  0  0  0  0  0
  -24.2504  -27.7152   18.4589 H   0  0  0  0  0  0
  -23.7492  -30.7190   19.3555 H   0  0  0  0  0  0
  -22.8196  -29.3387   19.7702 H   0  0  0  0  0  0
  -25.1242  -36.2020   25.0826 H   0  0  0  0  0  0
  -21.1812  -27.9417   23.9486 H   0  0  0  0  0  0
  -20.7742  -26.0139   23.0197 H   0  0  0  0  0  0
  -21.7298  -26.7268   21.8052 H   0  0  0  0  0  0
  -19.8035  -25.8281   20.6797 H   0  0  0  0  0  0
  -19.7771  -27.5118   20.6244 H   0  0  0  0  0  0
  -17.4455  -26.7300   21.2363 H   0  0  0  0  0  0
  -18.0668  -25.8796   22.5969 H   0  0  0  0  0  0
  -19.8767  -30.6332   24.0183 H   0  0  0  0  0  0
  -17.6010  -31.5530   24.4110 H   0  0  0  0  0  0
  -15.6164  -30.2142   23.8382 H   0  0  0  0  0  0
  -15.9133  -28.0202   22.7820 H   0  0  0  0  0  0
  -24.5926  -30.7121   25.7946 H   0  0  0  0  0  0
  -24.8724  -32.3006   26.4991 H   0  0  0  0  0  0
  -25.8100  -30.9163   27.0360 H   0  0  0  0  0  0
  -26.2739  -29.6745   24.1763 H   0  0  0  0  0  0
  -27.3958  -29.7601   25.5143 H   0  0  0  0  0  0
  -27.8694  -30.4218   23.9739 H   0  0  0  0  0  0
  -27.2754  -33.3970   26.1804 H   0  0  0  0  0  0
  -28.3623  -32.7173   24.9957 H   0  0  0  0  0  0
  -28.0957  -31.8926   26.5181 H   0  0  0  0  0  0
  -28.2615  -38.0006   24.7654 H   0  0  0  0  0  0
  -28.1073  -36.2573   24.6048 H   0  0  0  0  0  0
  -27.2340  -37.1084   25.8858 H   0  0  0  0  0  0
  -21.2104  -29.4919   21.3986 H   0  0  0  0  0  0
  -26.0205  -38.2928   24.1494 H   0  0  0  0  0  0
  -26.2381  -23.6128   22.7631 H   0  0  0  0  0  0
  -24.3638  -25.3456   18.3151 H   0  0  0  0  0  0
  -23.9290  -25.5987   19.9691 H   0  0  0  0  0  0
  -23.2768  -24.2972   19.0275 H   0  0  0  0  0  0
  -23.3973  -19.0193   21.1357 H   0  0  0  0  0  0
  -24.2972  -18.3931   22.5244 H   0  0  0  0  0  0
  -24.3389  -17.4704   21.0466 H   0  0  0  0  0  0
  -24.3980  -20.8951   22.2935 H   0  0  0  0  0  0
  -26.0414  -20.7418   22.5566 H   0  0  0  0  0  0
  -27.8517  -24.6358   19.1025 H   0  0  0  0  0  0
  -28.5102  -24.4369   20.7096 H   0  0  0  0  0  0
  -27.8604  -17.5510   22.5150 H   0  0  0  0  0  0
  -26.6291  -16.6381   21.9032 H   0  0  0  0  0  0
  -29.3178  -17.2896   20.3955 H   0  0  0  0  0  0
  -28.1238  -16.1386   19.7387 H   0  0  0  0  0  0
  -26.9253  -18.3997   19.7983 H   0  0  0  0  0  0
  -27.4876  -19.4057   20.9649 H   0  0  0  0  0  0
  -29.9064  -15.7783   22.1159 H   0  0  0  0  0  0
  -25.2416  -19.4875   20.0132 H   0  0  0  0  0  0
  1 25  1  0  0  0
  1 30  2  0  0  0
  1 83  1  0  0  0
  2  3  1  0  0  0
  2 25  1  0  0  0
  2 85  1  0  0  0
  2 86  1  0  0  0
  3  4  1  0  0  0
  3 87  1  0  0  0
  3 88  1  0  0  0
  4  5  1  0  0  0
  4 89  1  0  0  0
  4 90  1  0  0  0
  5  6  1  0  0  0
  5 26  1  0  0  0
  5 91  1  0  0  0
  6 25  1  0  0  0
  6 92  1  0  0  0
  6 93  1  0  0  0
  7  8  2  0  0  0
  7 26  1  0  0  0
  7 29  1  0  0  0
  8  9  1  0  0  0
  8 22  1  0  0  0
  9 10  1  0  0  0
  9 27  2  0  0  0
 10 11  2  0  0  0
 10 15  1  0  0  0
 11 12  1  0  0  0
 11 94  1  0  0  0
 12 13  2  0  0  0
 12 95  1  0  0  0
 13 14  1  0  0  0
 13 31  1  0  0  0
 14 15  2  0  0  0
 14 96  1  0  0  0
 15 97  1  0  0  0
 16 17  2  0  0  0
 16 21  1  0  0  0
 16 31  1  0  0  0
 17 18  1  0  0  0
 17 98  1  0  0  0
 18 19  2  0  0  0
 18 99  1  0  0  0
 19 20  1  0  0  0
 19 24  1  0  0  0
 20 21  2  0  0  0
 20100  1  0  0  0
 21 23  1  0  0  0
 22 28  1  0  0  0
 22 32  2  0  0  0
 26 27  1  0  0  0
 28101  1  0  0  0
 28102  1  0  0  0
 29103  1  0  0  0
 29104  1  0  0  0
 33 34  1  0  0  0
 33 66  1  0  0  0
 33 70  2  0  0  0
 34 36  1  0  0  0
 34 59  1  0  0  0
 34105  1  0  0  0
 35 44  2  0  0  0
 35 45  1  0  0  0
 35 68  1  0  0  0
 36 56  1  0  0  0
 36106  1  0  0  0
 37 39  1  0  0  0
 37 47  1  0  0  0
 37 66  1  0  0  0
 37107  1  0  0  0
 38 43  2  0  0  0
 38 46  1  0  0  0
 38 47  1  0  0  0
 39 64  1  0  0  0
 39 67  2  0  0  0
 40 52  1  0  0  0
 40 53  2  0  0  0
 40 58  1  0  0  0
 41108  1  0  0  0
 41109  1  0  0  0
 41110  1  0  0  0
 41 48  1  0  0  0
 42 43  1  0  0  0
 42 66  1  0  0  0
 42111  1  0  0  0
 42112  1  0  0  0
 43 44  1  0  0  0
 44113  1  0  0  0
 45 46  2  0  0  0
 45114  1  0  0  0
 46115  1  0  0  0
 47116  1  0  0  0
 47117  1  0  0  0
 48 56  1  0  0  0
 48 65  1  0  0  0
 48118  1  0  0  0
 49 50  1  0  0  0
 49 53  1  0  0  0
 49 64  1  0  0  0
 49119  1  0  0  0
 50 51  1  0  0  0
 50120  1  0  0  0
 50121  1  0  0  0
 51 52  1  0  0  0
 51122  1  0  0  0
 51123  1  0  0  0
 52124  1  0  0  0
 52125  1  0  0  0
 53 54  1  0  0  0
 54 55  2  0  0  0
 54126  1  0  0  0
 55 57  1  0  0  0
 55127  1  0  0  0
 56 69  2  0  0  0
 57 58  2  0  0  0
 57128  1  0  0  0
 58129  1  0  0  0
 59 60  1  0  0  0
 59 61  1  0  0  0
 59 62  1  0  0  0
 60130  1  0  0  0
 60131  1  0  0  0
 60132  1  0  0  0
 61133  1  0  0  0
 61134  1  0  0  0
 61135  1  0  0  0
 62136  1  0  0  0
 62137  1  0  0  0
 62138  1  0  0  0
 63 65  1  0  0  0
 63139  1  0  0  0
 63140  1  0  0  0
 63141  1  0  0  0
 64142  1  0  0  0
 65143  1  0  0  0
 68 77  1  0  0  0
 71 72  1  0  0  0
 71 73  2  0  0  0
 71144  1  0  0  0
 72 76  1  0  0  0
 72 81  2  0  0  0
 73 77  1  0  0  0
 73 82  1  0  0  0
 74 82  1  0  0  0
 74145  1  0  0  0
 74146  1  0  0  0
 74147  1  0  0  0
 75148  1  0  0  0
 75149  1  0  0  0
 75150  1  0  0  0
 75 84  1  0  0  0
 76 84  1  0  0  0
 76151  1  0  0  0
 76152  1  0  0  0
 77153  1  0  0  0
 77154  1  0  0  0
 78 79  1  0  0  0
 78 80  1  0  0  0
 78155  1  0  0  0
 78156  1  0  0  0
 79 83  1  0  0  0
 79157  1  0  0  0
 79158  1  0  0  0
 80 84  1  0  0  0
 80159  1  0  0  0
 80160  1  0  0  0
 81 82  1  0  0  0
 83161  1  0  0  0
 84162  1  0  0  0
M  CHG  1  84   1
M  ISO  4   1 100  68 101  77 101  83 100
M  END
> <chiral flag>
0

> <version>
0

> <s_m_source_file>
/data/baiqing/PycharmProjects/Reinvent-master-3.2/result/LINK_invent/BTK/process_docking_weight1_custom_sum_contain_oxygen_bond_distance_aromatic_linkinvent_7_9_3/rearranged_h_0054.sdf

> <i_m_source_file_index>
31

> <r_mmod_Potential_Energy-OPLS-2005>
613.438232421875

> <r_mmod_Stretch_Energy-OPLS-2005>
167.84211730957

> <r_mmod_Bend_Energy-OPLS-2005>
334.203887939453

> <r_mmod_Torsional_Energy-OPLS-2005>
509.364288330078

> <r_mmod_Improper_Torsional_Energy-OPLS-2005>
25.3466968536377

> <r_mmod_Van_der_Waal_Energy-OPLS-2005>
147.351440429688

> <r_mmod_Electrostatic_Energy-OPLS-2005>
-296.585968017578

> <r_mmod_Solvation_Energy-OPLS-2005>
-468.159454345703

> <b_mmod_Minimization_Converged-OPLS-2005>
0

> <r_mmod_RMS_Derivative-OPLS-2005>
63.4569282531738

$$$$
31
                    3D
 Structure written by MMmdl.
166174  0  0  1  0            999 V2000
  -30.7299  -14.5533   20.4560 C   0  0  0  0  0  0
  -30.4115  -12.3299   19.4455 C   0  0  0  0  0  0
  -29.4926  -12.4421   18.2136 C   0  0  0  0  0  0
  -28.0126  -12.3282   18.6312 C   0  0  0  0  0  0
  -27.6409  -13.2135   19.8529 C   0  0  2  0  0  0
  -28.6976  -13.1272   20.9771 C   0  0  0  0  0  0
  -25.2500  -13.8127   20.5716 C   0  0  0  0  0  0
  -24.1788  -13.0393   20.9230 C   0  0  0  0  0  0
  -24.6374  -11.6876   20.8780 C   0  0  0  0  0  0
  -23.9051  -10.4270   21.0425 C   0  0  0  0  0  0
  -24.3613   -9.4185   21.9193 C   0  0  0  0  0  0
  -23.6290   -8.2221   22.0755 C   0  0  0  0  0  0
  -22.4270   -8.0269   21.3544 C   0  0  0  0  0  0
  -21.9903   -9.0241   20.4648 C   0  0  0  0  0  0
  -22.7228  -10.2121   20.3060 C   0  0  0  0  0  0
  -21.6854   -6.0725   22.5280 C   0  0  0  0  0  0
  -21.4014   -6.5630   23.8212 C   0  0  0  0  0  0
  -21.3659   -5.6783   24.9174 C   0  0  0  0  0  0
  -21.6043   -4.3044   24.7224 C   0  0  0  0  0  0
  -21.8822   -3.8137   23.4345 C   0  0  0  0  0  0
  -21.9197   -4.6955   22.3400 C   0  0  0  0  0  0
  -22.7813  -13.5191   21.1871 C   0  0  0  0  0  0
  -22.1659   -4.2143   21.0975 F   0  0  0  0  0  0
  -21.5636   -3.4526   25.7733 F   0  0  0  0  0  0
  -30.0129  -13.3940   20.3809 N   0  0  0  0  0  0
  -26.2940  -12.9319   20.3352 N   0  0  0  0  0  0
  -25.9310  -11.6483   20.5833 N   0  0  0  0  0  0
  -22.0454  -12.8197   22.0433 N   0  0  0  0  0  0
  -25.4107  -15.1838   20.4085 N   0  0  0  0  0  0
  -31.9396  -14.5759   20.2242 O   0  0  0  0  0  0
  -21.6636   -6.8865   21.4239 O   0  0  0  0  0  0
  -22.3502  -14.5494   20.6706 O   0  0  0  0  0  0
  -24.6170  -31.8686   23.2092 C   0  0  0  0  0  0
  -25.9062  -32.4824   23.8389 C   0  0  1  0  0  0
  -27.2287  -27.4167   20.1101 C   0  0  0  0  0  0
  -25.5903  -33.8619   24.2328 N   0  0  0  0  0  0
  -23.4049  -30.4927   21.5502 C   0  0  2  0  0  0
  -24.8521  -28.9578   20.1135 C   0  0  0  0  0  0
  -22.7423  -29.4672   22.4987 C   0  0  0  0  0  0
  -18.0278  -28.1367   22.8501 C   0  0  0  0  0  0
  -24.1485  -36.7307   23.2640 C   0  0  0  0  0  0
  -25.9366  -30.8280   21.3676 C   0  0  0  0  0  0
  -26.0138  -29.4632   20.7111 C   0  0  0  0  0  0
  -27.2083  -28.7023   20.7031 C   0  0  0  0  0  0
  -26.0541  -26.9389   19.4890 C   0  0  0  0  0  0
  -24.8678  -27.6956   19.4955 C   0  0  0  0  0  0
  -23.6143  -29.8259   20.1645 C   0  0  0  0  0  0
  -25.4108  -36.3112   24.0342 C   0  0  1  0  0  0
  -20.5871  -28.3664   23.1310 C   0  0  2  0  0  0
  -20.6767  -26.9400   22.5416 C   0  0  0  0  0  0
  -19.5744  -26.6380   21.5217 C   0  0  0  0  0  0
  -18.1923  -26.7912   22.1628 C   0  0  0  0  0  0
  -19.1529  -28.8830   23.2901 C   0  0  0  0  0  0
  -18.9459  -30.1431   23.8920 C   0  0  0  0  0  0
  -17.6465  -30.6577   24.0562 C   0  0  0  0  0  0
  -25.9037  -34.9479   23.5132 C   0  0  0  0  0  0
  -16.5353  -29.9083   23.6321 C   0  0  0  0  0  0
  -16.7268  -28.6489   23.0359 C   0  0  0  0  0  0
  -26.4483  -31.6607   25.0726 C   0  0  0  0  0  0
  -25.3739  -31.3742   26.1471 C   0  0  0  0  0  0
  -27.0324  -30.3042   24.6133 C   0  0  0  0  0  0
  -27.6055  -32.4332   25.7486 C   0  0  0  0  0  0
  -27.5587  -37.1804   24.8465 C   0  0  0  0  0  0
  -21.4149  -29.3037   22.3720 N   0  0  0  0  0  0
  -26.4298  -37.3796   23.9417 N   0  0  0  0  0  0
  -24.6708  -31.0772   22.1004 N   0  0  0  0  0  0
  -23.4192  -28.8216   23.3034 O   0  0  0  0  0  0
  -28.3663  -26.6316   20.1319 O   0  0  0  0  0  0
  -26.5603  -34.8934   22.4697 O   0  0  0  0  0  0
  -23.5359  -32.1448   23.7484 O   0  0  0  0  0  0
  -28.6892  -19.8799   21.9402 C   0  0  0  0  0  0
  -29.6795  -20.3693   21.1201 C   0  0  0  0  0  0
  -30.0154  -18.1545   21.4373 C   0  0  0  0  0  0
  -28.1916  -17.0076   19.2855 C   0  0  0  0  0  0
  -30.5621  -16.9103   18.2899 C   0  0  0  0  0  0
  -28.1419  -17.6191   22.9595 C   0  0  0  0  0  0
  -29.9698  -21.7529   20.5631 C   0  0  0  0  0  0
  -30.6696  -16.7771   21.3922 C   0  0  0  0  0  0
  -28.9574  -22.8611   20.9711 C   0  0  0  0  0  0
  -29.2118  -24.2626   20.3316 C   0  0  0  0  0  0
  -28.1951  -25.3474   20.7762 C   0  0  0  0  0  0
  -29.5158  -16.2246   19.1945 C   0  0  0  0  0  0
  -28.9255  -18.5351   22.1253 N   0  0  0  0  0  0
  -30.4766  -19.2754   20.8515 N   0  3  0  0  0  0
  -30.0487  -15.7427   20.5048 N   0  0  0  0  0  0
  -31.4584  -12.4003   19.1422 H   0  0  0  0  0  0
  -30.3021  -11.3529   19.9190 H   0  0  0  0  0  0
  -29.7329  -11.6521   17.5004 H   0  0  0  0  0  0
  -29.6718  -13.3798   17.6880 H   0  0  0  0  0  0
  -27.8283  -11.2803   18.8715 H   0  0  0  0  0  0
  -27.3646  -12.5614   17.7856 H   0  0  0  0  0  0
  -27.6225  -14.2361   19.4924 H   0  0  0  0  0  0
  -28.6917  -12.1400   21.4418 H   0  0  0  0  0  0
  -28.4753  -13.8457   21.7679 H   0  0  0  0  0  0
  -25.2763   -9.5667   22.4761 H   0  0  0  0  0  0
  -24.0005   -7.4612   22.7466 H   0  0  0  0  0  0
  -21.0837   -8.8759   19.8954 H   0  0  0  0  0  0
  -22.3689  -10.9664   19.6171 H   0  0  0  0  0  0
  -21.1996   -7.6139   23.9712 H   0  0  0  0  0  0
  -21.1484   -6.0513   25.9076 H   0  0  0  0  0  0
  -22.0606   -2.7602   23.2846 H   0  0  0  0  0  0
  -22.4062  -11.9862   22.4839 H   0  0  0  0  0  0
  -21.1074  -13.1236   22.2627 H   0  0  0  0  0  0
  -24.6346  -15.8293   20.5029 H   0  0  0  0  0  0
  -26.2492  -15.6189   20.0490 H   0  0  0  0  0  0
  -26.7135  -32.5533   23.1152 H   0  0  0  0  0  0
  -25.0043  -33.9767   25.0465 H   0  0  0  0  0  0
  -22.6943  -31.3108   21.4112 H   0  0  0  0  0  0
  -23.3750  -35.9635   23.3308 H   0  0  0  0  0  0
  -24.3578  -36.8917   22.2053 H   0  0  0  0  0  0
  -23.7231  -37.6513   23.6644 H   0  0  0  0  0  0
  -26.0599  -31.5975   20.6041 H   0  0  0  0  0  0
  -26.8198  -30.8740   21.9929 H   0  0  0  0  0  0
  -28.1027  -29.0866   21.1735 H   0  0  0  0  0  0
  -26.0507  -25.9744   19.0007 H   0  0  0  0  0  0
  -23.9766  -27.3032   19.0259 H   0  0  0  0  0  0
  -23.7226  -30.6015   19.4051 H   0  0  0  0  0  0
  -22.7379  -29.2467   19.8685 H   0  0  0  0  0  0
  -25.1287  -36.1979   25.0836 H   0  0  0  0  0  0
  -20.9963  -28.3228   24.1429 H   0  0  0  0  0  0
  -20.5662  -26.2283   23.3609 H   0  0  0  0  0  0
  -21.6638  -26.7434   22.1214 H   0  0  0  0  0  0
  -19.6901  -25.6297   21.1233 H   0  0  0  0  0  0
  -19.6670  -27.3202   20.6754 H   0  0  0  0  0  0
  -17.4197  -26.6678   21.4022 H   0  0  0  0  0  0
  -18.0306  -26.0038   22.9006 H   0  0  0  0  0  0
  -19.7940  -30.7230   24.2306 H   0  0  0  0  0  0
  -17.5026  -31.6262   24.5157 H   0  0  0  0  0  0
  -15.5356  -30.2997   23.7621 H   0  0  0  0  0  0
  -15.8665  -28.0804   22.7080 H   0  0  0  0  0  0
  -24.5867  -30.7147   25.7801 H   0  0  0  0  0  0
  -24.8986  -32.2922   26.4936 H   0  0  0  0  0  0
  -25.8064  -30.8875   27.0221 H   0  0  0  0  0  0
  -26.2886  -29.6789   24.1180 H   0  0  0  0  0  0
  -27.4083  -29.7294   25.4611 H   0  0  0  0  0  0
  -27.8725  -30.4357   23.9308 H   0  0  0  0  0  0
  -27.2658  -33.3607   26.2109 H   0  0  0  0  0  0
  -28.3831  -32.6943   25.0294 H   0  0  0  0  0  0
  -28.0761  -31.8438   26.5366 H   0  0  0  0  0  0
  -28.2609  -38.0095   24.7521 H   0  0  0  0  0  0
  -28.1078  -36.2633   24.6278 H   0  0  0  0  0  0
  -27.2308  -37.1442   25.8867 H   0  0  0  0  0  0
  -20.9309  -29.8764   21.6946 H   0  0  0  0  0  0
  -26.0192  -38.2881   24.1401 H   0  0  0  0  0  0
  -27.8540  -20.3862   22.4061 H   0  0  0  0  0  0
  -27.5944  -16.8635   18.3838 H   0  0  0  0  0  0
  -28.3458  -18.0822   19.3765 H   0  0  0  0  0  0
  -27.5910  -16.6848   20.1315 H   0  0  0  0  0  0
  -30.1340  -17.1375   17.3127 H   0  0  0  0  0  0
  -31.4240  -16.2663   18.1132 H   0  0  0  0  0  0
  -30.9339  -17.8464   18.6963 H   0  0  0  0  0  0
  -28.6727  -17.4471   23.8960 H   0  0  0  0  0  0
  -27.9952  -16.6709   22.4425 H   0  0  0  0  0  0
  -27.1684  -18.0621   23.1731 H   0  0  0  0  0  0
  -30.0026  -21.6790   19.4756 H   0  0  0  0  0  0
  -30.9719  -22.0455   20.8796 H   0  0  0  0  0  0
  -30.6913  -16.4149   22.4208 H   0  0  0  0  0  0
  -31.7073  -16.9540   21.1040 H   0  0  0  0  0  0
  -28.9597  -22.9599   22.0569 H   0  0  0  0  0  0
  -27.9544  -22.5314   20.6968 H   0  0  0  0  0  0
  -29.1715  -24.1706   19.2454 H   0  0  0  0  0  0
  -30.2206  -24.5997   20.5720 H   0  0  0  0  0  0
  -28.2881  -25.5036   21.8520 H   0  0  0  0  0  0
  -27.1939  -24.9428   20.6266 H   0  0  0  0  0  0
  -29.2427  -15.3418   18.6203 H   0  0  0  0  0  0
  -31.3190  -19.3092   20.2885 H   0  0  0  0  0  0
  1 25  1  0  0  0
  1 30  2  0  0  0
  1 85  1  0  0  0
  2  3  1  0  0  0
  2 25  1  0  0  0
  2 86  1  0  0  0
  2 87  1  0  0  0
  3  4  1  0  0  0
  3 88  1  0  0  0
  3 89  1  0  0  0
  4  5  1  0  0  0
  4 90  1  0  0  0
  4 91  1  0  0  0
  5  6  1  0  0  0
  5 26  1  0  0  0
  5 92  1  0  0  0
  6 25  1  0  0  0
  6 93  1  0  0  0
  6 94  1  0  0  0
  7  8  2  0  0  0
  7 26  1  0  0  0
  7 29  1  0  0  0
  8  9  1  0  0  0
  8 22  1  0  0  0
  9 10  1  0  0  0
  9 27  2  0  0  0
 10 11  2  0  0  0
 10 15  1  0  0  0
 11 12  1  0  0  0
 11 95  1  0  0  0
 12 13  2  0  0  0
 12 96  1  0  0  0
 13 14  1  0  0  0
 13 31  1  0  0  0
 14 15  2  0  0  0
 14 97  1  0  0  0
 15 98  1  0  0  0
 16 17  2  0  0  0
 16 21  1  0  0  0
 16 31  1  0  0  0
 17 18  1  0  0  0
 17 99  1  0  0  0
 18 19  2  0  0  0
 18100  1  0  0  0
 19 20  1  0  0  0
 19 24  1  0  0  0
 20 21  2  0  0  0
 20101  1  0  0  0
 21 23  1  0  0  0
 22 28  1  0  0  0
 22 32  2  0  0  0
 26 27  1  0  0  0
 28102  1  0  0  0
 28103  1  0  0  0
 29104  1  0  0  0
 29105  1  0  0  0
 33 34  1  0  0  0
 33 66  1  0  0  0
 33 70  2  0  0  0
 34 36  1  0  0  0
 34 59  1  0  0  0
 34106  1  0  0  0
 35 44  2  0  0  0
 35 45  1  0  0  0
 35 68  1  0  0  0
 36 56  1  0  0  0
 36107  1  0  0  0
 37 39  1  0  0  0
 37 47  1  0  0  0
 37 66  1  0  0  0
 37108  1  0  0  0
 38 43  2  0  0  0
 38 46  1  0  0  0
 38 47  1  0  0  0
 39 64  1  0  0  0
 39 67  2  0  0  0
 40 52  1  0  0  0
 40 53  2  0  0  0
 40 58  1  0  0  0
 41109  1  0  0  0
 41110  1  0  0  0
 41111  1  0  0  0
 41 48  1  0  0  0
 42 43  1  0  0  0
 42 66  1  0  0  0
 42112  1  0  0  0
 42113  1  0  0  0
 43 44  1  0  0  0
 44114  1  0  0  0
 45 46  2  0  0  0
 45115  1  0  0  0
 46116  1  0  0  0
 47117  1  0  0  0
 47118  1  0  0  0
 48 56  1  0  0  0
 48 65  1  0  0  0
 48119  1  0  0  0
 49 50  1  0  0  0
 49 53  1  0  0  0
 49 64  1  0  0  0
 49120  1  0  0  0
 50 51  1  0  0  0
 50121  1  0  0  0
 50122  1  0  0  0
 51 52  1  0  0  0
 51123  1  0  0  0
 51124  1  0  0  0
 52125  1  0  0  0
 52126  1  0  0  0
 53 54  1  0  0  0
 54 55  2  0  0  0
 54127  1  0  0  0
 55 57  1  0  0  0
 55128  1  0  0  0
 56 69  2  0  0  0
 57 58  2  0  0  0
 57129  1  0  0  0
 58130  1  0  0  0
 59 60  1  0  0  0
 59 61  1  0  0  0
 59 62  1  0  0  0
 60131  1  0  0  0
 60132  1  0  0  0
 60133  1  0  0  0
 61134  1  0  0  0
 61135  1  0  0  0
 61136  1  0  0  0
 62137  1  0  0  0
 62138  1  0  0  0
 62139  1  0  0  0
 63 65  1  0  0  0
 63140  1  0  0  0
 63141  1  0  0  0
 63142  1  0  0  0
 64143  1  0  0  0
 65144  1  0  0  0
 68 81  1  0  0  0
 71 72  2  0  0  0
 71 83  1  0  0  0
 71145  1  0  0  0
 72 77  1  0  0  0
 72 84  1  0  0  0
 73 78  1  0  0  0
 73 83  1  0  0  0
 73 84  2  0  0  0
 74146  1  0  0  0
 74147  1  0  0  0
 74148  1  0  0  0
 74 82  1  0  0  0
 75 82  1  0  0  0
 75149  1  0  0  0
 75150  1  0  0  0
 75151  1  0  0  0
 76 83  1  0  0  0
 76152  1  0  0  0
 76153  1  0  0  0
 76154  1  0  0  0
 77 79  1  0  0  0
 77155  1  0  0  0
 77156  1  0  0  0
 78 85  1  0  0  0
 78157  1  0  0  0
 78158  1  0  0  0
 79 80  1  0  0  0
 79159  1  0  0  0
 79160  1  0  0  0
 80 81  1  0  0  0
 80161  1  0  0  0
 80162  1  0  0  0
 81163  1  0  0  0
 81164  1  0  0  0
 82 85  1  0  0  0
 82165  1  0  0  0
 84166  1  0  0  0
M  CHG  1  84   1
M  ISO  4   1 100  68 101  81 101  85 100
M  END
> <chiral flag>
0

> <version>
0

> <s_m_source_file>
/data/baiqing/PycharmProjects/Reinvent-master-3.2/result/LINK_invent/BTK/process_docking_weight1_custom_sum_contain_oxygen_bond_distance_aromatic_linkinvent_7_9_3/rearranged_h_0054.sdf

> <i_m_source_file_index>
32

> <r_mmod_Potential_Energy-OPLS-2005>
113.580749511719

> <r_mmod_Stretch_Energy-OPLS-2005>
47.6904029846191

> <r_mmod_Bend_Energy-OPLS-2005>
120.154159545898

> <r_mmod_Torsional_Energy-OPLS-2005>
322.652923583984

> <r_mmod_Improper_Torsional_Energy-OPLS-2005>
10.4654541015625

> <r_mmod_Van_der_Waal_Energy-OPLS-2005>
122.953125

> <r_mmod_Electrostatic_Energy-OPLS-2005>
-151.751815795898

> <r_mmod_Solvation_Energy-OPLS-2005>
-393.261657714844

> <b_mmod_Minimization_Converged-OPLS-2005>
0

> <r_mmod_RMS_Derivative-OPLS-2005>
1.2688080072403

$$$$
32
                    3D
 Structure written by MMmdl.
164172  0  0  1  0            999 V2000
  -30.7316  -14.3926   20.6504 C   0  0  0  0  0  0
  -30.4199  -12.2897   19.4051 C   0  0  0  0  0  0
  -29.4912  -12.5208   18.1978 C   0  0  0  0  0  0
  -28.0078  -12.3962   18.5994 C   0  0  0  0  0  0
  -27.6629  -13.2058   19.8802 C   0  0  2  0  0  0
  -28.6975  -12.9361   20.9925 C   0  0  0  0  0  0
  -25.2565  -13.8157   20.5643 C   0  0  0  0  0  0
  -24.1817  -13.0429   20.9159 C   0  0  0  0  0  0
  -24.6382  -11.6895   20.8731 C   0  0  0  0  0  0
  -23.9052  -10.4280   21.0407 C   0  0  0  0  0  0
  -24.3609   -9.4197   21.9185 C   0  0  0  0  0  0
  -23.6297   -8.2235   22.0786 C   0  0  0  0  0  0
  -22.4265   -8.0266   21.3568 C   0  0  0  0  0  0
  -21.9899   -9.0235   20.4668 C   0  0  0  0  0  0
  -22.7227  -10.2110   20.3064 C   0  0  0  0  0  0
  -21.6846   -6.0741   22.5300 C   0  0  0  0  0  0
  -21.4019   -6.5641   23.8237 C   0  0  0  0  0  0
  -21.3646   -5.6797   24.9201 C   0  0  0  0  0  0
  -21.6035   -4.3057   24.7237 C   0  0  0  0  0  0
  -21.8819   -3.8155   23.4365 C   0  0  0  0  0  0
  -21.9192   -4.6971   22.3419 C   0  0  0  0  0  0
  -22.7838  -13.5227   21.1830 C   0  0  0  0  0  0
  -22.1660   -4.2160   21.0996 F   0  0  0  0  0  0
  -21.5623   -3.4540   25.7748 F   0  0  0  0  0  0
  -30.0357  -13.2419   20.4576 N   0  0  0  0  0  0
  -26.3010  -12.9332   20.3361 N   0  0  0  0  0  0
  -25.9292  -11.6479   20.5707 N   0  0  0  0  0  0
  -22.0467  -12.8246   22.0396 N   0  0  0  0  0  0
  -25.4242  -15.1886   20.4050 N   0  0  0  0  0  0
  -31.8297  -14.6110   20.1316 O   0  0  0  0  0  0
  -21.6631   -6.8878   21.4256 O   0  0  0  0  0  0
  -22.3512  -14.5508   20.6659 O   0  0  0  0  0  0
  -24.6162  -31.8666   23.2105 C   0  0  0  0  0  0
  -25.9068  -32.4802   23.8409 C   0  0  1  0  0  0
  -27.2475  -27.4475   20.1146 C   0  0  0  0  0  0
  -25.5914  -33.8597   24.2330 N   0  0  0  0  0  0
  -23.4048  -30.4908   21.5446 C   0  0  2  0  0  0
  -24.8573  -28.9535   20.1170 C   0  0  0  0  0  0
  -22.7419  -29.4691   22.4963 C   0  0  0  0  0  0
  -18.0299  -28.1408   22.8485 C   0  0  0  0  0  0
  -24.1491  -36.7321   23.2632 C   0  0  0  0  0  0
  -25.9300  -30.8379   21.3622 C   0  0  0  0  0  0
  -26.0108  -29.4689   20.7222 C   0  0  0  0  0  0
  -27.2090  -28.7230   20.7259 C   0  0  0  0  0  0
  -26.0837  -26.9498   19.4950 C   0  0  0  0  0  0
  -24.8871  -27.6910   19.4996 C   0  0  0  0  0  0
  -23.6161  -29.8146   20.1627 C   0  0  0  0  0  0
  -25.4097  -36.3086   24.0331 C   0  0  1  0  0  0
  -20.5883  -28.3703   23.1287 C   0  0  2  0  0  0
  -20.6787  -26.9434   22.5412 C   0  0  0  0  0  0
  -19.5764  -26.6415   21.5214 C   0  0  0  0  0  0
  -18.1940  -26.7954   22.1623 C   0  0  0  0  0  0
  -19.1543  -28.8867   23.2881 C   0  0  0  0  0  0
  -18.9470  -30.1466   23.8904 C   0  0  0  0  0  0
  -17.6471  -30.6598   24.0588 C   0  0  0  0  0  0
  -25.9027  -34.9462   23.5102 C   0  0  0  0  0  0
  -16.5365  -29.9109   23.6340 C   0  0  0  0  0  0
  -16.7285  -28.6535   23.0340 C   0  0  0  0  0  0
  -26.4502  -31.6584   25.0735 C   0  0  0  0  0  0
  -25.3787  -31.3682   26.1495 C   0  0  0  0  0  0
  -27.0345  -30.3033   24.6109 C   0  0  0  0  0  0
  -27.6082  -32.4305   25.7508 C   0  0  0  0  0  0
  -27.5563  -37.1806   24.8455 C   0  0  0  0  0  0
  -21.4153  -29.3048   22.3671 N   0  0  0  0  0  0
  -26.4284  -37.3764   23.9390 N   0  0  0  0  0  0
  -24.6670  -31.0823   22.0974 N   0  0  0  0  0  0
  -23.4171  -28.8224   23.3017 O   0  0  0  0  0  0
  -28.3825  -26.6716   20.0438 O   0  0  0  0  0  0
  -26.5589  -34.8914   22.4677 O   0  0  0  0  0  0
  -23.5366  -32.1426   23.7512 O   0  0  0  0  0  0
  -29.9980  -19.6838   22.3119 C   0  0  0  0  0  0
  -30.5266  -20.9437   22.3387 C   0  0  0  0  0  0
  -28.7481  -17.7100   20.2467 C   0  0  0  0  0  0
  -31.0563  -17.4991   19.3132 C   0  0  0  0  0  0
  -30.3542  -22.0289   23.3662 C   0  0  0  0  0  0
  -29.1971  -23.0216   23.1097 C   0  0  0  0  0  0
  -29.4349  -24.0310   21.9621 C   0  0  0  0  0  0
  -28.6237  -25.3437   22.1142 C   0  0  0  0  0  0
  -30.6078  -16.6755   21.6810 C   0  0  0  0  0  0
  -29.1471  -26.5033   21.2361 C   0  0  0  0  0  0
  -30.2486  -17.7597   20.6112 C   0  0  0  0  0  0
  -31.3513  -21.0888   21.2255 N   0  0  0  0  0  0
  -31.3437  -19.9878   20.5369 N   0  0  0  0  0  0
  -30.5279  -19.1015   21.1705 N   0  0  0  0  0  0
  -30.1085  -15.3250   21.3834 N   0  0  0  0  0  0
  -31.4611  -12.4039   19.0990 H   0  0  0  0  0  0
  -30.3364  -11.2651   19.7724 H   0  0  0  0  0  0
  -29.7204  -11.8148   17.3999 H   0  0  0  0  0  0
  -29.6744  -13.5161   17.7921 H   0  0  0  0  0  0
  -27.7890  -11.3401   18.7551 H   0  0  0  0  0  0
  -27.3724  -12.7184   17.7732 H   0  0  0  0  0  0
  -27.7226  -14.2633   19.6236 H   0  0  0  0  0  0
  -28.6545  -11.8870   21.2879 H   0  0  0  0  0  0
  -28.4493  -13.4941   21.8971 H   0  0  0  0  0  0
  -25.2762   -9.5685   22.4743 H   0  0  0  0  0  0
  -24.0001   -7.4635   22.7516 H   0  0  0  0  0  0
  -21.0833   -8.8760   19.8961 H   0  0  0  0  0  0
  -22.3704  -10.9650   19.6170 H   0  0  0  0  0  0
  -21.2017   -7.6150   23.9752 H   0  0  0  0  0  0
  -21.1464   -6.0525   25.9104 H   0  0  0  0  0  0
  -22.0607   -2.7618   23.2873 H   0  0  0  0  0  0
  -22.4026  -11.9871   22.4763 H   0  0  0  0  0  0
  -21.1113  -13.1355   22.2611 H   0  0  0  0  0  0
  -24.6549  -15.8403   20.5178 H   0  0  0  0  0  0
  -26.2761  -15.6370   20.0917 H   0  0  0  0  0  0
  -26.7155  -32.5550   23.1194 H   0  0  0  0  0  0
  -25.0100  -33.9764   25.0494 H   0  0  0  0  0  0
  -22.6958  -31.3076   21.3965 H   0  0  0  0  0  0
  -23.3716  -35.9690   23.3321 H   0  0  0  0  0  0
  -24.3592  -36.8934   22.2044 H   0  0  0  0  0  0
  -23.7317  -37.6558   23.6657 H   0  0  0  0  0  0
  -26.0416  -31.5960   20.5863 H   0  0  0  0  0  0
  -26.8177  -30.8988   21.9800 H   0  0  0  0  0  0
  -28.0956  -29.1387   21.1823 H   0  0  0  0  0  0
  -26.1068  -25.9814   19.0145 H   0  0  0  0  0  0
  -24.0050  -27.2918   19.0183 H   0  0  0  0  0  0
  -23.7107  -30.5795   19.3890 H   0  0  0  0  0  0
  -22.7472  -29.2193   19.8815 H   0  0  0  0  0  0
  -25.1281  -36.1934   25.0824 H   0  0  0  0  0  0
  -20.9987  -28.3300   24.1409 H   0  0  0  0  0  0
  -20.5735  -26.2304   23.3598 H   0  0  0  0  0  0
  -21.6642  -26.7504   22.1176 H   0  0  0  0  0  0
  -19.6941  -25.6329   21.1246 H   0  0  0  0  0  0
  -19.6729  -27.3224   20.6733 H   0  0  0  0  0  0
  -17.4219  -26.6713   21.4027 H   0  0  0  0  0  0
  -18.0332  -26.0103   22.9018 H   0  0  0  0  0  0
  -19.7948  -30.7266   24.2299 H   0  0  0  0  0  0
  -17.5042  -31.6283   24.5176 H   0  0  0  0  0  0
  -15.5367  -30.3014   23.7666 H   0  0  0  0  0  0
  -15.8682  -28.0869   22.7028 H   0  0  0  0  0  0
  -24.5945  -30.7032   25.7836 H   0  0  0  0  0  0
  -24.8980  -32.2833   26.4980 H   0  0  0  0  0  0
  -25.8156  -30.8842   27.0241 H   0  0  0  0  0  0
  -26.2884  -29.6769   24.1193 H   0  0  0  0  0  0
  -27.4156  -29.7289   25.4564 H   0  0  0  0  0  0
  -27.8706  -30.4348   23.9227 H   0  0  0  0  0  0
  -27.2708  -33.3593   26.2131 H   0  0  0  0  0  0
  -28.3893  -32.6900   25.0341 H   0  0  0  0  0  0
  -28.0767  -31.8407   26.5411 H   0  0  0  0  0  0
  -28.2572  -38.0100   24.7463 H   0  0  0  0  0  0
  -28.1072  -36.2635   24.6318 H   0  0  0  0  0  0
  -27.2286  -37.1489   25.8859 H   0  0  0  0  0  0
  -20.9332  -29.8740   21.6853 H   0  0  0  0  0  0
  -26.0171  -38.2846   24.1370 H   0  0  0  0  0  0
  -29.3211  -19.1730   22.9817 H   0  0  0  0  0  0
  -28.4675  -16.7644   19.7840 H   0  0  0  0  0  0
  -28.4913  -18.4941   19.5334 H   0  0  0  0  0  0
  -28.1136  -17.8425   21.1216 H   0  0  0  0  0  0
  -30.9251  -18.2865   18.5714 H   0  0  0  0  0  0
  -30.7443  -16.5746   18.8271 H   0  0  0  0  0  0
  -32.1256  -17.4194   19.5184 H   0  0  0  0  0  0
  -31.2892  -22.5814   23.4810 H   0  0  0  0  0  0
  -30.1880  -21.5662   24.3407 H   0  0  0  0  0  0
  -29.0850  -23.5885   24.0353 H   0  0  0  0  0  0
  -28.2552  -22.4858   22.9758 H   0  0  0  0  0  0
  -29.2258  -23.5691   20.9959 H   0  0  0  0  0  0
  -30.4965  -24.2801   21.9496 H   0  0  0  0  0  0
  -28.6875  -25.6799   23.1499 H   0  0  0  0  0  0
  -27.5581  -25.1724   21.9390 H   0  0  0  0  0  0
  -30.1878  -16.9458   22.6490 H   0  0  0  0  0  0
  -31.6881  -16.6453   21.8407 H   0  0  0  0  0  0
  -30.1737  -26.2981   20.9355 H   0  0  0  0  0  0
  -29.2072  -27.4144   21.8277 H   0  0  0  0  0  0
  -29.2096  -15.0726   21.7687 H   0  0  0  0  0  0
  1 25  1  0  0  0
  1 30  2  0  0  0
  1 85  1  0  0  0
  2  3  1  0  0  0
  2 25  1  0  0  0
  2 86  1  0  0  0
  2 87  1  0  0  0
  3  4  1  0  0  0
  3 88  1  0  0  0
  3 89  1  0  0  0
  4  5  1  0  0  0
  4 90  1  0  0  0
  4 91  1  0  0  0
  5  6  1  0  0  0
  5 26  1  0  0  0
  5 92  1  0  0  0
  6 25  1  0  0  0
  6 93  1  0  0  0
  6 94  1  0  0  0
  7  8  2  0  0  0
  7 26  1  0  0  0
  7 29  1  0  0  0
  8  9  1  0  0  0
  8 22  1  0  0  0
  9 10  1  0  0  0
  9 27  2  0  0  0
 10 11  2  0  0  0
 10 15  1  0  0  0
 11 12  1  0  0  0
 11 95  1  0  0  0
 12 13  2  0  0  0
 12 96  1  0  0  0
 13 14  1  0  0  0
 13 31  1  0  0  0
 14 15  2  0  0  0
 14 97  1  0  0  0
 15 98  1  0  0  0
 16 17  2  0  0  0
 16 21  1  0  0  0
 16 31  1  0  0  0
 17 18  1  0  0  0
 17 99  1  0  0  0
 18 19  2  0  0  0
 18100  1  0  0  0
 19 20  1  0  0  0
 19 24  1  0  0  0
 20 21  2  0  0  0
 20101  1  0  0  0
 21 23  1  0  0  0
 22 28  1  0  0  0
 22 32  2  0  0  0
 26 27  1  0  0  0
 28102  1  0  0  0
 28103  1  0  0  0
 29104  1  0  0  0
 29105  1  0  0  0
 33 34  1  0  0  0
 33 66  1  0  0  0
 33 70  2  0  0  0
 34 36  1  0  0  0
 34 59  1  0  0  0
 34106  1  0  0  0
 35 44  2  0  0  0
 35 45  1  0  0  0
 35 68  1  0  0  0
 36 56  1  0  0  0
 36107  1  0  0  0
 37 39  1  0  0  0
 37 47  1  0  0  0
 37 66  1  0  0  0
 37108  1  0  0  0
 38 43  2  0  0  0
 38 46  1  0  0  0
 38 47  1  0  0  0
 39 64  1  0  0  0
 39 67  2  0  0  0
 40 52  1  0  0  0
 40 53  2  0  0  0
 40 58  1  0  0  0
 41109  1  0  0  0
 41110  1  0  0  0
 41111  1  0  0  0
 41 48  1  0  0  0
 42 43  1  0  0  0
 42 66  1  0  0  0
 42112  1  0  0  0
 42113  1  0  0  0
 43 44  1  0  0  0
 44114  1  0  0  0
 45 46  2  0  0  0
 45115  1  0  0  0
 46116  1  0  0  0
 47117  1  0  0  0
 47118  1  0  0  0
 48 56  1  0  0  0
 48 65  1  0  0  0
 48119  1  0  0  0
 49 50  1  0  0  0
 49 53  1  0  0  0
 49 64  1  0  0  0
 49120  1  0  0  0
 50 51  1  0  0  0
 50121  1  0  0  0
 50122  1  0  0  0
 51 52  1  0  0  0
 51123  1  0  0  0
 51124  1  0  0  0
 52125  1  0  0  0
 52126  1  0  0  0
 53 54  1  0  0  0
 54 55  2  0  0  0
 54127  1  0  0  0
 55 57  1  0  0  0
 55128  1  0  0  0
 56 69  2  0  0  0
 57 58  2  0  0  0
 57129  1  0  0  0
 58130  1  0  0  0
 59 60  1  0  0  0
 59 61  1  0  0  0
 59 62  1  0  0  0
 60131  1  0  0  0
 60132  1  0  0  0
 60133  1  0  0  0
 61134  1  0  0  0
 61135  1  0  0  0
 61136  1  0  0  0
 62137  1  0  0  0
 62138  1  0  0  0
 62139  1  0  0  0
 63 65  1  0  0  0
 63140  1  0  0  0
 63141  1  0  0  0
 63142  1  0  0  0
 64143  1  0  0  0
 65144  1  0  0  0
 68 80  1  0  0  0
 71 72  2  0  0  0
 71 84  1  0  0  0
 71145  1  0  0  0
 72 75  1  0  0  0
 72 82  1  0  0  0
 73146  1  0  0  0
 73147  1  0  0  0
 73148  1  0  0  0
 73 81  1  0  0  0
 74 81  1  0  0  0
 74149  1  0  0  0
 74150  1  0  0  0
 74151  1  0  0  0
 75 76  1  0  0  0
 75152  1  0  0  0
 75153  1  0  0  0
 76 77  1  0  0  0
 76154  1  0  0  0
 76155  1  0  0  0
 77 78  1  0  0  0
 77156  1  0  0  0
 77157  1  0  0  0
 78 80  1  0  0  0
 78158  1  0  0  0
 78159  1  0  0  0
 79 81  1  0  0  0
 79 85  1  0  0  0
 79160  1  0  0  0
 79161  1  0  0  0
 80162  1  0  0  0
 80163  1  0  0  0
 81 84  1  0  0  0
 82 83  2  0  0  0
 83 84  1  0  0  0
 85164  1  0  0  0
M  ISO  4   1 100  68 101  80 101  85 100
M  END
> <chiral flag>
0

> <version>
0

> <s_m_source_file>
/data/baiqing/PycharmProjects/Reinvent-master-3.2/result/LINK_invent/BTK/process_docking_weight1_custom_sum_contain_oxygen_bond_distance_aromatic_linkinvent_7_9_3/rearranged_h_0054.sdf

> <i_m_source_file_index>
33

> <r_mmod_Potential_Energy-OPLS-2005>
-112.869941711426

> <r_mmod_Stretch_Energy-OPLS-2005>
36.1789817810059

> <r_mmod_Bend_Energy-OPLS-2005>
103.691932678223

> <r_mmod_Torsional_Energy-OPLS-2005>
251.633819580078

> <r_mmod_Improper_Torsional_Energy-OPLS-2005>
2.36691951751709

> <r_mmod_Van_der_Waal_Energy-OPLS-2005>
132.300903320312

> <r_mmod_Electrostatic_Energy-OPLS-2005>
-426.787933349609

> <r_mmod_Solvation_Energy-OPLS-2005>
-220.624038696289

> <b_mmod_Minimization_Converged-OPLS-2005>
0

> <r_mmod_RMS_Derivative-OPLS-2005>
4.14125061035156

$$$$
33
                    3D
 Structure written by MMmdl.
157165  0  0  1  0            999 V2000
  -30.6785  -14.6233   20.5484 C   0  0  0  0  0  0
  -30.4206  -12.3968   19.4622 C   0  0  0  0  0  0
  -29.5002  -12.5218   18.2282 C   0  0  0  0  0  0
  -28.0233  -12.3583   18.6330 C   0  0  0  0  0  0
  -27.6477  -13.2253   19.8616 C   0  0  2  0  0  0
  -28.6845  -13.0819   20.9922 C   0  0  0  0  0  0
  -25.2524  -13.8190   20.5704 C   0  0  0  0  0  0
  -24.1811  -13.0444   20.9204 C   0  0  0  0  0  0
  -24.6402  -11.6918   20.8760 C   0  0  0  0  0  0
  -23.9079  -10.4303   21.0427 C   0  0  0  0  0  0
  -24.3633   -9.4216   21.9203 C   0  0  0  0  0  0
  -23.6314   -8.2247   22.0753 C   0  0  0  0  0  0
  -22.4290   -8.0300   21.3541 C   0  0  0  0  0  0
  -21.9930   -9.0276   20.4639 C   0  0  0  0  0  0
  -22.7256  -10.2156   20.3064 C   0  0  0  0  0  0
  -21.6856   -6.0755   22.5286 C   0  0  0  0  0  0
  -21.4014   -6.5655   23.8224 C   0  0  0  0  0  0
  -21.3660   -5.6801   24.9183 C   0  0  0  0  0  0
  -21.6044   -4.3066   24.7223 C   0  0  0  0  0  0
  -21.8822   -3.8162   23.4345 C   0  0  0  0  0  0
  -21.9192   -4.6982   22.3405 C   0  0  0  0  0  0
  -22.7832  -13.5222   21.1880 C   0  0  0  0  0  0
  -22.1666   -4.2175   21.0980 F   0  0  0  0  0  0
  -21.5628   -3.4543   25.7731 F   0  0  0  0  0  0
  -30.0038  -13.4289   20.4403 N   0  0  0  0  0  0
  -26.2959  -12.9391   20.3317 N   0  0  0  0  0  0
  -25.9324  -11.6533   20.5753 N   0  0  0  0  0  0
  -22.0479  -12.8208   22.0430 N   0  0  0  0  0  0
  -25.4225  -15.1918   20.4152 N   0  0  0  0  0  0
  -31.8199  -14.7292   20.0896 O   0  0  0  0  0  0
  -21.6644   -6.8901   21.4248 O   0  0  0  0  0  0
  -22.3517  -14.5542   20.6751 O   0  0  0  0  0  0
  -24.6233  -31.8600   23.2043 C   0  0  0  0  0  0
  -25.9084  -32.4782   23.8365 C   0  0  1  0  0  0
  -27.2182  -27.3371   20.1225 C   0  0  0  0  0  0
  -25.5909  -33.8587   24.2280 N   0  0  0  0  0  0
  -23.4181  -30.4825   21.5471 C   0  0  2  0  0  0
  -24.8633  -28.9403   20.1091 C   0  0  0  0  0  0
  -22.7474  -29.4605   22.4962 C   0  0  0  0  0  0
  -18.0283  -28.1381   22.8489 C   0  0  0  0  0  0
  -24.1492  -36.7304   23.2642 C   0  0  0  0  0  0
  -25.9556  -30.7976   21.3715 C   0  0  0  0  0  0
  -26.0297  -29.4252   20.7161 C   0  0  0  0  0  0
  -27.2143  -28.6338   20.7125 C   0  0  0  0  0  0
  -26.0368  -26.8950   19.4944 C   0  0  0  0  0  0
  -24.8668  -27.6804   19.4874 C   0  0  0  0  0  0
  -23.6304  -29.8193   20.1608 C   0  0  0  0  0  0
  -25.4112  -36.3083   24.0325 C   0  0  1  0  0  0
  -20.5889  -28.3657   23.1305 C   0  0  2  0  0  0
  -20.6772  -26.9386   22.5425 C   0  0  0  0  0  0
  -19.5747  -26.6383   21.5224 C   0  0  0  0  0  0
  -18.1926  -26.7932   22.1633 C   0  0  0  0  0  0
  -19.1543  -28.8837   23.2886 C   0  0  0  0  0  0
  -18.9461  -30.1445   23.8881 C   0  0  0  0  0  0
  -17.6460  -30.6577   24.0561 C   0  0  0  0  0  0
  -25.9045  -34.9449   23.5101 C   0  0  0  0  0  0
  -16.5345  -29.9074   23.6342 C   0  0  0  0  0  0
  -16.7269  -28.6508   23.0336 C   0  0  0  0  0  0
  -26.4483  -31.6584   25.0721 C   0  0  0  0  0  0
  -25.3725  -31.3692   26.1452 C   0  0  0  0  0  0
  -27.0318  -30.3013   24.6150 C   0  0  0  0  0  0
  -27.6063  -32.4292   25.7478 C   0  0  0  0  0  0
  -27.5579  -37.1797   24.8460 C   0  0  0  0  0  0
  -21.4193  -29.3004   22.3699 N   0  0  0  0  0  0
  -26.4287  -37.3775   23.9407 N   0  0  0  0  0  0
  -24.6847  -31.0636   22.0980 N   0  0  0  0  0  0
  -23.4203  -28.8149   23.3038 O   0  0  0  0  0  0
  -28.3244  -26.4868   20.1371 O   0  0  0  0  0  0
  -26.5638  -34.8903   22.4679 O   0  0  0  0  0  0
  -23.5399  -32.1389   23.7376 O   0  0  0  0  0  0
  -27.9517  -20.0571   20.6936 C   0  0  0  0  0  0
  -30.5492  -19.4788   20.3224 C   0  0  0  0  0  0
  -28.9109  -21.1140   20.6883 C   0  0  0  0  0  0
  -29.5916  -18.4209   20.3360 C   0  0  0  0  0  0
  -30.8727  -16.7373   23.0127 C   0  0  0  0  0  0
  -28.5402  -22.5736   21.1353 C   0  0  0  0  0  0
  -29.9725  -16.9488   19.9269 C   0  0  0  0  0  0
  -28.6201  -23.8285   20.1609 C   0  0  0  0  0  0
  -29.6859  -16.0822   22.2842 C   0  0  0  0  0  0
  -28.1430  -25.1949   20.8246 C   0  0  0  0  0  0
  -30.2231  -20.7982   20.5038 N   0  0  0  0  0  0
  -28.2782  -18.7371   20.5130 N   0  0  0  0  0  0
  -29.9736  -15.7675   20.8749 N   0  0  0  0  0  0
  -31.4654  -12.4966   19.1610 H   0  0  0  0  0  0
  -30.3360  -11.4020   19.9044 H   0  0  0  0  0  0
  -29.7666  -11.7760   17.4789 H   0  0  0  0  0  0
  -29.6439  -13.4965   17.7585 H   0  0  0  0  0  0
  -27.8562  -11.3043   18.8583 H   0  0  0  0  0  0
  -27.3707  -12.5963   17.7923 H   0  0  0  0  0  0
  -27.6660  -14.2636   19.5295 H   0  0  0  0  0  0
  -28.6936  -12.0606   21.3755 H   0  0  0  0  0  0
  -28.3859  -13.7031   21.8311 H   0  0  0  0  0  0
  -25.2777   -9.5699   22.4780 H   0  0  0  0  0  0
  -24.0032   -7.4631   22.7464 H   0  0  0  0  0  0
  -21.0868   -8.8802   19.8934 H   0  0  0  0  0  0
  -22.3726  -10.9710   19.6185 H   0  0  0  0  0  0
  -21.2005   -7.6163   23.9742 H   0  0  0  0  0  0
  -21.1477   -6.0524   25.9091 H   0  0  0  0  0  0
  -22.0591   -2.7625   23.2832 H   0  0  0  0  0  0
  -22.4088  -11.9859   22.4797 H   0  0  0  0  0  0
  -21.1101  -13.1234   22.2648 H   0  0  0  0  0  0
  -24.6559  -15.8451   20.5310 H   0  0  0  0  0  0
  -26.2875  -15.6394   20.1374 H   0  0  0  0  0  0
  -26.7143  -32.5460   23.1110 H   0  0  0  0  0  0
  -24.9994  -33.9724   25.0386 H   0  0  0  0  0  0
  -22.7093  -31.3007   21.4065 H   0  0  0  0  0  0
  -23.3744  -35.9650   23.3304 H   0  0  0  0  0  0
  -24.3584  -36.8942   22.2059 H   0  0  0  0  0  0
  -23.7247  -37.6503   23.6673 H   0  0  0  0  0  0
  -26.0814  -31.5603   20.6017 H   0  0  0  0  0  0
  -26.8374  -30.8473   21.9983 H   0  0  0  0  0  0
  -28.1106  -28.9993   21.1920 H   0  0  0  0  0  0
  -26.0147  -25.9245   19.0188 H   0  0  0  0  0  0
  -23.9730  -27.3074   19.0059 H   0  0  0  0  0  0
  -23.7464  -30.5977   19.4057 H   0  0  0  0  0  0
  -22.7500  -29.2491   19.8613 H   0  0  0  0  0  0
  -25.1286  -36.1949   25.0818 H   0  0  0  0  0  0
  -20.9956  -28.3230   24.1436 H   0  0  0  0  0  0
  -20.5704  -26.2252   23.3618 H   0  0  0  0  0  0
  -21.6637  -26.7441   22.1196 H   0  0  0  0  0  0
  -19.6918  -25.6305   21.1230 H   0  0  0  0  0  0
  -19.6701  -27.3220   20.6777 H   0  0  0  0  0  0
  -17.4206  -26.6674   21.4027 H   0  0  0  0  0  0
  -18.0298  -26.0082   22.9033 H   0  0  0  0  0  0
  -19.7931  -30.7269   24.2248 H   0  0  0  0  0  0
  -17.5004  -31.6260   24.5152 H   0  0  0  0  0  0
  -15.5338  -30.2944   23.7687 H   0  0  0  0  0  0
  -15.8680  -28.0821   22.7021 H   0  0  0  0  0  0
  -24.5912  -30.7021   25.7786 H   0  0  0  0  0  0
  -24.8883  -32.2834   26.4897 H   0  0  0  0  0  0
  -25.8058  -30.8869   27.0226 H   0  0  0  0  0  0
  -26.2878  -29.6746   24.1209 H   0  0  0  0  0  0
  -27.4071  -29.7272   25.4639 H   0  0  0  0  0  0
  -27.8732  -30.4317   23.9331 H   0  0  0  0  0  0
  -27.2724  -33.3619   26.2036 H   0  0  0  0  0  0
  -28.3882  -32.6796   25.0294 H   0  0  0  0  0  0
  -28.0716  -31.8412   26.5404 H   0  0  0  0  0  0
  -28.2582  -38.0106   24.7507 H   0  0  0  0  0  0
  -28.1079  -36.2628   24.6283 H   0  0  0  0  0  0
  -27.2288  -37.1444   25.8859 H   0  0  0  0  0  0
  -20.9373  -29.8728   21.6920 H   0  0  0  0  0  0
  -26.0176  -38.2854   24.1414 H   0  0  0  0  0  0
  -26.9092  -20.2646   20.8907 H   0  0  0  0  0  0
  -31.5923  -19.2666   20.1324 H   0  0  0  0  0  0
  -31.7227  -16.0600   23.0992 H   0  0  0  0  0  0
  -30.5845  -17.0210   24.0250 H   0  0  0  0  0  0
  -31.2165  -17.6411   22.5129 H   0  0  0  0  0  0
  -29.1663  -22.7900   22.0014 H   0  0  0  0  0  0
  -27.5253  -22.5313   21.5330 H   0  0  0  0  0  0
  -30.9580  -17.0211   19.4638 H   0  0  0  0  0  0
  -29.3123  -16.6750   19.1027 H   0  0  0  0  0  0
  -28.0125  -23.6351   19.2769 H   0  0  0  0  0  0
  -29.6459  -23.9383   19.8100 H   0  0  0  0  0  0
  -29.4426  -15.1804   22.8436 H   0  0  0  0  0  0
  -28.7978  -16.7104   22.3507 H   0  0  0  0  0  0
  -28.6778  -25.3005   21.7700 H   0  0  0  0  0  0
  -27.1011  -25.0693   21.1223 H   0  0  0  0  0  0
  1 25  1  0  0  0
  1 30  2  0  0  0
  1 83  1  0  0  0
  2  3  1  0  0  0
  2 25  1  0  0  0
  2 84  1  0  0  0
  2 85  1  0  0  0
  3  4  1  0  0  0
  3 86  1  0  0  0
  3 87  1  0  0  0
  4  5  1  0  0  0
  4 88  1  0  0  0
  4 89  1  0  0  0
  5  6  1  0  0  0
  5 26  1  0  0  0
  5 90  1  0  0  0
  6 25  1  0  0  0
  6 91  1  0  0  0
  6 92  1  0  0  0
  7  8  2  0  0  0
  7 26  1  0  0  0
  7 29  1  0  0  0
  8  9  1  0  0  0
  8 22  1  0  0  0
  9 10  1  0  0  0
  9 27  2  0  0  0
 10 11  2  0  0  0
 10 15  1  0  0  0
 11 12  1  0  0  0
 11 93  1  0  0  0
 12 13  2  0  0  0
 12 94  1  0  0  0
 13 14  1  0  0  0
 13 31  1  0  0  0
 14 15  2  0  0  0
 14 95  1  0  0  0
 15 96  1  0  0  0
 16 17  2  0  0  0
 16 21  1  0  0  0
 16 31  1  0  0  0
 17 18  1  0  0  0
 17 97  1  0  0  0
 18 19  2  0  0  0
 18 98  1  0  0  0
 19 20  1  0  0  0
 19 24  1  0  0  0
 20 21  2  0  0  0
 20 99  1  0  0  0
 21 23  1  0  0  0
 22 28  1  0  0  0
 22 32  2  0  0  0
 26 27  1  0  0  0
 28100  1  0  0  0
 28101  1  0  0  0
 29102  1  0  0  0
 29103  1  0  0  0
 33 34  1  0  0  0
 33 66  1  0  0  0
 33 70  2  0  0  0
 34 36  1  0  0  0
 34 59  1  0  0  0
 34104  1  0  0  0
 35 44  2  0  0  0
 35 45  1  0  0  0
 35 68  1  0  0  0
 36 56  1  0  0  0
 36105  1  0  0  0
 37 39  1  0  0  0
 37 47  1  0  0  0
 37 66  1  0  0  0
 37106  1  0  0  0
 38 43  2  0  0  0
 38 46  1  0  0  0
 38 47  1  0  0  0
 39 64  1  0  0  0
 39 67  2  0  0  0
 40 52  1  0  0  0
 40 53  2  0  0  0
 40 58  1  0  0  0
 41107  1  0  0  0
 41108  1  0  0  0
 41109  1  0  0  0
 41 48  1  0  0  0
 42 43  1  0  0  0
 42 66  1  0  0  0
 42110  1  0  0  0
 42111  1  0  0  0
 43 44  1  0  0  0
 44112  1  0  0  0
 45 46  2  0  0  0
 45113  1  0  0  0
 46114  1  0  0  0
 47115  1  0  0  0
 47116  1  0  0  0
 48 56  1  0  0  0
 48 65  1  0  0  0
 48117  1  0  0  0
 49 50  1  0  0  0
 49 53  1  0  0  0
 49 64  1  0  0  0
 49118  1  0  0  0
 50 51  1  0  0  0
 50119  1  0  0  0
 50120  1  0  0  0
 51 52  1  0  0  0
 51121  1  0  0  0
 51122  1  0  0  0
 52123  1  0  0  0
 52124  1  0  0  0
 53 54  1  0  0  0
 54 55  2  0  0  0
 54125  1  0  0  0
 55 57  1  0  0  0
 55126  1  0  0  0
 56 69  2  0  0  0
 57 58  2  0  0  0
 57127  1  0  0  0
 58128  1  0  0  0
 59 60  1  0  0  0
 59 61  1  0  0  0
 59 62  1  0  0  0
 60129  1  0  0  0
 60130  1  0  0  0
 60131  1  0  0  0
 61132  1  0  0  0
 61133  1  0  0  0
 61134  1  0  0  0
 62135  1  0  0  0
 62136  1  0  0  0
 62137  1  0  0  0
 63 65  1  0  0  0
 63138  1  0  0  0
 63139  1  0  0  0
 63140  1  0  0  0
 64141  1  0  0  0
 65142  1  0  0  0
 68 80  1  0  0  0
 71 73  2  0  0  0
 71 82  1  0  0  0
 71143  1  0  0  0
 72 74  1  0  0  0
 72 81  2  0  0  0
 72144  1  0  0  0
 73 76  1  0  0  0
 73 81  1  0  0  0
 74 77  1  0  0  0
 74 82  2  0  0  0
 75 79  1  0  0  0
 75145  1  0  0  0
 75146  1  0  0  0
 75147  1  0  0  0
 76 78  1  0  0  0
 76148  1  0  0  0
 76149  1  0  0  0
 77 83  1  0  0  0
 77150  1  0  0  0
 77151  1  0  0  0
 78 80  1  0  0  0
 78152  1  0  0  0
 78153  1  0  0  0
 79 83  1  0  0  0
 79154  1  0  0  0
 79155  1  0  0  0
 80156  1  0  0  0
 80157  1  0  0  0
M  ISO  4   1 100  68 101  80 101  83 100
M  END
> <chiral flag>
0

> <version>
0

> <s_m_source_file>
/data/baiqing/PycharmProjects/Reinvent-master-3.2/result/LINK_invent/BTK/process_docking_weight1_custom_sum_contain_oxygen_bond_distance_aromatic_linkinvent_7_9_3/rearranged_h_0054.sdf

> <i_m_source_file_index>
34

> <r_mmod_Potential_Energy-OPLS-2005>
258.136291503906

> <r_mmod_Stretch_Energy-OPLS-2005>
81.8928070068359

> <r_mmod_Bend_Energy-OPLS-2005>
144.25651550293

> <r_mmod_Torsional_Energy-OPLS-2005>
294.047760009766

> <r_mmod_Improper_Torsional_Energy-OPLS-2005>
11.1723327636719

> <r_mmod_Van_der_Waal_Energy-OPLS-2005>
143.030883789062

> <r_mmod_Electrostatic_Energy-OPLS-2005>
-257.657501220703

> <r_mmod_Solvation_Energy-OPLS-2005>
-200.121765136719

> <b_mmod_Minimization_Converged-OPLS-2005>
0

> <r_mmod_RMS_Derivative-OPLS-2005>
2.19803738594055

$$$$
34
                    3D
 Structure written by MMmdl.
152160  0  0  1  0            999 V2000
  -30.4604  -15.3643   20.4431 C   0  0  0  0  0  0
  -30.4356  -12.8919   19.5736 C   0  0  0  0  0  0
  -29.5565  -12.6229   18.3254 C   0  0  0  0  0  0
  -28.1076  -12.3232   18.7374 C   0  0  0  0  0  0
  -27.6116  -13.2973   19.8312 C   0  0  2  0  0  0
  -28.6277  -13.5228   20.9778 C   0  0  0  0  0  0
  -25.2372  -13.8339   20.5789 C   0  0  0  0  0  0
  -24.1703  -13.0476   20.9266 C   0  0  0  0  0  0
  -24.6375  -11.7014   20.8750 C   0  0  0  0  0  0
  -23.9094  -10.4352   21.0429 C   0  0  0  0  0  0
  -24.3658   -9.4260   21.9206 C   0  0  0  0  0  0
  -23.6351   -8.2280   22.0754 C   0  0  0  0  0  0
  -22.4319   -8.0308   21.3575 C   0  0  0  0  0  0
  -21.9960   -9.0257   20.4667 C   0  0  0  0  0  0
  -22.7269  -10.2154   20.3087 C   0  0  0  0  0  0
  -21.6881   -6.0748   22.5290 C   0  0  0  0  0  0
  -21.4010   -6.5642   23.8228 C   0  0  0  0  0  0
  -21.3655   -5.6791   24.9173 C   0  0  0  0  0  0
  -21.6062   -4.3056   24.7221 C   0  0  0  0  0  0
  -21.8803   -3.8154   23.4337 C   0  0  0  0  0  0
  -21.9211   -4.6983   22.3392 C   0  0  0  0  0  0
  -22.7747  -13.5241   21.1932 C   0  0  0  0  0  0
  -22.1666   -4.2169   21.0967 F   0  0  0  0  0  0
  -21.5639   -3.4528   25.7720 F   0  0  0  0  0  0
  -29.8701  -14.0517   20.3827 N   0  0  0  0  0  0
  -26.2810  -12.9620   20.3230 N   0  0  0  0  0  0
  -25.9348  -11.6712   20.5718 N   0  0  0  0  0  0
  -22.0340  -12.8242   22.0475 N   0  0  0  0  0  0
  -25.4036  -15.2090   20.4248 N   0  0  0  0  0  0
  -31.6420  -15.3197   20.0574 O   0  0  0  0  0  0
  -21.6662   -6.8906   21.4274 O   0  0  0  0  0  0
  -22.3396  -14.5492   20.6724 O   0  0  0  0  0  0
  -24.6630  -31.8185   23.1700 C   0  0  0  0  0  0
  -25.9303  -32.4528   23.8181 C   0  0  1  0  0  0
  -27.2357  -26.8758   20.2278 C   0  0  0  0  0  0
  -25.5988  -33.8349   24.2086 N   0  0  0  0  0  0
  -23.4793  -30.4250   21.5218 C   0  0  2  0  0  0
  -24.9421  -28.8036   20.1195 C   0  0  0  0  0  0
  -22.7684  -29.4360   22.4821 C   0  0  0  0  0  0
  -18.0327  -28.1365   22.8444 C   0  0  0  0  0  0
  -24.1528  -36.7171   23.2643 C   0  0  0  0  0  0
  -26.0528  -30.6137   21.4078 C   0  0  0  0  0  0
  -26.1278  -29.1987   20.7536 C   0  0  0  0  0  0
  -27.2684  -28.2643   20.7702 C   0  0  0  0  0  0
  -26.0169  -26.6461   19.5414 C   0  0  0  0  0  0
  -24.9192  -27.5507   19.4867 C   0  0  0  0  0  0
  -23.7207  -29.7290   20.1518 C   0  0  0  0  0  0
  -25.4155  -36.2910   24.0288 C   0  0  1  0  0  0
  -20.5944  -28.3682   23.1198 C   0  0  2  0  0  0
  -20.6795  -26.9371   22.5397 C   0  0  0  0  0  0
  -19.5780  -26.6333   21.5205 C   0  0  0  0  0  0
  -18.1953  -26.7890   22.1602 C   0  0  0  0  0  0
  -19.1580  -28.8863   23.2783 C   0  0  0  0  0  0
  -18.9498  -30.1476   23.8778 C   0  0  0  0  0  0
  -17.6480  -30.6555   24.0527 C   0  0  0  0  0  0
  -25.9127  -34.9299   23.5001 C   0  0  0  0  0  0
  -16.5373  -29.9013   23.6358 C   0  0  0  0  0  0
  -16.7294  -28.6447   23.0351 C   0  0  0  0  0  0
  -26.4578  -31.6483   25.0714 C   0  0  0  0  0  0
  -25.3711  -31.3712   26.1367 C   0  0  0  0  0  0
  -27.0485  -30.2835   24.6503 C   0  0  0  0  0  0
  -27.6035  -32.4340   25.7483 C   0  0  0  0  0  0
  -27.5583  -37.1710   24.8441 C   0  0  0  0  0  0
  -21.4375  -29.2949   22.3548 N   0  0  0  0  0  0
  -26.4293  -37.3651   23.9393 N   0  0  0  0  0  0
  -24.7515  -30.9817   22.0849 N   0  0  0  0  0  0
  -23.4220  -28.7946   23.3086 O   0  0  0  0  0  0
  -28.2352  -25.7424   20.3318 O   0  0  0  0  0  0
  -26.5755  -34.8815   22.4614 O   0  0  0  0  0  0
  -23.5693  -32.1186   23.6785 O   0  0  0  0  0  0
  -28.8705  -22.5841   20.5853 C   0  0  0  0  0  0
  -29.9329  -22.4510   21.4716 C   0  0  0  0  0  0
  -29.4808  -19.9385   20.5877 C   0  0  0  0  0  0
  -30.5681  -23.5591   22.2608 C   0  0  0  0  0  0
  -31.0252  -17.2137   22.9035 C   0  0  0  0  0  0
  -27.9352  -24.0880   20.2758 C   0  0  0  0  0  0
  -29.7802  -18.2486   20.0727 C   0  0  0  0  0  0
  -29.6742  -16.9045   22.2220 C   0  0  0  0  0  0
  -28.7006  -21.0982   20.1251 N   0  0  0  0  0  0
  -29.8178  -16.6963   20.7724 N   0  0  0  0  0  0
  -30.5951  -20.7693   21.6988 S   0  0  0  0  0  0
  -31.4635  -13.0764   19.2540 H   0  0  0  0  0  0
  -30.4980  -11.9932   20.1877 H   0  0  0  0  0  0
  -29.9638  -11.7887   17.7509 H   0  0  0  0  0  0
  -29.5710  -13.4932   17.6718 H   0  0  0  0  0  0
  -28.0816  -11.3021   19.1167 H   0  0  0  0  0  0
  -27.4506  -12.3480   17.8655 H   0  0  0  0  0  0
  -27.5144  -14.2532   19.3091 H   0  0  0  0  0  0
  -28.8141  -12.6104   21.5430 H   0  0  0  0  0  0
  -28.2255  -14.2441   21.6904 H   0  0  0  0  0  0
  -25.2805   -9.5726   22.4794 H   0  0  0  0  0  0
  -24.0089   -7.4649   22.7455 H   0  0  0  0  0  0
  -21.0906   -8.8767   19.8954 H   0  0  0  0  0  0
  -22.3751  -10.9683   19.6200 H   0  0  0  0  0  0
  -21.1970   -7.6149   23.9740 H   0  0  0  0  0  0
  -21.1514   -6.0504   25.9084 H   0  0  0  0  0  0
  -22.0591   -2.7633   23.2808 H   0  0  0  0  0  0
  -22.3898  -11.9923   22.4951 H   0  0  0  0  0  0
  -21.0941  -13.1286   22.2549 H   0  0  0  0  0  0
  -24.6445  -15.8686   20.5584 H   0  0  0  0  0  0
  -26.2666  -15.6526   20.1423 H   0  0  0  0  0  0
  -26.7340  -32.5064   23.0862 H   0  0  0  0  0  0
  -24.9987  -33.9480   25.0126 H   0  0  0  0  0  0
  -22.7865  -31.2513   21.3502 H   0  0  0  0  0  0
  -23.3805  -35.9489   23.3253 H   0  0  0  0  0  0
  -24.3612  -36.8893   22.2071 H   0  0  0  0  0  0
  -23.7293  -37.6324   23.6777 H   0  0  0  0  0  0
  -26.2548  -31.3531   20.6289 H   0  0  0  0  0  0
  -26.8999  -30.6636   22.0798 H   0  0  0  0  0  0
  -28.1652  -28.5889   21.2803 H   0  0  0  0  0  0
  -25.8750  -25.6863   19.0654 H   0  0  0  0  0  0
  -24.0153  -27.2498   18.9755 H   0  0  0  0  0  0
  -23.8613  -30.4955   19.3887 H   0  0  0  0  0  0
  -22.8310  -29.1730   19.8489 H   0  0  0  0  0  0
  -25.1373  -36.1673   25.0784 H   0  0  0  0  0  0
  -21.0010  -28.3281   24.1330 H   0  0  0  0  0  0
  -20.5675  -26.2292   23.3627 H   0  0  0  0  0  0
  -21.6657  -26.7337   22.1208 H   0  0  0  0  0  0
  -19.6955  -25.6242   21.1252 H   0  0  0  0  0  0
  -19.6753  -27.3124   20.6724 H   0  0  0  0  0  0
  -17.4234  -26.6632   21.3994 H   0  0  0  0  0  0
  -18.0357  -26.0042   22.9011 H   0  0  0  0  0  0
  -19.7989  -30.7344   24.2048 H   0  0  0  0  0  0
  -17.5025  -31.6228   24.5139 H   0  0  0  0  0  0
  -15.5360  -30.2853   23.7759 H   0  0  0  0  0  0
  -15.8716  -28.0733   22.7092 H   0  0  0  0  0  0
  -24.5871  -30.7118   25.7654 H   0  0  0  0  0  0
  -24.8943  -32.2906   26.4765 H   0  0  0  0  0  0
  -25.7931  -30.8857   27.0178 H   0  0  0  0  0  0
  -26.3190  -29.6464   24.1488 H   0  0  0  0  0  0
  -27.3946  -29.7231   25.5200 H   0  0  0  0  0  0
  -27.9168  -30.3974   23.9996 H   0  0  0  0  0  0
  -27.2564  -33.3656   26.1954 H   0  0  0  0  0  0
  -28.3848  -32.6889   25.0316 H   0  0  0  0  0  0
  -28.0716  -31.8577   26.5469 H   0  0  0  0  0  0
  -28.2499  -38.0091   24.7559 H   0  0  0  0  0  0
  -28.1194  -36.2626   24.6209 H   0  0  0  0  0  0
  -27.2317  -37.1224   25.8839 H   0  0  0  0  0  0
  -20.9638  -29.8578   21.6628 H   0  0  0  0  0  0
  -26.0132  -38.2693   24.1445 H   0  0  0  0  0  0
  -29.9436  -24.4573   22.3017 H   0  0  0  0  0  0
  -31.5357  -23.8426   21.8356 H   0  0  0  0  0  0
  -30.7502  -23.2390   23.2862 H   0  0  0  0  0  0
  -31.5274  -18.0568   22.4306 H   0  0  0  0  0  0
  -31.7191  -16.3749   22.8759 H   0  0  0  0  0  0
  -30.8849  -17.4773   23.9545 H   0  0  0  0  0  0
  -27.1054  -24.0324   20.9799 H   0  0  0  0  0  0
  -27.4442  -23.9378   19.3165 H   0  0  0  0  0  0
  -30.8171  -18.3012   19.7372 H   0  0  0  0  0  0
  -29.2267  -18.1255   19.1426 H   0  0  0  0  0  0
  -28.9884  -17.7352   22.4090 H   0  0  0  0  0  0
  -29.2346  -16.0257   22.7005 H   0  0  0  0  0  0
  1 25  1  0  0  0
  1 30  2  0  0  0
  1 80  1  0  0  0
  2  3  1  0  0  0
  2 25  1  0  0  0
  2 82  1  0  0  0
  2 83  1  0  0  0
  3  4  1  0  0  0
  3 84  1  0  0  0
  3 85  1  0  0  0
  4  5  1  0  0  0
  4 86  1  0  0  0
  4 87  1  0  0  0
  5  6  1  0  0  0
  5 26  1  0  0  0
  5 88  1  0  0  0
  6 25  1  0  0  0
  6 89  1  0  0  0
  6 90  1  0  0  0
  7  8  2  0  0  0
  7 26  1  0  0  0
  7 29  1  0  0  0
  8  9  1  0  0  0
  8 22  1  0  0  0
  9 10  1  0  0  0
  9 27  2  0  0  0
 10 11  2  0  0  0
 10 15  1  0  0  0
 11 12  1  0  0  0
 11 91  1  0  0  0
 12 13  2  0  0  0
 12 92  1  0  0  0
 13 14  1  0  0  0
 13 31  1  0  0  0
 14 15  2  0  0  0
 14 93  1  0  0  0
 15 94  1  0  0  0
 16 17  2  0  0  0
 16 21  1  0  0  0
 16 31  1  0  0  0
 17 18  1  0  0  0
 17 95  1  0  0  0
 18 19  2  0  0  0
 18 96  1  0  0  0
 19 20  1  0  0  0
 19 24  1  0  0  0
 20 21  2  0  0  0
 20 97  1  0  0  0
 21 23  1  0  0  0
 22 28  1  0  0  0
 22 32  2  0  0  0
 26 27  1  0  0  0
 28 98  1  0  0  0
 28 99  1  0  0  0
 29100  1  0  0  0
 29101  1  0  0  0
 33 34  1  0  0  0
 33 66  1  0  0  0
 33 70  2  0  0  0
 34 36  1  0  0  0
 34 59  1  0  0  0
 34102  1  0  0  0
 35 44  2  0  0  0
 35 45  1  0  0  0
 35 68  1  0  0  0
 36 56  1  0  0  0
 36103  1  0  0  0
 37 39  1  0  0  0
 37 47  1  0  0  0
 37 66  1  0  0  0
 37104  1  0  0  0
 38 43  2  0  0  0
 38 46  1  0  0  0
 38 47  1  0  0  0
 39 64  1  0  0  0
 39 67  2  0  0  0
 40 52  1  0  0  0
 40 53  2  0  0  0
 40 58  1  0  0  0
 41105  1  0  0  0
 41106  1  0  0  0
 41107  1  0  0  0
 41 48  1  0  0  0
 42 43  1  0  0  0
 42 66  1  0  0  0
 42108  1  0  0  0
 42109  1  0  0  0
 43 44  1  0  0  0
 44110  1  0  0  0
 45 46  2  0  0  0
 45111  1  0  0  0
 46112  1  0  0  0
 47113  1  0  0  0
 47114  1  0  0  0
 48 56  1  0  0  0
 48 65  1  0  0  0
 48115  1  0  0  0
 49 50  1  0  0  0
 49 53  1  0  0  0
 49 64  1  0  0  0
 49116  1  0  0  0
 50 51  1  0  0  0
 50117  1  0  0  0
 50118  1  0  0  0
 51 52  1  0  0  0
 51119  1  0  0  0
 51120  1  0  0  0
 52121  1  0  0  0
 52122  1  0  0  0
 53 54  1  0  0  0
 54 55  2  0  0  0
 54123  1  0  0  0
 55 57  1  0  0  0
 55124  1  0  0  0
 56 69  2  0  0  0
 57 58  2  0  0  0
 57125  1  0  0  0
 58126  1  0  0  0
 59 60  1  0  0  0
 59 61  1  0  0  0
 59 62  1  0  0  0
 60127  1  0  0  0
 60128  1  0  0  0
 60129  1  0  0  0
 61130  1  0  0  0
 61131  1  0  0  0
 61132  1  0  0  0
 62133  1  0  0  0
 62134  1  0  0  0
 62135  1  0  0  0
 63 65  1  0  0  0
 63136  1  0  0  0
 63137  1  0  0  0
 63138  1  0  0  0
 64139  1  0  0  0
 65140  1  0  0  0
 68 76  1  0  0  0
 71 72  2  0  0  0
 71 76  1  0  0  0
 71 79  1  0  0  0
 72 74  1  0  0  0
 72 81  1  0  0  0
 73 77  1  0  0  0
 73 79  2  0  0  0
 73 81  1  0  0  0
 74141  1  0  0  0
 74142  1  0  0  0
 74143  1  0  0  0
 75 78  1  0  0  0
 75144  1  0  0  0
 75145  1  0  0  0
 75146  1  0  0  0
 76147  1  0  0  0
 76148  1  0  0  0
 77 80  1  0  0  0
 77149  1  0  0  0
 77150  1  0  0  0
 78 80  1  0  0  0
 78151  1  0  0  0
 78152  1  0  0  0
M  ISO  4   1 100  68 101  76 101  80 100
M  END
> <chiral flag>
0

> <version>
0

> <s_m_source_file>
/data/baiqing/PycharmProjects/Reinvent-master-3.2/result/LINK_invent/BTK/process_docking_weight1_custom_sum_contain_oxygen_bond_distance_aromatic_linkinvent_7_9_3/rearranged_h_0054.sdf

> <i_m_source_file_index>
35

> <r_mmod_Potential_Energy-OPLS-2005>
1693.59228515625

> <r_mmod_Stretch_Energy-OPLS-2005>
721.824096679688

> <r_mmod_Bend_Energy-OPLS-2005>
513.871032714844

> <r_mmod_Torsional_Energy-OPLS-2005>
284.898193359375

> <r_mmod_Improper_Torsional_Energy-OPLS-2005>
6.68464183807373

> <r_mmod_Van_der_Waal_Energy-OPLS-2005>
103.349533081055

> <r_mmod_Electrostatic_Energy-OPLS-2005>
-281.406555175781

> <r_mmod_Solvation_Energy-OPLS-2005>
-206.222640991211

> <b_mmod_Minimization_Converged-OPLS-2005>
0

> <r_mmod_RMS_Derivative-OPLS-2005>
7.23274326324463

$$$$
35
                    3D
 Structure written by MMmdl.
175183  0  0  1  0            999 V2000
  -30.8426  -14.2854   20.7548 C   0  0  0  0  0  0
  -30.4046  -12.2718   19.3993 C   0  0  0  0  0  0
  -29.4846  -12.5321   18.1946 C   0  0  0  0  0  0
  -28.0110  -12.3612   18.6026 C   0  0  0  0  0  0
  -27.6567  -13.1931   19.8588 C   0  0  2  0  0  0
  -28.6883  -12.9741   20.9873 C   0  0  0  0  0  0
  -25.2568  -13.8134   20.5621 C   0  0  0  0  0  0
  -24.1825  -13.0425   20.9165 C   0  0  0  0  0  0
  -24.6356  -11.6883   20.8715 C   0  0  0  0  0  0
  -23.9018  -10.4277   21.0403 C   0  0  0  0  0  0
  -24.3588   -9.4198   21.9177 C   0  0  0  0  0  0
  -23.6275   -8.2231   22.0753 C   0  0  0  0  0  0
  -22.4255   -8.0260   21.3544 C   0  0  0  0  0  0
  -21.9881   -9.0227   20.4648 C   0  0  0  0  0  0
  -22.7198  -10.2110   20.3051 C   0  0  0  0  0  0
  -21.6845   -6.0711   22.5278 C   0  0  0  0  0  0
  -21.3998   -6.5623   23.8204 C   0  0  0  0  0  0
  -21.3663   -5.6783   24.9175 C   0  0  0  0  0  0
  -21.6059   -4.3050   24.7237 C   0  0  0  0  0  0
  -21.8819   -3.8129   23.4357 C   0  0  0  0  0  0
  -21.9186   -4.6936   22.3407 C   0  0  0  0  0  0
  -22.7855  -13.5237   21.1856 C   0  0  0  0  0  0
  -22.1652   -4.2124   21.0984 F   0  0  0  0  0  0
  -21.5651   -3.4537   25.7752 F   0  0  0  0  0  0
  -30.0576  -13.2076   20.4798 N   0  0  0  0  0  0
  -26.2972  -12.9268   20.3238 N   0  0  0  0  0  0
  -25.9264  -11.6442   20.5691 N   0  0  0  0  0  0
  -22.0488  -12.8227   22.0407 N   0  0  0  0  0  0
  -25.4259  -15.1861   20.4045 N   0  0  0  0  0  0
  -31.7549  -14.6491   20.0044 O   0  0  0  0  0  0
  -21.6630   -6.8850   21.4236 O   0  0  0  0  0  0
  -22.3543  -14.5551   20.6717 O   0  0  0  0  0  0
  -24.6081  -31.8692   23.2129 C   0  0  0  0  0  0
  -25.9012  -32.4817   23.8389 C   0  0  1  0  0  0
  -27.2436  -27.4711   20.0881 C   0  0  0  0  0  0
  -25.5916  -33.8619   24.2323 N   0  0  0  0  0  0
  -23.3979  -30.4927   21.5500 C   0  0  2  0  0  0
  -24.8458  -28.9637   20.1175 C   0  0  0  0  0  0
  -22.7405  -29.4641   22.4962 C   0  0  0  0  0  0
  -18.0256  -28.1358   22.8474 C   0  0  0  0  0  0
  -24.1527  -36.7334   23.2640 C   0  0  0  0  0  0
  -25.9225  -30.8415   21.3666 C   0  0  0  0  0  0
  -26.0001  -29.4801   20.7137 C   0  0  0  0  0  0
  -27.1991  -28.7383   20.7013 C   0  0  0  0  0  0
  -26.0690  -26.9616   19.4856 C   0  0  0  0  0  0
  -24.8723  -27.7011   19.5021 C   0  0  0  0  0  0
  -23.6070  -29.8263   20.1640 C   0  0  0  0  0  0
  -25.4142  -36.3120   24.0332 C   0  0  1  0  0  0
  -20.5852  -28.3655   23.1317 C   0  0  2  0  0  0
  -20.6772  -26.9399   22.5418 C   0  0  0  0  0  0
  -19.5740  -26.6380   21.5229 C   0  0  0  0  0  0
  -18.1912  -26.7895   22.1622 C   0  0  0  0  0  0
  -19.1515  -28.8821   23.2874 C   0  0  0  0  0  0
  -18.9447  -30.1433   23.8891 C   0  0  0  0  0  0
  -17.6456  -30.6577   24.0565 C   0  0  0  0  0  0
  -25.9051  -34.9484   23.5120 C   0  0  0  0  0  0
  -16.5339  -29.9075   23.6329 C   0  0  0  0  0  0
  -16.7243  -28.6503   23.0324 C   0  0  0  0  0  0
  -26.4490  -31.6551   25.0672 C   0  0  0  0  0  0
  -25.3783  -31.3581   26.1423 C   0  0  0  0  0  0
  -27.0300  -30.3004   24.5973 C   0  0  0  0  0  0
  -27.6081  -32.4244   25.7431 C   0  0  0  0  0  0
  -27.5601  -37.1821   24.8457 C   0  0  0  0  0  0
  -21.4134  -29.3016   22.3719 N   0  0  0  0  0  0
  -26.4318  -37.3802   23.9398 N   0  0  0  0  0  0
  -24.6601  -31.0836   22.1004 N   0  0  0  0  0  0
  -23.4195  -28.8176   23.2985 O   0  0  0  0  0  0
  -28.4447  -26.7968   20.0883 O   0  0  0  0  0  0
  -26.5617  -34.8928   22.4672 O   0  0  0  0  0  0
  -23.5292  -32.1434   23.7548 O   0  0  0  0  0  0
  -28.9933  -16.8521   20.0496 C   0  0  0  0  0  0
  -29.7774  -17.3130   21.1352 C   0  0  0  0  0  0
  -28.0061  -18.9220   19.8484 C   0  0  0  0  0  0
  -28.8356  -19.4102   20.8965 C   0  0  0  0  0  0
  -27.3098  -20.0664   17.6783 C   0  0  0  0  0  0
  -32.0302  -14.2207   23.7192 C   0  0  0  0  0  0
  -27.0959  -22.9480   24.0010 C   0  0  0  0  0  0
  -26.9522  -19.7611   19.1392 C   0  0  0  0  0  0
  -28.8583  -20.8645   21.3307 C   0  0  0  0  0  0
  -30.7691  -16.4458   21.9070 C   0  0  0  0  0  0
  -28.0431  -24.9076   21.5966 C   0  0  0  0  0  0
  -30.5872  -14.3563   23.2032 C   0  0  0  0  0  0
  -27.7721  -21.2232   22.3674 C   0  0  0  0  0  0
  -27.3213  -23.5466   21.6201 C   0  0  0  0  0  0
  -28.4112  -25.3766   20.1695 C   0  0  0  0  0  0
  -28.0934  -17.6407   19.4255 N   0  0  0  0  0  0
  -29.6974  -18.5983   21.5521 N   0  0  0  0  0  0
  -30.5396  -14.9899   21.8715 N   0  0  0  0  0  0
  -27.7940  -22.6671   22.7247 N   0  3  1  0  0  0
  -31.4525  -12.3461   19.1014 H   0  0  0  0  0  0
  -30.2763  -11.2479   19.7556 H   0  0  0  0  0  0
  -29.7313  -11.8509   17.3790 H   0  0  0  0  0  0
  -29.6513  -13.5407   17.8126 H   0  0  0  0  0  0
  -27.8353  -11.3023   18.7951 H   0  0  0  0  0  0
  -27.3566  -12.6315   17.7730 H   0  0  0  0  0  0
  -27.6891  -14.2356   19.5557 H   0  0  0  0  0  0
  -28.6223  -11.9558   21.3744 H   0  0  0  0  0  0
  -28.4120  -13.6290   21.8126 H   0  0  0  0  0  0
  -25.2739   -9.5689   22.4739 H   0  0  0  0  0  0
  -23.9989   -7.4630   22.7478 H   0  0  0  0  0  0
  -21.0808   -8.8738   19.8962 H   0  0  0  0  0  0
  -22.3651  -10.9639   19.6157 H   0  0  0  0  0  0
  -21.1963   -7.6127   23.9701 H   0  0  0  0  0  0
  -21.1501   -6.0514   25.9080 H   0  0  0  0  0  0
  -22.0598   -2.7588   23.2871 H   0  0  0  0  0  0
  -22.4097  -11.9887   22.4802 H   0  0  0  0  0  0
  -21.1099  -13.1249   22.2600 H   0  0  0  0  0  0
  -24.6534  -15.8330   20.5162 H   0  0  0  0  0  0
  -26.2687  -15.6373   20.0705 H   0  0  0  0  0  0
  -26.7047  -32.5588   23.1139 H   0  0  0  0  0  0
  -25.0119  -33.9753   25.0510 H   0  0  0  0  0  0
  -22.6849  -31.3086   21.4147 H   0  0  0  0  0  0
  -23.3769  -35.9691   23.3311 H   0  0  0  0  0  0
  -24.3620  -36.8936   22.2047 H   0  0  0  0  0  0
  -23.7296  -37.6556   23.6643 H   0  0  0  0  0  0
  -26.0372  -31.6081   20.5995 H   0  0  0  0  0  0
  -26.8079  -30.8908   21.9870 H   0  0  0  0  0  0
  -28.0918  -29.1331   21.1664 H   0  0  0  0  0  0
  -26.0510  -26.0144   18.9695 H   0  0  0  0  0  0
  -23.9884  -27.3032   19.0229 H   0  0  0  0  0  0
  -23.7197  -30.6011   19.4043 H   0  0  0  0  0  0
  -22.7348  -29.2415   19.8692 H   0  0  0  0  0  0
  -25.1320  -36.1999   25.0822 H   0  0  0  0  0  0
  -20.9915  -28.3247   24.1445 H   0  0  0  0  0  0
  -20.5763  -26.2276   23.3610 H   0  0  0  0  0  0
  -21.6630  -26.7501   22.1176 H   0  0  0  0  0  0
  -19.6949  -25.6323   21.1196 H   0  0  0  0  0  0
  -19.6672  -27.3255   20.6812 H   0  0  0  0  0  0
  -17.4211  -26.6647   21.3979 H   0  0  0  0  0  0
  -18.0265  -26.0037   22.9004 H   0  0  0  0  0  0
  -19.7944  -30.7204   24.2267 H   0  0  0  0  0  0
  -17.5039  -31.6257   24.5157 H   0  0  0  0  0  0
  -15.5342  -30.2972   23.7699 H   0  0  0  0  0  0
  -15.8633  -28.0844   22.7004 H   0  0  0  0  0  0
  -24.6039  -30.6826   25.7765 H   0  0  0  0  0  0
  -24.8886  -32.2688   26.4871 H   0  0  0  0  0  0
  -25.8203  -30.8788   27.0173 H   0  0  0  0  0  0
  -26.2775  -29.6706   24.1201 H   0  0  0  0  0  0
  -27.4278  -29.7265   25.4361 H   0  0  0  0  0  0
  -27.8547  -30.4332   23.8955 H   0  0  0  0  0  0
  -27.2731  -33.3548   26.2001 H   0  0  0  0  0  0
  -28.3894  -32.6727   25.0241 H   0  0  0  0  0  0
  -28.0725  -31.8342   26.5332 H   0  0  0  0  0  0
  -28.2604  -38.0132   24.7518 H   0  0  0  0  0  0
  -28.1101  -36.2654   24.6278 H   0  0  0  0  0  0
  -27.2296  -37.1459   25.8851 H   0  0  0  0  0  0
  -20.9319  -29.8777   21.6948 H   0  0  0  0  0  0
  -26.0212  -38.2889   24.1386 H   0  0  0  0  0  0
  -29.0674  -15.8528   19.6631 H   0  0  0  0  0  0
  -26.5141  -20.6383   17.1989 H   0  0  0  0  0  0
  -27.4471  -19.1488   17.1051 H   0  0  0  0  0  0
  -28.2305  -20.6453   17.6071 H   0  0  0  0  0  0
  -32.0463  -13.7596   24.7071 H   0  0  0  0  0  0
  -32.5184  -15.1924   23.8092 H   0  0  0  0  0  0
  -32.6360  -13.6003   23.0566 H   0  0  0  0  0  0
  -27.5657  -22.4209   24.8306 H   0  0  0  0  0  0
  -26.0495  -22.6431   23.9634 H   0  0  0  0  0  0
  -27.1257  -24.0127   24.2353 H   0  0  0  0  0  0
  -26.7698  -20.6929   19.6705 H   0  0  0  0  0  0
  -26.0075  -19.2169   19.1770 H   0  0  0  0  0  0
  -28.8069  -21.4699   20.4276 H   0  0  0  0  0  0
  -29.8364  -21.0855   21.7587 H   0  0  0  0  0  0
  -30.7539  -16.7910   22.9416 H   0  0  0  0  0  0
  -31.7761  -16.6736   21.5521 H   0  0  0  0  0  0
  -28.9576  -24.8748   22.1901 H   0  0  0  0  0  0
  -27.4031  -25.6381   22.0928 H   0  0  0  0  0  0
  -29.9838  -14.9280   23.9106 H   0  0  0  0  0  0
  -30.1467  -13.3597   23.1916 H   0  0  0  0  0  0
  -27.9405  -20.6227   23.2624 H   0  0  0  0  0  0
  -26.7787  -20.9561   22.0077 H   0  0  0  0  0  0
  -27.4606  -23.0637   20.6566 H   0  0  0  0  0  0
  -26.2418  -23.6921   21.6861 H   0  0  0  0  0  0
  -27.7722  -24.9418   19.4043 H   0  0  0  0  0  0
  -29.4088  -25.0113   19.9224 H   0  0  0  0  0  0
  -28.7644  -22.8920   22.8941 H   0  0  0  0  0  0
  1 25  1  0  0  0
  1 30  2  0  0  0
  1 88  1  0  0  0
  2  3  1  0  0  0
  2 25  1  0  0  0
  2 90  1  0  0  0
  2 91  1  0  0  0
  3  4  1  0  0  0
  3 92  1  0  0  0
  3 93  1  0  0  0
  4  5  1  0  0  0
  4 94  1  0  0  0
  4 95  1  0  0  0
  5  6  1  0  0  0
  5 26  1  0  0  0
  5 96  1  0  0  0
  6 25  1  0  0  0
  6 97  1  0  0  0
  6 98  1  0  0  0
  7  8  2  0  0  0
  7 26  1  0  0  0
  7 29  1  0  0  0
  8  9  1  0  0  0
  8 22  1  0  0  0
  9 10  1  0  0  0
  9 27  2  0  0  0
 10 11  2  0  0  0
 10 15  1  0  0  0
 11 12  1  0  0  0
 11 99  1  0  0  0
 12 13  2  0  0  0
 12100  1  0  0  0
 13 14  1  0  0  0
 13 31  1  0  0  0
 14 15  2  0  0  0
 14101  1  0  0  0
 15102  1  0  0  0
 16 17  2  0  0  0
 16 21  1  0  0  0
 16 31  1  0  0  0
 17 18  1  0  0  0
 17103  1  0  0  0
 18 19  2  0  0  0
 18104  1  0  0  0
 19 20  1  0  0  0
 19 24  1  0  0  0
 20 21  2  0  0  0
 20105  1  0  0  0
 21 23  1  0  0  0
 22 28  1  0  0  0
 22 32  2  0  0  0
 26 27  1  0  0  0
 28106  1  0  0  0
 28107  1  0  0  0
 29108  1  0  0  0
 29109  1  0  0  0
 33 34  1  0  0  0
 33 66  1  0  0  0
 33 70  2  0  0  0
 34 36  1  0  0  0
 34 59  1  0  0  0
 34110  1  0  0  0
 35 44  2  0  0  0
 35 45  1  0  0  0
 35 68  1  0  0  0
 36 56  1  0  0  0
 36111  1  0  0  0
 37 39  1  0  0  0
 37 47  1  0  0  0
 37 66  1  0  0  0
 37112  1  0  0  0
 38 43  2  0  0  0
 38 46  1  0  0  0
 38 47  1  0  0  0
 39 64  1  0  0  0
 39 67  2  0  0  0
 40 52  1  0  0  0
 40 53  2  0  0  0
 40 58  1  0  0  0
 41113  1  0  0  0
 41114  1  0  0  0
 41115  1  0  0  0
 41 48  1  0  0  0
 42 43  1  0  0  0
 42 66  1  0  0  0
 42116  1  0  0  0
 42117  1  0  0  0
 43 44  1  0  0  0
 44118  1  0  0  0
 45 46  2  0  0  0
 45119  1  0  0  0
 46120  1  0  0  0
 47121  1  0  0  0
 47122  1  0  0  0
 48 56  1  0  0  0
 48 65  1  0  0  0
 48123  1  0  0  0
 49 50  1  0  0  0
 49 53  1  0  0  0
 49 64  1  0  0  0
 49124  1  0  0  0
 50 51  1  0  0  0
 50125  1  0  0  0
 50126  1  0  0  0
 51 52  1  0  0  0
 51127  1  0  0  0
 51128  1  0  0  0
 52129  1  0  0  0
 52130  1  0  0  0
 53 54  1  0  0  0
 54 55  2  0  0  0
 54131  1  0  0  0
 55 57  1  0  0  0
 55132  1  0  0  0
 56 69  2  0  0  0
 57 58  2  0  0  0
 57133  1  0  0  0
 58134  1  0  0  0
 59 60  1  0  0  0
 59 61  1  0  0  0
 59 62  1  0  0  0
 60135  1  0  0  0
 60136  1  0  0  0
 60137  1  0  0  0
 61138  1  0  0  0
 61139  1  0  0  0
 61140  1  0  0  0
 62141  1  0  0  0
 62142  1  0  0  0
 62143  1  0  0  0
 63 65  1  0  0  0
 63144  1  0  0  0
 63145  1  0  0  0
 63146  1  0  0  0
 64147  1  0  0  0
 65148  1  0  0  0
 68 85  1  0  0  0
 71 72  2  0  0  0
 71 86  1  0  0  0
 71149  1  0  0  0
 72 80  1  0  0  0
 72 87  1  0  0  0
 73 74  1  0  0  0
 73 78  1  0  0  0
 73 86  2  0  0  0
 74 79  1  0  0  0
 74 87  2  0  0  0
 75 78  1  0  0  0
 75150  1  0  0  0
 75151  1  0  0  0
 75152  1  0  0  0
 76 82  1  0  0  0
 76153  1  0  0  0
 76154  1  0  0  0
 76155  1  0  0  0
 77156  1  0  0  0
 77157  1  0  0  0
 77158  1  0  0  0
 77 89  1  0  0  0
 78159  1  0  0  0
 78160  1  0  0  0
 79 83  1  0  0  0
 79161  1  0  0  0
 79162  1  0  0  0
 80 88  1  0  0  0
 80163  1  0  0  0
 80164  1  0  0  0
 81 84  1  0  0  0
 81 85  1  0  0  0
 81165  1  0  0  0
 81166  1  0  0  0
 82 88  1  0  0  0
 82167  1  0  0  0
 82168  1  0  0  0
 83 89  1  0  0  0
 83169  1  0  0  0
 83170  1  0  0  0
 84 89  1  0  0  0
 84171  1  0  0  0
 84172  1  0  0  0
 85173  1  0  0  0
 85174  1  0  0  0
 89175  1  0  0  0
M  CHG  1  89   1
M  ISO  4   1 100  68 101  85 101  88 100
M  END
> <chiral flag>
0

> <version>
0

> <s_m_source_file>
/data/baiqing/PycharmProjects/Reinvent-master-3.2/result/LINK_invent/BTK/process_docking_weight1_custom_sum_contain_oxygen_bond_distance_aromatic_linkinvent_7_9_3/rearranged_h_0054.sdf

> <i_m_source_file_index>
36

> <r_mmod_Potential_Energy-OPLS-2005>
-6.40157270431519

> <r_mmod_Stretch_Energy-OPLS-2005>
37.5528564453125

> <r_mmod_Bend_Energy-OPLS-2005>
103.682289123535

> <r_mmod_Torsional_Energy-OPLS-2005>
273.625732421875

> <r_mmod_Improper_Torsional_Energy-OPLS-2005>
3.84648442268372

> <r_mmod_Van_der_Waal_Energy-OPLS-2005>
169.069000244141

> <r_mmod_Electrostatic_Energy-OPLS-2005>
-171.366333007812

> <r_mmod_Solvation_Energy-OPLS-2005>
-432.652862548828

> <b_mmod_Minimization_Converged-OPLS-2005>
0

> <r_mmod_RMS_Derivative-OPLS-2005>
3.14025735855103

$$$$
36
                    3D
 Structure written by MMmdl.
153161  0  0  1  0            999 V2000
  -30.5994  -14.7779   20.3652 C   0  0  0  0  0  0
  -30.4462  -12.4439   19.4750 C   0  0  0  0  0  0
  -29.5181  -12.3746   18.2414 C   0  0  0  0  0  0
  -28.0309  -12.2829   18.6532 C   0  0  0  0  0  0
  -27.6318  -13.2068   19.8379 C   0  0  2  0  0  0
  -28.6903  -13.2055   20.9588 C   0  0  0  0  0  0
  -25.2531  -13.8127   20.5746 C   0  0  0  0  0  0
  -24.1787  -13.0416   20.9230 C   0  0  0  0  0  0
  -24.6347  -11.6882   20.8794 C   0  0  0  0  0  0
  -23.9023  -10.4276   21.0439 C   0  0  0  0  0  0
  -24.3592   -9.4193   21.9206 C   0  0  0  0  0  0
  -23.6279   -8.2224   22.0761 C   0  0  0  0  0  0
  -22.4260   -8.0268   21.3544 C   0  0  0  0  0  0
  -21.9888   -9.0245   20.4652 C   0  0  0  0  0  0
  -22.7207  -10.2129   20.3074 C   0  0  0  0  0  0
  -21.6849   -6.0725   22.5273 C   0  0  0  0  0  0
  -21.4008   -6.5634   23.8202 C   0  0  0  0  0  0
  -21.3661   -5.6792   24.9167 C   0  0  0  0  0  0
  -21.6042   -4.3052   24.7221 C   0  0  0  0  0  0
  -21.8826   -3.8140   23.4345 C   0  0  0  0  0  0
  -21.9191   -4.6953   22.3397 C   0  0  0  0  0  0
  -22.7816  -13.5232   21.1867 C   0  0  0  0  0  0
  -22.1667   -4.2142   21.0973 F   0  0  0  0  0  0
  -21.5630   -3.4536   25.7733 F   0  0  0  0  0  0
  -29.9769  -13.5470   20.3403 N   0  0  0  0  0  0
  -26.2913  -12.9260   20.3330 N   0  0  0  0  0  0
  -25.9269  -11.6441   20.5832 N   0  0  0  0  0  0
  -22.0446  -12.8240   22.0423 N   0  0  0  0  0  0
  -25.4289  -15.1851   20.4184 N   0  0  0  0  0  0
  -31.8281  -14.8458   20.2709 O   0  0  0  0  0  0
  -21.6634   -6.8862   21.4235 O   0  0  0  0  0  0
  -22.3527  -14.5547   20.6702 O   0  0  0  0  0  0
  -24.6295  -31.8569   23.2009 C   0  0  0  0  0  0
  -25.9130  -32.4762   23.8343 C   0  0  1  0  0  0
  -27.2221  -27.2806   20.1343 C   0  0  0  0  0  0
  -25.5933  -33.8560   24.2270 N   0  0  0  0  0  0
  -23.4251  -30.4815   21.5426 C   0  0  2  0  0  0
  -24.8721  -28.9315   20.1123 C   0  0  0  0  0  0
  -22.7489  -29.4615   22.4907 C   0  0  0  0  0  0
  -18.0289  -28.1388   22.8481 C   0  0  0  0  0  0
  -24.1488  -36.7288   23.2641 C   0  0  0  0  0  0
  -25.9697  -30.7790   21.3757 C   0  0  0  0  0  0
  -26.0438  -29.4033   20.7176 C   0  0  0  0  0  0
  -27.2225  -28.5928   20.7125 C   0  0  0  0  0  0
  -26.0234  -26.8699   19.5062 C   0  0  0  0  0  0
  -24.8664  -27.6719   19.4958 C   0  0  0  0  0  0
  -23.6429  -29.8173   20.1581 C   0  0  0  0  0  0
  -25.4114  -36.3073   24.0329 C   0  0  1  0  0  0
  -20.5890  -28.3698   23.1264 C   0  0  2  0  0  0
  -20.6776  -26.9416   22.5403 C   0  0  0  0  0  0
  -19.5755  -26.6383   21.5206 C   0  0  0  0  0  0
  -18.1934  -26.7929   22.1623 C   0  0  0  0  0  0
  -19.1541  -28.8859   23.2870 C   0  0  0  0  0  0
  -18.9467  -30.1457   23.8894 C   0  0  0  0  0  0
  -17.6467  -30.6588   24.0563 C   0  0  0  0  0  0
  -25.9052  -34.9440   23.5102 C   0  0  0  0  0  0
  -16.5358  -29.9086   23.6328 C   0  0  0  0  0  0
  -16.7276  -28.6504   23.0349 C   0  0  0  0  0  0
  -26.4499  -31.6578   25.0723 C   0  0  0  0  0  0
  -25.3730  -31.3723   26.1450 C   0  0  0  0  0  0
  -27.0353  -30.2997   24.6207 C   0  0  0  0  0  0
  -27.6053  -32.4313   25.7505 C   0  0  0  0  0  0
  -27.5577  -37.1801   24.8465 C   0  0  0  0  0  0
  -21.4196  -29.3052   22.3656 N   0  0  0  0  0  0
  -26.4291  -37.3771   23.9409 N   0  0  0  0  0  0
  -24.6938  -31.0559   22.0969 N   0  0  0  0  0  0
  -23.4197  -28.8151   23.2996 O   0  0  0  0  0  0
  -28.3319  -26.4081   20.1864 O   0  0  0  0  0  0
  -26.5621  -34.8911   22.4669 O   0  0  0  0  0  0
  -23.5448  -32.1376   23.7316 O   0  0  0  0  0  0
  -29.6360  -21.3086   19.8927 C   0  0  0  0  0  0
  -28.5081  -21.8262   21.6454 C   0  0  0  0  0  0
  -29.2754  -20.1013   20.5149 C   0  0  0  0  0  0
  -29.2400  -16.0269   18.8044 C   0  0  0  0  0  0
  -29.3293  -18.6155   19.9878 C   0  0  0  0  0  0
  -29.3367  -23.9190   20.3791 C   0  0  0  0  0  0
  -30.0202  -17.3409   20.7377 C   0  0  0  0  0  0
  -28.0944  -24.9278   20.2432 C   0  0  0  0  0  0
  -28.5395  -20.4811   21.6430 N   0  0  0  0  0  0
  -29.1263  -22.4274   20.6124 N   0  0  0  0  0  0
  -29.8178  -15.9242   20.1559 N   0  0  0  0  0  0
  -31.4812  -12.5878   19.1580 H   0  0  0  0  0  0
  -30.4283  -11.5013   20.0254 H   0  0  0  0  0  0
  -29.7755  -11.4943   17.6499 H   0  0  0  0  0  0
  -29.6959  -13.2099   17.5705 H   0  0  0  0  0  0
  -27.8538  -11.2452   18.9364 H   0  0  0  0  0  0
  -27.3871  -12.4723   17.7935 H   0  0  0  0  0  0
  -27.5761  -14.2071   19.4280 H   0  0  0  0  0  0
  -28.7425  -12.2336   21.4517 H   0  0  0  0  0  0
  -28.4339  -13.9360   21.7282 H   0  0  0  0  0  0
  -25.2732   -9.5675   22.4787 H   0  0  0  0  0  0
  -23.9987   -7.4611   22.7481 H   0  0  0  0  0  0
  -21.0818   -8.8761   19.8955 H   0  0  0  0  0  0
  -22.3667  -10.9674   19.6190 H   0  0  0  0  0  0
  -21.2005   -7.6141   23.9702 H   0  0  0  0  0  0
  -21.1477   -6.0520   25.9067 H   0  0  0  0  0  0
  -22.0606   -2.7603   23.2842 H   0  0  0  0  0  0
  -22.4039  -11.9902   22.4824 H   0  0  0  0  0  0
  -21.1065  -13.1283   22.2615 H   0  0  0  0  0  0
  -24.6730  -15.8482   20.5470 H   0  0  0  0  0  0
  -26.2997  -15.6233   20.1469 H   0  0  0  0  0  0
  -26.7201  -32.5420   23.1090 H   0  0  0  0  0  0
  -25.0074  -33.9697   25.0411 H   0  0  0  0  0  0
  -22.7208  -31.3038   21.3979 H   0  0  0  0  0  0
  -23.3745  -35.9624   23.3301 H   0  0  0  0  0  0
  -24.3583  -36.8911   22.2057 H   0  0  0  0  0  0
  -23.7242  -37.6490   23.6663 H   0  0  0  0  0  0
  -26.1050  -31.5416   20.6073 H   0  0  0  0  0  0
  -26.8485  -30.8275   22.0074 H   0  0  0  0  0  0
  -28.1207  -28.9525   21.1940 H   0  0  0  0  0  0
  -25.9454  -25.9092   19.0218 H   0  0  0  0  0  0
  -23.9682  -27.3032   19.0181 H   0  0  0  0  0  0
  -23.7683  -30.5945   19.4035 H   0  0  0  0  0  0
  -22.7613  -29.2512   19.8523 H   0  0  0  0  0  0
  -25.1291  -36.1924   25.0821 H   0  0  0  0  0  0
  -20.9989  -28.3281   24.1383 H   0  0  0  0  0  0
  -20.5664  -26.2314   23.3612 H   0  0  0  0  0  0
  -21.6645  -26.7433   22.1207 H   0  0  0  0  0  0
  -19.6914  -25.6289   21.1248 H   0  0  0  0  0  0
  -19.6692  -27.3182   20.6728 H   0  0  0  0  0  0
  -17.4200  -26.6664   21.4031 H   0  0  0  0  0  0
  -18.0345  -26.0073   22.9026 H   0  0  0  0  0  0
  -19.7942  -30.7268   24.2268 H   0  0  0  0  0  0
  -17.5023  -31.6271   24.5163 H   0  0  0  0  0  0
  -15.5359  -30.2994   23.7650 H   0  0  0  0  0  0
  -15.8675  -28.0825   22.7066 H   0  0  0  0  0  0
  -24.5904  -30.7072   25.7780 H   0  0  0  0  0  0
  -24.8923  -32.2894   26.4870 H   0  0  0  0  0  0
  -25.8050  -30.8905   27.0233 H   0  0  0  0  0  0
  -26.2945  -29.6738   24.1221 H   0  0  0  0  0  0
  -27.4029  -29.7259   25.4726 H   0  0  0  0  0  0
  -27.8819  -30.4270   23.9457 H   0  0  0  0  0  0
  -27.2661  -33.3613   26.2082 H   0  0  0  0  0  0
  -28.3874  -32.6876   25.0345 H   0  0  0  0  0  0
  -28.0716  -31.8441   26.5431 H   0  0  0  0  0  0
  -28.2590  -38.0101   24.7506 H   0  0  0  0  0  0
  -28.1075  -36.2628   24.6294 H   0  0  0  0  0  0
  -27.2296  -37.1454   25.8870 H   0  0  0  0  0  0
  -20.9371  -29.8797   21.6884 H   0  0  0  0  0  0
  -26.0164  -38.2845   24.1411 H   0  0  0  0  0  0
  -30.1838  -21.4602   18.9719 H   0  0  0  0  0  0
  -28.0239  -22.3909   22.4305 H   0  0  0  0  0  0
  -28.2146  -16.3945   18.8339 H   0  0  0  0  0  0
  -29.2009  -15.0911   18.2642 H   0  0  0  0  0  0
  -29.8388  -16.6757   18.1656 H   0  0  0  0  0  0
  -29.7689  -18.6786   18.9933 H   0  0  0  0  0  0
  -28.2887  -18.3451   19.8132 H   0  0  0  0  0  0
  -29.9577  -24.2697   21.2038 H   0  0  0  0  0  0
  -29.9579  -24.0238   19.4901 H   0  0  0  0  0  0
  -29.6435  -17.3105   21.7603 H   0  0  0  0  0  0
  -31.0911  -17.5266   20.8246 H   0  0  0  0  0  0
  -27.4145  -24.7407   21.0760 H   0  0  0  0  0  0
  -27.5662  -24.6173   19.3435 H   0  0  0  0  0  0
  1 25  1  0  0  0
  1 30  2  0  0  0
  1 81  1  0  0  0
  2  3  1  0  0  0
  2 25  1  0  0  0
  2 82  1  0  0  0
  2 83  1  0  0  0
  3  4  1  0  0  0
  3 84  1  0  0  0
  3 85  1  0  0  0
  4  5  1  0  0  0
  4 86  1  0  0  0
  4 87  1  0  0  0
  5  6  1  0  0  0
  5 26  1  0  0  0
  5 88  1  0  0  0
  6 25  1  0  0  0
  6 89  1  0  0  0
  6 90  1  0  0  0
  7  8  2  0  0  0
  7 26  1  0  0  0
  7 29  1  0  0  0
  8  9  1  0  0  0
  8 22  1  0  0  0
  9 10  1  0  0  0
  9 27  2  0  0  0
 10 11  2  0  0  0
 10 15  1  0  0  0
 11 12  1  0  0  0
 11 91  1  0  0  0
 12 13  2  0  0  0
 12 92  1  0  0  0
 13 14  1  0  0  0
 13 31  1  0  0  0
 14 15  2  0  0  0
 14 93  1  0  0  0
 15 94  1  0  0  0
 16 17  2  0  0  0
 16 21  1  0  0  0
 16 31  1  0  0  0
 17 18  1  0  0  0
 17 95  1  0  0  0
 18 19  2  0  0  0
 18 96  1  0  0  0
 19 20  1  0  0  0
 19 24  1  0  0  0
 20 21  2  0  0  0
 20 97  1  0  0  0
 21 23  1  0  0  0
 22 28  1  0  0  0
 22 32  2  0  0  0
 26 27  1  0  0  0
 28 98  1  0  0  0
 28 99  1  0  0  0
 29100  1  0  0  0
 29101  1  0  0  0
 33 34  1  0  0  0
 33 66  1  0  0  0
 33 70  2  0  0  0
 34 36  1  0  0  0
 34 59  1  0  0  0
 34102  1  0  0  0
 35 44  2  0  0  0
 35 45  1  0  0  0
 35 68  1  0  0  0
 36 56  1  0  0  0
 36103  1  0  0  0
 37 39  1  0  0  0
 37 47  1  0  0  0
 37 66  1  0  0  0
 37104  1  0  0  0
 38 43  2  0  0  0
 38 46  1  0  0  0
 38 47  1  0  0  0
 39 64  1  0  0  0
 39 67  2  0  0  0
 40 52  1  0  0  0
 40 53  2  0  0  0
 40 58  1  0  0  0
 41105  1  0  0  0
 41106  1  0  0  0
 41107  1  0  0  0
 41 48  1  0  0  0
 42 43  1  0  0  0
 42 66  1  0  0  0
 42108  1  0  0  0
 42109  1  0  0  0
 43 44  1  0  0  0
 44110  1  0  0  0
 45 46  2  0  0  0
 45111  1  0  0  0
 46112  1  0  0  0
 47113  1  0  0  0
 47114  1  0  0  0
 48 56  1  0  0  0
 48 65  1  0  0  0
 48115  1  0  0  0
 49 50  1  0  0  0
 49 53  1  0  0  0
 49 64  1  0  0  0
 49116  1  0  0  0
 50 51  1  0  0  0
 50117  1  0  0  0
 50118  1  0  0  0
 51 52  1  0  0  0
 51119  1  0  0  0
 51120  1  0  0  0
 52121  1  0  0  0
 52122  1  0  0  0
 53 54  1  0  0  0
 54 55  2  0  0  0
 54123  1  0  0  0
 55 57  1  0  0  0
 55124  1  0  0  0
 56 69  2  0  0  0
 57 58  2  0  0  0
 57125  1  0  0  0
 58126  1  0  0  0
 59 60  1  0  0  0
 59 61  1  0  0  0
 59 62  1  0  0  0
 60127  1  0  0  0
 60128  1  0  0  0
 60129  1  0  0  0
 61130  1  0  0  0
 61131  1  0  0  0
 61132  1  0  0  0
 62133  1  0  0  0
 62134  1  0  0  0
 62135  1  0  0  0
 63 65  1  0  0  0
 63136  1  0  0  0
 63137  1  0  0  0
 63138  1  0  0  0
 64139  1  0  0  0
 65140  1  0  0  0
 68 78  1  0  0  0
 71 73  2  0  0  0
 71 80  1  0  0  0
 71141  1  0  0  0
 72 79  2  0  0  0
 72 80  1  0  0  0
 72142  1  0  0  0
 73 75  1  0  0  0
 73 79  1  0  0  0
 74 81  1  0  0  0
 74143  1  0  0  0
 74144  1  0  0  0
 74145  1  0  0  0
 75 77  1  0  0  0
 75146  1  0  0  0
 75147  1  0  0  0
 76 78  1  0  0  0
 76 80  1  0  0  0
 76148  1  0  0  0
 76149  1  0  0  0
 77 81  1  0  0  0
 77150  1  0  0  0
 77151  1  0  0  0
 78152  1  0  0  0
 78153  1  0  0  0
M  ISO  4   1 100  68 101  78 101  81 100
M  END
> <chiral flag>
0

> <version>
0

> <s_m_source_file>
/data/baiqing/PycharmProjects/Reinvent-master-3.2/result/LINK_invent/BTK/process_docking_weight1_custom_sum_contain_oxygen_bond_distance_aromatic_linkinvent_7_9_3/rearranged_h_0054.sdf

> <i_m_source_file_index>
37

> <r_mmod_Potential_Energy-OPLS-2005>
327.165954589844

> <r_mmod_Stretch_Energy-OPLS-2005>
118.466896057129

> <r_mmod_Bend_Energy-OPLS-2005>
174.496490478516

> <r_mmod_Torsional_Energy-OPLS-2005>
312.822509765625

> <r_mmod_Improper_Torsional_Energy-OPLS-2005>
12.8178634643555

> <r_mmod_Van_der_Waal_Energy-OPLS-2005>
131.723037719727

> <r_mmod_Electrostatic_Energy-OPLS-2005>
-300.881256103516

> <r_mmod_Solvation_Energy-OPLS-2005>
-222.28303527832

> <b_mmod_Minimization_Converged-OPLS-2005>
0

> <r_mmod_RMS_Derivative-OPLS-2005>
1.28125488758087

$$$$
37
                    3D
 Structure written by MMmdl.
149157  0  0  1  0            999 V2000
  -30.2231  -15.7310   20.2944 C   0  0  0  0  0  0
  -30.4364  -13.1362   19.5595 C   0  0  0  0  0  0
  -29.5694  -12.6791   18.3445 C   0  0  0  0  0  0
  -28.1457  -12.2965   18.7801 C   0  0  0  0  0  0
  -27.5971  -13.3051   19.8103 C   0  0  2  0  0  0
  -28.6035  -13.6757   20.9257 C   0  0  0  0  0  0
  -25.2355  -13.8259   20.5801 C   0  0  0  0  0  0
  -24.1730  -13.0419   20.9278 C   0  0  0  0  0  0
  -24.6420  -11.6929   20.8745 C   0  0  0  0  0  0
  -23.9108  -10.4289   21.0394 C   0  0  0  0  0  0
  -24.3649   -9.4204   21.9178 C   0  0  0  0  0  0
  -23.6312   -8.2244   22.0753 C   0  0  0  0  0  0
  -22.4290   -8.0287   21.3548 C   0  0  0  0  0  0
  -21.9937   -9.0258   20.4643 C   0  0  0  0  0  0
  -22.7275  -10.2132   20.3048 C   0  0  0  0  0  0
  -21.6858   -6.0737   22.5279 C   0  0  0  0  0  0
  -21.4015   -6.5638   23.8214 C   0  0  0  0  0  0
  -21.3663   -5.6790   24.9175 C   0  0  0  0  0  0
  -21.6046   -4.3055   24.7223 C   0  0  0  0  0  0
  -21.8820   -3.8148   23.4346 C   0  0  0  0  0  0
  -21.9196   -4.6965   22.3403 C   0  0  0  0  0  0
  -22.7747  -13.5161   21.1923 C   0  0  0  0  0  0
  -22.1665   -4.2154   21.0981 F   0  0  0  0  0  0
  -21.5636   -3.4537   25.7734 F   0  0  0  0  0  0
  -29.7837  -14.3195   20.2931 N   0  0  0  0  0  0
  -26.2793  -12.9571   20.3223 N   0  0  0  0  0  0
  -25.9366  -11.6650   20.5673 N   0  0  0  0  0  0
  -22.0408  -12.8136   22.0472 N   0  0  0  0  0  0
  -25.3972  -15.2004   20.4282 N   0  0  0  0  0  0
  -31.4626  -15.6921   20.1437 O   0  0  0  0  0  0
  -21.6649   -6.8889   21.4246 O   0  0  0  0  0  0
  -22.3422  -14.5466   20.6772 O   0  0  0  0  0  0
  -24.6903  -31.7920   23.1453 C   0  0  0  0  0  0
  -25.9452  -32.4425   23.8029 C   0  0  1  0  0  0
  -27.2376  -26.6371   20.2197 C   0  0  0  0  0  0
  -25.6011  -33.8253   24.1917 N   0  0  0  0  0  0
  -23.5207  -30.3897   21.5005 C   0  0  2  0  0  0
  -24.9813  -28.7175   20.1191 C   0  0  0  0  0  0
  -22.7803  -29.4271   22.4689 C   0  0  0  0  0  0
  -18.0345  -28.1423   22.8452 C   0  0  0  0  0  0
  -24.1497  -36.7131   23.2650 C   0  0  0  0  0  0
  -26.1041  -30.5033   21.4202 C   0  0  0  0  0  0
  -26.1713  -29.0606   20.7716 C   0  0  0  0  0  0
  -27.2802  -28.0506   20.7878 C   0  0  0  0  0  0
  -26.0133  -26.5221   19.5072 C   0  0  0  0  0  0
  -24.9457  -27.4749   19.4629 C   0  0  0  0  0  0
  -23.7790  -29.6792   20.1394 C   0  0  0  0  0  0
  -25.4147  -36.2868   24.0277 C   0  0  1  0  0  0
  -20.5984  -28.3791   23.1122 C   0  0  2  0  0  0
  -20.6809  -26.9443   22.5399 C   0  0  0  0  0  0
  -19.5785  -26.6366   21.5215 C   0  0  0  0  0  0
  -18.1969  -26.7948   22.1619 C   0  0  0  0  0  0
  -19.1614  -28.8934   23.2760 C   0  0  0  0  0  0
  -18.9516  -30.1513   23.8811 C   0  0  0  0  0  0
  -17.6506  -30.6605   24.0549 C   0  0  0  0  0  0
  -25.9135  -34.9260   23.4939 C   0  0  0  0  0  0
  -16.5395  -29.9086   23.6352 C   0  0  0  0  0  0
  -16.7324  -28.6507   23.0373 C   0  0  0  0  0  0
  -26.4611  -31.6481   25.0677 C   0  0  0  0  0  0
  -25.3672  -31.3818   26.1294 C   0  0  0  0  0  0
  -27.0541  -30.2804   24.6622 C   0  0  0  0  0  0
  -27.6055  -32.4354   25.7489 C   0  0  0  0  0  0
  -27.5565  -37.1713   24.8460 C   0  0  0  0  0  0
  -21.4441  -29.3025   22.3436 N   0  0  0  0  0  0
  -26.4264  -37.3641   23.9416 N   0  0  0  0  0  0
  -24.7958  -30.9296   22.0746 N   0  0  0  0  0  0
  -23.4211  -28.7879   23.3065 O   0  0  0  0  0  0
  -28.1858  -25.3813   20.3015 O   0  0  0  0  0  0
  -26.5778  -34.8854   22.4558 O   0  0  0  0  0  0
  -23.5905  -32.1026   23.6361 O   0  0  0  0  0  0
  -28.3439  -20.4209   20.0734 C   0  0  0  0  0  0
  -28.7234  -21.8798   20.2691 C   0  0  0  0  0  0
  -30.3459  -20.0943   20.6998 C   0  0  0  0  0  0
  -31.6825  -19.5762   21.1157 C   0  0  0  0  0  0
  -28.3538  -17.1927   19.0264 C   0  0  0  0  0  0
  -27.9302  -23.6189   20.1078 C   0  0  0  0  0  0
  -29.2543  -17.3863   20.2585 C   0  0  2  0  0  0
  -29.3261  -19.2602   20.3159 N   0  0  0  0  0  0
  -30.0215  -21.4753   20.6598 N   0  3  0  0  0  0
  -31.4246  -13.4168   19.1927 H   0  0  0  0  0  0
  -30.6130  -12.3023   20.2411 H   0  0  0  0  0  0
  -30.0430  -11.8410   17.8312 H   0  0  0  0  0  0
  -29.5183  -13.4935   17.6208 H   0  0  0  0  0  0
  -28.1864  -11.3036   19.2296 H   0  0  0  0  0  0
  -27.4836  -12.2210   17.9169 H   0  0  0  0  0  0
  -27.4395  -14.2057   19.2225 H   0  0  0  0  0  0
  -28.8724  -12.8079   21.5302 H   0  0  0  0  0  0
  -28.1479  -14.3918   21.6112 H   0  0  0  0  0  0
  -25.2794   -9.5681   22.4753 H   0  0  0  0  0  0
  -24.0020   -7.4636   22.7471 H   0  0  0  0  0  0
  -21.0873   -8.8780   19.8945 H   0  0  0  0  0  0
  -22.3734  -10.9673   19.6159 H   0  0  0  0  0  0
  -21.1996   -7.6144   23.9716 H   0  0  0  0  0  0
  -21.1489   -6.0519   25.9077 H   0  0  0  0  0  0
  -22.0594   -2.7607   23.2841 H   0  0  0  0  0  0
  -22.4049  -11.9809   22.4861 H   0  0  0  0  0  0
  -21.1020  -13.1148   22.2681 H   0  0  0  0  0  0
  -24.6267  -15.8488   20.5478 H   0  0  0  0  0  0
  -26.2433  -15.6471   20.1015 H   0  0  0  0  0  0
  -26.7543  -32.4880   23.0743 H   0  0  0  0  0  0
  -25.0079  -33.9280   25.0021 H   0  0  0  0  0  0
  -22.8501  -31.2288   21.3038 H   0  0  0  0  0  0
  -23.3780  -35.9440   23.3257 H   0  0  0  0  0  0
  -24.3564  -36.8854   22.2077 H   0  0  0  0  0  0
  -23.7242  -37.6286   23.6768 H   0  0  0  0  0  0
  -26.3135  -31.2235   20.6283 H   0  0  0  0  0  0
  -26.9521  -30.5742   22.0885 H   0  0  0  0  0  0
  -28.1728  -28.3228   21.3325 H   0  0  0  0  0  0
  -25.8347  -25.5854   18.9989 H   0  0  0  0  0  0
  -24.0507  -27.2020   18.9211 H   0  0  0  0  0  0
  -23.9584  -30.4362   19.3752 H   0  0  0  0  0  0
  -22.8829  -29.1472   19.8149 H   0  0  0  0  0  0
  -25.1357  -36.1618   25.0765 H   0  0  0  0  0  0
  -21.0060  -28.3428   24.1251 H   0  0  0  0  0  0
  -20.5677  -26.2418   23.3669 H   0  0  0  0  0  0
  -21.6669  -26.7383   22.1218 H   0  0  0  0  0  0
  -19.6947  -25.6256   21.1300 H   0  0  0  0  0  0
  -19.6730  -27.3132   20.6710 H   0  0  0  0  0  0
  -17.4238  -26.6682   21.4026 H   0  0  0  0  0  0
  -18.0361  -26.0110   22.9036 H   0  0  0  0  0  0
  -19.7993  -30.7347   24.2147 H   0  0  0  0  0  0
  -17.5060  -31.6282   24.5160 H   0  0  0  0  0  0
  -15.5393  -30.2965   23.7724 H   0  0  0  0  0  0
  -15.8723  -28.0796   22.7143 H   0  0  0  0  0  0
  -24.5848  -30.7187   25.7584 H   0  0  0  0  0  0
  -24.8883  -32.3053   26.4553 H   0  0  0  0  0  0
  -25.7841  -30.9068   27.0185 H   0  0  0  0  0  0
  -26.3267  -29.6404   24.1618 H   0  0  0  0  0  0
  -27.3939  -29.7268   25.5384 H   0  0  0  0  0  0
  -27.9266  -30.3896   24.0180 H   0  0  0  0  0  0
  -27.2594  -33.3734   26.1837 H   0  0  0  0  0  0
  -28.3973  -32.6786   25.0395 H   0  0  0  0  0  0
  -28.0606  -31.8642   26.5587 H   0  0  0  0  0  0
  -28.2518  -38.0067   24.7544 H   0  0  0  0  0  0
  -28.1126  -36.2590   24.6242 H   0  0  0  0  0  0
  -27.2286  -37.1295   25.8860 H   0  0  0  0  0  0
  -20.9763  -29.8668   21.6478 H   0  0  0  0  0  0
  -26.0081  -38.2680   24.1458 H   0  0  0  0  0  0
  -27.3551  -20.1254   19.7535 H   0  0  0  0  0  0
  -32.1856  -19.1759   20.2356 H   0  0  0  0  0  0
  -31.5397  -18.7884   21.8550 H   0  0  0  0  0  0
  -32.2677  -20.3877   21.5460 H   0  0  0  0  0  0
  -27.3633  -17.6167   19.1901 H   0  0  0  0  0  0
  -28.2200  -16.1518   18.7473 H   0  0  0  0  0  0
  -28.7883  -17.6923   18.1606 H   0  0  0  0  0  0
  -27.0105  -23.4977   20.6796 H   0  0  0  0  0  0
  -27.5770  -23.6002   19.0770 H   0  0  0  0  0  0
  -28.6253  -17.1927   21.1272 H   0  0  0  0  0  0
  -30.7087  -22.1748   20.9138 H   0  0  0  0  0  0
  1 25  1  0  0  0
  1 30  2  0  0  0
  1 77  1  0  0  0
  2  3  1  0  0  0
  2 25  1  0  0  0
  2 80  1  0  0  0
  2 81  1  0  0  0
  3  4  1  0  0  0
  3 82  1  0  0  0
  3 83  1  0  0  0
  4  5  1  0  0  0
  4 84  1  0  0  0
  4 85  1  0  0  0
  5  6  1  0  0  0
  5 26  1  0  0  0
  5 86  1  0  0  0
  6 25  1  0  0  0
  6 87  1  0  0  0
  6 88  1  0  0  0
  7  8  2  0  0  0
  7 26  1  0  0  0
  7 29  1  0  0  0
  8  9  1  0  0  0
  8 22  1  0  0  0
  9 10  1  0  0  0
  9 27  2  0  0  0
 10 11  2  0  0  0
 10 15  1  0  0  0
 11 12  1  0  0  0
 11 89  1  0  0  0
 12 13  2  0  0  0
 12 90  1  0  0  0
 13 14  1  0  0  0
 13 31  1  0  0  0
 14 15  2  0  0  0
 14 91  1  0  0  0
 15 92  1  0  0  0
 16 17  2  0  0  0
 16 21  1  0  0  0
 16 31  1  0  0  0
 17 18  1  0  0  0
 17 93  1  0  0  0
 18 19  2  0  0  0
 18 94  1  0  0  0
 19 20  1  0  0  0
 19 24  1  0  0  0
 20 21  2  0  0  0
 20 95  1  0  0  0
 21 23  1  0  0  0
 22 28  1  0  0  0
 22 32  2  0  0  0
 26 27  1  0  0  0
 28 96  1  0  0  0
 28 97  1  0  0  0
 29 98  1  0  0  0
 29 99  1  0  0  0
 33 34  1  0  0  0
 33 66  1  0  0  0
 33 70  2  0  0  0
 34 36  1  0  0  0
 34 59  1  0  0  0
 34100  1  0  0  0
 35 44  2  0  0  0
 35 45  1  0  0  0
 35 68  1  0  0  0
 36 56  1  0  0  0
 36101  1  0  0  0
 37 39  1  0  0  0
 37 47  1  0  0  0
 37 66  1  0  0  0
 37102  1  0  0  0
 38 43  2  0  0  0
 38 46  1  0  0  0
 38 47  1  0  0  0
 39 64  1  0  0  0
 39 67  2  0  0  0
 40 52  1  0  0  0
 40 53  2  0  0  0
 40 58  1  0  0  0
 41103  1  0  0  0
 41104  1  0  0  0
 41105  1  0  0  0
 41 48  1  0  0  0
 42 43  1  0  0  0
 42 66  1  0  0  0
 42106  1  0  0  0
 42107  1  0  0  0
 43 44  1  0  0  0
 44108  1  0  0  0
 45 46  2  0  0  0
 45109  1  0  0  0
 46110  1  0  0  0
 47111  1  0  0  0
 47112  1  0  0  0
 48 56  1  0  0  0
 48 65  1  0  0  0
 48113  1  0  0  0
 49 50  1  0  0  0
 49 53  1  0  0  0
 49 64  1  0  0  0
 49114  1  0  0  0
 50 51  1  0  0  0
 50115  1  0  0  0
 50116  1  0  0  0
 51 52  1  0  0  0
 51117  1  0  0  0
 51118  1  0  0  0
 52119  1  0  0  0
 52120  1  0  0  0
 53 54  1  0  0  0
 54 55  2  0  0  0
 54121  1  0  0  0
 55 57  1  0  0  0
 55122  1  0  0  0
 56 69  2  0  0  0
 57 58  2  0  0  0
 57123  1  0  0  0
 58124  1  0  0  0
 59 60  1  0  0  0
 59 61  1  0  0  0
 59 62  1  0  0  0
 60125  1  0  0  0
 60126  1  0  0  0
 60127  1  0  0  0
 61128  1  0  0  0
 61129  1  0  0  0
 61130  1  0  0  0
 62131  1  0  0  0
 62132  1  0  0  0
 62133  1  0  0  0
 63 65  1  0  0  0
 63134  1  0  0  0
 63135  1  0  0  0
 63136  1  0  0  0
 64137  1  0  0  0
 65138  1  0  0  0
 68 76  1  0  0  0
 71 72  2  0  0  0
 71 78  1  0  0  0
 71139  1  0  0  0
 72 76  1  0  0  0
 72 79  1  0  0  0
 73 74  1  0  0  0
 73 78  1  0  0  0
 73 79  2  0  0  0
 74140  1  0  0  0
 74141  1  0  0  0
 74142  1  0  0  0
 75143  1  0  0  0
 75144  1  0  0  0
 75145  1  0  0  0
 75 77  1  0  0  0
 76146  1  0  0  0
 76147  1  0  0  0
 77 78  1  0  0  0
 77148  1  0  0  0
 79149  1  0  0  0
M  CHG  1  79   1
M  ISO  4   1 100  68 101  76 101  77 100
M  END
> <chiral flag>
0

> <version>
0

> <s_m_source_file>
/data/baiqing/PycharmProjects/Reinvent-master-3.2/result/LINK_invent/BTK/process_docking_weight1_custom_sum_contain_oxygen_bond_distance_aromatic_linkinvent_7_9_3/rearranged_h_0054.sdf

> <i_m_source_file_index>
38

> <r_mmod_Potential_Energy-OPLS-2005>
2681.34448242188

> <r_mmod_Stretch_Energy-OPLS-2005>
1216.70385742188

> <r_mmod_Bend_Energy-OPLS-2005>
707.286193847656

> <r_mmod_Torsional_Energy-OPLS-2005>
217.786056518555

> <r_mmod_Improper_Torsional_Energy-OPLS-2005>
4.24379205703735

> <r_mmod_Van_der_Waal_Energy-OPLS-2005>
101.426200866699

> <r_mmod_Electrostatic_Energy-OPLS-2005>
-205.738464355469

> <r_mmod_Solvation_Energy-OPLS-2005>
-414.739501953125

> <b_mmod_Minimization_Converged-OPLS-2005>
0

> <r_mmod_RMS_Derivative-OPLS-2005>
1.02643394470215

$$$$
38
                    3D
 Structure written by MMmdl.
157165  0  0  1  0            999 V2000
  -30.6345  -14.6771   20.4039 C   0  0  0  0  0  0
  -30.4415  -12.3816   19.4680 C   0  0  0  0  0  0
  -29.5111  -12.3645   18.2330 C   0  0  0  0  0  0
  -28.0221  -12.2930   18.6414 C   0  0  0  0  0  0
  -27.6398  -13.2033   19.8428 C   0  0  2  0  0  0
  -28.6958  -13.1489   20.9673 C   0  0  0  0  0  0
  -25.2556  -13.8130   20.5709 C   0  0  0  0  0  0
  -24.1809  -13.0419   20.9214 C   0  0  0  0  0  0
  -24.6363  -11.6885   20.8781 C   0  0  0  0  0  0
  -23.9028  -10.4283   21.0438 C   0  0  0  0  0  0
  -24.3591   -9.4200   21.9206 C   0  0  0  0  0  0
  -23.6283   -8.2229   22.0759 C   0  0  0  0  0  0
  -22.4267   -8.0275   21.3544 C   0  0  0  0  0  0
  -21.9896   -9.0245   20.4644 C   0  0  0  0  0  0
  -22.7211  -10.2134   20.3072 C   0  0  0  0  0  0
  -21.6854   -6.0727   22.5278 C   0  0  0  0  0  0
  -21.4011   -6.5633   23.8210 C   0  0  0  0  0  0
  -21.3663   -5.6792   24.9178 C   0  0  0  0  0  0
  -21.6052   -4.3054   24.7233 C   0  0  0  0  0  0
  -21.8814   -3.8138   23.4354 C   0  0  0  0  0  0
  -21.9189   -4.6953   22.3406 C   0  0  0  0  0  0
  -22.7838  -13.5232   21.1863 C   0  0  0  0  0  0
  -22.1657   -4.2133   21.0986 F   0  0  0  0  0  0
  -21.5641   -3.4539   25.7749 F   0  0  0  0  0  0
  -29.9966  -13.4634   20.3643 N   0  0  0  0  0  0
  -26.2945  -12.9266   20.3315 N   0  0  0  0  0  0
  -25.9289  -11.6444   20.5830 N   0  0  0  0  0  0
  -22.0480  -12.8225   22.0424 N   0  0  0  0  0  0
  -25.4310  -15.1851   20.4116 N   0  0  0  0  0  0
  -31.8568  -14.7615   20.2610 O   0  0  0  0  0  0
  -21.6639   -6.8867   21.4237 O   0  0  0  0  0  0
  -22.3535  -14.5551   20.6719 O   0  0  0  0  0  0
  -24.6214  -31.8616   23.2044 C   0  0  0  0  0  0
  -25.9077  -32.4782   23.8360 C   0  0  1  0  0  0
  -27.2293  -27.3365   20.1232 C   0  0  0  0  0  0
  -25.5907  -33.8586   24.2280 N   0  0  0  0  0  0
  -23.4129  -30.4841   21.5462 C   0  0  2  0  0  0
  -24.8590  -28.9372   20.1166 C   0  0  0  0  0  0
  -22.7444  -29.4624   22.4957 C   0  0  0  0  0  0
  -18.0278  -28.1376   22.8484 C   0  0  0  0  0  0
  -24.1494  -36.7315   23.2635 C   0  0  0  0  0  0
  -25.9498  -30.7962   21.3740 C   0  0  0  0  0  0
  -26.0217  -29.4207   20.7268 C   0  0  0  0  0  0
  -27.2036  -28.6291   20.7279 C   0  0  0  0  0  0
  -26.0470  -26.9062   19.4780 C   0  0  0  0  0  0
  -24.8717  -27.6824   19.4870 C   0  0  0  0  0  0
  -23.6261  -29.8147   20.1623 C   0  0  0  0  0  0
  -25.4115  -36.3086   24.0322 C   0  0  1  0  0  0
  -20.5875  -28.3677   23.1295 C   0  0  2  0  0  0
  -20.6768  -26.9403   22.5417 C   0  0  0  0  0  0
  -19.5746  -26.6380   21.5212 C   0  0  0  0  0  0
  -18.1924  -26.7923   22.1624 C   0  0  0  0  0  0
  -19.1529  -28.8846   23.2889 C   0  0  0  0  0  0
  -18.9454  -30.1449   23.8899 C   0  0  0  0  0  0
  -17.6453  -30.6579   24.0564 C   0  0  0  0  0  0
  -25.9044  -34.9453   23.5100 C   0  0  0  0  0  0
  -16.5343  -29.9076   23.6327 C   0  0  0  0  0  0
  -16.7270  -28.6499   23.0343 C   0  0  0  0  0  0
  -26.4473  -31.6583   25.0723 C   0  0  0  0  0  0
  -25.3708  -31.3722   26.1450 C   0  0  0  0  0  0
  -27.0302  -30.3003   24.6158 C   0  0  0  0  0  0
  -27.6036  -32.4309   25.7498 C   0  0  0  0  0  0
  -27.5586  -37.1809   24.8450 C   0  0  0  0  0  0
  -21.4163  -29.3032   22.3694 N   0  0  0  0  0  0
  -26.4294  -37.3780   23.9399 N   0  0  0  0  0  0
  -24.6797  -31.0645   22.0984 N   0  0  0  0  0  0
  -23.4183  -28.8162   23.3020 O   0  0  0  0  0  0
  -28.4094  -26.5817   20.1205 O   0  0  0  0  0  0
  -26.5621  -34.8915   22.4673 O   0  0  0  0  0  0
  -23.5392  -32.1410   23.7392 O   0  0  0  0  0  0
  -27.9586  -23.0065   19.5803 C   0  0  0  0  0  0
  -29.6475  -24.5986   20.9295 C   0  0  0  0  0  0
  -29.1056  -22.4353   20.2044 C   0  0  0  0  0  0
  -28.5337  -25.1777   20.2519 C   0  0  0  0  0  0
  -29.3590  -16.0062   18.8554 C   0  0  0  0  0  0
  -30.7238  -20.0388   21.8425 C   0  0  0  0  0  0
  -29.5779  -20.9815   19.8384 C   0  0  0  0  0  0
  -29.9944  -17.1271   20.9717 C   0  0  0  0  0  0
  -29.7059  -18.4873   20.1574 C   0  0  0  0  0  0
  -29.9388  -23.2564   20.9068 N   0  0  0  0  0  0
  -27.6779  -24.3464   19.5950 N   0  0  0  0  0  0
  -29.8504  -15.8055   20.2295 N   0  0  0  0  0  0
  -29.6458  -19.8453   20.8457 N   0  3  1  0  0  0
  -31.4794  -12.5099   19.1538 H   0  0  0  0  0  0
  -30.4035  -11.4254   19.9923 H   0  0  0  0  0  0
  -29.7474  -11.4925   17.6223 H   0  0  0  0  0  0
  -29.7067  -13.2071   17.5758 H   0  0  0  0  0  0
  -27.8217  -11.2533   18.9015 H   0  0  0  0  0  0
  -27.3841  -12.5100   17.7832 H   0  0  0  0  0  0
  -27.6106  -14.2148   19.4555 H   0  0  0  0  0  0
  -28.7208  -12.1646   21.4365 H   0  0  0  0  0  0
  -28.4532  -13.8646   21.7552 H   0  0  0  0  0  0
  -25.2730   -9.5691   22.4783 H   0  0  0  0  0  0
  -23.9996   -7.4617   22.7473 H   0  0  0  0  0  0
  -21.0831   -8.8754   19.8945 H   0  0  0  0  0  0
  -22.3661  -10.9675   19.6189 H   0  0  0  0  0  0
  -21.1999   -7.6139   23.9704 H   0  0  0  0  0  0
  -21.1497   -6.0533   25.9081 H   0  0  0  0  0  0
  -22.0590   -2.7593   23.2867 H   0  0  0  0  0  0
  -22.4073  -11.9864   22.4789 H   0  0  0  0  0  0
  -21.1098  -13.1262   22.2632 H   0  0  0  0  0  0
  -24.6723  -15.8467   20.5275 H   0  0  0  0  0  0
  -26.2956  -15.6188   20.1152 H   0  0  0  0  0  0
  -26.7139  -32.5459   23.1110 H   0  0  0  0  0  0
  -25.0026  -33.9737   25.0401 H   0  0  0  0  0  0
  -22.7047  -31.3032   21.4037 H   0  0  0  0  0  0
  -23.3748  -35.9656   23.3279 H   0  0  0  0  0  0
  -24.3592  -36.8962   22.2055 H   0  0  0  0  0  0
  -23.7259  -37.6516   23.6676 H   0  0  0  0  0  0
  -26.0728  -31.5547   20.6000 H   0  0  0  0  0  0
  -26.8343  -30.8512   21.9973 H   0  0  0  0  0  0
  -28.0998  -29.0026   21.2029 H   0  0  0  0  0  0
  -26.0054  -25.9690   18.9472 H   0  0  0  0  0  0
  -23.9841  -27.3099   18.9940 H   0  0  0  0  0  0
  -23.7403  -30.5880   19.4018 H   0  0  0  0  0  0
  -22.7481  -29.2391   19.8650 H   0  0  0  0  0  0
  -25.1299  -36.1938   25.0817 H   0  0  0  0  0  0
  -20.9969  -28.3252   24.1417 H   0  0  0  0  0  0
  -20.5666  -26.2288   23.3616 H   0  0  0  0  0  0
  -21.6638  -26.7434   22.1211 H   0  0  0  0  0  0
  -19.6908  -25.6290   21.1241 H   0  0  0  0  0  0
  -19.6688  -27.3195   20.6744 H   0  0  0  0  0  0
  -17.4200  -26.6675   21.4020 H   0  0  0  0  0  0
  -18.0323  -26.0062   22.9017 H   0  0  0  0  0  0
  -19.7930  -30.7268   24.2269 H   0  0  0  0  0  0
  -17.5004  -31.6257   24.5163 H   0  0  0  0  0  0
  -15.5343  -30.2974   23.7649 H   0  0  0  0  0  0
  -15.8674  -28.0818   22.7048 H   0  0  0  0  0  0
  -24.5879  -30.7076   25.7778 H   0  0  0  0  0  0
  -24.8907  -32.2893   26.4874 H   0  0  0  0  0  0
  -25.8035  -30.8897   27.0222 H   0  0  0  0  0  0
  -26.2864  -29.6772   24.1175 H   0  0  0  0  0  0
  -27.3984  -29.7241   25.4657 H   0  0  0  0  0  0
  -27.8743  -30.4283   23.9378 H   0  0  0  0  0  0
  -27.2636  -33.3593   26.2097 H   0  0  0  0  0  0
  -28.3842  -32.6887   25.0330 H   0  0  0  0  0  0
  -28.0700  -31.8414   26.5402 H   0  0  0  0  0  0
  -28.2576  -38.0131   24.7518 H   0  0  0  0  0  0
  -28.1110  -36.2663   24.6243 H   0  0  0  0  0  0
  -27.2309  -37.1415   25.8853 H   0  0  0  0  0  0
  -20.9337  -29.8759   21.6913 H   0  0  0  0  0  0
  -26.0174  -38.2855   24.1402 H   0  0  0  0  0  0
  -27.3055  -22.3969   18.9718 H   0  0  0  0  0  0
  -30.3554  -25.2339   21.4428 H   0  0  0  0  0  0
  -28.3487  -16.4139   18.8507 H   0  0  0  0  0  0
  -29.3042  -15.0957   18.2738 H   0  0  0  0  0  0
  -30.0171  -16.6591   18.2822 H   0  0  0  0  0  0
  -30.6534  -21.0163   22.3196 H   0  0  0  0  0  0
  -31.7093  -19.9564   21.3828 H   0  0  0  0  0  0
  -30.6563  -19.2953   22.6365 H   0  0  0  0  0  0
  -30.5601  -21.0759   19.3734 H   0  0  0  0  0  0
  -28.9224  -20.6574   19.0291 H   0  0  0  0  0  0
  -29.3167  -17.0790   21.8237 H   0  0  0  0  0  0
  -30.9993  -17.1730   21.3953 H   0  0  0  0  0  0
  -28.7442  -18.4038   19.6522 H   0  0  0  0  0  0
  -30.4617  -18.5696   19.3752 H   0  0  0  0  0  0
  -28.7763  -19.8723   21.3565 H   0  0  0  0  0  0
  1 25  1  0  0  0
  1 30  2  0  0  0
  1 82  1  0  0  0
  2  3  1  0  0  0
  2 25  1  0  0  0
  2 84  1  0  0  0
  2 85  1  0  0  0
  3  4  1  0  0  0
  3 86  1  0  0  0
  3 87  1  0  0  0
  4  5  1  0  0  0
  4 88  1  0  0  0
  4 89  1  0  0  0
  5  6  1  0  0  0
  5 26  1  0  0  0
  5 90  1  0  0  0
  6 25  1  0  0  0
  6 91  1  0  0  0
  6 92  1  0  0  0
  7  8  2  0  0  0
  7 26  1  0  0  0
  7 29  1  0  0  0
  8  9  1  0  0  0
  8 22  1  0  0  0
  9 10  1  0  0  0
  9 27  2  0  0  0
 10 11  2  0  0  0
 10 15  1  0  0  0
 11 12  1  0  0  0
 11 93  1  0  0  0
 12 13  2  0  0  0
 12 94  1  0  0  0
 13 14  1  0  0  0
 13 31  1  0  0  0
 14 15  2  0  0  0
 14 95  1  0  0  0
 15 96  1  0  0  0
 16 17  2  0  0  0
 16 21  1  0  0  0
 16 31  1  0  0  0
 17 18  1  0  0  0
 17 97  1  0  0  0
 18 19  2  0  0  0
 18 98  1  0  0  0
 19 20  1  0  0  0
 19 24  1  0  0  0
 20 21  2  0  0  0
 20 99  1  0  0  0
 21 23  1  0  0  0
 22 28  1  0  0  0
 22 32  2  0  0  0
 26 27  1  0  0  0
 28100  1  0  0  0
 28101  1  0  0  0
 29102  1  0  0  0
 29103  1  0  0  0
 33 34  1  0  0  0
 33 66  1  0  0  0
 33 70  2  0  0  0
 34 36  1  0  0  0
 34 59  1  0  0  0
 34104  1  0  0  0
 35 44  2  0  0  0
 35 45  1  0  0  0
 35 68  1  0  0  0
 36 56  1  0  0  0
 36105  1  0  0  0
 37 39  1  0  0  0
 37 47  1  0  0  0
 37 66  1  0  0  0
 37106  1  0  0  0
 38 43  2  0  0  0
 38 46  1  0  0  0
 38 47  1  0  0  0
 39 64  1  0  0  0
 39 67  2  0  0  0
 40 52  1  0  0  0
 40 53  2  0  0  0
 40 58  1  0  0  0
 41107  1  0  0  0
 41108  1  0  0  0
 41109  1  0  0  0
 41 48  1  0  0  0
 42 43  1  0  0  0
 42 66  1  0  0  0
 42110  1  0  0  0
 42111  1  0  0  0
 43 44  1  0  0  0
 44112  1  0  0  0
 45 46  2  0  0  0
 45113  1  0  0  0
 46114  1  0  0  0
 47115  1  0  0  0
 47116  1  0  0  0
 48 56  1  0  0  0
 48 65  1  0  0  0
 48117  1  0  0  0
 49 50  1  0  0  0
 49 53  1  0  0  0
 49 64  1  0  0  0
 49118  1  0  0  0
 50 51  1  0  0  0
 50119  1  0  0  0
 50120  1  0  0  0
 51 52  1  0  0  0
 51121  1  0  0  0
 51122  1  0  0  0
 52123  1  0  0  0
 52124  1  0  0  0
 53 54  1  0  0  0
 54 55  2  0  0  0
 54125  1  0  0  0
 55 57  1  0  0  0
 55126  1  0  0  0
 56 69  2  0  0  0
 57 58  2  0  0  0
 57127  1  0  0  0
 58128  1  0  0  0
 59 60  1  0  0  0
 59 61  1  0  0  0
 59 62  1  0  0  0
 60129  1  0  0  0
 60130  1  0  0  0
 60131  1  0  0  0
 61132  1  0  0  0
 61133  1  0  0  0
 61134  1  0  0  0
 62135  1  0  0  0
 62136  1  0  0  0
 62137  1  0  0  0
 63 65  1  0  0  0
 63138  1  0  0  0
 63139  1  0  0  0
 63140  1  0  0  0
 64141  1  0  0  0
 65142  1  0  0  0
 68 74  1  0  0  0
 71 73  2  0  0  0
 71 81  1  0  0  0
 71143  1  0  0  0
 72 74  1  0  0  0
 72 80  2  0  0  0
 72144  1  0  0  0
 73 77  1  0  0  0
 73 80  1  0  0  0
 74 81  2  0  0  0
 75 82  1  0  0  0
 75145  1  0  0  0
 75146  1  0  0  0
 75147  1  0  0  0
 76148  1  0  0  0
 76149  1  0  0  0
 76150  1  0  0  0
 76 83  1  0  0  0
 77 83  1  0  0  0
 77151  1  0  0  0
 77152  1  0  0  0
 78 79  1  0  0  0
 78 82  1  0  0  0
 78153  1  0  0  0
 78154  1  0  0  0
 79 83  1  0  0  0
 79155  1  0  0  0
 79156  1  0  0  0
 83157  1  0  0  0
M  CHG  1  83   1
M  ISO  4   1 100  68 101  74 101  82 100
M  END
> <chiral flag>
0

> <version>
0

> <s_m_source_file>
/data/baiqing/PycharmProjects/Reinvent-master-3.2/result/LINK_invent/BTK/process_docking_weight1_custom_sum_contain_oxygen_bond_distance_aromatic_linkinvent_7_9_3/rearranged_h_0054.sdf

> <i_m_source_file_index>
39

> <r_mmod_Potential_Energy-OPLS-2005>
197.955932617188

> <r_mmod_Stretch_Energy-OPLS-2005>
84.3806076049805

> <r_mmod_Bend_Energy-OPLS-2005>
158.977874755859

> <r_mmod_Torsional_Energy-OPLS-2005>
317.909606933594

> <r_mmod_Improper_Torsional_Energy-OPLS-2005>
14.5252933502197

> <r_mmod_Van_der_Waal_Energy-OPLS-2005>
163.693649291992

> <r_mmod_Electrostatic_Energy-OPLS-2005>
-138.416549682617

> <r_mmod_Solvation_Energy-OPLS-2005>
-462.663665771484

> <b_mmod_Minimization_Converged-OPLS-2005>
0

> <r_mmod_RMS_Derivative-OPLS-2005>
1.33132791519165

$$$$
39
                    3D
 Structure written by MMmdl.
168176  0  0  1  0            999 V2000
  -30.7993  -14.3547   20.6929 C   0  0  0  0  0  0
  -30.4063  -12.2840   19.4081 C   0  0  0  0  0  0
  -29.4832  -12.5281   18.1995 C   0  0  0  0  0  0
  -28.0073  -12.3837   18.6120 C   0  0  0  0  0  0
  -27.6640  -13.2084   19.8795 C   0  0  2  0  0  0
  -28.7001  -12.9696   21.0011 C   0  0  0  0  0  0
  -25.2584  -13.8174   20.5693 C   0  0  0  0  0  0
  -24.1840  -13.0446   20.9188 C   0  0  0  0  0  0
  -24.6391  -11.6911   20.8740 C   0  0  0  0  0  0
  -23.9062  -10.4298   21.0406 C   0  0  0  0  0  0
  -24.3617   -9.4215   21.9181 C   0  0  0  0  0  0
  -23.6304   -8.2247   22.0752 C   0  0  0  0  0  0
  -22.4281   -8.0281   21.3548 C   0  0  0  0  0  0
  -21.9918   -9.0247   20.4640 C   0  0  0  0  0  0
  -22.7238  -10.2134   20.3051 C   0  0  0  0  0  0
  -21.6852   -6.0738   22.5284 C   0  0  0  0  0  0
  -21.4010   -6.5641   23.8216 C   0  0  0  0  0  0
  -21.3667   -5.6800   24.9181 C   0  0  0  0  0  0
  -21.6044   -4.3061   24.7233 C   0  0  0  0  0  0
  -21.8823   -3.8151   23.4353 C   0  0  0  0  0  0
  -21.9195   -4.6967   22.3406 C   0  0  0  0  0  0
  -22.7859  -13.5226   21.1876 C   0  0  0  0  0  0
  -22.1660   -4.2150   21.0985 F   0  0  0  0  0  0
  -21.5639   -3.4545   25.7748 F   0  0  0  0  0  0
  -30.0509  -13.2382   20.4712 N   0  0  0  0  0  0
  -26.3027  -12.9349   20.3379 N   0  0  0  0  0  0
  -25.9318  -11.6505   20.5762 N   0  0  0  0  0  0
  -22.0513  -12.8198   22.0417 N   0  0  0  0  0  0
  -25.4315  -15.1893   20.4104 N   0  0  0  0  0  0
  -31.7775  -14.6495   19.9971 O   0  0  0  0  0  0
  -21.6646   -6.8877   21.4242 O   0  0  0  0  0  0
  -22.3537  -14.5542   20.6741 O   0  0  0  0  0  0
  -24.6110  -31.8704   23.2112 C   0  0  0  0  0  0
  -25.9017  -32.4832   23.8403 C   0  0  1  0  0  0
  -27.2343  -27.4690   20.0909 C   0  0  0  0  0  0
  -25.5889  -33.8633   24.2341 N   0  0  0  0  0  0
  -23.3970  -30.4942   21.5511 C   0  0  2  0  0  0
  -24.8431  -28.9638   20.1124 C   0  0  0  0  0  0
  -22.7389  -29.4663   22.4998 C   0  0  0  0  0  0
  -18.0267  -28.1364   22.8491 C   0  0  0  0  0  0
  -24.1477  -36.7327   23.2635 C   0  0  0  0  0  0
  -25.9206  -30.8502   21.3543 C   0  0  0  0  0  0
  -26.0013  -29.4868   20.7017 C   0  0  0  0  0  0
  -27.2032  -28.7480   20.6841 C   0  0  0  0  0  0
  -26.0625  -26.9499   19.4981 C   0  0  0  0  0  0
  -24.8670  -27.6938   19.5072 C   0  0  0  0  0  0
  -23.6024  -29.8266   20.1648 C   0  0  0  0  0  0
  -25.4095  -36.3132   24.0344 C   0  0  1  0  0  0
  -20.5856  -28.3656   23.1319 C   0  0  2  0  0  0
  -20.6761  -26.9397   22.5415 C   0  0  0  0  0  0
  -19.5742  -26.6381   21.5204 C   0  0  0  0  0  0
  -18.1920  -26.7909   22.1621 C   0  0  0  0  0  0
  -19.1516  -28.8824   23.2903 C   0  0  0  0  0  0
  -18.9453  -30.1430   23.8913 C   0  0  0  0  0  0
  -17.6462  -30.6584   24.0548 C   0  0  0  0  0  0
  -25.9030  -34.9492   23.5142 C   0  0  0  0  0  0
  -16.5353  -29.9093   23.6304 C   0  0  0  0  0  0
  -16.7259  -28.6495   23.0345 C   0  0  0  0  0  0
  -26.4453  -31.6585   25.0711 C   0  0  0  0  0  0
  -25.3740  -31.3663   26.1472 C   0  0  0  0  0  0
  -27.0249  -30.3032   24.6019 C   0  0  0  0  0  0
  -27.6026  -32.4290   25.7506 C   0  0  0  0  0  0
  -27.5574  -37.1824   24.8469 C   0  0  0  0  0  0
  -21.4120  -29.3032   22.3737 N   0  0  0  0  0  0
  -26.4286  -37.3813   23.9416 N   0  0  0  0  0  0
  -24.6614  -31.0841   22.0989 N   0  0  0  0  0  0
  -23.4177  -28.8200   23.3027 O   0  0  0  0  0  0
  -28.4013  -26.7452   20.1007 O   0  0  0  0  0  0
  -26.5600  -34.8944   22.4703 O   0  0  0  0  0  0
  -23.5310  -32.1429   23.7536 O   0  0  0  0  0  0
  -31.0381  -22.2067   21.8283 C   0  0  0  0  0  0
  -30.6954  -23.2149   20.8847 C   0  0  0  0  0  0
  -30.7930  -21.0242   21.1859 C   0  0  0  0  0  0
  -29.9289  -20.4943   18.8241 C   0  0  0  0  0  0
  -30.5117  -14.7466   23.0681 C   0  0  0  0  0  0
  -28.8220  -19.7429   22.9852 C   0  0  0  0  0  0
  -30.7252  -24.7087   21.0812 C   0  0  0  0  0  0
  -30.9248  -19.6084   21.6853 C   0  0  0  0  0  0
  -29.4143  -25.2314   21.6911 C   0  0  0  0  0  0
  -30.5637  -16.6405   21.4634 C   0  0  0  0  0  0
  -29.6636  -17.5252   22.3618 C   0  0  0  0  0  0
  -28.2835  -25.4416   20.6721 C   0  0  0  0  0  0
  -30.2641  -22.6948   19.7457 N   0  0  0  0  0  0
  -30.3382  -21.3565   19.9186 N   0  0  0  0  0  0
  -30.3836  -15.1906   21.6738 N   0  0  0  0  0  0
  -29.6119  -18.9719   21.9915 N   0  3  1  0  0  0
  -31.4529  -12.3602   19.1081 H   0  0  0  0  0  0
  -30.2814  -11.2657   19.7791 H   0  0  0  0  0  0
  -29.7150  -11.8252   17.3979 H   0  0  0  0  0  0
  -29.6600  -13.5258   17.7945 H   0  0  0  0  0  0
  -27.8144  -11.3255   18.7925 H   0  0  0  0  0  0
  -27.3545  -12.6752   17.7882 H   0  0  0  0  0  0
  -27.7171  -14.2615   19.6028 H   0  0  0  0  0  0
  -28.6521  -11.9381   21.3535 H   0  0  0  0  0  0
  -28.4404  -13.5836   21.8625 H   0  0  0  0  0  0
  -25.2764   -9.5699   22.4749 H   0  0  0  0  0  0
  -24.0024   -7.4640   22.7467 H   0  0  0  0  0  0
  -21.0856   -8.8752   19.8940 H   0  0  0  0  0  0
  -22.3689  -10.9667   19.6157 H   0  0  0  0  0  0
  -21.1991   -7.6150   23.9717 H   0  0  0  0  0  0
  -21.1486   -6.0531   25.9084 H   0  0  0  0  0  0
  -22.0593   -2.7612   23.2859 H   0  0  0  0  0  0
  -22.4143  -11.9850   22.4789 H   0  0  0  0  0  0
  -21.1123  -13.1196   22.2645 H   0  0  0  0  0  0
  -24.6677  -15.8481   20.5160 H   0  0  0  0  0  0
  -26.2860  -15.6214   20.0831 H   0  0  0  0  0  0
  -26.7100  -32.5561   23.1186 H   0  0  0  0  0  0
  -25.0038  -33.9796   25.0484 H   0  0  0  0  0  0
  -22.6834  -31.3094   21.4141 H   0  0  0  0  0  0
  -23.3744  -35.9656   23.3305 H   0  0  0  0  0  0
  -24.3568  -36.8934   22.2045 H   0  0  0  0  0  0
  -23.7223  -37.6531   23.6641 H   0  0  0  0  0  0
  -26.0220  -31.6193   20.5865 H   0  0  0  0  0  0
  -26.8118  -30.9086   21.9671 H   0  0  0  0  0  0
  -28.0995  -29.1472   21.1380 H   0  0  0  0  0  0
  -26.0732  -25.9752   19.0302 H   0  0  0  0  0  0
  -23.9765  -27.2865   19.0490 H   0  0  0  0  0  0
  -23.7078  -30.6019   19.4048 H   0  0  0  0  0  0
  -22.7250  -29.2463   19.8711 H   0  0  0  0  0  0
  -25.1260  -36.2008   25.0834 H   0  0  0  0  0  0
  -20.9947  -28.3229   24.1439 H   0  0  0  0  0  0
  -20.5672  -26.2266   23.3602 H   0  0  0  0  0  0
  -21.6631  -26.7453   22.1210 H   0  0  0  0  0  0
  -19.6913  -25.6293   21.1233 H   0  0  0  0  0  0
  -19.6671  -27.3181   20.6723 H   0  0  0  0  0  0
  -17.4186  -26.6644   21.4026 H   0  0  0  0  0  0
  -18.0327  -26.0045   22.9010 H   0  0  0  0  0  0
  -19.7934  -30.7219   24.2312 H   0  0  0  0  0  0
  -17.5028  -31.6267   24.5145 H   0  0  0  0  0  0
  -15.5355  -30.3010   23.7609 H   0  0  0  0  0  0
  -15.8654  -28.0820   22.7067 H   0  0  0  0  0  0
  -24.5922  -30.6996   25.7821 H   0  0  0  0  0  0
  -24.8920  -32.2801   26.4954 H   0  0  0  0  0  0
  -25.8125  -30.8824   27.0207 H   0  0  0  0  0  0
  -26.2760  -29.6862   24.1040 H   0  0  0  0  0  0
  -27.3989  -29.7194   25.4437 H   0  0  0  0  0  0
  -27.8616  -30.4350   23.9158 H   0  0  0  0  0  0
  -27.2631  -33.3567   26.2127 H   0  0  0  0  0  0
  -28.3846  -32.6883   25.0360 H   0  0  0  0  0  0
  -28.0681  -31.8379   26.5400 H   0  0  0  0  0  0
  -28.2606  -38.0112   24.7528 H   0  0  0  0  0  0
  -28.1063  -36.2647   24.6291 H   0  0  0  0  0  0
  -27.2297  -37.1481   25.8877 H   0  0  0  0  0  0
  -20.9284  -29.8774   21.6981 H   0  0  0  0  0  0
  -26.0180  -38.2894   24.1426 H   0  0  0  0  0  0
  -31.3980  -22.3363   22.8396 H   0  0  0  0  0  0
  -30.5072  -19.5708   18.8248 H   0  0  0  0  0  0
  -30.0905  -20.9942   17.8690 H   0  0  0  0  0  0
  -28.8695  -20.2548   18.9189 H   0  0  0  0  0  0
  -29.6029  -14.9720   23.6265 H   0  0  0  0  0  0
  -31.3504  -15.2416   23.5596 H   0  0  0  0  0  0
  -30.6801  -13.6710   23.1552 H   0  0  0  0  0  0
  -28.5935  -20.7489   22.6332 H   0  0  0  0  0  0
  -29.3606  -19.8313   23.9294 H   0  0  0  0  0  0
  -27.8684  -19.2573   23.1902 H   0  0  0  0  0  0
  -30.9371  -25.2255   20.1438 H   0  0  0  0  0  0
  -31.5487  -24.9597   21.7502 H   0  0  0  0  0  0
  -31.5481  -19.5900   22.5805 H   0  0  0  0  0  0
  -31.4688  -19.0379   20.9334 H   0  0  0  0  0  0
  -29.6005  -26.1777   22.2004 H   0  0  0  0  0  0
  -29.0896  -24.5409   22.4700 H   0  0  0  0  0  0
  -31.6174  -16.8751   21.6299 H   0  0  0  0  0  0
  -30.3528  -16.8744   20.4168 H   0  0  0  0  0  0
  -30.0000  -17.4445   23.3971 H   0  0  0  0  0  0
  -28.6445  -17.1354   22.3400 H   0  0  0  0  0  0
  -27.3347  -25.3184   21.1984 H   0  0  0  0  0  0
  -28.3003  -24.6857   19.8866 H   0  0  0  0  0  0
  -29.0819  -19.0170   21.1350 H   0  0  0  0  0  0
  1 25  1  0  0  0
  1 30  2  0  0  0
  1 85  1  0  0  0
  2  3  1  0  0  0
  2 25  1  0  0  0
  2 87  1  0  0  0
  2 88  1  0  0  0
  3  4  1  0  0  0
  3 89  1  0  0  0
  3 90  1  0  0  0
  4  5  1  0  0  0
  4 91  1  0  0  0
  4 92  1  0  0  0
  5  6  1  0  0  0
  5 26  1  0  0  0
  5 93  1  0  0  0
  6 25  1  0  0  0
  6 94  1  0  0  0
  6 95  1  0  0  0
  7  8  2  0  0  0
  7 26  1  0  0  0
  7 29  1  0  0  0
  8  9  1  0  0  0
  8 22  1  0  0  0
  9 10  1  0  0  0
  9 27  2  0  0  0
 10 11  2  0  0  0
 10 15  1  0  0  0
 11 12  1  0  0  0
 11 96  1  0  0  0
 12 13  2  0  0  0
 12 97  1  0  0  0
 13 14  1  0  0  0
 13 31  1  0  0  0
 14 15  2  0  0  0
 14 98  1  0  0  0
 15 99  1  0  0  0
 16 17  2  0  0  0
 16 21  1  0  0  0
 16 31  1  0  0  0
 17 18  1  0  0  0
 17100  1  0  0  0
 18 19  2  0  0  0
 18101  1  0  0  0
 19 20  1  0  0  0
 19 24  1  0  0  0
 20 21  2  0  0  0
 20102  1  0  0  0
 21 23  1  0  0  0
 22 28  1  0  0  0
 22 32  2  0  0  0
 26 27  1  0  0  0
 28103  1  0  0  0
 28104  1  0  0  0
 29105  1  0  0  0
 29106  1  0  0  0
 33 34  1  0  0  0
 33 66  1  0  0  0
 33 70  2  0  0  0
 34 36  1  0  0  0
 34 59  1  0  0  0
 34107  1  0  0  0
 35 44  2  0  0  0
 35 45  1  0  0  0
 35 68  1  0  0  0
 36 56  1  0  0  0
 36108  1  0  0  0
 37 39  1  0  0  0
 37 47  1  0  0  0
 37 66  1  0  0  0
 37109  1  0  0  0
 38 43  2  0  0  0
 38 46  1  0  0  0
 38 47  1  0  0  0
 39 64  1  0  0  0
 39 67  2  0  0  0
 40 52  1  0  0  0
 40 53  2  0  0  0
 40 58  1  0  0  0
 41110  1  0  0  0
 41111  1  0  0  0
 41112  1  0  0  0
 41 48  1  0  0  0
 42 43  1  0  0  0
 42 66  1  0  0  0
 42113  1  0  0  0
 42114  1  0  0  0
 43 44  1  0  0  0
 44115  1  0  0  0
 45 46  2  0  0  0
 45116  1  0  0  0
 46117  1  0  0  0
 47118  1  0  0  0
 47119  1  0  0  0
 48 56  1  0  0  0
 48 65  1  0  0  0
 48120  1  0  0  0
 49 50  1  0  0  0
 49 53  1  0  0  0
 49 64  1  0  0  0
 49121  1  0  0  0
 50 51  1  0  0  0
 50122  1  0  0  0
 50123  1  0  0  0
 51 52  1  0  0  0
 51124  1  0  0  0
 51125  1  0  0  0
 52126  1  0  0  0
 52127  1  0  0  0
 53 54  1  0  0  0
 54 55  2  0  0  0
 54128  1  0  0  0
 55 57  1  0  0  0
 55129  1  0  0  0
 56 69  2  0  0  0
 57 58  2  0  0  0
 57130  1  0  0  0
 58131  1  0  0  0
 59 60  1  0  0  0
 59 61  1  0  0  0
 59 62  1  0  0  0
 60132  1  0  0  0
 60133  1  0  0  0
 60134  1  0  0  0
 61135  1  0  0  0
 61136  1  0  0  0
 61137  1  0  0  0
 62138  1  0  0  0
 62139  1  0  0  0
 62140  1  0  0  0
 63 65  1  0  0  0
 63141  1  0  0  0
 63142  1  0  0  0
 63143  1  0  0  0
 64144  1  0  0  0
 65145  1  0  0  0
 68 82  1  0  0  0
 71 72  1  0  0  0
 71 73  2  0  0  0
 71146  1  0  0  0
 72 77  1  0  0  0
 72 83  2  0  0  0
 73 78  1  0  0  0
 73 84  1  0  0  0
 74 84  1  0  0  0
 74147  1  0  0  0
 74148  1  0  0  0
 74149  1  0  0  0
 75 85  1  0  0  0
 75150  1  0  0  0
 75151  1  0  0  0
 75152  1  0  0  0
 76153  1  0  0  0
 76154  1  0  0  0
 76155  1  0  0  0
 76 86  1  0  0  0
 77 79  1  0  0  0
 77156  1  0  0  0
 77157  1  0  0  0
 78 86  1  0  0  0
 78158  1  0  0  0
 78159  1  0  0  0
 79 82  1  0  0  0
 79160  1  0  0  0
 79161  1  0  0  0
 80 81  1  0  0  0
 80 85  1  0  0  0
 80162  1  0  0  0
 80163  1  0  0  0
 81 86  1  0  0  0
 81164  1  0  0  0
 81165  1  0  0  0
 82166  1  0  0  0
 82167  1  0  0  0
 83 84  1  0  0  0
 86168  1  0  0  0
M  CHG  1  86   1
M  ISO  4   1 100  68 101  82 101  85 100
M  END
> <chiral flag>
0

> <version>
0

> <s_m_source_file>
/data/baiqing/PycharmProjects/Reinvent-master-3.2/result/LINK_invent/BTK/process_docking_weight1_custom_sum_contain_oxygen_bond_distance_aromatic_linkinvent_7_9_3/rearranged_h_0054.sdf

> <i_m_source_file_index>
40

> <r_mmod_Potential_Energy-OPLS-2005>
-159.909759521484

> <r_mmod_Stretch_Energy-OPLS-2005>
35.139347076416

> <r_mmod_Bend_Energy-OPLS-2005>
95.3037719726562

> <r_mmod_Torsional_Energy-OPLS-2005>
294.207183837891

> <r_mmod_Improper_Torsional_Energy-OPLS-2005>
4.81835317611694

> <r_mmod_Van_der_Waal_Energy-OPLS-2005>
135.457321166992

> <r_mmod_Electrostatic_Energy-OPLS-2005>
-269.107055664062

> <r_mmod_Solvation_Energy-OPLS-2005>
-463.378540039062

> <b_mmod_Minimization_Converged-OPLS-2005>
0

> <r_mmod_RMS_Derivative-OPLS-2005>
1.63120746612549

$$$$
40
                    3D
 Structure written by MMmdl.
159167  0  0  1  0            999 V2000
  -30.7054  -14.5060   20.6154 C   0  0  0  0  0  0
  -30.4128  -12.3354   19.4376 C   0  0  0  0  0  0
  -29.4945  -12.5264   18.2129 C   0  0  0  0  0  0
  -28.0173  -12.3686   18.6184 C   0  0  0  0  0  0
  -27.6577  -13.2088   19.8713 C   0  0  2  0  0  0
  -28.6933  -13.0034   20.9967 C   0  0  0  0  0  0
  -25.2588  -13.8146   20.5676 C   0  0  0  0  0  0
  -24.1828  -13.0429   20.9155 C   0  0  0  0  0  0
  -24.6374  -11.6897   20.8717 C   0  0  0  0  0  0
  -23.9033  -10.4286   21.0382 C   0  0  0  0  0  0
  -24.3605   -9.4209   21.9171 C   0  0  0  0  0  0
  -23.6290   -8.2231   22.0751 C   0  0  0  0  0  0
  -22.4280   -8.0251   21.3536 C   0  0  0  0  0  0
  -21.9895   -9.0216   20.4646 C   0  0  0  0  0  0
  -22.7200  -10.2107   20.3041 C   0  0  0  0  0  0
  -21.6854   -6.0707   22.5279 C   0  0  0  0  0  0
  -21.4021   -6.5625   23.8209 C   0  0  0  0  0  0
  -21.3666   -5.6781   24.9175 C   0  0  0  0  0  0
  -21.6047   -4.3042   24.7227 C   0  0  0  0  0  0
  -21.8825   -3.8134   23.4353 C   0  0  0  0  0  0
  -21.9202   -4.6937   22.3405 C   0  0  0  0  0  0
  -22.7858  -13.5239   21.1820 C   0  0  0  0  0  0
  -22.1664   -4.2132   21.0985 F   0  0  0  0  0  0
  -21.5632   -3.4535   25.7739 F   0  0  0  0  0  0
  -30.0261  -13.3261   20.4605 N   0  0  0  0  0  0
  -26.3004  -12.9318   20.3335 N   0  0  0  0  0  0
  -25.9309  -11.6473   20.5744 N   0  0  0  0  0  0
  -22.0502  -12.8256   22.0397 N   0  0  0  0  0  0
  -25.4354  -15.1859   20.4120 N   0  0  0  0  0  0
  -31.7600  -14.7267   20.0096 O   0  0  0  0  0  0
  -21.6640   -6.8852   21.4236 O   0  0  0  0  0  0
  -22.3573  -14.5542   20.6641 O   0  0  0  0  0  0
  -24.6160  -31.8682   23.2126 C   0  0  0  0  0  0
  -25.9053  -32.4829   23.8405 C   0  0  1  0  0  0
  -27.2145  -27.4226   20.0854 C   0  0  0  0  0  0
  -25.5932  -33.8628   24.2346 N   0  0  0  0  0  0
  -23.4016  -30.4923   21.5552 C   0  0  2  0  0  0
  -24.8392  -28.9536   20.1153 C   0  0  0  0  0  0
  -22.7407  -29.4700   22.5041 C   0  0  0  0  0  0
  -18.0278  -28.1377   22.8497 C   0  0  0  0  0  0
  -24.1483  -36.7296   23.2639 C   0  0  0  0  0  0
  -25.9328  -30.8288   21.3638 C   0  0  0  0  0  0
  -26.0064  -29.4645   20.7037 C   0  0  0  0  0  0
  -27.2028  -28.7100   20.6779 C   0  0  0  0  0  0
  -26.0335  -26.9241   19.5027 C   0  0  0  0  0  0
  -24.8476  -27.6820   19.5151 C   0  0  0  0  0  0
  -23.6024  -29.8224   20.1709 C   0  0  0  0  0  0
  -25.4110  -36.3128   24.0350 C   0  0  1  0  0  0
  -20.5865  -28.3670   23.1337 C   0  0  2  0  0  0
  -20.6796  -26.9418   22.5417 C   0  0  0  0  0  0
  -19.5771  -26.6395   21.5221 C   0  0  0  0  0  0
  -18.1949  -26.7935   22.1614 C   0  0  0  0  0  0
  -19.1523  -28.8842   23.2910 C   0  0  0  0  0  0
  -18.9445  -30.1451   23.8906 C   0  0  0  0  0  0
  -17.6453  -30.6596   24.0558 C   0  0  0  0  0  0
  -25.9024  -34.9490   23.5140 C   0  0  0  0  0  0
  -16.5347  -29.9085   23.6342 C   0  0  0  0  0  0
  -16.7270  -28.6494   23.0383 C   0  0  0  0  0  0
  -26.4481  -31.6609   25.0745 C   0  0  0  0  0  0
  -25.3768  -31.3665   26.1490 C   0  0  0  0  0  0
  -27.0274  -30.3056   24.6099 C   0  0  0  0  0  0
  -27.6079  -32.4316   25.7478 C   0  0  0  0  0  0
  -27.5586  -37.1794   24.8475 C   0  0  0  0  0  0
  -21.4144  -29.3035   22.3738 N   0  0  0  0  0  0
  -26.4300  -37.3819   23.9436 N   0  0  0  0  0  0
  -24.6694  -31.0777   22.1011 N   0  0  0  0  0  0
  -23.4179  -28.8274   23.3109 O   0  0  0  0  0  0
  -28.3446  -26.6333   20.0864 O   0  0  0  0  0  0
  -26.5577  -34.8950   22.4693 O   0  0  0  0  0  0
  -23.5379  -32.1413   23.7562 O   0  0  0  0  0  0
  -28.2548  -20.9146   20.0423 C   0  0  0  0  0  0
  -29.2138  -19.3968   21.2583 C   0  0  0  0  0  0
  -29.3415  -20.6220   21.8976 C   0  0  0  0  0  0
  -29.9374  -20.9110   23.2419 C   0  0  0  0  0  0
  -30.1109  -15.3387   22.8037 C   0  0  0  0  0  0
  -29.5183  -18.0056   21.8205 C   0  0  0  0  0  0
  -28.4872  -24.0983   20.3876 C   0  0  0  0  0  0
  -28.3802  -22.9945   21.4855 C   0  0  0  0  0  0
  -29.9742  -16.8932   20.8131 C   0  0  0  0  0  0
  -28.2743  -25.5167   20.9964 C   0  0  0  0  0  0
  -28.5148  -19.6037   20.0680 N   0  0  0  0  0  0
  -28.6882  -21.5943   21.1155 N   0  0  0  0  0  0
  -30.0986  -15.4914   21.3418 N   0  0  0  0  0  0
  -31.4604  -12.4215   19.1474 H   0  0  0  0  0  0
  -30.2985  -11.3263   19.8378 H   0  0  0  0  0  0
  -29.7486  -11.8043   17.4354 H   0  0  0  0  0  0
  -29.6581  -13.5147   17.7805 H   0  0  0  0  0  0
  -27.8386  -11.3114   18.8177 H   0  0  0  0  0  0
  -27.3670  -12.6331   17.7842 H   0  0  0  0  0  0
  -27.6992  -14.2565   19.5722 H   0  0  0  0  0  0
  -28.6853  -11.9679   21.3425 H   0  0  0  0  0  0
  -28.4203  -13.6040   21.8629 H   0  0  0  0  0  0
  -25.2737   -9.5698   22.4759 H   0  0  0  0  0  0
  -23.9996   -7.4637   22.7483 H   0  0  0  0  0  0
  -21.0811   -8.8711   19.8973 H   0  0  0  0  0  0
  -22.3622  -10.9633   19.6161 H   0  0  0  0  0  0
  -21.2006   -7.6132   23.9706 H   0  0  0  0  0  0
  -21.1497   -6.0514   25.9079 H   0  0  0  0  0  0
  -22.0609   -2.7594   23.2858 H   0  0  0  0  0  0
  -22.4100  -11.9898   22.4749 H   0  0  0  0  0  0
  -21.1133  -13.1319   22.2601 H   0  0  0  0  0  0
  -24.6794  -15.8515   20.5299 H   0  0  0  0  0  0
  -26.3044  -15.6212   20.1314 H   0  0  0  0  0  0
  -26.7125  -32.5495   23.1154 H   0  0  0  0  0  0
  -25.0169  -33.9776   25.0566 H   0  0  0  0  0  0
  -22.6918  -31.3116   21.4213 H   0  0  0  0  0  0
  -23.3794  -35.9581   23.3315 H   0  0  0  0  0  0
  -24.3570  -36.8895   22.2051 H   0  0  0  0  0  0
  -23.7163  -37.6489   23.6615 H   0  0  0  0  0  0
  -26.0478  -31.6015   20.6017 H   0  0  0  0  0  0
  -26.8247  -30.8731   21.9787 H   0  0  0  0  0  0
  -28.1041  -29.1010   21.1270 H   0  0  0  0  0  0
  -26.0301  -25.9429   19.0489 H   0  0  0  0  0  0
  -23.9475  -27.2737   19.0744 H   0  0  0  0  0  0
  -23.7017  -30.5982   19.4096 H   0  0  0  0  0  0
  -22.7258  -29.2385   19.8827 H   0  0  0  0  0  0
  -25.1284  -36.2008   25.0848 H   0  0  0  0  0  0
  -20.9918  -28.3231   24.1472 H   0  0  0  0  0  0
  -20.5762  -26.2272   23.3595 H   0  0  0  0  0  0
  -21.6666  -26.7502   22.1184 H   0  0  0  0  0  0
  -19.6946  -25.6308   21.1260 H   0  0  0  0  0  0
  -19.6740  -27.3212   20.6772 H   0  0  0  0  0  0
  -17.4239  -26.6720   21.4008 H   0  0  0  0  0  0
  -18.0314  -26.0054   22.8978 H   0  0  0  0  0  0
  -19.7921  -30.7263   24.2300 H   0  0  0  0  0  0
  -17.5003  -31.6274   24.5141 H   0  0  0  0  0  0
  -15.5346  -30.2992   23.7643 H   0  0  0  0  0  0
  -15.8672  -28.0789   22.7142 H   0  0  0  0  0  0
  -24.6009  -30.6932   25.7845 H   0  0  0  0  0  0
  -24.8854  -32.2763   26.4946 H   0  0  0  0  0  0
  -25.8149  -30.8864   27.0241 H   0  0  0  0  0  0
  -26.2766  -29.6863   24.1166 H   0  0  0  0  0  0
  -27.4077  -29.7261   25.4523 H   0  0  0  0  0  0
  -27.8616  -30.4434   23.9211 H   0  0  0  0  0  0
  -27.2761  -33.3678   26.1991 H   0  0  0  0  0  0
  -28.3872  -32.6775   25.0251 H   0  0  0  0  0  0
  -28.0732  -31.8451   26.5409 H   0  0  0  0  0  0
  -28.2620  -38.0085   24.7562 H   0  0  0  0  0  0
  -28.1057  -36.2620   24.6246 H   0  0  0  0  0  0
  -27.2283  -37.1384   25.8871 H   0  0  0  0  0  0
  -20.9323  -29.8596   21.6815 H   0  0  0  0  0  0
  -26.0205  -38.2911   24.1452 H   0  0  0  0  0  0
  -27.6679  -21.3732   19.2596 H   0  0  0  0  0  0
  -30.6539  -20.1407   23.5207 H   0  0  0  0  0  0
  -29.1704  -20.9299   24.0163 H   0  0  0  0  0  0
  -30.4733  -21.8607   23.2544 H   0  0  0  0  0  0
  -30.8508  -15.9958   23.2618 H   0  0  0  0  0  0
  -30.3605  -14.3212   23.1130 H   0  0  0  0  0  0
  -29.1347  -15.5706   23.2283 H   0  0  0  0  0  0
  -28.6342  -17.6670   22.3612 H   0  0  0  0  0  0
  -30.2943  -18.1128   22.5789 H   0  0  0  0  0  0
  -27.7410  -23.9261   19.6113 H   0  0  0  0  0  0
  -29.4590  -24.0543   19.8970 H   0  0  0  0  0  0
  -27.3622  -22.9959   21.8777 H   0  0  0  0  0  0
  -29.0100  -23.2806   22.3244 H   0  0  0  0  0  0
  -30.9135  -17.2046   20.3529 H   0  0  0  0  0  0
  -29.2391  -16.8632   20.0088 H   0  0  0  0  0  0
  -29.0428  -25.6918   21.7478 H   0  0  0  0  0  0
  -27.3318  -25.5171   21.5481 H   0  0  0  0  0  0
  1 25  1  0  0  0
  1 30  2  0  0  0
  1 83  1  0  0  0
  2  3  1  0  0  0
  2 25  1  0  0  0
  2 84  1  0  0  0
  2 85  1  0  0  0
  3  4  1  0  0  0
  3 86  1  0  0  0
  3 87  1  0  0  0
  4  5  1  0  0  0
  4 88  1  0  0  0
  4 89  1  0  0  0
  5  6  1  0  0  0
  5 26  1  0  0  0
  5 90  1  0  0  0
  6 25  1  0  0  0
  6 91  1  0  0  0
  6 92  1  0  0  0
  7  8  2  0  0  0
  7 26  1  0  0  0
  7 29  1  0  0  0
  8  9  1  0  0  0
  8 22  1  0  0  0
  9 10  1  0  0  0
  9 27  2  0  0  0
 10 11  2  0  0  0
 10 15  1  0  0  0
 11 12  1  0  0  0
 11 93  1  0  0  0
 12 13  2  0  0  0
 12 94  1  0  0  0
 13 14  1  0  0  0
 13 31  1  0  0  0
 14 15  2  0  0  0
 14 95  1  0  0  0
 15 96  1  0  0  0
 16 17  2  0  0  0
 16 21  1  0  0  0
 16 31  1  0  0  0
 17 18  1  0  0  0
 17 97  1  0  0  0
 18 19  2  0  0  0
 18 98  1  0  0  0
 19 20  1  0  0  0
 19 24  1  0  0  0
 20 21  2  0  0  0
 20 99  1  0  0  0
 21 23  1  0  0  0
 22 28  1  0  0  0
 22 32  2  0  0  0
 26 27  1  0  0  0
 28100  1  0  0  0
 28101  1  0  0  0
 29102  1  0  0  0
 29103  1  0  0  0
 33 34  1  0  0  0
 33 66  1  0  0  0
 33 70  2  0  0  0
 34 36  1  0  0  0
 34 59  1  0  0  0
 34104  1  0  0  0
 35 44  2  0  0  0
 35 45  1  0  0  0
 35 68  1  0  0  0
 36 56  1  0  0  0
 36105  1  0  0  0
 37 39  1  0  0  0
 37 47  1  0  0  0
 37 66  1  0  0  0
 37106  1  0  0  0
 38 43  2  0  0  0
 38 46  1  0  0  0
 38 47  1  0  0  0
 39 64  1  0  0  0
 39 67  2  0  0  0
 40 52  1  0  0  0
 40 53  2  0  0  0
 40 58  1  0  0  0
 41107  1  0  0  0
 41108  1  0  0  0
 41109  1  0  0  0
 41 48  1  0  0  0
 42 43  1  0  0  0
 42 66  1  0  0  0
 42110  1  0  0  0
 42111  1  0  0  0
 43 44  1  0  0  0
 44112  1  0  0  0
 45 46  2  0  0  0
 45113  1  0  0  0
 46114  1  0  0  0
 47115  1  0  0  0
 47116  1  0  0  0
 48 56  1  0  0  0
 48 65  1  0  0  0
 48117  1  0  0  0
 49 50  1  0  0  0
 49 53  1  0  0  0
 49 64  1  0  0  0
 49118  1  0  0  0
 50 51  1  0  0  0
 50119  1  0  0  0
 50120  1  0  0  0
 51 52  1  0  0  0
 51121  1  0  0  0
 51122  1  0  0  0
 52123  1  0  0  0
 52124  1  0  0  0
 53 54  1  0  0  0
 54 55  2  0  0  0
 54125  1  0  0  0
 55 57  1  0  0  0
 55126  1  0  0  0
 56 69  2  0  0  0
 57 58  2  0  0  0
 57127  1  0  0  0
 58128  1  0  0  0
 59 60  1  0  0  0
 59 61  1  0  0  0
 59 62  1  0  0  0
 60129  1  0  0  0
 60130  1  0  0  0
 60131  1  0  0  0
 61132  1  0  0  0
 61133  1  0  0  0
 61134  1  0  0  0
 62135  1  0  0  0
 62136  1  0  0  0
 62137  1  0  0  0
 63 65  1  0  0  0
 63138  1  0  0  0
 63139  1  0  0  0
 63140  1  0  0  0
 64141  1  0  0  0
 65142  1  0  0  0
 68 80  1  0  0  0
 71 81  2  0  0  0
 71 82  1  0  0  0
 71143  1  0  0  0
 72 73  2  0  0  0
 72 76  1  0  0  0
 72 81  1  0  0  0
 73 74  1  0  0  0
 73 82  1  0  0  0
 74144  1  0  0  0
 74145  1  0  0  0
 74146  1  0  0  0
 75 83  1  0  0  0
 75147  1  0  0  0
 75148  1  0  0  0
 75149  1  0  0  0
 76 79  1  0  0  0
 76150  1  0  0  0
 76151  1  0  0  0
 77 78  1  0  0  0
 77 80  1  0  0  0
 77152  1  0  0  0
 77153  1  0  0  0
 78 82  1  0  0  0
 78154  1  0  0  0
 78155  1  0  0  0
 79 83  1  0  0  0
 79156  1  0  0  0
 79157  1  0  0  0
 80158  1  0  0  0
 80159  1  0  0  0
M  ISO  4   1 100  68 101  80 101  83 100
M  END
> <chiral flag>
0

> <version>
0

> <s_m_source_file>
/data/baiqing/PycharmProjects/Reinvent-master-3.2/result/LINK_invent/BTK/process_docking_weight1_custom_sum_contain_oxygen_bond_distance_aromatic_linkinvent_7_9_3/rearranged_h_0054.sdf

> <i_m_source_file_index>
41

> <r_mmod_Potential_Energy-OPLS-2005>
113.929756164551

> <r_mmod_Stretch_Energy-OPLS-2005>
48.7939643859863

> <r_mmod_Bend_Energy-OPLS-2005>
114.837219238281

> <r_mmod_Torsional_Energy-OPLS-2005>
315.842590332031

> <r_mmod_Improper_Torsional_Energy-OPLS-2005>
7.18763542175293

> <r_mmod_Van_der_Waal_Energy-OPLS-2005>
128.759582519531

> <r_mmod_Electrostatic_Energy-OPLS-2005>
-308.545135498047

> <r_mmod_Solvation_Energy-OPLS-2005>
-209.329162597656

> <b_mmod_Minimization_Converged-OPLS-2005>
0

> <r_mmod_RMS_Derivative-OPLS-2005>
4.39377498626709

$$$$
41
                    3D
 Structure written by MMmdl.
159167  0  0  1  0            999 V2000
  -30.4419  -15.3503   20.2929 C   0  0  0  0  0  0
  -30.4351  -12.8695   19.4844 C   0  0  0  0  0  0
  -29.5232  -12.5696   18.2705 C   0  0  0  0  0  0
  -28.0872  -12.2486   18.7276 C   0  0  0  0  0  0
  -27.5913  -13.2335   19.8122 C   0  0  2  0  0  0
  -28.6430  -13.5222   20.9101 C   0  0  0  0  0  0
  -25.2380  -13.7969   20.5980 C   0  0  0  0  0  0
  -24.1661  -13.0266   20.9360 C   0  0  0  0  0  0
  -24.6285  -11.6775   20.8820 C   0  0  0  0  0  0
  -23.8968  -10.4200   21.0429 C   0  0  0  0  0  0
  -24.3550   -9.4150   21.9202 C   0  0  0  0  0  0
  -23.6247   -8.2192   22.0779 C   0  0  0  0  0  0
  -22.4239   -8.0231   21.3550 C   0  0  0  0  0  0
  -21.9856   -9.0186   20.4644 C   0  0  0  0  0  0
  -22.7164  -10.2071   20.3066 C   0  0  0  0  0  0
  -21.6852   -6.0710   22.5279 C   0  0  0  0  0  0
  -21.3999   -6.5621   23.8207 C   0  0  0  0  0  0
  -21.3659   -5.6795   24.9173 C   0  0  0  0  0  0
  -21.6040   -4.3051   24.7239 C   0  0  0  0  0  0
  -21.8826   -3.8137   23.4365 C   0  0  0  0  0  0
  -21.9217   -4.6942   22.3422 C   0  0  0  0  0  0
  -22.7703  -13.5120   21.1953 C   0  0  0  0  0  0
  -22.1686   -4.2131   21.0999 F   0  0  0  0  0  0
  -21.5641   -3.4544   25.7749 F   0  0  0  0  0  0
  -29.8532  -14.0421   20.2351 N   0  0  0  0  0  0
  -26.2756  -12.9197   20.3382 N   0  0  0  0  0  0
  -25.9220  -11.6344   20.5793 N   0  0  0  0  0  0
  -22.0298  -12.8155   22.0472 N   0  0  0  0  0  0
  -25.4054  -15.1683   20.4603 N   0  0  0  0  0  0
  -31.6806  -15.2917   20.3013 O   0  0  0  0  0  0
  -21.6621   -6.8834   21.4238 O   0  0  0  0  0  0
  -22.3443  -14.5448   20.6780 O   0  0  0  0  0  0
  -24.6641  -31.8217   23.1680 C   0  0  0  0  0  0
  -25.9318  -32.4584   23.8150 C   0  0  1  0  0  0
  -27.2510  -26.9434   20.1857 C   0  0  0  0  0  0
  -25.5971  -33.8388   24.2065 N   0  0  0  0  0  0
  -23.4811  -30.4279   21.5163 C   0  0  2  0  0  0
  -24.9416  -28.8148   20.1117 C   0  0  0  0  0  0
  -22.7684  -29.4405   22.4778 C   0  0  0  0  0  0
  -18.0316  -28.1401   22.8469 C   0  0  0  0  0  0
  -24.1490  -36.7218   23.2651 C   0  0  0  0  0  0
  -26.0477  -30.6319   21.3968 C   0  0  0  0  0  0
  -26.1211  -29.2221   20.7451 C   0  0  0  0  0  0
  -27.2684  -28.3078   20.7584 C   0  0  0  0  0  0
  -26.0409  -26.6832   19.5029 C   0  0  0  0  0  0
  -24.9271  -27.5658   19.4674 C   0  0  0  0  0  0
  -23.7221  -29.7371   20.1451 C   0  0  0  0  0  0
  -25.4121  -36.2976   24.0310 C   0  0  1  0  0  0
  -20.5942  -28.3744   23.1192 C   0  0  2  0  0  0
  -20.6793  -26.9417   22.5406 C   0  0  0  0  0  0
  -19.5763  -26.6366   21.5221 C   0  0  0  0  0  0
  -18.1949  -26.7935   22.1623 C   0  0  0  0  0  0
  -19.1583  -28.8891   23.2818 C   0  0  0  0  0  0
  -18.9492  -30.1487   23.8845 C   0  0  0  0  0  0
  -17.6489  -30.6599   24.0550 C   0  0  0  0  0  0
  -25.9081  -34.9357   23.5021 C   0  0  0  0  0  0
  -16.5372  -29.9083   23.6354 C   0  0  0  0  0  0
  -16.7300  -28.6504   23.0369 C   0  0  0  0  0  0
  -26.4549  -31.6526   25.0683 C   0  0  0  0  0  0
  -25.3672  -31.3784   26.1349 C   0  0  0  0  0  0
  -27.0448  -30.2888   24.6426 C   0  0  0  0  0  0
  -27.6032  -32.4342   25.7475 C   0  0  0  0  0  0
  -27.5576  -37.1755   24.8468 C   0  0  0  0  0  0
  -21.4348  -29.3040   22.3548 N   0  0  0  0  0  0
  -26.4279  -37.3711   23.9414 N   0  0  0  0  0  0
  -24.7512  -30.9888   22.0809 N   0  0  0  0  0  0
  -23.4233  -28.7986   23.3029 O   0  0  0  0  0  0
  -28.2752  -25.8605   20.2896 O   0  0  0  0  0  0
  -26.5717  -34.8912   22.4628 O   0  0  0  0  0  0
  -23.5702  -32.1161   23.6784 O   0  0  0  0  0  0
  -29.9315  -19.5801   18.3066 C   0  0  0  0  0  0
  -29.3131  -21.6187   18.3570 C   0  0  0  0  0  0
  -29.6136  -19.7600   19.6400 C   0  0  0  0  0  0
  -31.0229  -22.1441   22.0053 C   0  0  0  0  0  0
  -27.3971  -17.3797   19.4049 C   0  0  0  0  0  0
  -29.9054  -18.2948   20.5458 C   0  0  0  0  0  0
  -30.2970  -23.1767   21.1281 C   0  0  0  0  0  0
  -28.7133  -16.6567   19.0432 C   0  0  0  0  0  0
  -28.1355  -24.2443   19.9831 C   0  0  0  0  0  0
  -28.9506  -22.7130   20.5334 C   0  0  1  0  0  0
  -29.7115  -20.6867   17.5160 N   0  0  0  0  0  0
  -29.2430  -21.3144   19.6643 N   0  0  0  0  0  0
  -29.7200  -16.6685   20.1195 N   0  0  0  0  0  0
  -31.4413  -13.0954   19.1259 H   0  0  0  0  0  0
  -30.5304  -11.9942   20.1299 H   0  0  0  0  0  0
  -29.9287  -11.7454   17.6800 H   0  0  0  0  0  0
  -29.5046  -13.4392   17.6143 H   0  0  0  0  0  0
  -28.0805  -11.2350   19.1282 H   0  0  0  0  0  0
  -27.4058  -12.2434   17.8750 H   0  0  0  0  0  0
  -27.4108  -14.1370   19.2528 H   0  0  0  0  0  0
  -28.8569  -12.6321   21.5042 H   0  0  0  0  0  0
  -28.2559  -14.2752   21.5991 H   0  0  0  0  0  0
  -25.2703   -9.5658   22.4747 H   0  0  0  0  0  0
  -23.9953   -7.4615   22.7535 H   0  0  0  0  0  0
  -21.0783   -8.8703   19.8967 H   0  0  0  0  0  0
  -22.3621  -10.9610   19.6176 H   0  0  0  0  0  0
  -21.1943   -7.6127   23.9681 H   0  0  0  0  0  0
  -21.1483   -6.0538   25.9075 H   0  0  0  0  0  0
  -22.0597   -2.7595   23.2878 H   0  0  0  0  0  0
  -22.3862  -11.9811   22.4880 H   0  0  0  0  0  0
  -21.0925  -13.1220   22.2637 H   0  0  0  0  0  0
  -24.6488  -15.8292   20.5955 H   0  0  0  0  0  0
  -26.2735  -15.6072   20.1834 H   0  0  0  0  0  0
  -26.7396  -32.5118   23.0870 H   0  0  0  0  0  0
  -25.0050  -33.9416   25.0174 H   0  0  0  0  0  0
  -22.7950  -31.2585   21.3403 H   0  0  0  0  0  0
  -23.3777  -35.9535   23.3291 H   0  0  0  0  0  0
  -24.3560  -36.8887   22.2073 H   0  0  0  0  0  0
  -23.7237  -37.6391   23.6714 H   0  0  0  0  0  0
  -26.2288  -31.3730   20.6164 H   0  0  0  0  0  0
  -26.9071  -30.6870   22.0526 H   0  0  0  0  0  0
  -28.1603  -28.6188   21.2848 H   0  0  0  0  0  0
  -25.9254  -25.7251   19.0156 H   0  0  0  0  0  0
  -24.0330  -27.2459   18.9497 H   0  0  0  0  0  0
  -23.8704  -30.5007   19.3803 H   0  0  0  0  0  0
  -22.8337  -29.1845   19.8348 H   0  0  0  0  0  0
  -25.1315  -36.1783   25.0803 H   0  0  0  0  0  0
  -21.0009  -28.3367   24.1327 H   0  0  0  0  0  0
  -20.5687  -26.2346   23.3642 H   0  0  0  0  0  0
  -21.6654  -26.7400   22.1201 H   0  0  0  0  0  0
  -19.6922  -25.6275   21.1270 H   0  0  0  0  0  0
  -19.6719  -27.3164   20.6747 H   0  0  0  0  0  0
  -17.4212  -26.6702   21.4027 H   0  0  0  0  0  0
  -18.0323  -26.0075   22.9008 H   0  0  0  0  0  0
  -19.7967  -30.7319   24.2192 H   0  0  0  0  0  0
  -17.5036  -31.6273   24.5170 H   0  0  0  0  0  0
  -15.5371  -30.2970   23.7705 H   0  0  0  0  0  0
  -15.8697  -28.0810   22.7113 H   0  0  0  0  0  0
  -24.5865  -30.7117   25.7677 H   0  0  0  0  0  0
  -24.8838  -32.2977   26.4653 H   0  0  0  0  0  0
  -25.7895  -30.9035   27.0215 H   0  0  0  0  0  0
  -26.3124  -29.6540   24.1425 H   0  0  0  0  0  0
  -27.3974  -29.7275   25.5090 H   0  0  0  0  0  0
  -27.9066  -30.4070   23.9857 H   0  0  0  0  0  0
  -27.2618  -33.3721   26.1876 H   0  0  0  0  0  0
  -28.3924  -32.6776   25.0350 H   0  0  0  0  0  0
  -28.0613  -31.8581   26.5524 H   0  0  0  0  0  0
  -28.2569  -38.0078   24.7527 H   0  0  0  0  0  0
  -28.1099  -36.2595   24.6278 H   0  0  0  0  0  0
  -27.2289  -37.1392   25.8873 H   0  0  0  0  0  0
  -20.9610  -29.8721   21.6664 H   0  0  0  0  0  0
  -26.0147  -38.2785   24.1406 H   0  0  0  0  0  0
  -30.3421  -18.7008   17.8351 H   0  0  0  0  0  0
  -29.1358  -22.6142   17.9826 H   0  0  0  0  0  0
  -31.9550  -22.5610   22.3890 H   0  0  0  0  0  0
  -31.2773  -21.2379   21.4550 H   0  0  0  0  0  0
  -30.4152  -21.8604   22.8670 H   0  0  0  0  0  0
  -26.5404  -16.8821   18.9549 H   0  0  0  0  0  0
  -27.3757  -18.3965   19.0088 H   0  0  0  0  0  0
  -27.2331  -17.4461   20.4825 H   0  0  0  0  0  0
  -29.3643  -18.3945   21.4865 H   0  0  0  0  0  0
  -30.9506  -18.3480   20.8484 H   0  0  0  0  0  0
  -30.9572  -23.4816   20.3141 H   0  0  0  0  0  0
  -30.1309  -24.0735   21.7260 H   0  0  0  0  0  0
  -29.1280  -17.0825   18.1347 H   0  0  0  0  0  0
  -28.5121  -15.6588   18.6851 H   0  0  0  0  0  0
  -27.0953  -24.0503   20.2374 H   0  0  0  0  0  0
  -28.1344  -24.2227   18.8965 H   0  0  0  0  0  0
  -28.3520  -22.3790   21.3820 H   0  0  0  0  0  0
  1 25  1  0  0  0
  1 30  2  0  0  0
  1 83  1  0  0  0
  2  3  1  0  0  0
  2 25  1  0  0  0
  2 84  1  0  0  0
  2 85  1  0  0  0
  3  4  1  0  0  0
  3 86  1  0  0  0
  3 87  1  0  0  0
  4  5  1  0  0  0
  4 88  1  0  0  0
  4 89  1  0  0  0
  5  6  1  0  0  0
  5 26  1  0  0  0
  5 90  1  0  0  0
  6 25  1  0  0  0
  6 91  1  0  0  0
  6 92  1  0  0  0
  7  8  2  0  0  0
  7 26  1  0  0  0
  7 29  1  0  0  0
  8  9  1  0  0  0
  8 22  1  0  0  0
  9 10  1  0  0  0
  9 27  2  0  0  0
 10 11  2  0  0  0
 10 15  1  0  0  0
 11 12  1  0  0  0
 11 93  1  0  0  0
 12 13  2  0  0  0
 12 94  1  0  0  0
 13 14  1  0  0  0
 13 31  1  0  0  0
 14 15  2  0  0  0
 14 95  1  0  0  0
 15 96  1  0  0  0
 16 17  2  0  0  0
 16 21  1  0  0  0
 16 31  1  0  0  0
 17 18  1  0  0  0
 17 97  1  0  0  0
 18 19  2  0  0  0
 18 98  1  0  0  0
 19 20  1  0  0  0
 19 24  1  0  0  0
 20 21  2  0  0  0
 20 99  1  0  0  0
 21 23  1  0  0  0
 22 28  1  0  0  0
 22 32  2  0  0  0
 26 27  1  0  0  0
 28100  1  0  0  0
 28101  1  0  0  0
 29102  1  0  0  0
 29103  1  0  0  0
 33 34  1  0  0  0
 33 66  1  0  0  0
 33 70  2  0  0  0
 34 36  1  0  0  0
 34 59  1  0  0  0
 34104  1  0  0  0
 35 44  2  0  0  0
 35 45  1  0  0  0
 35 68  1  0  0  0
 36 56  1  0  0  0
 36105  1  0  0  0
 37 39  1  0  0  0
 37 47  1  0  0  0
 37 66  1  0  0  0
 37106  1  0  0  0
 38 43  2  0  0  0
 38 46  1  0  0  0
 38 47  1  0  0  0
 39 64  1  0  0  0
 39 67  2  0  0  0
 40 52  1  0  0  0
 40 53  2  0  0  0
 40 58  1  0  0  0
 41107  1  0  0  0
 41108  1  0  0  0
 41109  1  0  0  0
 41 48  1  0  0  0
 42 43  1  0  0  0
 42 66  1  0  0  0
 42110  1  0  0  0
 42111  1  0  0  0
 43 44  1  0  0  0
 44112  1  0  0  0
 45 46  2  0  0  0
 45113  1  0  0  0
 46114  1  0  0  0
 47115  1  0  0  0
 47116  1  0  0  0
 48 56  1  0  0  0
 48 65  1  0  0  0
 48117  1  0  0  0
 49 50  1  0  0  0
 49 53  1  0  0  0
 49 64  1  0  0  0
 49118  1  0  0  0
 50 51  1  0  0  0
 50119  1  0  0  0
 50120  1  0  0  0
 51 52  1  0  0  0
 51121  1  0  0  0
 51122  1  0  0  0
 52123  1  0  0  0
 52124  1  0  0  0
 53 54  1  0  0  0
 54 55  2  0  0  0
 54125  1  0  0  0
 55 57  1  0  0  0
 55126  1  0  0  0
 56 69  2  0  0  0
 57 58  2  0  0  0
 57127  1  0  0  0
 58128  1  0  0  0
 59 60  1  0  0  0
 59 61  1  0  0  0
 59 62  1  0  0  0
 60129  1  0  0  0
 60130  1  0  0  0
 60131  1  0  0  0
 61132  1  0  0  0
 61133  1  0  0  0
 61134  1  0  0  0
 62135  1  0  0  0
 62136  1  0  0  0
 62137  1  0  0  0
 63 65  1  0  0  0
 63138  1  0  0  0
 63139  1  0  0  0
 63140  1  0  0  0
 64141  1  0  0  0
 65142  1  0  0  0
 68 79  1  0  0  0
 71 73  2  0  0  0
 71 81  1  0  0  0
 71143  1  0  0  0
 72 81  2  0  0  0
 72 82  1  0  0  0
 72144  1  0  0  0
 73 76  1  0  0  0
 73 82  1  0  0  0
 74 77  1  0  0  0
 74145  1  0  0  0
 74146  1  0  0  0
 74147  1  0  0  0
 75 78  1  0  0  0
 75148  1  0  0  0
 75149  1  0  0  0
 75150  1  0  0  0
 76 83  1  0  0  0
 76151  1  0  0  0
 76152  1  0  0  0
 77153  1  0  0  0
 77154  1  0  0  0
 77 80  1  0  0  0
 78 83  1  0  0  0
 78155  1  0  0  0
 78156  1  0  0  0
 79 80  1  0  0  0
 79157  1  0  0  0
 79158  1  0  0  0
 80 82  1  0  0  0
 80159  1  0  0  0
M  ISO  4   1 100  68 101  79 101  83 100
M  END
> <chiral flag>
0

> <version>
0

> <s_m_source_file>
/data/baiqing/PycharmProjects/Reinvent-master-3.2/result/LINK_invent/BTK/process_docking_weight1_custom_sum_contain_oxygen_bond_distance_aromatic_linkinvent_7_9_3/rearranged_h_0054.sdf

> <i_m_source_file_index>
42

> <r_mmod_Potential_Energy-OPLS-2005>
1706.58325195312

> <r_mmod_Stretch_Energy-OPLS-2005>
676.214599609375

> <r_mmod_Bend_Energy-OPLS-2005>
526.7265625

> <r_mmod_Torsional_Energy-OPLS-2005>
333.408111572266

> <r_mmod_Improper_Torsional_Energy-OPLS-2005>
7.04444551467896

> <r_mmod_Van_der_Waal_Energy-OPLS-2005>
120.241554260254

> <r_mmod_Electrostatic_Energy-OPLS-2005>
-253.168518066406

> <r_mmod_Solvation_Energy-OPLS-2005>
-215.846435546875

> <b_mmod_Minimization_Converged-OPLS-2005>
0

> <r_mmod_RMS_Derivative-OPLS-2005>
3.8895103931427

$$$$
42
                    3D
 Structure written by MMmdl.
156164  0  0  1  0            999 V2000
  -30.5958  -14.9931   20.4147 C   0  0  0  0  0  0
  -30.4093  -12.6200   19.5226 C   0  0  0  0  0  0
  -29.5124  -12.5382   18.2688 C   0  0  0  0  0  0
  -28.0499  -12.3201   18.6859 C   0  0  0  0  0  0
  -27.6183  -13.2682   19.8355 C   0  0  2  0  0  0
  -28.6543  -13.3586   20.9777 C   0  0  0  0  0  0
  -25.2403  -13.8264   20.5751 C   0  0  0  0  0  0
  -24.1743  -13.0453   20.9240 C   0  0  0  0  0  0
  -24.6387  -11.6946   20.8761 C   0  0  0  0  0  0
  -23.9086  -10.4301   21.0403 C   0  0  0  0  0  0
  -24.3635   -9.4212   21.9177 C   0  0  0  0  0  0
  -23.6307   -8.2248   22.0748 C   0  0  0  0  0  0
  -22.4288   -8.0287   21.3541 C   0  0  0  0  0  0
  -21.9927   -9.0260   20.4642 C   0  0  0  0  0  0
  -22.7259  -10.2137   20.3052 C   0  0  0  0  0  0
  -21.6857   -6.0739   22.5277 C   0  0  0  0  0  0
  -21.4016   -6.5642   23.8210 C   0  0  0  0  0  0
  -21.3660   -5.6796   24.9173 C   0  0  0  0  0  0
  -21.6045   -4.3059   24.7224 C   0  0  0  0  0  0
  -21.8819   -3.8149   23.4346 C   0  0  0  0  0  0
  -21.9195   -4.6966   22.3402 C   0  0  0  0  0  0
  -22.7760  -13.5198   21.1895 C   0  0  0  0  0  0
  -22.1663   -4.2150   21.0980 F   0  0  0  0  0  0
  -21.5628   -3.4543   25.7737 F   0  0  0  0  0  0
  -29.9284  -13.7604   20.3733 N   0  0  0  0  0  0
  -26.2832  -12.9535   20.3264 N   0  0  0  0  0  0
  -25.9326  -11.6641   20.5752 N   0  0  0  0  0  0
  -22.0433  -12.8169   22.0452 N   0  0  0  0  0  0
  -25.4070  -15.1994   20.4203 N   0  0  0  0  0  0
  -31.7824  -14.9344   20.0666 O   0  0  0  0  0  0
  -21.6649   -6.8884   21.4239 O   0  0  0  0  0  0
  -22.3431  -14.5500   20.6741 O   0  0  0  0  0  0
  -24.6437  -31.8381   23.1809 C   0  0  0  0  0  0
  -25.9194  -32.4657   23.8216 C   0  0  1  0  0  0
  -27.2177  -27.0957   20.1600 C   0  0  0  0  0  0
  -25.5917  -33.8464   24.2128 N   0  0  0  0  0  0
  -23.4507  -30.4513   21.5263 C   0  0  2  0  0  0
  -24.9014  -28.8651   20.1022 C   0  0  0  0  0  0
  -22.7576  -29.4495   22.4834 C   0  0  0  0  0  0
  -18.0301  -28.1394   22.8478 C   0  0  0  0  0  0
  -24.1492  -36.7252   23.2645 C   0  0  0  0  0  0
  -26.0055  -30.6970   21.3863 C   0  0  0  0  0  0
  -26.0740  -29.3035   20.7281 C   0  0  0  0  0  0
  -27.2265  -28.4313   20.7421 C   0  0  0  0  0  0
  -26.0257  -26.7604   19.4864 C   0  0  0  0  0  0
  -24.8920  -27.6109   19.4651 C   0  0  0  0  0  0
  -23.6783  -29.7716   20.1473 C   0  0  0  0  0  0
  -25.4126  -36.3014   24.0310 C   0  0  1  0  0  0
  -20.5913  -28.3715   23.1240 C   0  0  2  0  0  0
  -20.6781  -26.9410   22.5417 C   0  0  0  0  0  0
  -19.5760  -26.6374   21.5220 C   0  0  0  0  0  0
  -18.1939  -26.7934   22.1621 C   0  0  0  0  0  0
  -19.1559  -28.8871   23.2850 C   0  0  0  0  0  0
  -18.9479  -30.1468   23.8876 C   0  0  0  0  0  0
  -17.6473  -30.6593   24.0555 C   0  0  0  0  0  0
  -25.9075  -34.9388   23.5043 C   0  0  0  0  0  0
  -16.5363  -29.9084   23.6335 C   0  0  0  0  0  0
  -16.7287  -28.6502   23.0361 C   0  0  0  0  0  0
  -26.4501  -31.6550   25.0688 C   0  0  0  0  0  0
  -25.3665  -31.3773   26.1379 C   0  0  0  0  0  0
  -27.0356  -30.2924   24.6318 C   0  0  0  0  0  0
  -27.6027  -32.4329   25.7466 C   0  0  0  0  0  0
  -27.5584  -37.1772   24.8460 C   0  0  0  0  0  0
  -21.4262  -29.3026   22.3601 N   0  0  0  0  0  0
  -26.4289  -37.3729   23.9409 N   0  0  0  0  0  0
  -24.7197  -31.0192   22.0861 N   0  0  0  0  0  0
  -23.4208  -28.8061   23.3007 O   0  0  0  0  0  0
  -28.2794  -26.1250   20.3103 O   0  0  0  0  0  0
  -26.5694  -34.8901   22.4643 O   0  0  0  0  0  0
  -23.5549  -32.1275   23.7007 O   0  0  0  0  0  0
  -30.6103  -19.9782   18.1568 C   0  0  0  0  0  0
  -29.3522  -20.4120   19.8768 C   0  0  0  0  0  0
  -29.5659  -18.9313   19.8167 C   0  0  0  0  0  0
  -30.8121  -17.5446   18.0345 C   0  0  0  0  0  0
  -31.0359  -16.8760   21.8623 C   0  0  0  0  0  0
  -28.7759  -21.6649   20.7726 C   0  0  0  0  0  0
  -29.1393  -17.4621   20.4653 C   0  0  0  0  0  0
  -27.9563  -23.1093   20.3140 C   0  0  0  0  0  0
  -28.4405  -24.6529   19.7738 C   0  0  0  0  0  0
  -30.0721  -20.9745   18.8253 N   0  0  0  0  0  0
  -30.3421  -18.7730   18.6520 N   0  0  0  0  0  0
  -30.1017  -16.2615   20.9088 N   0  0  0  0  0  0
  -31.4504  -12.7259   19.2149 H   0  0  0  0  0  0
  -30.3729  -11.6837   20.0821 H   0  0  0  0  0  0
  -29.8408  -11.7280   17.6163 H   0  0  0  0  0  0
  -29.6008  -13.4584   17.6888 H   0  0  0  0  0  0
  -27.9537  -11.2824   19.0082 H   0  0  0  0  0  0
  -27.3870  -12.4351   17.8271 H   0  0  0  0  0  0
  -27.5645  -14.2590   19.3827 H   0  0  0  0  0  0
  -28.7470  -12.4090   21.5068 H   0  0  0  0  0  0
  -28.3426  -14.0999   21.7154 H   0  0  0  0  0  0
  -25.2776   -9.5689   22.4755 H   0  0  0  0  0  0
  -24.0016   -7.4637   22.7468 H   0  0  0  0  0  0
  -21.0857   -8.8780   19.8945 H   0  0  0  0  0  0
  -22.3713  -10.9676   19.6164 H   0  0  0  0  0  0
  -21.2009   -7.6150   23.9712 H   0  0  0  0  0  0
  -21.1482   -6.0527   25.9075 H   0  0  0  0  0  0
  -22.0597   -2.7610   23.2847 H   0  0  0  0  0  0
  -22.4084  -11.9841   22.4832 H   0  0  0  0  0  0
  -21.1039  -13.1155   22.2666 H   0  0  0  0  0  0
  -24.6411  -15.8538   20.5389 H   0  0  0  0  0  0
  -26.2614  -15.6418   20.1080 H   0  0  0  0  0  0
  -26.7257  -32.5239   23.0934 H   0  0  0  0  0  0
  -24.9961  -33.9553   25.0205 H   0  0  0  0  0  0
  -22.7545  -31.2776   21.3669 H   0  0  0  0  0  0
  -23.3759  -35.9577   23.3273 H   0  0  0  0  0  0
  -24.3571  -36.8930   22.2066 H   0  0  0  0  0  0
  -23.7246  -37.6432   23.6716 H   0  0  0  0  0  0
  -26.1682  -31.4488   20.6128 H   0  0  0  0  0  0
  -26.8729  -30.7462   22.0332 H   0  0  0  0  0  0
  -28.1157  -28.7534   21.2657 H   0  0  0  0  0  0
  -25.9407  -25.7906   19.0183 H   0  0  0  0  0  0
  -23.9934  -27.2721   18.9678 H   0  0  0  0  0  0
  -23.8140  -30.5422   19.3878 H   0  0  0  0  0  0
  -22.7930  -29.2122   19.8399 H   0  0  0  0  0  0
  -25.1317  -36.1832   25.0800 H   0  0  0  0  0  0
  -21.0000  -28.3316   24.1363 H   0  0  0  0  0  0
  -20.5669  -26.2324   23.3640 H   0  0  0  0  0  0
  -21.6649  -26.7410   22.1222 H   0  0  0  0  0  0
  -19.6917  -25.6279   21.1266 H   0  0  0  0  0  0
  -19.6712  -27.3171   20.6743 H   0  0  0  0  0  0
  -17.4214  -26.6683   21.4020 H   0  0  0  0  0  0
  -18.0323  -26.0081   22.9017 H   0  0  0  0  0  0
  -19.7952  -30.7281   24.2246 H   0  0  0  0  0  0
  -17.5030  -31.6274   24.5155 H   0  0  0  0  0  0
  -15.5362  -30.2978   23.7680 H   0  0  0  0  0  0
  -15.8685  -28.0813   22.7094 H   0  0  0  0  0  0
  -24.5860  -30.7100   25.7706 H   0  0  0  0  0  0
  -24.8830  -32.2963   26.4698 H   0  0  0  0  0  0
  -25.7929  -30.9023   27.0223 H   0  0  0  0  0  0
  -26.2972  -29.6635   24.1330 H   0  0  0  0  0  0
  -27.3929  -29.7249   25.4920 H   0  0  0  0  0  0
  -27.8902  -30.4116   23.9655 H   0  0  0  0  0  0
  -27.2621  -33.3665   26.1950 H   0  0  0  0  0  0
  -28.3872  -32.6826   25.0314 H   0  0  0  0  0  0
  -28.0648  -31.8515   26.5452 H   0  0  0  0  0  0
  -28.2578  -38.0091   24.7514 H   0  0  0  0  0  0
  -28.1106  -36.2617   24.6273 H   0  0  0  0  0  0
  -27.2301  -37.1402   25.8862 H   0  0  0  0  0  0
  -20.9482  -29.8726   21.6761 H   0  0  0  0  0  0
  -26.0156  -38.2795   24.1417 H   0  0  0  0  0  0
  -31.2127  -20.1289   17.2715 H   0  0  0  0  0  0
  -31.1726  -17.7420   17.0240 H   0  0  0  0  0  0
  -30.0065  -16.8146   17.9635 H   0  0  0  0  0  0
  -31.6393  -17.1379   18.6137 H   0  0  0  0  0  0
  -30.5404  -17.5936   22.5174 H   0  0  0  0  0  0
  -31.8279  -17.4040   21.3289 H   0  0  0  0  0  0
  -31.5068  -16.1361   22.5136 H   0  0  0  0  0  0
  -29.5980  -22.0000   21.4056 H   0  0  0  0  0  0
  -28.0984  -21.1985   21.4886 H   0  0  0  0  0  0
  -28.4353  -17.0039   19.7700 H   0  0  0  0  0  0
  -28.5172  -17.6719   21.3361 H   0  0  0  0  0  0
  -27.4096  -23.3646   21.2218 H   0  0  0  0  0  0
  -27.1624  -22.7909   19.6383 H   0  0  0  0  0  0
  -28.1156  -24.7090   18.7347 H   0  0  0  0  0  0
  -29.5225  -24.5617   19.6831 H   0  0  0  0  0  0
  1 25  1  0  0  0
  1 30  2  0  0  0
  1 82  1  0  0  0
  2  3  1  0  0  0
  2 25  1  0  0  0
  2 83  1  0  0  0
  2 84  1  0  0  0
  3  4  1  0  0  0
  3 85  1  0  0  0
  3 86  1  0  0  0
  4  5  1  0  0  0
  4 87  1  0  0  0
  4 88  1  0  0  0
  5  6  1  0  0  0
  5 26  1  0  0  0
  5 89  1  0  0  0
  6 25  1  0  0  0
  6 90  1  0  0  0
  6 91  1  0  0  0
  7  8  2  0  0  0
  7 26  1  0  0  0
  7 29  1  0  0  0
  8  9  1  0  0  0
  8 22  1  0  0  0
  9 10  1  0  0  0
  9 27  2  0  0  0
 10 11  2  0  0  0
 10 15  1  0  0  0
 11 12  1  0  0  0
 11 92  1  0  0  0
 12 13  2  0  0  0
 12 93  1  0  0  0
 13 14  1  0  0  0
 13 31  1  0  0  0
 14 15  2  0  0  0
 14 94  1  0  0  0
 15 95  1  0  0  0
 16 17  2  0  0  0
 16 21  1  0  0  0
 16 31  1  0  0  0
 17 18  1  0  0  0
 17 96  1  0  0  0
 18 19  2  0  0  0
 18 97  1  0  0  0
 19 20  1  0  0  0
 19 24  1  0  0  0
 20 21  2  0  0  0
 20 98  1  0  0  0
 21 23  1  0  0  0
 22 28  1  0  0  0
 22 32  2  0  0  0
 26 27  1  0  0  0
 28 99  1  0  0  0
 28100  1  0  0  0
 29101  1  0  0  0
 29102  1  0  0  0
 33 34  1  0  0  0
 33 66  1  0  0  0
 33 70  2  0  0  0
 34 36  1  0  0  0
 34 59  1  0  0  0
 34103  1  0  0  0
 35 44  2  0  0  0
 35 45  1  0  0  0
 35 68  1  0  0  0
 36 56  1  0  0  0
 36104  1  0  0  0
 37 39  1  0  0  0
 37 47  1  0  0  0
 37 66  1  0  0  0
 37105  1  0  0  0
 38 43  2  0  0  0
 38 46  1  0  0  0
 38 47  1  0  0  0
 39 64  1  0  0  0
 39 67  2  0  0  0
 40 52  1  0  0  0
 40 53  2  0  0  0
 40 58  1  0  0  0
 41106  1  0  0  0
 41107  1  0  0  0
 41108  1  0  0  0
 41 48  1  0  0  0
 42 43  1  0  0  0
 42 66  1  0  0  0
 42109  1  0  0  0
 42110  1  0  0  0
 43 44  1  0  0  0
 44111  1  0  0  0
 45 46  2  0  0  0
 45112  1  0  0  0
 46113  1  0  0  0
 47114  1  0  0  0
 47115  1  0  0  0
 48 56  1  0  0  0
 48 65  1  0  0  0
 48116  1  0  0  0
 49 50  1  0  0  0
 49 53  1  0  0  0
 49 64  1  0  0  0
 49117  1  0  0  0
 50 51  1  0  0  0
 50118  1  0  0  0
 50119  1  0  0  0
 51 52  1  0  0  0
 51120  1  0  0  0
 51121  1  0  0  0
 52122  1  0  0  0
 52123  1  0  0  0
 53 54  1  0  0  0
 54 55  2  0  0  0
 54124  1  0  0  0
 55 57  1  0  0  0
 55125  1  0  0  0
 56 69  2  0  0  0
 57 58  2  0  0  0
 57126  1  0  0  0
 58127  1  0  0  0
 59 60  1  0  0  0
 59 61  1  0  0  0
 59 62  1  0  0  0
 60128  1  0  0  0
 60129  1  0  0  0
 60130  1  0  0  0
 61131  1  0  0  0
 61132  1  0  0  0
 61133  1  0  0  0
 62134  1  0  0  0
 62135  1  0  0  0
 62136  1  0  0  0
 63 65  1  0  0  0
 63137  1  0  0  0
 63138  1  0  0  0
 63139  1  0  0  0
 64140  1  0  0  0
 65141  1  0  0  0
 68 79  1  0  0  0
 71 80  2  0  0  0
 71 81  1  0  0  0
 71142  1  0  0  0
 72 73  2  0  0  0
 72 76  1  0  0  0
 72 80  1  0  0  0
 73 77  1  0  0  0
 73 81  1  0  0  0
 74 81  1  0  0  0
 74143  1  0  0  0
 74144  1  0  0  0
 74145  1  0  0  0
 75 82  1  0  0  0
 75146  1  0  0  0
 75147  1  0  0  0
 75148  1  0  0  0
 76 78  1  0  0  0
 76149  1  0  0  0
 76150  1  0  0  0
 77 82  1  0  0  0
 77151  1  0  0  0
 77152  1  0  0  0
 78 79  1  0  0  0
 78153  1  0  0  0
 78154  1  0  0  0
 79155  1  0  0  0
 79156  1  0  0  0
M  ISO  4   1 100  68 101  79 101  82 100
M  END
> <chiral flag>
0

> <version>
0

> <s_m_source_file>
/data/baiqing/PycharmProjects/Reinvent-master-3.2/result/LINK_invent/BTK/process_docking_weight1_custom_sum_contain_oxygen_bond_distance_aromatic_linkinvent_7_9_3/rearranged_h_0054.sdf

> <i_m_source_file_index>
43

> <r_mmod_Potential_Energy-OPLS-2005>
877.858215332031

> <r_mmod_Stretch_Energy-OPLS-2005>
343.76318359375

> <r_mmod_Bend_Energy-OPLS-2005>
458.359954833984

> <r_mmod_Torsional_Energy-OPLS-2005>
274.703979492188

> <r_mmod_Improper_Torsional_Energy-OPLS-2005>
4.89219760894775

> <r_mmod_Van_der_Waal_Energy-OPLS-2005>
111.149276733398

> <r_mmod_Electrostatic_Energy-OPLS-2005>
-324.685974121094

> <r_mmod_Solvation_Energy-OPLS-2005>
-216.300338745117

> <b_mmod_Minimization_Converged-OPLS-2005>
0

> <r_mmod_RMS_Derivative-OPLS-2005>
0.805231690406799

$$$$
43
                    3D
 Structure written by MMmdl.
163171  0  0  1  0            999 V2000
  -30.7709  -14.3819   20.6746 C   0  0  0  0  0  0
  -30.3987  -12.3118   19.3867 C   0  0  0  0  0  0
  -29.4629  -12.5551   18.1865 C   0  0  0  0  0  0
  -27.9936  -12.3947   18.6111 C   0  0  0  0  0  0
  -27.6565  -13.2064   19.8865 C   0  0  2  0  0  0
  -28.7020  -12.9603   20.9971 C   0  0  0  0  0  0
  -25.2528  -13.8147   20.5725 C   0  0  0  0  0  0
  -24.1790  -13.0417   20.9249 C   0  0  0  0  0  0
  -24.6377  -11.6897   20.8843 C   0  0  0  0  0  0
  -23.9088  -10.4262   21.0503 C   0  0  0  0  0  0
  -24.3640   -9.4155   21.9250 C   0  0  0  0  0  0
  -23.6290   -8.2207   22.0793 C   0  0  0  0  0  0
  -22.4272   -8.0272   21.3570 C   0  0  0  0  0  0
  -21.9928   -9.0272   20.4688 C   0  0  0  0  0  0
  -22.7284  -10.2133   20.3111 C   0  0  0  0  0  0
  -21.6840   -6.0710   22.5266 C   0  0  0  0  0  0
  -21.4018   -6.5627   23.8195 C   0  0  0  0  0  0
  -21.3666   -5.6798   24.9168 C   0  0  0  0  0  0
  -21.6051   -4.3054   24.7244 C   0  0  0  0  0  0
  -21.8826   -3.8135   23.4369 C   0  0  0  0  0  0
  -21.9194   -4.6942   22.3408 C   0  0  0  0  0  0
  -22.7802  -13.5202   21.1893 C   0  0  0  0  0  0
  -22.1661   -4.2109   21.0992 F   0  0  0  0  0  0
  -21.5627   -3.4551   25.7774 F   0  0  0  0  0  0
  -30.0361  -13.2616   20.4510 N   0  0  0  0  0  0
  -26.2974  -12.9331   20.3477 N   0  0  0  0  0  0
  -25.9292  -11.6484   20.5857 N   0  0  0  0  0  0
  -22.0485  -12.8157   22.0460 N   0  0  0  0  0  0
  -25.4228  -15.1862   20.4071 N   0  0  0  0  0  0
  -31.8161  -14.6356   20.0745 O   0  0  0  0  0  0
  -21.6644   -6.8859   21.4228 O   0  0  0  0  0  0
  -22.3452  -14.5507   20.6769 O   0  0  0  0  0  0
  -24.6121  -31.8662   23.2116 C   0  0  0  0  0  0
  -25.9022  -32.4804   23.8408 C   0  0  1  0  0  0
  -27.2364  -27.4459   20.0986 C   0  0  0  0  0  0
  -25.5876  -33.8607   24.2345 N   0  0  0  0  0  0
  -23.4010  -30.4886   21.5523 C   0  0  2  0  0  0
  -24.8494  -28.9551   20.1168 C   0  0  0  0  0  0
  -22.7408  -29.4637   22.5022 C   0  0  0  0  0  0
  -18.0264  -28.1353   22.8488 C   0  0  0  0  0  0
  -24.1486  -36.7315   23.2641 C   0  0  0  0  0  0
  -25.9288  -30.8372   21.3622 C   0  0  0  0  0  0
  -26.0075  -29.4730   20.7088 C   0  0  0  0  0  0
  -27.2076  -28.7257   20.6932 C   0  0  0  0  0  0
  -26.0632  -26.9374   19.5022 C   0  0  0  0  0  0
  -24.8707  -27.6863   19.5109 C   0  0  0  0  0  0
  -23.6082  -29.8171   20.1676 C   0  0  0  0  0  0
  -25.4103  -36.3109   24.0344 C   0  0  1  0  0  0
  -20.5848  -28.3636   23.1326 C   0  0  2  0  0  0
  -20.6750  -26.9378   22.5421 C   0  0  0  0  0  0
  -19.5742  -26.6386   21.5201 C   0  0  0  0  0  0
  -18.1918  -26.7901   22.1619 C   0  0  0  0  0  0
  -19.1506  -28.8813   23.2900 C   0  0  0  0  0  0
  -18.9435  -30.1423   23.8910 C   0  0  0  0  0  0
  -17.6432  -30.6560   24.0552 C   0  0  0  0  0  0
  -25.9033  -34.9465   23.5154 C   0  0  0  0  0  0
  -16.5325  -29.9051   23.6327 C   0  0  0  0  0  0
  -16.7249  -28.6464   23.0349 C   0  0  0  0  0  0
  -26.4466  -31.6552   25.0703 C   0  0  0  0  0  0
  -25.3754  -31.3584   26.1455 C   0  0  0  0  0  0
  -27.0285  -30.3005   24.6038 C   0  0  0  0  0  0
  -27.6087  -32.4220   25.7432 C   0  0  0  0  0  0
  -27.5581  -37.1800   24.8469 C   0  0  0  0  0  0
  -21.4134  -29.2993   22.3733 N   0  0  0  0  0  0
  -26.4298  -37.3787   23.9411 N   0  0  0  0  0  0
  -24.6652  -31.0769   22.1013 N   0  0  0  0  0  0
  -23.4182  -28.8195   23.3075 O   0  0  0  0  0  0
  -28.3949  -26.7068   20.0997 O   0  0  0  0  0  0
  -26.5615  -34.8901   22.4724 O   0  0  0  0  0  0
  -23.5311  -32.1409   23.7519 O   0  0  0  0  0  0
  -30.1146  -22.8549   18.9161 C   0  0  0  0  0  0
  -27.5393  -23.3795   19.5588 C   0  0  0  0  0  0
  -29.0616  -22.0086   18.4870 C   0  0  0  0  0  0
  -28.5900  -24.2353   19.9708 C   0  0  0  0  0  0
  -31.1419  -18.3088   17.6386 C   0  0  0  0  0  0
  -29.2981  -20.8542   17.5193 C   0  0  0  0  0  0
  -28.3145  -25.4692   20.8229 C   0  0  0  0  0  0
  -29.7700  -17.4972   20.8833 C   0  0  0  0  0  0
  -29.3353  -16.1936   21.6067 C   0  0  0  0  0  0
  -28.9717  -19.4363   18.0621 C   0  0  0  0  0  0
  -29.6276  -17.4268   19.3490 C   0  0  0  0  0  0
  -27.7693  -22.2704   18.8113 N   0  0  0  0  0  0
  -29.8843  -23.9670   19.6569 N   0  0  0  0  0  0
  -30.3940  -15.1766   21.6859 N   0  0  0  0  0  0
  -30.1049  -18.6563   18.6474 N   0  3  1  0  0  0
  -31.4400  -12.4066   19.0764 H   0  0  0  0  0  0
  -30.2897  -11.2883   19.7499 H   0  0  0  0  0  0
  -29.6983  -11.8741   17.3671 H   0  0  0  0  0  0
  -29.6166  -13.5591   17.7876 H   0  0  0  0  0  0
  -27.8034  -11.3355   18.7833 H   0  0  0  0  0  0
  -27.3283  -12.6943   17.8004 H   0  0  0  0  0  0
  -27.7067  -14.2572   19.6069 H   0  0  0  0  0  0
  -28.6753  -11.9188   21.3205 H   0  0  0  0  0  0
  -28.4627  -13.5407   21.8888 H   0  0  0  0  0  0
  -25.2790   -9.5576   22.4822 H   0  0  0  0  0  0
  -23.9985   -7.4563   22.7482 H   0  0  0  0  0  0
  -21.0864   -8.8825   19.8970 H   0  0  0  0  0  0
  -22.3800  -10.9689   19.6218 H   0  0  0  0  0  0
  -21.2023   -7.6144   23.9667 H   0  0  0  0  0  0
  -21.1477   -6.0550   25.9062 H   0  0  0  0  0  0
  -22.0609   -2.7596   23.2890 H   0  0  0  0  0  0
  -22.4139  -11.9781   22.4757 H   0  0  0  0  0  0
  -21.1121  -13.1157   22.2802 H   0  0  0  0  0  0
  -24.6594  -15.8424   20.5335 H   0  0  0  0  0  0
  -26.2746  -15.6199   20.0828 H   0  0  0  0  0  0
  -26.7077  -32.5532   23.1165 H   0  0  0  0  0  0
  -24.9944  -33.9771   25.0435 H   0  0  0  0  0  0
  -22.6880  -31.3057   21.4148 H   0  0  0  0  0  0
  -23.3735  -35.9663   23.3318 H   0  0  0  0  0  0
  -24.3592  -36.8918   22.2058 H   0  0  0  0  0  0
  -23.7249  -37.6529   23.6636 H   0  0  0  0  0  0
  -26.0402  -31.6051   20.5953 H   0  0  0  0  0  0
  -26.8157  -30.8915   21.9817 H   0  0  0  0  0  0
  -28.1038  -29.1214   21.1504 H   0  0  0  0  0  0
  -26.0682  -25.9660   19.0287 H   0  0  0  0  0  0
  -23.9781  -27.2805   19.0522 H   0  0  0  0  0  0
  -23.7108  -30.5876   19.4040 H   0  0  0  0  0  0
  -22.7361  -29.2296   19.8787 H   0  0  0  0  0  0
  -25.1284  -36.1984   25.0839 H   0  0  0  0  0  0
  -20.9944  -28.3175   24.1441 H   0  0  0  0  0  0
  -20.5641  -26.2233   23.3595 H   0  0  0  0  0  0
  -21.6622  -26.7411   22.1224 H   0  0  0  0  0  0
  -19.6910  -25.6315   21.1179 H   0  0  0  0  0  0
  -19.6672  -27.3238   20.6757 H   0  0  0  0  0  0
  -17.4194  -26.6636   21.4011 H   0  0  0  0  0  0
  -18.0324  -26.0025   22.8999 H   0  0  0  0  0  0
  -19.7902  -30.7239   24.2287 H   0  0  0  0  0  0
  -17.4972  -31.6248   24.5143 H   0  0  0  0  0  0
  -15.5318  -30.2950   23.7646 H   0  0  0  0  0  0
  -15.8644  -28.0789   22.7061 H   0  0  0  0  0  0
  -24.5985  -30.6883   25.7754 H   0  0  0  0  0  0
  -24.8866  -32.2683   26.4933 H   0  0  0  0  0  0
  -25.8129  -30.8726   27.0195 H   0  0  0  0  0  0
  -26.2793  -29.6750   24.1163 H   0  0  0  0  0  0
  -27.4155  -29.7239   25.4455 H   0  0  0  0  0  0
  -27.8592  -30.4338   23.9106 H   0  0  0  0  0  0
  -27.2792  -33.3532   26.2049 H   0  0  0  0  0  0
  -28.3853  -32.6741   25.0196 H   0  0  0  0  0  0
  -28.0799  -31.8293   26.5289 H   0  0  0  0  0  0
  -28.2603  -38.0092   24.7508 H   0  0  0  0  0  0
  -28.1065  -36.2620   24.6293 H   0  0  0  0  0  0
  -27.2304  -37.1468   25.8875 H   0  0  0  0  0  0
  -20.9316  -29.8654   21.6911 H   0  0  0  0  0  0
  -26.0192  -38.2871   24.1396 H   0  0  0  0  0  0
  -31.1411  -22.6649   18.6352 H   0  0  0  0  0  0
  -26.5124  -23.5832   19.8235 H   0  0  0  0  0  0
  -30.7218  -17.6728   16.8553 H   0  0  0  0  0  0
  -31.9692  -17.7648   18.0948 H   0  0  0  0  0  0
  -31.5786  -19.1827   17.1563 H   0  0  0  0  0  0
  -30.3057  -20.9216   17.1103 H   0  0  0  0  0  0
  -28.6468  -21.0412   16.6649 H   0  0  0  0  0  0
  -29.0577  -25.4999   21.6207 H   0  0  0  0  0  0
  -27.3532  -25.3440   21.3287 H   0  0  0  0  0  0
  -29.1431  -18.3179   21.2402 H   0  0  0  0  0  0
  -30.7928  -17.7598   21.1654 H   0  0  0  0  0  0
  -29.0702  -16.4393   22.6362 H   0  0  0  0  0  0
  -28.4248  -15.7937   21.1632 H   0  0  0  0  0  0
  -28.5707  -18.8412   17.2407 H   0  0  0  0  0  0
  -28.1588  -19.5156   18.7843 H   0  0  0  0  0  0
  -28.5834  -17.2221   19.0995 H   0  0  0  0  0  0
  -30.1727  -16.5557   18.9867 H   0  0  0  0  0  0
  -31.2057  -15.5498   22.1580 H   0  0  0  0  0  0
  -30.5566  -19.2337   19.3398 H   0  0  0  0  0  0
  1 25  1  0  0  0
  1 30  2  0  0  0
  1 84  1  0  0  0
  2  3  1  0  0  0
  2 25  1  0  0  0
  2 86  1  0  0  0
  2 87  1  0  0  0
  3  4  1  0  0  0
  3 88  1  0  0  0
  3 89  1  0  0  0
  4  5  1  0  0  0
  4 90  1  0  0  0
  4 91  1  0  0  0
  5  6  1  0  0  0
  5 26  1  0  0  0
  5 92  1  0  0  0
  6 25  1  0  0  0
  6 93  1  0  0  0
  6 94  1  0  0  0
  7  8  2  0  0  0
  7 26  1  0  0  0
  7 29  1  0  0  0
  8  9  1  0  0  0
  8 22  1  0  0  0
  9 10  1  0  0  0
  9 27  2  0  0  0
 10 11  2  0  0  0
 10 15  1  0  0  0
 11 12  1  0  0  0
 11 95  1  0  0  0
 12 13  2  0  0  0
 12 96  1  0  0  0
 13 14  1  0  0  0
 13 31  1  0  0  0
 14 15  2  0  0  0
 14 97  1  0  0  0
 15 98  1  0  0  0
 16 17  2  0  0  0
 16 21  1  0  0  0
 16 31  1  0  0  0
 17 18  1  0  0  0
 17 99  1  0  0  0
 18 19  2  0  0  0
 18100  1  0  0  0
 19 20  1  0  0  0
 19 24  1  0  0  0
 20 21  2  0  0  0
 20101  1  0  0  0
 21 23  1  0  0  0
 22 28  1  0  0  0
 22 32  2  0  0  0
 26 27  1  0  0  0
 28102  1  0  0  0
 28103  1  0  0  0
 29104  1  0  0  0
 29105  1  0  0  0
 33 34  1  0  0  0
 33 66  1  0  0  0
 33 70  2  0  0  0
 34 36  1  0  0  0
 34 59  1  0  0  0
 34106  1  0  0  0
 35 44  2  0  0  0
 35 45  1  0  0  0
 35 68  1  0  0  0
 36 56  1  0  0  0
 36107  1  0  0  0
 37 39  1  0  0  0
 37 47  1  0  0  0
 37 66  1  0  0  0
 37108  1  0  0  0
 38 43  2  0  0  0
 38 46  1  0  0  0
 38 47  1  0  0  0
 39 64  1  0  0  0
 39 67  2  0  0  0
 40 52  1  0  0  0
 40 53  2  0  0  0
 40 58  1  0  0  0
 41109  1  0  0  0
 41110  1  0  0  0
 41111  1  0  0  0
 41 48  1  0  0  0
 42 43  1  0  0  0
 42 66  1  0  0  0
 42112  1  0  0  0
 42113  1  0  0  0
 43 44  1  0  0  0
 44114  1  0  0  0
 45 46  2  0  0  0
 45115  1  0  0  0
 46116  1  0  0  0
 47117  1  0  0  0
 47118  1  0  0  0
 48 56  1  0  0  0
 48 65  1  0  0  0
 48119  1  0  0  0
 49 50  1  0  0  0
 49 53  1  0  0  0
 49 64  1  0  0  0
 49120  1  0  0  0
 50 51  1  0  0  0
 50121  1  0  0  0
 50122  1  0  0  0
 51 52  1  0  0  0
 51123  1  0  0  0
 51124  1  0  0  0
 52125  1  0  0  0
 52126  1  0  0  0
 53 54  1  0  0  0
 54 55  2  0  0  0
 54127  1  0  0  0
 55 57  1  0  0  0
 55128  1  0  0  0
 56 69  2  0  0  0
 57 58  2  0  0  0
 57129  1  0  0  0
 58130  1  0  0  0
 59 60  1  0  0  0
 59 61  1  0  0  0
 59 62  1  0  0  0
 60131  1  0  0  0
 60132  1  0  0  0
 60133  1  0  0  0
 61134  1  0  0  0
 61135  1  0  0  0
 61136  1  0  0  0
 62137  1  0  0  0
 62138  1  0  0  0
 62139  1  0  0  0
 63 65  1  0  0  0
 63140  1  0  0  0
 63141  1  0  0  0
 63142  1  0  0  0
 64143  1  0  0  0
 65144  1  0  0  0
 68 77  1  0  0  0
 71 73  2  0  0  0
 71 83  1  0  0  0
 71145  1  0  0  0
 72 74  1  0  0  0
 72 82  2  0  0  0
 72146  1  0  0  0
 73 76  1  0  0  0
 73 82  1  0  0  0
 74 77  1  0  0  0
 74 83  2  0  0  0
 75147  1  0  0  0
 75148  1  0  0  0
 75149  1  0  0  0
 75 85  1  0  0  0
 76 80  1  0  0  0
 76150  1  0  0  0
 76151  1  0  0  0
 77152  1  0  0  0
 77153  1  0  0  0
 78 79  1  0  0  0
 78 81  1  0  0  0
 78154  1  0  0  0
 78155  1  0  0  0
 79 84  1  0  0  0
 79156  1  0  0  0
 79157  1  0  0  0
 80 85  1  0  0  0
 80158  1  0  0  0
 80159  1  0  0  0
 81 85  1  0  0  0
 81160  1  0  0  0
 81161  1  0  0  0
 84162  1  0  0  0
 85163  1  0  0  0
M  CHG  1  85   1
M  ISO  4   1 100  68 101  77 101  84 100
M  END
> <chiral flag>
0

> <version>
0

> <s_m_source_file>
/data/baiqing/PycharmProjects/Reinvent-master-3.2/result/LINK_invent/BTK/process_docking_weight1_custom_sum_contain_oxygen_bond_distance_aromatic_linkinvent_7_9_3/rearranged_h_0054.sdf

> <i_m_source_file_index>
44

> <r_mmod_Potential_Energy-OPLS-2005>
-10.9035596847534

> <r_mmod_Stretch_Energy-OPLS-2005>
38.2331504821777

> <r_mmod_Bend_Energy-OPLS-2005>
106.902969360352

> <r_mmod_Torsional_Energy-OPLS-2005>
315.959564208984

> <r_mmod_Improper_Torsional_Energy-OPLS-2005>
7.24230575561523

> <r_mmod_Van_der_Waal_Energy-OPLS-2005>
150.656936645508

> <r_mmod_Electrostatic_Energy-OPLS-2005>
-175.416961669922

> <r_mmod_Solvation_Energy-OPLS-2005>
-462.923889160156

> <b_mmod_Minimization_Converged-OPLS-2005>
0

> <r_mmod_RMS_Derivative-OPLS-2005>
3.38007354736328

$$$$
44
                    3D
 Structure written by MMmdl.
148156  0  0  1  0            999 V2000
  -30.3072  -15.7296   20.2608 C   0  0  0  0  0  0
  -30.4646  -13.1364   19.5262 C   0  0  0  0  0  0
  -29.5820  -12.6918   18.3185 C   0  0  0  0  0  0
  -28.1600  -12.3120   18.7669 C   0  0  0  0  0  0
  -27.6204  -13.3202   19.8044 C   0  0  2  0  0  0
  -28.6488  -13.6720   20.9087 C   0  0  0  0  0  0
  -25.2417  -13.8225   20.5710 C   0  0  0  0  0  0
  -24.1786  -13.0389   20.9193 C   0  0  0  0  0  0
  -24.6544  -11.6930   20.8704 C   0  0  0  0  0  0
  -23.9209  -10.4289   21.0370 C   0  0  0  0  0  0
  -24.3707   -9.4209   21.9165 C   0  0  0  0  0  0
  -23.6324   -8.2278   22.0767 C   0  0  0  0  0  0
  -22.4313   -8.0331   21.3563 C   0  0  0  0  0  0
  -21.9984   -9.0312   20.4661 C   0  0  0  0  0  0
  -22.7358  -10.2150   20.3039 C   0  0  0  0  0  0
  -21.6882   -6.0756   22.5276 C   0  0  0  0  0  0
  -21.4022   -6.5647   23.8207 C   0  0  0  0  0  0
  -21.3648   -5.6791   24.9167 C   0  0  0  0  0  0
  -21.6044   -4.3064   24.7217 C   0  0  0  0  0  0
  -21.8825   -3.8156   23.4335 C   0  0  0  0  0  0
  -21.9208   -4.6974   22.3399 C   0  0  0  0  0  0
  -22.7806  -13.5141   21.1832 C   0  0  0  0  0  0
  -22.1680   -4.2171   21.0972 F   0  0  0  0  0  0
  -21.5623   -3.4540   25.7714 F   0  0  0  0  0  0
  -29.8289  -14.3250   20.2653 N   0  0  0  0  0  0
  -26.2974  -12.9644   20.3228 N   0  0  0  0  0  0
  -25.9527  -11.6699   20.5657 N   0  0  0  0  0  0
  -22.0469  -12.8126   22.0396 N   0  0  0  0  0  0
  -25.3854  -15.1916   20.4088 N   0  0  0  0  0  0
  -31.5478  -15.6599   20.1421 O   0  0  0  0  0  0
  -21.6673   -6.8926   21.4253 O   0  0  0  0  0  0
  -22.3472  -14.5443   20.6681 O   0  0  0  0  0  0
  -24.6943  -31.7930   23.1425 C   0  0  0  0  0  0
  -25.9485  -32.4442   23.8007 C   0  0  1  0  0  0
  -27.2875  -26.6664   20.1880 C   0  0  0  0  0  0
  -25.6038  -33.8269   24.1912 N   0  0  0  0  0  0
  -23.5265  -30.3853   21.4993 C   0  0  2  0  0  0
  -24.9962  -28.7106   20.1167 C   0  0  0  0  0  0
  -22.7825  -29.4294   22.4719 C   0  0  0  0  0  0
  -18.0352  -28.1456   22.8442 C   0  0  0  0  0  0
  -24.1467  -36.7139   23.2657 C   0  0  0  0  0  0
  -26.1099  -30.5146   21.4068 C   0  0  0  0  0  0
  -26.1862  -29.0707   20.7575 C   0  0  0  0  0  0
  -27.3135  -28.0816   20.7581 C   0  0  0  0  0  0
  -26.0543  -26.5285   19.4950 C   0  0  0  0  0  0
  -24.9718  -27.4665   19.4598 C   0  0  0  0  0  0
  -23.7832  -29.6613   20.1425 C   0  0  0  0  0  0
  -25.4116  -36.2881   24.0280 C   0  0  1  0  0  0
  -20.5984  -28.3811   23.1136 C   0  0  2  0  0  0
  -20.6818  -26.9470   22.5412 C   0  0  0  0  0  0
  -19.5808  -26.6381   21.5233 C   0  0  0  0  0  0
  -18.1974  -26.7981   22.1609 C   0  0  0  0  0  0
  -19.1614  -28.8965   23.2761 C   0  0  0  0  0  0
  -18.9540  -30.1546   23.8811 C   0  0  0  0  0  0
  -17.6529  -30.6636   24.0556 C   0  0  0  0  0  0
  -25.9124  -34.9286   23.4921 C   0  0  0  0  0  0
  -16.5416  -29.9117   23.6375 C   0  0  0  0  0  0
  -16.7330  -28.6548   23.0371 C   0  0  0  0  0  0
  -26.4604  -31.6517   25.0640 C   0  0  0  0  0  0
  -25.3659  -31.3845   26.1254 C   0  0  0  0  0  0
  -27.0531  -30.2855   24.6536 C   0  0  0  0  0  0
  -27.6054  -32.4370   25.7471 C   0  0  0  0  0  0
  -27.5519  -37.1730   24.8484 C   0  0  0  0  0  0
  -21.4473  -29.3037   22.3456 N   0  0  0  0  0  0
  -26.4223  -37.3658   23.9422 N   0  0  0  0  0  0
  -24.8013  -30.9305   22.0714 N   0  0  0  0  0  0
  -23.4222  -28.7901   23.3098 O   0  0  0  0  0  0
  -28.2615  -25.4302   20.2620 O   0  0  0  0  0  0
  -26.5751  -34.8893   22.4518 O   0  0  0  0  0  0
  -23.5945  -32.0998   23.6336 O   0  0  0  0  0  0
  -28.5465  -20.4759   20.2794 C   0  0  0  0  0  0
  -30.5402  -20.1824   19.9675 C   0  0  0  0  0  0
  -28.9157  -21.9558   20.1608 C   0  0  0  0  0  0
  -29.1754  -17.3148   18.5438 C   0  0  0  0  0  0
  -28.1244  -17.1952   20.8802 C   0  0  0  0  0  0
  -28.0707  -23.6731   19.9875 C   0  0  0  0  0  0
  -29.4136  -17.4216   20.0751 C   0  0  0  0  0  0
  -30.2845  -21.5685   19.9420 N   0  0  0  0  0  0
  -29.5409  -19.2526   20.1810 N   0  0  0  0  0  0
  -31.4487  -13.4108   19.1433 H   0  0  0  0  0  0
  -30.6472  -12.2939   20.1979 H   0  0  0  0  0  0
  -29.5278  -13.5172   17.6065 H   0  0  0  0  0  0
  -30.0509  -11.8583   17.7927 H   0  0  0  0  0  0
  -28.2083  -11.3172   19.2171 H   0  0  0  0  0  0
  -27.4928  -12.2333   17.9087 H   0  0  0  0  0  0
  -27.4731  -14.2391   19.2318 H   0  0  0  0  0  0
  -28.9273  -12.7924   21.4881 H   0  0  0  0  0  0
  -28.1992  -14.3468   21.6316 H   0  0  0  0  0  0
  -25.2871   -9.5670   22.4739 H   0  0  0  0  0  0
  -24.0026   -7.4680   22.7497 H   0  0  0  0  0  0
  -21.0925   -8.8864   19.8962 H   0  0  0  0  0  0
  -22.3854  -10.9694   19.6142 H   0  0  0  0  0  0
  -21.2011   -7.6159   23.9711 H   0  0  0  0  0  0
  -21.1452   -6.0526   25.9065 H   0  0  0  0  0  0
  -22.0604   -2.7628   23.2830 H   0  0  0  0  0  0
  -22.4072  -11.9809   22.4832 H   0  0  0  0  0  0
  -21.1085  -13.1175   22.2545 H   0  0  0  0  0  0
  -24.6118  -15.8395   20.5104 H   0  0  0  0  0  0
  -26.2435  -15.6473   20.1323 H   0  0  0  0  0  0
  -26.7569  -32.4901   23.0736 H   0  0  0  0  0  0
  -25.0197  -33.9304   25.0061 H   0  0  0  0  0  0
  -22.8567  -31.2239   21.2962 H   0  0  0  0  0  0
  -23.3741  -35.9474   23.3334 H   0  0  0  0  0  0
  -24.3536  -36.8767   22.2077 H   0  0  0  0  0  0
  -23.7230  -37.6318   23.6711 H   0  0  0  0  0  0
  -26.3060  -31.2320   20.6073 H   0  0  0  0  0  0
  -26.9666  -30.5993   22.0634 H   0  0  0  0  0  0
  -28.2093  -28.3859   21.2811 H   0  0  0  0  0  0
  -25.8902  -25.5853   18.9944 H   0  0  0  0  0  0
  -24.0773  -27.1825   18.9253 H   0  0  0  0  0  0
  -23.9515  -30.4131   19.3719 H   0  0  0  0  0  0
  -22.8907  -29.1162   19.8282 H   0  0  0  0  0  0
  -25.1335  -36.1628   25.0771 H   0  0  0  0  0  0
  -21.0059  -28.3436   24.1266 H   0  0  0  0  0  0
  -20.5713  -26.2438   23.3667 H   0  0  0  0  0  0
  -21.6668  -26.7424   22.1208 H   0  0  0  0  0  0
  -19.6970  -25.6278   21.1308 H   0  0  0  0  0  0
  -19.6749  -27.3153   20.6734 H   0  0  0  0  0  0
  -17.4239  -26.6738   21.4005 H   0  0  0  0  0  0
  -18.0353  -26.0142   22.9028 H   0  0  0  0  0  0
  -19.8025  -30.7380   24.2114 H   0  0  0  0  0  0
  -17.5102  -31.6311   24.5184 H   0  0  0  0  0  0
  -15.5424  -30.3006   23.7779 H   0  0  0  0  0  0
  -15.8719  -28.0865   22.7128 H   0  0  0  0  0  0
  -24.5895  -30.7138   25.7543 H   0  0  0  0  0  0
  -24.8793  -32.3076   26.4430 H   0  0  0  0  0  0
  -25.7832  -30.9173   27.0185 H   0  0  0  0  0  0
  -26.3257  -29.6493   24.1481 H   0  0  0  0  0  0
  -27.3932  -29.7275   25.5270 H   0  0  0  0  0  0
  -27.9233  -30.3995   24.0065 H   0  0  0  0  0  0
  -27.2604  -33.3759   26.1814 H   0  0  0  0  0  0
  -28.3974  -32.6795   25.0375 H   0  0  0  0  0  0
  -28.0594  -31.8652   26.5574 H   0  0  0  0  0  0
  -28.2561  -37.9995   24.7464 H   0  0  0  0  0  0
  -28.0971  -36.2526   24.6369 H   0  0  0  0  0  0
  -27.2248  -37.1445   25.8889 H   0  0  0  0  0  0
  -20.9837  -29.8642   21.6451 H   0  0  0  0  0  0
  -26.0051  -38.2698   24.1439 H   0  0  0  0  0  0
  -27.5196  -20.1649   20.4090 H   0  0  0  0  0  0
  -31.5441  -19.8336   19.7509 H   0  0  0  0  0  0
  -28.4528  -18.0402   18.1753 H   0  0  0  0  0  0
  -28.8407  -16.3299   18.2156 H   0  0  0  0  0  0
  -30.1033  -17.5106   17.9983 H   0  0  0  0  0  0
  -27.8017  -18.0896   21.4134 H   0  0  0  0  0  0
  -28.2585  -16.4602   21.6678 H   0  0  0  0  0  0
  -27.3036  -16.8910   20.2392 H   0  0  0  0  0  0
  -27.0689  -23.5176   20.3867 H   0  0  0  0  0  0
  -27.8954  -23.7025   18.9119 H   0  0  0  0  0  0
  1 25  1  0  0  0
  1 30  2  0  0  0
  1 77  1  0  0  0
  2  3  1  0  0  0
  2 25  1  0  0  0
  2 80  1  0  0  0
  2 81  1  0  0  0
  3  4  1  0  0  0
  3 82  1  0  0  0
  3 83  1  0  0  0
  4  5  1  0  0  0
  4 84  1  0  0  0
  4 85  1  0  0  0
  5  6  1  0  0  0
  5 26  1  0  0  0
  5 86  1  0  0  0
  6 25  1  0  0  0
  6 87  1  0  0  0
  6 88  1  0  0  0
  7  8  2  0  0  0
  7 26  1  0  0  0
  7 29  1  0  0  0
  8  9  1  0  0  0
  8 22  1  0  0  0
  9 10  1  0  0  0
  9 27  2  0  0  0
 10 11  2  0  0  0
 10 15  1  0  0  0
 11 12  1  0  0  0
 11 89  1  0  0  0
 12 13  2  0  0  0
 12 90  1  0  0  0
 13 14  1  0  0  0
 13 31  1  0  0  0
 14 15  2  0  0  0
 14 91  1  0  0  0
 15 92  1  0  0  0
 16 17  2  0  0  0
 16 21  1  0  0  0
 16 31  1  0  0  0
 17 18  1  0  0  0
 17 93  1  0  0  0
 18 19  2  0  0  0
 18 94  1  0  0  0
 19 20  1  0  0  0
 19 24  1  0  0  0
 20 21  2  0  0  0
 20 95  1  0  0  0
 21 23  1  0  0  0
 22 28  1  0  0  0
 22 32  2  0  0  0
 26 27  1  0  0  0
 28 96  1  0  0  0
 28 97  1  0  0  0
 29 98  1  0  0  0
 29 99  1  0  0  0
 33 34  1  0  0  0
 33 66  1  0  0  0
 33 70  2  0  0  0
 34 36  1  0  0  0
 34 59  1  0  0  0
 34100  1  0  0  0
 35 44  2  0  0  0
 35 45  1  0  0  0
 35 68  1  0  0  0
 36 56  1  0  0  0
 36101  1  0  0  0
 37 39  1  0  0  0
 37 47  1  0  0  0
 37 66  1  0  0  0
 37102  1  0  0  0
 38 43  2  0  0  0
 38 46  1  0  0  0
 38 47  1  0  0  0
 39 64  1  0  0  0
 39 67  2  0  0  0
 40 52  1  0  0  0
 40 53  2  0  0  0
 40 58  1  0  0  0
 41103  1  0  0  0
 41104  1  0  0  0
 41105  1  0  0  0
 41 48  1  0  0  0
 42 43  1  0  0  0
 42 66  1  0  0  0
 42106  1  0  0  0
 42107  1  0  0  0
 43 44  1  0  0  0
 44108  1  0  0  0
 45 46  2  0  0  0
 45109  1  0  0  0
 46110  1  0  0  0
 47111  1  0  0  0
 47112  1  0  0  0
 48 56  1  0  0  0
 48 65  1  0  0  0
 48113  1  0  0  0
 49 50  1  0  0  0
 49 53  1  0  0  0
 49 64  1  0  0  0
 49114  1  0  0  0
 50 51  1  0  0  0
 50115  1  0  0  0
 50116  1  0  0  0
 51 52  1  0  0  0
 51117  1  0  0  0
 51118  1  0  0  0
 52119  1  0  0  0
 52120  1  0  0  0
 53 54  1  0  0  0
 54 55  2  0  0  0
 54121  1  0  0  0
 55 57  1  0  0  0
 55122  1  0  0  0
 56 69  2  0  0  0
 57 58  2  0  0  0
 57123  1  0  0  0
 58124  1  0  0  0
 59 60  1  0  0  0
 59 61  1  0  0  0
 59 62  1  0  0  0
 60125  1  0  0  0
 60126  1  0  0  0
 60127  1  0  0  0
 61128  1  0  0  0
 61129  1  0  0  0
 61130  1  0  0  0
 62131  1  0  0  0
 62132  1  0  0  0
 62133  1  0  0  0
 63 65  1  0  0  0
 63134  1  0  0  0
 63135  1  0  0  0
 63136  1  0  0  0
 64137  1  0  0  0
 65138  1  0  0  0
 68 76  1  0  0  0
 71 73  2  0  0  0
 71 79  1  0  0  0
 71139  1  0  0  0
 72 78  2  0  0  0
 72 79  1  0  0  0
 72140  1  0  0  0
 73 76  1  0  0  0
 73 78  1  0  0  0
 74141  1  0  0  0
 74142  1  0  0  0
 74143  1  0  0  0
 74 77  1  0  0  0
 75 77  1  0  0  0
 75144  1  0  0  0
 75145  1  0  0  0
 75146  1  0  0  0
 76147  1  0  0  0
 76148  1  0  0  0
 77 79  1  0  0  0
M  ISO  4   1 100  68 101  76 101  77 100
M  END
> <chiral flag>
0

> <version>
0

> <s_m_source_file>
/data/baiqing/PycharmProjects/Reinvent-master-3.2/result/LINK_invent/BTK/process_docking_weight1_custom_sum_contain_oxygen_bond_distance_aromatic_linkinvent_7_9_3/rearranged_h_0054.sdf

> <i_m_source_file_index>
45

> <r_mmod_Potential_Energy-OPLS-2005>
2873.71118164062

> <r_mmod_Stretch_Energy-OPLS-2005>
1229.28918457031

> <r_mmod_Bend_Energy-OPLS-2005>
758.841918945312

> <r_mmod_Torsional_Energy-OPLS-2005>
252.245941162109

> <r_mmod_Improper_Torsional_Energy-OPLS-2005>
10.0575065612793

> <r_mmod_Van_der_Waal_Energy-OPLS-2005>
109.232414245605

> <r_mmod_Electrostatic_Energy-OPLS-2005>
-272.082489013672

> <r_mmod_Solvation_Energy-OPLS-2005>
-222.329559326172

> <b_mmod_Minimization_Converged-OPLS-2005>
0

> <r_mmod_RMS_Derivative-OPLS-2005>
6.40222358703613

$$$$
45
                    3D
 Structure written by MMmdl.
151159  0  0  1  0            999 V2000
  -30.2864  -15.6662   20.3629 C   0  0  0  0  0  0
  -30.4278  -13.0718   19.6359 C   0  0  0  0  0  0
  -29.5982  -12.7118   18.3699 C   0  0  0  0  0  0
  -28.1448  -12.3623   18.7406 C   0  0  0  0  0  0
  -27.6063  -13.3217   19.8282 C   0  0  2  0  0  0
  -28.5988  -13.6272   20.9742 C   0  0  0  0  0  0
  -25.2407  -13.8329   20.5766 C   0  0  0  0  0  0
  -24.1752  -13.0491   20.9192 C   0  0  0  0  0  0
  -24.6414  -11.6973   20.8630 C   0  0  0  0  0  0
  -23.9075  -10.4316   21.0289 C   0  0  0  0  0  0
  -24.3637   -9.4258   21.9111 C   0  0  0  0  0  0
  -23.6299   -8.2306   22.0731 C   0  0  0  0  0  0
  -22.4293   -8.0300   21.3528 C   0  0  0  0  0  0
  -21.9927   -9.0243   20.4595 C   0  0  0  0  0  0
  -22.7240  -10.2122   20.2975 C   0  0  0  0  0  0
  -21.6887   -6.0719   22.5243 C   0  0  0  0  0  0
  -21.4017   -6.5601   23.8180 C   0  0  0  0  0  0
  -21.3686   -5.6738   24.9134 C   0  0  0  0  0  0
  -21.6091   -4.3000   24.7179 C   0  0  0  0  0  0
  -21.8821   -3.8107   23.4283 C   0  0  0  0  0  0
  -21.9236   -4.6950   22.3355 C   0  0  0  0  0  0
  -22.7760  -13.5273   21.1803 C   0  0  0  0  0  0
  -22.1695   -4.2130   21.0920 F   0  0  0  0  0  0
  -21.5661   -3.4491   25.7686 F   0  0  0  0  0  0
  -29.7950  -14.2730   20.3767 N   0  0  0  0  0  0
  -26.2831  -12.9631   20.3178 N   0  0  0  0  0  0
  -25.9383  -11.6697   20.5540 N   0  0  0  0  0  0
  -22.0383  -12.8300   22.0317 N   0  0  0  0  0  0
  -25.4214  -15.2048   20.4283 N   0  0  0  0  0  0
  -31.4897  -15.5717   20.0315 O   0  0  0  0  0  0
  -21.6702   -6.8872   21.4199 O   0  0  0  0  0  0
  -22.3472  -14.5550   20.6559 O   0  0  0  0  0  0
  -24.6860  -31.7942   23.1439 C   0  0  0  0  0  0
  -25.9453  -32.4422   23.8030 C   0  0  1  0  0  0
  -27.2387  -26.6418   20.2536 C   0  0  0  0  0  0
  -25.5997  -33.8236   24.1941 N   0  0  0  0  0  0
  -23.5153  -30.3870   21.5031 C   0  0  2  0  0  0
  -24.9794  -28.7083   20.1288 C   0  0  0  0  0  0
  -22.7766  -29.4302   22.4774 C   0  0  0  0  0  0
  -18.0345  -28.1428   22.8469 C   0  0  0  0  0  0
  -24.1472  -36.7012   23.2651 C   0  0  0  0  0  0
  -26.0994  -30.5035   21.4260 C   0  0  0  0  0  0
  -26.1652  -29.0597   20.7856 C   0  0  0  0  0  0
  -27.2770  -28.0564   20.8114 C   0  0  0  0  0  0
  -26.0153  -26.5082   19.5467 C   0  0  0  0  0  0
  -24.9459  -27.4574   19.4872 C   0  0  0  0  0  0
  -23.7682  -29.6558   20.1487 C   0  0  0  0  0  0
  -25.4143  -36.2848   24.0303 C   0  0  1  0  0  0
  -20.5970  -28.3791   23.1140 C   0  0  2  0  0  0
  -20.6793  -26.9460   22.5386 C   0  0  0  0  0  0
  -19.5760  -26.6409   21.5211 C   0  0  0  0  0  0
  -18.1954  -26.7966   22.1628 C   0  0  0  0  0  0
  -19.1605  -28.8952   23.2776 C   0  0  0  0  0  0
  -18.9525  -30.1550   23.8796 C   0  0  0  0  0  0
  -17.6515  -30.6613   24.0556 C   0  0  0  0  0  0
  -25.9159  -34.9246   23.4982 C   0  0  0  0  0  0
  -16.5401  -29.9081   23.6379 C   0  0  0  0  0  0
  -16.7336  -28.6499   23.0408 C   0  0  0  0  0  0
  -26.4653  -31.6452   25.0656 C   0  0  0  0  0  0
  -25.3707  -31.3694   26.1253 C   0  0  0  0  0  0
  -27.0625  -30.2786   24.6603 C   0  0  0  0  0  0
  -27.6126  -32.4314   25.7418 C   0  0  0  0  0  0
  -27.5561  -37.1663   24.8502 C   0  0  0  0  0  0
  -21.4435  -29.3012   22.3439 N   0  0  0  0  0  0
  -26.4275  -37.3611   23.9440 N   0  0  0  0  0  0
  -24.7904  -30.9311   22.0733 N   0  0  0  0  0  0
  -23.4180  -28.8003   23.3215 O   0  0  0  0  0  0
  -28.2174  -25.4147   20.3098 O   0  0  0  0  0  0
  -26.5835  -34.8840   22.4628 O   0  0  0  0  0  0
  -23.5883  -32.1097   23.6319 O   0  0  0  0  0  0
  -29.7529  -18.7146   19.9022 C   0  0  0  0  0  0
  -29.6044  -17.3750   20.5808 C   0  0  0  0  0  0
  -29.1064  -20.0427   20.5001 C   0  0  0  0  0  0
  -27.7114  -18.2084   23.9190 C   0  0  0  0  0  0
  -29.6136  -16.5868   23.6979 C   0  0  0  0  0  0
  -29.1284  -21.9563   20.3304 C   0  0  0  0  0  0
  -28.0723  -23.6241   20.3233 C   0  0  0  0  0  0
  -28.4600  -17.2789   22.9291 C   0  0  0  0  0  0
  -28.6474  -19.3871   21.6070 N   0  0  0  0  0  0
  -28.9084  -17.9657   21.6892 N   0  0  0  0  0  0
  -31.4638  -13.2736   19.3574 H   0  0  0  0  0  0
  -30.5049  -12.1978   20.2877 H   0  0  0  0  0  0
  -30.0710  -11.8904   17.8310 H   0  0  0  0  0  0
  -29.6130  -13.5709   17.6987 H   0  0  0  0  0  0
  -28.1277  -11.3328   19.0986 H   0  0  0  0  0  0
  -27.5198  -12.3962   17.8481 H   0  0  0  0  0  0
  -27.4845  -14.2667   19.2936 H   0  0  0  0  0  0
  -28.8419  -12.7227   21.5364 H   0  0  0  0  0  0
  -28.1456  -14.3029   21.6979 H   0  0  0  0  0  0
  -25.2761   -9.5812   22.4678 H   0  0  0  0  0  0
  -24.0037   -7.4726   22.7454 H   0  0  0  0  0  0
  -21.0916   -8.8696   19.8866 H   0  0  0  0  0  0
  -22.3649  -10.9651   19.6050 H   0  0  0  0  0  0
  -21.1965   -7.6108   23.9688 H   0  0  0  0  0  0
  -21.1538   -6.0461   25.9070 H   0  0  0  0  0  0
  -22.0601   -2.7572   23.2793 H   0  0  0  0  0  0
  -22.3995  -12.0028   22.4858 H   0  0  0  0  0  0
  -21.0911  -13.1266   22.2255 H   0  0  0  0  0  0
  -24.6697  -15.8789   20.5154 H   0  0  0  0  0  0
  -26.2884  -15.6191   20.1093 H   0  0  0  0  0  0
  -26.7547  -32.4898   23.0752 H   0  0  0  0  0  0
  -24.9993  -33.9265   24.9997 H   0  0  0  0  0  0
  -22.8456  -31.2238   21.2980 H   0  0  0  0  0  0
  -23.3838  -35.9238   23.3285 H   0  0  0  0  0  0
  -24.3512  -36.8686   22.2070 H   0  0  0  0  0  0
  -23.7136  -37.6129   23.6756 H   0  0  0  0  0  0
  -26.3217  -31.2171   20.6302 H   0  0  0  0  0  0
  -26.9426  -30.5693   22.1013 H   0  0  0  0  0  0
  -28.1631  -28.3343   21.3652 H   0  0  0  0  0  0
  -25.8444  -25.5568   19.0592 H   0  0  0  0  0  0
  -24.0507  -27.1647   18.9549 H   0  0  0  0  0  0
  -23.9102  -30.3944   19.3610 H   0  0  0  0  0  0
  -22.8760  -29.0926   19.8595 H   0  0  0  0  0  0
  -25.1361  -36.1587   25.0786 H   0  0  0  0  0  0
  -21.0082  -28.3426   24.1269 H   0  0  0  0  0  0
  -20.5634  -26.2445   23.3655 H   0  0  0  0  0  0
  -21.6650  -26.7377   22.1216 H   0  0  0  0  0  0
  -19.6908  -25.6326   21.1228 H   0  0  0  0  0  0
  -19.6677  -27.3228   20.6750 H   0  0  0  0  0  0
  -17.4218  -26.6773   21.4025 H   0  0  0  0  0  0
  -18.0335  -26.0107   22.9017 H   0  0  0  0  0  0
  -19.8000  -30.7404   24.2081 H   0  0  0  0  0  0
  -17.5056  -31.6280   24.5189 H   0  0  0  0  0  0
  -15.5385  -30.2950   23.7760 H   0  0  0  0  0  0
  -15.8744  -28.0762   22.7218 H   0  0  0  0  0  0
  -24.5973  -30.6996   25.7503 H   0  0  0  0  0  0
  -24.8807  -32.2849   26.4528 H   0  0  0  0  0  0
  -25.7874  -30.8922   27.0128 H   0  0  0  0  0  0
  -26.3424  -29.6407   24.1473 H   0  0  0  0  0  0
  -27.3933  -29.7196   25.5371 H   0  0  0  0  0  0
  -27.9428  -30.3932   24.0273 H   0  0  0  0  0  0
  -27.2763  -33.3739   26.1725 H   0  0  0  0  0  0
  -28.4021  -32.6660   25.0276 H   0  0  0  0  0  0
  -28.0724  -31.8608   26.5495 H   0  0  0  0  0  0
  -28.2573  -37.9969   24.7589 H   0  0  0  0  0  0
  -28.1078  -36.2497   24.6321 H   0  0  0  0  0  0
  -27.2254  -37.1256   25.8897 H   0  0  0  0  0  0
  -20.9819  -29.8479   21.6290 H   0  0  0  0  0  0
  -26.0084  -38.2645   24.1493 H   0  0  0  0  0  0
  -30.3547  -18.7680   19.0021 H   0  0  0  0  0  0
  -27.3441  -17.6659   24.7908 H   0  0  0  0  0  0
  -26.8493  -18.6863   23.4518 H   0  0  0  0  0  0
  -28.3729  -18.9977   24.2891 H   0  0  0  0  0  0
  -29.2518  -16.0649   24.5875 H   0  0  0  0  0  0
  -30.3686  -17.2994   24.0387 H   0  0  0  0  0  0
  -30.1135  -15.8267   23.1009 H   0  0  0  0  0  0
  -29.6902  -22.0934   19.4070 H   0  0  0  0  0  0
  -29.8690  -22.2179   21.0858 H   0  0  0  0  0  0
  -27.4599  -23.4992   21.2131 H   0  0  0  0  0  0
  -27.3824  -23.4642   19.4959 H   0  0  0  0  0  0
  -27.7449  -16.5122   22.6266 H   0  0  0  0  0  0
  1 25  1  0  0  0
  1 30  2  0  0  0
  1 72  1  0  0  0
  2  3  1  0  0  0
  2 25  1  0  0  0
  2 81  1  0  0  0
  2 82  1  0  0  0
  3  4  1  0  0  0
  3 83  1  0  0  0
  3 84  1  0  0  0
  4  5  1  0  0  0
  4 85  1  0  0  0
  4 86  1  0  0  0
  5  6  1  0  0  0
  5 26  1  0  0  0
  5 87  1  0  0  0
  6 25  1  0  0  0
  6 88  1  0  0  0
  6 89  1  0  0  0
  7  8  2  0  0  0
  7 26  1  0  0  0
  7 29  1  0  0  0
  8  9  1  0  0  0
  8 22  1  0  0  0
  9 10  1  0  0  0
  9 27  2  0  0  0
 10 11  2  0  0  0
 10 15  1  0  0  0
 11 12  1  0  0  0
 11 90  1  0  0  0
 12 13  2  0  0  0
 12 91  1  0  0  0
 13 14  1  0  0  0
 13 31  1  0  0  0
 14 15  2  0  0  0
 14 92  1  0  0  0
 15 93  1  0  0  0
 16 17  2  0  0  0
 16 21  1  0  0  0
 16 31  1  0  0  0
 17 18  1  0  0  0
 17 94  1  0  0  0
 18 19  2  0  0  0
 18 95  1  0  0  0
 19 20  1  0  0  0
 19 24  1  0  0  0
 20 21  2  0  0  0
 20 96  1  0  0  0
 21 23  1  0  0  0
 22 28  1  0  0  0
 22 32  2  0  0  0
 26 27  1  0  0  0
 28 97  1  0  0  0
 28 98  1  0  0  0
 29 99  1  0  0  0
 29100  1  0  0  0
 33 34  1  0  0  0
 33 66  1  0  0  0
 33 70  2  0  0  0
 34 36  1  0  0  0
 34 59  1  0  0  0
 34101  1  0  0  0
 35 44  2  0  0  0
 35 45  1  0  0  0
 35 68  1  0  0  0
 36 56  1  0  0  0
 36102  1  0  0  0
 37 39  1  0  0  0
 37 47  1  0  0  0
 37 66  1  0  0  0
 37103  1  0  0  0
 38 43  2  0  0  0
 38 46  1  0  0  0
 38 47  1  0  0  0
 39 64  1  0  0  0
 39 67  2  0  0  0
 40 52  1  0  0  0
 40 53  2  0  0  0
 40 58  1  0  0  0
 41104  1  0  0  0
 41105  1  0  0  0
 41106  1  0  0  0
 41 48  1  0  0  0
 42 43  1  0  0  0
 42 66  1  0  0  0
 42107  1  0  0  0
 42108  1  0  0  0
 43 44  1  0  0  0
 44109  1  0  0  0
 45 46  2  0  0  0
 45110  1  0  0  0
 46111  1  0  0  0
 47112  1  0  0  0
 47113  1  0  0  0
 48 56  1  0  0  0
 48 65  1  0  0  0
 48114  1  0  0  0
 49 50  1  0  0  0
 49 53  1  0  0  0
 49 64  1  0  0  0
 49115  1  0  0  0
 50 51  1  0  0  0
 50116  1  0  0  0
 50117  1  0  0  0
 51 52  1  0  0  0
 51118  1  0  0  0
 51119  1  0  0  0
 52120  1  0  0  0
 52121  1  0  0  0
 53 54  1  0  0  0
 54 55  2  0  0  0
 54122  1  0  0  0
 55 57  1  0  0  0
 55123  1  0  0  0
 56 69  2  0  0  0
 57 58  2  0  0  0
 57124  1  0  0  0
 58125  1  0  0  0
 59 60  1  0  0  0
 59 61  1  0  0  0
 59 62  1  0  0  0
 60126  1  0  0  0
 60127  1  0  0  0
 60128  1  0  0  0
 61129  1  0  0  0
 61130  1  0  0  0
 61131  1  0  0  0
 62132  1  0  0  0
 62133  1  0  0  0
 62134  1  0  0  0
 63 65  1  0  0  0
 63135  1  0  0  0
 63136  1  0  0  0
 63137  1  0  0  0
 64138  1  0  0  0
 65139  1  0  0  0
 68 77  1  0  0  0
 71 72  2  0  0  0
 71 73  1  0  0  0
 71140  1  0  0  0
 72 80  1  0  0  0
 73 76  1  0  0  0
 73 79  2  0  0  0
 74141  1  0  0  0
 74142  1  0  0  0
 74143  1  0  0  0
 74 78  1  0  0  0
 75 78  1  0  0  0
 75144  1  0  0  0
 75145  1  0  0  0
 75146  1  0  0  0
 76 77  1  0  0  0
 76147  1  0  0  0
 76148  1  0  0  0
 77149  1  0  0  0
 77150  1  0  0  0
 78 80  1  0  0  0
 78151  1  0  0  0
 79 80  1  0  0  0
M  ISO  4   1 100  68 101  72 100  77 101
M  END
> <chiral flag>
0

> <version>
0

> <s_m_source_file>
/data/baiqing/PycharmProjects/Reinvent-master-3.2/result/LINK_invent/BTK/process_docking_weight1_custom_sum_contain_oxygen_bond_distance_aromatic_linkinvent_7_9_3/rearranged_h_0054.sdf

> <i_m_source_file_index>
46

> <r_mmod_Potential_Energy-OPLS-2005>
2720.4892578125

> <r_mmod_Stretch_Energy-OPLS-2005>
1213.27709960938

> <r_mmod_Bend_Energy-OPLS-2005>
703.889770507812

> <r_mmod_Torsional_Energy-OPLS-2005>
226.947418212891

> <r_mmod_Improper_Torsional_Energy-OPLS-2005>
4.71376752853394

> <r_mmod_Van_der_Waal_Energy-OPLS-2005>
110.774597167969

> <r_mmod_Electrostatic_Energy-OPLS-2005>
-299.325866699219

> <r_mmod_Solvation_Energy-OPLS-2005>
-204.618988037109

> <b_mmod_Minimization_Converged-OPLS-2005>
0

> <r_mmod_RMS_Derivative-OPLS-2005>
7.0008692741394

$$$$
46
                    3D
 Structure written by MMmdl.
158166  0  0  1  0            999 V2000
  -30.5651  -14.9504   20.4491 C   0  0  0  0  0  0
  -30.4424  -12.5950   19.5006 C   0  0  0  0  0  0
  -29.5277  -12.5371   18.2544 C   0  0  0  0  0  0
  -28.0584  -12.3202   18.6655 C   0  0  0  0  0  0
  -27.6330  -13.2451   19.8348 C   0  0  2  0  0  0
  -28.6712  -13.2447   20.9721 C   0  0  0  0  0  0
  -25.2487  -13.8207   20.5703 C   0  0  0  0  0  0
  -24.1787  -13.0439   20.9208 C   0  0  0  0  0  0
  -24.6395  -11.6920   20.8733 C   0  0  0  0  0  0
  -23.9078  -10.4295   21.0404 C   0  0  0  0  0  0
  -24.3635   -9.4207   21.9178 C   0  0  0  0  0  0
  -23.6304   -8.2245   22.0765 C   0  0  0  0  0  0
  -22.4274   -8.0293   21.3560 C   0  0  0  0  0  0
  -21.9908   -9.0264   20.4659 C   0  0  0  0  0  0
  -22.7246  -10.2134   20.3053 C   0  0  0  0  0  0
  -21.6850   -6.0741   22.5281 C   0  0  0  0  0  0
  -21.4020   -6.5640   23.8215 C   0  0  0  0  0  0
  -21.3659   -5.6791   24.9171 C   0  0  0  0  0  0
  -21.6039   -4.3053   24.7226 C   0  0  0  0  0  0
  -21.8813   -3.8153   23.4347 C   0  0  0  0  0  0
  -21.9195   -4.6967   22.3402 C   0  0  0  0  0  0
  -22.7808  -13.5220   21.1858 C   0  0  0  0  0  0
  -22.1659   -4.2158   21.0980 F   0  0  0  0  0  0
  -21.5624   -3.4534   25.7742 F   0  0  0  0  0  0
  -29.9508  -13.6913   20.3915 N   0  0  0  0  0  0
  -26.2897  -12.9428   20.3192 N   0  0  0  0  0  0
  -25.9321  -11.6560   20.5683 N   0  0  0  0  0  0
  -22.0452  -12.8234   22.0426 N   0  0  0  0  0  0
  -25.4199  -15.1933   20.4199 N   0  0  0  0  0  0
  -31.7404  -14.9868   20.0743 O   0  0  0  0  0  0
  -21.6640   -6.8891   21.4246 O   0  0  0  0  0  0
  -22.3496  -14.5525   20.6702 O   0  0  0  0  0  0
  -24.6459  -31.8438   23.1907 C   0  0  0  0  0  0
  -25.9223  -32.4693   23.8293 C   0  0  1  0  0  0
  -27.2099  -27.1261   20.1338 C   0  0  0  0  0  0
  -25.5966  -33.8499   24.2202 N   0  0  0  0  0  0
  -23.4490  -30.4677   21.5377 C   0  0  2  0  0  0
  -24.8972  -28.9030   20.1095 C   0  0  0  0  0  0
  -22.7580  -29.4550   22.4858 C   0  0  0  0  0  0
  -18.0307  -28.1396   22.8469 C   0  0  0  0  0  0
  -24.1493  -36.7257   23.2641 C   0  0  0  0  0  0
  -26.0093  -30.7131   21.3956 C   0  0  0  0  0  0
  -26.0787  -29.3262   20.7316 C   0  0  0  0  0  0
  -27.2355  -28.4536   20.7319 C   0  0  0  0  0  0
  -26.0005  -26.8246   19.4606 C   0  0  0  0  0  0
  -24.8724  -27.6648   19.4607 C   0  0  0  0  0  0
  -23.6759  -29.8059   20.1553 C   0  0  0  0  0  0
  -25.4122  -36.3034   24.0317 C   0  0  1  0  0  0
  -20.5922  -28.3724   23.1222 C   0  0  2  0  0  0
  -20.6787  -26.9423   22.5398 C   0  0  0  0  0  0
  -19.5761  -26.6380   21.5201 C   0  0  0  0  0  0
  -18.1945  -26.7933   22.1617 C   0  0  0  0  0  0
  -19.1566  -28.8876   23.2836 C   0  0  0  0  0  0
  -18.9482  -30.1475   23.8862 C   0  0  0  0  0  0
  -17.6482  -30.6589   24.0555 C   0  0  0  0  0  0
  -25.9075  -34.9405   23.5069 C   0  0  0  0  0  0
  -16.5372  -29.9083   23.6337 C   0  0  0  0  0  0
  -16.7295  -28.6503   23.0351 C   0  0  0  0  0  0
  -26.4535  -31.6564   25.0741 C   0  0  0  0  0  0
  -25.3713  -31.3756   26.1436 C   0  0  0  0  0  0
  -27.0399  -30.2953   24.6351 C   0  0  0  0  0  0
  -27.6066  -32.4328   25.7523 C   0  0  0  0  0  0
  -27.5577  -37.1786   24.8462 C   0  0  0  0  0  0
  -21.4271  -29.3050   22.3599 N   0  0  0  0  0  0
  -26.4287  -37.3746   23.9407 N   0  0  0  0  0  0
  -24.7213  -31.0289   22.0960 N   0  0  0  0  0  0
  -23.4217  -28.8082   23.2998 O   0  0  0  0  0  0
  -28.2269  -26.0933   20.2100 O   0  0  0  0  0  0
  -26.5657  -34.8904   22.4647 O   0  0  0  0  0  0
  -23.5569  -32.1324   23.7120 O   0  0  0  0  0  0
  -30.3808  -21.5918   20.2272 C   0  0  0  0  0  0
  -29.3985  -20.6147   20.4240 C   0  0  0  0  0  0
  -28.6436  -23.2423   20.1885 C   0  0  0  0  0  0
  -31.8551  -21.3233   20.2080 C   0  0  0  0  0  0
  -28.4844  -17.4969   19.1141 C   0  0  0  0  0  0
  -29.3141  -16.2692   22.0929 C   0  0  0  0  0  0
  -29.5528  -19.0307   20.8742 C   0  0  0  0  0  0
  -27.7979  -24.6228   19.9136 C   0  0  0  0  0  0
  -29.7519  -17.5901   19.9922 C   0  0  2  0  0  0
  -30.9662  -17.7651   19.0353 C   0  0  0  0  0  0
  -29.9647  -22.9728   20.0803 N   0  0  0  0  0  0
  -29.8382  -16.1616   20.7251 N   0  0  0  0  0  0
  -30.8410  -18.8907   18.3340 F   0  0  0  0  0  0
  -31.0581  -16.7745   18.1463 F   0  0  0  0  0  0
  -32.0963  -17.8436   19.7369 F   0  0  0  0  0  0
  -27.8650  -21.5851   20.4209 S   0  0  0  0  0  0
  -31.4785  -12.7423   19.1897 H   0  0  0  0  0  0
  -30.4373  -11.6400   20.0281 H   0  0  0  0  0  0
  -29.8522  -11.7388   17.5848 H   0  0  0  0  0  0
  -29.6190  -13.4673   17.6907 H   0  0  0  0  0  0
  -27.9540  -11.2775   18.9686 H   0  0  0  0  0  0
  -27.3980  -12.4575   17.8093 H   0  0  0  0  0  0
  -27.6045  -14.2540   19.4218 H   0  0  0  0  0  0
  -28.7644  -12.2505   21.4118 H   0  0  0  0  0  0
  -28.3247  -13.8866   21.7771 H   0  0  0  0  0  0
  -25.2785   -9.5681   22.4743 H   0  0  0  0  0  0
  -24.0012   -7.4630   22.7477 H   0  0  0  0  0  0
  -21.0836   -8.8787   19.8965 H   0  0  0  0  0  0
  -22.3713  -10.9676   19.6162 H   0  0  0  0  0  0
  -21.2021   -7.6150   23.9730 H   0  0  0  0  0  0
  -21.1479   -6.0515   25.9079 H   0  0  0  0  0  0
  -22.0596   -2.7615   23.2836 H   0  0  0  0  0  0
  -22.4071  -11.9920   22.4860 H   0  0  0  0  0  0
  -21.1075  -13.1275   22.2613 H   0  0  0  0  0  0
  -24.6558  -15.8478   20.5454 H   0  0  0  0  0  0
  -26.2760  -15.6355   20.1129 H   0  0  0  0  0  0
  -26.7291  -32.5294   23.1017 H   0  0  0  0  0  0
  -25.0068  -33.9605   25.0323 H   0  0  0  0  0  0
  -22.7523  -31.2951   21.3869 H   0  0  0  0  0  0
  -23.3764  -35.9581   23.3288 H   0  0  0  0  0  0
  -24.3582  -36.8906   22.2060 H   0  0  0  0  0  0
  -23.7245  -37.6447   23.6689 H   0  0  0  0  0  0
  -26.1713  -31.4711   20.6279 H   0  0  0  0  0  0
  -26.8758  -30.7567   22.0436 H   0  0  0  0  0  0
  -28.1304  -28.7701   21.2493 H   0  0  0  0  0  0
  -25.8656  -25.8919   18.9365 H   0  0  0  0  0  0
  -23.9727  -27.3376   18.9580 H   0  0  0  0  0  0
  -23.8170  -30.5839   19.4043 H   0  0  0  0  0  0
  -22.7896  -29.2525   19.8392 H   0  0  0  0  0  0
  -25.1311  -36.1860   25.0808 H   0  0  0  0  0  0
  -21.0005  -28.3314   24.1347 H   0  0  0  0  0  0
  -20.5662  -26.2337   23.3620 H   0  0  0  0  0  0
  -21.6656  -26.7418   22.1207 H   0  0  0  0  0  0
  -19.6918  -25.6280   21.1253 H   0  0  0  0  0  0
  -19.6698  -27.3168   20.6713 H   0  0  0  0  0  0
  -17.4208  -26.6669   21.4027 H   0  0  0  0  0  0
  -18.0359  -26.0085   22.9026 H   0  0  0  0  0  0
  -19.7959  -30.7298   24.2216 H   0  0  0  0  0  0
  -17.5036  -31.6268   24.5167 H   0  0  0  0  0  0
  -15.5371  -30.2972   23.7686 H   0  0  0  0  0  0
  -15.8696  -28.0817   22.7078 H   0  0  0  0  0  0
  -24.5901  -30.7091   25.7761 H   0  0  0  0  0  0
  -24.8891  -32.2934   26.4809 H   0  0  0  0  0  0
  -25.7997  -30.8968   27.0252 H   0  0  0  0  0  0
  -26.3025  -29.6672   24.1342 H   0  0  0  0  0  0
  -27.3970  -29.7264   25.4947 H   0  0  0  0  0  0
  -27.8957  -30.4172   23.9708 H   0  0  0  0  0  0
  -27.2664  -33.3646   26.2054 H   0  0  0  0  0  0
  -28.3902  -32.6857   25.0367 H   0  0  0  0  0  0
  -28.0711  -31.8485   26.5478 H   0  0  0  0  0  0
  -28.2587  -38.0089   24.7515 H   0  0  0  0  0  0
  -28.1083  -36.2624   24.6282 H   0  0  0  0  0  0
  -27.2300  -37.1427   25.8865 H   0  0  0  0  0  0
  -20.9482  -29.8794   21.6804 H   0  0  0  0  0  0
  -26.0157  -38.2816   24.1413 H   0  0  0  0  0  0
  -32.1619  -20.8574   19.2727 H   0  0  0  0  0  0
  -32.1517  -20.6589   21.0188 H   0  0  0  0  0  0
  -32.4348  -22.2406   20.3136 H   0  0  0  0  0  0
  -28.3525  -18.3917   18.5052 H   0  0  0  0  0  0
  -27.5885  -17.3891   19.7249 H   0  0  0  0  0  0
  -28.5245  -16.6456   18.4342 H   0  0  0  0  0  0
  -28.2368  -16.4372   22.0818 H   0  0  0  0  0  0
  -29.7857  -17.0903   22.6304 H   0  0  0  0  0  0
  -29.5209  -15.3947   22.7103 H   0  0  0  0  0  0
  -28.6877  -18.8512   21.5121 H   0  0  0  0  0  0
  -30.3884  -19.0294   21.5733 H   0  0  0  0  0  0
  -26.8523  -24.4696   20.4350 H   0  0  0  0  0  0
  -27.5637  -24.5827   18.8501 H   0  0  0  0  0  0
  1 25  1  0  0  0
  1 30  2  0  0  0
  1 82  1  0  0  0
  2  3  1  0  0  0
  2 25  1  0  0  0
  2 87  1  0  0  0
  2 88  1  0  0  0
  3  4  1  0  0  0
  3 89  1  0  0  0
  3 90  1  0  0  0
  4  5  1  0  0  0
  4 91  1  0  0  0
  4 92  1  0  0  0
  5  6  1  0  0  0
  5 26  1  0  0  0
  5 93  1  0  0  0
  6 25  1  0  0  0
  6 94  1  0  0  0
  6 95  1  0  0  0
  7  8  2  0  0  0
  7 26  1  0  0  0
  7 29  1  0  0  0
  8  9  1  0  0  0
  8 22  1  0  0  0
  9 10  1  0  0  0
  9 27  2  0  0  0
 10 11  2  0  0  0
 10 15  1  0  0  0
 11 12  1  0  0  0
 11 96  1  0  0  0
 12 13  2  0  0  0
 12 97  1  0  0  0
 13 14  1  0  0  0
 13 31  1  0  0  0
 14 15  2  0  0  0
 14 98  1  0  0  0
 15 99  1  0  0  0
 16 17  2  0  0  0
 16 21  1  0  0  0
 16 31  1  0  0  0
 17 18  1  0  0  0
 17100  1  0  0  0
 18 19  2  0  0  0
 18101  1  0  0  0
 19 20  1  0  0  0
 19 24  1  0  0  0
 20 21  2  0  0  0
 20102  1  0  0  0
 21 23  1  0  0  0
 22 28  1  0  0  0
 22 32  2  0  0  0
 26 27  1  0  0  0
 28103  1  0  0  0
 28104  1  0  0  0
 29105  1  0  0  0
 29106  1  0  0  0
 33 34  1  0  0  0
 33 66  1  0  0  0
 33 70  2  0  0  0
 34 36  1  0  0  0
 34 59  1  0  0  0
 34107  1  0  0  0
 35 44  2  0  0  0
 35 45  1  0  0  0
 35 68  1  0  0  0
 36 56  1  0  0  0
 36108  1  0  0  0
 37 39  1  0  0  0
 37 47  1  0  0  0
 37 66  1  0  0  0
 37109  1  0  0  0
 38 43  2  0  0  0
 38 46  1  0  0  0
 38 47  1  0  0  0
 39 64  1  0  0  0
 39 67  2  0  0  0
 40 52  1  0  0  0
 40 53  2  0  0  0
 40 58  1  0  0  0
 41110  1  0  0  0
 41111  1  0  0  0
 41112  1  0  0  0
 41 48  1  0  0  0
 42 43  1  0  0  0
 42 66  1  0  0  0
 42113  1  0  0  0
 42114  1  0  0  0
 43 44  1  0  0  0
 44115  1  0  0  0
 45 46  2  0  0  0
 45116  1  0  0  0
 46117  1  0  0  0
 47118  1  0  0  0
 47119  1  0  0  0
 48 56  1  0  0  0
 48 65  1  0  0  0
 48120  1  0  0  0
 49 50  1  0  0  0
 49 53  1  0  0  0
 49 64  1  0  0  0
 49121  1  0  0  0
 50 51  1  0  0  0
 50122  1  0  0  0
 50123  1  0  0  0
 51 52  1  0  0  0
 51124  1  0  0  0
 51125  1  0  0  0
 52126  1  0  0  0
 52127  1  0  0  0
 53 54  1  0  0  0
 54 55  2  0  0  0
 54128  1  0  0  0
 55 57  1  0  0  0
 55129  1  0  0  0
 56 69  2  0  0  0
 57 58  2  0  0  0
 57130  1  0  0  0
 58131  1  0  0  0
 59 60  1  0  0  0
 59 61  1  0  0  0
 59 62  1  0  0  0
 60132  1  0  0  0
 60133  1  0  0  0
 60134  1  0  0  0
 61135  1  0  0  0
 61136  1  0  0  0
 61137  1  0  0  0
 62138  1  0  0  0
 62139  1  0  0  0
 62140  1  0  0  0
 63 65  1  0  0  0
 63141  1  0  0  0
 63142  1  0  0  0
 63143  1  0  0  0
 64144  1  0  0  0
 65145  1  0  0  0
 68 78  1  0  0  0
 71 72  2  0  0  0
 71 74  1  0  0  0
 71 81  1  0  0  0
 72 77  1  0  0  0
 72 86  1  0  0  0
 73 78  1  0  0  0
 73 81  2  0  0  0
 73 86  1  0  0  0
 74146  1  0  0  0
 74147  1  0  0  0
 74148  1  0  0  0
 75149  1  0  0  0
 75150  1  0  0  0
 75151  1  0  0  0
 75 79  1  0  0  0
 76 82  1  0  0  0
 76152  1  0  0  0
 76153  1  0  0  0
 76154  1  0  0  0
 77 79  1  0  0  0
 77155  1  0  0  0
 77156  1  0  0  0
 78157  1  0  0  0
 78158  1  0  0  0
 79 80  1  0  0  0
 79 82  1  0  0  0
 80 83  1  0  0  0
 80 84  1  0  0  0
 80 85  1  0  0  0
M  ISO  4   1 100  68 101  78 101  82 100
M  END
> <chiral flag>
0

> <version>
0

> <s_m_source_file>
/data/baiqing/PycharmProjects/Reinvent-master-3.2/result/LINK_invent/BTK/process_docking_weight1_custom_sum_contain_oxygen_bond_distance_aromatic_linkinvent_7_9_3/rearranged_h_0054.sdf

> <i_m_source_file_index>
47

> <r_mmod_Potential_Energy-OPLS-2005>
680.518615722656

> <r_mmod_Stretch_Energy-OPLS-2005>
274.119720458984

> <r_mmod_Bend_Energy-OPLS-2005>
309.823577880859

> <r_mmod_Torsional_Energy-OPLS-2005>
297.599212646484

> <r_mmod_Improper_Torsional_Energy-OPLS-2005>
7.1404070854187

> <r_mmod_Van_der_Waal_Energy-OPLS-2005>
123.919387817383

> <r_mmod_Electrostatic_Energy-OPLS-2005>
-322.231689453125

> <r_mmod_Solvation_Energy-OPLS-2005>
-206.252288818359

> <b_mmod_Minimization_Converged-OPLS-2005>
0

> <r_mmod_RMS_Derivative-OPLS-2005>
1.76174974441528

$$$$
47
                    3D
 Structure written by MMmdl.
163171  0  0  1  0            999 V2000
  -30.6860  -14.4286   20.5992 C   0  0  0  0  0  0
  -30.4324  -12.2844   19.4147 C   0  0  0  0  0  0
  -29.4996  -12.5247   18.2087 C   0  0  0  0  0  0
  -28.0181  -12.3910   18.6139 C   0  0  0  0  0  0
  -27.6731  -13.1961   19.8937 C   0  0  2  0  0  0
  -28.7124  -12.9165   21.0058 C   0  0  0  0  0  0
  -25.2656  -13.8137   20.5715 C   0  0  0  0  0  0
  -24.1876  -13.0439   20.9171 C   0  0  0  0  0  0
  -24.6401  -11.6895   20.8730 C   0  0  0  0  0  0
  -23.9049  -10.4296   21.0400 C   0  0  0  0  0  0
  -24.3600   -9.4217   21.9170 C   0  0  0  0  0  0
  -23.6277   -8.2260   22.0759 C   0  0  0  0  0  0
  -22.4259   -8.0293   21.3564 C   0  0  0  0  0  0
  -21.9894   -9.0268   20.4665 C   0  0  0  0  0  0
  -22.7221  -10.2151   20.3059 C   0  0  0  0  0  0
  -21.6878   -6.0727   22.5272 C   0  0  0  0  0  0
  -21.4017   -6.5629   23.8196 C   0  0  0  0  0  0
  -21.3664   -5.6782   24.9156 C   0  0  0  0  0  0
  -21.6053   -4.3048   24.7225 C   0  0  0  0  0  0
  -21.8815   -3.8148   23.4344 C   0  0  0  0  0  0
  -21.9200   -4.6954   22.3392 C   0  0  0  0  0  0
  -22.7902  -13.5278   21.1803 C   0  0  0  0  0  0
  -22.1677   -4.2140   21.0968 F   0  0  0  0  0  0
  -21.5629   -3.4526   25.7741 F   0  0  0  0  0  0
  -30.0540  -13.2324   20.4735 N   0  0  0  0  0  0
  -26.3083  -12.9285   20.3450 N   0  0  0  0  0  0
  -25.9319  -11.6445   20.5756 N   0  0  0  0  0  0
  -22.0520  -12.8302   22.0367 N   0  0  0  0  0  0
  -25.4398  -15.1858   20.4130 N   0  0  0  0  0  0
  -31.7546  -14.7008   20.0430 O   0  0  0  0  0  0
  -21.6659   -6.8877   21.4241 O   0  0  0  0  0  0
  -22.3598  -14.5575   20.6631 O   0  0  0  0  0  0
  -24.6124  -31.8700   23.2105 C   0  0  0  0  0  0
  -25.9030  -32.4832   23.8398 C   0  0  1  0  0  0
  -27.2409  -27.4582   20.1011 C   0  0  0  0  0  0
  -25.5893  -33.8631   24.2329 N   0  0  0  0  0  0
  -23.3995  -30.4914   21.5515 C   0  0  2  0  0  0
  -24.8489  -28.9620   20.1126 C   0  0  0  0  0  0
  -22.7394  -29.4671   22.5017 C   0  0  0  0  0  0
  -18.0264  -28.1376   22.8497 C   0  0  0  0  0  0
  -24.1479  -36.7324   23.2638 C   0  0  0  0  0  0
  -25.9245  -30.8456   21.3572 C   0  0  0  0  0  0
  -26.0077  -29.4821   20.7045 C   0  0  0  0  0  0
  -27.2097  -28.7415   20.6890 C   0  0  0  0  0  0
  -26.0678  -26.9488   19.5011 C   0  0  0  0  0  0
  -24.8750  -27.6948   19.5041 C   0  0  0  0  0  0
  -23.6059  -29.8215   20.1663 C   0  0  0  0  0  0
  -25.4103  -36.3120   24.0339 C   0  0  1  0  0  0
  -20.5850  -28.3660   23.1332 C   0  0  2  0  0  0
  -20.6751  -26.9401   22.5426 C   0  0  0  0  0  0
  -19.5735  -26.6381   21.5219 C   0  0  0  0  0  0
  -18.1914  -26.7921   22.1627 C   0  0  0  0  0  0
  -19.1513  -28.8836   23.2907 C   0  0  0  0  0  0
  -18.9446  -30.1444   23.8917 C   0  0  0  0  0  0
  -17.6453  -30.6588   24.0566 C   0  0  0  0  0  0
  -25.9034  -34.9487   23.5132 C   0  0  0  0  0  0
  -16.5344  -29.9091   23.6329 C   0  0  0  0  0  0
  -16.7254  -28.6504   23.0355 C   0  0  0  0  0  0
  -26.4468  -31.6597   25.0712 C   0  0  0  0  0  0
  -25.3739  -31.3701   26.1461 C   0  0  0  0  0  0
  -27.0304  -30.3043   24.6069 C   0  0  0  0  0  0
  -27.6037  -32.4319   25.7483 C   0  0  0  0  0  0
  -27.5580  -37.1813   24.8467 C   0  0  0  0  0  0
  -21.4126  -29.3037   22.3758 N   0  0  0  0  0  0
  -26.4290  -37.3804   23.9410 N   0  0  0  0  0  0
  -24.6636  -31.0816   22.0989 N   0  0  0  0  0  0
  -23.4181  -28.8230   23.3060 O   0  0  0  0  0  0
  -28.4004  -26.7174   20.1226 O   0  0  0  0  0  0
  -26.5604  -34.8935   22.4697 O   0  0  0  0  0  0
  -23.5327  -32.1458   23.7513 O   0  0  0  0  0  0
  -31.8337  -23.2511   21.3736 C   0  0  0  0  0  0
  -30.8129  -22.7704   20.5193 C   0  0  0  0  0  0
  -30.5851  -25.1394   21.8384 C   0  0  0  0  0  0
  -29.5646  -24.6854   20.9601 C   0  0  0  0  0  0
  -30.4666  -26.4219   22.6418 C   0  0  0  0  0  0
  -32.7784  -19.9280   20.3273 C   0  0  0  0  0  0
  -30.9566  -21.4726   19.7163 C   0  0  0  0  0  0
  -28.2524  -25.4439   20.7644 C   0  0  0  0  0  0
  -30.8054  -17.7741   20.9620 C   0  0  0  0  0  0
  -29.7110  -16.7152   20.7103 C   0  0  0  0  0  0
  -30.4300  -19.1137   20.2677 C   0  0  0  0  0  0
  -31.7183  -24.4243   22.0405 N   0  0  0  0  0  0
  -29.6823  -23.4966   20.3086 N   0  0  0  0  0  0
  -29.9620  -15.3660   21.2306 N   0  0  0  0  0  0
  -31.3456  -20.2682   20.5127 N   0  3  1  0  0  0
  -31.4754  -12.3949   19.1142 H   0  0  0  0  0  0
  -30.3363  -11.2598   19.7748 H   0  0  0  0  0  0
  -29.7305  -11.8243   17.4050 H   0  0  0  0  0  0
  -29.6802  -13.5197   17.8021 H   0  0  0  0  0  0
  -27.8019  -11.3337   18.7702 H   0  0  0  0  0  0
  -27.3811  -12.7105   17.7881 H   0  0  0  0  0  0
  -27.7325  -14.2527   19.6340 H   0  0  0  0  0  0
  -28.6813  -11.8635   21.2903 H   0  0  0  0  0  0
  -28.4714  -13.4657   21.9170 H   0  0  0  0  0  0
  -25.2743   -9.5707   22.4730 H   0  0  0  0  0  0
  -24.0008   -7.4654   22.7460 H   0  0  0  0  0  0
  -21.0840   -8.8780   19.8951 H   0  0  0  0  0  0
  -22.3674  -10.9686   19.6179 H   0  0  0  0  0  0
  -21.1996   -7.6139   23.9696 H   0  0  0  0  0  0
  -21.1495   -6.0516   25.9060 H   0  0  0  0  0  0
  -22.0588   -2.7613   23.2846 H   0  0  0  0  0  0
  -22.4144  -12.0004   22.4821 H   0  0  0  0  0  0
  -21.1127  -13.1326   22.2500 H   0  0  0  0  0  0
  -24.6724  -15.8417   20.5125 H   0  0  0  0  0  0
  -26.2940  -15.6221   20.0900 H   0  0  0  0  0  0
  -26.7109  -32.5560   23.1178 H   0  0  0  0  0  0
  -25.0029  -33.9795   25.0463 H   0  0  0  0  0  0
  -22.6869  -31.3074   21.4129 H   0  0  0  0  0  0
  -23.3738  -35.9660   23.3320 H   0  0  0  0  0  0
  -24.3574  -36.8923   22.2048 H   0  0  0  0  0  0
  -23.7232  -37.6534   23.6645 H   0  0  0  0  0  0
  -26.0305  -31.6139   20.5904 H   0  0  0  0  0  0
  -26.8148  -30.9018   21.9725 H   0  0  0  0  0  0
  -28.1050  -29.1443   21.1431 H   0  0  0  0  0  0
  -26.0712  -25.9791   19.0256 H   0  0  0  0  0  0
  -23.9876  -27.2885   19.0386 H   0  0  0  0  0  0
  -23.7049  -30.5969   19.4051 H   0  0  0  0  0  0
  -22.7316  -29.2356   19.8744 H   0  0  0  0  0  0
  -25.1275  -36.1995   25.0832 H   0  0  0  0  0  0
  -20.9934  -28.3218   24.1453 H   0  0  0  0  0  0
  -20.5655  -26.2272   23.3612 H   0  0  0  0  0  0
  -21.6624  -26.7447   22.1228 H   0  0  0  0  0  0
  -19.6902  -25.6293   21.1252 H   0  0  0  0  0  0
  -19.6678  -27.3187   20.6746 H   0  0  0  0  0  0
  -17.4187  -26.6677   21.4025 H   0  0  0  0  0  0
  -18.0313  -26.0056   22.9014 H   0  0  0  0  0  0
  -19.7929  -30.7248   24.2296 H   0  0  0  0  0  0
  -17.5016  -31.6272   24.5155 H   0  0  0  0  0  0
  -15.5349  -30.3005   23.7636 H   0  0  0  0  0  0
  -15.8652  -28.0829   22.7063 H   0  0  0  0  0  0
  -24.5895  -30.7069   25.7795 H   0  0  0  0  0  0
  -24.8949  -32.2858   26.4933 H   0  0  0  0  0  0
  -25.8084  -30.8847   27.0207 H   0  0  0  0  0  0
  -26.2847  -29.6806   24.1121 H   0  0  0  0  0  0
  -27.4089  -29.7267   25.4515 H   0  0  0  0  0  0
  -27.8674  -30.4377   23.9209 H   0  0  0  0  0  0
  -27.2643  -33.3601   26.2096 H   0  0  0  0  0  0
  -28.3829  -32.6912   25.0303 H   0  0  0  0  0  0
  -28.0731  -31.8430   26.5374 H   0  0  0  0  0  0
  -28.2605  -38.0101   24.7509 H   0  0  0  0  0  0
  -28.1066  -36.2635   24.6296 H   0  0  0  0  0  0
  -27.2309  -37.1473   25.8874 H   0  0  0  0  0  0
  -20.9287  -29.8754   21.6978 H   0  0  0  0  0  0
  -26.0189  -38.2891   24.1396 H   0  0  0  0  0  0
  -32.7477  -22.6992   21.5344 H   0  0  0  0  0  0
  -29.8824  -26.2461   23.5446 H   0  0  0  0  0  0
  -29.9854  -27.2153   22.0710 H   0  0  0  0  0  0
  -31.4486  -26.7860   22.9449 H   0  0  0  0  0  0
  -33.4164  -20.8078   20.3977 H   0  0  0  0  0  0
  -32.9487  -19.4779   19.3476 H   0  0  0  0  0  0
  -33.1222  -19.2282   21.0871 H   0  0  0  0  0  0
  -31.6645  -21.6429   18.9047 H   0  0  0  0  0  0
  -30.0041  -21.2885   19.2195 H   0  0  0  0  0  0
  -27.7977  -25.5849   21.7471 H   0  0  0  0  0  0
  -27.5746  -24.8106   20.1913 H   0  0  0  0  0  0
  -30.9418  -17.9200   22.0339 H   0  0  0  0  0  0
  -31.7503  -17.4019   20.5656 H   0  0  0  0  0  0
  -29.5151  -16.6392   19.6385 H   0  0  0  0  0  0
  -28.7776  -17.0604   21.1606 H   0  0  0  0  0  0
  -29.4272  -19.4069   20.5886 H   0  0  0  0  0  0
  -30.3631  -18.9373   19.1937 H   0  0  0  0  0  0
  -29.1985  -14.9820   21.7686 H   0  0  0  0  0  0
  -31.2250  -20.5228   21.4810 H   0  0  0  0  0  0
  1 25  1  0  0  0
  1 30  2  0  0  0
  1 84  1  0  0  0
  2  3  1  0  0  0
  2 25  1  0  0  0
  2 86  1  0  0  0
  2 87  1  0  0  0
  3  4  1  0  0  0
  3 88  1  0  0  0
  3 89  1  0  0  0
  4  5  1  0  0  0
  4 90  1  0  0  0
  4 91  1  0  0  0
  5  6  1  0  0  0
  5 26  1  0  0  0
  5 92  1  0  0  0
  6 25  1  0  0  0
  6 93  1  0  0  0
  6 94  1  0  0  0
  7  8  2  0  0  0
  7 26  1  0  0  0
  7 29  1  0  0  0
  8  9  1  0  0  0
  8 22  1  0  0  0
  9 10  1  0  0  0
  9 27  2  0  0  0
 10 11  2  0  0  0
 10 15  1  0  0  0
 11 12  1  0  0  0
 11 95  1  0  0  0
 12 13  2  0  0  0
 12 96  1  0  0  0
 13 14  1  0  0  0
 13 31  1  0  0  0
 14 15  2  0  0  0
 14 97  1  0  0  0
 15 98  1  0  0  0
 16 17  2  0  0  0
 16 21  1  0  0  0
 16 31  1  0  0  0
 17 18  1  0  0  0
 17 99  1  0  0  0
 18 19  2  0  0  0
 18100  1  0  0  0
 19 20  1  0  0  0
 19 24  1  0  0  0
 20 21  2  0  0  0
 20101  1  0  0  0
 21 23  1  0  0  0
 22 28  1  0  0  0
 22 32  2  0  0  0
 26 27  1  0  0  0
 28102  1  0  0  0
 28103  1  0  0  0
 29104  1  0  0  0
 29105  1  0  0  0
 33 34  1  0  0  0
 33 66  1  0  0  0
 33 70  2  0  0  0
 34 36  1  0  0  0
 34 59  1  0  0  0
 34106  1  0  0  0
 35 44  2  0  0  0
 35 45  1  0  0  0
 35 68  1  0  0  0
 36 56  1  0  0  0
 36107  1  0  0  0
 37 39  1  0  0  0
 37 47  1  0  0  0
 37 66  1  0  0  0
 37108  1  0  0  0
 38 43  2  0  0  0
 38 46  1  0  0  0
 38 47  1  0  0  0
 39 64  1  0  0  0
 39 67  2  0  0  0
 40 52  1  0  0  0
 40 53  2  0  0  0
 40 58  1  0  0  0
 41109  1  0  0  0
 41110  1  0  0  0
 41111  1  0  0  0
 41 48  1  0  0  0
 42 43  1  0  0  0
 42 66  1  0  0  0
 42112  1  0  0  0
 42113  1  0  0  0
 43 44  1  0  0  0
 44114  1  0  0  0
 45 46  2  0  0  0
 45115  1  0  0  0
 46116  1  0  0  0
 47117  1  0  0  0
 47118  1  0  0  0
 48 56  1  0  0  0
 48 65  1  0  0  0
 48119  1  0  0  0
 49 50  1  0  0  0
 49 53  1  0  0  0
 49 64  1  0  0  0
 49120  1  0  0  0
 50 51  1  0  0  0
 50121  1  0  0  0
 50122  1  0  0  0
 51 52  1  0  0  0
 51123  1  0  0  0
 51124  1  0  0  0
 52125  1  0  0  0
 52126  1  0  0  0
 53 54  1  0  0  0
 54 55  2  0  0  0
 54127  1  0  0  0
 55 57  1  0  0  0
 55128  1  0  0  0
 56 69  2  0  0  0
 57 58  2  0  0  0
 57129  1  0  0  0
 58130  1  0  0  0
 59 60  1  0  0  0
 59 61  1  0  0  0
 59 62  1  0  0  0
 60131  1  0  0  0
 60132  1  0  0  0
 60133  1  0  0  0
 61134  1  0  0  0
 61135  1  0  0  0
 61136  1  0  0  0
 62137  1  0  0  0
 62138  1  0  0  0
 62139  1  0  0  0
 63 65  1  0  0  0
 63140  1  0  0  0
 63141  1  0  0  0
 63142  1  0  0  0
 64143  1  0  0  0
 65144  1  0  0  0
 68 78  1  0  0  0
 71 72  2  0  0  0
 71 82  1  0  0  0
 71145  1  0  0  0
 72 77  1  0  0  0
 72 83  1  0  0  0
 73 74  1  0  0  0
 73 75  1  0  0  0
 73 82  2  0  0  0
 74 78  1  0  0  0
 74 83  2  0  0  0
 75146  1  0  0  0
 75147  1  0  0  0
 75148  1  0  0  0
 76149  1  0  0  0
 76150  1  0  0  0
 76151  1  0  0  0
 76 85  1  0  0  0
 77 85  1  0  0  0
 77152  1  0  0  0
 77153  1  0  0  0
 78154  1  0  0  0
 78155  1  0  0  0
 79 80  1  0  0  0
 79 81  1  0  0  0
 79156  1  0  0  0
 79157  1  0  0  0
 80 84  1  0  0  0
 80158  1  0  0  0
 80159  1  0  0  0
 81 85  1  0  0  0
 81160  1  0  0  0
 81161  1  0  0  0
 84162  1  0  0  0
 85163  1  0  0  0
M  CHG  1  85   1
M  ISO  4   1 100  68 101  78 101  84 100
M  END
> <chiral flag>
0

> <version>
0

> <s_m_source_file>
/data/baiqing/PycharmProjects/Reinvent-master-3.2/result/LINK_invent/BTK/process_docking_weight1_custom_sum_contain_oxygen_bond_distance_aromatic_linkinvent_7_9_3/rearranged_h_0054.sdf

> <i_m_source_file_index>
48

> <r_mmod_Potential_Energy-OPLS-2005>
-117.229560852051

> <r_mmod_Stretch_Energy-OPLS-2005>
38.8107452392578

> <r_mmod_Bend_Energy-OPLS-2005>
97.7684555053711

> <r_mmod_Torsional_Energy-OPLS-2005>
245.916213989258

> <r_mmod_Improper_Torsional_Energy-OPLS-2005>
7.23874521255493

> <r_mmod_Van_der_Waal_Energy-OPLS-2005>
159.610473632812

> <r_mmod_Electrostatic_Energy-OPLS-2005>
-209.878433227539

> <r_mmod_Solvation_Energy-OPLS-2005>
-466.316375732422

> <b_mmod_Minimization_Converged-OPLS-2005>
0

> <r_mmod_RMS_Derivative-OPLS-2005>
2.53050804138184

$$$$
48
                    3D
 Structure written by MMmdl.
167175  0  0  1  0            999 V2000
  -30.6719  -14.5466   20.5893 C   0  0  0  0  0  0
  -30.4314  -12.3621   19.4249 C   0  0  0  0  0  0
  -29.4968  -12.5114   18.2062 C   0  0  0  0  0  0
  -28.0199  -12.3611   18.6208 C   0  0  0  0  0  0
  -27.6596  -13.2073   19.8705 C   0  0  2  0  0  0
  -28.7027  -12.9989   20.9874 C   0  0  0  0  0  0
  -25.2593  -13.8160   20.5678 C   0  0  0  0  0  0
  -24.1838  -13.0451   20.9157 C   0  0  0  0  0  0
  -24.6383  -11.6910   20.8718 C   0  0  0  0  0  0
  -23.9046  -10.4305   21.0406 C   0  0  0  0  0  0
  -24.3605   -9.4225   21.9179 C   0  0  0  0  0  0
  -23.6293   -8.2257   22.0752 C   0  0  0  0  0  0
  -22.4267   -8.0290   21.3555 C   0  0  0  0  0  0
  -21.9902   -9.0253   20.4641 C   0  0  0  0  0  0
  -22.7224  -10.2143   20.3047 C   0  0  0  0  0  0
  -21.6856   -6.0738   22.5278 C   0  0  0  0  0  0
  -21.4015   -6.5640   23.8210 C   0  0  0  0  0  0
  -21.3660   -5.6798   24.9174 C   0  0  0  0  0  0
  -21.6044   -4.3057   24.7227 C   0  0  0  0  0  0
  -21.8818   -3.8149   23.4345 C   0  0  0  0  0  0
  -21.9195   -4.6966   22.3405 C   0  0  0  0  0  0
  -22.7863  -13.5254   21.1839 C   0  0  0  0  0  0
  -22.1658   -4.2147   21.0982 F   0  0  0  0  0  0
  -21.5635   -3.4539   25.7740 F   0  0  0  0  0  0
  -30.0256  -13.3477   20.4450 N   0  0  0  0  0  0
  -26.3019  -12.9324   20.3344 N   0  0  0  0  0  0
  -25.9302  -11.6484   20.5726 N   0  0  0  0  0  0
  -22.0503  -12.8248   22.0390 N   0  0  0  0  0  0
  -25.4371  -15.1880   20.4125 N   0  0  0  0  0  0
  -31.7617  -14.7632   20.0462 O   0  0  0  0  0  0
  -21.6645   -6.8880   21.4237 O   0  0  0  0  0  0
  -22.3552  -14.5572   20.6705 O   0  0  0  0  0  0
  -24.6201  -31.8624   23.2071 C   0  0  0  0  0  0
  -25.9070  -32.4784   23.8370 C   0  0  1  0  0  0
  -27.2372  -27.3782   20.1044 C   0  0  0  0  0  0
  -25.5907  -33.8585   24.2279 N   0  0  0  0  0  0
  -23.4097  -30.4824   21.5507 C   0  0  2  0  0  0
  -24.8562  -28.9420   20.1141 C   0  0  0  0  0  0
  -22.7439  -29.4585   22.4997 C   0  0  0  0  0  0
  -18.0273  -28.1374   22.8449 C   0  0  0  0  0  0
  -24.1492  -36.7306   23.2640 C   0  0  0  0  0  0
  -25.9428  -30.8106   21.3652 C   0  0  0  0  0  0
  -26.0213  -29.4409   20.7117 C   0  0  0  0  0  0
  -27.2116  -28.6686   20.7000 C   0  0  0  0  0  0
  -26.0485  -26.9060   19.5002 C   0  0  0  0  0  0
  -24.8676  -27.6745   19.5079 C   0  0  0  0  0  0
  -23.6224  -29.8181   20.1641 C   0  0  0  0  0  0
  -25.4111  -36.3075   24.0332 C   0  0  1  0  0  0
  -20.5860  -28.3634   23.1309 C   0  0  2  0  0  0
  -20.6761  -26.9368   22.5416 C   0  0  0  0  0  0
  -19.5748  -26.6355   21.5205 C   0  0  0  0  0  0
  -18.1919  -26.7903   22.1607 C   0  0  0  0  0  0
  -19.1521  -28.8822   23.2854 C   0  0  0  0  0  0
  -18.9459  -30.1427   23.8854 C   0  0  0  0  0  0
  -17.6463  -30.6568   24.0547 C   0  0  0  0  0  0
  -25.9053  -34.9448   23.5101 C   0  0  0  0  0  0
  -16.5344  -29.9070   23.6331 C   0  0  0  0  0  0
  -16.7259  -28.6506   23.0304 C   0  0  0  0  0  0
  -26.4477  -31.6584   25.0719 C   0  0  0  0  0  0
  -25.3740  -31.3736   26.1473 C   0  0  0  0  0  0
  -27.0305  -30.3026   24.6096 C   0  0  0  0  0  0
  -27.6028  -32.4336   25.7491 C   0  0  0  0  0  0
  -27.5571  -37.1799   24.8457 C   0  0  0  0  0  0
  -21.4159  -29.2994   22.3731 N   0  0  0  0  0  0
  -26.4276  -37.3765   23.9420 N   0  0  0  0  0  0
  -24.6765  -31.0673   22.1003 N   0  0  0  0  0  0
  -23.4179  -28.8109   23.3048 O   0  0  0  0  0  0
  -28.3959  -26.6021   20.1396 O   0  0  0  0  0  0
  -26.5608  -34.8914   22.4657 O   0  0  0  0  0  0
  -23.5389  -32.1407   23.7435 O   0  0  0  0  0  0
  -30.2005  -19.4056   20.8154 C   0  0  0  0  0  0
  -29.9220  -21.1443   21.9579 C   0  0  0  0  0  0
  -30.7000  -21.7617   24.3176 C   0  0  0  0  0  0
  -28.9450  -15.6414   24.9574 C   0  0  0  0  0  0
  -30.6511  -17.9856   20.4520 C   0  0  0  0  0  0
  -29.8143  -22.1060   23.1082 C   0  0  0  0  0  0
  -28.8293  -15.9106   23.4528 C   0  0  0  0  0  0
  -29.2954  -23.9637   20.0716 C   0  0  0  0  0  0
  -28.6051  -22.5590   20.2567 C   0  0  0  0  0  0
  -29.5866  -16.8391   20.5907 C   0  0  0  0  0  0
  -30.1537  -15.6424   22.7036 C   0  0  0  0  0  0
  -28.3032  -25.1804   19.8220 C   0  0  0  0  0  0
  -30.4050  -19.9030   22.0699 N   0  0  0  0  0  0
  -29.6000  -20.2694   19.9764 N   0  0  0  0  0  0
  -29.4240  -21.4079   20.7352 N   0  0  0  0  0  0
  -30.0029  -15.5496   21.2388 N   0  0  0  0  0  0
  -31.4693  -12.4852   19.1156 H   0  0  0  0  0  0
  -30.3646  -11.3531   19.8318 H   0  0  0  0  0  0
  -29.7469  -11.7657   17.4495 H   0  0  0  0  0  0
  -29.6501  -13.4845   17.7390 H   0  0  0  0  0  0
  -27.8421  -11.3054   18.8279 H   0  0  0  0  0  0
  -27.3672  -12.6221   17.7869 H   0  0  0  0  0  0
  -27.7001  -14.2539   19.5697 H   0  0  0  0  0  0
  -28.6969  -11.9607   21.3203 H   0  0  0  0  0  0
  -28.4438  -13.5770   21.8676 H   0  0  0  0  0  0
  -25.2748   -9.5719   22.4755 H   0  0  0  0  0  0
  -24.0008   -7.4655   22.7481 H   0  0  0  0  0  0
  -21.0829   -8.8761   19.8950 H   0  0  0  0  0  0
  -22.3662  -10.9679   19.6159 H   0  0  0  0  0  0
  -21.1995   -7.6141   23.9712 H   0  0  0  0  0  0
  -21.1484   -6.0522   25.9078 H   0  0  0  0  0  0
  -22.0594   -2.7606   23.2846 H   0  0  0  0  0  0
  -22.4108  -11.9891   22.4758 H   0  0  0  0  0  0
  -21.1128  -13.1297   22.2622 H   0  0  0  0  0  0
  -24.6800  -15.8536   20.5219 H   0  0  0  0  0  0
  -26.3058  -15.6207   20.1271 H   0  0  0  0  0  0
  -26.7130  -32.5455   23.1117 H   0  0  0  0  0  0
  -25.0021  -33.9728   25.0399 H   0  0  0  0  0  0
  -22.6998  -31.3017   21.4106 H   0  0  0  0  0  0
  -23.3727  -35.9662   23.3301 H   0  0  0  0  0  0
  -24.3578  -36.8937   22.2050 H   0  0  0  0  0  0
  -23.7297  -37.6537   23.6669 H   0  0  0  0  0  0
  -26.0557  -31.5688   20.5892 H   0  0  0  0  0  0
  -26.8318  -30.8716   21.9802 H   0  0  0  0  0  0
  -28.1078  -29.0462   21.1729 H   0  0  0  0  0  0
  -26.0167  -25.9365   19.0248 H   0  0  0  0  0  0
  -23.9722  -27.2772   19.0488 H   0  0  0  0  0  0
  -23.7399  -30.5970   19.4093 H   0  0  0  0  0  0
  -22.7434  -29.2475   19.8617 H   0  0  0  0  0  0
  -25.1295  -36.1914   25.0827 H   0  0  0  0  0  0
  -20.9924  -28.3198   24.1449 H   0  0  0  0  0  0
  -20.5689  -26.2242   23.3600 H   0  0  0  0  0  0
  -21.6634  -26.7424   22.1205 H   0  0  0  0  0  0
  -19.6935  -25.6277   21.1227 H   0  0  0  0  0  0
  -19.6722  -27.3170   20.6737 H   0  0  0  0  0  0
  -17.4206  -26.6612   21.4002 H   0  0  0  0  0  0
  -18.0329  -26.0048   22.9006 H   0  0  0  0  0  0
  -19.7935  -30.7227   24.2225 H   0  0  0  0  0  0
  -17.5030  -31.6260   24.5138 H   0  0  0  0  0  0
  -15.5348  -30.2964   23.7702 H   0  0  0  0  0  0
  -15.8646  -28.0855   22.7001 H   0  0  0  0  0  0
  -24.5896  -30.7074   25.7854 H   0  0  0  0  0  0
  -24.8921  -32.2906   26.4887 H   0  0  0  0  0  0
  -25.8082  -30.8953   27.0255 H   0  0  0  0  0  0
  -26.2845  -29.6805   24.1126 H   0  0  0  0  0  0
  -27.4065  -29.7251   25.4553 H   0  0  0  0  0  0
  -27.8689  -30.4359   23.9248 H   0  0  0  0  0  0
  -27.2617  -33.3639   26.2051 H   0  0  0  0  0  0
  -28.3838  -32.6912   25.0319 H   0  0  0  0  0  0
  -28.0687  -31.8478   26.5420 H   0  0  0  0  0  0
  -28.2572  -38.0108   24.7477 H   0  0  0  0  0  0
  -28.1079  -36.2626   24.6299 H   0  0  0  0  0  0
  -27.2276  -37.1481   25.8857 H   0  0  0  0  0  0
  -20.9353  -29.8760   21.6969 H   0  0  0  0  0  0
  -26.0150  -38.2834   24.1430 H   0  0  0  0  0  0
  -30.5807  -22.5050   25.1071 H   0  0  0  0  0  0
  -31.7558  -21.7339   24.0491 H   0  0  0  0  0  0
  -30.4360  -20.7879   24.7301 H   0  0  0  0  0  0
  -27.9963  -15.8368   25.4606 H   0  0  0  0  0  0
  -29.7030  -16.2732   25.4212 H   0  0  0  0  0  0
  -29.2121  -14.6017   25.1519 H   0  0  0  0  0  0
  -31.5208  -17.7515   21.0649 H   0  0  0  0  0  0
  -31.0328  -17.9945   19.4301 H   0  0  0  0  0  0
  -28.7708  -22.1585   23.4182 H   0  0  0  0  0  0
  -30.0881  -23.1016   22.7674 H   0  0  0  0  0  0
  -28.5263  -16.9498   23.3163 H   0  0  0  0  0  0
  -28.0146  -15.3107   23.0498 H   0  0  0  0  0  0
  -29.9953  -23.8527   19.2385 H   0  0  0  0  0  0
  -29.9297  -24.1929   20.9250 H   0  0  0  0  0  0
  -28.1340  -22.2715   19.3164 H   0  0  0  0  0  0
  -27.7861  -22.6659   20.9677 H   0  0  0  0  0  0
  -29.2058  -16.6072   19.5946 H   0  0  0  0  0  0
  -28.7161  -17.2356   21.1103 H   0  0  0  0  0  0
  -30.5877  -14.7154   23.0881 H   0  0  0  0  0  0
  -30.8757  -16.4218   22.9481 H   0  0  0  0  0  0
  -29.1397  -25.6210   19.2749 H   0  0  0  0  0  0
  -28.0431  -25.1543   20.8831 H   0  0  0  0  0  0
  1 25  1  0  0  0
  1 30  2  0  0  0
  1 86  1  0  0  0
  2  3  1  0  0  0
  2 25  1  0  0  0
  2 87  1  0  0  0
  2 88  1  0  0  0
  3  4  1  0  0  0
  3 89  1  0  0  0
  3 90  1  0  0  0
  4  5  1  0  0  0
  4 91  1  0  0  0
  4 92  1  0  0  0
  5  6  1  0  0  0
  5 26  1  0  0  0
  5 93  1  0  0  0
  6 25  1  0  0  0
  6 94  1  0  0  0
  6 95  1  0  0  0
  7  8  2  0  0  0
  7 26  1  0  0  0
  7 29  1  0  0  0
  8  9  1  0  0  0
  8 22  1  0  0  0
  9 10  1  0  0  0
  9 27  2  0  0  0
 10 11  2  0  0  0
 10 15  1  0  0  0
 11 12  1  0  0  0
 11 96  1  0  0  0
 12 13  2  0  0  0
 12 97  1  0  0  0
 13 14  1  0  0  0
 13 31  1  0  0  0
 14 15  2  0  0  0
 14 98  1  0  0  0
 15 99  1  0  0  0
 16 17  2  0  0  0
 16 21  1  0  0  0
 16 31  1  0  0  0
 17 18  1  0  0  0
 17100  1  0  0  0
 18 19  2  0  0  0
 18101  1  0  0  0
 19 20  1  0  0  0
 19 24  1  0  0  0
 20 21  2  0  0  0
 20102  1  0  0  0
 21 23  1  0  0  0
 22 28  1  0  0  0
 22 32  2  0  0  0
 26 27  1  0  0  0
 28103  1  0  0  0
 28104  1  0  0  0
 29105  1  0  0  0
 29106  1  0  0  0
 33 34  1  0  0  0
 33 66  1  0  0  0
 33 70  2  0  0  0
 34 36  1  0  0  0
 34 59  1  0  0  0
 34107  1  0  0  0
 35 44  2  0  0  0
 35 45  1  0  0  0
 35 68  1  0  0  0
 36 56  1  0  0  0
 36108  1  0  0  0
 37 39  1  0  0  0
 37 47  1  0  0  0
 37 66  1  0  0  0
 37109  1  0  0  0
 38 43  2  0  0  0
 38 46  1  0  0  0
 38 47  1  0  0  0
 39 64  1  0  0  0
 39 67  2  0  0  0
 40 52  1  0  0  0
 40 53  2  0  0  0
 40 58  1  0  0  0
 41110  1  0  0  0
 41111  1  0  0  0
 41112  1  0  0  0
 41 48  1  0  0  0
 42 43  1  0  0  0
 42 66  1  0  0  0
 42113  1  0  0  0
 42114  1  0  0  0
 43 44  1  0  0  0
 44115  1  0  0  0
 45 46  2  0  0  0
 45116  1  0  0  0
 46117  1  0  0  0
 47118  1  0  0  0
 47119  1  0  0  0
 48 56  1  0  0  0
 48 65  1  0  0  0
 48120  1  0  0  0
 49 50  1  0  0  0
 49 53  1  0  0  0
 49 64  1  0  0  0
 49121  1  0  0  0
 50 51  1  0  0  0
 50122  1  0  0  0
 50123  1  0  0  0
 51 52  1  0  0  0
 51124  1  0  0  0
 51125  1  0  0  0
 52126  1  0  0  0
 52127  1  0  0  0
 53 54  1  0  0  0
 54 55  2  0  0  0
 54128  1  0  0  0
 55 57  1  0  0  0
 55129  1  0  0  0
 56 69  2  0  0  0
 57 58  2  0  0  0
 57130  1  0  0  0
 58131  1  0  0  0
 59 60  1  0  0  0
 59 61  1  0  0  0
 59 62  1  0  0  0
 60132  1  0  0  0
 60133  1  0  0  0
 60134  1  0  0  0
 61135  1  0  0  0
 61136  1  0  0  0
 61137  1  0  0  0
 62138  1  0  0  0
 62139  1  0  0  0
 62140  1  0  0  0
 63 65  1  0  0  0
 63141  1  0  0  0
 63142  1  0  0  0
 63143  1  0  0  0
 64144  1  0  0  0
 65145  1  0  0  0
 68 82  1  0  0  0
 71 75  1  0  0  0
 71 83  1  0  0  0
 71 84  2  0  0  0
 72 76  1  0  0  0
 72 83  2  0  0  0
 72 85  1  0  0  0
 73 76  1  0  0  0
 73146  1  0  0  0
 73147  1  0  0  0
 73148  1  0  0  0
 74 77  1  0  0  0
 74149  1  0  0  0
 74150  1  0  0  0
 74151  1  0  0  0
 75 80  1  0  0  0
 75152  1  0  0  0
 75153  1  0  0  0
 76154  1  0  0  0
 76155  1  0  0  0
 77 81  1  0  0  0
 77156  1  0  0  0
 77157  1  0  0  0
 78 79  1  0  0  0
 78 82  1  0  0  0
 78158  1  0  0  0
 78159  1  0  0  0
 79 85  1  0  0  0
 79160  1  0  0  0
 79161  1  0  0  0
 80 86  1  0  0  0
 80162  1  0  0  0
 80163  1  0  0  0
 81 86  1  0  0  0
 81164  1  0  0  0
 81165  1  0  0  0
 82166  1  0  0  0
 82167  1  0  0  0
 84 85  1  0  0  0
M  ISO  4   1 100  68 101  82 101  86 100
M  END
> <chiral flag>
0

> <version>
0

> <s_m_source_file>
/data/baiqing/PycharmProjects/Reinvent-master-3.2/result/LINK_invent/BTK/process_docking_weight1_custom_sum_contain_oxygen_bond_distance_aromatic_linkinvent_7_9_3/rearranged_h_0054.sdf

> <i_m_source_file_index>
49

> <r_mmod_Potential_Energy-OPLS-2005>
357.005279541016

> <r_mmod_Stretch_Energy-OPLS-2005>
62.3150253295898

> <r_mmod_Bend_Energy-OPLS-2005>
342.14453125

> <r_mmod_Torsional_Energy-OPLS-2005>
318.945678710938

> <r_mmod_Improper_Torsional_Energy-OPLS-2005>
5.76271963119507

> <r_mmod_Van_der_Waal_Energy-OPLS-2005>
123.23917388916

> <r_mmod_Electrostatic_Energy-OPLS-2005>
-315.371032714844

> <r_mmod_Solvation_Energy-OPLS-2005>
-203.539337158203

> <b_mmod_Minimization_Converged-OPLS-2005>
0

> <r_mmod_RMS_Derivative-OPLS-2005>
2.85713362693787

$$$$
49
                    3D
 Structure written by MMmdl.
161169  0  0  1  0            999 V2000
  -30.6352  -14.7687   20.5251 C   0  0  0  0  0  0
  -30.4399  -12.4977   19.4574 C   0  0  0  0  0  0
  -29.5049  -12.5375   18.2265 C   0  0  0  0  0  0
  -28.0303  -12.3523   18.6373 C   0  0  0  0  0  0
  -27.6451  -13.2246   19.8603 C   0  0  2  0  0  0
  -28.6998  -13.0907   20.9799 C   0  0  0  0  0  0
  -25.2489  -13.8160   20.5655 C   0  0  0  0  0  0
  -24.1797  -13.0414   20.9194 C   0  0  0  0  0  0
  -24.6393  -11.6892   20.8752 C   0  0  0  0  0  0
  -23.9074  -10.4276   21.0414 C   0  0  0  0  0  0
  -24.3626   -9.4192   21.9192 C   0  0  0  0  0  0
  -23.6295   -8.2232   22.0754 C   0  0  0  0  0  0
  -22.4275   -8.0277   21.3549 C   0  0  0  0  0  0
  -21.9923   -9.0251   20.4648 C   0  0  0  0  0  0
  -22.7249  -10.2128   20.3061 C   0  0  0  0  0  0
  -21.6849   -6.0736   22.5280 C   0  0  0  0  0  0
  -21.4016   -6.5642   23.8212 C   0  0  0  0  0  0
  -21.3655   -5.6793   24.9173 C   0  0  0  0  0  0
  -21.6042   -4.3054   24.7226 C   0  0  0  0  0  0
  -21.8822   -3.8148   23.4343 C   0  0  0  0  0  0
  -21.9193   -4.6967   22.3401 C   0  0  0  0  0  0
  -22.7816  -13.5195   21.1851 C   0  0  0  0  0  0
  -22.1660   -4.2151   21.0976 F   0  0  0  0  0  0
  -21.5627   -3.4538   25.7740 F   0  0  0  0  0  0
  -29.9805  -13.5451   20.4118 N   0  0  0  0  0  0
  -26.2946  -12.9372   20.3322 N   0  0  0  0  0  0
  -25.9327  -11.6518   20.5780 N   0  0  0  0  0  0
  -22.0475  -12.8189   22.0415 N   0  0  0  0  0  0
  -25.4102  -15.1879   20.3979 N   0  0  0  0  0  0
  -31.8108  -14.8156   20.1453 O   0  0  0  0  0  0
  -21.6634   -6.8879   21.4241 O   0  0  0  0  0  0
  -22.3490  -14.5491   20.6676 O   0  0  0  0  0  0
  -24.6338  -31.8554   23.1992 C   0  0  0  0  0  0
  -25.9153  -32.4750   23.8349 C   0  0  1  0  0  0
  -27.2203  -27.2512   20.1267 C   0  0  0  0  0  0
  -25.5945  -33.8555   24.2268 N   0  0  0  0  0  0
  -23.4304  -30.4802   21.5434 C   0  0  2  0  0  0
  -24.8765  -28.9282   20.1128 C   0  0  0  0  0  0
  -22.7519  -29.4610   22.4908 C   0  0  0  0  0  0
  -18.0298  -28.1387   22.8478 C   0  0  0  0  0  0
  -24.1489  -36.7297   23.2642 C   0  0  0  0  0  0
  -25.9797  -30.7649   21.3810 C   0  0  0  0  0  0
  -26.0516  -29.3881   20.7208 C   0  0  0  0  0  0
  -27.2266  -28.5645   20.7139 C   0  0  0  0  0  0
  -26.0172  -26.8700   19.4859 C   0  0  0  0  0  0
  -24.8663  -27.6773   19.4835 C   0  0  0  0  0  0
  -23.6489  -29.8173   20.1594 C   0  0  0  0  0  0
  -25.4112  -36.3071   24.0329 C   0  0  1  0  0  0
  -20.5902  -28.3706   23.1254 C   0  0  2  0  0  0
  -20.6784  -26.9423   22.5399 C   0  0  0  0  0  0
  -19.5759  -26.6382   21.5208 C   0  0  0  0  0  0
  -18.1938  -26.7929   22.1622 C   0  0  0  0  0  0
  -19.1551  -28.8862   23.2862 C   0  0  0  0  0  0
  -18.9471  -30.1459   23.8888 C   0  0  0  0  0  0
  -17.6469  -30.6586   24.0558 C   0  0  0  0  0  0
  -25.9055  -34.9439   23.5101 C   0  0  0  0  0  0
  -16.5360  -29.9081   23.6328 C   0  0  0  0  0  0
  -16.7285  -28.6497   23.0353 C   0  0  0  0  0  0
  -26.4505  -31.6576   25.0746 C   0  0  0  0  0  0
  -25.3726  -31.3731   26.1466 C   0  0  0  0  0  0
  -27.0350  -30.2987   24.6247 C   0  0  0  0  0  0
  -27.6045  -32.4334   25.7521 C   0  0  0  0  0  0
  -27.5579  -37.1805   24.8463 C   0  0  0  0  0  0
  -21.4223  -29.3055   22.3649 N   0  0  0  0  0  0
  -26.4289  -37.3767   23.9406 N   0  0  0  0  0  0
  -24.7008  -31.0511   22.0975 N   0  0  0  0  0  0
  -23.4211  -28.8146   23.3009 O   0  0  0  0  0  0
  -28.3101  -26.3402   20.1757 O   0  0  0  0  0  0
  -26.5622  -34.8915   22.4666 O   0  0  0  0  0  0
  -23.5480  -32.1380   23.7272 O   0  0  0  0  0  0
  -29.8992  -18.7037   20.2700 C   0  0  0  0  0  0
  -29.1987  -20.7787   20.2613 C   0  0  0  0  0  0
  -28.2474  -20.2113   16.7530 C   0  0  0  0  0  0
  -30.4412  -21.4551   17.1070 C   0  0  0  0  0  0
  -28.8404  -16.0773   21.7367 C   0  0  0  0  0  0
  -30.6330  -17.3586   20.6622 C   0  0  0  0  0  0
  -28.5129  -22.1635   20.6194 C   0  0  0  0  0  0
  -29.0866  -23.6506   20.2955 C   0  0  0  0  0  0
  -28.0046  -24.8610   20.2360 C   0  0  0  0  0  0
  -29.0996  -21.0394   17.7315 C   0  0  0  0  0  0
  -29.5684  -19.7735   21.1116 N   0  0  0  0  0  0
  -29.7743  -19.0372   18.9854 N   0  0  0  0  0  0
  -29.3242  -20.3378   18.9938 N   0  0  0  0  0  0
  -29.9677  -15.9799   20.8046 N   0  0  0  0  0  0
  -31.4713  -12.6437   19.1329 H   0  0  0  0  0  0
  -30.4263  -11.5106   19.9228 H   0  0  0  0  0  0
  -29.7917  -11.7716   17.5052 H   0  0  0  0  0  0
  -29.6199  -13.4946   17.7155 H   0  0  0  0  0  0
  -27.8782  -11.2982   18.8733 H   0  0  0  0  0  0
  -27.3737  -12.5734   17.7953 H   0  0  0  0  0  0
  -27.6527  -14.2565   19.5092 H   0  0  0  0  0  0
  -28.7715  -12.0481   21.2931 H   0  0  0  0  0  0
  -28.4157  -13.6102   21.8887 H   0  0  0  0  0  0
  -25.2778   -9.5662   22.4760 H   0  0  0  0  0  0
  -24.0003   -7.4621   22.7470 H   0  0  0  0  0  0
  -21.0859   -8.8768   19.8949 H   0  0  0  0  0  0
  -22.3713  -10.9668   19.6165 H   0  0  0  0  0  0
  -21.2012   -7.6151   23.9710 H   0  0  0  0  0  0
  -21.1472   -6.0526   25.9070 H   0  0  0  0  0  0
  -22.0609   -2.7612   23.2838 H   0  0  0  0  0  0
  -22.4116  -11.9861   22.4807 H   0  0  0  0  0  0
  -21.1085  -13.1195   22.2613 H   0  0  0  0  0  0
  -24.6372  -15.8362   20.4995 H   0  0  0  0  0  0
  -26.2530  -15.6276   20.0526 H   0  0  0  0  0  0
  -26.7224  -32.5388   23.1093 H   0  0  0  0  0  0
  -25.0088  -33.9689   25.0410 H   0  0  0  0  0  0
  -22.7276  -31.3036   21.3979 H   0  0  0  0  0  0
  -23.3743  -35.9637   23.3294 H   0  0  0  0  0  0
  -24.3587  -36.8935   22.2060 H   0  0  0  0  0  0
  -23.7249  -37.6500   23.6672 H   0  0  0  0  0  0
  -26.1215  -31.5249   20.6111 H   0  0  0  0  0  0
  -26.8564  -30.8120   22.0150 H   0  0  0  0  0  0
  -28.1245  -28.9140   21.2031 H   0  0  0  0  0  0
  -25.9199  -25.9261   18.9762 H   0  0  0  0  0  0
  -23.9694  -27.3191   18.9969 H   0  0  0  0  0  0
  -23.7782  -30.5959   19.4068 H   0  0  0  0  0  0
  -22.7650  -29.2564   19.8499 H   0  0  0  0  0  0
  -25.1286  -36.1927   25.0821 H   0  0  0  0  0  0
  -20.9991  -28.3288   24.1375 H   0  0  0  0  0  0
  -20.5684  -26.2325   23.3612 H   0  0  0  0  0  0
  -21.6654  -26.7447   22.1194 H   0  0  0  0  0  0
  -19.6925  -25.6285   21.1253 H   0  0  0  0  0  0
  -19.6689  -27.3175   20.6723 H   0  0  0  0  0  0
  -17.4209  -26.6672   21.4025 H   0  0  0  0  0  0
  -18.0342  -26.0072   22.9018 H   0  0  0  0  0  0
  -19.7945  -30.7277   24.2259 H   0  0  0  0  0  0
  -17.5021  -31.6263   24.5163 H   0  0  0  0  0  0
  -15.5357  -30.2980   23.7654 H   0  0  0  0  0  0
  -15.8686  -28.0810   22.7077 H   0  0  0  0  0  0
  -24.5906  -30.7066   25.7806 H   0  0  0  0  0  0
  -24.8907  -32.2898   26.4874 H   0  0  0  0  0  0
  -25.8050  -30.8933   27.0256 H   0  0  0  0  0  0
  -26.2943  -29.6732   24.1252 H   0  0  0  0  0  0
  -27.3993  -29.7250   25.4779 H   0  0  0  0  0  0
  -27.8840  -30.4244   23.9525 H   0  0  0  0  0  0
  -27.2640  -33.3647   26.2062 H   0  0  0  0  0  0
  -28.3874  -32.6884   25.0366 H   0  0  0  0  0  0
  -28.0696  -31.8494   26.5472 H   0  0  0  0  0  0
  -28.2581  -38.0114   24.7505 H   0  0  0  0  0  0
  -28.1092  -36.2643   24.6287 H   0  0  0  0  0  0
  -27.2307  -37.1454   25.8869 H   0  0  0  0  0  0
  -20.9418  -29.8799   21.6864 H   0  0  0  0  0  0
  -26.0171  -38.2846   24.1386 H   0  0  0  0  0  0
  -28.0365  -20.7772   15.8450 H   0  0  0  0  0  0
  -27.2912  -19.9360   17.2003 H   0  0  0  0  0  0
  -28.7522  -19.2916   16.4560 H   0  0  0  0  0  0
  -30.2900  -22.0655   16.2167 H   0  0  0  0  0  0
  -31.0335  -20.5857   16.8189 H   0  0  0  0  0  0
  -31.0360  -22.0405   17.8094 H   0  0  0  0  0  0
  -29.0581  -15.5441   22.6633 H   0  0  0  0  0  0
  -27.9251  -15.6903   21.2999 H   0  0  0  0  0  0
  -28.6213  -17.1042   22.0289 H   0  0  0  0  0  0
  -31.1347  -17.5444   21.6124 H   0  0  0  0  0  0
  -31.4545  -17.2607   19.9516 H   0  0  0  0  0  0
  -28.2987  -22.1357   21.6870 H   0  0  0  0  0  0
  -27.5268  -22.1130   20.1574 H   0  0  0  0  0  0
  -29.5960  -23.6274   19.3326 H   0  0  0  0  0  0
  -29.8586  -23.8857   21.0281 H   0  0  0  0  0  0
  -27.3370  -24.7301   21.0883 H   0  0  0  0  0  0
  -27.4161  -24.6044   19.3590 H   0  0  0  0  0  0
  -28.5387  -21.9481   17.9488 H   0  0  0  0  0  0
  1 25  1  0  0  0
  1 30  2  0  0  0
  1 84  1  0  0  0
  2  3  1  0  0  0
  2 25  1  0  0  0
  2 85  1  0  0  0
  2 86  1  0  0  0
  3  4  1  0  0  0
  3 87  1  0  0  0
  3 88  1  0  0  0
  4  5  1  0  0  0
  4 89  1  0  0  0
  4 90  1  0  0  0
  5  6  1  0  0  0
  5 26  1  0  0  0
  5 91  1  0  0  0
  6 25  1  0  0  0
  6 92  1  0  0  0
  6 93  1  0  0  0
  7  8  2  0  0  0
  7 26  1  0  0  0
  7 29  1  0  0  0
  8  9  1  0  0  0
  8 22  1  0  0  0
  9 10  1  0  0  0
  9 27  2  0  0  0
 10 11  2  0  0  0
 10 15  1  0  0  0
 11 12  1  0  0  0
 11 94  1  0  0  0
 12 13  2  0  0  0
 12 95  1  0  0  0
 13 14  1  0  0  0
 13 31  1  0  0  0
 14 15  2  0  0  0
 14 96  1  0  0  0
 15 97  1  0  0  0
 16 17  2  0  0  0
 16 21  1  0  0  0
 16 31  1  0  0  0
 17 18  1  0  0  0
 17 98  1  0  0  0
 18 19  2  0  0  0
 18 99  1  0  0  0
 19 20  1  0  0  0
 19 24  1  0  0  0
 20 21  2  0  0  0
 20100  1  0  0  0
 21 23  1  0  0  0
 22 28  1  0  0  0
 22 32  2  0  0  0
 26 27  1  0  0  0
 28101  1  0  0  0
 28102  1  0  0  0
 29103  1  0  0  0
 29104  1  0  0  0
 33 34  1  0  0  0
 33 66  1  0  0  0
 33 70  2  0  0  0
 34 36  1  0  0  0
 34 59  1  0  0  0
 34105  1  0  0  0
 35 44  2  0  0  0
 35 45  1  0  0  0
 35 68  1  0  0  0
 36 56  1  0  0  0
 36106  1  0  0  0
 37 39  1  0  0  0
 37 47  1  0  0  0
 37 66  1  0  0  0
 37107  1  0  0  0
 38 43  2  0  0  0
 38 46  1  0  0  0
 38 47  1  0  0  0
 39 64  1  0  0  0
 39 67  2  0  0  0
 40 52  1  0  0  0
 40 53  2  0  0  0
 40 58  1  0  0  0
 41108  1  0  0  0
 41109  1  0  0  0
 41110  1  0  0  0
 41 48  1  0  0  0
 42 43  1  0  0  0
 42 66  1  0  0  0
 42111  1  0  0  0
 42112  1  0  0  0
 43 44  1  0  0  0
 44113  1  0  0  0
 45 46  2  0  0  0
 45114  1  0  0  0
 46115  1  0  0  0
 47116  1  0  0  0
 47117  1  0  0  0
 48 56  1  0  0  0
 48 65  1  0  0  0
 48118  1  0  0  0
 49 50  1  0  0  0
 49 53  1  0  0  0
 49 64  1  0  0  0
 49119  1  0  0  0
 50 51  1  0  0  0
 50120  1  0  0  0
 50121  1  0  0  0
 51 52  1  0  0  0
 51122  1  0  0  0
 51123  1  0  0  0
 52124  1  0  0  0
 52125  1  0  0  0
 53 54  1  0  0  0
 54 55  2  0  0  0
 54126  1  0  0  0
 55 57  1  0  0  0
 55127  1  0  0  0
 56 69  2  0  0  0
 57 58  2  0  0  0
 57128  1  0  0  0
 58129  1  0  0  0
 59 60  1  0  0  0
 59 61  1  0  0  0
 59 62  1  0  0  0
 60130  1  0  0  0
 60131  1  0  0  0
 60132  1  0  0  0
 61133  1  0  0  0
 61134  1  0  0  0
 61135  1  0  0  0
 62136  1  0  0  0
 62137  1  0  0  0
 62138  1  0  0  0
 63 65  1  0  0  0
 63139  1  0  0  0
 63140  1  0  0  0
 63141  1  0  0  0
 64142  1  0  0  0
 65143  1  0  0  0
 68 79  1  0  0  0
 71 76  1  0  0  0
 71 81  1  0  0  0
 71 82  2  0  0  0
 72 77  1  0  0  0
 72 81  2  0  0  0
 72 83  1  0  0  0
 73144  1  0  0  0
 73145  1  0  0  0
 73146  1  0  0  0
 73 80  1  0  0  0
 74 80  1  0  0  0
 74147  1  0  0  0
 74148  1  0  0  0
 74149  1  0  0  0
 75 84  1  0  0  0
 75150  1  0  0  0
 75151  1  0  0  0
 75152  1  0  0  0
 76 84  1  0  0  0
 76153  1  0  0  0
 76154  1  0  0  0
 77 78  1  0  0  0
 77155  1  0  0  0
 77156  1  0  0  0
 78 79  1  0  0  0
 78157  1  0  0  0
 78158  1  0  0  0
 79159  1  0  0  0
 79160  1  0  0  0
 80 83  1  0  0  0
 80161  1  0  0  0
 82 83  1  0  0  0
M  ISO  4   1 100  68 101  79 101  84 100
M  END
> <chiral flag>
0

> <version>
0

> <s_m_source_file>
/data/baiqing/PycharmProjects/Reinvent-master-3.2/result/LINK_invent/BTK/process_docking_weight1_custom_sum_contain_oxygen_bond_distance_aromatic_linkinvent_7_9_3/rearranged_h_0054.sdf

> <i_m_source_file_index>
50

> <r_mmod_Potential_Energy-OPLS-2005>
228.507858276367

> <r_mmod_Stretch_Energy-OPLS-2005>
137.749008178711

> <r_mmod_Bend_Energy-OPLS-2005>
212.00798034668

> <r_mmod_Torsional_Energy-OPLS-2005>
269.911071777344

> <r_mmod_Improper_Torsional_Energy-OPLS-2005>
9.35997867584229

> <r_mmod_Van_der_Waal_Energy-OPLS-2005>
131.279098510742

> <r_mmod_Electrostatic_Energy-OPLS-2005>
-402.041595458984

> <r_mmod_Solvation_Energy-OPLS-2005>
-216.845397949219

> <b_mmod_Minimization_Converged-OPLS-2005>
0

> <r_mmod_RMS_Derivative-OPLS-2005>
1.20723378658295

$$$$
50
                    3D
 Structure written by MMmdl.
154162  0  0  1  0            999 V2000
  -30.2202  -15.8758   20.3108 C   0  0  0  0  0  0
  -30.4097  -13.2648   19.5472 C   0  0  0  0  0  0
  -29.5621  -12.7122   18.3585 C   0  0  0  0  0  0
  -28.1570  -12.3051   18.8172 C   0  0  0  0  0  0
  -27.5907  -13.3339   19.8174 C   0  0  2  0  0  0
  -28.5896  -13.7736   20.9213 C   0  0  0  0  0  0
  -25.2301  -13.8323   20.5852 C   0  0  0  0  0  0
  -24.1704  -13.0447   20.9316 C   0  0  0  0  0  0
  -24.6447  -11.6959   20.8775 C   0  0  0  0  0  0
  -23.9146  -10.4301   21.0398 C   0  0  0  0  0  0
  -24.3673   -9.4204   21.9181 C   0  0  0  0  0  0
  -23.6321   -8.2237   22.0756 C   0  0  0  0  0  0
  -22.4302   -8.0289   21.3541 C   0  0  0  0  0  0
  -21.9959   -9.0272   20.4636 C   0  0  0  0  0  0
  -22.7310  -10.2135   20.3043 C   0  0  0  0  0  0
  -21.6865   -6.0730   22.5264 C   0  0  0  0  0  0
  -21.4031   -6.5639   23.8202 C   0  0  0  0  0  0
  -21.3665   -5.6789   24.9165 C   0  0  0  0  0  0
  -21.6049   -4.3048   24.7222 C   0  0  0  0  0  0
  -21.8823   -3.8141   23.4348 C   0  0  0  0  0  0
  -21.9206   -4.6957   22.3398 C   0  0  0  0  0  0
  -22.7707  -13.5142   21.1949 C   0  0  0  0  0  0
  -22.1664   -4.2138   21.0973 F   0  0  0  0  0  0
  -21.5632   -3.4538   25.7743 F   0  0  0  0  0  0
  -29.7258  -14.4672   20.2510 N   0  0  0  0  0  0
  -26.2785  -12.9701   20.3319 N   0  0  0  0  0  0
  -25.9401  -11.6738   20.5709 N   0  0  0  0  0  0
  -22.0406  -12.8097   22.0498 N   0  0  0  0  0  0
  -25.3868  -15.2079   20.4303 N   0  0  0  0  0  0
  -31.4580  -15.7732   20.1524 O   0  0  0  0  0  0
  -21.6658   -6.8888   21.4231 O   0  0  0  0  0  0
  -22.3366  -14.5429   20.6782 O   0  0  0  0  0  0
  -24.6965  -31.7819   23.1477 C   0  0  0  0  0  0
  -25.9470  -32.4401   23.8067 C   0  0  1  0  0  0
  -27.2217  -26.5361   20.2535 C   0  0  0  0  0  0
  -25.5999  -33.8241   24.1906 N   0  0  0  0  0  0
  -23.5317  -30.3791   21.5045 C   0  0  2  0  0  0
  -24.9886  -28.6829   20.1374 C   0  0  0  0  0  0
  -22.7832  -29.4190   22.4710 C   0  0  0  0  0  0
  -18.0318  -28.1434   22.8398 C   0  0  0  0  0  0
  -24.1492  -36.7117   23.2653 C   0  0  0  0  0  0
  -26.1192  -30.4634   21.4330 C   0  0  0  0  0  0
  -26.1785  -29.0052   20.7982 C   0  0  0  0  0  0
  -27.2718  -27.9644   20.8224 C   0  0  0  0  0  0
  -25.9993  -26.4712   19.5238 C   0  0  0  0  0  0
  -24.9458  -27.4430   19.4757 C   0  0  0  0  0  0
  -23.7957  -29.6622   20.1458 C   0  0  0  0  0  0
  -25.4168  -36.2871   24.0260 C   0  0  1  0  0  0
  -20.5959  -28.3781   23.1108 C   0  0  2  0  0  0
  -20.6780  -26.9437   22.5400 C   0  0  0  0  0  0
  -19.5765  -26.6382   21.5211 C   0  0  0  0  0  0
  -18.1952  -26.7937   22.1622 C   0  0  0  0  0  0
  -19.1592  -28.8937   23.2714 C   0  0  0  0  0  0
  -18.9495  -30.1506   23.8792 C   0  0  0  0  0  0
  -17.6482  -30.6601   24.0526 C   0  0  0  0  0  0
  -25.9152  -34.9241   23.4933 C   0  0  0  0  0  0
  -16.5370  -29.9078   23.6339 C   0  0  0  0  0  0
  -16.7294  -28.6507   23.0346 C   0  0  0  0  0  0
  -26.4628  -31.6490   25.0723 C   0  0  0  0  0  0
  -25.3665  -31.3845   26.1320 C   0  0  0  0  0  0
  -27.0540  -30.2809   24.6672 C   0  0  0  0  0  0
  -27.6084  -32.4358   25.7545 C   0  0  0  0  0  0
  -27.5571  -37.1724   24.8458 C   0  0  0  0  0  0
  -21.4468  -29.2991   22.3432 N   0  0  0  0  0  0
  -26.4284  -37.3642   23.9403 N   0  0  0  0  0  0
  -24.8090  -30.9099   22.0838 N   0  0  0  0  0  0
  -23.4191  -28.7798   23.3116 O   0  0  0  0  0  0
  -28.1903  -25.2663   20.2061 O   0  0  0  0  0  0
  -26.5813  -34.8835   22.4558 O   0  0  0  0  0  0
  -23.5944  -32.0944   23.6335 O   0  0  0  0  0  0
  -27.8890  -21.4275   21.3763 C   0  0  0  0  0  0
  -28.8102  -20.9354   20.4163 C   0  0  0  0  0  0
  -28.2052  -23.5960   20.3908 C   0  0  0  0  0  0
  -29.6767  -23.1661   16.1224 C   0  0  0  0  0  0
  -27.4794  -22.8992   17.3153 C   0  0  0  0  0  0
  -29.6158  -19.1556   20.1637 C   0  0  0  0  0  0
  -29.7347  -22.6973   18.6302 C   0  0  0  0  0  0
  -28.9637  -22.4725   17.2957 C   0  0  0  0  0  0
  -28.9353  -22.3999   19.8244 N   0  0  0  0  0  0
  -27.5929  -22.8517   21.3468 N   0  3  0  0  0  0
  -29.4726  -17.3073   20.3632 N   0  0  0  0  0  0
  -31.3785  -13.5667   19.1456 H   0  0  0  0  0  0
  -30.6396  -12.4711   20.2608 H   0  0  0  0  0  0
  -30.0651  -11.8655   17.8905 H   0  0  0  0  0  0
  -29.4809  -13.4832   17.5918 H   0  0  0  0  0  0
  -28.2293  -11.3325   19.3056 H   0  0  0  0  0  0
  -27.4897  -12.1761   17.9646 H   0  0  0  0  0  0
  -27.4204  -14.2197   19.2031 H   0  0  0  0  0  0
  -28.9074  -12.9383   21.5470 H   0  0  0  0  0  0
  -28.1107  -14.4919   21.5890 H   0  0  0  0  0  0
  -25.2811   -9.5681   22.4764 H   0  0  0  0  0  0
  -24.0025   -7.4644   22.7480 H   0  0  0  0  0  0
  -21.0888   -8.8795   19.8944 H   0  0  0  0  0  0
  -22.3767  -10.9677   19.6145 H   0  0  0  0  0  0
  -21.2009   -7.6153   23.9696 H   0  0  0  0  0  0
  -21.1487   -6.0525   25.9067 H   0  0  0  0  0  0
  -22.0602   -2.7606   23.2849 H   0  0  0  0  0  0
  -22.4064  -11.9777   22.4883 H   0  0  0  0  0  0
  -21.0994  -13.1040   22.2685 H   0  0  0  0  0  0
  -24.6172  -15.8564   20.5524 H   0  0  0  0  0  0
  -26.2270  -15.6536   20.0883 H   0  0  0  0  0  0
  -26.7537  -32.4835   23.0777 H   0  0  0  0  0  0
  -25.0029  -33.9273   24.9982 H   0  0  0  0  0  0
  -22.8685  -31.2227   21.3025 H   0  0  0  0  0  0
  -23.3777  -35.9414   23.3238 H   0  0  0  0  0  0
  -24.3542  -36.8857   22.2078 H   0  0  0  0  0  0
  -23.7211  -37.6268   23.6756 H   0  0  0  0  0  0
  -26.3191  -31.1725   20.6283 H   0  0  0  0  0  0
  -26.9752  -30.5546   22.0893 H   0  0  0  0  0  0
  -28.1744  -28.2307   21.3562 H   0  0  0  0  0  0
  -25.8165  -25.5501   18.9899 H   0  0  0  0  0  0
  -24.0570  -27.1929   18.9167 H   0  0  0  0  0  0
  -23.9824  -30.4160   19.3805 H   0  0  0  0  0  0
  -22.8985  -29.1362   19.8191 H   0  0  0  0  0  0
  -25.1392  -36.1630   25.0751 H   0  0  0  0  0  0
  -20.9992  -28.3391   24.1249 H   0  0  0  0  0  0
  -20.5597  -26.2451   23.3681 H   0  0  0  0  0  0
  -21.6649  -26.7332   22.1264 H   0  0  0  0  0  0
  -19.6925  -25.6272   21.1304 H   0  0  0  0  0  0
  -19.6713  -27.3157   20.6701 H   0  0  0  0  0  0
  -17.4217  -26.6604   21.4043 H   0  0  0  0  0  0
  -18.0317  -26.0153   22.9089 H   0  0  0  0  0  0
  -19.7980  -30.7318   24.2154 H   0  0  0  0  0  0
  -17.5043  -31.6267   24.5147 H   0  0  0  0  0  0
  -15.5362  -30.2950   23.7742 H   0  0  0  0  0  0
  -15.8691  -28.0804   22.7134 H   0  0  0  0  0  0
  -24.5838  -30.7209   25.7622 H   0  0  0  0  0  0
  -24.8880  -32.3081   26.4579 H   0  0  0  0  0  0
  -25.7820  -30.9112   27.0223 H   0  0  0  0  0  0
  -26.3244  -29.6446   24.1658 H   0  0  0  0  0  0
  -27.3871  -29.7239   25.5435 H   0  0  0  0  0  0
  -27.9290  -30.3892   24.0269 H   0  0  0  0  0  0
  -27.2630  -33.3742   26.1902 H   0  0  0  0  0  0
  -28.4050  -32.6788   25.0496 H   0  0  0  0  0  0
  -28.0576  -31.8619   26.5659 H   0  0  0  0  0  0
  -28.2560  -38.0059   24.7567 H   0  0  0  0  0  0
  -28.1111  -36.2577   24.6245 H   0  0  0  0  0  0
  -27.2265  -37.1326   25.8857 H   0  0  0  0  0  0
  -20.9820  -29.8678   21.6496 H   0  0  0  0  0  0
  -26.0086  -38.2681   24.1438 H   0  0  0  0  0  0
  -27.4129  -20.8369   22.1455 H   0  0  0  0  0  0
  -29.1419  -23.0073   15.1847 H   0  0  0  0  0  0
  -30.6922  -22.7920   15.9895 H   0  0  0  0  0  0
  -29.7354  -24.2438   16.2816 H   0  0  0  0  0  0
  -27.0002  -22.6706   16.3620 H   0  0  0  0  0  0
  -27.3717  -23.9727   17.4751 H   0  0  0  0  0  0
  -26.9050  -22.3792   18.0838 H   0  0  0  0  0  0
  -30.5566  -19.2962   20.6974 H   0  0  0  0  0  0
  -29.9186  -19.1995   19.1168 H   0  0  0  0  0  0
  -30.0487  -23.7390   18.7125 H   0  0  0  0  0  0
  -30.6421  -22.0941   18.6655 H   0  0  0  0  0  0
  -28.9714  -21.3987   17.0985 H   0  0  0  0  0  0
  -26.9831  -23.2811   22.0330 H   0  0  0  0  0  0
  -28.4900  -17.1000   20.4846 H   0  0  0  0  0  0
  1 25  1  0  0  0
  1 30  2  0  0  0
  1 81  1  0  0  0
  2  3  1  0  0  0
  2 25  1  0  0  0
  2 82  1  0  0  0
  2 83  1  0  0  0
  3  4  1  0  0  0
  3 84  1  0  0  0
  3 85  1  0  0  0
  4  5  1  0  0  0
  4 86  1  0  0  0
  4 87  1  0  0  0
  5  6  1  0  0  0
  5 26  1  0  0  0
  5 88  1  0  0  0
  6 25  1  0  0  0
  6 89  1  0  0  0
  6 90  1  0  0  0
  7  8  2  0  0  0
  7 26  1  0  0  0
  7 29  1  0  0  0
  8  9  1  0  0  0
  8 22  1  0  0  0
  9 10  1  0  0  0
  9 27  2  0  0  0
 10 11  2  0  0  0
 10 15  1  0  0  0
 11 12  1  0  0  0
 11 91  1  0  0  0
 12 13  2  0  0  0
 12 92  1  0  0  0
 13 14  1  0  0  0
 13 31  1  0  0  0
 14 15  2  0  0  0
 14 93  1  0  0  0
 15 94  1  0  0  0
 16 17  2  0  0  0
 16 21  1  0  0  0
 16 31  1  0  0  0
 17 18  1  0  0  0
 17 95  1  0  0  0
 18 19  2  0  0  0
 18 96  1  0  0  0
 19 20  1  0  0  0
 19 24  1  0  0  0
 20 21  2  0  0  0
 20 97  1  0  0  0
 21 23  1  0  0  0
 22 28  1  0  0  0
 22 32  2  0  0  0
 26 27  1  0  0  0
 28 98  1  0  0  0
 28 99  1  0  0  0
 29100  1  0  0  0
 29101  1  0  0  0
 33 34  1  0  0  0
 33 66  1  0  0  0
 33 70  2  0  0  0
 34 36  1  0  0  0
 34 59  1  0  0  0
 34102  1  0  0  0
 35 44  2  0  0  0
 35 45  1  0  0  0
 35 68  1  0  0  0
 36 56  1  0  0  0
 36103  1  0  0  0
 37 39  1  0  0  0
 37 47  1  0  0  0
 37 66  1  0  0  0
 37104  1  0  0  0
 38 43  2  0  0  0
 38 46  1  0  0  0
 38 47  1  0  0  0
 39 64  1  0  0  0
 39 67  2  0  0  0
 40 52  1  0  0  0
 40 53  2  0  0  0
 40 58  1  0  0  0
 41105  1  0  0  0
 41106  1  0  0  0
 41107  1  0  0  0
 41 48  1  0  0  0
 42 43  1  0  0  0
 42 66  1  0  0  0
 42108  1  0  0  0
 42109  1  0  0  0
 43 44  1  0  0  0
 44110  1  0  0  0
 45 46  2  0  0  0
 45111  1  0  0  0
 46112  1  0  0  0
 47113  1  0  0  0
 47114  1  0  0  0
 48 56  1  0  0  0
 48 65  1  0  0  0
 48115  1  0  0  0
 49 50  1  0  0  0
 49 53  1  0  0  0
 49 64  1  0  0  0
 49116  1  0  0  0
 50 51  1  0  0  0
 50117  1  0  0  0
 50118  1  0  0  0
 51 52  1  0  0  0
 51119  1  0  0  0
 51120  1  0  0  0
 52121  1  0  0  0
 52122  1  0  0  0
 53 54  1  0  0  0
 54 55  2  0  0  0
 54123  1  0  0  0
 55 57  1  0  0  0
 55124  1  0  0  0
 56 69  2  0  0  0
 57 58  2  0  0  0
 57125  1  0  0  0
 58126  1  0  0  0
 59 60  1  0  0  0
 59 61  1  0  0  0
 59 62  1  0  0  0
 60127  1  0  0  0
 60128  1  0  0  0
 60129  1  0  0  0
 61130  1  0  0  0
 61131  1  0  0  0
 61132  1  0  0  0
 62133  1  0  0  0
 62134  1  0  0  0
 62135  1  0  0  0
 63 65  1  0  0  0
 63136  1  0  0  0
 63137  1  0  0  0
 63138  1  0  0  0
 64139  1  0  0  0
 65140  1  0  0  0
 68 73  1  0  0  0
 71 72  2  0  0  0
 71 80  1  0  0  0
 71141  1  0  0  0
 72 76  1  0  0  0
 72 79  1  0  0  0
 73 79  1  0  0  0
 73 80  2  0  0  0
 74142  1  0  0  0
 74143  1  0  0  0
 74144  1  0  0  0
 74 78  1  0  0  0
 75 78  1  0  0  0
 75145  1  0  0  0
 75146  1  0  0  0
 75147  1  0  0  0
 76 81  1  0  0  0
 76148  1  0  0  0
 76149  1  0  0  0
 77 78  1  0  0  0
 77 79  1  0  0  0
 77150  1  0  0  0
 77151  1  0  0  0
 78152  1  0  0  0
 80153  1  0  0  0
 81154  1  0  0  0
M  CHG  1  80   1
M  ISO  4   1 100  68 101  73 101  81 100
M  END
> <chiral flag>
0

> <version>
0

> <s_m_source_file>
/data/baiqing/PycharmProjects/Reinvent-master-3.2/result/LINK_invent/BTK/process_docking_weight1_custom_sum_contain_oxygen_bond_distance_aromatic_linkinvent_7_9_3/rearranged_h_0054.sdf

> <i_m_source_file_index>
51

> <r_mmod_Potential_Energy-OPLS-2005>
3008.26391601562

> <r_mmod_Stretch_Energy-OPLS-2005>
1343.37670898438

> <r_mmod_Bend_Energy-OPLS-2005>
741.646606445312

> <r_mmod_Torsional_Energy-OPLS-2005>
229.824020385742

> <r_mmod_Improper_Torsional_Energy-OPLS-2005>
4.89894533157349

> <r_mmod_Van_der_Waal_Energy-OPLS-2005>
105.951095581055

> <r_mmod_Electrostatic_Energy-OPLS-2005>
-258.351593017578

> <r_mmod_Solvation_Energy-OPLS-2005>
-437.338500976562

> <b_mmod_Minimization_Converged-OPLS-2005>
0

> <r_mmod_RMS_Derivative-OPLS-2005>
4.4276876449585

$$$$
51
                    3D
 Structure written by MMmdl.
164172  0  0  1  0            999 V2000
  -30.7520  -14.4941   20.6151 C   0  0  0  0  0  0
  -30.4208  -12.3248   19.4258 C   0  0  0  0  0  0
  -29.5048  -12.5107   18.1945 C   0  0  0  0  0  0
  -28.0162  -12.3816   18.5909 C   0  0  0  0  0  0
  -27.6619  -13.2208   19.8481 C   0  0  2  0  0  0
  -28.7087  -13.0004   20.9643 C   0  0  0  0  0  0
  -25.2584  -13.8247   20.5618 C   0  0  0  0  0  0
  -24.1841  -13.0472   20.9166 C   0  0  0  0  0  0
  -24.6440  -11.6968   20.8686 C   0  0  0  0  0  0
  -23.9118  -10.4307   21.0355 C   0  0  0  0  0  0
  -24.3652   -9.4208   21.9125 C   0  0  0  0  0  0
  -23.6293   -8.2252   22.0714 C   0  0  0  0  0  0
  -22.4256   -8.0311   21.3528 C   0  0  0  0  0  0
  -21.9927   -9.0284   20.4608 C   0  0  0  0  0  0
  -22.7295  -10.2144   20.2994 C   0  0  0  0  0  0
  -21.6890   -6.0725   22.5253 C   0  0  0  0  0  0
  -21.4038   -6.5604   23.8181 C   0  0  0  0  0  0
  -21.3641   -5.6768   24.9147 C   0  0  0  0  0  0
  -21.6038   -4.3032   24.7219 C   0  0  0  0  0  0
  -21.8831   -3.8127   23.4340 C   0  0  0  0  0  0
  -21.9199   -4.6948   22.3395 C   0  0  0  0  0  0
  -22.7859  -13.5221   21.1887 C   0  0  0  0  0  0
  -22.1674   -4.2108   21.0980 F   0  0  0  0  0  0
  -21.5616   -3.4519   25.7745 F   0  0  0  0  0  0
  -30.0400  -13.3303   20.4412 N   0  0  0  0  0  0
  -26.3032  -12.9419   20.3206 N   0  0  0  0  0  0
  -25.9352  -11.6583   20.5639 N   0  0  0  0  0  0
  -22.0534  -12.8127   22.0459 N   0  0  0  0  0  0
  -25.4315  -15.1940   20.4009 N   0  0  0  0  0  0
  -31.7839  -14.6930   19.9671 O   0  0  0  0  0  0
  -21.6644   -6.8879   21.4221 O   0  0  0  0  0  0
  -22.3481  -14.5512   20.6780 O   0  0  0  0  0  0
  -24.6296  -31.8636   23.2162 C   0  0  0  0  0  0
  -25.9134  -32.4847   23.8473 C   0  0  1  0  0  0
  -27.1971  -27.3841   20.0880 C   0  0  0  0  0  0
  -25.5940  -33.8630   24.2388 N   0  0  0  0  0  0
  -23.4130  -30.5008   21.5590 C   0  0  2  0  0  0
  -24.8477  -28.9840   20.0973 C   0  0  0  0  0  0
  -22.7471  -29.4659   22.4995 C   0  0  0  0  0  0
  -18.0315  -28.1376   22.8466 C   0  0  0  0  0  0
  -24.1473  -36.7361   23.2617 C   0  0  0  0  0  0
  -25.9521  -30.8211   21.3713 C   0  0  0  0  0  0
  -26.0194  -29.4594   20.7026 C   0  0  0  0  0  0
  -27.2032  -28.6732   20.6817 C   0  0  0  0  0  0
  -26.0029  -26.9567   19.4501 C   0  0  0  0  0  0
  -24.8414  -27.7415   19.4539 C   0  0  0  0  0  0
  -23.6162  -29.8587   20.1649 C   0  0  0  0  0  0
  -25.4092  -36.3142   24.0347 C   0  0  1  0  0  0
  -20.5889  -28.3630   23.1322 C   0  0  2  0  0  0
  -20.6796  -26.9361   22.5369 C   0  0  0  0  0  0
  -19.5801  -26.6359   21.5147 C   0  0  0  0  0  0
  -18.1973  -26.7952   22.1540 C   0  0  0  0  0  0
  -19.1544  -28.8839   23.2900 C   0  0  0  0  0  0
  -18.9438  -30.1458   23.8907 C   0  0  0  0  0  0
  -17.6424  -30.6569   24.0541 C   0  0  0  0  0  0
  -25.8995  -34.9486   23.5140 C   0  0  0  0  0  0
  -16.5328  -29.9047   23.6333 C   0  0  0  0  0  0
  -16.7285  -28.6471   23.0341 C   0  0  0  0  0  0
  -26.4524  -31.6650   25.0822 C   0  0  0  0  0  0
  -25.3779  -31.3661   26.1550 C   0  0  0  0  0  0
  -27.0330  -30.3120   24.6168 C   0  0  0  0  0  0
  -27.6146  -32.4338   25.7561 C   0  0  0  0  0  0
  -27.5623  -37.1819   24.8465 C   0  0  0  0  0  0
  -21.4176  -29.3037   22.3772 N   0  0  0  0  0  0
  -26.4316  -37.3802   23.9426 N   0  0  0  0  0  0
  -24.6857  -31.0715   22.1094 N   0  0  0  0  0  0
  -23.4223  -28.8142   23.3000 O   0  0  0  0  0  0
  -28.3098  -26.5472   20.1562 O   0  0  0  0  0  0
  -26.5476  -34.8932   22.4661 O   0  0  0  0  0  0
  -23.5488  -32.1350   23.7592 O   0  0  0  0  0  0
  -29.4004  -19.2972   20.6400 C   0  0  0  0  0  0
  -28.9755  -21.3572   20.5083 C   0  0  0  0  0  0
  -31.5194  -15.9473   23.6055 C   0  0  0  0  0  0
  -29.0638  -15.4452   23.7139 C   0  0  0  0  0  0
  -29.3493  -21.6076   18.0181 C   0  0  0  0  0  0
  -29.2317  -17.8391   21.0622 C   0  0  0  0  0  0
  -28.2385  -22.6752   20.6689 C   0  0  0  0  0  0
  -28.9900  -24.0416   20.5269 C   0  0  0  0  0  0
  -30.4877  -16.9224   21.0502 C   0  0  0  0  0  0
  -27.9864  -25.1321   20.0638 C   0  0  0  0  0  0
  -30.3617  -15.1997   22.9093 C   0  0  0  0  0  0
  -29.0526  -20.3778   21.4238 N   0  0  0  0  0  0
  -29.6761  -19.6081   19.3740 N   0  0  0  0  0  0
  -29.3772  -20.9332   19.3019 N   0  0  0  0  0  0
  -30.2575  -15.4766   21.4440 N   0  0  0  0  0  0
  -31.4711  -12.3872   19.1368 H   0  0  0  0  0  0
  -30.2999  -11.3198   19.8334 H   0  0  0  0  0  0
  -29.7602  -11.7844   17.4175 H   0  0  0  0  0  0
  -29.6751  -13.4993   17.7624 H   0  0  0  0  0  0
  -27.7982  -11.3296   18.7750 H   0  0  0  0  0  0
  -27.3859  -12.6710   17.7498 H   0  0  0  0  0  0
  -27.6962  -14.2673   19.5451 H   0  0  0  0  0  0
  -28.6891  -11.9538   21.2711 H   0  0  0  0  0  0
  -28.4638  -13.5562   21.8562 H   0  0  0  0  0  0
  -25.2819   -9.5677   22.4679 H   0  0  0  0  0  0
  -24.0023   -7.4632   22.7408 H   0  0  0  0  0  0
  -21.0871   -8.8811   19.8882 H   0  0  0  0  0  0
  -22.3782  -10.9673   19.6071 H   0  0  0  0  0  0
  -21.2057   -7.6118   23.9702 H   0  0  0  0  0  0
  -21.1441   -6.0469   25.9038 H   0  0  0  0  0  0
  -22.0640   -2.7591   23.2864 H   0  0  0  0  0  0
  -22.4195  -11.9830   22.4872 H   0  0  0  0  0  0
  -21.1094  -13.1006   22.2580 H   0  0  0  0  0  0
  -24.6948  -15.8713   20.5625 H   0  0  0  0  0  0
  -26.2921  -15.6206   20.0827 H   0  0  0  0  0  0
  -26.7213  -32.5496   23.1233 H   0  0  0  0  0  0
  -25.0335  -33.9785   25.0718 H   0  0  0  0  0  0
  -22.7041  -31.3227   21.4398 H   0  0  0  0  0  0
  -23.3747  -35.9668   23.3239 H   0  0  0  0  0  0
  -24.3607  -36.8970   22.2029 H   0  0  0  0  0  0
  -23.7137  -37.6538   23.6634 H   0  0  0  0  0  0
  -26.0750  -31.5969   20.6153 H   0  0  0  0  0  0
  -26.8392  -30.8625   21.9898 H   0  0  0  0  0  0
  -28.1123  -29.0296   21.1463 H   0  0  0  0  0  0
  -25.9216  -26.0043   18.9458 H   0  0  0  0  0  0
  -23.9487  -27.3921   18.9497 H   0  0  0  0  0  0
  -23.7261  -30.6503   19.4247 H   0  0  0  0  0  0
  -22.7315  -29.2949   19.8615 H   0  0  0  0  0  0
  -25.1250  -36.2017   25.0833 H   0  0  0  0  0  0
  -20.9976  -28.3105   24.1441 H   0  0  0  0  0  0
  -20.5660  -26.2159   23.3487 H   0  0  0  0  0  0
  -21.6688  -26.7402   22.1169 H   0  0  0  0  0  0
  -19.6929  -25.6247   21.1249 H   0  0  0  0  0  0
  -19.6841  -27.3081   20.6635 H   0  0  0  0  0  0
  -17.4220  -26.6668   21.3959 H   0  0  0  0  0  0
  -18.0442  -26.0103   22.8968 H   0  0  0  0  0  0
  -19.7877  -30.7306   24.2262 H   0  0  0  0  0  0
  -17.4930  -31.6263   24.5103 H   0  0  0  0  0  0
  -15.5313  -30.2884   23.7721 H   0  0  0  0  0  0
  -15.8685  -28.0773   22.7066 H   0  0  0  0  0  0
  -24.6063  -30.6888   25.7869 H   0  0  0  0  0  0
  -24.8879  -32.2740   26.5075 H   0  0  0  0  0  0
  -25.8186  -30.8825   27.0273 H   0  0  0  0  0  0
  -26.2827  -29.6865   24.1324 H   0  0  0  0  0  0
  -27.4187  -29.7414   25.4619 H   0  0  0  0  0  0
  -27.8655  -30.4487   23.9265 H   0  0  0  0  0  0
  -27.2880  -33.3678   26.2167 H   0  0  0  0  0  0
  -28.3967  -32.6784   25.0356 H   0  0  0  0  0  0
  -28.0804  -31.8390   26.5411 H   0  0  0  0  0  0
  -28.2590  -38.0178   24.7642 H   0  0  0  0  0  0
  -28.1195  -36.2725   24.6172 H   0  0  0  0  0  0
  -27.2412  -37.1331   25.8883 H   0  0  0  0  0  0
  -20.9298  -29.8804   21.7063 H   0  0  0  0  0  0
  -26.0243  -38.2897   24.1418 H   0  0  0  0  0  0
  -31.7967  -15.4468   24.5329 H   0  0  0  0  0  0
  -31.2171  -16.9617   23.8779 H   0  0  0  0  0  0
  -32.4128  -16.0135   22.9832 H   0  0  0  0  0  0
  -29.2086  -15.0784   24.7316 H   0  0  0  0  0  0
  -28.1786  -14.9439   23.3312 H   0  0  0  0  0  0
  -28.8235  -16.5037   23.8060 H   0  0  0  0  0  0
  -28.3983  -22.1274   17.9057 H   0  0  0  0  0  0
  -29.4150  -20.8905   17.2024 H   0  0  0  0  0  0
  -30.1708  -22.3208   17.9378 H   0  0  0  0  0  0
  -28.4969  -17.3955   20.3925 H   0  0  0  0  0  0
  -28.7801  -17.8212   22.0485 H   0  0  0  0  0  0
  -27.6746  -22.6594   21.6019 H   0  0  0  0  0  0
  -27.4769  -22.6461   19.8893 H   0  0  0  0  0  0
  -29.7785  -23.9633   19.7805 H   0  0  0  0  0  0
  -29.4619  -24.3189   21.4684 H   0  0  0  0  0  0
  -31.2753  -17.3904   21.6361 H   0  0  0  0  0  0
  -30.8684  -16.9825   20.0310 H   0  0  0  0  0  0
  -27.0694  -24.9428   20.6282 H   0  0  0  0  0  0
  -27.7638  -24.9135   19.0196 H   0  0  0  0  0  0
  -30.5787  -14.1319   23.0306 H   0  0  0  0  0  0
  1 25  1  0  0  0
  1 30  2  0  0  0
  1 85  1  0  0  0
  2  3  1  0  0  0
  2 25  1  0  0  0
  2 86  1  0  0  0
  2 87  1  0  0  0
  3  4  1  0  0  0
  3 88  1  0  0  0
  3 89  1  0  0  0
  4  5  1  0  0  0
  4 90  1  0  0  0
  4 91  1  0  0  0
  5  6  1  0  0  0
  5 26  1  0  0  0
  5 92  1  0  0  0
  6 25  1  0  0  0
  6 93  1  0  0  0
  6 94  1  0  0  0
  7  8  2  0  0  0
  7 26  1  0  0  0
  7 29  1  0  0  0
  8  9  1  0  0  0
  8 22  1  0  0  0
  9 10  1  0  0  0
  9 27  2  0  0  0
 10 11  2  0  0  0
 10 15  1  0  0  0
 11 12  1  0  0  0
 11 95  1  0  0  0
 12 13  2  0  0  0
 12 96  1  0  0  0
 13 14  1  0  0  0
 13 31  1  0  0  0
 14 15  2  0  0  0
 14 97  1  0  0  0
 15 98  1  0  0  0
 16 17  2  0  0  0
 16 21  1  0  0  0
 16 31  1  0  0  0
 17 18  1  0  0  0
 17 99  1  0  0  0
 18 19  2  0  0  0
 18100  1  0  0  0
 19 20  1  0  0  0
 19 24  1  0  0  0
 20 21  2  0  0  0
 20101  1  0  0  0
 21 23  1  0  0  0
 22 28  1  0  0  0
 22 32  2  0  0  0
 26 27  1  0  0  0
 28102  1  0  0  0
 28103  1  0  0  0
 29104  1  0  0  0
 29105  1  0  0  0
 33 34  1  0  0  0
 33 66  1  0  0  0
 33 70  2  0  0  0
 34 36  1  0  0  0
 34 59  1  0  0  0
 34106  1  0  0  0
 35 44  2  0  0  0
 35 45  1  0  0  0
 35 68  1  0  0  0
 36 56  1  0  0  0
 36107  1  0  0  0
 37 39  1  0  0  0
 37 47  1  0  0  0
 37 66  1  0  0  0
 37108  1  0  0  0
 38 43  2  0  0  0
 38 46  1  0  0  0
 38 47  1  0  0  0
 39 64  1  0  0  0
 39 67  2  0  0  0
 40 52  1  0  0  0
 40 53  2  0  0  0
 40 58  1  0  0  0
 41109  1  0  0  0
 41110  1  0  0  0
 41111  1  0  0  0
 41 48  1  0  0  0
 42 43  1  0  0  0
 42 66  1  0  0  0
 42112  1  0  0  0
 42113  1  0  0  0
 43 44  1  0  0  0
 44114  1  0  0  0
 45 46  2  0  0  0
 45115  1  0  0  0
 46116  1  0  0  0
 47117  1  0  0  0
 47118  1  0  0  0
 48 56  1  0  0  0
 48 65  1  0  0  0
 48119  1  0  0  0
 49 50  1  0  0  0
 49 53  1  0  0  0
 49 64  1  0  0  0
 49120  1  0  0  0
 50 51  1  0  0  0
 50121  1  0  0  0
 50122  1  0  0  0
 51 52  1  0  0  0
 51123  1  0  0  0
 51124  1  0  0  0
 52125  1  0  0  0
 52126  1  0  0  0
 53 54  1  0  0  0
 54 55  2  0  0  0
 54127  1  0  0  0
 55 57  1  0  0  0
 55128  1  0  0  0
 56 69  2  0  0  0
 57 58  2  0  0  0
 57129  1  0  0  0
 58130  1  0  0  0
 59 60  1  0  0  0
 59 61  1  0  0  0
 59 62  1  0  0  0
 60131  1  0  0  0
 60132  1  0  0  0
 60133  1  0  0  0
 61134  1  0  0  0
 61135  1  0  0  0
 61136  1  0  0  0
 62137  1  0  0  0
 62138  1  0  0  0
 62139  1  0  0  0
 63 65  1  0  0  0
 63140  1  0  0  0
 63141  1  0  0  0
 63142  1  0  0  0
 64143  1  0  0  0
 65144  1  0  0  0
 68 80  1  0  0  0
 71 76  1  0  0  0
 71 82  1  0  0  0
 71 83  2  0  0  0
 72 77  1  0  0  0
 72 82  2  0  0  0
 72 84  1  0  0  0
 73145  1  0  0  0
 73146  1  0  0  0
 73147  1  0  0  0
 73 81  1  0  0  0
 74 81  1  0  0  0
 74148  1  0  0  0
 74149  1  0  0  0
 74150  1  0  0  0
 75 84  1  0  0  0
 75151  1  0  0  0
 75152  1  0  0  0
 75153  1  0  0  0
 76 79  1  0  0  0
 76154  1  0  0  0
 76155  1  0  0  0
 77 78  1  0  0  0
 77156  1  0  0  0
 77157  1  0  0  0
 78 80  1  0  0  0
 78158  1  0  0  0
 78159  1  0  0  0
 79 85  1  0  0  0
 79160  1  0  0  0
 79161  1  0  0  0
 80162  1  0  0  0
 80163  1  0  0  0
 81 85  1  0  0  0
 81164  1  0  0  0
 83 84  1  0  0  0
M  ISO  4   1 100  68 101  80 101  85 100
M  END
> <chiral flag>
0

> <version>
0

> <s_m_source_file>
/data/baiqing/PycharmProjects/Reinvent-master-3.2/result/LINK_invent/BTK/process_docking_weight1_custom_sum_contain_oxygen_bond_distance_aromatic_linkinvent_7_9_3/rearranged_h_0054.sdf

> <i_m_source_file_index>
52

> <r_mmod_Potential_Energy-OPLS-2005>
170.776107788086

> <r_mmod_Stretch_Energy-OPLS-2005>
59.6789741516113

> <r_mmod_Bend_Energy-OPLS-2005>
142.728729248047

> <r_mmod_Torsional_Energy-OPLS-2005>
301.069061279297

> <r_mmod_Improper_Torsional_Energy-OPLS-2005>
8.99137783050537

> <r_mmod_Van_der_Waal_Energy-OPLS-2005>
149.595855712891

> <r_mmod_Electrostatic_Energy-OPLS-2005>
-304.009857177734

> <r_mmod_Solvation_Energy-OPLS-2005>
-212.234176635742

> <b_mmod_Minimization_Converged-OPLS-2005>
0

> <r_mmod_RMS_Derivative-OPLS-2005>
7.47254037857056

$$$$
52
                    3D
 Structure written by MMmdl.
163171  0  0  1  0            999 V2000
  -30.6342  -14.6349   20.4397 C   0  0  0  0  0  0
  -30.4262  -12.3689   19.4544 C   0  0  0  0  0  0
  -29.4989  -12.4022   18.2197 C   0  0  0  0  0  0
  -28.0138  -12.3191   18.6342 C   0  0  0  0  0  0
  -27.6357  -13.2069   19.8507 C   0  0  2  0  0  0
  -28.6840  -13.1215   20.9785 C   0  0  0  0  0  0
  -25.2550  -13.8161   20.5734 C   0  0  0  0  0  0
  -24.1771  -13.0433   20.9225 C   0  0  0  0  0  0
  -24.6315  -11.6886   20.8768 C   0  0  0  0  0  0
  -23.8979  -10.4278   21.0412 C   0  0  0  0  0  0
  -24.3558   -9.4211   21.9195 C   0  0  0  0  0  0
  -23.6270   -8.2220   22.0738 C   0  0  0  0  0  0
  -22.4260   -8.0247   21.3519 C   0  0  0  0  0  0
  -21.9860   -9.0215   20.4619 C   0  0  0  0  0  0
  -22.7151  -10.2117   20.3051 C   0  0  0  0  0  0
  -21.6859   -6.0705   22.5285 C   0  0  0  0  0  0
  -21.4006   -6.5630   23.8212 C   0  0  0  0  0  0
  -21.3657   -5.6789   24.9183 C   0  0  0  0  0  0
  -21.6039   -4.3049   24.7229 C   0  0  0  0  0  0
  -21.8826   -3.8133   23.4354 C   0  0  0  0  0  0
  -21.9191   -4.6938   22.3405 C   0  0  0  0  0  0
  -22.7814  -13.5261   21.1887 C   0  0  0  0  0  0
  -22.1675   -4.2125   21.0988 F   0  0  0  0  0  0
  -21.5628   -3.4529   25.7738 F   0  0  0  0  0  0
  -29.9909  -13.4281   20.3834 N   0  0  0  0  0  0
  -26.2897  -12.9274   20.3328 N   0  0  0  0  0  0
  -25.9237  -11.6455   20.5814 N   0  0  0  0  0  0
  -22.0470  -12.8211   22.0428 N   0  0  0  0  0  0
  -25.4342  -15.1880   20.4142 N   0  0  0  0  0  0
  -31.8497  -14.7313   20.2438 O   0  0  0  0  0  0
  -21.6634   -6.8823   21.4223 O   0  0  0  0  0  0
  -22.3500  -14.5601   20.6789 O   0  0  0  0  0  0
  -24.6200  -31.8644   23.2075 C   0  0  0  0  0  0
  -25.9072  -32.4801   23.8392 C   0  0  1  0  0  0
  -27.2355  -27.3744   20.1314 C   0  0  0  0  0  0
  -25.5918  -33.8600   24.2330 N   0  0  0  0  0  0
  -23.4139  -30.4862   21.5483 C   0  0  2  0  0  0
  -24.8661  -28.9396   20.1260 C   0  0  0  0  0  0
  -22.7453  -29.4639   22.4975 C   0  0  0  0  0  0
  -18.0294  -28.1385   22.8501 C   0  0  0  0  0  0
  -24.1494  -36.7302   23.2640 C   0  0  0  0  0  0
  -25.9489  -30.8076   21.3754 C   0  0  0  0  0  0
  -26.0273  -29.4319   20.7373 C   0  0  0  0  0  0
  -27.2182  -28.6565   20.7449 C   0  0  0  0  0  0
  -26.0642  -26.9156   19.4977 C   0  0  0  0  0  0
  -24.8818  -27.6809   19.5016 C   0  0  0  0  0  0
  -23.6310  -29.8149   20.1660 C   0  0  0  0  0  0
  -25.4111  -36.3105   24.0339 C   0  0  1  0  0  0
  -20.5898  -28.3680   23.1300 C   0  0  2  0  0  0
  -20.6789  -26.9410   22.5418 C   0  0  0  0  0  0
  -19.5763  -26.6391   21.5220 C   0  0  0  0  0  0
  -18.1938  -26.7934   22.1626 C   0  0  0  0  0  0
  -19.1548  -28.8852   23.2897 C   0  0  0  0  0  0
  -18.9457  -30.1457   23.8901 C   0  0  0  0  0  0
  -17.6452  -30.6585   24.0565 C   0  0  0  0  0  0
  -25.9035  -34.9467   23.5137 C   0  0  0  0  0  0
  -16.5346  -29.9074   23.6335 C   0  0  0  0  0  0
  -16.7279  -28.6499   23.0348 C   0  0  0  0  0  0
  -26.4491  -31.6581   25.0730 C   0  0  0  0  0  0
  -25.3735  -31.3684   26.1462 C   0  0  0  0  0  0
  -27.0313  -30.3010   24.6122 C   0  0  0  0  0  0
  -27.6089  -32.4293   25.7472 C   0  0  0  0  0  0
  -27.5586  -37.1801   24.8461 C   0  0  0  0  0  0
  -21.4178  -29.3040   22.3691 N   0  0  0  0  0  0
  -26.4291  -37.3783   23.9412 N   0  0  0  0  0  0
  -24.6791  -31.0698   22.1008 N   0  0  0  0  0  0
  -23.4200  -28.8180   23.3032 O   0  0  0  0  0  0
  -28.3626  -26.5796   20.0057 O   0  0  0  0  0  0
  -26.5590  -34.8917   22.4697 O   0  0  0  0  0  0
  -23.5373  -32.1434   23.7422 O   0  0  0  0  0  0
  -27.6041  -22.0962   22.5843 C   0  0  0  0  0  0
  -28.4844  -22.1499   21.4784 C   0  0  0  0  0  0
  -27.4838  -24.4082   22.6756 C   0  0  0  0  0  0
  -28.3813  -24.5211   21.5794 C   0  0  0  0  0  0
  -26.8809  -25.6202   23.3695 C   0  0  0  0  0  0
  -29.4027  -16.0619   18.9693 C   0  0  0  0  0  0
  -30.9459  -20.0315   21.7233 C   0  0  0  0  0  0
  -28.8257  -20.8405   20.6905 C   0  0  0  0  0  0
  -28.9346  -25.9191   21.1585 C   0  0  0  0  0  0
  -30.0324  -17.0209   21.1646 C   0  0  0  0  0  0
  -29.4745  -18.3984   20.5570 C   0  0  0  0  0  0
  -27.1059  -23.2075   23.1779 N   0  0  0  0  0  0
  -28.8782  -23.3779   20.9842 N   0  0  0  0  0  0
  -29.8416  -15.7614   20.3429 N   0  0  0  0  0  0
  -29.5503  -19.6825   21.3647 N   0  3  1  0  0  0
  -31.4675  -12.4903   19.1456 H   0  0  0  0  0  0
  -30.3654  -11.3971   19.9444 H   0  0  0  0  0  0
  -29.7347  -11.5613   17.5658 H   0  0  0  0  0  0
  -29.6880  -13.2833   17.6126 H   0  0  0  0  0  0
  -27.8230  -11.2746   18.8824 H   0  0  0  0  0  0
  -27.3700  -12.5468   17.7860 H   0  0  0  0  0  0
  -27.6159  -14.2303   19.4928 H   0  0  0  0  0  0
  -28.6873  -12.1290   21.4320 H   0  0  0  0  0  0
  -28.4432  -13.8225   21.7816 H   0  0  0  0  0  0
  -25.2691   -9.5714   22.4785 H   0  0  0  0  0  0
  -23.9988   -7.4603   22.7447 H   0  0  0  0  0  0
  -21.0796   -8.8704   19.8915 H   0  0  0  0  0  0
  -22.3586  -10.9664   19.6171 H   0  0  0  0  0  0
  -21.2015   -7.6149   23.9714 H   0  0  0  0  0  0
  -21.1477   -6.0526   25.9093 H   0  0  0  0  0  0
  -22.0607   -2.7593   23.2874 H   0  0  0  0  0  0
  -22.4101  -11.9824   22.4702 H   0  0  0  0  0  0
  -21.1106  -13.1215   22.2744 H   0  0  0  0  0  0
  -24.6741  -15.8550   20.4976 H   0  0  0  0  0  0
  -26.3026  -15.6066   20.1061 H   0  0  0  0  0  0
  -26.7143  -32.5511   23.1151 H   0  0  0  0  0  0
  -25.0095  -33.9766   25.0495 H   0  0  0  0  0  0
  -22.7060  -31.3050   21.4028 H   0  0  0  0  0  0
  -23.3765  -35.9627   23.3285 H   0  0  0  0  0  0
  -24.3599  -36.8934   22.2061 H   0  0  0  0  0  0
  -23.7229  -37.6490   23.6664 H   0  0  0  0  0  0
  -26.0683  -31.5623   20.5968 H   0  0  0  0  0  0
  -26.8347  -30.8697   21.9961 H   0  0  0  0  0  0
  -28.1184  -29.0431   21.2049 H   0  0  0  0  0  0
  -26.0704  -25.9581   18.9934 H   0  0  0  0  0  0
  -23.9963  -27.3016   19.0141 H   0  0  0  0  0  0
  -23.7444  -30.5870   19.4038 H   0  0  0  0  0  0
  -22.7559  -29.2361   19.8680 H   0  0  0  0  0  0
  -25.1292  -36.1969   25.0826 H   0  0  0  0  0  0
  -20.9991  -28.3249   24.1415 H   0  0  0  0  0  0
  -20.5715  -26.2273   23.3602 H   0  0  0  0  0  0
  -21.6648  -26.7456   22.1185 H   0  0  0  0  0  0
  -19.6909  -25.6301   21.1238 H   0  0  0  0  0  0
  -19.6698  -27.3216   20.6756 H   0  0  0  0  0  0
  -17.4213  -26.6715   21.4017 H   0  0  0  0  0  0
  -18.0311  -26.0069   22.9008 H   0  0  0  0  0  0
  -19.7924  -30.7296   24.2262 H   0  0  0  0  0  0
  -17.4989  -31.6263   24.5168 H   0  0  0  0  0  0
  -15.5343  -30.2961   23.7646 H   0  0  0  0  0  0
  -15.8686  -28.0807   22.7045 H   0  0  0  0  0  0
  -24.5916  -30.7034   25.7766 H   0  0  0  0  0  0
  -24.8912  -32.2828   26.4923 H   0  0  0  0  0  0
  -25.8069  -30.8821   27.0211 H   0  0  0  0  0  0
  -26.2842  -29.6756   24.1206 H   0  0  0  0  0  0
  -27.4100  -29.7274   25.4595 H   0  0  0  0  0  0
  -27.8691  -30.4326   23.9266 H   0  0  0  0  0  0
  -27.2753  -33.3612   26.2047 H   0  0  0  0  0  0
  -28.3877  -32.6805   25.0258 H   0  0  0  0  0  0
  -28.0767  -31.8396   26.5366 H   0  0  0  0  0  0
  -28.2594  -38.0108   24.7532 H   0  0  0  0  0  0
  -28.1098  -36.2646   24.6264 H   0  0  0  0  0  0
  -27.2312  -37.1415   25.8863 H   0  0  0  0  0  0
  -20.9350  -29.8717   21.6870 H   0  0  0  0  0  0
  -26.0192  -38.2862   24.1413 H   0  0  0  0  0  0
  -27.2416  -21.1528   22.9662 H   0  0  0  0  0  0
  -27.6464  -26.2419   23.8308 H   0  0  0  0  0  0
  -26.1833  -25.3301   24.1534 H   0  0  0  0  0  0
  -26.3246  -26.2280   22.6575 H   0  0  0  0  0  0
  -28.4185  -16.5274   18.9495 H   0  0  0  0  0  0
  -29.3096  -15.1881   18.3342 H   0  0  0  0  0  0
  -30.1296  -16.7011   18.4664 H   0  0  0  0  0  0
  -30.9907  -20.9938   22.2306 H   0  0  0  0  0  0
  -31.5812  -20.0953   20.8367 H   0  0  0  0  0  0
  -31.3727  -19.2892   22.3994 H   0  0  0  0  0  0
  -29.3465  -21.1123   19.7713 H   0  0  0  0  0  0
  -27.8549  -20.4648   20.3659 H   0  0  0  0  0  0
  -29.9926  -25.7768   20.9374 H   0  0  0  0  0  0
  -28.9310  -26.6076   22.0020 H   0  0  0  0  0  0
  -29.5506  -16.8387   22.1265 H   0  0  0  0  0  0
  -31.0976  -17.1337   21.3750 H   0  0  0  0  0  0
  -28.4242  -18.2558   20.3035 H   0  0  0  0  0  0
  -29.9899  -18.6079   19.6201 H   0  0  0  0  0  0
  -29.0682  -19.5042   22.2331 H   0  0  0  0  0  0
  1 25  1  0  0  0
  1 30  2  0  0  0
  1 84  1  0  0  0
  2  3  1  0  0  0
  2 25  1  0  0  0
  2 86  1  0  0  0
  2 87  1  0  0  0
  3  4  1  0  0  0
  3 88  1  0  0  0
  3 89  1  0  0  0
  4  5  1  0  0  0
  4 90  1  0  0  0
  4 91  1  0  0  0
  5  6  1  0  0  0
  5 26  1  0  0  0
  5 92  1  0  0  0
  6 25  1  0  0  0
  6 93  1  0  0  0
  6 94  1  0  0  0
  7  8  2  0  0  0
  7 26  1  0  0  0
  7 29  1  0  0  0
  8  9  1  0  0  0
  8 22  1  0  0  0
  9 10  1  0  0  0
  9 27  2  0  0  0
 10 11  2  0  0  0
 10 15  1  0  0  0
 11 12  1  0  0  0
 11 95  1  0  0  0
 12 13  2  0  0  0
 12 96  1  0  0  0
 13 14  1  0  0  0
 13 31  1  0  0  0
 14 15  2  0  0  0
 14 97  1  0  0  0
 15 98  1  0  0  0
 16 17  2  0  0  0
 16 21  1  0  0  0
 16 31  1  0  0  0
 17 18  1  0  0  0
 17 99  1  0  0  0
 18 19  2  0  0  0
 18100  1  0  0  0
 19 20  1  0  0  0
 19 24  1  0  0  0
 20 21  2  0  0  0
 20101  1  0  0  0
 21 23  1  0  0  0
 22 28  1  0  0  0
 22 32  2  0  0  0
 26 27  1  0  0  0
 28102  1  0  0  0
 28103  1  0  0  0
 29104  1  0  0  0
 29105  1  0  0  0
 33 34  1  0  0  0
 33 66  1  0  0  0
 33 70  2  0  0  0
 34 36  1  0  0  0
 34 59  1  0  0  0
 34106  1  0  0  0
 35 44  2  0  0  0
 35 45  1  0  0  0
 35 68  1  0  0  0
 36 56  1  0  0  0
 36107  1  0  0  0
 37 39  1  0  0  0
 37 47  1  0  0  0
 37 66  1  0  0  0
 37108  1  0  0  0
 38 43  2  0  0  0
 38 46  1  0  0  0
 38 47  1  0  0  0
 39 64  1  0  0  0
 39 67  2  0  0  0
 40 52  1  0  0  0
 40 53  2  0  0  0
 40 58  1  0  0  0
 41109  1  0  0  0
 41110  1  0  0  0
 41111  1  0  0  0
 41 48  1  0  0  0
 42 43  1  0  0  0
 42 66  1  0  0  0
 42112  1  0  0  0
 42113  1  0  0  0
 43 44  1  0  0  0
 44114  1  0  0  0
 45 46  2  0  0  0
 45115  1  0  0  0
 46116  1  0  0  0
 47117  1  0  0  0
 47118  1  0  0  0
 48 56  1  0  0  0
 48 65  1  0  0  0
 48119  1  0  0  0
 49 50  1  0  0  0
 49 53  1  0  0  0
 49 64  1  0  0  0
 49120  1  0  0  0
 50 51  1  0  0  0
 50121  1  0  0  0
 50122  1  0  0  0
 51 52  1  0  0  0
 51123  1  0  0  0
 51124  1  0  0  0
 52125  1  0  0  0
 52126  1  0  0  0
 53 54  1  0  0  0
 54 55  2  0  0  0
 54127  1  0  0  0
 55 57  1  0  0  0
 55128  1  0  0  0
 56 69  2  0  0  0
 57 58  2  0  0  0
 57129  1  0  0  0
 58130  1  0  0  0
 59 60  1  0  0  0
 59 61  1  0  0  0
 59 62  1  0  0  0
 60131  1  0  0  0
 60132  1  0  0  0
 60133  1  0  0  0
 61134  1  0  0  0
 61135  1  0  0  0
 61136  1  0  0  0
 62137  1  0  0  0
 62138  1  0  0  0
 62139  1  0  0  0
 63 65  1  0  0  0
 63140  1  0  0  0
 63141  1  0  0  0
 63142  1  0  0  0
 64143  1  0  0  0
 65144  1  0  0  0
 68 79  1  0  0  0
 71 72  2  0  0  0
 71 82  1  0  0  0
 71145  1  0  0  0
 72 78  1  0  0  0
 72 83  1  0  0  0
 73 74  1  0  0  0
 73 75  1  0  0  0
 73 82  2  0  0  0
 74 79  1  0  0  0
 74 83  2  0  0  0
 75146  1  0  0  0
 75147  1  0  0  0
 75148  1  0  0  0
 76 84  1  0  0  0
 76149  1  0  0  0
 76150  1  0  0  0
 76151  1  0  0  0
 77152  1  0  0  0
 77153  1  0  0  0
 77154  1  0  0  0
 77 85  1  0  0  0
 78 85  1  0  0  0
 78155  1  0  0  0
 78156  1  0  0  0
 79157  1  0  0  0
 79158  1  0  0  0
 80 81  1  0  0  0
 80 84  1  0  0  0
 80159  1  0  0  0
 80160  1  0  0  0
 81 85  1  0  0  0
 81161  1  0  0  0
 81162  1  0  0  0
 85163  1  0  0  0
M  CHG  1  85   1
M  ISO  4   1 100  68 101  79 101  84 100
M  END
> <chiral flag>
0

> <version>
0

> <s_m_source_file>
/data/baiqing/PycharmProjects/Reinvent-master-3.2/result/LINK_invent/BTK/process_docking_weight1_custom_sum_contain_oxygen_bond_distance_aromatic_linkinvent_7_9_3/rearranged_h_0054.sdf

> <i_m_source_file_index>
53

> <r_mmod_Potential_Energy-OPLS-2005>
145.426223754883

> <r_mmod_Stretch_Energy-OPLS-2005>
77.5006484985352

> <r_mmod_Bend_Energy-OPLS-2005>
144.471618652344

> <r_mmod_Torsional_Energy-OPLS-2005>
330.337249755859

> <r_mmod_Improper_Torsional_Energy-OPLS-2005>
14.4492492675781

> <r_mmod_Van_der_Waal_Energy-OPLS-2005>
146.979736328125

> <r_mmod_Electrostatic_Energy-OPLS-2005>
-150.948440551758

> <r_mmod_Solvation_Energy-OPLS-2005>
-462.400604248047

> <b_mmod_Minimization_Converged-OPLS-2005>
0

> <r_mmod_RMS_Derivative-OPLS-2005>
4.00082445144653

$$$$
53
                    3D
 Structure written by MMmdl.
151159  0  0  1  0            999 V2000
  -30.5755  -14.8876   20.4085 C   0  0  0  0  0  0
  -30.4325  -12.5448   19.4974 C   0  0  0  0  0  0
  -29.5160  -12.5135   18.2536 C   0  0  0  0  0  0
  -28.0478  -12.3135   18.6723 C   0  0  0  0  0  0
  -27.6308  -13.2459   19.8399 C   0  0  2  0  0  0
  -28.6730  -13.2621   20.9785 C   0  0  0  0  0  0
  -25.2463  -13.8219   20.5708 C   0  0  0  0  0  0
  -24.1776  -13.0441   20.9219 C   0  0  0  0  0  0
  -24.6392  -11.6926   20.8761 C   0  0  0  0  0  0
  -23.9080  -10.4292   21.0410 C   0  0  0  0  0  0
  -24.3624   -9.4202   21.9185 C   0  0  0  0  0  0
  -23.6291   -8.2243   22.0757 C   0  0  0  0  0  0
  -22.4275   -8.0284   21.3546 C   0  0  0  0  0  0
  -21.9915   -9.0258   20.4647 C   0  0  0  0  0  0
  -22.7251  -10.2134   20.3054 C   0  0  0  0  0  0
  -21.6854   -6.0732   22.5273 C   0  0  0  0  0  0
  -21.4015   -6.5635   23.8206 C   0  0  0  0  0  0
  -21.3658   -5.6789   24.9170 C   0  0  0  0  0  0
  -21.6044   -4.3050   24.7223 C   0  0  0  0  0  0
  -21.8823   -3.8141   23.4344 C   0  0  0  0  0  0
  -21.9193   -4.6958   22.3398 C   0  0  0  0  0  0
  -22.7796  -13.5210   21.1872 C   0  0  0  0  0  0
  -22.1662   -4.2140   21.0976 F   0  0  0  0  0  0
  -21.5628   -3.4537   25.7737 F   0  0  0  0  0  0
  -29.9567  -13.6448   20.3813 N   0  0  0  0  0  0
  -26.2888  -12.9448   20.3254 N   0  0  0  0  0  0
  -25.9323  -11.6580   20.5748 N   0  0  0  0  0  0
  -22.0452  -12.8199   22.0433 N   0  0  0  0  0  0
  -25.4133  -15.1949   20.4122 N   0  0  0  0  0  0
  -31.7792  -14.9275   20.1370 O   0  0  0  0  0  0
  -21.6641   -6.8878   21.4236 O   0  0  0  0  0  0
  -22.3476  -14.5513   20.6718 O   0  0  0  0  0  0
  -24.6403  -31.8468   23.1901 C   0  0  0  0  0  0
  -25.9190  -32.4708   23.8277 C   0  0  1  0  0  0
  -27.2175  -27.1682   20.1459 C   0  0  0  0  0  0
  -25.5943  -33.8510   24.2192 N   0  0  0  0  0  0
  -23.4414  -30.4654   21.5360 C   0  0  2  0  0  0
  -24.8903  -28.8959   20.1097 C   0  0  0  0  0  0
  -22.7550  -29.4549   22.4882 C   0  0  0  0  0  0
  -18.0295  -28.1385   22.8474 C   0  0  0  0  0  0
  -24.1489  -36.7263   23.2642 C   0  0  0  0  0  0
  -25.9939  -30.7309   21.3828 C   0  0  0  0  0  0
  -26.0659  -29.3444   20.7245 C   0  0  0  0  0  0
  -27.2319  -28.4962   20.7244 C   0  0  0  0  0  0
  -26.0163  -26.8097   19.4972 C   0  0  0  0  0  0
  -24.8760  -27.6409   19.4813 C   0  0  0  0  0  0
  -23.6651  -29.7938   20.1549 C   0  0  0  0  0  0
  -25.4119  -36.3036   24.0315 C   0  0  1  0  0  0
  -20.5904  -28.3706   23.1247 C   0  0  2  0  0  0
  -20.6783  -26.9411   22.5406 C   0  0  0  0  0  0
  -19.5759  -26.6371   21.5210 C   0  0  0  0  0  0
  -18.1939  -26.7923   22.1617 C   0  0  0  0  0  0
  -19.1551  -28.8863   23.2852 C   0  0  0  0  0  0
  -18.9475  -30.1461   23.8872 C   0  0  0  0  0  0
  -17.6474  -30.6588   24.0552 C   0  0  0  0  0  0
  -25.9069  -34.9413   23.5062 C   0  0  0  0  0  0
  -16.5362  -29.9079   23.6335 C   0  0  0  0  0  0
  -16.7281  -28.6495   23.0355 C   0  0  0  0  0  0
  -26.4517  -31.6575   25.0712 C   0  0  0  0  0  0
  -25.3706  -31.3759   26.1416 C   0  0  0  0  0  0
  -27.0387  -30.2975   24.6274 C   0  0  0  0  0  0
  -27.6040  -32.4351   25.7501 C   0  0  0  0  0  0
  -27.5576  -37.1786   24.8460 C   0  0  0  0  0  0
  -21.4245  -29.3038   22.3632 N   0  0  0  0  0  0
  -26.4281  -37.3749   23.9407 N   0  0  0  0  0  0
  -24.7115  -31.0348   22.0918 N   0  0  0  0  0  0
  -23.4213  -28.8099   23.3021 O   0  0  0  0  0  0
  -28.2869  -26.2139   20.2146 O   0  0  0  0  0  0
  -26.5658  -34.8909   22.4641 O   0  0  0  0  0  0
  -23.5531  -32.1328   23.7143 O   0  0  0  0  0  0
  -28.3478  -20.9663   19.8117 C   0  0  0  0  0  0
  -30.5327  -19.9670   21.0114 C   0  0  0  0  0  0
  -29.2226  -21.9170   20.4509 C   0  0  0  0  0  0
  -29.6953  -19.0126   20.3467 C   0  0  0  0  0  0
  -30.3162  -17.4379   18.4160 C   0  0  0  0  0  0
  -29.2097  -23.5656   20.4790 C   0  0  0  0  0  0
  -28.0506  -24.6889   20.0893 C   0  0  0  0  0  0
  -30.2467  -17.5083   19.9547 C   0  0  2  0  0  0
  -30.3067  -21.3343   21.0646 N   0  0  0  0  0  0
  -28.5726  -19.5793   19.7648 N   0  0  0  0  0  0
  -29.8291  -16.0898   20.4764 N   0  0  0  0  0  0
  -31.4694  -12.6822   19.1872 H   0  0  0  0  0  0
  -30.4060  -11.5908   20.0262 H   0  0  0  0  0  0
  -29.8237  -11.7153   17.5770 H   0  0  0  0  0  0
  -29.6170  -13.4462   17.6960 H   0  0  0  0  0  0
  -27.9359  -11.2721   18.9777 H   0  0  0  0  0  0
  -27.3852  -12.4519   17.8171 H   0  0  0  0  0  0
  -27.6001  -14.2498   19.4164 H   0  0  0  0  0  0
  -28.7426  -12.2867   21.4623 H   0  0  0  0  0  0
  -28.3859  -13.9747   21.7534 H   0  0  0  0  0  0
  -25.2767   -9.5676   22.4763 H   0  0  0  0  0  0
  -23.9992   -7.4636   22.7486 H   0  0  0  0  0  0
  -21.0842   -8.8783   19.8958 H   0  0  0  0  0  0
  -22.3708  -10.9674   19.6164 H   0  0  0  0  0  0
  -21.2013   -7.6144   23.9705 H   0  0  0  0  0  0
  -21.1475   -6.0521   25.9072 H   0  0  0  0  0  0
  -22.0604   -2.7603   23.2847 H   0  0  0  0  0  0
  -22.4074  -11.9858   22.4818 H   0  0  0  0  0  0
  -21.1071  -13.1220   22.2650 H   0  0  0  0  0  0
  -24.6449  -15.8469   20.5255 H   0  0  0  0  0  0
  -26.2544  -15.6352   20.0626 H   0  0  0  0  0  0
  -26.7256  -32.5331   23.1015 H   0  0  0  0  0  0
  -25.0061  -33.9618   25.0319 H   0  0  0  0  0  0
  -22.7421  -31.2903   21.3842 H   0  0  0  0  0  0
  -23.3754  -35.9594   23.3288 H   0  0  0  0  0  0
  -24.3570  -36.8911   22.2059 H   0  0  0  0  0  0
  -23.7238  -37.6450   23.6693 H   0  0  0  0  0  0
  -26.1445  -31.4886   20.6122 H   0  0  0  0  0  0
  -26.8655  -30.7817   22.0239 H   0  0  0  0  0  0
  -28.1301  -28.8355   21.2210 H   0  0  0  0  0  0
  -25.9291  -25.8491   19.0126 H   0  0  0  0  0  0
  -23.9774  -27.2921   18.9912 H   0  0  0  0  0  0
  -23.7948  -30.5676   19.3973 H   0  0  0  0  0  0
  -22.7815  -29.2311   19.8486 H   0  0  0  0  0  0
  -25.1307  -36.1866   25.0806 H   0  0  0  0  0  0
  -20.9990  -28.3297   24.1371 H   0  0  0  0  0  0
  -20.5675  -26.2317   23.3622 H   0  0  0  0  0  0
  -21.6652  -26.7423   22.1208 H   0  0  0  0  0  0
  -19.6917  -25.6276   21.1254 H   0  0  0  0  0  0
  -19.6698  -27.3172   20.6732 H   0  0  0  0  0  0
  -17.4206  -26.6661   21.4020 H   0  0  0  0  0  0
  -18.0337  -26.0070   22.9019 H   0  0  0  0  0  0
  -19.7955  -30.7276   24.2232 H   0  0  0  0  0  0
  -17.5031  -31.6269   24.5158 H   0  0  0  0  0  0
  -15.5360  -30.2972   23.7680 H   0  0  0  0  0  0
  -15.8677  -28.0809   22.7084 H   0  0  0  0  0  0
  -24.5882  -30.7108   25.7741 H   0  0  0  0  0  0
  -24.8905  -32.2945   26.4800 H   0  0  0  0  0  0
  -25.8002  -30.8963   27.0221 H   0  0  0  0  0  0
  -26.3002  -29.6696   24.1275 H   0  0  0  0  0  0
  -27.4000  -29.7270   25.4841 H   0  0  0  0  0  0
  -27.8909  -30.4213   23.9585 H   0  0  0  0  0  0
  -27.2611  -33.3669   26.2015 H   0  0  0  0  0  0
  -28.3884  -32.6887   25.0355 H   0  0  0  0  0  0
  -28.0668  -31.8518   26.5473 H   0  0  0  0  0  0
  -28.2577  -38.0101   24.7523 H   0  0  0  0  0  0
  -28.1087  -36.2628   24.6269 H   0  0  0  0  0  0
  -27.2291  -37.1407   25.8862 H   0  0  0  0  0  0
  -20.9454  -29.8754   21.6816 H   0  0  0  0  0  0
  -26.0153  -38.2813   24.1432 H   0  0  0  0  0  0
  -27.4709  -21.3201   19.2890 H   0  0  0  0  0  0
  -31.4700  -19.6412   21.4393 H   0  0  0  0  0  0
  -30.8465  -18.2995   18.0089 H   0  0  0  0  0  0
  -29.3171  -17.4331   17.9794 H   0  0  0  0  0  0
  -30.8356  -16.5481   18.0603 H   0  0  0  0  0  0
  -30.0803  -23.8414   19.8849 H   0  0  0  0  0  0
  -29.4982  -23.8122   21.5007 H   0  0  0  0  0  0
  -27.1682  -24.4567   20.6863 H   0  0  0  0  0  0
  -27.7652  -24.4991   19.0547 H   0  0  0  0  0  0
  -31.2872  -17.5652   20.2781 H   0  0  0  0  0  0
  -28.8540  -15.9865   20.7118 H   0  0  0  0  0  0
  1 25  1  0  0  0
  1 30  2  0  0  0
  1 81  1  0  0  0
  2  3  1  0  0  0
  2 25  1  0  0  0
  2 82  1  0  0  0
  2 83  1  0  0  0
  3  4  1  0  0  0
  3 84  1  0  0  0
  3 85  1  0  0  0
  4  5  1  0  0  0
  4 86  1  0  0  0
  4 87  1  0  0  0
  5  6  1  0  0  0
  5 26  1  0  0  0
  5 88  1  0  0  0
  6 25  1  0  0  0
  6 89  1  0  0  0
  6 90  1  0  0  0
  7  8  2  0  0  0
  7 26  1  0  0  0
  7 29  1  0  0  0
  8  9  1  0  0  0
  8 22  1  0  0  0
  9 10  1  0  0  0
  9 27  2  0  0  0
 10 11  2  0  0  0
 10 15  1  0  0  0
 11 12  1  0  0  0
 11 91  1  0  0  0
 12 13  2  0  0  0
 12 92  1  0  0  0
 13 14  1  0  0  0
 13 31  1  0  0  0
 14 15  2  0  0  0
 14 93  1  0  0  0
 15 94  1  0  0  0
 16 17  2  0  0  0
 16 21  1  0  0  0
 16 31  1  0  0  0
 17 18  1  0  0  0
 17 95  1  0  0  0
 18 19  2  0  0  0
 18 96  1  0  0  0
 19 20  1  0  0  0
 19 24  1  0  0  0
 20 21  2  0  0  0
 20 97  1  0  0  0
 21 23  1  0  0  0
 22 28  1  0  0  0
 22 32  2  0  0  0
 26 27  1  0  0  0
 28 98  1  0  0  0
 28 99  1  0  0  0
 29100  1  0  0  0
 29101  1  0  0  0
 33 34  1  0  0  0
 33 66  1  0  0  0
 33 70  2  0  0  0
 34 36  1  0  0  0
 34 59  1  0  0  0
 34102  1  0  0  0
 35 44  2  0  0  0
 35 45  1  0  0  0
 35 68  1  0  0  0
 36 56  1  0  0  0
 36103  1  0  0  0
 37 39  1  0  0  0
 37 47  1  0  0  0
 37 66  1  0  0  0
 37104  1  0  0  0
 38 43  2  0  0  0
 38 46  1  0  0  0
 38 47  1  0  0  0
 39 64  1  0  0  0
 39 67  2  0  0  0
 40 52  1  0  0  0
 40 53  2  0  0  0
 40 58  1  0  0  0
 41105  1  0  0  0
 41106  1  0  0  0
 41107  1  0  0  0
 41 48  1  0  0  0
 42 43  1  0  0  0
 42 66  1  0  0  0
 42108  1  0  0  0
 42109  1  0  0  0
 43 44  1  0  0  0
 44110  1  0  0  0
 45 46  2  0  0  0
 45111  1  0  0  0
 46112  1  0  0  0
 47113  1  0  0  0
 47114  1  0  0  0
 48 56  1  0  0  0
 48 65  1  0  0  0
 48115  1  0  0  0
 49 50  1  0  0  0
 49 53  1  0  0  0
 49 64  1  0  0  0
 49116  1  0  0  0
 50 51  1  0  0  0
 50117  1  0  0  0
 50118  1  0  0  0
 51 52  1  0  0  0
 51119  1  0  0  0
 51120  1  0  0  0
 52121  1  0  0  0
 52122  1  0  0  0
 53 54  1  0  0  0
 54 55  2  0  0  0
 54123  1  0  0  0
 55 57  1  0  0  0
 55124  1  0  0  0
 56 69  2  0  0  0
 57 58  2  0  0  0
 57125  1  0  0  0
 58126  1  0  0  0
 59 60  1  0  0  0
 59 61  1  0  0  0
 59 62  1  0  0  0
 60127  1  0  0  0
 60128  1  0  0  0
 60129  1  0  0  0
 61130  1  0  0  0
 61131  1  0  0  0
 61132  1  0  0  0
 62133  1  0  0  0
 62134  1  0  0  0
 62135  1  0  0  0
 63 65  1  0  0  0
 63136  1  0  0  0
 63137  1  0  0  0
 63138  1  0  0  0
 64139  1  0  0  0
 65140  1  0  0  0
 68 77  1  0  0  0
 71 73  2  0  0  0
 71 80  1  0  0  0
 71141  1  0  0  0
 72 74  1  0  0  0
 72 79  2  0  0  0
 72142  1  0  0  0
 73 76  1  0  0  0
 73 79  1  0  0  0
 74 78  1  0  0  0
 74 80  2  0  0  0
 75143  1  0  0  0
 75144  1  0  0  0
 75145  1  0  0  0
 75 78  1  0  0  0
 76 77  1  0  0  0
 76146  1  0  0  0
 76147  1  0  0  0
 77148  1  0  0  0
 77149  1  0  0  0
 78 81  1  0  0  0
 78150  1  0  0  0
 81151  1  0  0  0
M  ISO  4   1 100  68 101  77 101  81 100
M  END
> <chiral flag>
0

> <version>
0

> <s_m_source_file>
/data/baiqing/PycharmProjects/Reinvent-master-3.2/result/LINK_invent/BTK/process_docking_weight1_custom_sum_contain_oxygen_bond_distance_aromatic_linkinvent_7_9_3/rearranged_h_0054.sdf

> <i_m_source_file_index>
54

> <r_mmod_Potential_Energy-OPLS-2005>
428.944305419922

> <r_mmod_Stretch_Energy-OPLS-2005>
211.743988037109

> <r_mmod_Bend_Energy-OPLS-2005>
261.79736328125

> <r_mmod_Torsional_Energy-OPLS-2005>
212.320510864258

> <r_mmod_Improper_Torsional_Energy-OPLS-2005>
9.46208667755127

> <r_mmod_Van_der_Waal_Energy-OPLS-2005>
136.302719116211

> <r_mmod_Electrostatic_Energy-OPLS-2005>
-336.920349121094

> <r_mmod_Solvation_Energy-OPLS-2005>
-223.417007446289

> <b_mmod_Minimization_Converged-OPLS-2005>
0

> <r_mmod_RMS_Derivative-OPLS-2005>
0.860120356082916

$$$$
54
                    3D
 Structure written by MMmdl.
153161  0  0  1  0            999 V2000
  -30.4952  -15.0477   20.4269 C   0  0  0  0  0  0
  -30.4518  -12.6596   19.5041 C   0  0  0  0  0  0
  -29.5408  -12.5619   18.2568 C   0  0  0  0  0  0
  -28.0747  -12.3226   18.6701 C   0  0  0  0  0  0
  -27.6328  -13.2468   19.8374 C   0  0  2  0  0  0
  -28.6728  -13.2435   20.9737 C   0  0  0  0  0  0
  -25.2440  -13.8171   20.5619 C   0  0  0  0  0  0
  -24.1785  -13.0406   20.9195 C   0  0  0  0  0  0
  -24.6404  -11.6893   20.8731 C   0  0  0  0  0  0
  -23.9079  -10.4273   21.0396 C   0  0  0  0  0  0
  -24.3608   -9.4191   21.9189 C   0  0  0  0  0  0
  -23.6262   -8.2239   22.0769 C   0  0  0  0  0  0
  -22.4254   -8.0269   21.3536 C   0  0  0  0  0  0
  -21.9895   -9.0266   20.4660 C   0  0  0  0  0  0
  -22.7244  -10.2133   20.3055 C   0  0  0  0  0  0
  -21.6842   -6.0706   22.5249 C   0  0  0  0  0  0
  -21.4024   -6.5618   23.8176 C   0  0  0  0  0  0
  -21.3669   -5.6781   24.9152 C   0  0  0  0  0  0
  -21.6035   -4.3040   24.7215 C   0  0  0  0  0  0
  -21.8825   -3.8121   23.4339 C   0  0  0  0  0  0
  -21.9197   -4.6931   22.3386 C   0  0  0  0  0  0
  -22.7807  -13.5172   21.1876 C   0  0  0  0  0  0
  -22.1651   -4.2107   21.0971 F   0  0  0  0  0  0
  -21.5637   -3.4534   25.7749 F   0  0  0  0  0  0
  -29.9303  -13.7540   20.3941 N   0  0  0  0  0  0
  -26.2895  -12.9416   20.3167 N   0  0  0  0  0  0
  -25.9332  -11.6544   20.5680 N   0  0  0  0  0  0
  -22.0438  -12.8204   22.0427 N   0  0  0  0  0  0
  -25.4039  -15.1913   20.3999 N   0  0  0  0  0  0
  -31.6701  -15.1051   20.0380 O   0  0  0  0  0  0
  -21.6633   -6.8853   21.4215 O   0  0  0  0  0  0
  -22.3515  -14.5495   20.6717 O   0  0  0  0  0  0
  -24.6462  -31.8361   23.1869 C   0  0  0  0  0  0
  -25.9227  -32.4641   23.8236 C   0  0  1  0  0  0
  -27.2150  -27.0978   20.1380 C   0  0  0  0  0  0
  -25.5994  -33.8454   24.2128 N   0  0  0  0  0  0
  -23.4530  -30.4572   21.5352 C   0  0  2  0  0  0
  -24.9014  -28.8759   20.1176 C   0  0  0  0  0  0
  -22.7580  -29.4482   22.4857 C   0  0  0  0  0  0
  -18.0303  -28.1371   22.8483 C   0  0  0  0  0  0
  -24.1488  -36.7237   23.2643 C   0  0  0  0  0  0
  -26.0143  -30.6954   21.3916 C   0  0  0  0  0  0
  -26.0863  -29.3066   20.7264 C   0  0  0  0  0  0
  -27.2531  -28.4408   20.7075 C   0  0  0  0  0  0
  -26.0045  -26.7762   19.4960 C   0  0  0  0  0  0
  -24.8718  -27.6231   19.4900 C   0  0  0  0  0  0
  -23.6826  -29.7890   20.1564 C   0  0  0  0  0  0
  -25.4121  -36.2964   24.0287 C   0  0  1  0  0  0
  -20.5923  -28.3678   23.1241 C   0  0  2  0  0  0
  -20.6769  -26.9378   22.5384 C   0  0  0  0  0  0
  -19.5733  -26.6342   21.5208 C   0  0  0  0  0  0
  -18.1929  -26.7912   22.1624 C   0  0  0  0  0  0
  -19.1558  -28.8852   23.2855 C   0  0  0  0  0  0
  -18.9479  -30.1461   23.8851 C   0  0  0  0  0  0
  -17.6461  -30.6568   24.0523 C   0  0  0  0  0  0
  -25.9082  -34.9382   23.5017 C   0  0  0  0  0  0
  -16.5365  -29.9049   23.6350 C   0  0  0  0  0  0
  -16.7287  -28.6469   23.0350 C   0  0  0  0  0  0
  -26.4517  -31.6551   25.0727 C   0  0  0  0  0  0
  -25.3696  -31.3728   26.1420 C   0  0  0  0  0  0
  -27.0385  -30.2945   24.6339 C   0  0  0  0  0  0
  -27.6029  -32.4380   25.7485 C   0  0  0  0  0  0
  -27.5563  -37.1710   24.8439 C   0  0  0  0  0  0
  -21.4283  -29.3014   22.3618 N   0  0  0  0  0  0
  -26.4239  -37.3717   23.9447 N   0  0  0  0  0  0
  -24.7255  -31.0163   22.0927 N   0  0  0  0  0  0
  -23.4206  -28.7983   23.2983 O   0  0  0  0  0  0
  -28.2510  -26.0811   20.1277 O   0  0  0  0  0  0
  -26.5638  -34.8875   22.4584 O   0  0  0  0  0  0
  -23.5586  -32.1296   23.7070 O   0  0  0  0  0  0
  -29.1891  -22.0622   18.0631 C   0  0  0  0  0  0
  -29.0095  -20.7516   19.9034 C   0  0  0  0  0  0
  -28.5510  -23.1549   19.9323 C   0  0  0  0  0  0
  -29.5242  -22.1606   16.5870 C   0  0  0  0  0  0
  -28.8832  -16.3178   21.8358 C   0  0  0  0  0  0
  -28.9612  -19.1778   20.4989 C   0  0  0  0  0  0
  -27.9816  -24.5914   20.5879 C   0  0  0  0  0  0
  -29.9407  -17.7987   20.1286 C   0  0  0  0  0  0
  -29.2729  -20.8397   18.6026 N   0  0  0  0  0  0
  -28.8542  -23.2195   18.6401 N   0  0  0  0  0  0
  -28.6084  -21.9086   20.5970 N   0  0  0  0  0  0
  -29.7333  -16.2757   20.6439 N   0  0  0  0  0  0
  -31.4834  -12.8281   19.1953 H   0  0  0  0  0  0
  -30.4698  -11.7037   20.0287 H   0  0  0  0  0  0
  -29.8821  -11.7554   17.6075 H   0  0  0  0  0  0
  -29.6234  -13.4776   17.6676 H   0  0  0  0  0  0
  -27.9944  -11.2803   18.9855 H   0  0  0  0  0  0
  -27.4130  -12.4320   17.8107 H   0  0  0  0  0  0
  -27.5996  -14.2602   19.4347 H   0  0  0  0  0  0
  -28.8023  -12.2326   21.3685 H   0  0  0  0  0  0
  -28.3232  -13.8236   21.8207 H   0  0  0  0  0  0
  -25.2758   -9.5661   22.4783 H   0  0  0  0  0  0
  -23.9956   -7.4630   22.7506 H   0  0  0  0  0  0
  -21.0813   -8.8796   19.8971 H   0  0  0  0  0  0
  -22.3701  -10.9672   19.6174 H   0  0  0  0  0  0
  -21.2021   -7.6128   23.9660 H   0  0  0  0  0  0
  -21.1481   -6.0525   25.9052 H   0  0  0  0  0  0
  -22.0603   -2.7574   23.2860 H   0  0  0  0  0  0
  -22.4068  -11.9891   22.4876 H   0  0  0  0  0  0
  -21.1051  -13.1245   22.2577 H   0  0  0  0  0  0
  -24.6246  -15.8329   20.5057 H   0  0  0  0  0  0
  -26.2371  -15.6378   20.0364 H   0  0  0  0  0  0
  -26.7280  -32.5170   23.0937 H   0  0  0  0  0  0
  -25.0180  -33.9551   25.0278 H   0  0  0  0  0  0
  -22.7622  -31.2892   21.3784 H   0  0  0  0  0  0
  -23.3786  -35.9523   23.3197 H   0  0  0  0  0  0
  -24.3595  -36.9005   22.2087 H   0  0  0  0  0  0
  -23.7214  -37.6367   23.6798 H   0  0  0  0  0  0
  -26.1725  -31.4463   20.6187 H   0  0  0  0  0  0
  -26.8872  -30.7415   22.0307 H   0  0  0  0  0  0
  -28.1653  -28.7842   21.1745 H   0  0  0  0  0  0
  -25.9127  -25.8208   19.0028 H   0  0  0  0  0  0
  -23.9684  -27.2795   19.0084 H   0  0  0  0  0  0
  -23.8324  -30.5686   19.4085 H   0  0  0  0  0  0
  -22.7966  -29.2392   19.8338 H   0  0  0  0  0  0
  -25.1275  -36.1735   25.0761 H   0  0  0  0  0  0
  -21.0017  -28.3238   24.1357 H   0  0  0  0  0  0
  -20.5646  -26.2285   23.3586 H   0  0  0  0  0  0
  -21.6633  -26.7317   22.1173 H   0  0  0  0  0  0
  -19.6871  -25.6247   21.1250 H   0  0  0  0  0  0
  -19.6701  -27.3157   20.6755 H   0  0  0  0  0  0
  -17.4182  -26.6705   21.4007 H   0  0  0  0  0  0
  -18.0291  -26.0018   22.9001 H   0  0  0  0  0  0
  -19.7933  -30.7309   24.2196 H   0  0  0  0  0  0
  -17.4998  -31.6252   24.5126 H   0  0  0  0  0  0
  -15.5366  -30.2901   23.7731 H   0  0  0  0  0  0
  -15.8678  -28.0792   22.7062 H   0  0  0  0  0  0
  -24.5911  -30.7030   25.7737 H   0  0  0  0  0  0
  -24.8833  -32.2894   26.4777 H   0  0  0  0  0  0
  -25.7971  -30.8941   27.0242 H   0  0  0  0  0  0
  -26.2982  -29.6671   24.1372 H   0  0  0  0  0  0
  -27.4024  -29.7234   25.4885 H   0  0  0  0  0  0
  -27.8868  -30.4168   23.9614 H   0  0  0  0  0  0
  -27.2644  -33.3824   26.1773 H   0  0  0  0  0  0
  -28.3953  -32.6745   25.0368 H   0  0  0  0  0  0
  -28.0557  -31.8707   26.5620 H   0  0  0  0  0  0
  -28.2410  -38.0151   24.7649 H   0  0  0  0  0  0
  -28.1207  -36.2693   24.6052 H   0  0  0  0  0  0
  -27.2302  -37.1079   25.8825 H   0  0  0  0  0  0
  -20.9510  -29.8813   21.6854 H   0  0  0  0  0  0
  -26.0070  -38.2708   24.1665 H   0  0  0  0  0  0
  -30.1469  -21.3278   16.2653 H   0  0  0  0  0  0
  -30.0857  -23.0710   16.3822 H   0  0  0  0  0  0
  -28.6190  -22.1658   15.9766 H   0  0  0  0  0  0
  -27.8296  -16.1727   21.5873 H   0  0  0  0  0  0
  -28.9789  -17.2683   22.3544 H   0  0  0  0  0  0
  -29.1861  -15.5938   22.5899 H   0  0  0  0  0  0
  -27.9323  -18.8578   20.3340 H   0  0  0  0  0  0
  -29.0259  -19.3187   21.5774 H   0  0  0  0  0  0
  -28.3207  -24.5772   21.6267 H   0  0  0  0  0  0
  -26.9010  -24.4642   20.6658 H   0  0  0  0  0  0
  -30.9567  -18.0662   20.4245 H   0  0  0  0  0  0
  -29.9693  -17.7305   19.0407 H   0  0  0  0  0  0
  1 25  1  0  0  0
  1 30  2  0  0  0
  1 82  1  0  0  0
  2  3  1  0  0  0
  2 25  1  0  0  0
  2 83  1  0  0  0
  2 84  1  0  0  0
  3  4  1  0  0  0
  3 85  1  0  0  0
  3 86  1  0  0  0
  4  5  1  0  0  0
  4 87  1  0  0  0
  4 88  1  0  0  0
  5  6  1  0  0  0
  5 26  1  0  0  0
  5 89  1  0  0  0
  6 25  1  0  0  0
  6 90  1  0  0  0
  6 91  1  0  0  0
  7  8  2  0  0  0
  7 26  1  0  0  0
  7 29  1  0  0  0
  8  9  1  0  0  0
  8 22  1  0  0  0
  9 10  1  0  0  0
  9 27  2  0  0  0
 10 11  2  0  0  0
 10 15  1  0  0  0
 11 12  1  0  0  0
 11 92  1  0  0  0
 12 13  2  0  0  0
 12 93  1  0  0  0
 13 14  1  0  0  0
 13 31  1  0  0  0
 14 15  2  0  0  0
 14 94  1  0  0  0
 15 95  1  0  0  0
 16 17  2  0  0  0
 16 21  1  0  0  0
 16 31  1  0  0  0
 17 18  1  0  0  0
 17 96  1  0  0  0
 18 19  2  0  0  0
 18 97  1  0  0  0
 19 20  1  0  0  0
 19 24  1  0  0  0
 20 21  2  0  0  0
 20 98  1  0  0  0
 21 23  1  0  0  0
 22 28  1  0  0  0
 22 32  2  0  0  0
 26 27  1  0  0  0
 28 99  1  0  0  0
 28100  1  0  0  0
 29101  1  0  0  0
 29102  1  0  0  0
 33 34  1  0  0  0
 33 66  1  0  0  0
 33 70  2  0  0  0
 34 36  1  0  0  0
 34 59  1  0  0  0
 34103  1  0  0  0
 35 44  2  0  0  0
 35 45  1  0  0  0
 35 68  1  0  0  0
 36 56  1  0  0  0
 36104  1  0  0  0
 37 39  1  0  0  0
 37 47  1  0  0  0
 37 66  1  0  0  0
 37105  1  0  0  0
 38 43  2  0  0  0
 38 46  1  0  0  0
 38 47  1  0  0  0
 39 64  1  0  0  0
 39 67  2  0  0  0
 40 52  1  0  0  0
 40 53  2  0  0  0
 40 58  1  0  0  0
 41106  1  0  0  0
 41107  1  0  0  0
 41108  1  0  0  0
 41 48  1  0  0  0
 42 43  1  0  0  0
 42 66  1  0  0  0
 42109  1  0  0  0
 42110  1  0  0  0
 43 44  1  0  0  0
 44111  1  0  0  0
 45 46  2  0  0  0
 45112  1  0  0  0
 46113  1  0  0  0
 47114  1  0  0  0
 47115  1  0  0  0
 48 56  1  0  0  0
 48 65  1  0  0  0
 48116  1  0  0  0
 49 50  1  0  0  0
 49 53  1  0  0  0
 49 64  1  0  0  0
 49117  1  0  0  0
 50 51  1  0  0  0
 50118  1  0  0  0
 50119  1  0  0  0
 51 52  1  0  0  0
 51120  1  0  0  0
 51121  1  0  0  0
 52122  1  0  0  0
 52123  1  0  0  0
 53 54  1  0  0  0
 54 55  2  0  0  0
 54124  1  0  0  0
 55 57  1  0  0  0
 55125  1  0  0  0
 56 69  2  0  0  0
 57 58  2  0  0  0
 57126  1  0  0  0
 58127  1  0  0  0
 59 60  1  0  0  0
 59 61  1  0  0  0
 59 62  1  0  0  0
 60128  1  0  0  0
 60129  1  0  0  0
 60130  1  0  0  0
 61131  1  0  0  0
 61132  1  0  0  0
 61133  1  0  0  0
 62134  1  0  0  0
 62135  1  0  0  0
 62136  1  0  0  0
 63 65  1  0  0  0
 63137  1  0  0  0
 63138  1  0  0  0
 63139  1  0  0  0
 64140  1  0  0  0
 65141  1  0  0  0
 68 77  1  0  0  0
 71 74  1  0  0  0
 71 79  2  0  0  0
 71 80  1  0  0  0
 72 76  1  0  0  0
 72 79  1  0  0  0
 72 81  2  0  0  0
 73 77  1  0  0  0
 73 80  2  0  0  0
 73 81  1  0  0  0
 74142  1  0  0  0
 74143  1  0  0  0
 74144  1  0  0  0
 75 82  1  0  0  0
 75145  1  0  0  0
 75146  1  0  0  0
 75147  1  0  0  0
 76 78  1  0  0  0
 76148  1  0  0  0
 76149  1  0  0  0
 77150  1  0  0  0
 77151  1  0  0  0
 78 82  1  0  0  0
 78152  1  0  0  0
 78153  1  0  0  0
M  ISO  4   1 100  68 101  77 101  82 100
M  END
> <chiral flag>
0

> <version>
0

> <s_m_source_file>
/data/baiqing/PycharmProjects/Reinvent-master-3.2/result/LINK_invent/BTK/process_docking_weight1_custom_sum_contain_oxygen_bond_distance_aromatic_linkinvent_7_9_3/rearranged_h_0054.sdf

> <i_m_source_file_index>
55

> <r_mmod_Potential_Energy-OPLS-2005>
213.421096801758

> <r_mmod_Stretch_Energy-OPLS-2005>
345.976318359375

> <r_mmod_Bend_Energy-OPLS-2005>
304.587432861328

> <r_mmod_Torsional_Energy-OPLS-2005>
281.327758789062

> <r_mmod_Improper_Torsional_Energy-OPLS-2005>
8.27653026580811

> <r_mmod_Van_der_Waal_Energy-OPLS-2005>
150.678176879883

> <r_mmod_Electrostatic_Energy-OPLS-2005>
-877.910095214844

> <r_mmod_Solvation_Energy-OPLS-2005>
-240.868743896484

> <b_mmod_Minimization_Converged-OPLS-2005>
0

> <r_mmod_RMS_Derivative-OPLS-2005>
5.69999933242798

$$$$
55
                    3D
 Structure written by MMmdl.
144152  0  0  1  0            999 V2000
  -30.3717  -15.3333   20.3736 C   0  0  0  0  0  0
  -30.4487  -12.8456   19.5452 C   0  0  0  0  0  0
  -29.5489  -12.6003   18.3035 C   0  0  0  0  0  0
  -28.0971  -12.3080   18.7221 C   0  0  0  0  0  0
  -27.6149  -13.2800   19.8258 C   0  0  2  0  0  0
  -28.6422  -13.4582   20.9641 C   0  0  0  0  0  0
  -25.2402  -13.8251   20.5743 C   0  0  0  0  0  0
  -24.1753  -13.0436   20.9243 C   0  0  0  0  0  0
  -24.6412  -11.6934   20.8743 C   0  0  0  0  0  0
  -23.9104  -10.4293   21.0395 C   0  0  0  0  0  0
  -24.3644   -9.4208   21.9178 C   0  0  0  0  0  0
  -23.6308   -8.2248   22.0753 C   0  0  0  0  0  0
  -22.4289   -8.0287   21.3545 C   0  0  0  0  0  0
  -21.9931   -9.0261   20.4644 C   0  0  0  0  0  0
  -22.7270  -10.2134   20.3049 C   0  0  0  0  0  0
  -21.6858   -6.0740   22.5279 C   0  0  0  0  0  0
  -21.4018   -6.5642   23.8213 C   0  0  0  0  0  0
  -21.3660   -5.6794   24.9174 C   0  0  0  0  0  0
  -21.6044   -4.3056   24.7224 C   0  0  0  0  0  0
  -21.8819   -3.8149   23.4345 C   0  0  0  0  0  0
  -21.9194   -4.6967   22.3401 C   0  0  0  0  0  0
  -22.7769  -13.5186   21.1898 C   0  0  0  0  0  0
  -22.1662   -4.2152   21.0979 F   0  0  0  0  0  0
  -21.5628   -3.4539   25.7736 F   0  0  0  0  0  0
  -29.8791  -13.9863   20.3618 N   0  0  0  0  0  0
  -26.2835  -12.9534   20.3206 N   0  0  0  0  0  0
  -25.9353  -11.6634   20.5695 N   0  0  0  0  0  0
  -22.0431  -12.8165   22.0454 N   0  0  0  0  0  0
  -25.4042  -15.1989   20.4209 N   0  0  0  0  0  0
  -31.5748  -15.3603   20.0633 O   0  0  0  0  0  0
  -21.6647   -6.8886   21.4243 O   0  0  0  0  0  0
  -22.3444  -14.5488   20.6743 O   0  0  0  0  0  0
  -24.6663  -31.8184   23.1657 C   0  0  0  0  0  0
  -25.9326  -32.4561   23.8141 C   0  0  1  0  0  0
  -27.2251  -26.8861   20.1912 C   0  0  0  0  0  0
  -25.5976  -33.8377   24.2043 N   0  0  0  0  0  0
  -23.4838  -30.4266   21.5154 C   0  0  2  0  0  0
  -24.9395  -28.8033   20.1112 C   0  0  0  0  0  0
  -22.7684  -29.4410   22.4765 C   0  0  0  0  0  0
  -18.0325  -28.1411   22.8465 C   0  0  0  0  0  0
  -24.1494  -36.7195   23.2649 C   0  0  0  0  0  0
  -26.0543  -30.6111   21.4024 C   0  0  0  0  0  0
  -26.1226  -29.1959   20.7485 C   0  0  0  0  0  0
  -27.2564  -28.2589   20.7628 C   0  0  0  0  0  0
  -26.0140  -26.6555   19.4996 C   0  0  0  0  0  0
  -24.9131  -27.5551   19.4656 C   0  0  0  0  0  0
  -23.7265  -29.7358   20.1438 C   0  0  0  0  0  0
  -25.4137  -36.2951   24.0295 C   0  0  1  0  0  0
  -20.5951  -28.3758   23.1180 C   0  0  2  0  0  0
  -20.6798  -26.9434   22.5404 C   0  0  0  0  0  0
  -19.5773  -26.6375   21.5215 C   0  0  0  0  0  0
  -18.1956  -26.7943   22.1622 C   0  0  0  0  0  0
  -19.1587  -28.8906   23.2808 C   0  0  0  0  0  0
  -18.9497  -30.1495   23.8845 C   0  0  0  0  0  0
  -17.6489  -30.6599   24.0554 C   0  0  0  0  0  0
  -25.9105  -34.9335   23.4995 C   0  0  0  0  0  0
  -16.5379  -29.9085   23.6345 C   0  0  0  0  0  0
  -16.7307  -28.6506   23.0363 C   0  0  0  0  0  0
  -26.4565  -31.6526   25.0690 C   0  0  0  0  0  0
  -25.3679  -31.3789   26.1338 C   0  0  0  0  0  0
  -27.0472  -30.2888   24.6458 C   0  0  0  0  0  0
  -27.6044  -32.4350   25.7498 C   0  0  0  0  0  0
  -27.5569  -37.1755   24.8466 C   0  0  0  0  0  0
  -21.4349  -29.3037   22.3520 N   0  0  0  0  0  0
  -26.4278  -37.3693   23.9407 N   0  0  0  0  0  0
  -24.7564  -30.9805   22.0813 N   0  0  0  0  0  0
  -23.4212  -28.7992   23.3032 O   0  0  0  0  0  0
  -28.2265  -25.7683   20.2954 O   0  0  0  0  0  0
  -26.5724  -34.8881   22.4598 O   0  0  0  0  0  0
  -23.5724  -32.1174   23.6725 O   0  0  0  0  0  0
  -29.7557  -19.0839   19.0670 C   0  0  0  0  0  0
  -29.0923  -20.8948   20.1706 C   0  0  0  0  0  0
  -28.9676  -22.6162   20.5776 C   0  0  0  0  0  0
  -29.5110  -16.8521   20.7385 C   0  0  0  0  0  0
  -28.0759  -24.1193   20.0252 C   0  0  0  0  0  0
  -29.5513  -20.4426   18.9422 N   0  0  0  0  0  0
  -29.0754  -19.7175   20.9845 N   0  0  0  0  0  0
  -29.5341  -18.4907   20.2608 N   0  0  0  0  0  0
  -31.4659  -13.0600   19.2156 H   0  0  0  0  0  0
  -30.5270  -11.9399   20.1488 H   0  0  0  0  0  0
  -29.9413  -11.7773   17.7050 H   0  0  0  0  0  0
  -29.5718  -13.4837   17.6637 H   0  0  0  0  0  0
  -28.0597  -11.2838   19.0952 H   0  0  0  0  0  0
  -27.4329  -12.3448   17.8578 H   0  0  0  0  0  0
  -27.5295  -14.2468   19.3284 H   0  0  0  0  0  0
  -28.8145  -12.5216   21.4965 H   0  0  0  0  0  0
  -28.2663  -14.1676   21.7029 H   0  0  0  0  0  0
  -25.2786   -9.5683   22.4757 H   0  0  0  0  0  0
  -24.0012   -7.4641   22.7477 H   0  0  0  0  0  0
  -21.0861   -8.8785   19.8951 H   0  0  0  0  0  0
  -22.3728  -10.9673   19.6158 H   0  0  0  0  0  0
  -21.2013   -7.6151   23.9717 H   0  0  0  0  0  0
  -21.1482   -6.0524   25.9077 H   0  0  0  0  0  0
  -22.0596   -2.7611   23.2844 H   0  0  0  0  0  0
  -22.4067  -11.9835   22.4842 H   0  0  0  0  0  0
  -21.1042  -13.1169   22.2660 H   0  0  0  0  0  0
  -24.6350  -15.8493   20.5401 H   0  0  0  0  0  0
  -26.2500  -15.6440   20.0898 H   0  0  0  0  0  0
  -26.7397  -32.5086   23.0854 H   0  0  0  0  0  0
  -25.0060  -33.9447   25.0152 H   0  0  0  0  0  0
  -22.7994  -31.2591   21.3396 H   0  0  0  0  0  0
  -23.3769  -35.9512   23.3275 H   0  0  0  0  0  0
  -24.3568  -36.8882   22.2070 H   0  0  0  0  0  0
  -23.7239  -37.6366   23.6733 H   0  0  0  0  0  0
  -26.2384  -31.3491   20.6205 H   0  0  0  0  0  0
  -26.9126  -30.6709   22.0596 H   0  0  0  0  0  0
  -28.1492  -28.5575   21.2940 H   0  0  0  0  0  0
  -25.8837  -25.7017   19.0088 H   0  0  0  0  0  0
  -24.0153  -27.2485   18.9467 H   0  0  0  0  0  0
  -23.8841  -30.5015   19.3834 H   0  0  0  0  0  0
  -22.8356  -29.1909   19.8266 H   0  0  0  0  0  0
  -25.1339  -36.1739   25.0786 H   0  0  0  0  0  0
  -21.0039  -28.3370   24.1304 H   0  0  0  0  0  0
  -20.5673  -26.2378   23.3649 H   0  0  0  0  0  0
  -21.6661  -26.7402   22.1215 H   0  0  0  0  0  0
  -19.6932  -25.6273   21.1279 H   0  0  0  0  0  0
  -19.6714  -27.3157   20.6723 H   0  0  0  0  0  0
  -17.4225  -26.6686   21.4026 H   0  0  0  0  0  0
  -18.0349  -26.0098   22.9031 H   0  0  0  0  0  0
  -19.7972  -30.7325   24.2191 H   0  0  0  0  0  0
  -17.5040  -31.6274   24.5166 H   0  0  0  0  0  0
  -15.5377  -30.2970   23.7699 H   0  0  0  0  0  0
  -15.8707  -28.0807   22.7108 H   0  0  0  0  0  0
  -24.5880  -30.7120   25.7645 H   0  0  0  0  0  0
  -24.8848  -32.2994   26.4624 H   0  0  0  0  0  0
  -25.7900  -30.9048   27.0207 H   0  0  0  0  0  0
  -26.3151  -29.6548   24.1446 H   0  0  0  0  0  0
  -27.3969  -29.7273   25.5132 H   0  0  0  0  0  0
  -27.9104  -30.4060   23.9903 H   0  0  0  0  0  0
  -27.2604  -33.3700   26.1931 H   0  0  0  0  0  0
  -28.3931  -32.6832   25.0382 H   0  0  0  0  0  0
  -28.0629  -31.8574   26.5535 H   0  0  0  0  0  0
  -28.2563  -38.0071   24.7514 H   0  0  0  0  0  0
  -28.1087  -36.2596   24.6294 H   0  0  0  0  0  0
  -27.2283  -37.1395   25.8868 H   0  0  0  0  0  0
  -20.9614  -29.8714   21.6630 H   0  0  0  0  0  0
  -26.0121  -38.2748   24.1416 H   0  0  0  0  0  0
  -30.0707  -18.4897   18.2198 H   0  0  0  0  0  0
  -30.0064  -22.9381   20.5140 H   0  0  0  0  0  0
  -28.7836  -22.6044   21.6513 H   0  0  0  0  0  0
  -28.4729  -16.5616   20.5836 H   0  0  0  0  0  0
  -29.5974  -16.9005   21.8232 H   0  0  0  0  0  0
  -27.0291  -23.9107   20.2456 H   0  0  0  0  0  0
  -28.1289  -24.0647   18.9378 H   0  0  0  0  0  0
  1 25  1  0  0  0
  1 30  2  0  0  0
  1 74  1  0  0  0
  2  3  1  0  0  0
  2 25  1  0  0  0
  2 79  1  0  0  0
  2 80  1  0  0  0
  3  4  1  0  0  0
  3 81  1  0  0  0
  3 82  1  0  0  0
  4  5  1  0  0  0
  4 83  1  0  0  0
  4 84  1  0  0  0
  5  6  1  0  0  0
  5 26  1  0  0  0
  5 85  1  0  0  0
  6 25  1  0  0  0
  6 86  1  0  0  0
  6 87  1  0  0  0
  7  8  2  0  0  0
  7 26  1  0  0  0
  7 29  1  0  0  0
  8  9  1  0  0  0
  8 22  1  0  0  0
  9 10  1  0  0  0
  9 27  2  0  0  0
 10 11  2  0  0  0
 10 15  1  0  0  0
 11 12  1  0  0  0
 11 88  1  0  0  0
 12 13  2  0  0  0
 12 89  1  0  0  0
 13 14  1  0  0  0
 13 31  1  0  0  0
 14 15  2  0  0  0
 14 90  1  0  0  0
 15 91  1  0  0  0
 16 17  2  0  0  0
 16 21  1  0  0  0
 16 31  1  0  0  0
 17 18  1  0  0  0
 17 92  1  0  0  0
 18 19  2  0  0  0
 18 93  1  0  0  0
 19 20  1  0  0  0
 19 24  1  0  0  0
 20 21  2  0  0  0
 20 94  1  0  0  0
 21 23  1  0  0  0
 22 28  1  0  0  0
 22 32  2  0  0  0
 26 27  1  0  0  0
 28 95  1  0  0  0
 28 96  1  0  0  0
 29 97  1  0  0  0
 29 98  1  0  0  0
 33 34  1  0  0  0
 33 66  1  0  0  0
 33 70  2  0  0  0
 34 36  1  0  0  0
 34 59  1  0  0  0
 34 99  1  0  0  0
 35 44  2  0  0  0
 35 45  1  0  0  0
 35 68  1  0  0  0
 36 56  1  0  0  0
 36100  1  0  0  0
 37 39  1  0  0  0
 37 47  1  0  0  0
 37 66  1  0  0  0
 37101  1  0  0  0
 38 43  2  0  0  0
 38 46  1  0  0  0
 38 47  1  0  0  0
 39 64  1  0  0  0
 39 67  2  0  0  0
 40 52  1  0  0  0
 40 53  2  0  0  0
 40 58  1  0  0  0
 41102  1  0  0  0
 41103  1  0  0  0
 41104  1  0  0  0
 41 48  1  0  0  0
 42 43  1  0  0  0
 42 66  1  0  0  0
 42105  1  0  0  0
 42106  1  0  0  0
 43 44  1  0  0  0
 44107  1  0  0  0
 45 46  2  0  0  0
 45108  1  0  0  0
 46109  1  0  0  0
 47110  1  0  0  0
 47111  1  0  0  0
 48 56  1  0  0  0
 48 65  1  0  0  0
 48112  1  0  0  0
 49 50  1  0  0  0
 49 53  1  0  0  0
 49 64  1  0  0  0
 49113  1  0  0  0
 50 51  1  0  0  0
 50114  1  0  0  0
 50115  1  0  0  0
 51 52  1  0  0  0
 51116  1  0  0  0
 51117  1  0  0  0
 52118  1  0  0  0
 52119  1  0  0  0
 53 54  1  0  0  0
 54 55  2  0  0  0
 54120  1  0  0  0
 55 57  1  0  0  0
 55121  1  0  0  0
 56 69  2  0  0  0
 57 58  2  0  0  0
 57122  1  0  0  0
 58123  1  0  0  0
 59 60  1  0  0  0
 59 61  1  0  0  0
 59 62  1  0  0  0
 60124  1  0  0  0
 60125  1  0  0  0
 60126  1  0  0  0
 61127  1  0  0  0
 61128  1  0  0  0
 61129  1  0  0  0
 62130  1  0  0  0
 62131  1  0  0  0
 62132  1  0  0  0
 63 65  1  0  0  0
 63133  1  0  0  0
 63134  1  0  0  0
 63135  1  0  0  0
 64136  1  0  0  0
 65137  1  0  0  0
 68 75  1  0  0  0
 71 76  2  0  0  0
 71 78  1  0  0  0
 71138  1  0  0  0
 72 73  1  0  0  0
 72 76  1  0  0  0
 72 77  2  0  0  0
 73 75  1  0  0  0
 73139  1  0  0  0
 73140  1  0  0  0
 74 78  1  0  0  0
 74141  1  0  0  0
 74142  1  0  0  0
 75143  1  0  0  0
 75144  1  0  0  0
 77 78  1  0  0  0
M  ISO  4   1 100  68 101  74 100  75 101
M  END
> <chiral flag>
0

> <version>
0

> <s_m_source_file>
/data/baiqing/PycharmProjects/Reinvent-master-3.2/result/LINK_invent/BTK/process_docking_weight1_custom_sum_contain_oxygen_bond_distance_aromatic_linkinvent_7_9_3/rearranged_h_0054.sdf

> <i_m_source_file_index>
56

> <r_mmod_Potential_Energy-OPLS-2005>
1444.64074707031

> <r_mmod_Stretch_Energy-OPLS-2005>
681.865905761719

> <r_mmod_Bend_Energy-OPLS-2005>
489.434936523438

> <r_mmod_Torsional_Energy-OPLS-2005>
180.820205688477

> <r_mmod_Improper_Torsional_Energy-OPLS-2005>
4.37354946136475

> <r_mmod_Van_der_Waal_Energy-OPLS-2005>
104.896301269531

> <r_mmod_Electrostatic_Energy-OPLS-2005>
-308.334350585938

> <r_mmod_Solvation_Energy-OPLS-2005>
-235.741195678711

> <b_mmod_Minimization_Converged-OPLS-2005>
1

> <r_mmod_RMS_Derivative-OPLS-2005>
0.0338726341724396

$$$$
56
                    3D
 Structure written by MMmdl.
156164  0  0  1  0            999 V2000
  -30.6246  -14.8218   20.3743 C   0  0  0  0  0  0
  -30.4365  -12.4915   19.4694 C   0  0  0  0  0  0
  -29.5065  -12.4499   18.2376 C   0  0  0  0  0  0
  -28.0373  -12.2633   18.6693 C   0  0  0  0  0  0
  -27.6233  -13.1972   19.8363 C   0  0  2  0  0  0
  -28.6861  -13.2512   20.9574 C   0  0  0  0  0  0
  -25.2497  -13.8077   20.5777 C   0  0  0  0  0  0
  -24.1761  -13.0376   20.9250 C   0  0  0  0  0  0
  -24.6321  -11.6841   20.8814 C   0  0  0  0  0  0
  -23.9005  -10.4249   21.0448 C   0  0  0  0  0  0
  -24.3579   -9.4175   21.9212 C   0  0  0  0  0  0
  -23.6266   -8.2210   22.0767 C   0  0  0  0  0  0
  -22.4253   -8.0256   21.3547 C   0  0  0  0  0  0
  -21.9874   -9.0233   20.4661 C   0  0  0  0  0  0
  -22.7190  -10.2109   20.3080 C   0  0  0  0  0  0
  -21.6842   -6.0726   22.5280 C   0  0  0  0  0  0
  -21.4005   -6.5639   23.8210 C   0  0  0  0  0  0
  -21.3648   -5.6794   24.9177 C   0  0  0  0  0  0
  -21.6040   -4.3059   24.7228 C   0  0  0  0  0  0
  -21.8828   -3.8146   23.4353 C   0  0  0  0  0  0
  -21.9189   -4.6959   22.3406 C   0  0  0  0  0  0
  -22.7796  -13.5210   21.1854 C   0  0  0  0  0  0
  -22.1664   -4.2147   21.0986 F   0  0  0  0  0  0
  -21.5620   -3.4543   25.7742 F   0  0  0  0  0  0
  -29.9715  -13.6008   20.3347 N   0  0  0  0  0  0
  -26.2871  -12.9189   20.3364 N   0  0  0  0  0  0
  -25.9241  -11.6385   20.5862 N   0  0  0  0  0  0
  -22.0408  -12.8251   22.0413 N   0  0  0  0  0  0
  -25.4198  -15.1810   20.4215 N   0  0  0  0  0  0
  -31.8529  -14.8421   20.2576 O   0  0  0  0  0  0
  -21.6622   -6.8854   21.4232 O   0  0  0  0  0  0
  -22.3523  -14.5524   20.6679 O   0  0  0  0  0  0
  -24.6309  -31.8528   23.1952 C   0  0  0  0  0  0
  -25.9128  -32.4729   23.8303 C   0  0  1  0  0  0
  -27.2335  -27.2609   20.1212 C   0  0  0  0  0  0
  -25.5912  -33.8531   24.2238 N   0  0  0  0  0  0
  -23.4276  -30.4736   21.5383 C   0  0  2  0  0  0
  -24.8766  -28.9174   20.1071 C   0  0  0  0  0  0
  -22.7498  -29.4590   22.4901 C   0  0  0  0  0  0
  -18.0285  -28.1378   22.8492 C   0  0  0  0  0  0
  -24.1483  -36.7267   23.2640 C   0  0  0  0  0  0
  -25.9726  -30.7645   21.3753 C   0  0  0  0  0  0
  -26.0450  -29.3865   20.7178 C   0  0  0  0  0  0
  -27.2190  -28.5681   20.7189 C   0  0  0  0  0  0
  -26.0355  -26.8541   19.4886 C   0  0  0  0  0  0
  -24.8780  -27.6597   19.4847 C   0  0  0  0  0  0
  -23.6432  -29.8015   20.1556 C   0  0  0  0  0  0
  -25.4109  -36.3060   24.0332 C   0  0  1  0  0  0
  -20.5899  -28.3690   23.1267 C   0  0  2  0  0  0
  -20.6757  -26.9399   22.5414 C   0  0  0  0  0  0
  -19.5733  -26.6383   21.5208 C   0  0  0  0  0  0
  -18.1920  -26.7921   22.1630 C   0  0  0  0  0  0
  -19.1545  -28.8851   23.2872 C   0  0  0  0  0  0
  -18.9465  -30.1452   23.8891 C   0  0  0  0  0  0
  -17.6466  -30.6581   24.0566 C   0  0  0  0  0  0
  -25.9055  -34.9427   23.5103 C   0  0  0  0  0  0
  -16.5355  -29.9081   23.6328 C   0  0  0  0  0  0
  -16.7274  -28.6495   23.0356 C   0  0  0  0  0  0
  -26.4500  -31.6559   25.0695 C   0  0  0  0  0  0
  -25.3736  -31.3710   26.1428 C   0  0  0  0  0  0
  -27.0349  -30.2970   24.6191 C   0  0  0  0  0  0
  -27.6061  -32.4297   25.7461 C   0  0  0  0  0  0
  -27.5574  -37.1784   24.8473 C   0  0  0  0  0  0
  -21.4204  -29.3034   22.3649 N   0  0  0  0  0  0
  -26.4281  -37.3764   23.9425 N   0  0  0  0  0  0
  -24.6957  -31.0494   22.0921 N   0  0  0  0  0  0
  -23.4196  -28.8142   23.3011 O   0  0  0  0  0  0
  -28.3500  -26.3980   20.2393 O   0  0  0  0  0  0
  -26.5652  -34.8910   22.4689 O   0  0  0  0  0  0
  -23.5463  -32.1353   23.7257 O   0  0  0  0  0  0
  -28.3372  -23.3234   21.5610 C   0  0  0  0  0  0
  -28.7017  -21.9977   21.7083 C   0  0  0  0  0  0
  -28.7343  -23.7175   20.2483 C   0  0  0  0  0  0
  -29.8267  -25.4396   18.7080 C   0  0  0  0  0  0
  -28.9919  -16.1718   19.1406 C   0  0  0  0  0  0
  -29.4606  -18.7581   20.6492 C   0  0  0  0  0  0
  -30.0423  -20.2273   20.2733 C   0  0  0  0  0  0
  -30.4454  -17.4460   20.5585 C   0  0  0  0  0  0
  -28.5441  -25.1131   19.4864 C   0  0  2  0  0  0
  -29.2740  -22.6064   19.6522 N   0  0  0  0  0  0
  -29.2814  -21.5323   20.5394 N   0  0  0  0  0  0
  -29.8985  -16.0307   20.2878 N   0  0  0  0  0  0
  -31.4712  -12.6259   19.1486 H   0  0  0  0  0  0
  -30.4089  -11.5460   20.0134 H   0  0  0  0  0  0
  -29.8035  -11.6367   17.5741 H   0  0  0  0  0  0
  -29.6159  -13.3620   17.6516 H   0  0  0  0  0  0
  -27.9220  -11.2236   18.9792 H   0  0  0  0  0  0
  -27.3705  -12.4005   17.8175 H   0  0  0  0  0  0
  -27.5367  -14.1718   19.3857 H   0  0  0  0  0  0
  -28.7572  -12.2970   21.4803 H   0  0  0  0  0  0
  -28.4133  -13.9982   21.7053 H   0  0  0  0  0  0
  -25.2717   -9.5673   22.4793 H   0  0  0  0  0  0
  -23.9985   -7.4607   22.7489 H   0  0  0  0  0  0
  -21.0799   -8.8758   19.8976 H   0  0  0  0  0  0
  -22.3650  -10.9666   19.6211 H   0  0  0  0  0  0
  -21.2001   -7.6147   23.9713 H   0  0  0  0  0  0
  -21.1451   -6.0524   25.9076 H   0  0  0  0  0  0
  -22.0613   -2.7608   23.2855 H   0  0  0  0  0  0
  -22.4000  -11.9941   22.4872 H   0  0  0  0  0  0
  -21.1030  -13.1314   22.2574 H   0  0  0  0  0  0
  -24.6537  -15.8344   20.5458 H   0  0  0  0  0  0
  -26.2826  -15.6281   20.1408 H   0  0  0  0  0  0
  -26.7191  -32.5375   23.1034 H   0  0  0  0  0  0
  -24.9991  -33.9651   25.0337 H   0  0  0  0  0  0
  -22.7249  -31.2961   21.3901 H   0  0  0  0  0  0
  -23.3746  -35.9597   23.3307 H   0  0  0  0  0  0
  -24.3574  -36.8882   22.2055 H   0  0  0  0  0  0
  -23.7222  -37.6467   23.6654 H   0  0  0  0  0  0
  -26.1131  -31.5244   20.6051 H   0  0  0  0  0  0
  -26.8503  -30.8139   22.0083 H   0  0  0  0  0  0
  -28.1109  -28.9206   21.2188 H   0  0  0  0  0  0
  -25.9414  -25.8843   19.0277 H   0  0  0  0  0  0
  -23.9796  -27.2908   19.0084 H   0  0  0  0  0  0
  -23.7591  -30.5741   19.3947 H   0  0  0  0  0  0
  -22.7615  -29.2305   19.8571 H   0  0  0  0  0  0
  -25.1282  -36.1914   25.0821 H   0  0  0  0  0  0
  -21.0001  -28.3268   24.1387 H   0  0  0  0  0  0
  -20.5622  -26.2302   23.3622 H   0  0  0  0  0  0
  -21.6623  -26.7383   22.1229 H   0  0  0  0  0  0
  -19.6885  -25.6300   21.1218 H   0  0  0  0  0  0
  -19.6660  -27.3209   20.6752 H   0  0  0  0  0  0
  -17.4179  -26.6672   21.4040 H   0  0  0  0  0  0
  -18.0321  -26.0056   22.9025 H   0  0  0  0  0  0
  -19.7944  -30.7267   24.2256 H   0  0  0  0  0  0
  -17.5021  -31.6264   24.5171 H   0  0  0  0  0  0
  -15.5358  -30.2989   23.7649 H   0  0  0  0  0  0
  -15.8670  -28.0813   22.7081 H   0  0  0  0  0  0
  -24.5927  -30.7020   25.7786 H   0  0  0  0  0  0
  -24.8893  -32.2872   26.4814 H   0  0  0  0  0  0
  -25.8073  -30.8936   27.0225 H   0  0  0  0  0  0
  -26.2934  -29.6704   24.1212 H   0  0  0  0  0  0
  -27.4028  -29.7233   25.4713 H   0  0  0  0  0  0
  -27.8818  -30.4227   23.9435 H   0  0  0  0  0  0
  -27.2672  -33.3607   26.2014 H   0  0  0  0  0  0
  -28.3880  -32.6836   25.0291 H   0  0  0  0  0  0
  -28.0714  -31.8425   26.5390 H   0  0  0  0  0  0
  -28.2608  -38.0065   24.7517 H   0  0  0  0  0  0
  -28.1053  -36.2602   24.6306 H   0  0  0  0  0  0
  -27.2294  -37.1448   25.8875 H   0  0  0  0  0  0
  -20.9386  -29.8760   21.6858 H   0  0  0  0  0  0
  -26.0165  -38.2840   24.1430 H   0  0  0  0  0  0
  -27.8630  -23.9437   22.3084 H   0  0  0  0  0  0
  -28.6226  -21.3527   22.5727 H   0  0  0  0  0  0
  -30.1005  -24.6332   18.0273 H   0  0  0  0  0  0
  -30.6620  -25.6004   19.3888 H   0  0  0  0  0  0
  -29.7020  -26.3438   18.1109 H   0  0  0  0  0  0
  -27.9685  -16.3069   19.4865 H   0  0  0  0  0  0
  -29.0338  -15.3352   18.4469 H   0  0  0  0  0  0
  -29.2387  -17.0327   18.5167 H   0  0  0  0  0  0
  -28.5793  -18.6144   20.0260 H   0  0  0  0  0  0
  -29.0722  -18.7974   21.6674 H   0  0  0  0  0  0
  -30.2991  -20.2169   19.2132 H   0  0  0  0  0  0
  -30.9981  -20.3349   20.7874 H   0  0  0  0  0  0
  -31.1797  -17.6419   19.7752 H   0  0  0  0  0  0
  -31.0333  -17.4000   21.4768 H   0  0  0  0  0  0
  -27.7699  -24.9807   18.7351 H   0  0  0  0  0  0
  1 25  1  0  0  0
  1 30  2  0  0  0
  1 82  1  0  0  0
  2  3  1  0  0  0
  2 25  1  0  0  0
  2 83  1  0  0  0
  2 84  1  0  0  0
  3  4  1  0  0  0
  3 85  1  0  0  0
  3 86  1  0  0  0
  4  5  1  0  0  0
  4 87  1  0  0  0
  4 88  1  0  0  0
  5  6  1  0  0  0
  5 26  1  0  0  0
  5 89  1  0  0  0
  6 25  1  0  0  0
  6 90  1  0  0  0
  6 91  1  0  0  0
  7  8  2  0  0  0
  7 26  1  0  0  0
  7 29  1  0  0  0
  8  9  1  0  0  0
  8 22  1  0  0  0
  9 10  1  0  0  0
  9 27  2  0  0  0
 10 11  2  0  0  0
 10 15  1  0  0  0
 11 12  1  0  0  0
 11 92  1  0  0  0
 12 13  2  0  0  0
 12 93  1  0  0  0
 13 14  1  0  0  0
 13 31  1  0  0  0
 14 15  2  0  0  0
 14 94  1  0  0  0
 15 95  1  0  0  0
 16 17  2  0  0  0
 16 21  1  0  0  0
 16 31  1  0  0  0
 17 18  1  0  0  0
 17 96  1  0  0  0
 18 19  2  0  0  0
 18 97  1  0  0  0
 19 20  1  0  0  0
 19 24  1  0  0  0
 20 21  2  0  0  0
 20 98  1  0  0  0
 21 23  1  0  0  0
 22 28  1  0  0  0
 22 32  2  0  0  0
 26 27  1  0  0  0
 28 99  1  0  0  0
 28100  1  0  0  0
 29101  1  0  0  0
 29102  1  0  0  0
 33 34  1  0  0  0
 33 66  1  0  0  0
 33 70  2  0  0  0
 34 36  1  0  0  0
 34 59  1  0  0  0
 34103  1  0  0  0
 35 44  2  0  0  0
 35 45  1  0  0  0
 35 68  1  0  0  0
 36 56  1  0  0  0
 36104  1  0  0  0
 37 39  1  0  0  0
 37 47  1  0  0  0
 37 66  1  0  0  0
 37105  1  0  0  0
 38 43  2  0  0  0
 38 46  1  0  0  0
 38 47  1  0  0  0
 39 64  1  0  0  0
 39 67  2  0  0  0
 40 52  1  0  0  0
 40 53  2  0  0  0
 40 58  1  0  0  0
 41106  1  0  0  0
 41107  1  0  0  0
 41108  1  0  0  0
 41 48  1  0  0  0
 42 43  1  0  0  0
 42 66  1  0  0  0
 42109  1  0  0  0
 42110  1  0  0  0
 43 44  1  0  0  0
 44111  1  0  0  0
 45 46  2  0  0  0
 45112  1  0  0  0
 46113  1  0  0  0
 47114  1  0  0  0
 47115  1  0  0  0
 48 56  1  0  0  0
 48 65  1  0  0  0
 48116  1  0  0  0
 49 50  1  0  0  0
 49 53  1  0  0  0
 49 64  1  0  0  0
 49117  1  0  0  0
 50 51  1  0  0  0
 50118  1  0  0  0
 50119  1  0  0  0
 51 52  1  0  0  0
 51120  1  0  0  0
 51121  1  0  0  0
 52122  1  0  0  0
 52123  1  0  0  0
 53 54  1  0  0  0
 54 55  2  0  0  0
 54124  1  0  0  0
 55 57  1  0  0  0
 55125  1  0  0  0
 56 69  2  0  0  0
 57 58  2  0  0  0
 57126  1  0  0  0
 58127  1  0  0  0
 59 60  1  0  0  0
 59 61  1  0  0  0
 59 62  1  0  0  0
 60128  1  0  0  0
 60129  1  0  0  0
 60130  1  0  0  0
 61131  1  0  0  0
 61132  1  0  0  0
 61133  1  0  0  0
 62134  1  0  0  0
 62135  1  0  0  0
 62136  1  0  0  0
 63 65  1  0  0  0
 63137  1  0  0  0
 63138  1  0  0  0
 63139  1  0  0  0
 64140  1  0  0  0
 65141  1  0  0  0
 68 79  1  0  0  0
 71 72  2  0  0  0
 71 73  1  0  0  0
 71142  1  0  0  0
 72 81  1  0  0  0
 72143  1  0  0  0
 73 79  1  0  0  0
 73 80  2  0  0  0
 74144  1  0  0  0
 74145  1  0  0  0
 74146  1  0  0  0
 74 79  1  0  0  0
 75 82  1  0  0  0
 75147  1  0  0  0
 75148  1  0  0  0
 75149  1  0  0  0
 76 77  1  0  0  0
 76 78  1  0  0  0
 76150  1  0  0  0
 76151  1  0  0  0
 77 81  1  0  0  0
 77152  1  0  0  0
 77153  1  0  0  0
 78 82  1  0  0  0
 78154  1  0  0  0
 78155  1  0  0  0
 79156  1  0  0  0
 80 81  1  0  0  0
M  ISO  4   1 100  68 101  79 101  82 100
M  END
> <chiral flag>
0

> <version>
0

> <s_m_source_file>
/data/baiqing/PycharmProjects/Reinvent-master-3.2/result/LINK_invent/BTK/process_docking_weight1_custom_sum_contain_oxygen_bond_distance_aromatic_linkinvent_7_9_3/rearranged_h_0054.sdf

> <i_m_source_file_index>
57

> <r_mmod_Potential_Energy-OPLS-2005>
390.172180175781

> <r_mmod_Stretch_Energy-OPLS-2005>
138.49755859375

> <r_mmod_Bend_Energy-OPLS-2005>
198.121612548828

> <r_mmod_Torsional_Energy-OPLS-2005>
306.583404541016

> <r_mmod_Improper_Torsional_Energy-OPLS-2005>
10.5398139953613

> <r_mmod_Van_der_Waal_Energy-OPLS-2005>
127.086090087891

> <r_mmod_Electrostatic_Energy-OPLS-2005>
-295.137908935547

> <r_mmod_Solvation_Energy-OPLS-2005>
-211.109939575195

> <b_mmod_Minimization_Converged-OPLS-2005>
0

> <r_mmod_RMS_Derivative-OPLS-2005>
1.58909511566162

$$$$
57
                    3D
 Structure written by MMmdl.
151159  0  0  1  0            999 V2000
  -30.3532  -15.2738   20.4218 C   0  0  0  0  0  0
  -30.4811  -12.8295   19.5003 C   0  0  0  0  0  0
  -29.5451  -12.6088   18.2760 C   0  0  0  0  0  0
  -28.0854  -12.3262   18.6960 C   0  0  0  0  0  0
  -27.6321  -13.2528   19.8497 C   0  0  2  0  0  0
  -28.7005  -13.2720   20.9696 C   0  0  0  0  0  0
  -25.2263  -13.8066   20.5443 C   0  0  0  0  0  0
  -24.1692  -13.0286   20.9155 C   0  0  0  0  0  0
  -24.6424  -11.6831   20.8780 C   0  0  0  0  0  0
  -23.9111  -10.4217   21.0425 C   0  0  0  0  0  0
  -24.3650   -9.4140   21.9206 C   0  0  0  0  0  0
  -23.6301   -8.2193   22.0767 C   0  0  0  0  0  0
  -22.4278   -8.0256   21.3552 C   0  0  0  0  0  0
  -21.9933   -9.0230   20.4644 C   0  0  0  0  0  0
  -22.7288  -10.2089   20.3055 C   0  0  0  0  0  0
  -21.6845   -6.0724   22.5279 C   0  0  0  0  0  0
  -21.4001   -6.5626   23.8210 C   0  0  0  0  0  0
  -21.3665   -5.6780   24.9174 C   0  0  0  0  0  0
  -21.6051   -4.3045   24.7220 C   0  0  0  0  0  0
  -21.8821   -3.8135   23.4337 C   0  0  0  0  0  0
  -21.9193   -4.6955   22.3395 C   0  0  0  0  0  0
  -22.7706  -13.5065   21.1841 C   0  0  0  0  0  0
  -22.1665   -4.2140   21.0974 F   0  0  0  0  0  0
  -21.5639   -3.4531   25.7731 F   0  0  0  0  0  0
  -29.9048  -13.9081   20.3860 N   0  0  0  0  0  0
  -26.2894  -12.9417   20.3313 N   0  0  0  0  0  0
  -25.9393  -11.6536   20.5852 N   0  0  0  0  0  0
  -22.0409  -12.8084   22.0458 N   0  0  0  0  0  0
  -25.3345  -15.1747   20.3437 N   0  0  0  0  0  0
  -31.5595  -15.3661   20.1400 O   0  0  0  0  0  0
  -21.6631   -6.8867   21.4244 O   0  0  0  0  0  0
  -22.3376  -14.5388   20.6728 O   0  0  0  0  0  0
  -24.6588  -31.8276   23.1726 C   0  0  0  0  0  0
  -25.9281  -32.4612   23.8188 C   0  0  1  0  0  0
  -27.2397  -26.9656   20.1989 C   0  0  0  0  0  0
  -25.5965  -33.8425   24.2099 N   0  0  0  0  0  0
  -23.4730  -30.4380   21.5218 C   0  0  2  0  0  0
  -24.9288  -28.8191   20.1308 C   0  0  0  0  0  0
  -22.7642  -29.4472   22.4813 C   0  0  0  0  0  0
  -18.0319  -28.1407   22.8469 C   0  0  0  0  0  0
  -24.1496  -36.7224   23.2647 C   0  0  0  0  0  0
  -26.0395  -30.6467   21.3971 C   0  0  0  0  0  0
  -26.1126  -29.2347   20.7543 C   0  0  0  0  0  0
  -27.2651  -28.3323   20.7556 C   0  0  0  0  0  0
  -26.0201  -26.6834   19.5443 C   0  0  0  0  0  0
  -24.9034  -27.5594   19.5085 C   0  0  0  0  0  0
  -23.7144  -29.7464   20.1522 C   0  0  0  0  0  0
  -25.4134  -36.2990   24.0301 C   0  0  1  0  0  0
  -20.5939  -28.3756   23.1198 C   0  0  2  0  0  0
  -20.6801  -26.9442   22.5401 C   0  0  0  0  0  0
  -19.5777  -26.6382   21.5213 C   0  0  0  0  0  0
  -18.1959  -26.7941   22.1621 C   0  0  0  0  0  0
  -19.1576  -28.8897   23.2824 C   0  0  0  0  0  0
  -18.9491  -30.1488   23.8863 C   0  0  0  0  0  0
  -17.6483  -30.6601   24.0554 C   0  0  0  0  0  0
  -25.9089  -34.9367   23.5024 C   0  0  0  0  0  0
  -16.5375  -29.9090   23.6336 C   0  0  0  0  0  0
  -16.7299  -28.6506   23.0361 C   0  0  0  0  0  0
  -26.4545  -31.6538   25.0696 C   0  0  0  0  0  0
  -25.3679  -31.3774   26.1355 C   0  0  0  0  0  0
  -27.0424  -30.2906   24.6395 C   0  0  0  0  0  0
  -27.6042  -32.4334   25.7505 C   0  0  0  0  0  0
  -27.5575  -37.1771   24.8465 C   0  0  0  0  0  0
  -21.4315  -29.3056   22.3549 N   0  0  0  0  0  0
  -26.4288  -37.3715   23.9403 N   0  0  0  0  0  0
  -24.7448  -30.9965   22.0852 N   0  0  0  0  0  0
  -23.4192  -28.8041   23.3052 O   0  0  0  0  0  0
  -28.3115  -25.9465   20.0963 O   0  0  0  0  0  0
  -26.5702  -34.8898   22.4620 O   0  0  0  0  0  0
  -23.5664  -32.1235   23.6835 O   0  0  0  0  0  0
  -28.0958  -16.3984   21.1006 C   0  0  0  0  0  0
  -27.9668  -18.4892   20.7908 C   0  0  0  0  0  0
  -29.3669  -16.6637   20.6240 C   0  0  0  0  0  0
  -30.6279  -22.0607   19.3132 C   0  0  0  0  0  0
  -28.3726  -22.6888   20.4286 C   0  0  0  0  0  0
  -29.9752  -19.7125   20.4140 C   0  0  0  0  0  0
  -28.4959  -24.4559   20.7393 C   0  0  0  0  0  0
  -29.3886  -21.3382   19.8664 C   0  0  2  0  0  0
  -27.2304  -17.4721   21.1486 N   0  0  0  0  0  0
  -29.2578  -18.2506   20.5381 N   0  0  0  0  0  0
  -31.4749  -13.1039   19.1463 H   0  0  0  0  0  0
  -30.6257  -11.8966   20.0476 H   0  0  0  0  0  0
  -29.9183  -11.7940   17.6535 H   0  0  0  0  0  0
  -29.5683  -13.5033   17.6525 H   0  0  0  0  0  0
  -28.0308  -11.2881   19.0228 H   0  0  0  0  0  0
  -27.4137  -12.4145   17.8405 H   0  0  0  0  0  0
  -27.5760  -14.2488   19.4113 H   0  0  0  0  0  0
  -28.8994  -12.2479   21.2902 H   0  0  0  0  0  0
  -28.3937  -13.7406   21.9002 H   0  0  0  0  0  0
  -25.2792   -9.5607   22.4788 H   0  0  0  0  0  0
  -23.9999   -7.4571   22.7481 H   0  0  0  0  0  0
  -21.0872   -8.8761   19.8935 H   0  0  0  0  0  0
  -22.3774  -10.9636   19.6160 H   0  0  0  0  0  0
  -21.1984   -7.6131   23.9709 H   0  0  0  0  0  0
  -21.1494   -6.0508   25.9078 H   0  0  0  0  0  0
  -22.0600   -2.7591   23.2839 H   0  0  0  0  0  0
  -22.4068  -11.9780   22.4882 H   0  0  0  0  0  0
  -21.1031  -13.1078   22.2694 H   0  0  0  0  0  0
  -24.5253  -15.7752   20.4557 H   0  0  0  0  0  0
  -26.1685  -15.7042   20.1182 H   0  0  0  0  0  0
  -26.7350  -32.5169   23.0909 H   0  0  0  0  0  0
  -25.0045  -33.9508   25.0206 H   0  0  0  0  0  0
  -22.7853  -31.2682   21.3473 H   0  0  0  0  0  0
  -23.3767  -35.9544   23.3285 H   0  0  0  0  0  0
  -24.3580  -36.8892   22.2067 H   0  0  0  0  0  0
  -23.7244  -37.6402   23.6715 H   0  0  0  0  0  0
  -26.2088  -31.3838   20.6111 H   0  0  0  0  0  0
  -26.9032  -30.7112   22.0469 H   0  0  0  0  0  0
  -28.1762  -28.6667   21.2316 H   0  0  0  0  0  0
  -25.9222  -25.7263   19.0517 H   0  0  0  0  0  0
  -24.0052  -27.2332   19.0018 H   0  0  0  0  0  0
  -23.8727  -30.5107   19.3903 H   0  0  0  0  0  0
  -22.8254  -29.1991   19.8339 H   0  0  0  0  0  0
  -25.1335  -36.1793   25.0790 H   0  0  0  0  0  0
  -21.0027  -28.3363   24.1321 H   0  0  0  0  0  0
  -20.5695  -26.2373   23.3639 H   0  0  0  0  0  0
  -21.6667  -26.7437   22.1200 H   0  0  0  0  0  0
  -19.6941  -25.6279   21.1282 H   0  0  0  0  0  0
  -19.6716  -27.3161   20.6716 H   0  0  0  0  0  0
  -17.4227  -26.6683   21.4026 H   0  0  0  0  0  0
  -18.0358  -26.0093   22.9028 H   0  0  0  0  0  0
  -19.7963  -30.7313   24.2228 H   0  0  0  0  0  0
  -17.5033  -31.6278   24.5161 H   0  0  0  0  0  0
  -15.5371  -30.2982   23.7679 H   0  0  0  0  0  0
  -15.8701  -28.0811   22.7104 H   0  0  0  0  0  0
  -24.5857  -30.7139   25.7654 H   0  0  0  0  0  0
  -24.8872  -32.2967   26.4701 H   0  0  0  0  0  0
  -25.7905  -30.8977   27.0191 H   0  0  0  0  0  0
  -26.3067  -29.6592   24.1398 H   0  0  0  0  0  0
  -27.3963  -29.7264   25.5037 H   0  0  0  0  0  0
  -27.9016  -30.4096   23.9791 H   0  0  0  0  0  0
  -27.2607  -33.3658   26.2005 H   0  0  0  0  0  0
  -28.3899  -32.6859   25.0371 H   0  0  0  0  0  0
  -28.0662  -31.8511   26.5490 H   0  0  0  0  0  0
  -28.2575  -38.0084   24.7506 H   0  0  0  0  0  0
  -28.1093  -36.2607   24.6300 H   0  0  0  0  0  0
  -27.2292  -37.1421   25.8868 H   0  0  0  0  0  0
  -20.9565  -29.8725   21.6663 H   0  0  0  0  0  0
  -26.0143  -38.2780   24.1394 H   0  0  0  0  0  0
  -27.6492  -15.4789   21.4027 H   0  0  0  0  0  0
  -27.5506  -19.4876   20.7891 H   0  0  0  0  0  0
  -30.3467  -22.9628   18.7674 H   0  0  0  0  0  0
  -31.1900  -21.4380   18.6170 H   0  0  0  0  0  0
  -31.3026  -22.3602   20.1155 H   0  0  0  0  0  0
  -27.4469  -22.5901   19.8608 H   0  0  0  0  0  0
  -28.0793  -22.3171   21.4112 H   0  0  0  0  0  0
  -30.4012  -19.8903   21.4018 H   0  0  0  0  0  0
  -30.8530  -19.4988   19.8049 H   0  0  0  0  0  0
  -29.4980  -24.5422   21.1609 H   0  0  0  0  0  0
  -27.8538  -24.5641   21.6141 H   0  0  0  0  0  0
  -28.8435  -21.0434   18.9686 H   0  0  0  0  0  0
  1 25  1  0  0  0
  1 30  2  0  0  0
  1 73  1  0  0  0
  2  3  1  0  0  0
  2 25  1  0  0  0
  2 81  1  0  0  0
  2 82  1  0  0  0
  3  4  1  0  0  0
  3 83  1  0  0  0
  3 84  1  0  0  0
  4  5  1  0  0  0
  4 85  1  0  0  0
  4 86  1  0  0  0
  5  6  1  0  0  0
  5 26  1  0  0  0
  5 87  1  0  0  0
  6 25  1  0  0  0
  6 88  1  0  0  0
  6 89  1  0  0  0
  7  8  2  0  0  0
  7 26  1  0  0  0
  7 29  1  0  0  0
  8  9  1  0  0  0
  8 22  1  0  0  0
  9 10  1  0  0  0
  9 27  2  0  0  0
 10 11  2  0  0  0
 10 15  1  0  0  0
 11 12  1  0  0  0
 11 90  1  0  0  0
 12 13  2  0  0  0
 12 91  1  0  0  0
 13 14  1  0  0  0
 13 31  1  0  0  0
 14 15  2  0  0  0
 14 92  1  0  0  0
 15 93  1  0  0  0
 16 17  2  0  0  0
 16 21  1  0  0  0
 16 31  1  0  0  0
 17 18  1  0  0  0
 17 94  1  0  0  0
 18 19  2  0  0  0
 18 95  1  0  0  0
 19 20  1  0  0  0
 19 24  1  0  0  0
 20 21  2  0  0  0
 20 96  1  0  0  0
 21 23  1  0  0  0
 22 28  1  0  0  0
 22 32  2  0  0  0
 26 27  1  0  0  0
 28 97  1  0  0  0
 28 98  1  0  0  0
 29 99  1  0  0  0
 29100  1  0  0  0
 33 34  1  0  0  0
 33 66  1  0  0  0
 33 70  2  0  0  0
 34 36  1  0  0  0
 34 59  1  0  0  0
 34101  1  0  0  0
 35 44  2  0  0  0
 35 45  1  0  0  0
 35 68  1  0  0  0
 36 56  1  0  0  0
 36102  1  0  0  0
 37 39  1  0  0  0
 37 47  1  0  0  0
 37 66  1  0  0  0
 37103  1  0  0  0
 38 43  2  0  0  0
 38 46  1  0  0  0
 38 47  1  0  0  0
 39 64  1  0  0  0
 39 67  2  0  0  0
 40 52  1  0  0  0
 40 53  2  0  0  0
 40 58  1  0  0  0
 41104  1  0  0  0
 41105  1  0  0  0
 41106  1  0  0  0
 41 48  1  0  0  0
 42 43  1  0  0  0
 42 66  1  0  0  0
 42107  1  0  0  0
 42108  1  0  0  0
 43 44  1  0  0  0
 44109  1  0  0  0
 45 46  2  0  0  0
 45110  1  0  0  0
 46111  1  0  0  0
 47112  1  0  0  0
 47113  1  0  0  0
 48 56  1  0  0  0
 48 65  1  0  0  0
 48114  1  0  0  0
 49 50  1  0  0  0
 49 53  1  0  0  0
 49 64  1  0  0  0
 49115  1  0  0  0
 50 51  1  0  0  0
 50116  1  0  0  0
 50117  1  0  0  0
 51 52  1  0  0  0
 51118  1  0  0  0
 51119  1  0  0  0
 52120  1  0  0  0
 52121  1  0  0  0
 53 54  1  0  0  0
 54 55  2  0  0  0
 54122  1  0  0  0
 55 57  1  0  0  0
 55123  1  0  0  0
 56 69  2  0  0  0
 57 58  2  0  0  0
 57124  1  0  0  0
 58125  1  0  0  0
 59 60  1  0  0  0
 59 61  1  0  0  0
 59 62  1  0  0  0
 60126  1  0  0  0
 60127  1  0  0  0
 60128  1  0  0  0
 61129  1  0  0  0
 61130  1  0  0  0
 61131  1  0  0  0
 62132  1  0  0  0
 62133  1  0  0  0
 62134  1  0  0  0
 63 65  1  0  0  0
 63135  1  0  0  0
 63136  1  0  0  0
 63137  1  0  0  0
 64138  1  0  0  0
 65139  1  0  0  0
 68 77  1  0  0  0
 71 73  2  0  0  0
 71 79  1  0  0  0
 71140  1  0  0  0
 72 79  2  0  0  0
 72 80  1  0  0  0
 72141  1  0  0  0
 73 80  1  0  0  0
 74142  1  0  0  0
 74143  1  0  0  0
 74144  1  0  0  0
 74 78  1  0  0  0
 75 77  1  0  0  0
 75 78  1  0  0  0
 75145  1  0  0  0
 75146  1  0  0  0
 76 78  1  0  0  0
 76 80  1  0  0  0
 76147  1  0  0  0
 76148  1  0  0  0
 77149  1  0  0  0
 77150  1  0  0  0
 78151  1  0  0  0
M  ISO  4   1 100  68 101  73 100  77 101
M  END
> <chiral flag>
0

> <version>
0

> <s_m_source_file>
/data/baiqing/PycharmProjects/Reinvent-master-3.2/result/LINK_invent/BTK/process_docking_weight1_custom_sum_contain_oxygen_bond_distance_aromatic_linkinvent_7_9_3/rearranged_h_0054.sdf

> <i_m_source_file_index>
58

> <r_mmod_Potential_Energy-OPLS-2005>
1630.40942382812

> <r_mmod_Stretch_Energy-OPLS-2005>
636.733581542969

> <r_mmod_Bend_Energy-OPLS-2005>
679.209228515625

> <r_mmod_Torsional_Energy-OPLS-2005>
255.232025146484

> <r_mmod_Improper_Torsional_Energy-OPLS-2005>
4.92677354812622

> <r_mmod_Van_der_Waal_Energy-OPLS-2005>
122.760887145996

> <r_mmod_Electrostatic_Energy-OPLS-2005>
-292.375274658203

> <r_mmod_Solvation_Energy-OPLS-2005>
-194.550094604492

> <b_mmod_Minimization_Converged-OPLS-2005>
0

> <r_mmod_RMS_Derivative-OPLS-2005>
1.74469649791718

$$$$
58
                    3D
 Structure written by MMmdl.
158166  0  0  1  0            999 V2000
  -30.7943  -14.4124   20.7199 C   0  0  0  0  0  0
  -30.4184  -12.3340   19.4170 C   0  0  0  0  0  0
  -29.4927  -12.5430   18.2048 C   0  0  0  0  0  0
  -28.0178  -12.3813   18.6129 C   0  0  0  0  0  0
  -27.6636  -13.2095   19.8727 C   0  0  2  0  0  0
  -28.6963  -12.9763   20.9935 C   0  0  0  0  0  0
  -25.2605  -13.8168   20.5713 C   0  0  0  0  0  0
  -24.1843  -13.0436   20.9149 C   0  0  0  0  0  0
  -24.6405  -11.6902   20.8696 C   0  0  0  0  0  0
  -23.9068  -10.4284   21.0383 C   0  0  0  0  0  0
  -24.3620   -9.4207   21.9170 C   0  0  0  0  0  0
  -23.6291   -8.2246   22.0749 C   0  0  0  0  0  0
  -22.4268   -8.0282   21.3543 C   0  0  0  0  0  0
  -21.9907   -9.0255   20.4644 C   0  0  0  0  0  0
  -22.7240  -10.2130   20.3042 C   0  0  0  0  0  0
  -21.6855   -6.0735   22.5284 C   0  0  0  0  0  0
  -21.4020   -6.5637   23.8218 C   0  0  0  0  0  0
  -21.3655   -5.6789   24.9178 C   0  0  0  0  0  0
  -21.6043   -4.3053   24.7229 C   0  0  0  0  0  0
  -21.8820   -3.8145   23.4350 C   0  0  0  0  0  0
  -21.9194   -4.6962   22.3406 C   0  0  0  0  0  0
  -22.7869  -13.5237   21.1835 C   0  0  0  0  0  0
  -22.1660   -4.2147   21.0984 F   0  0  0  0  0  0
  -21.5623   -3.4536   25.7740 F   0  0  0  0  0  0
  -30.0398  -13.2943   20.4747 N   0  0  0  0  0  0
  -26.3029  -12.9345   20.3335 N   0  0  0  0  0  0
  -25.9328  -11.6490   20.5700 N   0  0  0  0  0  0
  -22.0507  -12.8229   22.0392 N   0  0  0  0  0  0
  -25.4391  -15.1898   20.4300 N   0  0  0  0  0  0
  -31.7797  -14.6546   20.0090 O   0  0  0  0  0  0
  -21.6637   -6.8879   21.4242 O   0  0  0  0  0  0
  -22.3550  -14.5545   20.6695 O   0  0  0  0  0  0
  -24.6173  -31.8676   23.2110 C   0  0  0  0  0  0
  -25.9065  -32.4815   23.8407 C   0  0  1  0  0  0
  -27.2208  -27.3995   20.0842 C   0  0  0  0  0  0
  -25.5919  -33.8621   24.2335 N   0  0  0  0  0  0
  -23.4045  -30.4931   21.5534 C   0  0  2  0  0  0
  -24.8444  -28.9614   20.1124 C   0  0  0  0  0  0
  -22.7437  -29.4650   22.5001 C   0  0  0  0  0  0
  -18.0273  -28.1405   22.8457 C   0  0  0  0  0  0
  -24.1498  -36.7314   23.2629 C   0  0  0  0  0  0
  -25.9390  -30.8182   21.3728 C   0  0  0  0  0  0
  -26.0086  -29.4529   20.7147 C   0  0  0  0  0  0
  -27.1957  -28.6784   20.6975 C   0  0  0  0  0  0
  -26.0342  -26.9446   19.4577 C   0  0  0  0  0  0
  -24.8563  -27.7099   19.4794 C   0  0  0  0  0  0
  -23.6107  -29.8338   20.1660 C   0  0  0  0  0  0
  -25.4112  -36.3104   24.0329 C   0  0  1  0  0  0
  -20.5868  -28.3677   23.1324 C   0  0  2  0  0  0
  -20.6772  -26.9416   22.5409 C   0  0  0  0  0  0
  -19.5736  -26.6390   21.5220 C   0  0  0  0  0  0
  -18.1913  -26.7942   22.1617 C   0  0  0  0  0  0
  -19.1524  -28.8854   23.2878 C   0  0  0  0  0  0
  -18.9452  -30.1457   23.8884 C   0  0  0  0  0  0
  -17.6454  -30.6588   24.0559 C   0  0  0  0  0  0
  -25.9042  -34.9473   23.5124 C   0  0  0  0  0  0
  -16.5342  -29.9082   23.6336 C   0  0  0  0  0  0
  -16.7262  -28.6523   23.0316 C   0  0  0  0  0  0
  -26.4471  -31.6611   25.0756 C   0  0  0  0  0  0
  -25.3727  -31.3758   26.1517 C   0  0  0  0  0  0
  -27.0295  -30.3033   24.6180 C   0  0  0  0  0  0
  -27.6057  -32.4341   25.7500 C   0  0  0  0  0  0
  -27.5575  -37.1809   24.8452 C   0  0  0  0  0  0
  -21.4161  -29.3040   22.3750 N   0  0  0  0  0  0
  -26.4295  -37.3791   23.9394 N   0  0  0  0  0  0
  -24.6718  -31.0764   22.1020 N   0  0  0  0  0  0
  -23.4207  -28.8183   23.3033 O   0  0  0  0  0  0
  -28.4023  -26.6696   20.0855 O   0  0  0  0  0  0
  -26.5607  -34.8918   22.4685 O   0  0  0  0  0  0
  -23.5364  -32.1442   23.7492 O   0  0  0  0  0  0
  -28.2361  -18.1930   21.3860 C   0  0  0  0  0  0
  -30.4189  -19.0655   21.7109 C   0  0  0  0  0  0
  -29.0468  -19.3249   21.5925 C   0  0  0  0  0  0
  -30.0460  -16.7831   21.5951 C   0  0  0  0  0  0
  -26.7772  -23.2639   21.6467 C   0  0  0  0  0  0
  -28.4370  -20.7072   21.8896 C   0  0  0  0  0  0
  -28.8343  -21.9518   21.0283 C   0  0  0  0  0  0
  -28.9046  -24.5189   21.2122 C   0  0  0  0  0  0
  -28.3825  -25.2260   19.9281 C   0  0  0  0  0  0
  -30.5810  -15.3648   21.9433 C   0  0  0  0  0  0
  -28.7346  -16.9377   21.3913 N   0  0  0  0  0  0
  -30.9003  -17.8079   21.7174 N   0  0  0  0  0  0
  -28.2624  -23.2162   21.6046 N   0  3  1  0  0  0
  -31.7798  -15.5077   22.5207 F   0  0  0  0  0  0
  -29.8191  -14.8113   22.8859 F   0  0  0  0  0  0
  -31.4607  -12.4271   19.1076 H   0  0  0  0  0  0
  -30.3269  -11.3151   19.7950 H   0  0  0  0  0  0
  -29.7436  -11.8350   17.4141 H   0  0  0  0  0  0
  -29.6550  -13.5386   17.7885 H   0  0  0  0  0  0
  -27.8377  -11.3228   18.8028 H   0  0  0  0  0  0
  -27.3654  -12.6591   17.7840 H   0  0  0  0  0  0
  -27.7141  -14.2622   19.5931 H   0  0  0  0  0  0
  -28.6737  -11.9338   21.3149 H   0  0  0  0  0  0
  -28.3771  -13.5485   21.8565 H   0  0  0  0  0  0
  -25.2769   -9.5678   22.4741 H   0  0  0  0  0  0
  -23.9998   -7.4636   22.7476 H   0  0  0  0  0  0
  -21.0833   -8.8782   19.8956 H   0  0  0  0  0  0
  -22.3706  -10.9666   19.6144 H   0  0  0  0  0  0
  -21.2020   -7.6147   23.9724 H   0  0  0  0  0  0
  -21.1471   -6.0516   25.9081 H   0  0  0  0  0  0
  -22.0605   -2.7607   23.2855 H   0  0  0  0  0  0
  -22.4108  -11.9884   22.4780 H   0  0  0  0  0  0
  -21.1131  -13.1265   22.2601 H   0  0  0  0  0  0
  -24.6919  -15.8545   20.5970 H   0  0  0  0  0  0
  -26.3343  -15.6304   20.2516 H   0  0  0  0  0  0
  -26.7121  -32.5508   23.1151 H   0  0  0  0  0  0
  -25.0123  -33.9803   25.0512 H   0  0  0  0  0  0
  -22.6913  -31.3081   21.4189 H   0  0  0  0  0  0
  -23.3758  -35.9651   23.3311 H   0  0  0  0  0  0
  -24.3594  -36.8920   22.2037 H   0  0  0  0  0  0
  -23.7265  -37.6525   23.6652 H   0  0  0  0  0  0
  -26.0728  -31.5890   20.6119 H   0  0  0  0  0  0
  -26.8199  -30.8599   22.0014 H   0  0  0  0  0  0
  -28.0954  -29.0573   21.1623 H   0  0  0  0  0  0
  -25.9784  -26.0189   18.9076 H   0  0  0  0  0  0
  -23.9685  -27.3414   18.9837 H   0  0  0  0  0  0
  -23.7204  -30.6137   19.4117 H   0  0  0  0  0  0
  -22.7300  -29.2624   19.8680 H   0  0  0  0  0  0
  -25.1289  -36.1962   25.0824 H   0  0  0  0  0  0
  -20.9936  -28.3247   24.1459 H   0  0  0  0  0  0
  -20.5718  -26.2274   23.3592 H   0  0  0  0  0  0
  -21.6624  -26.7479   22.1167 H   0  0  0  0  0  0
  -19.6898  -25.6308   21.1230 H   0  0  0  0  0  0
  -19.6683  -27.3208   20.6757 H   0  0  0  0  0  0
  -17.4183  -26.6679   21.4017 H   0  0  0  0  0  0
  -18.0293  -26.0113   22.9038 H   0  0  0  0  0  0
  -19.7938  -30.7266   24.2239 H   0  0  0  0  0  0
  -17.5017  -31.6262   24.5168 H   0  0  0  0  0  0
  -15.5340  -30.2962   23.7687 H   0  0  0  0  0  0
  -15.8672  -28.0844   22.7007 H   0  0  0  0  0  0
  -24.5862  -30.7143   25.7868 H   0  0  0  0  0  0
  -24.8956  -32.2934   26.4977 H   0  0  0  0  0  0
  -25.8054  -30.8910   27.0273 H   0  0  0  0  0  0
  -26.2851  -29.6803   24.1209 H   0  0  0  0  0  0
  -27.4001  -29.7275   25.4668 H   0  0  0  0  0  0
  -27.8725  -30.4320   23.9389 H   0  0  0  0  0  0
  -27.2692  -33.3648   26.2079 H   0  0  0  0  0  0
  -28.3852  -32.6889   25.0311 H   0  0  0  0  0  0
  -28.0747  -31.8472   26.5406 H   0  0  0  0  0  0
  -28.2590  -38.0108   24.7514 H   0  0  0  0  0  0
  -28.1082  -36.2643   24.6274 H   0  0  0  0  0  0
  -27.2306  -37.1447   25.8860 H   0  0  0  0  0  0
  -20.9324  -29.8786   21.6991 H   0  0  0  0  0  0
  -26.0185  -38.2866   24.1414 H   0  0  0  0  0  0
  -27.1623  -18.2788   21.3039 H   0  0  0  0  0  0
  -31.1316  -19.8572   21.8933 H   0  0  0  0  0  0
  -26.3383  -23.0747   20.6672 H   0  0  0  0  0  0
  -26.4181  -24.2307   22.0025 H   0  0  0  0  0  0
  -26.3775  -22.5220   22.3359 H   0  0  0  0  0  0
  -28.6727  -20.9199   22.9342 H   0  0  0  0  0  0
  -27.3547  -20.5848   21.8554 H   0  0  0  0  0  0
  -28.5110  -21.8283   19.9938 H   0  0  0  0  0  0
  -29.9206  -22.0405   21.0019 H   0  0  0  0  0  0
  -28.7208  -25.1925   22.0491 H   0  0  0  0  0  0
  -29.9887  -24.4160   21.1647 H   0  0  0  0  0  0
  -27.4168  -24.8218   19.6532 H   0  0  0  0  0  0
  -29.0325  -24.9674   19.0920 H   0  0  0  0  0  0
  -28.5263  -23.1453   22.5777 H   0  0  0  0  0  0
  1 25  1  0  0  0
  1 30  2  0  0  0
  1 80  1  0  0  0
  2  3  1  0  0  0
  2 25  1  0  0  0
  2 86  1  0  0  0
  2 87  1  0  0  0
  3  4  1  0  0  0
  3 88  1  0  0  0
  3 89  1  0  0  0
  4  5  1  0  0  0
  4 90  1  0  0  0
  4 91  1  0  0  0
  5  6  1  0  0  0
  5 26  1  0  0  0
  5 92  1  0  0  0
  6 25  1  0  0  0
  6 93  1  0  0  0
  6 94  1  0  0  0
  7  8  2  0  0  0
  7 26  1  0  0  0
  7 29  1  0  0  0
  8  9  1  0  0  0
  8 22  1  0  0  0
  9 10  1  0  0  0
  9 27  2  0  0  0
 10 11  2  0  0  0
 10 15  1  0  0  0
 11 12  1  0  0  0
 11 95  1  0  0  0
 12 13  2  0  0  0
 12 96  1  0  0  0
 13 14  1  0  0  0
 13 31  1  0  0  0
 14 15  2  0  0  0
 14 97  1  0  0  0
 15 98  1  0  0  0
 16 17  2  0  0  0
 16 21  1  0  0  0
 16 31  1  0  0  0
 17 18  1  0  0  0
 17 99  1  0  0  0
 18 19  2  0  0  0
 18100  1  0  0  0
 19 20  1  0  0  0
 19 24  1  0  0  0
 20 21  2  0  0  0
 20101  1  0  0  0
 21 23  1  0  0  0
 22 28  1  0  0  0
 22 32  2  0  0  0
 26 27  1  0  0  0
 28102  1  0  0  0
 28103  1  0  0  0
 29104  1  0  0  0
 29105  1  0  0  0
 33 34  1  0  0  0
 33 66  1  0  0  0
 33 70  2  0  0  0
 34 36  1  0  0  0
 34 59  1  0  0  0
 34106  1  0  0  0
 35 44  2  0  0  0
 35 45  1  0  0  0
 35 68  1  0  0  0
 36 56  1  0  0  0
 36107  1  0  0  0
 37 39  1  0  0  0
 37 47  1  0  0  0
 37 66  1  0  0  0
 37108  1  0  0  0
 38 43  2  0  0  0
 38 46  1  0  0  0
 38 47  1  0  0  0
 39 64  1  0  0  0
 39 67  2  0  0  0
 40 52  1  0  0  0
 40 53  2  0  0  0
 40 58  1  0  0  0
 41109  1  0  0  0
 41110  1  0  0  0
 41111  1  0  0  0
 41 48  1  0  0  0
 42 43  1  0  0  0
 42 66  1  0  0  0
 42112  1  0  0  0
 42113  1  0  0  0
 43 44  1  0  0  0
 44114  1  0  0  0
 45 46  2  0  0  0
 45115  1  0  0  0
 46116  1  0  0  0
 47117  1  0  0  0
 47118  1  0  0  0
 48 56  1  0  0  0
 48 65  1  0  0  0
 48119  1  0  0  0
 49 50  1  0  0  0
 49 53  1  0  0  0
 49 64  1  0  0  0
 49120  1  0  0  0
 50 51  1  0  0  0
 50121  1  0  0  0
 50122  1  0  0  0
 51 52  1  0  0  0
 51123  1  0  0  0
 51124  1  0  0  0
 52125  1  0  0  0
 52126  1  0  0  0
 53 54  1  0  0  0
 54 55  2  0  0  0
 54127  1  0  0  0
 55 57  1  0  0  0
 55128  1  0  0  0
 56 69  2  0  0  0
 57 58  2  0  0  0
 57129  1  0  0  0
 58130  1  0  0  0
 59 60  1  0  0  0
 59 61  1  0  0  0
 59 62  1  0  0  0
 60131  1  0  0  0
 60132  1  0  0  0
 60133  1  0  0  0
 61134  1  0  0  0
 61135  1  0  0  0
 61136  1  0  0  0
 62137  1  0  0  0
 62138  1  0  0  0
 62139  1  0  0  0
 63 65  1  0  0  0
 63140  1  0  0  0
 63141  1  0  0  0
 63142  1  0  0  0
 64143  1  0  0  0
 65144  1  0  0  0
 68 79  1  0  0  0
 71 73  2  0  0  0
 71 81  1  0  0  0
 71145  1  0  0  0
 72 73  1  0  0  0
 72 82  2  0  0  0
 72146  1  0  0  0
 73 76  1  0  0  0
 74 80  1  0  0  0
 74 81  2  0  0  0
 74 82  1  0  0  0
 75147  1  0  0  0
 75148  1  0  0  0
 75149  1  0  0  0
 75 83  1  0  0  0
 76 77  1  0  0  0
 76150  1  0  0  0
 76151  1  0  0  0
 77 83  1  0  0  0
 77152  1  0  0  0
 77153  1  0  0  0
 78 79  1  0  0  0
 78 83  1  0  0  0
 78154  1  0  0  0
 78155  1  0  0  0
 79156  1  0  0  0
 79157  1  0  0  0
 80 84  1  0  0  0
 80 85  1  0  0  0
 83158  1  0  0  0
M  CHG  1  83   1
M  ISO  4   1 100  68 101  79 101  80 100
M  END
> <chiral flag>
0

> <version>
0

> <s_m_source_file>
/data/baiqing/PycharmProjects/Reinvent-master-3.2/result/LINK_invent/BTK/process_docking_weight1_custom_sum_contain_oxygen_bond_distance_aromatic_linkinvent_7_9_3/rearranged_h_0054.sdf

> <i_m_source_file_index>
59

> <r_mmod_Potential_Energy-OPLS-2005>
-236.029739379883

> <r_mmod_Stretch_Energy-OPLS-2005>
48.9880790710449

> <r_mmod_Bend_Energy-OPLS-2005>
137.644912719727

> <r_mmod_Torsional_Energy-OPLS-2005>
204.214309692383

> <r_mmod_Improper_Torsional_Energy-OPLS-2005>
4.65123605728149

> <r_mmod_Van_der_Waal_Energy-OPLS-2005>
165.352279663086

> <r_mmod_Electrostatic_Energy-OPLS-2005>
-381.258666992188

> <r_mmod_Solvation_Energy-OPLS-2005>
-429.041870117188

> <b_mmod_Minimization_Converged-OPLS-2005>
0

> <r_mmod_RMS_Derivative-OPLS-2005>
1.98298287391663

$$$$
59
                    3D
 Structure written by MMmdl.
155163  0  0  1  0            999 V2000
  -30.4369  -15.2139   20.3841 C   0  0  0  0  0  0
  -30.4431  -12.7645   19.5322 C   0  0  0  0  0  0
  -29.5396  -12.5702   18.2881 C   0  0  0  0  0  0
  -28.0804  -12.3083   18.7028 C   0  0  0  0  0  0
  -27.6153  -13.2716   19.8229 C   0  0  2  0  0  0
  -28.6455  -13.4165   20.9615 C   0  0  0  0  0  0
  -25.2417  -13.8248   20.5720 C   0  0  0  0  0  0
  -24.1760  -13.0440   20.9234 C   0  0  0  0  0  0
  -24.6401  -11.6933   20.8744 C   0  0  0  0  0  0
  -23.9092  -10.4296   21.0403 C   0  0  0  0  0  0
  -24.3640   -9.4210   21.9178 C   0  0  0  0  0  0
  -23.6305   -8.2249   22.0762 C   0  0  0  0  0  0
  -22.4286   -8.0289   21.3553 C   0  0  0  0  0  0
  -21.9926   -9.0260   20.4653 C   0  0  0  0  0  0
  -22.7263  -10.2134   20.3054 C   0  0  0  0  0  0
  -21.6857   -6.0731   22.5271 C   0  0  0  0  0  0
  -21.4016   -6.5635   23.8203 C   0  0  0  0  0  0
  -21.3664   -5.6790   24.9171 C   0  0  0  0  0  0
  -21.6046   -4.3053   24.7222 C   0  0  0  0  0  0
  -21.8820   -3.8139   23.4343 C   0  0  0  0  0  0
  -21.9192   -4.6956   22.3400 C   0  0  0  0  0  0
  -22.7779  -13.5195   21.1886 C   0  0  0  0  0  0
  -22.1663   -4.2136   21.0982 F   0  0  0  0  0  0
  -21.5637   -3.4543   25.7742 F   0  0  0  0  0  0
  -29.8966  -13.9004   20.3586 N   0  0  0  0  0  0
  -26.2831  -12.9513   20.3184 N   0  0  0  0  0  0
  -25.9340  -11.6624   20.5700 N   0  0  0  0  0  0
  -22.0444  -12.8173   22.0447 N   0  0  0  0  0  0
  -25.4072  -15.1986   20.4168 N   0  0  0  0  0  0
  -31.6510  -15.2146   20.1324 O   0  0  0  0  0  0
  -21.6652   -6.8881   21.4237 O   0  0  0  0  0  0
  -22.3451  -14.5493   20.6726 O   0  0  0  0  0  0
  -24.6593  -31.8270   23.1734 C   0  0  0  0  0  0
  -25.9286  -32.4602   23.8188 C   0  0  1  0  0  0
  -27.2159  -26.9611   20.1898 C   0  0  0  0  0  0
  -25.5971  -33.8418   24.2089 N   0  0  0  0  0  0
  -23.4712  -30.4392   21.5224 C   0  0  2  0  0  0
  -24.9241  -28.8296   20.1180 C   0  0  0  0  0  0
  -22.7642  -29.4455   22.4804 C   0  0  0  0  0  0
  -18.0313  -28.1402   22.8466 C   0  0  0  0  0  0
  -24.1498  -36.7218   23.2646 C   0  0  0  0  0  0
  -26.0384  -30.6458   21.3977 C   0  0  0  0  0  0
  -26.1075  -29.2375   20.7461 C   0  0  0  0  0  0
  -27.2517  -28.3249   20.7541 C   0  0  0  0  0  0
  -26.0035  -26.6959   19.5160 C   0  0  0  0  0  0
  -24.8945  -27.5778   19.4829 C   0  0  0  0  0  0
  -23.7096  -29.7544   20.1490 C   0  0  0  0  0  0
  -25.4136  -36.2972   24.0297 C   0  0  1  0  0  0
  -20.5935  -28.3744   23.1200 C   0  0  2  0  0  0
  -20.6792  -26.9429   22.5405 C   0  0  0  0  0  0
  -19.5768  -26.6374   21.5213 C   0  0  0  0  0  0
  -18.1952  -26.7938   22.1618 C   0  0  0  0  0  0
  -19.1575  -28.8891   23.2819 C   0  0  0  0  0  0
  -18.9487  -30.1481   23.8851 C   0  0  0  0  0  0
  -17.6481  -30.6593   24.0551 C   0  0  0  0  0  0
  -25.9099  -34.9356   23.5010 C   0  0  0  0  0  0
  -16.5372  -29.9079   23.6341 C   0  0  0  0  0  0
  -16.7296  -28.6500   23.0359 C   0  0  0  0  0  0
  -26.4554  -31.6533   25.0700 C   0  0  0  0  0  0
  -25.3696  -31.3773   26.1365 C   0  0  0  0  0  0
  -27.0441  -30.2904   24.6403 C   0  0  0  0  0  0
  -27.6049  -32.4337   25.7503 C   0  0  0  0  0  0
  -27.5572  -37.1765   24.8462 C   0  0  0  0  0  0
  -21.4319  -29.3039   22.3557 N   0  0  0  0  0  0
  -26.4284  -37.3705   23.9403 N   0  0  0  0  0  0
  -24.7439  -30.9968   22.0851 N   0  0  0  0  0  0
  -23.4210  -28.8024   23.3029 O   0  0  0  0  0  0
  -28.2396  -25.8874   20.2148 O   0  0  0  0  0  0
  -26.5705  -34.8884   22.4605 O   0  0  0  0  0  0
  -23.5674  -32.1223   23.6853 O   0  0  0  0  0  0
  -30.0117  -20.1290   18.5144 C   0  0  0  0  0  0
  -29.4925  -19.7292   19.7184 C   0  0  0  0  0  0
  -30.0864  -17.9148   18.4221 C   0  0  0  0  0  0
  -30.1723  -16.6155   17.6770 C   0  0  0  0  0  0
  -29.8519  -17.1585   22.0826 C   0  0  0  0  0  0
  -28.8260  -21.0723   20.5418 C   0  0  0  0  0  0
  -28.8977  -22.7954   20.0290 C   0  0  0  0  0  0
  -27.9996  -24.2829   20.4456 C   0  0  0  0  0  0
  -29.6329  -16.7642   20.6143 C   0  0  1  0  0  0
  -29.7455  -18.1912   19.7136 N   0  0  0  0  0  0
  -30.3319  -19.0474   17.7767 N   0  3  0  0  0  0
  -31.4664  -12.9557   19.2068 H   0  0  0  0  0  0
  -30.4917  -11.8476   20.1217 H   0  0  0  0  0  0
  -29.9093  -11.7446   17.6788 H   0  0  0  0  0  0
  -29.5885  -13.4605   17.6597 H   0  0  0  0  0  0
  -28.0180  -11.2771   19.0529 H   0  0  0  0  0  0
  -27.4163  -12.3774   17.8399 H   0  0  0  0  0  0
  -27.5404  -14.2473   19.3420 H   0  0  0  0  0  0
  -28.7915  -12.4720   21.4883 H   0  0  0  0  0  0
  -28.2899  -14.1334   21.7039 H   0  0  0  0  0  0
  -25.2784   -9.5686   22.4752 H   0  0  0  0  0  0
  -24.0010   -7.4641   22.7486 H   0  0  0  0  0  0
  -21.0863   -8.8779   19.8957 H   0  0  0  0  0  0
  -22.3717  -10.9675   19.6167 H   0  0  0  0  0  0
  -21.2009   -7.6143   23.9700 H   0  0  0  0  0  0
  -21.1493   -6.0530   25.9075 H   0  0  0  0  0  0
  -22.0596   -2.7598   23.2847 H   0  0  0  0  0  0
  -22.4078  -11.9836   22.4829 H   0  0  0  0  0  0
  -21.1059  -13.1180   22.2657 H   0  0  0  0  0  0
  -24.6376  -15.8488   20.5373 H   0  0  0  0  0  0
  -26.2519  -15.6457   20.0868 H   0  0  0  0  0  0
  -26.7353  -32.5152   23.0905 H   0  0  0  0  0  0
  -25.0065  -33.9502   25.0200 H   0  0  0  0  0  0
  -22.7825  -31.2694   21.3529 H   0  0  0  0  0  0
  -23.3766  -35.9542   23.3276 H   0  0  0  0  0  0
  -24.3581  -36.8897   22.2068 H   0  0  0  0  0  0
  -23.7252  -37.6397   23.6725 H   0  0  0  0  0  0
  -26.2120  -31.3881   20.6175 H   0  0  0  0  0  0
  -26.9013  -30.7037   22.0492 H   0  0  0  0  0  0
  -28.1527  -28.6388   21.2631 H   0  0  0  0  0  0
  -25.8887  -25.7444   19.0188 H   0  0  0  0  0  0
  -23.9957  -27.2606   18.9723 H   0  0  0  0  0  0
  -23.8649  -30.5221   19.3898 H   0  0  0  0  0  0
  -22.8199  -29.2076   19.8319 H   0  0  0  0  0  0
  -25.1336  -36.1772   25.0790 H   0  0  0  0  0  0
  -21.0015  -28.3344   24.1323 H   0  0  0  0  0  0
  -20.5672  -26.2359   23.3638 H   0  0  0  0  0  0
  -21.6658  -26.7410   22.1213 H   0  0  0  0  0  0
  -19.6933  -25.6275   21.1265 H   0  0  0  0  0  0
  -19.6707  -27.3160   20.6726 H   0  0  0  0  0  0
  -17.4220  -26.6669   21.4026 H   0  0  0  0  0  0
  -18.0350  -26.0090   22.9025 H   0  0  0  0  0  0
  -19.7964  -30.7308   24.2203 H   0  0  0  0  0  0
  -17.5035  -31.6270   24.5160 H   0  0  0  0  0  0
  -15.5374  -30.2964   23.7695 H   0  0  0  0  0  0
  -15.8696  -28.0804   22.7101 H   0  0  0  0  0  0
  -24.5886  -30.7110   25.7682 H   0  0  0  0  0  0
  -24.8878  -32.2971   26.4693 H   0  0  0  0  0  0
  -25.7945  -30.9008   27.0208 H   0  0  0  0  0  0
  -26.3097  -29.6587   24.1394 H   0  0  0  0  0  0
  -27.3968  -29.7259   25.5046 H   0  0  0  0  0  0
  -27.9042  -30.4091   23.9808 H   0  0  0  0  0  0
  -27.2612  -33.3670   26.1975 H   0  0  0  0  0  0
  -28.3919  -32.6843   25.0378 H   0  0  0  0  0  0
  -28.0648  -31.8533   26.5510 H   0  0  0  0  0  0
  -28.2565  -38.0082   24.7510 H   0  0  0  0  0  0
  -28.1087  -36.2608   24.6287 H   0  0  0  0  0  0
  -27.2285  -37.1406   25.8863 H   0  0  0  0  0  0
  -20.9569  -29.8735   21.6698 H   0  0  0  0  0  0
  -26.0128  -38.2763   24.1413 H   0  0  0  0  0  0
  -30.0994  -21.1173   18.0863 H   0  0  0  0  0  0
  -31.1565  -16.1742   17.8237 H   0  0  0  0  0  0
  -30.0384  -16.8151   16.6128 H   0  0  0  0  0  0
  -29.3680  -15.9528   17.9930 H   0  0  0  0  0  0
  -29.1585  -17.9444   22.3835 H   0  0  0  0  0  0
  -30.8649  -17.5294   22.2399 H   0  0  0  0  0  0
  -29.7006  -16.3135   22.7556 H   0  0  0  0  0  0
  -29.2137  -21.0326   21.5602 H   0  0  0  0  0  0
  -27.7667  -20.8395   20.6536 H   0  0  0  0  0  0
  -28.7727  -22.7552   18.9475 H   0  0  0  0  0  0
  -29.9462  -23.0635   20.1600 H   0  0  0  0  0  0
  -27.8930  -24.2235   21.5293 H   0  0  0  0  0  0
  -26.9884  -24.0941   20.0879 H   0  0  0  0  0  0
  -28.5800  -16.4986   20.5238 H   0  0  0  0  0  0
  -30.6507  -19.0980   16.8168 H   0  0  0  0  0  0
  1 25  1  0  0  0
  1 30  2  0  0  0
  1 79  1  0  0  0
  2  3  1  0  0  0
  2 25  1  0  0  0
  2 82  1  0  0  0
  2 83  1  0  0  0
  3  4  1  0  0  0
  3 84  1  0  0  0
  3 85  1  0  0  0
  4  5  1  0  0  0
  4 86  1  0  0  0
  4 87  1  0  0  0
  5  6  1  0  0  0
  5 26  1  0  0  0
  5 88  1  0  0  0
  6 25  1  0  0  0
  6 89  1  0  0  0
  6 90  1  0  0  0
  7  8  2  0  0  0
  7 26  1  0  0  0
  7 29  1  0  0  0
  8  9  1  0  0  0
  8 22  1  0  0  0
  9 10  1  0  0  0
  9 27  2  0  0  0
 10 11  2  0  0  0
 10 15  1  0  0  0
 11 12  1  0  0  0
 11 91  1  0  0  0
 12 13  2  0  0  0
 12 92  1  0  0  0
 13 14  1  0  0  0
 13 31  1  0  0  0
 14 15  2  0  0  0
 14 93  1  0  0  0
 15 94  1  0  0  0
 16 17  2  0  0  0
 16 21  1  0  0  0
 16 31  1  0  0  0
 17 18  1  0  0  0
 17 95  1  0  0  0
 18 19  2  0  0  0
 18 96  1  0  0  0
 19 20  1  0  0  0
 19 24  1  0  0  0
 20 21  2  0  0  0
 20 97  1  0  0  0
 21 23  1  0  0  0
 22 28  1  0  0  0
 22 32  2  0  0  0
 26 27  1  0  0  0
 28 98  1  0  0  0
 28 99  1  0  0  0
 29100  1  0  0  0
 29101  1  0  0  0
 33 34  1  0  0  0
 33 66  1  0  0  0
 33 70  2  0  0  0
 34 36  1  0  0  0
 34 59  1  0  0  0
 34102  1  0  0  0
 35 44  2  0  0  0
 35 45  1  0  0  0
 35 68  1  0  0  0
 36 56  1  0  0  0
 36103  1  0  0  0
 37 39  1  0  0  0
 37 47  1  0  0  0
 37 66  1  0  0  0
 37104  1  0  0  0
 38 43  2  0  0  0
 38 46  1  0  0  0
 38 47  1  0  0  0
 39 64  1  0  0  0
 39 67  2  0  0  0
 40 52  1  0  0  0
 40 53  2  0  0  0
 40 58  1  0  0  0
 41105  1  0  0  0
 41106  1  0  0  0
 41107  1  0  0  0
 41 48  1  0  0  0
 42 43  1  0  0  0
 42 66  1  0  0  0
 42108  1  0  0  0
 42109  1  0  0  0
 43 44  1  0  0  0
 44110  1  0  0  0
 45 46  2  0  0  0
 45111  1  0  0  0
 46112  1  0  0  0
 47113  1  0  0  0
 47114  1  0  0  0
 48 56  1  0  0  0
 48 65  1  0  0  0
 48115  1  0  0  0
 49 50  1  0  0  0
 49 53  1  0  0  0
 49 64  1  0  0  0
 49116  1  0  0  0
 50 51  1  0  0  0
 50117  1  0  0  0
 50118  1  0  0  0
 51 52  1  0  0  0
 51119  1  0  0  0
 51120  1  0  0  0
 52121  1  0  0  0
 52122  1  0  0  0
 53 54  1  0  0  0
 54 55  2  0  0  0
 54123  1  0  0  0
 55 57  1  0  0  0
 55124  1  0  0  0
 56 69  2  0  0  0
 57 58  2  0  0  0
 57125  1  0  0  0
 58126  1  0  0  0
 59 60  1  0  0  0
 59 61  1  0  0  0
 59 62  1  0  0  0
 60127  1  0  0  0
 60128  1  0  0  0
 60129  1  0  0  0
 61130  1  0  0  0
 61131  1  0  0  0
 61132  1  0  0  0
 62133  1  0  0  0
 62134  1  0  0  0
 62135  1  0  0  0
 63 65  1  0  0  0
 63136  1  0  0  0
 63137  1  0  0  0
 63138  1  0  0  0
 64139  1  0  0  0
 65140  1  0  0  0
 68 78  1  0  0  0
 71 72  2  0  0  0
 71 81  1  0  0  0
 71141  1  0  0  0
 72 76  1  0  0  0
 72 80  1  0  0  0
 73 74  1  0  0  0
 73 80  1  0  0  0
 73 81  2  0  0  0
 74142  1  0  0  0
 74143  1  0  0  0
 74144  1  0  0  0
 75145  1  0  0  0
 75146  1  0  0  0
 75147  1  0  0  0
 75 79  1  0  0  0
 76 77  1  0  0  0
 76148  1  0  0  0
 76149  1  0  0  0
 77 78  1  0  0  0
 77150  1  0  0  0
 77151  1  0  0  0
 78152  1  0  0  0
 78153  1  0  0  0
 79 80  1  0  0  0
 79154  1  0  0  0
 81155  1  0  0  0
M  CHG  1  81   1
M  ISO  4   1 100  68 101  78 101  79 100
M  END
> <chiral flag>
0

> <version>
0

> <s_m_source_file>
/data/baiqing/PycharmProjects/Reinvent-master-3.2/result/LINK_invent/BTK/process_docking_weight1_custom_sum_contain_oxygen_bond_distance_aromatic_linkinvent_7_9_3/rearranged_h_0054.sdf

> <i_m_source_file_index>
60

> <r_mmod_Potential_Energy-OPLS-2005>
1218.08361816406

> <r_mmod_Stretch_Energy-OPLS-2005>
605.617736816406

> <r_mmod_Bend_Energy-OPLS-2005>
468.828796386719

> <r_mmod_Torsional_Energy-OPLS-2005>
229.627990722656

> <r_mmod_Improper_Torsional_Energy-OPLS-2005>
2.9414210319519

> <r_mmod_Van_der_Waal_Energy-OPLS-2005>
109.857315063477

> <r_mmod_Electrostatic_Energy-OPLS-2005>
-190.952072143555

> <r_mmod_Solvation_Energy-OPLS-2005>
-407.131927490234

> <b_mmod_Minimization_Converged-OPLS-2005>
0

> <r_mmod_RMS_Derivative-OPLS-2005>
1.31736898422241

$$$$
60
                    3D
 Structure written by MMmdl.
163171  0  0  1  0            999 V2000
  -30.8197  -14.5429   20.5031 C   0  0  0  0  0  0
  -30.3795  -12.3502   19.4491 C   0  0  0  0  0  0
  -29.4771  -12.4747   18.2111 C   0  0  0  0  0  0
  -28.0082  -12.3250   18.6361 C   0  0  0  0  0  0
  -27.6420  -13.2185   19.8494 C   0  0  2  0  0  0
  -28.7002  -13.1277   20.9825 C   0  0  0  0  0  0
  -25.2526  -13.8157   20.5728 C   0  0  0  0  0  0
  -24.1821  -13.0432   20.9236 C   0  0  0  0  0  0
  -24.6380  -11.6894   20.8779 C   0  0  0  0  0  0
  -23.9034  -10.4288   21.0440 C   0  0  0  0  0  0
  -24.3582   -9.4197   21.9225 C   0  0  0  0  0  0
  -23.6255   -8.2233   22.0770 C   0  0  0  0  0  0
  -22.4254   -8.0271   21.3543 C   0  0  0  0  0  0
  -21.9884   -9.0252   20.4660 C   0  0  0  0  0  0
  -22.7204  -10.2135   20.3078 C   0  0  0  0  0  0
  -21.6862   -6.0728   22.5281 C   0  0  0  0  0  0
  -21.4032   -6.5632   23.8208 C   0  0  0  0  0  0
  -21.3654   -5.6786   24.9168 C   0  0  0  0  0  0
  -21.6034   -4.3044   24.7229 C   0  0  0  0  0  0
  -21.8801   -3.8133   23.4351 C   0  0  0  0  0  0
  -21.9190   -4.6950   22.3409 C   0  0  0  0  0  0
  -22.7848  -13.5232   21.1850 C   0  0  0  0  0  0
  -22.1653   -4.2129   21.0988 F   0  0  0  0  0  0
  -21.5615   -3.4524   25.7745 F   0  0  0  0  0  0
  -30.0047  -13.4423   20.3866 N   0  0  0  0  0  0
  -26.2946  -12.9347   20.3341 N   0  0  0  0  0  0
  -25.9319  -11.6494   20.5825 N   0  0  0  0  0  0
  -22.0452  -12.8276   22.0398 N   0  0  0  0  0  0
  -25.4185  -15.1875   20.4109 N   0  0  0  0  0  0
  -31.9886  -14.4015   20.1503 O   0  0  0  0  0  0
  -21.6619   -6.8877   21.4249 O   0  0  0  0  0  0
  -22.3549  -14.5534   20.6657 O   0  0  0  0  0  0
  -24.6212  -31.8706   23.2143 C   0  0  0  0  0  0
  -25.9108  -32.4833   23.8428 C   0  0  1  0  0  0
  -27.1987  -27.4024   20.0816 C   0  0  0  0  0  0
  -25.5971  -33.8624   24.2368 N   0  0  0  0  0  0
  -23.4061  -30.5058   21.5598 C   0  0  2  0  0  0
  -24.8433  -28.9932   20.0999 C   0  0  0  0  0  0
  -22.7439  -29.4717   22.5015 C   0  0  0  0  0  0
  -18.0289  -28.1337   22.8509 C   0  0  0  0  0  0
  -24.1498  -36.7293   23.2633 C   0  0  0  0  0  0
  -25.9459  -30.8248   21.3782 C   0  0  0  0  0  0
  -26.0139  -29.4653   20.7094 C   0  0  0  0  0  0
  -27.1982  -28.6787   20.7015 C   0  0  0  0  0  0
  -26.0111  -26.9934   19.4193 C   0  0  0  0  0  0
  -24.8410  -27.7580   19.4477 C   0  0  0  0  0  0
  -23.6104  -29.8601   20.1671 C   0  0  0  0  0  0
  -25.4107  -36.3107   24.0363 C   0  0  1  0  0  0
  -20.5862  -28.3677   23.1308 C   0  0  2  0  0  0
  -20.6771  -26.9402   22.5418 C   0  0  0  0  0  0
  -19.5746  -26.6284   21.5241 C   0  0  0  0  0  0
  -18.1922  -26.7888   22.1666 C   0  0  0  0  0  0
  -19.1526  -28.8823   23.2897 C   0  0  0  0  0  0
  -18.9402  -30.1427   23.8918 C   0  0  0  0  0  0
  -17.6403  -30.6554   24.0520 C   0  0  0  0  0  0
  -25.9040  -34.9471   23.5144 C   0  0  0  0  0  0
  -16.5311  -29.9007   23.6296 C   0  0  0  0  0  0
  -16.7261  -28.6428   23.0323 C   0  0  0  0  0  0
  -26.4512  -31.6591   25.0752 C   0  0  0  0  0  0
  -25.3750  -31.3688   26.1486 C   0  0  0  0  0  0
  -27.0334  -30.3036   24.6130 C   0  0  0  0  0  0
  -27.6114  -32.4280   25.7479 C   0  0  0  0  0  0
  -27.5585  -37.1798   24.8486 C   0  0  0  0  0  0
  -21.4151  -29.3098   22.3779 N   0  0  0  0  0  0
  -26.4291  -37.3792   23.9435 N   0  0  0  0  0  0
  -24.6775  -31.0798   22.1057 N   0  0  0  0  0  0
  -23.4211  -28.8222   23.3029 O   0  0  0  0  0  0
  -28.2866  -26.5351   20.1684 O   0  0  0  0  0  0
  -26.5575  -34.8947   22.4677 O   0  0  0  0  0  0
  -23.5400  -32.1463   23.7515 O   0  0  0  0  0  0
  -29.0899  -20.9359   22.6220 C   0  0  0  0  0  0
  -27.7941  -19.3582   20.8486 C   0  0  0  0  0  0
  -28.2954  -21.4981   21.5931 C   0  0  0  0  0  0
  -28.5610  -18.7943   21.8989 C   0  0  0  0  0  0
  -31.1870  -18.1908   20.0601 C   0  0  0  0  0  0
  -32.0167  -17.1723   22.2855 C   0  0  0  0  0  0
  -27.9172  -22.9839   21.5939 C   0  0  0  0  0  0
  -28.6652  -17.2747   22.1177 C   0  0  0  0  0  0
  -28.7767  -24.0067   20.7812 C   0  0  0  0  0  0
  -29.0296  -16.3955   20.8775 C   0  0  0  0  0  0
  -27.8771  -25.1346   20.2013 C   0  0  0  0  0  0
  -31.4834  -16.9001   20.8638 C   0  0  0  0  0  0
  -27.6670  -20.7032   20.6855 N   0  0  0  0  0  0
  -29.2214  -19.5913   22.7797 N   0  0  0  0  0  0
  -30.4110  -15.8295   20.8490 N   0  0  0  0  0  0
  -31.4256  -12.3525   19.1389 H   0  0  0  0  0  0
  -30.2403  -11.3787   19.9231 H   0  0  0  0  0  0
  -29.7324  -11.7094   17.4762 H   0  0  0  0  0  0
  -29.6379  -13.4325   17.7144 H   0  0  0  0  0  0
  -27.8455  -11.2786   18.8849 H   0  0  0  0  0  0
  -27.3491  -12.5429   17.7936 H   0  0  0  0  0  0
  -27.6303  -14.2294   19.4454 H   0  0  0  0  0  0
  -28.7098  -12.1177   21.3932 H   0  0  0  0  0  0
  -28.4711  -13.7734   21.8308 H   0  0  0  0  0  0
  -25.2725   -9.5649   22.4797 H   0  0  0  0  0  0
  -23.9939   -7.4627   22.7499 H   0  0  0  0  0  0
  -21.0797   -8.8760   19.8992 H   0  0  0  0  0  0
  -22.3646  -10.9665   19.6166 H   0  0  0  0  0  0
  -21.2041   -7.6142   23.9687 H   0  0  0  0  0  0
  -21.1494   -6.0545   25.9066 H   0  0  0  0  0  0
  -22.0582   -2.7589   23.2867 H   0  0  0  0  0  0
  -22.4032  -11.9950   22.4840 H   0  0  0  0  0  0
  -21.1070  -13.1347   22.2521 H   0  0  0  0  0  0
  -24.6411  -15.8292   20.5211 H   0  0  0  0  0  0
  -26.2486  -15.6252   20.0367 H   0  0  0  0  0  0
  -26.7175  -32.5534   23.1176 H   0  0  0  0  0  0
  -25.0241  -33.9780   25.0612 H   0  0  0  0  0  0
  -22.6960  -31.3264   21.4330 H   0  0  0  0  0  0
  -23.3778  -35.9611   23.3305 H   0  0  0  0  0  0
  -24.3612  -36.8871   22.2050 H   0  0  0  0  0  0
  -23.7246  -37.6507   23.6606 H   0  0  0  0  0  0
  -26.0704  -31.5964   20.6186 H   0  0  0  0  0  0
  -26.8298  -30.8616   22.0025 H   0  0  0  0  0  0
  -28.0903  -29.0274   21.2018 H   0  0  0  0  0  0
  -25.9405  -26.0625   18.8813 H   0  0  0  0  0  0
  -23.9515  -27.4004   18.9461 H   0  0  0  0  0  0
  -23.7156  -30.6434   19.4163 H   0  0  0  0  0  0
  -22.7302  -29.2907   19.8647 H   0  0  0  0  0  0
  -25.1262  -36.1943   25.0856 H   0  0  0  0  0  0
  -20.9897  -28.3230   24.1433 H   0  0  0  0  0  0
  -20.5849  -26.2282   23.3621 H   0  0  0  0  0  0
  -21.6599  -26.7477   22.1063 H   0  0  0  0  0  0
  -19.6896  -25.6165   21.1368 H   0  0  0  0  0  0
  -19.6774  -27.2977   20.6730 H   0  0  0  0  0  0
  -17.4220  -26.6725   21.4021 H   0  0  0  0  0  0
  -18.0188  -26.0021   22.8988 H   0  0  0  0  0  0
  -19.7873  -30.7257   24.2302 H   0  0  0  0  0  0
  -17.4916  -31.6182   24.5178 H   0  0  0  0  0  0
  -15.5282  -30.2860   23.7596 H   0  0  0  0  0  0
  -15.8723  -28.0725   22.6951 H   0  0  0  0  0  0
  -24.5952  -30.6996   25.7842 H   0  0  0  0  0  0
  -24.8910  -32.2832   26.4917 H   0  0  0  0  0  0
  -25.8106  -30.8882   27.0254 H   0  0  0  0  0  0
  -26.2866  -29.6809   24.1200 H   0  0  0  0  0  0
  -27.4148  -29.7262   25.4566 H   0  0  0  0  0  0
  -27.8700  -30.4434   23.9277 H   0  0  0  0  0  0
  -27.2786  -33.3596   26.2077 H   0  0  0  0  0  0
  -28.3891  -32.6792   25.0244 H   0  0  0  0  0  0
  -28.0824  -31.8366   26.5356 H   0  0  0  0  0  0
  -28.2601  -38.0083   24.7488 H   0  0  0  0  0  0
  -28.1045  -36.2609   24.6301 H   0  0  0  0  0  0
  -27.2306  -37.1448   25.8888 H   0  0  0  0  0  0
  -20.9283  -29.8857   21.7047 H   0  0  0  0  0  0
  -26.0175  -38.2878   24.1376 H   0  0  0  0  0  0
  -29.5669  -21.5646   23.3562 H   0  0  0  0  0  0
  -27.2555  -18.7271   20.1563 H   0  0  0  0  0  0
  -32.1182  -18.6029   19.6722 H   0  0  0  0  0  0
  -30.7705  -18.9863   20.6695 H   0  0  0  0  0  0
  -30.5428  -18.0319   19.1946 H   0  0  0  0  0  0
  -32.9687  -17.7074   22.2558 H   0  0  0  0  0  0
  -32.1843  -16.2391   22.8253 H   0  0  0  0  0  0
  -31.3414  -17.7826   22.8791 H   0  0  0  0  0  0
  -27.8543  -23.3230   22.6306 H   0  0  0  0  0  0
  -26.8845  -23.0101   21.2371 H   0  0  0  0  0  0
  -27.6906  -16.9610   22.4924 H   0  0  0  0  0  0
  -29.3321  -17.0505   22.9456 H   0  0  0  0  0  0
  -29.2706  -23.5011   19.9485 H   0  0  0  0  0  0
  -29.5624  -24.4124   21.4171 H   0  0  0  0  0  0
  -28.8017  -16.9071   19.9429 H   0  0  0  0  0  0
  -28.2973  -15.6107   20.8909 H   0  0  0  0  0  0
  -27.6080  -24.8221   19.1919 H   0  0  0  0  0  0
  -26.9624  -25.1069   20.7942 H   0  0  0  0  0  0
  -32.3783  -16.5760   20.3316 H   0  0  0  0  0  0
  1 25  1  0  0  0
  1 30  2  0  0  0
  1 85  1  0  0  0
  2  3  1  0  0  0
  2 25  1  0  0  0
  2 86  1  0  0  0
  2 87  1  0  0  0
  3  4  1  0  0  0
  3 88  1  0  0  0
  3 89  1  0  0  0
  4  5  1  0  0  0
  4 90  1  0  0  0
  4 91  1  0  0  0
  5  6  1  0  0  0
  5 26  1  0  0  0
  5 92  1  0  0  0
  6 25  1  0  0  0
  6 93  1  0  0  0
  6 94  1  0  0  0
  7  8  2  0  0  0
  7 26  1  0  0  0
  7 29  1  0  0  0
  8  9  1  0  0  0
  8 22  1  0  0  0
  9 10  1  0  0  0
  9 27  2  0  0  0
 10 11  2  0  0  0
 10 15  1  0  0  0
 11 12  1  0  0  0
 11 95  1  0  0  0
 12 13  2  0  0  0
 12 96  1  0  0  0
 13 14  1  0  0  0
 13 31  1  0  0  0
 14 15  2  0  0  0
 14 97  1  0  0  0
 15 98  1  0  0  0
 16 17  2  0  0  0
 16 21  1  0  0  0
 16 31  1  0  0  0
 17 18  1  0  0  0
 17 99  1  0  0  0
 18 19  2  0  0  0
 18100  1  0  0  0
 19 20  1  0  0  0
 19 24  1  0  0  0
 20 21  2  0  0  0
 20101  1  0  0  0
 21 23  1  0  0  0
 22 28  1  0  0  0
 22 32  2  0  0  0
 26 27  1  0  0  0
 28102  1  0  0  0
 28103  1  0  0  0
 29104  1  0  0  0
 29105  1  0  0  0
 33 34  1  0  0  0
 33 66  1  0  0  0
 33 70  2  0  0  0
 34 36  1  0  0  0
 34 59  1  0  0  0
 34106  1  0  0  0
 35 44  2  0  0  0
 35 45  1  0  0  0
 35 68  1  0  0  0
 36 56  1  0  0  0
 36107  1  0  0  0
 37 39  1  0  0  0
 37 47  1  0  0  0
 37 66  1  0  0  0
 37108  1  0  0  0
 38 43  2  0  0  0
 38 46  1  0  0  0
 38 47  1  0  0  0
 39 64  1  0  0  0
 39 67  2  0  0  0
 40 52  1  0  0  0
 40 53  2  0  0  0
 40 58  1  0  0  0
 41109  1  0  0  0
 41110  1  0  0  0
 41111  1  0  0  0
 41 48  1  0  0  0
 42 43  1  0  0  0
 42 66  1  0  0  0
 42112  1  0  0  0
 42113  1  0  0  0
 43 44  1  0  0  0
 44114  1  0  0  0
 45 46  2  0  0  0
 45115  1  0  0  0
 46116  1  0  0  0
 47117  1  0  0  0
 47118  1  0  0  0
 48 56  1  0  0  0
 48 65  1  0  0  0
 48119  1  0  0  0
 49 50  1  0  0  0
 49 53  1  0  0  0
 49 64  1  0  0  0
 49120  1  0  0  0
 50 51  1  0  0  0
 50121  1  0  0  0
 50122  1  0  0  0
 51 52  1  0  0  0
 51123  1  0  0  0
 51124  1  0  0  0
 52125  1  0  0  0
 52126  1  0  0  0
 53 54  1  0  0  0
 54 55  2  0  0  0
 54127  1  0  0  0
 55 57  1  0  0  0
 55128  1  0  0  0
 56 69  2  0  0  0
 57 58  2  0  0  0
 57129  1  0  0  0
 58130  1  0  0  0
 59 60  1  0  0  0
 59 61  1  0  0  0
 59 62  1  0  0  0
 60131  1  0  0  0
 60132  1  0  0  0
 60133  1  0  0  0
 61134  1  0  0  0
 61135  1  0  0  0
 61136  1  0  0  0
 62137  1  0  0  0
 62138  1  0  0  0
 62139  1  0  0  0
 63 65  1  0  0  0
 63140  1  0  0  0
 63141  1  0  0  0
 63142  1  0  0  0
 64143  1  0  0  0
 65144  1  0  0  0
 68 81  1  0  0  0
 71 73  2  0  0  0
 71 84  1  0  0  0
 71145  1  0  0  0
 72 74  1  0  0  0
 72 83  2  0  0  0
 72146  1  0  0  0
 73 77  1  0  0  0
 73 83  1  0  0  0
 74 78  1  0  0  0
 74 84  2  0  0  0
 75147  1  0  0  0
 75148  1  0  0  0
 75149  1  0  0  0
 75 82  1  0  0  0
 76 82  1  0  0  0
 76150  1  0  0  0
 76151  1  0  0  0
 76152  1  0  0  0
 77 79  1  0  0  0
 77153  1  0  0  0
 77154  1  0  0  0
 78 80  1  0  0  0
 78155  1  0  0  0
 78156  1  0  0  0
 79 81  1  0  0  0
 79157  1  0  0  0
 79158  1  0  0  0
 80 85  1  0  0  0
 80159  1  0  0  0
 80160  1  0  0  0
 81161  1  0  0  0
 81162  1  0  0  0
 82 85  1  0  0  0
 82163  1  0  0  0
M  ISO  4   1 100  68 101  81 101  85 100
M  END
> <chiral flag>
0

> <version>
0

> <s_m_source_file>
/data/baiqing/PycharmProjects/Reinvent-master-3.2/result/LINK_invent/BTK/process_docking_weight1_custom_sum_contain_oxygen_bond_distance_aromatic_linkinvent_7_9_3/rearranged_h_0054.sdf

> <i_m_source_file_index>
61

> <r_mmod_Potential_Energy-OPLS-2005>
401.379211425781

> <r_mmod_Stretch_Energy-OPLS-2005>
65.0079574584961

> <r_mmod_Bend_Energy-OPLS-2005>
175.110137939453

> <r_mmod_Torsional_Energy-OPLS-2005>
320.777923583984

> <r_mmod_Improper_Torsional_Energy-OPLS-2005>
4.7581844329834

> <r_mmod_Van_der_Waal_Energy-OPLS-2005>
200.543441772461

> <r_mmod_Electrostatic_Energy-OPLS-2005>
-209.683654785156

> <r_mmod_Solvation_Energy-OPLS-2005>
-205.555435180664

> <b_mmod_Minimization_Converged-OPLS-2005>
0

> <r_mmod_RMS_Derivative-OPLS-2005>
5.37300062179565

$$$$
61
                    3D
 Structure written by MMmdl.
160168  0  0  1  0            999 V2000
  -30.7766  -14.6903   20.4010 C   0  0  0  0  0  0
  -30.4239  -12.4421   19.4402 C   0  0  0  0  0  0
  -29.4925  -12.4531   18.2148 C   0  0  0  0  0  0
  -28.0326  -12.2851   18.6668 C   0  0  0  0  0  0
  -27.6430  -13.2399   19.8301 C   0  0  2  0  0  0
  -28.7109  -13.2668   20.9479 C   0  0  0  0  0  0
  -25.2527  -13.8222   20.5742 C   0  0  0  0  0  0
  -24.1808  -13.0448   20.9225 C   0  0  0  0  0  0
  -24.6401  -11.6946   20.8745 C   0  0  0  0  0  0
  -23.9082  -10.4293   21.0390 C   0  0  0  0  0  0
  -24.3599   -9.4217   21.9181 C   0  0  0  0  0  0
  -23.6262   -8.2260   22.0745 C   0  0  0  0  0  0
  -22.4253   -8.0289   21.3529 C   0  0  0  0  0  0
  -21.9884   -9.0302   20.4653 C   0  0  0  0  0  0
  -22.7254  -10.2152   20.3055 C   0  0  0  0  0  0
  -21.6884   -6.0685   22.5266 C   0  0  0  0  0  0
  -21.4058   -6.5591   23.8201 C   0  0  0  0  0  0
  -21.3664   -5.6735   24.9173 C   0  0  0  0  0  0
  -21.6026   -4.2994   24.7235 C   0  0  0  0  0  0
  -21.8825   -3.8099   23.4362 C   0  0  0  0  0  0
  -21.9217   -4.6903   22.3416 C   0  0  0  0  0  0
  -22.7802  -13.5227   21.1850 C   0  0  0  0  0  0
  -22.1679   -4.2073   21.0990 F   0  0  0  0  0  0
  -21.5643   -3.4497   25.7753 F   0  0  0  0  0  0
  -29.9961  -13.5627   20.3000 N   0  0  0  0  0  0
  -26.2991  -12.9478   20.3294 N   0  0  0  0  0  0
  -25.9354  -11.6623   20.5788 N   0  0  0  0  0  0
  -22.0393  -12.8276   22.0374 N   0  0  0  0  0  0
  -25.4171  -15.1956   20.4204 N   0  0  0  0  0  0
  -31.9963  -14.5442   20.3915 O   0  0  0  0  0  0
  -21.6680   -6.8849   21.4224 O   0  0  0  0  0  0
  -22.3500  -14.5542   20.6692 O   0  0  0  0  0  0
  -24.6241  -31.8629   23.2032 C   0  0  0  0  0  0
  -25.9094  -32.4819   23.8310 C   0  0  1  0  0  0
  -27.2078  -27.3325   20.1243 C   0  0  0  0  0  0
  -25.5942  -33.8612   24.2294 N   0  0  0  0  0  0
  -23.4174  -30.4805   21.5444 C   0  0  2  0  0  0
  -24.8642  -28.9462   20.0993 C   0  0  0  0  0  0
  -22.7490  -29.4576   22.4961 C   0  0  0  0  0  0
  -18.0284  -28.1392   22.8446 C   0  0  0  0  0  0
  -24.1488  -36.7310   23.2613 C   0  0  0  0  0  0
  -25.9512  -30.7968   21.3689 C   0  0  0  0  0  0
  -26.0280  -29.4250   20.7151 C   0  0  0  0  0  0
  -27.2105  -28.6300   20.7168 C   0  0  0  0  0  0
  -26.0332  -26.9096   19.4662 C   0  0  0  0  0  0
  -24.8674  -27.6965   19.4572 C   0  0  0  0  0  0
  -23.6317  -29.8245   20.1552 C   0  0  0  0  0  0
  -25.4104  -36.3100   24.0329 C   0  0  1  0  0  0
  -20.5862  -28.3698   23.1307 C   0  0  2  0  0  0
  -20.6746  -26.9416   22.5456 C   0  0  0  0  0  0
  -19.5760  -26.6354   21.5235 C   0  0  0  0  0  0
  -18.1927  -26.7926   22.1604 C   0  0  0  0  0  0
  -19.1509  -28.8866   23.2860 C   0  0  0  0  0  0
  -18.9439  -30.1460   23.8919 C   0  0  0  0  0  0
  -17.6453  -30.6592   24.0561 C   0  0  0  0  0  0
  -25.9048  -34.9491   23.5090 C   0  0  0  0  0  0
  -16.5333  -29.9104   23.6307 C   0  0  0  0  0  0
  -16.7256  -28.6521   23.0332 C   0  0  0  0  0  0
  -26.4520  -31.6579   25.0657 C   0  0  0  0  0  0
  -25.3780  -31.3677   26.1402 C   0  0  0  0  0  0
  -27.0329  -30.3003   24.6032 C   0  0  0  0  0  0
  -27.6133  -32.4286   25.7412 C   0  0  0  0  0  0
  -27.5592  -37.1794   24.8466 C   0  0  0  0  0  0
  -21.4195  -29.3050   22.3757 N   0  0  0  0  0  0
  -26.4303  -37.3787   23.9415 N   0  0  0  0  0  0
  -24.6819  -31.0622   22.0987 N   0  0  0  0  0  0
  -23.4231  -28.8092   23.3003 O   0  0  0  0  0  0
  -28.2875  -26.4522   20.1829 O   0  0  0  0  0  0
  -26.5590  -34.8937   22.4647 O   0  0  0  0  0  0
  -23.5424  -32.1494   23.7347 O   0  0  0  0  0  0
  -29.6116  -20.3701   21.5274 C   0  0  0  0  0  0
  -28.3673  -19.0089   19.5705 C   0  0  0  0  0  0
  -28.7050  -21.0534   20.6597 C   0  0  0  0  0  0
  -29.2147  -18.3092   20.4771 C   0  0  0  0  0  0
  -30.4797  -17.2282   17.6756 C   0  0  0  0  0  0
  -32.2379  -17.5795   19.5789 C   0  0  0  0  0  0
  -28.1400  -22.4871   20.9705 C   0  0  0  0  0  0
  -29.2310  -16.7334   20.5393 C   0  0  0  0  0  0
  -28.6437  -23.8017   20.2421 C   0  0  0  0  0  0
  -27.9940  -25.1449   20.8038 C   0  0  0  0  0  0
  -31.1943  -16.6337   18.9179 C   0  0  0  0  0  0
  -28.1137  -20.3517   19.6546 N   0  0  0  0  0  0
  -29.8559  -19.0225   21.4483 N   0  0  0  0  0  0
  -30.3102  -15.9096   19.9022 N   0  0  0  0  0  0
  -31.4574  -12.5404   19.1057 H   0  0  0  0  0  0
  -30.3651  -11.5007   19.9865 H   0  0  0  0  0  0
  -29.7711  -11.6486   17.5288 H   0  0  0  0  0  0
  -29.6131  -13.3846   17.6636 H   0  0  0  0  0  0
  -27.9260  -11.2536   19.0000 H   0  0  0  0  0  0
  -27.3482  -12.4070   17.8279 H   0  0  0  0  0  0
  -27.6129  -14.2388   19.3947 H   0  0  0  0  0  0
  -28.7491  -12.3144   21.4813 H   0  0  0  0  0  0
  -28.4637  -14.0330   21.6837 H   0  0  0  0  0  0
  -25.2735   -9.5671   22.4780 H   0  0  0  0  0  0
  -23.9943   -7.4637   22.7462 H   0  0  0  0  0  0
  -21.0801   -8.8873   19.8964 H   0  0  0  0  0  0
  -22.3733  -10.9704   19.6154 H   0  0  0  0  0  0
  -21.2077   -7.6085   23.9703 H   0  0  0  0  0  0
  -21.1452   -6.0447   25.9050 H   0  0  0  0  0  0
  -22.0583   -2.7551   23.2905 H   0  0  0  0  0  0
  -22.3968  -12.0028   22.4958 H   0  0  0  0  0  0
  -21.0994  -13.1310   22.2494 H   0  0  0  0  0  0
  -24.6420  -15.8358   20.5540 H   0  0  0  0  0  0
  -26.2507  -15.6478   20.0714 H   0  0  0  0  0  0
  -26.7164  -32.5518   23.1046 H   0  0  0  0  0  0
  -25.0194  -33.9725   25.0507 H   0  0  0  0  0  0
  -22.7061  -31.2962   21.4090 H   0  0  0  0  0  0
  -23.3767  -35.9626   23.3286 H   0  0  0  0  0  0
  -24.3580  -36.8919   22.2025 H   0  0  0  0  0  0
  -23.7234  -37.6511   23.6633 H   0  0  0  0  0  0
  -26.0587  -31.5553   20.5926 H   0  0  0  0  0  0
  -26.8395  -30.8584   21.9842 H   0  0  0  0  0  0
  -28.1076  -28.9836   21.2047 H   0  0  0  0  0  0
  -26.0067  -25.9488   18.9691 H   0  0  0  0  0  0
  -23.9867  -27.3422   18.9399 H   0  0  0  0  0  0
  -23.7496  -30.6077   19.4059 H   0  0  0  0  0  0
  -22.7516  -29.2552   19.8535 H   0  0  0  0  0  0
  -25.1270  -36.1960   25.0829 H   0  0  0  0  0  0
  -20.9890  -28.3238   24.1434 H   0  0  0  0  0  0
  -20.5565  -26.2336   23.3668 H   0  0  0  0  0  0
  -21.6611  -26.7397   22.1279 H   0  0  0  0  0  0
  -19.6918  -25.6220   21.1371 H   0  0  0  0  0  0
  -19.6754  -27.3099   20.6707 H   0  0  0  0  0  0
  -17.4199  -26.6651   21.4009 H   0  0  0  0  0  0
  -18.0302  -26.0088   22.9029 H   0  0  0  0  0  0
  -19.7928  -30.7207   24.2359 H   0  0  0  0  0  0
  -17.5018  -31.6259   24.5203 H   0  0  0  0  0  0
  -15.5352  -30.3030   23.7608 H   0  0  0  0  0  0
  -15.8629  -28.0831   22.7084 H   0  0  0  0  0  0
  -24.5974  -30.7013   25.7711 H   0  0  0  0  0  0
  -24.8955  -32.2826   26.4864 H   0  0  0  0  0  0
  -25.8142  -30.8835   27.0144 H   0  0  0  0  0  0
  -26.2823  -29.6751   24.1187 H   0  0  0  0  0  0
  -27.4183  -29.7264   25.4462 H   0  0  0  0  0  0
  -27.8637  -30.4287   23.9089 H   0  0  0  0  0  0
  -27.2785  -33.3569   26.2034 H   0  0  0  0  0  0
  -28.3901  -32.6869   25.0210 H   0  0  0  0  0  0
  -28.0842  -31.8386   26.5268 H   0  0  0  0  0  0
  -28.2629  -38.0081   24.7517 H   0  0  0  0  0  0
  -28.1078  -36.2618   24.6293 H   0  0  0  0  0  0
  -27.2314  -37.1437   25.8872 H   0  0  0  0  0  0
  -20.9392  -29.8886   21.7047 H   0  0  0  0  0  0
  -26.0209  -38.2870   24.1450 H   0  0  0  0  0  0
  -30.0831  -20.8927   22.3507 H   0  0  0  0  0  0
  -27.8172  -18.4690   18.8130 H   0  0  0  0  0  0
  -31.0978  -17.0892   16.7840 H   0  0  0  0  0  0
  -30.3101  -18.3028   17.7453 H   0  0  0  0  0  0
  -29.5293  -16.7393   17.4671 H   0  0  0  0  0  0
  -33.2267  -17.4149   19.1454 H   0  0  0  0  0  0
  -32.3340  -17.3999   20.6525 H   0  0  0  0  0  0
  -32.0106  -18.6414   19.4549 H   0  0  0  0  0  0
  -28.2146  -22.6442   22.0491 H   0  0  0  0  0  0
  -27.0638  -22.4164   20.7949 H   0  0  0  0  0  0
  -28.2986  -16.3964   20.0864 H   0  0  0  0  0  0
  -29.1517  -16.4539   21.5928 H   0  0  0  0  0  0
  -28.4324  -23.7182   19.1744 H   0  0  0  0  0  0
  -29.7282  -23.8629   20.3310 H   0  0  0  0  0  0
  -28.3039  -25.2430   21.8460 H   0  0  0  0  0  0
  -26.9159  -24.9793   20.8695 H   0  0  0  0  0  0
  -31.8022  -15.8590   18.4382 H   0  0  0  0  0  0
  1 25  1  0  0  0
  1 30  2  0  0  0
  1 84  1  0  0  0
  2  3  1  0  0  0
  2 25  1  0  0  0
  2 85  1  0  0  0
  2 86  1  0  0  0
  3  4  1  0  0  0
  3 87  1  0  0  0
  3 88  1  0  0  0
  4  5  1  0  0  0
  4 89  1  0  0  0
  4 90  1  0  0  0
  5  6  1  0  0  0
  5 26  1  0  0  0
  5 91  1  0  0  0
  6 25  1  0  0  0
  6 92  1  0  0  0
  6 93  1  0  0  0
  7  8  2  0  0  0
  7 26  1  0  0  0
  7 29  1  0  0  0
  8  9  1  0  0  0
  8 22  1  0  0  0
  9 10  1  0  0  0
  9 27  2  0  0  0
 10 11  2  0  0  0
 10 15  1  0  0  0
 11 12  1  0  0  0
 11 94  1  0  0  0
 12 13  2  0  0  0
 12 95  1  0  0  0
 13 14  1  0  0  0
 13 31  1  0  0  0
 14 15  2  0  0  0
 14 96  1  0  0  0
 15 97  1  0  0  0
 16 17  2  0  0  0
 16 21  1  0  0  0
 16 31  1  0  0  0
 17 18  1  0  0  0
 17 98  1  0  0  0
 18 19  2  0  0  0
 18 99  1  0  0  0
 19 20  1  0  0  0
 19 24  1  0  0  0
 20 21  2  0  0  0
 20100  1  0  0  0
 21 23  1  0  0  0
 22 28  1  0  0  0
 22 32  2  0  0  0
 26 27  1  0  0  0
 28101  1  0  0  0
 28102  1  0  0  0
 29103  1  0  0  0
 29104  1  0  0  0
 33 34  1  0  0  0
 33 66  1  0  0  0
 33 70  2  0  0  0
 34 36  1  0  0  0
 34 59  1  0  0  0
 34105  1  0  0  0
 35 44  2  0  0  0
 35 45  1  0  0  0
 35 68  1  0  0  0
 36 56  1  0  0  0
 36106  1  0  0  0
 37 39  1  0  0  0
 37 47  1  0  0  0
 37 66  1  0  0  0
 37107  1  0  0  0
 38 43  2  0  0  0
 38 46  1  0  0  0
 38 47  1  0  0  0
 39 64  1  0  0  0
 39 67  2  0  0  0
 40 52  1  0  0  0
 40 53  2  0  0  0
 40 58  1  0  0  0
 41108  1  0  0  0
 41109  1  0  0  0
 41110  1  0  0  0
 41 48  1  0  0  0
 42 43  1  0  0  0
 42 66  1  0  0  0
 42111  1  0  0  0
 42112  1  0  0  0
 43 44  1  0  0  0
 44113  1  0  0  0
 45 46  2  0  0  0
 45114  1  0  0  0
 46115  1  0  0  0
 47116  1  0  0  0
 47117  1  0  0  0
 48 56  1  0  0  0
 48 65  1  0  0  0
 48118  1  0  0  0
 49 50  1  0  0  0
 49 53  1  0  0  0
 49 64  1  0  0  0
 49119  1  0  0  0
 50 51  1  0  0  0
 50120  1  0  0  0
 50121  1  0  0  0
 51 52  1  0  0  0
 51122  1  0  0  0
 51123  1  0  0  0
 52124  1  0  0  0
 52125  1  0  0  0
 53 54  1  0  0  0
 54 55  2  0  0  0
 54126  1  0  0  0
 55 57  1  0  0  0
 55127  1  0  0  0
 56 69  2  0  0  0
 57 58  2  0  0  0
 57128  1  0  0  0
 58129  1  0  0  0
 59 60  1  0  0  0
 59 61  1  0  0  0
 59 62  1  0  0  0
 60130  1  0  0  0
 60131  1  0  0  0
 60132  1  0  0  0
 61133  1  0  0  0
 61134  1  0  0  0
 61135  1  0  0  0
 62136  1  0  0  0
 62137  1  0  0  0
 62138  1  0  0  0
 63 65  1  0  0  0
 63139  1  0  0  0
 63140  1  0  0  0
 63141  1  0  0  0
 64142  1  0  0  0
 65143  1  0  0  0
 68 80  1  0  0  0
 71 73  2  0  0  0
 71 83  1  0  0  0
 71144  1  0  0  0
 72 74  1  0  0  0
 72 82  2  0  0  0
 72145  1  0  0  0
 73 77  1  0  0  0
 73 82  1  0  0  0
 74 78  1  0  0  0
 74 83  2  0  0  0
 75146  1  0  0  0
 75147  1  0  0  0
 75148  1  0  0  0
 75 81  1  0  0  0
 76 81  1  0  0  0
 76149  1  0  0  0
 76150  1  0  0  0
 76151  1  0  0  0
 77 79  1  0  0  0
 77152  1  0  0  0
 77153  1  0  0  0
 78 84  1  0  0  0
 78154  1  0  0  0
 78155  1  0  0  0
 79 80  1  0  0  0
 79156  1  0  0  0
 79157  1  0  0  0
 80158  1  0  0  0
 80159  1  0  0  0
 81 84  1  0  0  0
 81160  1  0  0  0
M  ISO  4   1 100  68 101  80 101  84 100
M  END
> <chiral flag>
0

> <version>
0

> <s_m_source_file>
/data/baiqing/PycharmProjects/Reinvent-master-3.2/result/LINK_invent/BTK/process_docking_weight1_custom_sum_contain_oxygen_bond_distance_aromatic_linkinvent_7_9_3/rearranged_h_0054.sdf

> <i_m_source_file_index>
62

> <r_mmod_Potential_Energy-OPLS-2005>
404.155212402344

> <r_mmod_Stretch_Energy-OPLS-2005>
88.9540557861328

> <r_mmod_Bend_Energy-OPLS-2005>
161.476165771484

> <r_mmod_Torsional_Energy-OPLS-2005>
329.941162109375

> <r_mmod_Improper_Torsional_Energy-OPLS-2005>
25.730562210083

> <r_mmod_Van_der_Waal_Energy-OPLS-2005>
146.51383972168

> <r_mmod_Electrostatic_Energy-OPLS-2005>
-236.402740478516

> <r_mmod_Solvation_Energy-OPLS-2005>
-206.463729858398

> <b_mmod_Minimization_Converged-OPLS-2005>
0

> <r_mmod_RMS_Derivative-OPLS-2005>
7.25861120223999

$$$$
62
                    3D
 Structure written by MMmdl.
153161  0  0  1  0            999 V2000
  -30.4944  -15.0278   20.4485 C   0  0  0  0  0  0
  -30.4343  -12.6568   19.4964 C   0  0  0  0  0  0
  -29.4990  -12.5371   18.2666 C   0  0  0  0  0  0
  -28.0429  -12.3063   18.6997 C   0  0  0  0  0  0
  -27.6210  -13.2458   19.8570 C   0  0  2  0  0  0
  -28.6653  -13.2865   20.9929 C   0  0  0  0  0  0
  -25.2409  -13.8211   20.5810 C   0  0  0  0  0  0
  -24.1719  -13.0459   20.9314 C   0  0  0  0  0  0
  -24.6317  -11.6940   20.8820 C   0  0  0  0  0  0
  -23.9017  -10.4308   21.0416 C   0  0  0  0  0  0
  -24.3569   -9.4211   21.9185 C   0  0  0  0  0  0
  -23.6272   -8.2234   22.0739 C   0  0  0  0  0  0
  -22.4270   -8.0258   21.3502 C   0  0  0  0  0  0
  -21.9886   -9.0228   20.4601 C   0  0  0  0  0  0
  -22.7197  -10.2138   20.3042 C   0  0  0  0  0  0
  -21.6854   -6.0706   22.5241 C   0  0  0  0  0  0
  -21.4000   -6.5608   23.8176 C   0  0  0  0  0  0
  -21.3664   -5.6782   24.9141 C   0  0  0  0  0  0
  -21.6083   -4.3050   24.7221 C   0  0  0  0  0  0
  -21.8813   -3.8115   23.4339 C   0  0  0  0  0  0
  -21.9180   -4.6918   22.3387 C   0  0  0  0  0  0
  -22.7734  -13.5195   21.2004 C   0  0  0  0  0  0
  -22.1660   -4.2101   21.0976 F   0  0  0  0  0  0
  -21.5648   -3.4571   25.7750 F   0  0  0  0  0  0
  -29.9220  -13.7500   20.3845 N   0  0  0  0  0  0
  -26.2823  -12.9439   20.3391 N   0  0  0  0  0  0
  -25.9247  -11.6570   20.5838 N   0  0  0  0  0  0
  -22.0399  -12.8125   22.0536 N   0  0  0  0  0  0
  -25.4147  -15.1932   20.4213 N   0  0  0  0  0  0
  -31.6968  -15.0919   20.1554 O   0  0  0  0  0  0
  -21.6622   -6.8850   21.4212 O   0  0  0  0  0  0
  -22.3349  -14.5509   20.6871 O   0  0  0  0  0  0
  -24.6511  -31.8378   23.1879 C   0  0  0  0  0  0
  -25.9290  -32.4656   23.8271 C   0  0  1  0  0  0
  -27.1855  -27.0369   20.1883 C   0  0  0  0  0  0
  -25.5986  -33.8494   24.2119 N   0  0  0  0  0  0
  -23.4605  -30.4519   21.5345 C   0  0  2  0  0  0
  -24.9060  -28.8737   20.1014 C   0  0  0  0  0  0
  -22.7612  -29.4505   22.4867 C   0  0  0  0  0  0
  -18.0304  -28.1405   22.8419 C   0  0  0  0  0  0
  -24.1508  -36.7247   23.2641 C   0  0  0  0  0  0
  -26.0168  -30.6765   21.4022 C   0  0  0  0  0  0
  -26.0814  -29.2791   20.7472 C   0  0  0  0  0  0
  -27.2193  -28.3732   20.7805 C   0  0  0  0  0  0
  -25.9983  -26.7712   19.4666 C   0  0  0  0  0  0
  -24.8836  -27.6399   19.4402 C   0  0  0  0  0  0
  -23.6914  -29.7902   20.1505 C   0  0  0  0  0  0
  -25.4146  -36.3007   24.0276 C   0  0  1  0  0  0
  -20.5919  -28.3764   23.1172 C   0  0  2  0  0  0
  -20.6759  -26.9441   22.5387 C   0  0  0  0  0  0
  -19.5760  -26.6374   21.5176 C   0  0  0  0  0  0
  -18.1941  -26.7918   22.1595 C   0  0  0  0  0  0
  -19.1569  -28.8902   23.2765 C   0  0  0  0  0  0
  -18.9512  -30.1483   23.8834 C   0  0  0  0  0  0
  -17.6506  -30.6571   24.0560 C   0  0  0  0  0  0
  -25.9122  -34.9398   23.5030 C   0  0  0  0  0  0
  -16.5385  -29.9073   23.6383 C   0  0  0  0  0  0
  -16.7285  -28.6518   23.0345 C   0  0  0  0  0  0
  -26.4560  -31.6601   25.0787 C   0  0  0  0  0  0
  -25.3693  -31.3796   26.1441 C   0  0  0  0  0  0
  -27.0434  -30.2975   24.6443 C   0  0  0  0  0  0
  -27.6054  -32.4404   25.7553 C   0  0  0  0  0  0
  -27.5578  -37.1779   24.8442 C   0  0  0  0  0  0
  -21.4286  -29.3080   22.3584 N   0  0  0  0  0  0
  -26.4284  -37.3716   23.9398 N   0  0  0  0  0  0
  -24.7309  -31.0155   22.0973 N   0  0  0  0  0  0
  -23.4192  -28.8051   23.3042 O   0  0  0  0  0  0
  -28.1795  -25.9712   20.2870 O   0  0  0  0  0  0
  -26.5700  -34.8900   22.4610 O   0  0  0  0  0  0
  -23.5637  -32.1341   23.7038 O   0  0  0  0  0  0
  -30.0821  -22.8131   20.4812 C   0  0  0  0  0  0
  -30.3368  -21.4424   20.5810 C   0  0  0  0  0  0
  -28.6673  -23.0294   20.4766 C   0  0  0  0  0  0
  -28.8887  -18.9707   22.4944 C   0  0  0  0  0  0
  -27.5487  -18.7433   20.4125 C   0  0  0  0  0  0
  -27.7444  -24.4379   20.3415 C   0  0  0  0  0  0
  -29.9661  -17.8064   20.4313 C   0  0  0  0  0  0
  -28.9454  -19.0973   20.9510 C   0  0  0  0  0  0
  -28.1629  -21.7172   20.6098 N   0  0  0  0  0  0
  -29.1675  -20.6812   20.6415 N   0  0  0  0  0  0
  -29.7075  -16.2207   20.6303 N   0  0  0  0  0  0
  -31.4505  -12.8559   19.1512 H   0  0  0  0  0  0
  -30.4837  -11.7117   20.0379 H   0  0  0  0  0  0
  -29.8225  -11.7133   17.6292 H   0  0  0  0  0  0
  -29.5568  -13.4380   17.6534 H   0  0  0  0  0  0
  -27.9572  -11.2652   19.0169 H   0  0  0  0  0  0
  -27.3638  -12.4213   17.8542 H   0  0  0  0  0  0
  -27.5809  -14.2454   19.4239 H   0  0  0  0  0  0
  -28.7904  -12.3019   21.4521 H   0  0  0  0  0  0
  -28.3482  -13.9612   21.7888 H   0  0  0  0  0  0
  -25.2694   -9.5708   22.4802 H   0  0  0  0  0  0
  -23.9976   -7.4603   22.7446 H   0  0  0  0  0  0
  -21.0839   -8.8677   19.8897 H   0  0  0  0  0  0
  -22.3579  -10.9649   19.6164 H   0  0  0  0  0  0
  -21.1981   -7.6119   23.9644 H   0  0  0  0  0  0
  -21.1512   -6.0531   25.9043 H   0  0  0  0  0  0
  -22.0600   -2.7580   23.2844 H   0  0  0  0  0  0
  -22.4060  -11.9764   22.4848 H   0  0  0  0  0  0
  -21.0975  -13.1002   22.2756 H   0  0  0  0  0  0
  -24.6814  -15.8690   20.6119 H   0  0  0  0  0  0
  -26.2479  -15.6150   20.0353 H   0  0  0  0  0  0
  -26.7311  -32.5162   23.0978 H   0  0  0  0  0  0
  -24.9996  -33.9572   25.0177 H   0  0  0  0  0  0
  -22.7613  -31.2752   21.3802 H   0  0  0  0  0  0
  -23.3771  -35.9582   23.3291 H   0  0  0  0  0  0
  -24.3567  -36.8952   22.2055 H   0  0  0  0  0  0
  -23.7286  -37.6438   23.6741 H   0  0  0  0  0  0
  -26.1733  -31.4193   20.6200 H   0  0  0  0  0  0
  -26.8789  -30.7265   22.0531 H   0  0  0  0  0  0
  -28.0988  -28.6631   21.3382 H   0  0  0  0  0  0
  -25.8793  -25.8421   18.9287 H   0  0  0  0  0  0
  -23.9913  -27.3294   18.9108 H   0  0  0  0  0  0
  -23.8277  -30.5657   19.3936 H   0  0  0  0  0  0
  -22.7975  -29.2395   19.8465 H   0  0  0  0  0  0
  -25.1344  -36.1793   25.0744 H   0  0  0  0  0  0
  -20.9945  -28.3377   24.1308 H   0  0  0  0  0  0
  -20.5667  -26.2363   23.3626 H   0  0  0  0  0  0
  -21.6632  -26.7374   22.1230 H   0  0  0  0  0  0
  -19.6935  -25.6279   21.1251 H   0  0  0  0  0  0
  -19.6778  -27.3136   20.6661 H   0  0  0  0  0  0
  -17.4226  -26.6671   21.3969 H   0  0  0  0  0  0
  -18.0333  -26.0060   22.8992 H   0  0  0  0  0  0
  -19.8014  -30.7277   24.2161 H   0  0  0  0  0  0
  -17.5112  -31.6268   24.5179 H   0  0  0  0  0  0
  -15.5411  -30.2989   23.7768 H   0  0  0  0  0  0
  -15.8652  -28.0848   22.7090 H   0  0  0  0  0  0
  -24.6028  -30.6904   25.7844 H   0  0  0  0  0  0
  -24.8656  -32.2938   26.4598 H   0  0  0  0  0  0
  -25.7996  -30.9283   27.0381 H   0  0  0  0  0  0
  -26.3085  -29.6663   24.1401 H   0  0  0  0  0  0
  -27.3932  -29.7323   25.5083 H   0  0  0  0  0  0
  -27.9046  -30.4170   23.9840 H   0  0  0  0  0  0
  -27.2681  -33.3851   26.1790 H   0  0  0  0  0  0
  -28.4016  -32.6699   25.0454 H   0  0  0  0  0  0
  -28.0500  -31.8726   26.5709 H   0  0  0  0  0  0
  -28.2537  -38.0128   24.7526 H   0  0  0  0  0  0
  -28.1128  -36.2673   24.6225 H   0  0  0  0  0  0
  -27.2276  -37.1294   25.8825 H   0  0  0  0  0  0
  -20.9516  -29.8820   21.6759 H   0  0  0  0  0  0
  -26.0159  -38.2758   24.1492 H   0  0  0  0  0  0
  -30.8279  -23.5932   20.4202 H   0  0  0  0  0  0
  -31.2947  -20.9395   20.6493 H   0  0  0  0  0  0
  -28.6911  -17.9452   22.8064 H   0  0  0  0  0  0
  -28.1132  -19.6001   22.9369 H   0  0  0  0  0  0
  -29.8319  -19.2648   22.9526 H   0  0  0  0  0  0
  -27.3310  -17.6839   20.5355 H   0  0  0  0  0  0
  -27.4729  -18.9813   19.3541 H   0  0  0  0  0  0
  -26.7607  -19.2970   20.9260 H   0  0  0  0  0  0
  -27.0221  -24.4029   21.1650 H   0  0  0  0  0  0
  -27.1368  -24.2591   19.4559 H   0  0  0  0  0  0
  -30.9662  -17.9944   20.8149 H   0  0  0  0  0  0
  -30.0558  -17.9422   19.3530 H   0  0  0  0  0  0
  -28.7400  -15.9937   20.8070 H   0  0  0  0  0  0
  1 25  1  0  0  0
  1 30  2  0  0  0
  1 81  1  0  0  0
  2  3  1  0  0  0
  2 25  1  0  0  0
  2 82  1  0  0  0
  2 83  1  0  0  0
  3  4  1  0  0  0
  3 84  1  0  0  0
  3 85  1  0  0  0
  4  5  1  0  0  0
  4 86  1  0  0  0
  4 87  1  0  0  0
  5  6  1  0  0  0
  5 26  1  0  0  0
  5 88  1  0  0  0
  6 25  1  0  0  0
  6 89  1  0  0  0
  6 90  1  0  0  0
  7  8  2  0  0  0
  7 26  1  0  0  0
  7 29  1  0  0  0
  8  9  1  0  0  0
  8 22  1  0  0  0
  9 10  1  0  0  0
  9 27  2  0  0  0
 10 11  2  0  0  0
 10 15  1  0  0  0
 11 12  1  0  0  0
 11 91  1  0  0  0
 12 13  2  0  0  0
 12 92  1  0  0  0
 13 14  1  0  0  0
 13 31  1  0  0  0
 14 15  2  0  0  0
 14 93  1  0  0  0
 15 94  1  0  0  0
 16 17  2  0  0  0
 16 21  1  0  0  0
 16 31  1  0  0  0
 17 18  1  0  0  0
 17 95  1  0  0  0
 18 19  2  0  0  0
 18 96  1  0  0  0
 19 20  1  0  0  0
 19 24  1  0  0  0
 20 21  2  0  0  0
 20 97  1  0  0  0
 21 23  1  0  0  0
 22 28  1  0  0  0
 22 32  2  0  0  0
 26 27  1  0  0  0
 28 98  1  0  0  0
 28 99  1  0  0  0
 29100  1  0  0  0
 29101  1  0  0  0
 33 34  1  0  0  0
 33 66  1  0  0  0
 33 70  2  0  0  0
 34 36  1  0  0  0
 34 59  1  0  0  0
 34102  1  0  0  0
 35 44  2  0  0  0
 35 45  1  0  0  0
 35 68  1  0  0  0
 36 56  1  0  0  0
 36103  1  0  0  0
 37 39  1  0  0  0
 37 47  1  0  0  0
 37 66  1  0  0  0
 37104  1  0  0  0
 38 43  2  0  0  0
 38 46  1  0  0  0
 38 47  1  0  0  0
 39 64  1  0  0  0
 39 67  2  0  0  0
 40 52  1  0  0  0
 40 53  2  0  0  0
 40 58  1  0  0  0
 41105  1  0  0  0
 41106  1  0  0  0
 41107  1  0  0  0
 41 48  1  0  0  0
 42 43  1  0  0  0
 42 66  1  0  0  0
 42108  1  0  0  0
 42109  1  0  0  0
 43 44  1  0  0  0
 44110  1  0  0  0
 45 46  2  0  0  0
 45111  1  0  0  0
 46112  1  0  0  0
 47113  1  0  0  0
 47114  1  0  0  0
 48 56  1  0  0  0
 48 65  1  0  0  0
 48115  1  0  0  0
 49 50  1  0  0  0
 49 53  1  0  0  0
 49 64  1  0  0  0
 49116  1  0  0  0
 50 51  1  0  0  0
 50117  1  0  0  0
 50118  1  0  0  0
 51 52  1  0  0  0
 51119  1  0  0  0
 51120  1  0  0  0
 52121  1  0  0  0
 52122  1  0  0  0
 53 54  1  0  0  0
 54 55  2  0  0  0
 54123  1  0  0  0
 55 57  1  0  0  0
 55124  1  0  0  0
 56 69  2  0  0  0
 57 58  2  0  0  0
 57125  1  0  0  0
 58126  1  0  0  0
 59 60  1  0  0  0
 59 61  1  0  0  0
 59 62  1  0  0  0
 60127  1  0  0  0
 60128  1  0  0  0
 60129  1  0  0  0
 61130  1  0  0  0
 61131  1  0  0  0
 61132  1  0  0  0
 62133  1  0  0  0
 62134  1  0  0  0
 62135  1  0  0  0
 63 65  1  0  0  0
 63136  1  0  0  0
 63137  1  0  0  0
 63138  1  0  0  0
 64139  1  0  0  0
 65140  1  0  0  0
 68 76  1  0  0  0
 71 72  2  0  0  0
 71 73  1  0  0  0
 71141  1  0  0  0
 72 80  1  0  0  0
 72142  1  0  0  0
 73 76  1  0  0  0
 73 79  2  0  0  0
 74143  1  0  0  0
 74144  1  0  0  0
 74145  1  0  0  0
 74 78  1  0  0  0
 75 78  1  0  0  0
 75146  1  0  0  0
 75147  1  0  0  0
 75148  1  0  0  0
 76149  1  0  0  0
 76150  1  0  0  0
 77 78  1  0  0  0
 77 81  1  0  0  0
 77151  1  0  0  0
 77152  1  0  0  0
 78 80  1  0  0  0
 79 80  1  0  0  0
 81153  1  0  0  0
M  ISO  4   1 100  68 101  76 101  81 100
M  END
> <chiral flag>
0

> <version>
0

> <s_m_source_file>
/data/baiqing/PycharmProjects/Reinvent-master-3.2/result/LINK_invent/BTK/process_docking_weight1_custom_sum_contain_oxygen_bond_distance_aromatic_linkinvent_7_9_3/rearranged_h_0054.sdf

> <i_m_source_file_index>
63

> <r_mmod_Potential_Energy-OPLS-2005>
675.83203125

> <r_mmod_Stretch_Energy-OPLS-2005>
352.545806884766

> <r_mmod_Bend_Energy-OPLS-2005>
299.686401367188

> <r_mmod_Torsional_Energy-OPLS-2005>
258.596405029297

> <r_mmod_Improper_Torsional_Energy-OPLS-2005>
5.47379684448242

> <r_mmod_Van_der_Waal_Energy-OPLS-2005>
107.927947998047

> <r_mmod_Electrostatic_Energy-OPLS-2005>
-404.239562988281

> <r_mmod_Solvation_Energy-OPLS-2005>
-222.214569091797

> <b_mmod_Minimization_Converged-OPLS-2005>
0

> <r_mmod_RMS_Derivative-OPLS-2005>
7.95109510421753

$$$$
63
                    3D
 Structure written by MMmdl.
157165  0  0  1  0            999 V2000
  -30.6956  -14.5011   20.5704 C   0  0  0  0  0  0
  -30.4297  -12.3267   19.4265 C   0  0  0  0  0  0
  -29.5004  -12.5090   18.2090 C   0  0  0  0  0  0
  -28.0218  -12.3634   18.6212 C   0  0  0  0  0  0
  -27.6630  -13.2083   19.8731 C   0  0  2  0  0  0
  -28.7057  -13.0028   20.9955 C   0  0  0  0  0  0
  -25.2593  -13.8160   20.5671 C   0  0  0  0  0  0
  -24.1841  -13.0441   20.9169 C   0  0  0  0  0  0
  -24.6396  -11.6907   20.8727 C   0  0  0  0  0  0
  -23.9059  -10.4295   21.0402 C   0  0  0  0  0  0
  -24.3614   -9.4212   21.9180 C   0  0  0  0  0  0
  -23.6294   -8.2245   22.0750 C   0  0  0  0  0  0
  -22.4275   -8.0284   21.3542 C   0  0  0  0  0  0
  -21.9904   -9.0255   20.4643 C   0  0  0  0  0  0
  -22.7231  -10.2137   20.3051 C   0  0  0  0  0  0
  -21.6854   -6.0740   22.5279 C   0  0  0  0  0  0
  -21.4016   -6.5641   23.8214 C   0  0  0  0  0  0
  -21.3657   -5.6791   24.9174 C   0  0  0  0  0  0
  -21.6043   -4.3054   24.7223 C   0  0  0  0  0  0
  -21.8819   -3.8150   23.4342 C   0  0  0  0  0  0
  -21.9192   -4.6968   22.3400 C   0  0  0  0  0  0
  -22.7863  -13.5242   21.1839 C   0  0  0  0  0  0
  -22.1662   -4.2157   21.0977 F   0  0  0  0  0  0
  -21.5628   -3.4533   25.7734 F   0  0  0  0  0  0
  -30.0349  -13.3161   20.4428 N   0  0  0  0  0  0
  -26.3034  -12.9333   20.3353 N   0  0  0  0  0  0
  -25.9328  -11.6493   20.5755 N   0  0  0  0  0  0
  -22.0493  -12.8241   22.0395 N   0  0  0  0  0  0
  -25.4320  -15.1877   20.4078 N   0  0  0  0  0  0
  -31.8157  -14.6977   20.0938 O   0  0  0  0  0  0
  -21.6639   -6.8883   21.4241 O   0  0  0  0  0  0
  -22.3551  -14.5558   20.6701 O   0  0  0  0  0  0
  -24.6193  -31.8670   23.2110 C   0  0  0  0  0  0
  -25.9073  -32.4818   23.8405 C   0  0  1  0  0  0
  -27.2231  -27.3915   20.0886 C   0  0  0  0  0  0
  -25.5918  -33.8618   24.2328 N   0  0  0  0  0  0
  -23.4082  -30.4956   21.5529 C   0  0  2  0  0  0
  -24.8514  -28.9677   20.1116 C   0  0  0  0  0  0
  -22.7431  -29.4664   22.4967 C   0  0  0  0  0  0
  -18.0282  -28.1376   22.8494 C   0  0  0  0  0  0
  -24.1491  -36.7312   23.2636 C   0  0  0  0  0  0
  -25.9452  -30.8176   21.3751 C   0  0  0  0  0  0
  -26.0180  -29.4523   20.7156 C   0  0  0  0  0  0
  -27.2047  -28.6719   20.7050 C   0  0  0  0  0  0
  -26.0312  -26.9538   19.4556 C   0  0  0  0  0  0
  -24.8553  -27.7183   19.4791 C   0  0  0  0  0  0
  -23.6176  -29.8391   20.1649 C   0  0  0  0  0  0
  -25.4112  -36.3107   24.0334 C   0  0  1  0  0  0
  -20.5875  -28.3673   23.1301 C   0  0  2  0  0  0
  -20.6773  -26.9405   22.5408 C   0  0  0  0  0  0
  -19.5748  -26.6385   21.5211 C   0  0  0  0  0  0
  -18.1927  -26.7923   22.1625 C   0  0  0  0  0  0
  -19.1531  -28.8840   23.2897 C   0  0  0  0  0  0
  -18.9455  -30.1445   23.8910 C   0  0  0  0  0  0
  -17.6456  -30.6583   24.0563 C   0  0  0  0  0  0
  -25.9041  -34.9473   23.5124 C   0  0  0  0  0  0
  -16.5348  -29.9083   23.6326 C   0  0  0  0  0  0
  -16.7268  -28.6498   23.0352 C   0  0  0  0  0  0
  -26.4482  -31.6603   25.0746 C   0  0  0  0  0  0
  -25.3738  -31.3724   26.1487 C   0  0  0  0  0  0
  -27.0311  -30.3034   24.6153 C   0  0  0  0  0  0
  -27.6051  -32.4327   25.7510 C   0  0  0  0  0  0
  -27.5582  -37.1813   24.8464 C   0  0  0  0  0  0
  -21.4155  -29.3042   22.3705 N   0  0  0  0  0  0
  -26.4297  -37.3791   23.9405 N   0  0  0  0  0  0
  -24.6760  -31.0745   22.1036 N   0  0  0  0  0  0
  -23.4190  -28.8187   23.3005 O   0  0  0  0  0  0
  -28.3651  -26.5906   20.1296 O   0  0  0  0  0  0
  -26.5596  -34.8922   22.4682 O   0  0  0  0  0  0
  -23.5374  -32.1440   23.7479 O   0  0  0  0  0  0
  -28.9300  -20.2842   19.8742 C   0  0  0  0  0  0
  -29.8647  -19.2950   20.0923 C   0  0  0  0  0  0
  -30.8796  -21.3038   20.0958 C   0  0  0  0  0  0
  -31.9699  -22.3250   20.1207 C   0  0  0  0  0  0
  -29.7238  -17.7790   20.0270 C   0  0  0  0  0  0
  -29.2582  -24.1399   20.1309 C   0  0  0  0  0  0
  -28.9341  -22.7851   19.4156 C   0  0  0  0  0  0
  -30.3475  -16.9472   21.1843 C   0  0  0  0  0  0
  -28.1926  -25.2038   19.7336 C   0  0  0  0  0  0
  -29.5729  -21.5049   19.8491 N   0  0  0  0  0  0
  -31.0484  -19.9773   20.2560 N   0  3  0  0  0  0
  -29.9877  -15.5099   21.1199 N   0  0  0  0  0  0
  -31.4741  -12.4323   19.1260 H   0  0  0  0  0  0
  -30.3385  -11.3181   19.8318 H   0  0  0  0  0  0
  -29.7478  -11.7799   17.4361 H   0  0  0  0  0  0
  -29.6636  -13.4924   17.7648 H   0  0  0  0  0  0
  -27.8367  -11.3079   18.8226 H   0  0  0  0  0  0
  -27.3717  -12.6308   17.7874 H   0  0  0  0  0  0
  -27.7034  -14.2545   19.5689 H   0  0  0  0  0  0
  -28.6872  -11.9690   21.3444 H   0  0  0  0  0  0
  -28.4621  -13.6086   21.8691 H   0  0  0  0  0  0
  -25.2762   -9.5695   22.4750 H   0  0  0  0  0  0
  -24.0007   -7.4636   22.7466 H   0  0  0  0  0  0
  -21.0833   -8.8773   19.8947 H   0  0  0  0  0  0
  -22.3688  -10.9675   19.6159 H   0  0  0  0  0  0
  -21.2010   -7.6149   23.9725 H   0  0  0  0  0  0
  -21.1478   -6.0516   25.9079 H   0  0  0  0  0  0
  -22.0601   -2.7613   23.2837 H   0  0  0  0  0  0
  -22.4099  -11.9909   22.4801 H   0  0  0  0  0  0
  -21.1113  -13.1280   22.2596 H   0  0  0  0  0  0
  -24.6655  -15.8437   20.5127 H   0  0  0  0  0  0
  -26.2843  -15.6238   20.0806 H   0  0  0  0  0  0
  -26.7141  -32.5511   23.1162 H   0  0  0  0  0  0
  -25.0084  -33.9783   25.0484 H   0  0  0  0  0  0
  -22.6987  -31.3147   21.4175 H   0  0  0  0  0  0
  -23.3747  -35.9652   23.3307 H   0  0  0  0  0  0
  -24.3585  -36.8917   22.2048 H   0  0  0  0  0  0
  -23.7251  -37.6524   23.6644 H   0  0  0  0  0  0
  -26.0705  -31.5856   20.6106 H   0  0  0  0  0  0
  -26.8284  -30.8623   22.0005 H   0  0  0  0  0  0
  -28.0993  -29.0388   21.1885 H   0  0  0  0  0  0
  -25.9660  -26.0133   18.9299 H   0  0  0  0  0  0
  -23.9619  -27.3434   18.9988 H   0  0  0  0  0  0
  -23.7305  -30.6189   19.4107 H   0  0  0  0  0  0
  -22.7393  -29.2650   19.8637 H   0  0  0  0  0  0
  -25.1289  -36.1972   25.0827 H   0  0  0  0  0  0
  -20.9976  -28.3241   24.1417 H   0  0  0  0  0  0
  -20.5681  -26.2279   23.3599 H   0  0  0  0  0  0
  -21.6642  -26.7448   22.1196 H   0  0  0  0  0  0
  -19.6909  -25.6298   21.1233 H   0  0  0  0  0  0
  -19.6684  -27.3200   20.6745 H   0  0  0  0  0  0
  -17.4196  -26.6672   21.4028 H   0  0  0  0  0  0
  -18.0330  -26.0061   22.9018 H   0  0  0  0  0  0
  -19.7932  -30.7257   24.2285 H   0  0  0  0  0  0
  -17.5012  -31.6267   24.5158 H   0  0  0  0  0  0
  -15.5349  -30.2988   23.7643 H   0  0  0  0  0  0
  -15.8669  -28.0820   22.7062 H   0  0  0  0  0  0
  -24.5910  -30.7070   25.7828 H   0  0  0  0  0  0
  -24.8933  -32.2887   26.4928 H   0  0  0  0  0  0
  -25.8086  -30.8900   27.0250 H   0  0  0  0  0  0
  -26.2868  -29.6804   24.1178 H   0  0  0  0  0  0
  -27.4026  -29.7264   25.4632 H   0  0  0  0  0  0
  -27.8733  -30.4331   23.9352 H   0  0  0  0  0  0
  -27.2662  -33.3616   26.2107 H   0  0  0  0  0  0
  -28.3851  -32.6904   25.0334 H   0  0  0  0  0  0
  -28.0728  -31.8441   26.5412 H   0  0  0  0  0  0
  -28.2603  -38.0106   24.7503 H   0  0  0  0  0  0
  -28.1072  -36.2636   24.6299 H   0  0  0  0  0  0
  -27.2297  -37.1477   25.8867 H   0  0  0  0  0  0
  -20.9309  -29.8784   21.6949 H   0  0  0  0  0  0
  -26.0184  -38.2870   24.1396 H   0  0  0  0  0  0
  -27.8729  -20.1968   19.6594 H   0  0  0  0  0  0
  -31.9338  -22.8978   19.1945 H   0  0  0  0  0  0
  -32.9329  -21.8223   20.2037 H   0  0  0  0  0  0
  -31.8173  -22.9775   20.9797 H   0  0  0  0  0  0
  -30.1424  -17.4429   19.0777 H   0  0  0  0  0  0
  -28.6585  -17.5544   19.9712 H   0  0  0  0  0  0
  -30.2478  -24.4947   19.8464 H   0  0  0  0  0  0
  -29.2593  -24.0095   21.2138 H   0  0  0  0  0  0
  -29.1435  -22.8872   18.3501 H   0  0  0  0  0  0
  -27.8592  -22.6147   19.4838 H   0  0  0  0  0  0
  -29.9843  -17.3348   22.1370 H   0  0  0  0  0  0
  -31.4317  -17.0700   21.1983 H   0  0  0  0  0  0
  -27.2629  -24.8246   20.1607 H   0  0  0  0  0  0
  -28.0825  -25.1873   18.6477 H   0  0  0  0  0  0
  -31.9497  -19.5421   20.4171 H   0  0  0  0  0  0
  -29.0781  -15.2582   21.4769 H   0  0  0  0  0  0
  1 25  1  0  0  0
  1 30  2  0  0  0
  1 82  1  0  0  0
  2  3  1  0  0  0
  2 25  1  0  0  0
  2 83  1  0  0  0
  2 84  1  0  0  0
  3  4  1  0  0  0
  3 85  1  0  0  0
  3 86  1  0  0  0
  4  5  1  0  0  0
  4 87  1  0  0  0
  4 88  1  0  0  0
  5  6  1  0  0  0
  5 26  1  0  0  0
  5 89  1  0  0  0
  6 25  1  0  0  0
  6 90  1  0  0  0
  6 91  1  0  0  0
  7  8  2  0  0  0
  7 26  1  0  0  0
  7 29  1  0  0  0
  8  9  1  0  0  0
  8 22  1  0  0  0
  9 10  1  0  0  0
  9 27  2  0  0  0
 10 11  2  0  0  0
 10 15  1  0  0  0
 11 12  1  0  0  0
 11 92  1  0  0  0
 12 13  2  0  0  0
 12 93  1  0  0  0
 13 14  1  0  0  0
 13 31  1  0  0  0
 14 15  2  0  0  0
 14 94  1  0  0  0
 15 95  1  0  0  0
 16 17  2  0  0  0
 16 21  1  0  0  0
 16 31  1  0  0  0
 17 18  1  0  0  0
 17 96  1  0  0  0
 18 19  2  0  0  0
 18 97  1  0  0  0
 19 20  1  0  0  0
 19 24  1  0  0  0
 20 21  2  0  0  0
 20 98  1  0  0  0
 21 23  1  0  0  0
 22 28  1  0  0  0
 22 32  2  0  0  0
 26 27  1  0  0  0
 28 99  1  0  0  0
 28100  1  0  0  0
 29101  1  0  0  0
 29102  1  0  0  0
 33 34  1  0  0  0
 33 66  1  0  0  0
 33 70  2  0  0  0
 34 36  1  0  0  0
 34 59  1  0  0  0
 34103  1  0  0  0
 35 44  2  0  0  0
 35 45  1  0  0  0
 35 68  1  0  0  0
 36 56  1  0  0  0
 36104  1  0  0  0
 37 39  1  0  0  0
 37 47  1  0  0  0
 37 66  1  0  0  0
 37105  1  0  0  0
 38 43  2  0  0  0
 38 46  1  0  0  0
 38 47  1  0  0  0
 39 64  1  0  0  0
 39 67  2  0  0  0
 40 52  1  0  0  0
 40 53  2  0  0  0
 40 58  1  0  0  0
 41106  1  0  0  0
 41107  1  0  0  0
 41108  1  0  0  0
 41 48  1  0  0  0
 42 43  1  0  0  0
 42 66  1  0  0  0
 42109  1  0  0  0
 42110  1  0  0  0
 43 44  1  0  0  0
 44111  1  0  0  0
 45 46  2  0  0  0
 45112  1  0  0  0
 46113  1  0  0  0
 47114  1  0  0  0
 47115  1  0  0  0
 48 56  1  0  0  0
 48 65  1  0  0  0
 48116  1  0  0  0
 49 50  1  0  0  0
 49 53  1  0  0  0
 49 64  1  0  0  0
 49117  1  0  0  0
 50 51  1  0  0  0
 50118  1  0  0  0
 50119  1  0  0  0
 51 52  1  0  0  0
 51120  1  0  0  0
 51121  1  0  0  0
 52122  1  0  0  0
 52123  1  0  0  0
 53 54  1  0  0  0
 54 55  2  0  0  0
 54124  1  0  0  0
 55 57  1  0  0  0
 55125  1  0  0  0
 56 69  2  0  0  0
 57 58  2  0  0  0
 57126  1  0  0  0
 58127  1  0  0  0
 59 60  1  0  0  0
 59 61  1  0  0  0
 59 62  1  0  0  0
 60128  1  0  0  0
 60129  1  0  0  0
 60130  1  0  0  0
 61131  1  0  0  0
 61132  1  0  0  0
 61133  1  0  0  0
 62134  1  0  0  0
 62135  1  0  0  0
 62136  1  0  0  0
 63 65  1  0  0  0
 63137  1  0  0  0
 63138  1  0  0  0
 63139  1  0  0  0
 64140  1  0  0  0
 65141  1  0  0  0
 68 79  1  0  0  0
 71 72  2  0  0  0
 71 80  1  0  0  0
 71142  1  0  0  0
 72 75  1  0  0  0
 72 81  1  0  0  0
 73 74  1  0  0  0
 73 80  1  0  0  0
 73 81  2  0  0  0
 74143  1  0  0  0
 74144  1  0  0  0
 74145  1  0  0  0
 75 78  1  0  0  0
 75146  1  0  0  0
 75147  1  0  0  0
 76 77  1  0  0  0
 76 79  1  0  0  0
 76148  1  0  0  0
 76149  1  0  0  0
 77 80  1  0  0  0
 77150  1  0  0  0
 77151  1  0  0  0
 78 82  1  0  0  0
 78152  1  0  0  0
 78153  1  0  0  0
 79154  1  0  0  0
 79155  1  0  0  0
 81156  1  0  0  0
 82157  1  0  0  0
M  CHG  1  81   1
M  ISO  4   1 100  68 101  79 101  82 100
M  END
> <chiral flag>
0

> <version>
0

> <s_m_source_file>
/data/baiqing/PycharmProjects/Reinvent-master-3.2/result/LINK_invent/BTK/process_docking_weight1_custom_sum_contain_oxygen_bond_distance_aromatic_linkinvent_7_9_3/rearranged_h_0054.sdf

> <i_m_source_file_index>
64

> <r_mmod_Potential_Energy-OPLS-2005>
-117.817687988281

> <r_mmod_Stretch_Energy-OPLS-2005>
44.671257019043

> <r_mmod_Bend_Energy-OPLS-2005>
118.067962646484

> <r_mmod_Torsional_Energy-OPLS-2005>
207.275100708008

> <r_mmod_Improper_Torsional_Energy-OPLS-2005>
4.89104509353638

> <r_mmod_Van_der_Waal_Energy-OPLS-2005>
133.891311645508

> <r_mmod_Electrostatic_Energy-OPLS-2005>
-218.858383178711

> <r_mmod_Solvation_Energy-OPLS-2005>
-427.592559814453

> <b_mmod_Minimization_Converged-OPLS-2005>
0

> <r_mmod_RMS_Derivative-OPLS-2005>
0.773626148700714

$$$$
64
                    3D
 Structure written by MMmdl.
161169  0  0  1  0            999 V2000
  -31.6260  -15.0092   19.9154 C   0  0  0  0  0  0
  -30.5018  -12.8103   20.3165 C   0  0  0  0  0  0
  -29.1382  -11.7526   19.5921 C   0  0  0  0  0  0
  -27.5832  -12.3321   18.8584 C   0  0  0  0  0  0
  -27.0797  -14.1527   19.0980 C   0  0  2  0  0  0
  -28.9592  -15.6420   19.5693 C   0  0  0  0  0  0
  -24.9525  -14.1153   20.5489 C   0  0  0  0  0  0
  -24.0340  -13.2162   20.9705 C   0  0  0  0  0  0
  -24.6046  -11.9048   20.9243 C   0  0  0  0  0  0
  -23.9460  -10.5653   21.0515 C   0  0  0  0  0  0
  -24.4052   -9.5337   21.9146 C   0  0  0  0  0  0
  -23.6830   -8.3179   22.0733 C   0  0  0  0  0  0
  -22.4795   -8.0870   21.3529 C   0  0  0  0  0  0
  -22.0514   -9.0891   20.4668 C   0  0  0  0  0  0
  -22.7732  -10.2906   20.3094 C   0  0  0  0  0  0
  -21.7252   -6.0968   22.5181 C   0  0  0  0  0  0
  -21.4252   -6.5799   23.8124 C   0  0  0  0  0  0
  -21.3713   -5.6876   24.9058 C   0  0  0  0  0  0
  -21.6088   -4.3177   24.7086 C   0  0  0  0  0  0
  -21.8760   -3.8267   23.4226 C   0  0  0  0  0  0
  -21.9331   -4.7119   22.3286 C   0  0  0  0  0  0
  -22.6248  -13.5811   21.2569 C   0  0  0  0  0  0
  -22.1751   -4.2278   21.0893 F   0  0  0  0  0  0
  -21.5569   -3.4610   25.7626 F   0  0  0  0  0  0
  -30.4820  -14.6360   20.2862 N   0  0  0  0  0  0
  -26.0177  -13.4683   20.0933 N   0  0  0  0  0  0
  -25.8725  -12.1132   20.5700 N   0  0  0  0  0  0
  -21.9579  -12.8293   22.1112 N   0  0  0  0  0  0
  -24.9305  -15.4839   20.3535 N   0  0  0  0  0  0
  -32.6138  -14.7198   20.5256 O   0  0  0  0  0  0
  -21.7249   -6.9231   21.4180 O   0  0  0  0  0  0
  -22.1138  -14.5802   20.7370 O   0  0  0  0  0  0
  -24.7120  -31.7625   23.1373 C   0  0  0  0  0  0
  -25.9582  -32.4274   23.7994 C   0  0  1  0  0  0
  -26.9331  -26.2431   20.3803 C   0  0  0  0  0  0
  -25.6028  -33.8154   24.1809 N   0  0  0  0  0  0
  -23.5455  -30.3672   21.5038 C   0  0  2  0  0  0
  -24.9478  -28.6408   20.1282 C   0  0  0  0  0  0
  -22.7854  -29.4110   22.4646 C   0  0  0  0  0  0
  -18.0333  -28.1451   22.8420 C   0  0  0  0  0  0
  -24.1485  -36.7082   23.2654 C   0  0  0  0  0  0
  -26.1289  -30.3415   21.4748 C   0  0  0  0  0  0
  -26.1257  -28.8597   20.8494 C   0  0  0  0  0  0
  -27.1096  -27.6944   20.9276 C   0  0  0  0  0  0
  -25.8005  -26.3583   19.5333 C   0  0  0  0  0  0
  -24.8555  -27.4299   19.4246 C   0  0  0  0  0  0
  -23.8098  -29.6701   20.1351 C   0  0  0  0  0  0
  -25.4153  -36.2818   24.0263 C   0  0  1  0  0  0
  -20.5956  -28.3800   23.1098 C   0  0  2  0  0  0
  -20.6794  -26.9437   22.5409 C   0  0  0  0  0  0
  -19.5798  -26.6358   21.5221 C   0  0  0  0  0  0
  -18.1965  -26.7973   22.1597 C   0  0  0  0  0  0
  -19.1593  -28.8966   23.2728 C   0  0  0  0  0  0
  -18.9512  -30.1537   23.8795 C   0  0  0  0  0  0
  -17.6507  -30.6619   24.0550 C   0  0  0  0  0  0
  -25.9159  -34.9211   23.4897 C   0  0  0  0  0  0
  -16.5391  -29.9094   23.6360 C   0  0  0  0  0  0
  -16.7315  -28.6522   23.0356 C   0  0  0  0  0  0
  -26.4649  -31.6512   25.0800 C   0  0  0  0  0  0
  -25.3583  -31.3955   26.1310 C   0  0  0  0  0  0
  -27.0638  -30.2798   24.7042 C   0  0  0  0  0  0
  -27.6035  -32.4475   25.7589 C   0  0  0  0  0  0
  -27.5563  -37.1686   24.8445 C   0  0  0  0  0  0
  -21.4475  -29.2985   22.3375 N   0  0  0  0  0  0
  -26.4235  -37.3623   23.9433 N   0  0  0  0  0  0
  -24.8282  -30.8683   22.0887 N   0  0  0  0  0  0
  -23.4149  -28.7701   23.3093 O   0  0  0  0  0  0
  -27.6237  -24.7499   20.4857 O   0  0  0  0  0  0
  -26.5854  -34.8818   22.4552 O   0  0  0  0  0  0
  -23.6069  -32.0922   23.6100 O   0  0  0  0  0  0
  -26.7130  -20.4026   19.4195 C   0  0  0  0  0  0
  -26.4048  -19.0447   19.1212 C   0  0  0  0  0  0
  -27.3169  -20.8916   20.6020 C   0  0  0  0  0  0
  -27.4069  -17.9213   20.9841 C   0  0  0  0  0  0
  -25.6257  -18.6990   17.8576 C   0  0  0  0  0  0
  -28.7091  -14.1933   17.0902 C   0  0  0  0  0  0
  -27.1004  -22.9155   20.8633 C   0  0  0  0  0  0
  -27.6622  -15.9849   21.5792 C   0  0  0  0  0  0
  -31.6462  -15.1017   18.4228 C   0  0  0  0  0  0
  -28.4172  -13.9698   20.8873 C   0  0  0  0  0  0
  -30.8045  -13.8898   17.9091 C   0  0  0  0  0  0
  -26.7236  -17.9165   19.8384 N   0  0  0  0  0  0
  -27.6228  -19.4699   21.3445 N   0  0  0  0  0  0
  -29.3388  -13.7911   18.4709 N   0  3  1  0  0  0
  -31.4782  -12.4124   20.0187 H   0  0  0  0  0  0
  -30.5707  -12.5245   21.3657 H   0  0  0  0  0  0
  -28.8231  -11.0705   20.3839 H   0  0  0  0  0  0
  -29.5928  -11.1051   18.8422 H   0  0  0  0  0  0
  -26.8543  -11.5476   18.6705 H   0  0  0  0  0  0
  -27.7023  -12.2113   17.7848 H   0  0  0  0  0  0
  -26.4420  -14.6244   18.3658 H   0  0  0  0  0  0
  -29.0447  -16.6255   20.0063 H   0  0  0  0  0  0
  -29.2014  -16.1731   18.6572 H   0  0  0  0  0  0
  -25.2925   -9.6988   22.4958 H   0  0  0  0  0  0
  -24.0556   -7.5676   22.7642 H   0  0  0  0  0  0
  -21.1343   -8.9301   19.9018 H   0  0  0  0  0  0
  -22.3705  -11.0309   19.6308 H   0  0  0  0  0  0
  -21.2344   -7.6317   23.9538 H   0  0  0  0  0  0
  -21.1563   -6.0719   25.8916 H   0  0  0  0  0  0
  -22.0463   -2.7726   23.2682 H   0  0  0  0  0  0
  -22.3688  -12.0068   22.5353 H   0  0  0  0  0  0
  -20.9999  -13.0533   22.3241 H   0  0  0  0  0  0
  -25.6211  -16.0977   19.9282 H   0  0  0  0  0  0
  -24.0957  -16.0045   20.6002 H   0  0  0  0  0  0
  -26.7699  -32.4630   23.0710 H   0  0  0  0  0  0
  -25.0046  -33.9167   24.9874 H   0  0  0  0  0  0
  -22.8893  -31.2202   21.3041 H   0  0  0  0  0  0
  -23.3824  -35.9308   23.3126 H   0  0  0  0  0  0
  -24.3553  -36.8977   22.2099 H   0  0  0  0  0  0
  -23.7109  -37.6133   23.6890 H   0  0  0  0  0  0
  -26.3730  -31.0205   20.6566 H   0  0  0  0  0  0
  -26.9804  -30.4086   22.1455 H   0  0  0  0  0  0
  -27.9869  -27.8372   21.5464 H   0  0  0  0  0  0
  -25.5372  -25.4685   18.9742 H   0  0  0  0  0  0
  -23.9879  -27.2693   18.7916 H   0  0  0  0  0  0
  -24.0589  -30.4302   19.3913 H   0  0  0  0  0  0
  -22.8979  -29.1946   19.7698 H   0  0  0  0  0  0
  -25.1347  -36.1547   25.0738 H   0  0  0  0  0  0
  -21.0023  -28.3471   24.1244 H   0  0  0  0  0  0
  -20.5647  -26.2450   23.3694 H   0  0  0  0  0  0
  -21.6657  -26.7370   22.1247 H   0  0  0  0  0  0
  -19.6952  -25.6239   21.1334 H   0  0  0  0  0  0
  -19.6770  -27.3096   20.6699 H   0  0  0  0  0  0
  -17.4242  -26.6698   21.3983 H   0  0  0  0  0  0
  -18.0337  -26.0141   22.9020 H   0  0  0  0  0  0
  -19.7983  -30.7366   24.2127 H   0  0  0  0  0  0
  -17.5056  -31.6291   24.5176 H   0  0  0  0  0  0
  -15.5378  -30.2979   23.7773 H   0  0  0  0  0  0
  -15.8702  -28.0838   22.7128 H   0  0  0  0  0  0
  -24.5883  -30.7168   25.7620 H   0  0  0  0  0  0
  -24.8615  -32.3188   26.4296 H   0  0  0  0  0  0
  -25.7627  -30.9444   27.0378 H   0  0  0  0  0  0
  -26.3406  -29.6237   24.2186 H   0  0  0  0  0  0
  -27.4007  -29.7483   25.5959 H   0  0  0  0  0  0
  -27.9418  -30.3814   24.0662 H   0  0  0  0  0  0
  -27.2597  -33.3956   26.1723 H   0  0  0  0  0  0
  -28.4040  -32.6742   25.0542 H   0  0  0  0  0  0
  -28.0483  -31.8917   26.5843 H   0  0  0  0  0  0
  -28.2465  -38.0099   24.7633 H   0  0  0  0  0  0
  -28.1188  -36.2630   24.6107 H   0  0  0  0  0  0
  -27.2313  -37.1111   25.8851 H   0  0  0  0  0  0
  -20.9854  -29.8663   21.6402 H   0  0  0  0  0  0
  -26.0045  -38.2636   24.1535 H   0  0  0  0  0  0
  -26.3108  -21.1239   18.7122 H   0  0  0  0  0  0
  -24.9914  -19.5354   17.5606 H   0  0  0  0  0  0
  -24.9925  -17.8186   17.9943 H   0  0  0  0  0  0
  -26.3225  -18.4778   17.0493 H   0  0  0  0  0  0
  -29.0607  -13.5008   16.3364 H   0  0  0  0  0  0
  -29.0514  -15.1969   16.8303 H   0  0  0  0  0  0
  -27.6487  -14.1905   16.8674 H   0  0  0  0  0  0
  -26.7742  -22.9649   21.8970 H   0  0  0  0  0  0
  -26.1556  -22.9687   20.3224 H   0  0  0  0  0  0
  -26.7320  -15.7738   22.1195 H   0  0  0  0  0  0
  -28.3227  -16.1697   22.4261 H   0  0  0  0  0  0
  -31.2873  -16.0828   18.0983 H   0  0  0  0  0  0
  -32.6671  -15.0533   18.0440 H   0  0  0  0  0  0
  -29.0155  -13.8391   21.7880 H   0  0  0  0  0  0
  -27.9072  -13.1310   21.3007 H   0  0  0  0  0  0
  -30.9264  -13.9524   16.8259 H   0  0  0  0  0  0
  -31.3376  -12.9743   18.0417 H   0  0  0  0  0  0
  -29.3506  -14.7846   18.6583 H   0  0  0  0  0  0
  1 25  1  0  0  0
  1 30  2  0  0  0
  1 79  1  0  0  0
  2  3  1  0  0  0
  2 25  1  0  0  0
  2 85  1  0  0  0
  2 86  1  0  0  0
  3  4  1  0  0  0
  3 87  1  0  0  0
  3 88  1  0  0  0
  4  5  1  0  0  0
  4 89  1  0  0  0
  4 90  1  0  0  0
  5  6  1  0  0  0
  5 26  1  0  0  0
  5 91  1  0  0  0
  6 25  1  0  0  0
  6 92  1  0  0  0
  6 93  1  0  0  0
  7  8  2  0  0  0
  7 26  1  0  0  0
  7 29  1  0  0  0
  8  9  1  0  0  0
  8 22  1  0  0  0
  9 10  1  0  0  0
  9 27  2  0  0  0
 10 11  2  0  0  0
 10 15  1  0  0  0
 11 12  1  0  0  0
 11 94  1  0  0  0
 12 13  2  0  0  0
 12 95  1  0  0  0
 13 14  1  0  0  0
 13 31  1  0  0  0
 14 15  2  0  0  0
 14 96  1  0  0  0
 15 97  1  0  0  0
 16 17  2  0  0  0
 16 21  1  0  0  0
 16 31  1  0  0  0
 17 18  1  0  0  0
 17 98  1  0  0  0
 18 19  2  0  0  0
 18 99  1  0  0  0
 19 20  1  0  0  0
 19 24  1  0  0  0
 20 21  2  0  0  0
 20100  1  0  0  0
 21 23  1  0  0  0
 22 28  1  0  0  0
 22 32  2  0  0  0
 26 27  1  0  0  0
 28101  1  0  0  0
 28102  1  0  0  0
 29103  1  0  0  0
 29104  1  0  0  0
 33 34  1  0  0  0
 33 66  1  0  0  0
 33 70  2  0  0  0
 34 36  1  0  0  0
 34 59  1  0  0  0
 34105  1  0  0  0
 35 44  2  0  0  0
 35 45  1  0  0  0
 35 68  1  0  0  0
 36 56  1  0  0  0
 36106  1  0  0  0
 37 39  1  0  0  0
 37 47  1  0  0  0
 37 66  1  0  0  0
 37107  1  0  0  0
 38 43  2  0  0  0
 38 46  1  0  0  0
 38 47  1  0  0  0
 39 64  1  0  0  0
 39 67  2  0  0  0
 40 52  1  0  0  0
 40 53  2  0  0  0
 40 58  1  0  0  0
 41108  1  0  0  0
 41109  1  0  0  0
 41110  1  0  0  0
 41 48  1  0  0  0
 42 43  1  0  0  0
 42 66  1  0  0  0
 42111  1  0  0  0
 42112  1  0  0  0
 43 44  1  0  0  0
 44113  1  0  0  0
 45 46  2  0  0  0
 45114  1  0  0  0
 46115  1  0  0  0
 47116  1  0  0  0
 47117  1  0  0  0
 48 56  1  0  0  0
 48 65  1  0  0  0
 48118  1  0  0  0
 49 50  1  0  0  0
 49 53  1  0  0  0
 49 64  1  0  0  0
 49119  1  0  0  0
 50 51  1  0  0  0
 50120  1  0  0  0
 50121  1  0  0  0
 51 52  1  0  0  0
 51122  1  0  0  0
 51123  1  0  0  0
 52124  1  0  0  0
 52125  1  0  0  0
 53 54  1  0  0  0
 54 55  2  0  0  0
 54126  1  0  0  0
 55 57  1  0  0  0
 55127  1  0  0  0
 56 69  2  0  0  0
 57 58  2  0  0  0
 57128  1  0  0  0
 58129  1  0  0  0
 59 60  1  0  0  0
 59 61  1  0  0  0
 59 62  1  0  0  0
 60130  1  0  0  0
 60131  1  0  0  0
 60132  1  0  0  0
 61133  1  0  0  0
 61134  1  0  0  0
 61135  1  0  0  0
 62136  1  0  0  0
 62137  1  0  0  0
 62138  1  0  0  0
 63 65  1  0  0  0
 63139  1  0  0  0
 63140  1  0  0  0
 63141  1  0  0  0
 64142  1  0  0  0
 65143  1  0  0  0
 68 77  1  0  0  0
 71 72  2  0  0  0
 71 73  1  0  0  0
 71144  1  0  0  0
 72 75  1  0  0  0
 72 82  1  0  0  0
 73 77  1  0  0  0
 73 83  2  0  0  0
 74 78  1  0  0  0
 74 82  2  0  0  0
 74 83  1  0  0  0
 75145  1  0  0  0
 75146  1  0  0  0
 75147  1  0  0  0
 76148  1  0  0  0
 76149  1  0  0  0
 76150  1  0  0  0
 76 84  1  0  0  0
 77151  1  0  0  0
 77152  1  0  0  0
 78 80  1  0  0  0
 78153  1  0  0  0
 78154  1  0  0  0
 79 81  1  0  0  0
 79155  1  0  0  0
 79156  1  0  0  0
 80 84  1  0  0  0
 80157  1  0  0  0
 80158  1  0  0  0
 81 84  1  0  0  0
 81159  1  0  0  0
 81160  1  0  0  0
 84161  1  0  0  0
M  CHG  1  84   1
M  ISO  4   1 100  68 101  77 101  79 100
M  END
> <chiral flag>
0

> <version>
0

> <s_m_source_file>
/data/baiqing/PycharmProjects/Reinvent-master-3.2/result/LINK_invent/BTK/process_docking_weight1_custom_sum_contain_oxygen_bond_distance_aromatic_linkinvent_7_9_3/rearranged_h_0054.sdf

> <i_m_source_file_index>
65

> <r_mmod_Potential_Energy-OPLS-2005>
12534.3759765625

> <r_mmod_Stretch_Energy-OPLS-2005>
6315.537109375

> <r_mmod_Bend_Energy-OPLS-2005>
1493.52111816406

> <r_mmod_Torsional_Energy-OPLS-2005>
361.168365478516

> <r_mmod_Improper_Torsional_Energy-OPLS-2005>
34.7331504821777

> <r_mmod_Van_der_Waal_Energy-OPLS-2005>
2314.482421875

> <r_mmod_Electrostatic_Energy-OPLS-2005>
-666.451477050781

> <r_mmod_Solvation_Energy-OPLS-2005>
-446.240844726562

> <b_mmod_Minimization_Converged-OPLS-2005>
0

> <r_mmod_RMS_Derivative-OPLS-2005>
40.4164505004883

$$$$
65
                    3D
 Structure written by MMmdl.
157165  0  0  1  0            999 V2000
  -30.5422  -14.9676   20.4579 C   0  0  0  0  0  0
  -30.4382  -12.5996   19.5130 C   0  0  0  0  0  0
  -29.5261  -12.5485   18.2639 C   0  0  0  0  0  0
  -28.0562  -12.3312   18.6698 C   0  0  0  0  0  0
  -27.6327  -13.2488   19.8453 C   0  0  2  0  0  0
  -28.6714  -13.2472   20.9854 C   0  0  0  0  0  0
  -25.2480  -13.8217   20.5730 C   0  0  0  0  0  0
  -24.1792  -13.0443   20.9236 C   0  0  0  0  0  0
  -24.6398  -11.6925   20.8738 C   0  0  0  0  0  0
  -23.9075  -10.4292   21.0390 C   0  0  0  0  0  0
  -24.3623   -9.4212   21.9173 C   0  0  0  0  0  0
  -23.6298   -8.2248   22.0754 C   0  0  0  0  0  0
  -22.4279   -8.0280   21.3549 C   0  0  0  0  0  0
  -21.9914   -9.0250   20.4650 C   0  0  0  0  0  0
  -22.7239  -10.2129   20.3049 C   0  0  0  0  0  0
  -21.6864   -6.0728   22.5275 C   0  0  0  0  0  0
  -21.4014   -6.5631   23.8207 C   0  0  0  0  0  0
  -21.3663   -5.6786   24.9172 C   0  0  0  0  0  0
  -21.6053   -4.3052   24.7224 C   0  0  0  0  0  0
  -21.8823   -3.8139   23.4347 C   0  0  0  0  0  0
  -21.9196   -4.6953   22.3401 C   0  0  0  0  0  0
  -22.7813  -13.5221   21.1883 C   0  0  0  0  0  0
  -22.1667   -4.2136   21.0980 F   0  0  0  0  0  0
  -21.5627   -3.4540   25.7738 F   0  0  0  0  0  0
  -29.9501  -13.6942   20.4103 N   0  0  0  0  0  0
  -26.2895  -12.9447   20.3246 N   0  0  0  0  0  0
  -25.9328  -11.6578   20.5717 N   0  0  0  0  0  0
  -22.0455  -12.8211   22.0427 N   0  0  0  0  0  0
  -25.4164  -15.1946   20.4176 N   0  0  0  0  0  0
  -31.6890  -15.0513   20.0029 O   0  0  0  0  0  0
  -21.6649   -6.8874   21.4238 O   0  0  0  0  0  0
  -22.3501  -14.5515   20.6711 O   0  0  0  0  0  0
  -24.6462  -31.8394   23.1826 C   0  0  0  0  0  0
  -25.9221  -32.4664   23.8232 C   0  0  1  0  0  0
  -27.2230  -27.1038   20.1532 C   0  0  0  0  0  0
  -25.5955  -33.8473   24.2151 N   0  0  0  0  0  0
  -23.4521  -30.4569   21.5270 C   0  0  2  0  0  0
  -24.9051  -28.8766   20.1048 C   0  0  0  0  0  0
  -22.7581  -29.4524   22.4819 C   0  0  0  0  0  0
  -18.0311  -28.1391   22.8475 C   0  0  0  0  0  0
  -24.1492  -36.7244   23.2640 C   0  0  0  0  0  0
  -26.0098  -30.7012   21.3883 C   0  0  0  0  0  0
  -26.0806  -29.3086   20.7316 C   0  0  0  0  0  0
  -27.2372  -28.4369   20.7413 C   0  0  0  0  0  0
  -26.0262  -26.7863   19.4726 C   0  0  0  0  0  0
  -24.8933  -27.6308   19.4578 C   0  0  0  0  0  0
  -23.6814  -29.7812   20.1477 C   0  0  0  0  0  0
  -25.4125  -36.3009   24.0308 C   0  0  1  0  0  0
  -20.5927  -28.3720   23.1220 C   0  0  2  0  0  0
  -20.6793  -26.9415   22.5397 C   0  0  0  0  0  0
  -19.5767  -26.6377   21.5205 C   0  0  0  0  0  0
  -18.1953  -26.7928   22.1622 C   0  0  0  0  0  0
  -19.1570  -28.8875   23.2840 C   0  0  0  0  0  0
  -18.9482  -30.1472   23.8865 C   0  0  0  0  0  0
  -17.6477  -30.6586   24.0557 C   0  0  0  0  0  0
  -25.9079  -34.9390   23.5039 C   0  0  0  0  0  0
  -16.5370  -29.9074   23.6335 C   0  0  0  0  0  0
  -16.7296  -28.6496   23.0355 C   0  0  0  0  0  0
  -26.4539  -31.6544   25.0685 C   0  0  0  0  0  0
  -25.3720  -31.3745   26.1375 C   0  0  0  0  0  0
  -27.0405  -30.2933   24.6293 C   0  0  0  0  0  0
  -27.6054  -32.4317   25.7480 C   0  0  0  0  0  0
  -27.5574  -37.1779   24.8461 C   0  0  0  0  0  0
  -21.4270  -29.3038   22.3581 N   0  0  0  0  0  0
  -26.4278  -37.3733   23.9412 N   0  0  0  0  0  0
  -24.7221  -31.0225   22.0868 N   0  0  0  0  0  0
  -23.4218  -28.8087   23.2989 O   0  0  0  0  0  0
  -28.2697  -26.1034   20.2488 O   0  0  0  0  0  0
  -26.5666  -34.8896   22.4617 O   0  0  0  0  0  0
  -23.5575  -32.1277   23.7034 O   0  0  0  0  0  0
  -27.6553  -20.5848   21.7513 C   0  0  0  0  0  0
  -27.2898  -19.4337   22.3794 C   0  0  0  0  0  0
  -28.9382  -18.8939   20.9163 C   0  0  0  0  0  0
  -26.2841  -19.1692   23.4509 C   0  0  0  0  0  0
  -29.6229  -16.1141   22.3386 C   0  0  0  0  0  0
  -29.8819  -17.6667   20.3173 C   0  0  0  0  0  0
  -28.9328  -23.2353   20.5574 C   0  0  0  0  0  0
  -29.0541  -21.6130   19.9911 C   0  0  0  0  0  0
  -28.0774  -24.5721   19.9362 C   0  0  0  0  0  0
  -28.6566  -20.3188   20.8444 N   0  0  0  0  0  0
  -28.0475  -18.4556   21.8142 N   0  3  0  0  0  0
  -29.8338  -16.1488   20.8806 N   0  0  0  0  0  0
  -31.4761  -12.7440   19.2100 H   0  0  0  0  0  0
  -30.4230  -11.6404   20.0337 H   0  0  0  0  0  0
  -29.8493  -11.7544   17.5894 H   0  0  0  0  0  0
  -29.6199  -13.4822   17.7072 H   0  0  0  0  0  0
  -27.9464  -11.2861   18.9621 H   0  0  0  0  0  0
  -27.3980  -12.4766   17.8122 H   0  0  0  0  0  0
  -27.6043  -14.2597   19.4373 H   0  0  0  0  0  0
  -28.7634  -12.2537   21.4262 H   0  0  0  0  0  0
  -28.3418  -13.8952   21.7937 H   0  0  0  0  0  0
  -25.2764   -9.5695   22.4754 H   0  0  0  0  0  0
  -24.0010   -7.4646   22.7481 H   0  0  0  0  0  0
  -21.0840   -8.8763   19.8966 H   0  0  0  0  0  0
  -22.3682  -10.9664   19.6165 H   0  0  0  0  0  0
  -21.1999   -7.6138   23.9703 H   0  0  0  0  0  0
  -21.1489   -6.0519   25.9075 H   0  0  0  0  0  0
  -22.0597   -2.7598   23.2851 H   0  0  0  0  0  0
  -22.4084  -11.9879   22.4811 H   0  0  0  0  0  0
  -21.1068  -13.1233   22.2621 H   0  0  0  0  0  0
  -24.6361  -15.8376   20.5002 H   0  0  0  0  0  0
  -26.2430  -15.6210   20.0208 H   0  0  0  0  0  0
  -26.7288  -32.5269   23.0959 H   0  0  0  0  0  0
  -25.0090  -33.9577   25.0293 H   0  0  0  0  0  0
  -22.7554  -31.2823   21.3682 H   0  0  0  0  0  0
  -23.3754  -35.9574   23.3274 H   0  0  0  0  0  0
  -24.3579  -36.8903   22.2059 H   0  0  0  0  0  0
  -23.7252  -37.6432   23.6698 H   0  0  0  0  0  0
  -26.1700  -31.4508   20.6127 H   0  0  0  0  0  0
  -26.8784  -30.7536   22.0325 H   0  0  0  0  0  0
  -28.1281  -28.7597   21.2623 H   0  0  0  0  0  0
  -25.9346  -25.8391   18.9623 H   0  0  0  0  0  0
  -24.0011  -27.2994   18.9443 H   0  0  0  0  0  0
  -23.8157  -30.5517   19.3874 H   0  0  0  0  0  0
  -22.7978  -29.2189   19.8413 H   0  0  0  0  0  0
  -25.1320  -36.1816   25.0800 H   0  0  0  0  0  0
  -21.0030  -28.3314   24.1335 H   0  0  0  0  0  0
  -20.5675  -26.2333   23.3621 H   0  0  0  0  0  0
  -21.6664  -26.7409   22.1209 H   0  0  0  0  0  0
  -19.6923  -25.6281   21.1247 H   0  0  0  0  0  0
  -19.6709  -27.3175   20.6725 H   0  0  0  0  0  0
  -17.4221  -26.6668   21.4023 H   0  0  0  0  0  0
  -18.0358  -26.0074   22.9026 H   0  0  0  0  0  0
  -19.7962  -30.7299   24.2217 H   0  0  0  0  0  0
  -17.5031  -31.6263   24.5163 H   0  0  0  0  0  0
  -15.5368  -30.2965   23.7676 H   0  0  0  0  0  0
  -15.8699  -28.0804   22.7076 H   0  0  0  0  0  0
  -24.5903  -30.7088   25.7701 H   0  0  0  0  0  0
  -24.8909  -32.2931   26.4740 H   0  0  0  0  0  0
  -25.8000  -30.8957   27.0191 H   0  0  0  0  0  0
  -26.3027  -29.6650   24.1292 H   0  0  0  0  0  0
  -27.3991  -29.7240   25.4881 H   0  0  0  0  0  0
  -27.8948  -30.4146   23.9630 H   0  0  0  0  0  0
  -27.2630  -33.3633   26.1999 H   0  0  0  0  0  0
  -28.3905  -32.6856   25.0343 H   0  0  0  0  0  0
  -28.0683  -31.8482   26.5449 H   0  0  0  0  0  0
  -28.2567  -38.0098   24.7523 H   0  0  0  0  0  0
  -28.1091  -36.2627   24.6264 H   0  0  0  0  0  0
  -27.2291  -37.1394   25.8861 H   0  0  0  0  0  0
  -20.9472  -29.8743   21.6757 H   0  0  0  0  0  0
  -26.0128  -38.2791   24.1424 H   0  0  0  0  0  0
  -27.2481  -21.5766   21.8884 H   0  0  0  0  0  0
  -25.3246  -18.8948   23.0140 H   0  0  0  0  0  0
  -26.1468  -20.0581   24.0662 H   0  0  0  0  0  0
  -26.6162  -18.3580   24.0986 H   0  0  0  0  0  0
  -28.5658  -16.0077   22.5802 H   0  0  0  0  0  0
  -30.0100  -17.0141   22.8173 H   0  0  0  0  0  0
  -30.1350  -15.2886   22.8409 H   0  0  0  0  0  0
  -30.9094  -18.0230   20.3934 H   0  0  0  0  0  0
  -29.6546  -17.6301   19.2518 H   0  0  0  0  0  0
  -29.9685  -23.5749   20.5382 H   0  0  0  0  0  0
  -28.7221  -23.2043   21.6254 H   0  0  0  0  0  0
  -30.0839  -21.4447   19.6743 H   0  0  0  0  0  0
  -28.4716  -21.5421   19.0724 H   0  0  0  0  0  0
  -27.0352  -24.3445   20.1556 H   0  0  0  0  0  0
  -28.1523  -24.5017   18.8507 H   0  0  0  0  0  0
  -27.9833  -17.4761   22.0658 H   0  0  0  0  0  0
  1 25  1  0  0  0
  1 30  2  0  0  0
  1 82  1  0  0  0
  2  3  1  0  0  0
  2 25  1  0  0  0
  2 83  1  0  0  0
  2 84  1  0  0  0
  3  4  1  0  0  0
  3 85  1  0  0  0
  3 86  1  0  0  0
  4  5  1  0  0  0
  4 87  1  0  0  0
  4 88  1  0  0  0
  5  6  1  0  0  0
  5 26  1  0  0  0
  5 89  1  0  0  0
  6 25  1  0  0  0
  6 90  1  0  0  0
  6 91  1  0  0  0
  7  8  2  0  0  0
  7 26  1  0  0  0
  7 29  1  0  0  0
  8  9  1  0  0  0
  8 22  1  0  0  0
  9 10  1  0  0  0
  9 27  2  0  0  0
 10 11  2  0  0  0
 10 15  1  0  0  0
 11 12  1  0  0  0
 11 92  1  0  0  0
 12 13  2  0  0  0
 12 93  1  0  0  0
 13 14  1  0  0  0
 13 31  1  0  0  0
 14 15  2  0  0  0
 14 94  1  0  0  0
 15 95  1  0  0  0
 16 17  2  0  0  0
 16 21  1  0  0  0
 16 31  1  0  0  0
 17 18  1  0  0  0
 17 96  1  0  0  0
 18 19  2  0  0  0
 18 97  1  0  0  0
 19 20  1  0  0  0
 19 24  1  0  0  0
 20 21  2  0  0  0
 20 98  1  0  0  0
 21 23  1  0  0  0
 22 28  1  0  0  0
 22 32  2  0  0  0
 26 27  1  0  0  0
 28 99  1  0  0  0
 28100  1  0  0  0
 29101  1  0  0  0
 29102  1  0  0  0
 33 34  1  0  0  0
 33 66  1  0  0  0
 33 70  2  0  0  0
 34 36  1  0  0  0
 34 59  1  0  0  0
 34103  1  0  0  0
 35 44  2  0  0  0
 35 45  1  0  0  0
 35 68  1  0  0  0
 36 56  1  0  0  0
 36104  1  0  0  0
 37 39  1  0  0  0
 37 47  1  0  0  0
 37 66  1  0  0  0
 37105  1  0  0  0
 38 43  2  0  0  0
 38 46  1  0  0  0
 38 47  1  0  0  0
 39 64  1  0  0  0
 39 67  2  0  0  0
 40 52  1  0  0  0
 40 53  2  0  0  0
 40 58  1  0  0  0
 41106  1  0  0  0
 41107  1  0  0  0
 41108  1  0  0  0
 41 48  1  0  0  0
 42 43  1  0  0  0
 42 66  1  0  0  0
 42109  1  0  0  0
 42110  1  0  0  0
 43 44  1  0  0  0
 44111  1  0  0  0
 45 46  2  0  0  0
 45112  1  0  0  0
 46113  1  0  0  0
 47114  1  0  0  0
 47115  1  0  0  0
 48 56  1  0  0  0
 48 65  1  0  0  0
 48116  1  0  0  0
 49 50  1  0  0  0
 49 53  1  0  0  0
 49 64  1  0  0  0
 49117  1  0  0  0
 50 51  1  0  0  0
 50118  1  0  0  0
 50119  1  0  0  0
 51 52  1  0  0  0
 51120  1  0  0  0
 51121  1  0  0  0
 52122  1  0  0  0
 52123  1  0  0  0
 53 54  1  0  0  0
 54 55  2  0  0  0
 54124  1  0  0  0
 55 57  1  0  0  0
 55125  1  0  0  0
 56 69  2  0  0  0
 57 58  2  0  0  0
 57126  1  0  0  0
 58127  1  0  0  0
 59 60  1  0  0  0
 59 61  1  0  0  0
 59 62  1  0  0  0
 60128  1  0  0  0
 60129  1  0  0  0
 60130  1  0  0  0
 61131  1  0  0  0
 61132  1  0  0  0
 61133  1  0  0  0
 62134  1  0  0  0
 62135  1  0  0  0
 62136  1  0  0  0
 63 65  1  0  0  0
 63137  1  0  0  0
 63138  1  0  0  0
 63139  1  0  0  0
 64140  1  0  0  0
 65141  1  0  0  0
 68 79  1  0  0  0
 71 72  2  0  0  0
 71 80  1  0  0  0
 71142  1  0  0  0
 72 74  1  0  0  0
 72 81  1  0  0  0
 73 76  1  0  0  0
 73 80  1  0  0  0
 73 81  2  0  0  0
 74143  1  0  0  0
 74144  1  0  0  0
 74145  1  0  0  0
 75 82  1  0  0  0
 75146  1  0  0  0
 75147  1  0  0  0
 75148  1  0  0  0
 76 82  1  0  0  0
 76149  1  0  0  0
 76150  1  0  0  0
 77 78  1  0  0  0
 77 79  1  0  0  0
 77151  1  0  0  0
 77152  1  0  0  0
 78 80  1  0  0  0
 78153  1  0  0  0
 78154  1  0  0  0
 79155  1  0  0  0
 79156  1  0  0  0
 81157  1  0  0  0
M  CHG  1  81   1
M  ISO  4   1 100  68 101  79 101  82 100
M  END
> <chiral flag>
0

> <version>
0

> <s_m_source_file>
/data/baiqing/PycharmProjects/Reinvent-master-3.2/result/LINK_invent/BTK/process_docking_weight1_custom_sum_contain_oxygen_bond_distance_aromatic_linkinvent_7_9_3/rearranged_h_0054.sdf

> <i_m_source_file_index>
66

> <r_mmod_Potential_Energy-OPLS-2005>
732.221130371094

> <r_mmod_Stretch_Energy-OPLS-2005>
339.676666259766

> <r_mmod_Bend_Energy-OPLS-2005>
351.302520751953

> <r_mmod_Torsional_Energy-OPLS-2005>
280.293823242188

> <r_mmod_Improper_Torsional_Energy-OPLS-2005>
6.14555072784424

> <r_mmod_Van_der_Waal_Energy-OPLS-2005>
123.534843444824

> <r_mmod_Electrostatic_Energy-OPLS-2005>
-164.594009399414

> <r_mmod_Solvation_Energy-OPLS-2005>
-414.463043212891

> <b_mmod_Minimization_Converged-OPLS-2005>
0

> <r_mmod_RMS_Derivative-OPLS-2005>
1.38557088375092

$$$$
66
                    3D
 Structure written by MMmdl.
157165  0  0  1  0            999 V2000
  -30.5329  -14.9090   20.5799 C   0  0  0  0  0  0
  -30.4217  -12.5791   19.5292 C   0  0  0  0  0  0
  -29.5272  -12.5737   18.2655 C   0  0  0  0  0  0
  -28.0410  -12.3725   18.6294 C   0  0  0  0  0  0
  -27.6137  -13.2569   19.8281 C   0  0  2  0  0  0
  -28.6261  -13.2147   20.9833 C   0  0  0  0  0  0
  -25.2345  -13.8279   20.5651 C   0  0  0  0  0  0
  -24.1707  -13.0451   20.9210 C   0  0  0  0  0  0
  -24.6353  -11.6939   20.8693 C   0  0  0  0  0  0
  -23.9064  -10.4288   21.0360 C   0  0  0  0  0  0
  -24.3612   -9.4223   21.9157 C   0  0  0  0  0  0
  -23.6298   -8.2247   22.0754 C   0  0  0  0  0  0
  -22.4265   -8.0274   21.3563 C   0  0  0  0  0  0
  -21.9901   -9.0240   20.4651 C   0  0  0  0  0  0
  -22.7225  -10.2121   20.3027 C   0  0  0  0  0  0
  -21.6876   -6.0743   22.5303 C   0  0  0  0  0  0
  -21.4046   -6.5661   23.8244 C   0  0  0  0  0  0
  -21.3671   -5.6802   24.9206 C   0  0  0  0  0  0
  -21.6008   -4.3057   24.7242 C   0  0  0  0  0  0
  -21.8825   -3.8165   23.4369 C   0  0  0  0  0  0
  -21.9208   -4.6973   22.3420 C   0  0  0  0  0  0
  -22.7722  -13.5196   21.1921 C   0  0  0  0  0  0
  -22.1630   -4.2151   21.0984 F   0  0  0  0  0  0
  -21.5624   -3.4525   25.7754 F   0  0  0  0  0  0
  -29.9340  -13.6453   20.4624 N   0  0  0  0  0  0
  -26.2725  -12.9507   20.3037 N   0  0  0  0  0  0
  -25.9256  -11.6638   20.5575 N   0  0  0  0  0  0
  -22.0403  -12.8194   22.0511 N   0  0  0  0  0  0
  -25.4097  -15.2019   20.4179 N   0  0  0  0  0  0
  -31.6582  -15.0345   20.0822 O   0  0  0  0  0  0
  -21.6666   -6.8854   21.4239 O   0  0  0  0  0  0
  -22.3343  -14.5464   20.6746 O   0  0  0  0  0  0
  -24.6365  -31.8438   23.1936 C   0  0  0  0  0  0
  -25.9148  -32.4687   23.8315 C   0  0  1  0  0  0
  -27.1959  -27.1630   20.1476 C   0  0  0  0  0  0
  -25.5929  -33.8512   24.2204 N   0  0  0  0  0  0
  -23.4377  -30.4739   21.5331 C   0  0  2  0  0  0
  -24.8845  -28.9134   20.1007 C   0  0  0  0  0  0
  -22.7531  -29.4553   22.4793 C   0  0  0  0  0  0
  -18.0285  -28.1440   22.8457 C   0  0  0  0  0  0
  -24.1472  -36.7319   23.2645 C   0  0  0  0  0  0
  -25.9901  -30.7291   21.3860 C   0  0  0  0  0  0
  -26.0554  -29.3405   20.7384 C   0  0  0  0  0  0
  -27.2041  -28.4748   20.7625 C   0  0  0  0  0  0
  -26.0153  -26.8441   19.4399 C   0  0  0  0  0  0
  -24.8742  -27.6756   19.4408 C   0  0  0  0  0  0
  -23.6612  -29.8140   20.1465 C   0  0  0  0  0  0
  -25.4100  -36.3034   24.0274 C   0  0  1  0  0  0
  -20.5913  -28.3715   23.1254 C   0  0  2  0  0  0
  -20.6789  -26.9420   22.5421 C   0  0  0  0  0  0
  -19.5766  -26.6370   21.5245 C   0  0  0  0  0  0
  -18.1926  -26.7991   22.1620 C   0  0  0  0  0  0
  -19.1552  -28.8880   23.2871 C   0  0  0  0  0  0
  -18.9496  -30.1502   23.8873 C   0  0  0  0  0  0
  -17.6491  -30.6615   24.0562 C   0  0  0  0  0  0
  -25.9048  -34.9401   23.5013 C   0  0  0  0  0  0
  -16.5373  -29.9112   23.6342 C   0  0  0  0  0  0
  -16.7273  -28.6546   23.0323 C   0  0  0  0  0  0
  -26.4534  -31.6588   25.0754 C   0  0  0  0  0  0
  -25.3750  -31.3818   26.1466 C   0  0  0  0  0  0
  -27.0405  -30.2993   24.6311 C   0  0  0  0  0  0
  -27.6033  -32.4381   25.7576 C   0  0  0  0  0  0
  -27.5546  -37.1810   24.8444 C   0  0  0  0  0  0
  -21.4207  -29.3095   22.3619 N   0  0  0  0  0  0
  -26.4256  -37.3745   23.9390 N   0  0  0  0  0  0
  -24.7082  -31.0356   22.0926 N   0  0  0  0  0  0
  -23.4212  -28.8053   23.2877 O   0  0  0  0  0  0
  -28.2450  -26.1867   20.2546 O   0  0  0  0  0  0
  -26.5615  -34.8858   22.4609 O   0  0  0  0  0  0
  -23.5481  -32.1277   23.7169 O   0  0  0  0  0  0
  -28.0574  -19.2939   20.4573 C   0  0  0  0  0  0
  -30.5933  -18.5040   20.7276 C   0  0  0  0  0  0
  -29.0358  -20.3391   20.4061 C   0  0  0  0  0  0
  -29.6063  -17.4475   20.7807 C   0  0  0  0  0  0
  -30.8898  -16.2948   23.5531 C   0  0  0  0  0  0
  -28.3747  -16.3491   23.2748 C   0  0  0  0  0  0
  -28.6369  -21.8506   19.8793 C   0  0  0  0  0  0
  -28.7835  -23.3539   20.5872 C   0  0  0  0  0  0
  -28.0169  -24.6915   19.9376 C   0  0  0  0  0  0
  -29.7030  -15.7956   22.7082 C   0  0  0  0  0  0
  -30.3313  -19.8745   20.5289 N   0  0  0  0  0  0
  -28.3269  -17.9397   20.6257 N   0  0  0  0  0  0
  -29.8812  -16.0056   21.2359 N   0  0  0  0  0  0
  -31.4615  -12.7281   19.2428 H   0  0  0  0  0  0
  -30.3950  -11.6000   20.0110 H   0  0  0  0  0  0
  -29.8482  -11.7947   17.5699 H   0  0  0  0  0  0
  -29.6492  -13.5274   17.7482 H   0  0  0  0  0  0
  -27.8812  -11.3190   18.8635 H   0  0  0  0  0  0
  -27.4186  -12.5910   17.7596 H   0  0  0  0  0  0
  -27.5907  -14.2795   19.4497 H   0  0  0  0  0  0
  -28.6754  -12.2174   21.4201 H   0  0  0  0  0  0
  -28.2321  -13.8530   21.7666 H   0  0  0  0  0  0
  -25.2742   -9.5744   22.4749 H   0  0  0  0  0  0
  -24.0055   -7.4656   22.7488 H   0  0  0  0  0  0
  -21.0838   -8.8720   19.8955 H   0  0  0  0  0  0
  -22.3644  -10.9650   19.6136 H   0  0  0  0  0  0
  -21.2019   -7.6173   23.9749 H   0  0  0  0  0  0
  -21.1486   -6.0532   25.9112 H   0  0  0  0  0  0
  -22.0587   -2.7624   23.2875 H   0  0  0  0  0  0
  -22.4001  -11.9824   22.4882 H   0  0  0  0  0  0
  -21.1024  -13.1239   22.2713 H   0  0  0  0  0  0
  -24.6658  -15.8686   20.5887 H   0  0  0  0  0  0
  -26.2793  -15.6509   20.1497 H   0  0  0  0  0  0
  -26.7181  -32.5269   23.1017 H   0  0  0  0  0  0
  -25.0133  -33.9719   25.0360 H   0  0  0  0  0  0
  -22.7370  -31.2984   21.3826 H   0  0  0  0  0  0
  -23.3684  -35.9710   23.3291 H   0  0  0  0  0  0
  -24.3610  -36.8979   22.2079 H   0  0  0  0  0  0
  -23.7255  -37.6510   23.6733 H   0  0  0  0  0  0
  -26.1341  -31.4721   20.6018 H   0  0  0  0  0  0
  -26.8692  -30.7816   22.0169 H   0  0  0  0  0  0
  -28.0784  -28.7820   21.3239 H   0  0  0  0  0  0
  -25.9338  -25.9193   18.8900 H   0  0  0  0  0  0
  -23.9803  -27.3566   18.9249 H   0  0  0  0  0  0
  -23.8033  -30.5949   19.3983 H   0  0  0  0  0  0
  -22.7748  -29.2649   19.8256 H   0  0  0  0  0  0
  -25.1293  -36.1849   25.0756 H   0  0  0  0  0  0
  -21.0021  -28.3307   24.1370 H   0  0  0  0  0  0
  -20.5747  -26.2315   23.3630 H   0  0  0  0  0  0
  -21.6630  -26.7431   22.1197 H   0  0  0  0  0  0
  -19.6933  -25.6280   21.1281 H   0  0  0  0  0  0
  -19.6774  -27.3147   20.6771 H   0  0  0  0  0  0
  -17.4233  -26.6704   21.4004 H   0  0  0  0  0  0
  -18.0295  -26.0198   22.9070 H   0  0  0  0  0  0
  -19.7982  -30.7319   24.2220 H   0  0  0  0  0  0
  -17.5053  -31.6298   24.5174 H   0  0  0  0  0  0
  -15.5397  -30.3005   23.7733 H   0  0  0  0  0  0
  -15.8663  -28.0888   22.7035 H   0  0  0  0  0  0
  -24.5882  -30.7189   25.7857 H   0  0  0  0  0  0
  -24.9031  -32.3036   26.4859 H   0  0  0  0  0  0
  -25.8053  -30.9039   27.0259 H   0  0  0  0  0  0
  -26.3013  -29.6731   24.1303 H   0  0  0  0  0  0
  -27.4013  -29.7281   25.4878 H   0  0  0  0  0  0
  -27.8910  -30.4272   23.9623 H   0  0  0  0  0  0
  -27.2568  -33.3664   26.2133 H   0  0  0  0  0  0
  -28.3921  -32.6947   25.0500 H   0  0  0  0  0  0
  -28.0618  -31.8521   26.5543 H   0  0  0  0  0  0
  -28.2515  -38.0154   24.7462 H   0  0  0  0  0  0
  -28.1058  -36.2639   24.6257 H   0  0  0  0  0  0
  -27.2294  -37.1471   25.8867 H   0  0  0  0  0  0
  -20.9331  -29.8885   21.6899 H   0  0  0  0  0  0
  -26.0078  -38.2778   24.1458 H   0  0  0  0  0  0
  -27.0176  -19.5405   20.3016 H   0  0  0  0  0  0
  -31.6329  -18.2579   20.8883 H   0  0  0  0  0  0
  -31.8460  -16.0832   23.0708 H   0  0  0  0  0  0
  -30.9010  -15.7837   24.5209 H   0  0  0  0  0  0
  -30.8314  -17.3661   23.7594 H   0  0  0  0  0  0
  -28.1236  -15.8847   24.2264 H   0  0  0  0  0  0
  -27.5349  -16.1548   22.6066 H   0  0  0  0  0  0
  -28.4190  -17.4250   23.4663 H   0  0  0  0  0  0
  -27.5747  -21.7655   19.6469 H   0  0  0  0  0  0
  -29.0991  -21.9359   18.8958 H   0  0  0  0  0  0
  -29.8466  -23.5831   20.6637 H   0  0  0  0  0  0
  -28.4407  -23.2757   21.6205 H   0  0  0  0  0  0
  -26.9587  -24.4811   20.1040 H   0  0  0  0  0  0
  -28.1503  -24.6184   18.8560 H   0  0  0  0  0  0
  -29.6993  -14.7277   22.9140 H   0  0  0  0  0  0
  1 25  1  0  0  0
  1 30  2  0  0  0
  1 83  1  0  0  0
  2  3  1  0  0  0
  2 25  1  0  0  0
  2 84  1  0  0  0
  2 85  1  0  0  0
  3  4  1  0  0  0
  3 86  1  0  0  0
  3 87  1  0  0  0
  4  5  1  0  0  0
  4 88  1  0  0  0
  4 89  1  0  0  0
  5  6  1  0  0  0
  5 26  1  0  0  0
  5 90  1  0  0  0
  6 25  1  0  0  0
  6 91  1  0  0  0
  6 92  1  0  0  0
  7  8  2  0  0  0
  7 26  1  0  0  0
  7 29  1  0  0  0
  8  9  1  0  0  0
  8 22  1  0  0  0
  9 10  1  0  0  0
  9 27  2  0  0  0
 10 11  2  0  0  0
 10 15  1  0  0  0
 11 12  1  0  0  0
 11 93  1  0  0  0
 12 13  2  0  0  0
 12 94  1  0  0  0
 13 14  1  0  0  0
 13 31  1  0  0  0
 14 15  2  0  0  0
 14 95  1  0  0  0
 15 96  1  0  0  0
 16 17  2  0  0  0
 16 21  1  0  0  0
 16 31  1  0  0  0
 17 18  1  0  0  0
 17 97  1  0  0  0
 18 19  2  0  0  0
 18 98  1  0  0  0
 19 20  1  0  0  0
 19 24  1  0  0  0
 20 21  2  0  0  0
 20 99  1  0  0  0
 21 23  1  0  0  0
 22 28  1  0  0  0
 22 32  2  0  0  0
 26 27  1  0  0  0
 28100  1  0  0  0
 28101  1  0  0  0
 29102  1  0  0  0
 29103  1  0  0  0
 33 34  1  0  0  0
 33 66  1  0  0  0
 33 70  2  0  0  0
 34 36  1  0  0  0
 34 59  1  0  0  0
 34104  1  0  0  0
 35 44  2  0  0  0
 35 45  1  0  0  0
 35 68  1  0  0  0
 36 56  1  0  0  0
 36105  1  0  0  0
 37 39  1  0  0  0
 37 47  1  0  0  0
 37 66  1  0  0  0
 37106  1  0  0  0
 38 43  2  0  0  0
 38 46  1  0  0  0
 38 47  1  0  0  0
 39 64  1  0  0  0
 39 67  2  0  0  0
 40 52  1  0  0  0
 40 53  2  0  0  0
 40 58  1  0  0  0
 41107  1  0  0  0
 41108  1  0  0  0
 41109  1  0  0  0
 41 48  1  0  0  0
 42 43  1  0  0  0
 42 66  1  0  0  0
 42110  1  0  0  0
 42111  1  0  0  0
 43 44  1  0  0  0
 44112  1  0  0  0
 45 46  2  0  0  0
 45113  1  0  0  0
 46114  1  0  0  0
 47115  1  0  0  0
 47116  1  0  0  0
 48 56  1  0  0  0
 48 65  1  0  0  0
 48117  1  0  0  0
 49 50  1  0  0  0
 49 53  1  0  0  0
 49 64  1  0  0  0
 49118  1  0  0  0
 50 51  1  0  0  0
 50119  1  0  0  0
 50120  1  0  0  0
 51 52  1  0  0  0
 51121  1  0  0  0
 51122  1  0  0  0
 52123  1  0  0  0
 52124  1  0  0  0
 53 54  1  0  0  0
 54 55  2  0  0  0
 54125  1  0  0  0
 55 57  1  0  0  0
 55126  1  0  0  0
 56 69  2  0  0  0
 57 58  2  0  0  0
 57127  1  0  0  0
 58128  1  0  0  0
 59 60  1  0  0  0
 59 61  1  0  0  0
 59 62  1  0  0  0
 60129  1  0  0  0
 60130  1  0  0  0
 60131  1  0  0  0
 61132  1  0  0  0
 61133  1  0  0  0
 61134  1  0  0  0
 62135  1  0  0  0
 62136  1  0  0  0
 62137  1  0  0  0
 63 65  1  0  0  0
 63138  1  0  0  0
 63139  1  0  0  0
 63140  1  0  0  0
 64141  1  0  0  0
 65142  1  0  0  0
 68 79  1  0  0  0
 71 73  2  0  0  0
 71 82  1  0  0  0
 71143  1  0  0  0
 72 74  1  0  0  0
 72 81  2  0  0  0
 72144  1  0  0  0
 73 77  1  0  0  0
 73 81  1  0  0  0
 74 82  2  0  0  0
 74 83  1  0  0  0
 75145  1  0  0  0
 75146  1  0  0  0
 75147  1  0  0  0
 75 80  1  0  0  0
 76 80  1  0  0  0
 76148  1  0  0  0
 76149  1  0  0  0
 76150  1  0  0  0
 77 78  1  0  0  0
 77151  1  0  0  0
 77152  1  0  0  0
 78 79  1  0  0  0
 78153  1  0  0  0
 78154  1  0  0  0
 79155  1  0  0  0
 79156  1  0  0  0
 80 83  1  0  0  0
 80157  1  0  0  0
M  ISO  4   1 100  68 101  79 101  83 100
M  END
> <chiral flag>
0

> <version>
0

> <s_m_source_file>
/data/baiqing/PycharmProjects/Reinvent-master-3.2/result/LINK_invent/BTK/process_docking_weight1_custom_sum_contain_oxygen_bond_distance_aromatic_linkinvent_7_9_3/rearranged_h_0054.sdf

> <i_m_source_file_index>
67

> <r_mmod_Potential_Energy-OPLS-2005>
710.204711914062

> <r_mmod_Stretch_Energy-OPLS-2005>
235.583999633789

> <r_mmod_Bend_Energy-OPLS-2005>
260.901519775391

> <r_mmod_Torsional_Energy-OPLS-2005>
304.827697753906

> <r_mmod_Improper_Torsional_Energy-OPLS-2005>
6.1008358001709

> <r_mmod_Van_der_Waal_Energy-OPLS-2005>
139.035400390625

> <r_mmod_Electrostatic_Energy-OPLS-2005>
-212.319351196289

> <r_mmod_Solvation_Energy-OPLS-2005>
-195.391311645508

> <b_mmod_Minimization_Converged-OPLS-2005>
0

> <r_mmod_RMS_Derivative-OPLS-2005>
7.05626821517944

$$$$
67
                    3D
 Structure written by MMmdl.
165173  0  0  1  0            999 V2000
  -30.7632  -14.3779   20.6852 C   0  0  0  0  0  0
  -30.4247  -12.3001   19.3978 C   0  0  0  0  0  0
  -29.4856  -12.5203   18.1960 C   0  0  0  0  0  0
  -28.0080  -12.3846   18.6101 C   0  0  0  0  0  0
  -27.6661  -13.2062   19.8795 C   0  0  2  0  0  0
  -28.7032  -12.9485   20.9939 C   0  0  0  0  0  0
  -25.2605  -13.8191   20.5678 C   0  0  0  0  0  0
  -24.1853  -13.0446   20.9179 C   0  0  0  0  0  0
  -24.6409  -11.6922   20.8735 C   0  0  0  0  0  0
  -23.9065  -10.4305   21.0417 C   0  0  0  0  0  0
  -24.3624   -9.4218   21.9180 C   0  0  0  0  0  0
  -23.6284   -8.2257   22.0765 C   0  0  0  0  0  0
  -22.4271   -8.0303   21.3544 C   0  0  0  0  0  0
  -21.9905   -9.0282   20.4648 C   0  0  0  0  0  0
  -22.7250  -10.2152   20.3045 C   0  0  0  0  0  0
  -21.6829   -6.0736   22.5282 C   0  0  0  0  0  0
  -21.4012   -6.5640   23.8224 C   0  0  0  0  0  0
  -21.3657   -5.6787   24.9179 C   0  0  0  0  0  0
  -21.6032   -4.3046   24.7221 C   0  0  0  0  0  0
  -21.8813   -3.8145   23.4344 C   0  0  0  0  0  0
  -21.9199   -4.6968   22.3403 C   0  0  0  0  0  0
  -22.7869  -13.5255   21.1835 C   0  0  0  0  0  0
  -22.1653   -4.2155   21.0972 F   0  0  0  0  0  0
  -21.5636   -3.4534   25.7736 F   0  0  0  0  0  0
  -30.0493  -13.2413   20.4641 N   0  0  0  0  0  0
  -26.3037  -12.9349   20.3357 N   0  0  0  0  0  0
  -25.9328  -11.6507   20.5730 N   0  0  0  0  0  0
  -22.0494  -12.8254   22.0406 N   0  0  0  0  0  0
  -25.4326  -15.1911   20.4107 N   0  0  0  0  0  0
  -31.7728  -14.6766   20.0376 O   0  0  0  0  0  0
  -21.6629   -6.8901   21.4249 O   0  0  0  0  0  0
  -22.3557  -14.5543   20.6681 O   0  0  0  0  0  0
  -24.6139  -31.8723   23.2084 C   0  0  0  0  0  0
  -25.9040  -32.4814   23.8372 C   0  0  1  0  0  0
  -27.2256  -27.4261   20.0920 C   0  0  0  0  0  0
  -25.5842  -33.8616   24.2303 N   0  0  0  0  0  0
  -23.4033  -30.4952   21.5534 C   0  0  2  0  0  0
  -24.8429  -28.9525   20.1323 C   0  0  0  0  0  0
  -22.7441  -29.4715   22.5042 C   0  0  0  0  0  0
  -18.0332  -28.1397   22.8491 C   0  0  0  0  0  0
  -24.1502  -36.7354   23.2631 C   0  0  0  0  0  0
  -25.9339  -30.8282   21.3696 C   0  0  0  0  0  0
  -26.0066  -29.4609   20.7201 C   0  0  0  0  0  0
  -27.2017  -28.7047   20.6974 C   0  0  0  0  0  0
  -26.0422  -26.9444   19.4882 C   0  0  0  0  0  0
  -24.8528  -27.6897   19.5188 C   0  0  0  0  0  0
  -23.6128  -29.8278   20.1706 C   0  0  0  0  0  0
  -25.4116  -36.3130   24.0310 C   0  0  1  0  0  0
  -20.5924  -28.3700   23.1314 C   0  0  2  0  0  0
  -20.6854  -26.9448   22.5404 C   0  0  0  0  0  0
  -19.5819  -26.6428   21.5205 C   0  0  0  0  0  0
  -18.1981  -26.7929   22.1626 C   0  0  0  0  0  0
  -19.1584  -28.8861   23.2889 C   0  0  0  0  0  0
  -18.9509  -30.1468   23.8908 C   0  0  0  0  0  0
  -17.6501  -30.6581   24.0586 C   0  0  0  0  0  0
  -25.9047  -34.9486   23.5145 C   0  0  0  0  0  0
  -16.5397  -29.9088   23.6317 C   0  0  0  0  0  0
  -16.7317  -28.6520   23.0307 C   0  0  0  0  0  0
  -26.4450  -31.6550   25.0681 C   0  0  0  0  0  0
  -25.3686  -31.3597   26.1398 C   0  0  0  0  0  0
  -27.0293  -30.2996   24.6035 C   0  0  0  0  0  0
  -27.6063  -32.4255   25.7428 C   0  0  0  0  0  0
  -27.5615  -37.1794   24.8449 C   0  0  0  0  0  0
  -21.4191  -29.3058   22.3712 N   0  0  0  0  0  0
  -26.4344  -37.3775   23.9369 N   0  0  0  0  0  0
  -24.6683  -31.0817   22.0992 N   0  0  0  0  0  0
  -23.4201  -28.8312   23.3136 O   0  0  0  0  0  0
  -28.4147  -26.7279   20.0347 O   0  0  0  0  0  0
  -26.5702  -34.8943   22.4769 O   0  0  0  0  0  0
  -23.5328  -32.1508   23.7450 O   0  0  0  0  0  0
  -28.9827  -22.2325   20.7761 C   0  0  0  0  0  0
  -28.4003  -22.8781   19.6458 C   0  0  0  0  0  0
  -29.1123  -20.9161   20.4096 C   0  0  0  0  0  0
  -28.5416  -19.6747   18.2278 C   0  0  0  0  0  0
  -30.5104  -14.9732   23.0125 C   0  0  0  0  0  0
  -27.5198  -19.3193   22.3829 C   0  0  0  0  0  0
  -27.9676  -24.3117   19.4278 C   0  0  0  0  0  0
  -29.6419  -19.7285   21.1786 C   0  0  0  0  0  0
  -30.0724  -16.6520   21.1926 C   0  0  0  0  0  0
  -29.0658  -17.4318   22.0816 C   0  0  0  0  0  0
  -28.4564  -25.3515   20.4649 C   0  0  0  0  0  0
  -28.1806  -22.0153   18.6659 N   0  0  0  0  0  0
  -28.6254  -20.8242   19.1168 N   0  0  0  0  0  0
  -30.2428  -15.2365   21.5898 N   0  0  0  0  0  0
  -28.5850  -18.7355   21.5273 N   0  3  1  0  0  0
  -31.4625  -12.4209   19.0806 H   0  0  0  0  0  0
  -30.3499  -11.2770   19.7665 H   0  0  0  0  0  0
  -29.7172  -11.8092   17.4002 H   0  0  0  0  0  0
  -29.6548  -13.5120   17.7730 H   0  0  0  0  0  0
  -27.8034  -11.3279   18.7805 H   0  0  0  0  0  0
  -27.3622  -12.6859   17.7834 H   0  0  0  0  0  0
  -27.7229  -14.2593   19.6022 H   0  0  0  0  0  0
  -28.6667  -11.9057   21.3109 H   0  0  0  0  0  0
  -28.4454  -13.5297   21.8792 H   0  0  0  0  0  0
  -25.2772   -9.5685   22.4750 H   0  0  0  0  0  0
  -23.9980   -7.4657   22.7503 H   0  0  0  0  0  0
  -21.0818   -8.8813   19.8967 H   0  0  0  0  0  0
  -22.3712  -10.9690   19.6147 H   0  0  0  0  0  0
  -21.1993   -7.6145   23.9724 H   0  0  0  0  0  0
  -21.1466   -6.0512   25.9081 H   0  0  0  0  0  0
  -22.0588   -2.7611   23.2837 H   0  0  0  0  0  0
  -22.4053  -11.9876   22.4762 H   0  0  0  0  0  0
  -21.1114  -13.1317   22.2607 H   0  0  0  0  0  0
  -24.6698  -15.8511   20.5215 H   0  0  0  0  0  0
  -26.2841  -15.6209   20.0759 H   0  0  0  0  0  0
  -26.7095  -32.5490   23.1114 H   0  0  0  0  0  0
  -24.9701  -33.9734   25.0238 H   0  0  0  0  0  0
  -22.6907  -31.3094   21.4103 H   0  0  0  0  0  0
  -23.3755  -35.9710   23.3301 H   0  0  0  0  0  0
  -24.3602  -36.8988   22.2063 H   0  0  0  0  0  0
  -23.7289  -37.6536   23.6705 H   0  0  0  0  0  0
  -26.0601  -31.5950   20.6024 H   0  0  0  0  0  0
  -26.8179  -30.8713   21.9949 H   0  0  0  0  0  0
  -28.1064  -29.1004   21.1362 H   0  0  0  0  0  0
  -26.0101  -26.0280   18.9279 H   0  0  0  0  0  0
  -23.9630  -27.2955   19.0461 H   0  0  0  0  0  0
  -23.7296  -30.6016   19.4080 H   0  0  0  0  0  0
  -22.7343  -29.2510   19.8760 H   0  0  0  0  0  0
  -25.1305  -36.2011   25.0801 H   0  0  0  0  0  0
  -20.9994  -28.3356   24.1449 H   0  0  0  0  0  0
  -20.5829  -26.2341   23.3619 H   0  0  0  0  0  0
  -21.6726  -26.7579   22.1164 H   0  0  0  0  0  0
  -19.7021  -25.6339   21.1237 H   0  0  0  0  0  0
  -19.6751  -27.3278   20.6757 H   0  0  0  0  0  0
  -17.4264  -26.6678   21.4014 H   0  0  0  0  0  0
  -18.0384  -26.0068   22.9038 H   0  0  0  0  0  0
  -19.8005  -30.7246   24.2308 H   0  0  0  0  0  0
  -17.5078  -31.6254   24.5214 H   0  0  0  0  0  0
  -15.5396  -30.2987   23.7623 H   0  0  0  0  0  0
  -15.8733  -28.0839   22.6978 H   0  0  0  0  0  0
  -24.5986  -30.6842   25.7652 H   0  0  0  0  0  0
  -24.8701  -32.2667   26.4840 H   0  0  0  0  0  0
  -25.8003  -30.8776   27.0176 H   0  0  0  0  0  0
  -26.2820  -29.6693   24.1206 H   0  0  0  0  0  0
  -27.4169  -29.7309   25.4478 H   0  0  0  0  0  0
  -27.8610  -30.4299   23.9114 H   0  0  0  0  0  0
  -27.2779  -33.3608   26.2030 H   0  0  0  0  0  0
  -28.3851  -32.6722   25.0173 H   0  0  0  0  0  0
  -28.0762  -31.8318   26.5289 H   0  0  0  0  0  0
  -28.2600  -38.0129   24.7550 H   0  0  0  0  0  0
  -28.1151  -36.2647   24.6244 H   0  0  0  0  0  0
  -27.2327  -37.1399   25.8850 H   0  0  0  0  0  0
  -20.9420  -29.8608   21.6743 H   0  0  0  0  0  0
  -26.0260  -38.2874   24.1321 H   0  0  0  0  0  0
  -29.2586  -22.6783   21.7198 H   0  0  0  0  0  0
  -29.4884  -19.1318   18.2207 H   0  0  0  0  0  0
  -28.3260  -19.9995   17.2078 H   0  0  0  0  0  0
  -27.7414  -19.0037   18.5507 H   0  0  0  0  0  0
  -29.6395  -15.2084   23.6247 H   0  0  0  0  0  0
  -31.3508  -15.5684   23.3704 H   0  0  0  0  0  0
  -30.7499  -13.9244   23.2069 H   0  0  0  0  0  0
  -27.0956  -20.2317   21.9632 H   0  0  0  0  0  0
  -27.9084  -19.5607   23.3715 H   0  0  0  0  0  0
  -26.6939  -18.6209   22.5074 H   0  0  0  0  0  0
  -26.8824  -24.2926   19.4319 H   0  0  0  0  0  0
  -28.2765  -24.6361   18.4332 H   0  0  0  0  0  0
  -30.1321  -20.0735   22.0893 H   0  0  0  0  0  0
  -30.4232  -19.2596   20.5792 H   0  0  0  0  0  0
  -31.0487  -17.1433   21.2069 H   0  0  0  0  0  0
  -29.7237  -16.6808   20.1563 H   0  0  0  0  0  0
  -29.5131  -17.6126   23.0594 H   0  0  0  0  0  0
  -28.1937  -16.7987   22.2550 H   0  0  0  0  0  0
  -29.5120  -25.1569   20.6675 H   0  0  0  0  0  0
  -27.9437  -25.2230   21.4190 H   0  0  0  0  0  0
  -28.1266  -18.5140   20.6586 H   0  0  0  0  0  0
  1 25  1  0  0  0
  1 30  2  0  0  0
  1 84  1  0  0  0
  2  3  1  0  0  0
  2 25  1  0  0  0
  2 86  1  0  0  0
  2 87  1  0  0  0
  3  4  1  0  0  0
  3 88  1  0  0  0
  3 89  1  0  0  0
  4  5  1  0  0  0
  4 90  1  0  0  0
  4 91  1  0  0  0
  5  6  1  0  0  0
  5 26  1  0  0  0
  5 92  1  0  0  0
  6 25  1  0  0  0
  6 93  1  0  0  0
  6 94  1  0  0  0
  7  8  2  0  0  0
  7 26  1  0  0  0
  7 29  1  0  0  0
  8  9  1  0  0  0
  8 22  1  0  0  0
  9 10  1  0  0  0
  9 27  2  0  0  0
 10 11  2  0  0  0
 10 15  1  0  0  0
 11 12  1  0  0  0
 11 95  1  0  0  0
 12 13  2  0  0  0
 12 96  1  0  0  0
 13 14  1  0  0  0
 13 31  1  0  0  0
 14 15  2  0  0  0
 14 97  1  0  0  0
 15 98  1  0  0  0
 16 17  2  0  0  0
 16 21  1  0  0  0
 16 31  1  0  0  0
 17 18  1  0  0  0
 17 99  1  0  0  0
 18 19  2  0  0  0
 18100  1  0  0  0
 19 20  1  0  0  0
 19 24  1  0  0  0
 20 21  2  0  0  0
 20101  1  0  0  0
 21 23  1  0  0  0
 22 28  1  0  0  0
 22 32  2  0  0  0
 26 27  1  0  0  0
 28102  1  0  0  0
 28103  1  0  0  0
 29104  1  0  0  0
 29105  1  0  0  0
 33 34  1  0  0  0
 33 66  1  0  0  0
 33 70  2  0  0  0
 34 36  1  0  0  0
 34 59  1  0  0  0
 34106  1  0  0  0
 35 44  2  0  0  0
 35 45  1  0  0  0
 35 68  1  0  0  0
 36 56  1  0  0  0
 36107  1  0  0  0
 37 39  1  0  0  0
 37 47  1  0  0  0
 37 66  1  0  0  0
 37108  1  0  0  0
 38 43  2  0  0  0
 38 46  1  0  0  0
 38 47  1  0  0  0
 39 64  1  0  0  0
 39 67  2  0  0  0
 40 52  1  0  0  0
 40 53  2  0  0  0
 40 58  1  0  0  0
 41109  1  0  0  0
 41110  1  0  0  0
 41111  1  0  0  0
 41 48  1  0  0  0
 42 43  1  0  0  0
 42 66  1  0  0  0
 42112  1  0  0  0
 42113  1  0  0  0
 43 44  1  0  0  0
 44114  1  0  0  0
 45 46  2  0  0  0
 45115  1  0  0  0
 46116  1  0  0  0
 47117  1  0  0  0
 47118  1  0  0  0
 48 56  1  0  0  0
 48 65  1  0  0  0
 48119  1  0  0  0
 49 50  1  0  0  0
 49 53  1  0  0  0
 49 64  1  0  0  0
 49120  1  0  0  0
 50 51  1  0  0  0
 50121  1  0  0  0
 50122  1  0  0  0
 51 52  1  0  0  0
 51123  1  0  0  0
 51124  1  0  0  0
 52125  1  0  0  0
 52126  1  0  0  0
 53 54  1  0  0  0
 54 55  2  0  0  0
 54127  1  0  0  0
 55 57  1  0  0  0
 55128  1  0  0  0
 56 69  2  0  0  0
 57 58  2  0  0  0
 57129  1  0  0  0
 58130  1  0  0  0
 59 60  1  0  0  0
 59 61  1  0  0  0
 59 62  1  0  0  0
 60131  1  0  0  0
 60132  1  0  0  0
 60133  1  0  0  0
 61134  1  0  0  0
 61135  1  0  0  0
 61136  1  0  0  0
 62137  1  0  0  0
 62138  1  0  0  0
 62139  1  0  0  0
 63 65  1  0  0  0
 63140  1  0  0  0
 63141  1  0  0  0
 63142  1  0  0  0
 64143  1  0  0  0
 65144  1  0  0  0
 68 81  1  0  0  0
 71 72  1  0  0  0
 71 73  2  0  0  0
 71145  1  0  0  0
 72 77  1  0  0  0
 72 82  2  0  0  0
 73 78  1  0  0  0
 73 83  1  0  0  0
 74 83  1  0  0  0
 74146  1  0  0  0
 74147  1  0  0  0
 74148  1  0  0  0
 75 84  1  0  0  0
 75149  1  0  0  0
 75150  1  0  0  0
 75151  1  0  0  0
 76152  1  0  0  0
 76153  1  0  0  0
 76154  1  0  0  0
 76 85  1  0  0  0
 77 81  1  0  0  0
 77155  1  0  0  0
 77156  1  0  0  0
 78 85  1  0  0  0
 78157  1  0  0  0
 78158  1  0  0  0
 79 80  1  0  0  0
 79 84  1  0  0  0
 79159  1  0  0  0
 79160  1  0  0  0
 80 85  1  0  0  0
 80161  1  0  0  0
 80162  1  0  0  0
 81163  1  0  0  0
 81164  1  0  0  0
 82 83  1  0  0  0
 85165  1  0  0  0
M  CHG  1  85   1
M  ISO  4   1 100  68 101  81 101  84 100
M  END
> <chiral flag>
0

> <version>
0

> <s_m_source_file>
/data/baiqing/PycharmProjects/Reinvent-master-3.2/result/LINK_invent/BTK/process_docking_weight1_custom_sum_contain_oxygen_bond_distance_aromatic_linkinvent_7_9_3/rearranged_h_0054.sdf

> <i_m_source_file_index>
68

> <r_mmod_Potential_Energy-OPLS-2005>
-109.717422485352

> <r_mmod_Stretch_Energy-OPLS-2005>
37.7937774658203

> <r_mmod_Bend_Energy-OPLS-2005>
107.27978515625

> <r_mmod_Torsional_Energy-OPLS-2005>
296.176300048828

> <r_mmod_Improper_Torsional_Energy-OPLS-2005>
5.03822994232178

> <r_mmod_Van_der_Waal_Energy-OPLS-2005>
130.283920288086

> <r_mmod_Electrostatic_Energy-OPLS-2005>
-225.857925415039

> <r_mmod_Solvation_Energy-OPLS-2005>
-468.732818603516

> <b_mmod_Minimization_Converged-OPLS-2005>
0

> <r_mmod_RMS_Derivative-OPLS-2005>
4.87121534347534

$$$$
68
                    3D
 Structure written by MMmdl.
156164  0  0  1  0            999 V2000
  -30.6315  -14.5067   20.5546 C   0  0  0  0  0  0
  -30.4318  -12.2985   19.4577 C   0  0  0  0  0  0
  -29.5096  -12.5046   18.2363 C   0  0  0  0  0  0
  -28.0250  -12.3720   18.6303 C   0  0  0  0  0  0
  -27.6688  -13.2023   19.8928 C   0  0  2  0  0  0
  -28.7008  -12.9569   21.0141 C   0  0  0  0  0  0
  -25.2628  -13.8160   20.5645 C   0  0  0  0  0  0
  -24.1843  -13.0394   20.9115 C   0  0  0  0  0  0
  -24.6392  -11.6872   20.8659 C   0  0  0  0  0  0
  -23.9039  -10.4271   21.0385 C   0  0  0  0  0  0
  -24.3608   -9.4172   21.9144 C   0  0  0  0  0  0
  -23.6282   -8.2214   22.0750 C   0  0  0  0  0  0
  -22.4275   -8.0258   21.3550 C   0  0  0  0  0  0
  -21.9899   -9.0206   20.4652 C   0  0  0  0  0  0
  -22.7223  -10.2085   20.3031 C   0  0  0  0  0  0
  -21.6847   -6.0731   22.5282 C   0  0  0  0  0  0
  -21.4004   -6.5651   23.8205 C   0  0  0  0  0  0
  -21.3679   -5.6813   24.9164 C   0  0  0  0  0  0
  -21.6057   -4.3075   24.7220 C   0  0  0  0  0  0
  -21.8833   -3.8163   23.4346 C   0  0  0  0  0  0
  -21.9180   -4.6965   22.3397 C   0  0  0  0  0  0
  -22.7870  -13.5178   21.1787 C   0  0  0  0  0  0
  -22.1646   -4.2152   21.0968 F   0  0  0  0  0  0
  -21.5649   -3.4566   25.7738 F   0  0  0  0  0  0
  -30.0362  -13.2808   20.4797 N   0  0  0  0  0  0
  -26.3045  -12.9294   20.3387 N   0  0  0  0  0  0
  -25.9317  -11.6447   20.5715 N   0  0  0  0  0  0
  -22.0565  -12.8147   22.0420 N   0  0  0  0  0  0
  -25.4409  -15.1826   20.4101 N   0  0  0  0  0  0
  -31.7458  -14.7456   20.0781 O   0  0  0  0  0  0
  -21.6632   -6.8869   21.4255 O   0  0  0  0  0  0
  -22.3487  -14.5421   20.6633 O   0  0  0  0  0  0
  -24.6149  -31.8607   23.2116 C   0  0  0  0  0  0
  -25.9011  -32.4833   23.8359 C   0  0  1  0  0  0
  -27.2092  -27.3764   20.1258 C   0  0  0  0  0  0
  -25.5828  -33.8622   24.2237 N   0  0  0  0  0  0
  -23.4094  -30.4816   21.5572 C   0  0  2  0  0  0
  -24.8575  -28.9573   20.1092 C   0  0  0  0  0  0
  -22.7444  -29.4528   22.5044 C   0  0  0  0  0  0
  -18.0298  -28.1311   22.8562 C   0  0  0  0  0  0
  -24.1480  -36.7363   23.2645 C   0  0  0  0  0  0
  -25.9468  -30.8077   21.3763 C   0  0  0  0  0  0
  -26.0219  -29.4472   20.7121 C   0  0  0  0  0  0
  -27.2067  -28.6672   20.7141 C   0  0  0  0  0  0
  -26.0250  -26.9149   19.5079 C   0  0  0  0  0  0
  -24.8521  -27.6922   19.5048 C   0  0  0  0  0  0
  -23.6227  -29.8258   20.1666 C   0  0  0  0  0  0
  -25.4121  -36.3169   24.0327 C   0  0  1  0  0  0
  -20.5889  -28.3529   23.1415 C   0  0  2  0  0  0
  -20.6792  -26.9264   22.5479 C   0  0  0  0  0  0
  -19.5731  -26.6317   21.5304 C   0  0  0  0  0  0
  -18.1911  -26.7871   22.1700 C   0  0  0  0  0  0
  -19.1545  -28.8771   23.2966 C   0  0  0  0  0  0
  -18.9435  -30.1424   23.8917 C   0  0  0  0  0  0
  -17.6411  -30.6537   24.0545 C   0  0  0  0  0  0
  -25.9003  -34.9512   23.5085 C   0  0  0  0  0  0
  -16.5321  -29.8991   23.6352 C   0  0  0  0  0  0
  -16.7280  -28.6416   23.0373 C   0  0  0  0  0  0
  -26.4395  -31.6724   25.0777 C   0  0  0  0  0  0
  -25.3690  -31.3788   26.1559 C   0  0  0  0  0  0
  -27.0196  -30.3188   24.6184 C   0  0  0  0  0  0
  -27.5946  -32.4465   25.7538 C   0  0  0  0  0  0
  -27.5607  -37.1867   24.8454 C   0  0  0  0  0  0
  -21.4171  -29.2879   22.3826 N   0  0  0  0  0  0
  -26.4354  -37.3837   23.9347 N   0  0  0  0  0  0
  -24.6765  -31.0617   22.1071 N   0  0  0  0  0  0
  -23.4224  -28.8073   23.3085 O   0  0  0  0  0  0
  -28.3328  -26.5664   20.1463 O   0  0  0  0  0  0
  -26.5567  -34.8990   22.4645 O   0  0  0  0  0  0
  -23.5310  -32.1374   23.7477 O   0  0  0  0  0  0
  -29.1827  -24.2159   18.6054 C   0  0  0  0  0  0
  -28.7599  -24.0579   19.9400 C   0  0  0  0  0  0
  -29.3388  -21.8078   19.7716 C   0  0  0  0  0  0
  -28.8947  -18.8975   18.4836 C   0  0  0  0  0  0
  -28.1634  -25.2405   20.7403 C   0  0  0  0  0  0
  -29.3906  -20.3906   20.4227 C   0  0  0  0  0  0
  -29.4176  -16.7119   20.2568 C   0  0  0  0  0  0
  -30.2873  -18.0135   20.4094 C   0  0  0  0  0  0
  -29.6883  -23.1627   17.9162 N   0  0  0  0  0  0
  -28.8418  -22.8209   20.5196 N   0  0  0  0  0  0
  -29.7801  -21.9577   18.5051 N   0  0  0  0  0  0
  -29.8142  -15.4882   20.9961 N   0  0  0  0  0  0
  -29.8420  -19.2202   19.5917 N   0  3  1  0  0  0
  -31.4780  -12.3948   19.1689 H   0  0  0  0  0  0
  -30.3255  -11.2793   19.8385 H   0  0  0  0  0  0
  -29.7626  -11.7835   17.4577 H   0  0  0  0  0  0
  -29.6884  -13.4904   17.8042 H   0  0  0  0  0  0
  -27.8178  -11.3164   18.8118 H   0  0  0  0  0  0
  -27.3920  -12.6625   17.7916 H   0  0  0  0  0  0
  -27.7239  -14.2541   19.6134 H   0  0  0  0  0  0
  -28.6544  -11.9121   21.3209 H   0  0  0  0  0  0
  -28.4566  -13.5261   21.9104 H   0  0  0  0  0  0
  -25.2740   -9.5609   22.4730 H   0  0  0  0  0  0
  -23.9983   -7.4629   22.7497 H   0  0  0  0  0  0
  -21.0825   -8.8712   19.8975 H   0  0  0  0  0  0
  -22.3668  -10.9615   19.6158 H   0  0  0  0  0  0
  -21.1985   -7.6170   23.9690 H   0  0  0  0  0  0
  -21.1503   -6.0543   25.9065 H   0  0  0  0  0  0
  -22.0583   -2.7624   23.2836 H   0  0  0  0  0  0
  -22.4165  -11.9712   22.4633 H   0  0  0  0  0  0
  -21.1261  -13.1245   22.2799 H   0  0  0  0  0  0
  -24.6880  -15.8528   20.5250 H   0  0  0  0  0  0
  -26.3028  -15.6124   20.0940 H   0  0  0  0  0  0
  -26.7023  -32.5447   23.1024 H   0  0  0  0  0  0
  -24.9967  -33.9681   25.0380 H   0  0  0  0  0  0
  -22.7012  -31.3022   21.4201 H   0  0  0  0  0  0
  -23.3795  -35.9652   23.3343 H   0  0  0  0  0  0
  -24.3550  -36.8956   22.2058 H   0  0  0  0  0  0
  -23.7199  -37.6569   23.6615 H   0  0  0  0  0  0
  -26.0698  -31.5787   20.6158 H   0  0  0  0  0  0
  -26.8270  -30.8306   22.0077 H   0  0  0  0  0  0
  -28.1060  -29.0330   21.1880 H   0  0  0  0  0  0
  -25.9987  -25.9395   19.0432 H   0  0  0  0  0  0
  -23.9441  -27.3071   19.0587 H   0  0  0  0  0  0
  -23.7385  -30.6102   19.4176 H   0  0  0  0  0  0
  -22.7502  -29.2437   19.8637 H   0  0  0  0  0  0
  -25.1332  -36.2076   25.0845 H   0  0  0  0  0  0
  -20.9929  -28.2985   24.1544 H   0  0  0  0  0  0
  -20.5784  -26.2012   23.3584 H   0  0  0  0  0  0
  -21.6625  -26.7314   22.1172 H   0  0  0  0  0  0
  -19.6822  -25.6246   21.1246 H   0  0  0  0  0  0
  -19.6737  -27.3241   20.6936 H   0  0  0  0  0  0
  -17.4204  -26.6759   21.4065 H   0  0  0  0  0  0
  -18.0202  -25.9997   22.9059 H   0  0  0  0  0  0
  -19.7879  -30.7292   24.2269 H   0  0  0  0  0  0
  -17.4909  -31.6249   24.5050 H   0  0  0  0  0  0
  -15.5291  -30.2801   23.7695 H   0  0  0  0  0  0
  -15.8721  -28.0710   22.7011 H   0  0  0  0  0  0
  -24.5787  -30.7212   25.7916 H   0  0  0  0  0  0
  -24.8964  -32.2907   26.5222 H   0  0  0  0  0  0
  -25.8093  -30.8819   27.0209 H   0  0  0  0  0  0
  -26.2703  -29.7054   24.1172 H   0  0  0  0  0  0
  -27.3866  -29.7376   25.4648 H   0  0  0  0  0  0
  -27.8593  -30.4581   23.9386 H   0  0  0  0  0  0
  -27.2525  -33.3693   26.2227 H   0  0  0  0  0  0
  -28.3683  -32.7161   25.0349 H   0  0  0  0  0  0
  -28.0684  -31.8564   26.5385 H   0  0  0  0  0  0
  -28.2677  -38.0132   24.7498 H   0  0  0  0  0  0
  -28.1063  -36.2654   24.6329 H   0  0  0  0  0  0
  -27.2251  -37.1590   25.8844 H   0  0  0  0  0  0
  -20.9315  -29.8613   21.7077 H   0  0  0  0  0  0
  -26.0291  -38.2936   24.1359 H   0  0  0  0  0  0
  -29.1229  -25.1629   18.0858 H   0  0  0  0  0  0
  -28.4962  -19.7650   17.9554 H   0  0  0  0  0  0
  -28.0204  -18.3956   18.8915 H   0  0  0  0  0  0
  -29.3657  -18.2485   17.7364 H   0  0  0  0  0  0
  -28.6425  -25.2651   21.7223 H   0  0  0  0  0  0
  -27.1197  -24.9970   20.9699 H   0  0  0  0  0  0
  -28.4011  -20.1475   20.8080 H   0  0  0  0  0  0
  -30.0517  -20.4945   21.2825 H   0  0  0  0  0  0
  -29.3207  -16.4408   19.2057 H   0  0  0  0  0  0
  -28.3983  -16.9250   20.6003 H   0  0  0  0  0  0
  -31.3120  -17.7746   20.1282 H   0  0  0  0  0  0
  -30.3488  -18.2709   21.4707 H   0  0  0  0  0  0
  -29.0489  -15.1236   21.5457 H   0  0  0  0  0  0
  -30.6748  -19.5774   19.1448 H   0  0  0  0  0  0
  1 25  1  0  0  0
  1 30  2  0  0  0
  1 82  1  0  0  0
  2  3  1  0  0  0
  2 25  1  0  0  0
  2 84  1  0  0  0
  2 85  1  0  0  0
  3  4  1  0  0  0
  3 86  1  0  0  0
  3 87  1  0  0  0
  4  5  1  0  0  0
  4 88  1  0  0  0
  4 89  1  0  0  0
  5  6  1  0  0  0
  5 26  1  0  0  0
  5 90  1  0  0  0
  6 25  1  0  0  0
  6 91  1  0  0  0
  6 92  1  0  0  0
  7  8  2  0  0  0
  7 26  1  0  0  0
  7 29  1  0  0  0
  8  9  1  0  0  0
  8 22  1  0  0  0
  9 10  1  0  0  0
  9 27  2  0  0  0
 10 11  2  0  0  0
 10 15  1  0  0  0
 11 12  1  0  0  0
 11 93  1  0  0  0
 12 13  2  0  0  0
 12 94  1  0  0  0
 13 14  1  0  0  0
 13 31  1  0  0  0
 14 15  2  0  0  0
 14 95  1  0  0  0
 15 96  1  0  0  0
 16 17  2  0  0  0
 16 21  1  0  0  0
 16 31  1  0  0  0
 17 18  1  0  0  0
 17 97  1  0  0  0
 18 19  2  0  0  0
 18 98  1  0  0  0
 19 20  1  0  0  0
 19 24  1  0  0  0
 20 21  2  0  0  0
 20 99  1  0  0  0
 21 23  1  0  0  0
 22 28  1  0  0  0
 22 32  2  0  0  0
 26 27  1  0  0  0
 28100  1  0  0  0
 28101  1  0  0  0
 29102  1  0  0  0
 29103  1  0  0  0
 33 34  1  0  0  0
 33 66  1  0  0  0
 33 70  2  0  0  0
 34 36  1  0  0  0
 34 59  1  0  0  0
 34104  1  0  0  0
 35 44  2  0  0  0
 35 45  1  0  0  0
 35 68  1  0  0  0
 36 56  1  0  0  0
 36105  1  0  0  0
 37 39  1  0  0  0
 37 47  1  0  0  0
 37 66  1  0  0  0
 37106  1  0  0  0
 38 43  2  0  0  0
 38 46  1  0  0  0
 38 47  1  0  0  0
 39 64  1  0  0  0
 39 67  2  0  0  0
 40 52  1  0  0  0
 40 53  2  0  0  0
 40 58  1  0  0  0
 41107  1  0  0  0
 41108  1  0  0  0
 41109  1  0  0  0
 41 48  1  0  0  0
 42 43  1  0  0  0
 42 66  1  0  0  0
 42110  1  0  0  0
 42111  1  0  0  0
 43 44  1  0  0  0
 44112  1  0  0  0
 45 46  2  0  0  0
 45113  1  0  0  0
 46114  1  0  0  0
 47115  1  0  0  0
 47116  1  0  0  0
 48 56  1  0  0  0
 48 65  1  0  0  0
 48117  1  0  0  0
 49 50  1  0  0  0
 49 53  1  0  0  0
 49 64  1  0  0  0
 49118  1  0  0  0
 50 51  1  0  0  0
 50119  1  0  0  0
 50120  1  0  0  0
 51 52  1  0  0  0
 51121  1  0  0  0
 51122  1  0  0  0
 52123  1  0  0  0
 52124  1  0  0  0
 53 54  1  0  0  0
 54 55  2  0  0  0
 54125  1  0  0  0
 55 57  1  0  0  0
 55126  1  0  0  0
 56 69  2  0  0  0
 57 58  2  0  0  0
 57127  1  0  0  0
 58128  1  0  0  0
 59 60  1  0  0  0
 59 61  1  0  0  0
 59 62  1  0  0  0
 60129  1  0  0  0
 60130  1  0  0  0
 60131  1  0  0  0
 61132  1  0  0  0
 61133  1  0  0  0
 61134  1  0  0  0
 62135  1  0  0  0
 62136  1  0  0  0
 62137  1  0  0  0
 63 65  1  0  0  0
 63138  1  0  0  0
 63139  1  0  0  0
 63140  1  0  0  0
 64141  1  0  0  0
 65142  1  0  0  0
 68 75  1  0  0  0
 71 72  2  0  0  0
 71 79  1  0  0  0
 71143  1  0  0  0
 72 75  1  0  0  0
 72 80  1  0  0  0
 73 76  1  0  0  0
 73 80  2  0  0  0
 73 81  1  0  0  0
 74144  1  0  0  0
 74145  1  0  0  0
 74146  1  0  0  0
 74 83  1  0  0  0
 75147  1  0  0  0
 75148  1  0  0  0
 76 83  1  0  0  0
 76149  1  0  0  0
 76150  1  0  0  0
 77 78  1  0  0  0
 77 82  1  0  0  0
 77151  1  0  0  0
 77152  1  0  0  0
 78 83  1  0  0  0
 78153  1  0  0  0
 78154  1  0  0  0
 79 81  2  0  0  0
 82155  1  0  0  0
 83156  1  0  0  0
M  CHG  1  83   1
M  ISO  4   1 100  68 101  75 101  82 100
M  END
> <chiral flag>
0

> <version>
0

> <s_m_source_file>
/data/baiqing/PycharmProjects/Reinvent-master-3.2/result/LINK_invent/BTK/process_docking_weight1_custom_sum_contain_oxygen_bond_distance_aromatic_linkinvent_7_9_3/rearranged_h_0054.sdf

> <i_m_source_file_index>
69

> <r_mmod_Potential_Energy-OPLS-2005>
-201.720016479492

> <r_mmod_Stretch_Energy-OPLS-2005>
59.1035766601562

> <r_mmod_Bend_Energy-OPLS-2005>
124.318428039551

> <r_mmod_Torsional_Energy-OPLS-2005>
265.749816894531

> <r_mmod_Improper_Torsional_Energy-OPLS-2005>
8.27674674987793

> <r_mmod_Van_der_Waal_Energy-OPLS-2005>
164.122177124023

> <r_mmod_Electrostatic_Energy-OPLS-2005>
-364.100433349609

> <r_mmod_Solvation_Energy-OPLS-2005>
-483.138977050781

> <b_mmod_Minimization_Converged-OPLS-2005>
0

> <r_mmod_RMS_Derivative-OPLS-2005>
9.59303569793701

$$$$
69
                    3D
 Structure written by MMmdl.
158166  0  0  1  0            999 V2000
  -30.7067  -14.5419   20.6165 C   0  0  0  0  0  0
  -30.4430  -12.3797   19.4275 C   0  0  0  0  0  0
  -29.4935  -12.5169   18.2146 C   0  0  0  0  0  0
  -28.0192  -12.3578   18.6337 C   0  0  0  0  0  0
  -27.6664  -13.1959   19.8909 C   0  0  2  0  0  0
  -28.7173  -12.9245   20.9885 C   0  0  0  0  0  0
  -25.2618  -13.8137   20.5719 C   0  0  0  0  0  0
  -24.1844  -13.0434   20.9193 C   0  0  0  0  0  0
  -24.6376  -11.6899   20.8765 C   0  0  0  0  0  0
  -23.9028  -10.4299   21.0427 C   0  0  0  0  0  0
  -24.3603   -9.4220   21.9193 C   0  0  0  0  0  0
  -23.6287   -8.2254   22.0749 C   0  0  0  0  0  0
  -22.4269   -8.0291   21.3544 C   0  0  0  0  0  0
  -21.9902   -9.0259   20.4645 C   0  0  0  0  0  0
  -22.7214  -10.2146   20.3058 C   0  0  0  0  0  0
  -21.6851   -6.0750   22.5279 C   0  0  0  0  0  0
  -21.4013   -6.5646   23.8217 C   0  0  0  0  0  0
  -21.3653   -5.6788   24.9177 C   0  0  0  0  0  0
  -21.6042   -4.3051   24.7222 C   0  0  0  0  0  0
  -21.8824   -3.8154   23.4342 C   0  0  0  0  0  0
  -21.9195   -4.6979   22.3400 C   0  0  0  0  0  0
  -22.7878  -13.5268   21.1835 C   0  0  0  0  0  0
  -22.1673   -4.2167   21.0978 F   0  0  0  0  0  0
  -21.5616   -3.4524   25.7734 F   0  0  0  0  0  0
  -30.0229  -13.3561   20.4583 N   0  0  0  0  0  0
  -26.3050  -12.9277   20.3479 N   0  0  0  0  0  0
  -25.9308  -11.6452   20.5837 N   0  0  0  0  0  0
  -22.0511  -12.8276   22.0396 N   0  0  0  0  0  0
  -25.4299  -15.1842   20.4086 N   0  0  0  0  0  0
  -31.8250  -14.6657   20.1040 O   0  0  0  0  0  0
  -21.6635   -6.8887   21.4243 O   0  0  0  0  0  0
  -22.3566  -14.5571   20.6658 O   0  0  0  0  0  0
  -24.6199  -31.8675   23.2076 C   0  0  0  0  0  0
  -25.9063  -32.4827   23.8395 C   0  0  1  0  0  0
  -27.2411  -27.3983   20.0873 C   0  0  0  0  0  0
  -25.5918  -33.8628   24.2328 N   0  0  0  0  0  0
  -23.4119  -30.4936   21.5490 C   0  0  2  0  0  0
  -24.8579  -28.9618   20.1134 C   0  0  0  0  0  0
  -22.7448  -29.4672   22.4949 C   0  0  0  0  0  0
  -18.0287  -28.1364   22.8494 C   0  0  0  0  0  0
  -24.1489  -36.7325   23.2642 C   0  0  0  0  0  0
  -25.9463  -30.8196   21.3708 C   0  0  0  0  0  0
  -26.0221  -29.4519   20.7156 C   0  0  0  0  0  0
  -27.2123  -28.6765   20.7054 C   0  0  0  0  0  0
  -26.0495  -26.9538   19.4557 C   0  0  0  0  0  0
  -24.8680  -27.7115   19.4804 C   0  0  0  0  0  0
  -23.6226  -29.8303   20.1637 C   0  0  0  0  0  0
  -25.4107  -36.3116   24.0341 C   0  0  1  0  0  0
  -20.5889  -28.3681   23.1282 C   0  0  2  0  0  0
  -20.6776  -26.9412   22.5393 C   0  0  0  0  0  0
  -19.5737  -26.6380   21.5203 C   0  0  0  0  0  0
  -18.1931  -26.7910   22.1639 C   0  0  0  0  0  0
  -19.1539  -28.8831   23.2892 C   0  0  0  0  0  0
  -18.9465  -30.1436   23.8907 C   0  0  0  0  0  0
  -17.6463  -30.6571   24.0568 C   0  0  0  0  0  0
  -25.9040  -34.9481   23.5128 C   0  0  0  0  0  0
  -16.5354  -29.9078   23.6313 C   0  0  0  0  0  0
  -16.7279  -28.6491   23.0347 C   0  0  0  0  0  0
  -26.4468  -31.6616   25.0747 C   0  0  0  0  0  0
  -25.3725  -31.3724   26.1495 C   0  0  0  0  0  0
  -27.0321  -30.3066   24.6139 C   0  0  0  0  0  0
  -27.6035  -32.4353   25.7506 C   0  0  0  0  0  0
  -27.5575  -37.1820   24.8460 C   0  0  0  0  0  0
  -21.4171  -29.3062   22.3697 N   0  0  0  0  0  0
  -26.4292  -37.3801   23.9401 N   0  0  0  0  0  0
  -24.6782  -31.0742   22.1004 N   0  0  0  0  0  0
  -23.4191  -28.8198   23.3002 O   0  0  0  0  0  0
  -28.3948  -26.6119   20.1255 O   0  0  0  0  0  0
  -26.5602  -34.8923   22.4690 O   0  0  0  0  0  0
  -23.5376  -32.1445   23.7434 O   0  0  0  0  0  0
  -29.9767  -20.4299   19.3195 C   0  0  0  0  0  0
  -29.4194  -21.4740   20.0105 C   0  0  0  0  0  0
  -28.8787  -17.3505   19.1595 C   0  0  0  0  0  0
  -29.0179  -15.6920   22.1478 C   0  0  0  0  0  0
  -28.8854  -22.7872   19.4626 C   0  0  0  0  0  0
  -29.2948  -24.1488   20.1102 C   0  0  0  0  0  0
  -30.7010  -17.0270   21.0106 C   0  0  0  0  0  0
  -28.2466  -25.2300   19.7070 C   0  0  0  0  0  0
  -30.1384  -17.9172   19.8457 C   0  0  2  0  0  0
  -29.1007  -21.0017   21.2855 N   0  0  0  0  0  0
  -29.3879  -19.7320   21.3700 N   0  0  0  0  0  0
  -29.9131  -19.3425   20.1784 N   0  0  0  0  0  0
  -30.0967  -15.6626   21.1460 N   0  0  0  0  0  0
  -31.4751  -12.5183   19.1003 H   0  0  0  0  0  0
  -30.4127  -11.3655   19.8265 H   0  0  0  0  0  0
  -29.7464  -11.7671   17.4633 H   0  0  0  0  0  0
  -29.6352  -13.4912   17.7457 H   0  0  0  0  0  0
  -27.8539  -11.3006   18.8473 H   0  0  0  0  0  0
  -27.3520  -12.6046   17.8070 H   0  0  0  0  0  0
  -27.7224  -14.2495   19.6150 H   0  0  0  0  0  0
  -28.7417  -11.8525   21.1914 H   0  0  0  0  0  0
  -28.4532  -13.3248   21.9595 H   0  0  0  0  0  0
  -25.2760   -9.5703   22.4757 H   0  0  0  0  0  0
  -24.0018   -7.4646   22.7447 H   0  0  0  0  0  0
  -21.0838   -8.8764   19.8938 H   0  0  0  0  0  0
  -22.3675  -10.9687   19.6165 H   0  0  0  0  0  0
  -21.1994   -7.6148   23.9737 H   0  0  0  0  0  0
  -21.1458   -6.0505   25.9082 H   0  0  0  0  0  0
  -22.0600   -2.7612   23.2829 H   0  0  0  0  0  0
  -22.4154  -12.0000   22.4871 H   0  0  0  0  0  0
  -21.1108  -13.1276   22.2549 H   0  0  0  0  0  0
  -24.6616  -15.8365   20.5203 H   0  0  0  0  0  0
  -26.2727  -15.6202   20.0580 H   0  0  0  0  0  0
  -26.7154  -32.5519   23.1172 H   0  0  0  0  0  0
  -25.0075  -33.9794   25.0474 H   0  0  0  0  0  0
  -22.7023  -31.3123   21.4086 H   0  0  0  0  0  0
  -23.3746  -35.9666   23.3314 H   0  0  0  0  0  0
  -24.3578  -36.8934   22.2054 H   0  0  0  0  0  0
  -23.7240  -37.6535   23.6648 H   0  0  0  0  0  0
  -26.0667  -31.5849   20.6024 H   0  0  0  0  0  0
  -26.8314  -30.8694   21.9940 H   0  0  0  0  0  0
  -28.1055  -29.0519   21.1840 H   0  0  0  0  0  0
  -25.9921  -26.0141   18.9275 H   0  0  0  0  0  0
  -23.9775  -27.3306   18.9993 H   0  0  0  0  0  0
  -23.7346  -30.6063   19.4049 H   0  0  0  0  0  0
  -22.7463  -29.2534   19.8635 H   0  0  0  0  0  0
  -25.1280  -36.2004   25.0839 H   0  0  0  0  0  0
  -20.9992  -28.3251   24.1397 H   0  0  0  0  0  0
  -20.5668  -26.2309   23.3603 H   0  0  0  0  0  0
  -21.6646  -26.7439   22.1184 H   0  0  0  0  0  0
  -19.6900  -25.6291   21.1228 H   0  0  0  0  0  0
  -19.6641  -27.3199   20.6733 H   0  0  0  0  0  0
  -17.4192  -26.6658   21.4051 H   0  0  0  0  0  0
  -18.0344  -26.0040   22.9027 H   0  0  0  0  0  0
  -19.7938  -30.7255   24.2287 H   0  0  0  0  0  0
  -17.5013  -31.6248   24.5174 H   0  0  0  0  0  0
  -15.5351  -30.2986   23.7599 H   0  0  0  0  0  0
  -15.8693  -28.0801   22.7055 H   0  0  0  0  0  0
  -24.5850  -30.7148   25.7794 H   0  0  0  0  0  0
  -24.8988  -32.2902   26.4997 H   0  0  0  0  0  0
  -25.8063  -30.8812   27.0220 H   0  0  0  0  0  0
  -26.2874  -29.6800   24.1227 H   0  0  0  0  0  0
  -27.4138  -29.7324   25.4588 H   0  0  0  0  0  0
  -27.8675  -30.4388   23.9265 H   0  0  0  0  0  0
  -27.2616  -33.3592   26.2175 H   0  0  0  0  0  0
  -28.3775  -32.7038   25.0306 H   0  0  0  0  0  0
  -28.0798  -31.8461   26.5353 H   0  0  0  0  0  0
  -28.2612  -38.0101   24.7506 H   0  0  0  0  0  0
  -28.1061  -36.2641   24.6296 H   0  0  0  0  0  0
  -27.2304  -37.1477   25.8867 H   0  0  0  0  0  0
  -20.9346  -29.8847   21.6967 H   0  0  0  0  0  0
  -26.0194  -38.2896   24.1376 H   0  0  0  0  0  0
  -30.2897  -20.3330   18.2874 H   0  0  0  0  0  0
  -28.5357  -18.0133   18.3652 H   0  0  0  0  0  0
  -28.0549  -17.2343   19.8634 H   0  0  0  0  0  0
  -29.0755  -16.3833   18.6959 H   0  0  0  0  0  0
  -28.8173  -16.6860   22.5474 H   0  0  0  0  0  0
  -29.2695  -15.0663   23.0056 H   0  0  0  0  0  0
  -28.0658  -15.3874   21.7185 H   0  0  0  0  0  0
  -27.7976  -22.7157   19.4971 H   0  0  0  0  0  0
  -29.1119  -22.8426   18.3970 H   0  0  0  0  0  0
  -30.3029  -24.4289   19.7994 H   0  0  0  0  0  0
  -29.3119  -24.0559   21.1955 H   0  0  0  0  0  0
  -30.6358  -17.5579   21.9594 H   0  0  0  0  0  0
  -31.7824  -16.9594   20.8918 H   0  0  0  0  0  0
  -27.3115  -24.8472   20.1184 H   0  0  0  0  0  0
  -28.1547  -25.2271   18.6199 H   0  0  0  0  0  0
  -30.9136  -17.9195   19.0782 H   0  0  0  0  0  0
  1 25  1  0  0  0
  1 30  2  0  0  0
  1 83  1  0  0  0
  2  3  1  0  0  0
  2 25  1  0  0  0
  2 84  1  0  0  0
  2 85  1  0  0  0
  3  4  1  0  0  0
  3 86  1  0  0  0
  3 87  1  0  0  0
  4  5  1  0  0  0
  4 88  1  0  0  0
  4 89  1  0  0  0
  5  6  1  0  0  0
  5 26  1  0  0  0
  5 90  1  0  0  0
  6 25  1  0  0  0
  6 91  1  0  0  0
  6 92  1  0  0  0
  7  8  2  0  0  0
  7 26  1  0  0  0
  7 29  1  0  0  0
  8  9  1  0  0  0
  8 22  1  0  0  0
  9 10  1  0  0  0
  9 27  2  0  0  0
 10 11  2  0  0  0
 10 15  1  0  0  0
 11 12  1  0  0  0
 11 93  1  0  0  0
 12 13  2  0  0  0
 12 94  1  0  0  0
 13 14  1  0  0  0
 13 31  1  0  0  0
 14 15  2  0  0  0
 14 95  1  0  0  0
 15 96  1  0  0  0
 16 17  2  0  0  0
 16 21  1  0  0  0
 16 31  1  0  0  0
 17 18  1  0  0  0
 17 97  1  0  0  0
 18 19  2  0  0  0
 18 98  1  0  0  0
 19 20  1  0  0  0
 19 24  1  0  0  0
 20 21  2  0  0  0
 20 99  1  0  0  0
 21 23  1  0  0  0
 22 28  1  0  0  0
 22 32  2  0  0  0
 26 27  1  0  0  0
 28100  1  0  0  0
 28101  1  0  0  0
 29102  1  0  0  0
 29103  1  0  0  0
 33 34  1  0  0  0
 33 66  1  0  0  0
 33 70  2  0  0  0
 34 36  1  0  0  0
 34 59  1  0  0  0
 34104  1  0  0  0
 35 44  2  0  0  0
 35 45  1  0  0  0
 35 68  1  0  0  0
 36 56  1  0  0  0
 36105  1  0  0  0
 37 39  1  0  0  0
 37 47  1  0  0  0
 37 66  1  0  0  0
 37106  1  0  0  0
 38 43  2  0  0  0
 38 46  1  0  0  0
 38 47  1  0  0  0
 39 64  1  0  0  0
 39 67  2  0  0  0
 40 52  1  0  0  0
 40 53  2  0  0  0
 40 58  1  0  0  0
 41107  1  0  0  0
 41108  1  0  0  0
 41109  1  0  0  0
 41 48  1  0  0  0
 42 43  1  0  0  0
 42 66  1  0  0  0
 42110  1  0  0  0
 42111  1  0  0  0
 43 44  1  0  0  0
 44112  1  0  0  0
 45 46  2  0  0  0
 45113  1  0  0  0
 46114  1  0  0  0
 47115  1  0  0  0
 47116  1  0  0  0
 48 56  1  0  0  0
 48 65  1  0  0  0
 48117  1  0  0  0
 49 50  1  0  0  0
 49 53  1  0  0  0
 49 64  1  0  0  0
 49118  1  0  0  0
 50 51  1  0  0  0
 50119  1  0  0  0
 50120  1  0  0  0
 51 52  1  0  0  0
 51121  1  0  0  0
 51122  1  0  0  0
 52123  1  0  0  0
 52124  1  0  0  0
 53 54  1  0  0  0
 54 55  2  0  0  0
 54125  1  0  0  0
 55 57  1  0  0  0
 55126  1  0  0  0
 56 69  2  0  0  0
 57 58  2  0  0  0
 57127  1  0  0  0
 58128  1  0  0  0
 59 60  1  0  0  0
 59 61  1  0  0  0
 59 62  1  0  0  0
 60129  1  0  0  0
 60130  1  0  0  0
 60131  1  0  0  0
 61132  1  0  0  0
 61133  1  0  0  0
 61134  1  0  0  0
 62135  1  0  0  0
 62136  1  0  0  0
 62137  1  0  0  0
 63 65  1  0  0  0
 63138  1  0  0  0
 63139  1  0  0  0
 63140  1  0  0  0
 64141  1  0  0  0
 65142  1  0  0  0
 68 78  1  0  0  0
 71 72  2  0  0  0
 71 82  1  0  0  0
 71143  1  0  0  0
 72 75  1  0  0  0
 72 80  1  0  0  0
 73144  1  0  0  0
 73145  1  0  0  0
 73146  1  0  0  0
 73 79  1  0  0  0
 74 83  1  0  0  0
 74147  1  0  0  0
 74148  1  0  0  0
 74149  1  0  0  0
 75 76  1  0  0  0
 75150  1  0  0  0
 75151  1  0  0  0
 76 78  1  0  0  0
 76152  1  0  0  0
 76153  1  0  0  0
 77 79  1  0  0  0
 77 83  1  0  0  0
 77154  1  0  0  0
 77155  1  0  0  0
 78156  1  0  0  0
 78157  1  0  0  0
 79 82  1  0  0  0
 79158  1  0  0  0
 80 81  2  0  0  0
 81 82  1  0  0  0
M  ISO  4   1 100  68 101  78 101  83 100
M  END
> <chiral flag>
0

> <version>
0

> <s_m_source_file>
/data/baiqing/PycharmProjects/Reinvent-master-3.2/result/LINK_invent/BTK/process_docking_weight1_custom_sum_contain_oxygen_bond_distance_aromatic_linkinvent_7_9_3/rearranged_h_0054.sdf

> <i_m_source_file_index>
70

> <r_mmod_Potential_Energy-OPLS-2005>
103.537773132324

> <r_mmod_Stretch_Energy-OPLS-2005>
54.3693809509277

> <r_mmod_Bend_Energy-OPLS-2005>
149.440414428711

> <r_mmod_Torsional_Energy-OPLS-2005>
273.661285400391

> <r_mmod_Improper_Torsional_Energy-OPLS-2005>
8.24391937255859

> <r_mmod_Van_der_Waal_Energy-OPLS-2005>
153.511184692383

> <r_mmod_Electrostatic_Energy-OPLS-2005>
-341.835418701172

> <r_mmod_Solvation_Energy-OPLS-2005>
-215.179107666016

> <b_mmod_Minimization_Converged-OPLS-2005>
0

> <r_mmod_RMS_Derivative-OPLS-2005>
2.97786855697632

$$$$
70
                    3D
 Structure written by MMmdl.
160168  0  0  1  0            999 V2000
  -30.5971  -14.8018   20.4888 C   0  0  0  0  0  0
  -30.4281  -12.5043   19.4753 C   0  0  0  0  0  0
  -29.5197  -12.5645   18.2269 C   0  0  0  0  0  0
  -28.0318  -12.3794   18.6044 C   0  0  0  0  0  0
  -27.6281  -13.2310   19.8379 C   0  0  2  0  0  0
  -28.6770  -13.1174   20.9657 C   0  0  0  0  0  0
  -25.2310  -13.8151   20.5549 C   0  0  0  0  0  0
  -24.1654  -13.0370   20.9177 C   0  0  0  0  0  0
  -24.6345  -11.6892   20.8698 C   0  0  0  0  0  0
  -23.9042  -10.4277   21.0369 C   0  0  0  0  0  0
  -24.3645   -9.4232   21.9151 C   0  0  0  0  0  0
  -23.6342   -8.2252   22.0751 C   0  0  0  0  0  0
  -22.4316   -8.0278   21.3538 C   0  0  0  0  0  0
  -21.9913   -9.0213   20.4601 C   0  0  0  0  0  0
  -22.7221  -10.2100   20.2988 C   0  0  0  0  0  0
  -21.6870   -6.0721   22.5279 C   0  0  0  0  0  0
  -21.4022   -6.5614   23.8205 C   0  0  0  0  0  0
  -21.3673   -5.6755   24.9175 C   0  0  0  0  0  0
  -21.6052   -4.3038   24.7219 C   0  0  0  0  0  0
  -21.8837   -3.8130   23.4344 C   0  0  0  0  0  0
  -21.9237   -4.6929   22.3407 C   0  0  0  0  0  0
  -22.7689  -13.5170   21.1894 C   0  0  0  0  0  0
  -22.1684   -4.2132   21.0978 F   0  0  0  0  0  0
  -21.5639   -3.4529   25.7741 F   0  0  0  0  0  0
  -29.9599  -13.5674   20.4046 N   0  0  0  0  0  0
  -26.2811  -12.9392   20.3152 N   0  0  0  0  0  0
  -25.9278  -11.6546   20.5699 N   0  0  0  0  0  0
  -22.0385  -12.8116   22.0472 N   0  0  0  0  0  0
  -25.3681  -15.1872   20.3873 N   0  0  0  0  0  0
  -31.7906  -14.8388   20.1628 O   0  0  0  0  0  0
  -21.6671   -6.8873   21.4252 O   0  0  0  0  0  0
  -22.3331  -14.5490   20.6785 O   0  0  0  0  0  0
  -24.6255  -31.8527   23.1963 C   0  0  0  0  0  0
  -25.9069  -32.4743   23.8316 C   0  0  1  0  0  0
  -27.2471  -27.2811   20.1397 C   0  0  0  0  0  0
  -25.5899  -33.8541   24.2256 N   0  0  0  0  0  0
  -23.4245  -30.4714   21.5355 C   0  0  2  0  0  0
  -24.8798  -28.9117   20.1047 C   0  0  0  0  0  0
  -22.7477  -29.4565   22.4898 C   0  0  0  0  0  0
  -18.0275  -28.1367   22.8462 C   0  0  0  0  0  0
  -24.1515  -36.7310   23.2646 C   0  0  0  0  0  0
  -25.9616  -30.7764   21.3655 C   0  0  0  0  0  0
  -26.0403  -29.3933   20.7187 C   0  0  0  0  0  0
  -27.2176  -28.5861   20.7284 C   0  0  0  0  0  0
  -26.0632  -26.8533   19.4983 C   0  0  0  0  0  0
  -24.8953  -27.6494   19.4824 C   0  0  0  0  0  0
  -23.6449  -29.7920   20.1533 C   0  0  0  0  0  0
  -25.4126  -36.3073   24.0328 C   0  0  1  0  0  0
  -20.5882  -28.3662   23.1267 C   0  0  2  0  0  0
  -20.6774  -26.9378   22.5412 C   0  0  0  0  0  0
  -19.5760  -26.6351   21.5205 C   0  0  0  0  0  0
  -18.1931  -26.7912   22.1597 C   0  0  0  0  0  0
  -19.1534  -28.8824   23.2865 C   0  0  0  0  0  0
  -18.9463  -30.1430   23.8878 C   0  0  0  0  0  0
  -17.6462  -30.6569   24.0543 C   0  0  0  0  0  0
  -25.9022  -34.9430   23.5094 C   0  0  0  0  0  0
  -16.5349  -29.9061   23.6329 C   0  0  0  0  0  0
  -16.7264  -28.6485   23.0334 C   0  0  0  0  0  0
  -26.4475  -31.6538   25.0666 C   0  0  0  0  0  0
  -25.3739  -31.3575   26.1397 C   0  0  0  0  0  0
  -27.0332  -30.2998   24.6047 C   0  0  0  0  0  0
  -27.6009  -32.4259   25.7483 C   0  0  0  0  0  0
  -27.5580  -37.1820   24.8441 C   0  0  0  0  0  0
  -21.4184  -29.3010   22.3636 N   0  0  0  0  0  0
  -26.4297  -37.3762   23.9393 N   0  0  0  0  0  0
  -24.6895  -31.0513   22.0908 N   0  0  0  0  0  0
  -23.4186  -28.8106   23.2990 O   0  0  0  0  0  0
  -28.3922  -26.4647   20.2523 O   0  0  0  0  0  0
  -26.5617  -34.8902   22.4673 O   0  0  0  0  0  0
  -23.5402  -32.1319   23.7277 O   0  0  0  0  0  0
  -28.4135  -20.7450   18.6154 C   0  0  0  0  0  0
  -28.2699  -19.3976   18.1968 C   0  0  0  0  0  0
  -29.1769  -21.0062   19.7832 C   0  0  0  0  0  0
  -29.6472  -18.6481   19.8890 C   0  0  0  0  0  0
  -27.8095  -21.8534   17.7657 C   0  0  0  0  0  0
  -27.4673  -19.0005   16.9516 C   0  0  0  0  0  0
  -28.6167  -16.1910   21.3714 C   0  0  0  0  0  0
  -29.5076  -22.4876   20.2994 C   0  0  0  0  0  0
  -30.5073  -17.4131   20.4307 C   0  0  0  0  0  0
  -28.4446  -23.7147   20.5023 C   0  0  0  0  0  0
  -28.5820  -25.1015   19.6676 C   0  0  0  0  0  0
  -28.8798  -18.3811   18.8371 N   0  0  0  0  0  0
  -29.7955  -19.9170   20.3844 N   0  0  0  0  0  0
  -29.9005  -16.0198   20.6717 N   0  0  0  0  0  0
  -31.4739  -12.6245   19.1908 H   0  0  0  0  0  0
  -30.3733  -11.5173   19.9288 H   0  0  0  0  0  0
  -29.8267  -11.8133   17.4969 H   0  0  0  0  0  0
  -29.6533  -13.5350   17.7500 H   0  0  0  0  0  0
  -27.8589  -11.3179   18.7986 H   0  0  0  0  0  0
  -27.3990  -12.6430   17.7577 H   0  0  0  0  0  0
  -27.6167  -14.2540   19.4664 H   0  0  0  0  0  0
  -28.7558  -12.0864   21.3052 H   0  0  0  0  0  0
  -28.3720  -13.6550   21.8557 H   0  0  0  0  0  0
  -25.2834   -9.5771   22.4661 H   0  0  0  0  0  0
  -24.0079   -7.4683   22.7501 H   0  0  0  0  0  0
  -21.0810   -8.8730   19.8933 H   0  0  0  0  0  0
  -22.3691  -10.9617   19.6051 H   0  0  0  0  0  0
  -21.1984   -7.6112   23.9719 H   0  0  0  0  0  0
  -21.1461   -6.0472   25.9073 H   0  0  0  0  0  0
  -22.0614   -2.7592   23.2850 H   0  0  0  0  0  0
  -22.4113  -11.9766   22.4745 H   0  0  0  0  0  0
  -21.0995  -13.1035   22.2722 H   0  0  0  0  0  0
  -24.5873  -15.8208   20.5288 H   0  0  0  0  0  0
  -26.1933  -15.6645   20.0489 H   0  0  0  0  0  0
  -26.7115  -32.5430   23.1050 H   0  0  0  0  0  0
  -25.0047  -33.9680   25.0408 H   0  0  0  0  0  0
  -22.7159  -31.2886   21.3827 H   0  0  0  0  0  0
  -23.3755  -35.9657   23.3259 H   0  0  0  0  0  0
  -24.3618  -36.8978   22.2066 H   0  0  0  0  0  0
  -23.7265  -37.6502   23.6693 H   0  0  0  0  0  0
  -26.0753  -31.5305   20.5856 H   0  0  0  0  0  0
  -26.8469  -30.8468   21.9850 H   0  0  0  0  0  0
  -28.1046  -28.9481   21.2288 H   0  0  0  0  0  0
  -26.0178  -25.8823   19.0311 H   0  0  0  0  0  0
  -24.0026  -27.2770   18.9990 H   0  0  0  0  0  0
  -23.7610  -30.5630   19.3895 H   0  0  0  0  0  0
  -22.7668  -29.2172   19.8522 H   0  0  0  0  0  0
  -25.1315  -36.1936   25.0818 H   0  0  0  0  0  0
  -20.9982  -28.3272   24.1384 H   0  0  0  0  0  0
  -20.5660  -26.2283   23.3631 H   0  0  0  0  0  0
  -21.6647  -26.7380   22.1224 H   0  0  0  0  0  0
  -19.6925  -25.6255   21.1258 H   0  0  0  0  0  0
  -19.6736  -27.3149   20.6738 H   0  0  0  0  0  0
  -17.4223  -26.6646   21.3986 H   0  0  0  0  0  0
  -18.0319  -26.0045   22.8982 H   0  0  0  0  0  0
  -19.7936  -30.7256   24.2250 H   0  0  0  0  0  0
  -17.5001  -31.6249   24.5153 H   0  0  0  0  0  0
  -15.5343  -30.2951   23.7652 H   0  0  0  0  0  0
  -15.8671  -28.0800   22.7043 H   0  0  0  0  0  0
  -24.5959  -30.6887   25.7693 H   0  0  0  0  0  0
  -24.8892  -32.2693   26.4895 H   0  0  0  0  0  0
  -25.8122  -30.8701   27.0121 H   0  0  0  0  0  0
  -26.2871  -29.6717   24.1169 H   0  0  0  0  0  0
  -27.4191  -29.7249   25.4471 H   0  0  0  0  0  0
  -27.8662  -30.4314   23.9136 H   0  0  0  0  0  0
  -27.2614  -33.3574   26.2026 H   0  0  0  0  0  0
  -28.3896  -32.6775   25.0377 H   0  0  0  0  0  0
  -28.0597  -31.8390   26.5457 H   0  0  0  0  0  0
  -28.2540  -38.0172   24.7529 H   0  0  0  0  0  0
  -28.1146  -36.2694   24.6240 H   0  0  0  0  0  0
  -27.2293  -37.1418   25.8840 H   0  0  0  0  0  0
  -20.9367  -29.8731   21.6837 H   0  0  0  0  0  0
  -26.0178  -38.2841   24.1374 H   0  0  0  0  0  0
  -28.1589  -21.7519   16.7333 H   0  0  0  0  0  0
  -28.0830  -22.8503   18.0878 H   0  0  0  0  0  0
  -26.7210  -21.7787   17.7664 H   0  0  0  0  0  0
  -28.1073  -18.9491   16.0686 H   0  0  0  0  0  0
  -26.6623  -19.6963   16.7220 H   0  0  0  0  0  0
  -26.9985  -18.0256   17.0913 H   0  0  0  0  0  0
  -28.5464  -15.6368   22.3058 H   0  0  0  0  0  0
  -27.7888  -15.9650   20.7027 H   0  0  0  0  0  0
  -28.4512  -17.2216   21.6800 H   0  0  0  0  0  0
  -30.3365  -22.8483   19.6931 H   0  0  0  0  0  0
  -29.9666  -22.3433   21.2821 H   0  0  0  0  0  0
  -30.9919  -17.7154   21.3592 H   0  0  0  0  0  0
  -31.3259  -17.3063   19.7217 H   0  0  0  0  0  0
  -28.5454  -24.0177   21.5498 H   0  0  0  0  0  0
  -27.4236  -23.3382   20.4481 H   0  0  0  0  0  0
  -28.0504  -25.0325   18.7224 H   0  0  0  0  0  0
  -29.6297  -25.1386   19.3616 H   0  0  0  0  0  0
  1 25  1  0  0  0
  1 30  2  0  0  0
  1 84  1  0  0  0
  2  3  1  0  0  0
  2 25  1  0  0  0
  2 85  1  0  0  0
  2 86  1  0  0  0
  3  4  1  0  0  0
  3 87  1  0  0  0
  3 88  1  0  0  0
  4  5  1  0  0  0
  4 89  1  0  0  0
  4 90  1  0  0  0
  5  6  1  0  0  0
  5 26  1  0  0  0
  5 91  1  0  0  0
  6 25  1  0  0  0
  6 92  1  0  0  0
  6 93  1  0  0  0
  7  8  2  0  0  0
  7 26  1  0  0  0
  7 29  1  0  0  0
  8  9  1  0  0  0
  8 22  1  0  0  0
  9 10  1  0  0  0
  9 27  2  0  0  0
 10 11  2  0  0  0
 10 15  1  0  0  0
 11 12  1  0  0  0
 11 94  1  0  0  0
 12 13  2  0  0  0
 12 95  1  0  0  0
 13 14  1  0  0  0
 13 31  1  0  0  0
 14 15  2  0  0  0
 14 96  1  0  0  0
 15 97  1  0  0  0
 16 17  2  0  0  0
 16 21  1  0  0  0
 16 31  1  0  0  0
 17 18  1  0  0  0
 17 98  1  0  0  0
 18 19  2  0  0  0
 18 99  1  0  0  0
 19 20  1  0  0  0
 19 24  1  0  0  0
 20 21  2  0  0  0
 20100  1  0  0  0
 21 23  1  0  0  0
 22 28  1  0  0  0
 22 32  2  0  0  0
 26 27  1  0  0  0
 28101  1  0  0  0
 28102  1  0  0  0
 29103  1  0  0  0
 29104  1  0  0  0
 33 34  1  0  0  0
 33 66  1  0  0  0
 33 70  2  0  0  0
 34 36  1  0  0  0
 34 59  1  0  0  0
 34105  1  0  0  0
 35 44  2  0  0  0
 35 45  1  0  0  0
 35 68  1  0  0  0
 36 56  1  0  0  0
 36106  1  0  0  0
 37 39  1  0  0  0
 37 47  1  0  0  0
 37 66  1  0  0  0
 37107  1  0  0  0
 38 43  2  0  0  0
 38 46  1  0  0  0
 38 47  1  0  0  0
 39 64  1  0  0  0
 39 67  2  0  0  0
 40 52  1  0  0  0
 40 53  2  0  0  0
 40 58  1  0  0  0
 41108  1  0  0  0
 41109  1  0  0  0
 41110  1  0  0  0
 41 48  1  0  0  0
 42 43  1  0  0  0
 42 66  1  0  0  0
 42111  1  0  0  0
 42112  1  0  0  0
 43 44  1  0  0  0
 44113  1  0  0  0
 45 46  2  0  0  0
 45114  1  0  0  0
 46115  1  0  0  0
 47116  1  0  0  0
 47117  1  0  0  0
 48 56  1  0  0  0
 48 65  1  0  0  0
 48118  1  0  0  0
 49 50  1  0  0  0
 49 53  1  0  0  0
 49 64  1  0  0  0
 49119  1  0  0  0
 50 51  1  0  0  0
 50120  1  0  0  0
 50121  1  0  0  0
 51 52  1  0  0  0
 51122  1  0  0  0
 51123  1  0  0  0
 52124  1  0  0  0
 52125  1  0  0  0
 53 54  1  0  0  0
 54 55  2  0  0  0
 54126  1  0  0  0
 55 57  1  0  0  0
 55127  1  0  0  0
 56 69  2  0  0  0
 57 58  2  0  0  0
 57128  1  0  0  0
 58129  1  0  0  0
 59 60  1  0  0  0
 59 61  1  0  0  0
 59 62  1  0  0  0
 60130  1  0  0  0
 60131  1  0  0  0
 60132  1  0  0  0
 61133  1  0  0  0
 61134  1  0  0  0
 61135  1  0  0  0
 62136  1  0  0  0
 62137  1  0  0  0
 62138  1  0  0  0
 63 65  1  0  0  0
 63139  1  0  0  0
 63140  1  0  0  0
 63141  1  0  0  0
 64142  1  0  0  0
 65143  1  0  0  0
 68 81  1  0  0  0
 71 72  2  0  0  0
 71 73  1  0  0  0
 71 75  1  0  0  0
 72 76  1  0  0  0
 72 82  1  0  0  0
 73 78  1  0  0  0
 73 83  2  0  0  0
 74 79  1  0  0  0
 74 82  2  0  0  0
 74 83  1  0  0  0
 75144  1  0  0  0
 75145  1  0  0  0
 75146  1  0  0  0
 76147  1  0  0  0
 76148  1  0  0  0
 76149  1  0  0  0
 77 84  1  0  0  0
 77150  1  0  0  0
 77151  1  0  0  0
 77152  1  0  0  0
 78 80  1  0  0  0
 78153  1  0  0  0
 78154  1  0  0  0
 79 84  1  0  0  0
 79155  1  0  0  0
 79156  1  0  0  0
 80 81  1  0  0  0
 80157  1  0  0  0
 80158  1  0  0  0
 81159  1  0  0  0
 81160  1  0  0  0
M  ISO  4   1 100  68 101  81 101  84 100
M  END
> <chiral flag>
0

> <version>
0

> <s_m_source_file>
/data/baiqing/PycharmProjects/Reinvent-master-3.2/result/LINK_invent/BTK/process_docking_weight1_custom_sum_contain_oxygen_bond_distance_aromatic_linkinvent_7_9_3/rearranged_h_0054.sdf

> <i_m_source_file_index>
71

> <r_mmod_Potential_Energy-OPLS-2005>
-163.424865722656

> <r_mmod_Stretch_Energy-OPLS-2005>
137.850280761719

> <r_mmod_Bend_Energy-OPLS-2005>
229.817840576172

> <r_mmod_Torsional_Energy-OPLS-2005>
251.924209594727

> <r_mmod_Improper_Torsional_Energy-OPLS-2005>
7.63669013977051

> <r_mmod_Van_der_Waal_Energy-OPLS-2005>
157.517272949219

> <r_mmod_Electrostatic_Energy-OPLS-2005>
-811.46630859375

> <r_mmod_Solvation_Energy-OPLS-2005>
-224.828079223633

> <b_mmod_Minimization_Converged-OPLS-2005>
0

> <r_mmod_RMS_Derivative-OPLS-2005>
7.34824705123901

$$$$
71
                    3D
 Structure written by MMmdl.
160168  0  0  1  0            999 V2000
  -30.7354  -14.4264   20.6215 C   0  0  0  0  0  0
  -30.4199  -12.3019   19.4118 C   0  0  0  0  0  0
  -29.4892  -12.5119   18.2023 C   0  0  0  0  0  0
  -28.0135  -12.3695   18.6185 C   0  0  0  0  0  0
  -27.6636  -13.2056   19.8783 C   0  0  2  0  0  0
  -28.7038  -12.9750   20.9968 C   0  0  0  0  0  0
  -25.2598  -13.8158   20.5693 C   0  0  0  0  0  0
  -24.1847  -13.0434   20.9174 C   0  0  0  0  0  0
  -24.6396  -11.6893   20.8742 C   0  0  0  0  0  0
  -23.9062  -10.4284   21.0399 C   0  0  0  0  0  0
  -24.3613   -9.4205   21.9184 C   0  0  0  0  0  0
  -23.6289   -8.2244   22.0756 C   0  0  0  0  0  0
  -22.4272   -8.0286   21.3548 C   0  0  0  0  0  0
  -21.9908   -9.0255   20.4652 C   0  0  0  0  0  0
  -22.7229  -10.2133   20.3051 C   0  0  0  0  0  0
  -21.6857   -6.0734   22.5276 C   0  0  0  0  0  0
  -21.4021   -6.5636   23.8208 C   0  0  0  0  0  0
  -21.3665   -5.6789   24.9171 C   0  0  0  0  0  0
  -21.6041   -4.3052   24.7220 C   0  0  0  0  0  0
  -21.8816   -3.8144   23.4338 C   0  0  0  0  0  0
  -21.9195   -4.6963   22.3396 C   0  0  0  0  0  0
  -22.7870  -13.5246   21.1827 C   0  0  0  0  0  0
  -22.1662   -4.2145   21.0973 F   0  0  0  0  0  0
  -21.5628   -3.4532   25.7733 F   0  0  0  0  0  0
  -30.0382  -13.2735   20.4476 N   0  0  0  0  0  0
  -26.3038  -12.9327   20.3391 N   0  0  0  0  0  0
  -25.9330  -11.6485   20.5780 N   0  0  0  0  0  0
  -22.0502  -12.8254   22.0393 N   0  0  0  0  0  0
  -25.4324  -15.1871   20.4126 N   0  0  0  0  0  0
  -31.8189  -14.6441   20.0713 O   0  0  0  0  0  0
  -21.6640   -6.8877   21.4239 O   0  0  0  0  0  0
  -22.3560  -14.5546   20.6669 O   0  0  0  0  0  0
  -24.6102  -31.8691   23.2114 C   0  0  0  0  0  0
  -25.9011  -32.4826   23.8387 C   0  0  1  0  0  0
  -27.2359  -27.4434   20.0925 C   0  0  0  0  0  0
  -25.5881  -33.8626   24.2325 N   0  0  0  0  0  0
  -23.3955  -30.4931   21.5517 C   0  0  2  0  0  0
  -24.8398  -28.9557   20.1182 C   0  0  0  0  0  0
  -22.7378  -29.4667   22.5009 C   0  0  0  0  0  0
  -18.0259  -28.1361   22.8493 C   0  0  0  0  0  0
  -24.1482  -36.7313   23.2640 C   0  0  0  0  0  0
  -25.9212  -30.8356   21.3635 C   0  0  0  0  0  0
  -25.9953  -29.4676   20.7183 C   0  0  0  0  0  0
  -27.1887  -28.7144   20.7109 C   0  0  0  0  0  0
  -26.0604  -26.9501   19.4761 C   0  0  0  0  0  0
  -24.8649  -27.6930   19.5008 C   0  0  0  0  0  0
  -23.6018  -29.8221   20.1667 C   0  0  0  0  0  0
  -25.4105  -36.3117   24.0339 C   0  0  1  0  0  0
  -20.5847  -28.3639   23.1328 C   0  0  2  0  0  0
  -20.6744  -26.9382   22.5420 C   0  0  0  0  0  0
  -19.5729  -26.6377   21.5204 C   0  0  0  0  0  0
  -18.1908  -26.7908   22.1621 C   0  0  0  0  0  0
  -19.1510  -28.8817   23.2907 C   0  0  0  0  0  0
  -18.9445  -30.1428   23.8914 C   0  0  0  0  0  0
  -17.6454  -30.6577   24.0562 C   0  0  0  0  0  0
  -25.9033  -34.9482   23.5132 C   0  0  0  0  0  0
  -16.5342  -29.9083   23.6322 C   0  0  0  0  0  0
  -16.7254  -28.6495   23.0346 C   0  0  0  0  0  0
  -26.4458  -31.6601   25.0706 C   0  0  0  0  0  0
  -25.3743  -31.3693   26.1466 C   0  0  0  0  0  0
  -27.0287  -30.3053   24.6058 C   0  0  0  0  0  0
  -27.6040  -32.4315   25.7458 C   0  0  0  0  0  0
  -27.5577  -37.1807   24.8471 C   0  0  0  0  0  0
  -21.4110  -29.3020   22.3746 N   0  0  0  0  0  0
  -26.4293  -37.3796   23.9411 N   0  0  0  0  0  0
  -24.6602  -31.0806   22.1009 N   0  0  0  0  0  0
  -23.4163  -28.8209   23.3037 O   0  0  0  0  0  0
  -28.4578  -26.7927   20.0773 O   0  0  0  0  0  0
  -26.5604  -34.8933   22.4699 O   0  0  0  0  0  0
  -23.5308  -32.1441   23.7531 O   0  0  0  0  0  0
  -29.8955  -24.0512   18.5062 C   0  0  0  0  0  0
  -28.0597  -23.2926   19.8156 C   0  0  0  0  0  0
  -29.1329  -22.9678   18.9683 C   0  0  0  0  0  0
  -28.5942  -25.5098   19.6681 C   0  0  0  0  0  0
  -31.5681  -21.4063   20.4388 C   0  0  0  0  0  0
  -29.4376  -21.5555   18.4582 C   0  0  0  0  0  0
  -30.0920  -17.8624   20.9958 C   0  0  0  0  0  0
  -30.7325  -16.6639   21.7415 C   0  0  0  0  0  0
  -29.4858  -20.3638   19.4598 C   0  0  0  0  0  0
  -31.0346  -19.0962   21.0085 C   0  0  0  0  0  0
  -29.6319  -25.3146   18.8690 N   0  0  0  0  0  0
  -27.8120  -24.5651   20.1867 N   0  0  0  0  0  0
  -30.1507  -15.3588   21.3921 N   0  0  0  0  0  0
  -30.4689  -20.4169   20.5889 N   0  3  1  0  0  0
  -31.4625  -12.3998   19.1063 H   0  0  0  0  0  0
  -30.3245  -11.2868   19.7996 H   0  0  0  0  0  0
  -29.7265  -11.7935   17.4175 H   0  0  0  0  0  0
  -29.6572  -13.5013   17.7730 H   0  0  0  0  0  0
  -27.8278  -11.3127   18.8161 H   0  0  0  0  0  0
  -27.3578  -12.6441   17.7910 H   0  0  0  0  0  0
  -27.7127  -14.2544   19.5873 H   0  0  0  0  0  0
  -28.6768  -11.9367   21.3296 H   0  0  0  0  0  0
  -28.4610  -13.5678   21.8791 H   0  0  0  0  0  0
  -25.2752   -9.5687   22.4764 H   0  0  0  0  0  0
  -23.9995   -7.4638   22.7476 H   0  0  0  0  0  0
  -21.0835   -8.8767   19.8965 H   0  0  0  0  0  0
  -22.3675  -10.9676   19.6166 H   0  0  0  0  0  0
  -21.2018   -7.6144   23.9713 H   0  0  0  0  0  0
  -21.1495   -6.0518   25.9076 H   0  0  0  0  0  0
  -22.0595   -2.7603   23.2833 H   0  0  0  0  0  0
  -22.4106  -11.9917   22.4791 H   0  0  0  0  0  0
  -21.1130  -13.1304   22.2595 H   0  0  0  0  0  0
  -24.6666  -15.8439   20.5187 H   0  0  0  0  0  0
  -26.2893  -15.6278   20.1029 H   0  0  0  0  0  0
  -26.7076  -32.5543   23.1146 H   0  0  0  0  0  0
  -25.0013  -33.9781   25.0454 H   0  0  0  0  0  0
  -22.6826  -31.3088   21.4136 H   0  0  0  0  0  0
  -23.3743  -35.9648   23.3325 H   0  0  0  0  0  0
  -24.3577  -36.8906   22.2051 H   0  0  0  0  0  0
  -23.7236  -37.6526   23.6641 H   0  0  0  0  0  0
  -26.0294  -31.5976   20.5898 H   0  0  0  0  0  0
  -26.8119  -30.8926   21.9777 H   0  0  0  0  0  0
  -28.0821  -29.1120   21.1728 H   0  0  0  0  0  0
  -26.0500  -25.9973   18.9683 H   0  0  0  0  0  0
  -23.9762  -27.2926   19.0326 H   0  0  0  0  0  0
  -23.7069  -30.5949   19.4041 H   0  0  0  0  0  0
  -22.7250  -29.2403   19.8753 H   0  0  0  0  0  0
  -25.1281  -36.1984   25.0835 H   0  0  0  0  0  0
  -20.9936  -28.3200   24.1447 H   0  0  0  0  0  0
  -20.5619  -26.2252   23.3600 H   0  0  0  0  0  0
  -21.6618  -26.7408   22.1232 H   0  0  0  0  0  0
  -19.6892  -25.6294   21.1214 H   0  0  0  0  0  0
  -19.6673  -27.3203   20.6747 H   0  0  0  0  0  0
  -17.4175  -26.6648   21.4030 H   0  0  0  0  0  0
  -18.0327  -26.0040   22.9012 H   0  0  0  0  0  0
  -19.7930  -30.7230   24.2289 H   0  0  0  0  0  0
  -17.5018  -31.6261   24.5155 H   0  0  0  0  0  0
  -15.5347  -30.2995   23.7635 H   0  0  0  0  0  0
  -15.8648  -28.0824   22.7050 H   0  0  0  0  0  0
  -24.5913  -30.7039   25.7815 H   0  0  0  0  0  0
  -24.8931  -32.2841   26.4936 H   0  0  0  0  0  0
  -25.8111  -30.8855   27.0210 H   0  0  0  0  0  0
  -26.2817  -29.6806   24.1145 H   0  0  0  0  0  0
  -27.4114  -29.7291   25.4493 H   0  0  0  0  0  0
  -27.8626  -30.4389   23.9161 H   0  0  0  0  0  0
  -27.2668  -33.3603   26.2068 H   0  0  0  0  0  0
  -28.3826  -32.6891   25.0269 H   0  0  0  0  0  0
  -28.0732  -31.8419   26.5342 H   0  0  0  0  0  0
  -28.2617  -38.0082   24.7507 H   0  0  0  0  0  0
  -28.1048  -36.2616   24.6313 H   0  0  0  0  0  0
  -27.2292  -37.1484   25.8873 H   0  0  0  0  0  0
  -20.9255  -29.8761   21.6997 H   0  0  0  0  0  0
  -26.0187  -38.2880   24.1410 H   0  0  0  0  0  0
  -30.7305  -23.9070   17.8365 H   0  0  0  0  0  0
  -27.3939  -22.5334   20.1985 H   0  0  0  0  0  0
  -31.2039  -22.4301   20.4679 H   0  0  0  0  0  0
  -32.1231  -21.2565   19.5118 H   0  0  0  0  0  0
  -32.2823  -21.3207   21.2586 H   0  0  0  0  0  0
  -30.3721  -21.5800   17.8940 H   0  0  0  0  0  0
  -28.6767  -21.3273   17.7109 H   0  0  0  0  0  0
  -29.8838  -17.5735   19.9661 H   0  0  0  0  0  0
  -29.1335  -18.1070   21.4548 H   0  0  0  0  0  0
  -30.6253  -16.8126   22.8164 H   0  0  0  0  0  0
  -31.8096  -16.6499   21.5586 H   0  0  0  0  0  0
  -29.7133  -19.4904   18.8486 H   0  0  0  0  0  0
  -28.4935  -20.1836   19.8762 H   0  0  0  0  0  0
  -31.4246  -19.2184   22.0202 H   0  0  0  0  0  0
  -31.8976  -18.8704   20.3778 H   0  0  0  0  0  0
  -29.2585  -15.1185   21.7994 H   0  0  0  0  0  0
  -29.9370  -20.7407   21.3834 H   0  0  0  0  0  0
  1 25  1  0  0  0
  1 30  2  0  0  0
  1 83  1  0  0  0
  2  3  1  0  0  0
  2 25  1  0  0  0
  2 85  1  0  0  0
  2 86  1  0  0  0
  3  4  1  0  0  0
  3 87  1  0  0  0
  3 88  1  0  0  0
  4  5  1  0  0  0
  4 89  1  0  0  0
  4 90  1  0  0  0
  5  6  1  0  0  0
  5 26  1  0  0  0
  5 91  1  0  0  0
  6 25  1  0  0  0
  6 92  1  0  0  0
  6 93  1  0  0  0
  7  8  2  0  0  0
  7 26  1  0  0  0
  7 29  1  0  0  0
  8  9  1  0  0  0
  8 22  1  0  0  0
  9 10  1  0  0  0
  9 27  2  0  0  0
 10 11  2  0  0  0
 10 15  1  0  0  0
 11 12  1  0  0  0
 11 94  1  0  0  0
 12 13  2  0  0  0
 12 95  1  0  0  0
 13 14  1  0  0  0
 13 31  1  0  0  0
 14 15  2  0  0  0
 14 96  1  0  0  0
 15 97  1  0  0  0
 16 17  2  0  0  0
 16 21  1  0  0  0
 16 31  1  0  0  0
 17 18  1  0  0  0
 17 98  1  0  0  0
 18 19  2  0  0  0
 18 99  1  0  0  0
 19 20  1  0  0  0
 19 24  1  0  0  0
 20 21  2  0  0  0
 20100  1  0  0  0
 21 23  1  0  0  0
 22 28  1  0  0  0
 22 32  2  0  0  0
 26 27  1  0  0  0
 28101  1  0  0  0
 28102  1  0  0  0
 29103  1  0  0  0
 29104  1  0  0  0
 33 34  1  0  0  0
 33 66  1  0  0  0
 33 70  2  0  0  0
 34 36  1  0  0  0
 34 59  1  0  0  0
 34105  1  0  0  0
 35 44  2  0  0  0
 35 45  1  0  0  0
 35 68  1  0  0  0
 36 56  1  0  0  0
 36106  1  0  0  0
 37 39  1  0  0  0
 37 47  1  0  0  0
 37 66  1  0  0  0
 37107  1  0  0  0
 38 43  2  0  0  0
 38 46  1  0  0  0
 38 47  1  0  0  0
 39 64  1  0  0  0
 39 67  2  0  0  0
 40 52  1  0  0  0
 40 53  2  0  0  0
 40 58  1  0  0  0
 41108  1  0  0  0
 41109  1  0  0  0
 41110  1  0  0  0
 41 48  1  0  0  0
 42 43  1  0  0  0
 42 66  1  0  0  0
 42111  1  0  0  0
 42112  1  0  0  0
 43 44  1  0  0  0
 44113  1  0  0  0
 45 46  2  0  0  0
 45114  1  0  0  0
 46115  1  0  0  0
 47116  1  0  0  0
 47117  1  0  0  0
 48 56  1  0  0  0
 48 65  1  0  0  0
 48118  1  0  0  0
 49 50  1  0  0  0
 49 53  1  0  0  0
 49 64  1  0  0  0
 49119  1  0  0  0
 50 51  1  0  0  0
 50120  1  0  0  0
 50121  1  0  0  0
 51 52  1  0  0  0
 51122  1  0  0  0
 51123  1  0  0  0
 52124  1  0  0  0
 52125  1  0  0  0
 53 54  1  0  0  0
 54 55  2  0  0  0
 54126  1  0  0  0
 55 57  1  0  0  0
 55127  1  0  0  0
 56 69  2  0  0  0
 57 58  2  0  0  0
 57128  1  0  0  0
 58129  1  0  0  0
 59 60  1  0  0  0
 59 61  1  0  0  0
 59 62  1  0  0  0
 60130  1  0  0  0
 60131  1  0  0  0
 60132  1  0  0  0
 61133  1  0  0  0
 61134  1  0  0  0
 61135  1  0  0  0
 62136  1  0  0  0
 62137  1  0  0  0
 62138  1  0  0  0
 63 65  1  0  0  0
 63139  1  0  0  0
 63140  1  0  0  0
 63141  1  0  0  0
 64142  1  0  0  0
 65143  1  0  0  0
 68 74  1  0  0  0
 71 73  2  0  0  0
 71 81  1  0  0  0
 71144  1  0  0  0
 72 73  1  0  0  0
 72 82  2  0  0  0
 72145  1  0  0  0
 73 76  1  0  0  0
 74 81  2  0  0  0
 74 82  1  0  0  0
 75146  1  0  0  0
 75147  1  0  0  0
 75148  1  0  0  0
 75 84  1  0  0  0
 76 79  1  0  0  0
 76149  1  0  0  0
 76150  1  0  0  0
 77 78  1  0  0  0
 77 80  1  0  0  0
 77151  1  0  0  0
 77152  1  0  0  0
 78 83  1  0  0  0
 78153  1  0  0  0
 78154  1  0  0  0
 79 84  1  0  0  0
 79155  1  0  0  0
 79156  1  0  0  0
 80 84  1  0  0  0
 80157  1  0  0  0
 80158  1  0  0  0
 83159  1  0  0  0
 84160  1  0  0  0
M  CHG  1  84   1
M  ISO  4   1 100  68 101  74 101  83 100
M  END
> <chiral flag>
0

> <version>
0

> <s_m_source_file>
/data/baiqing/PycharmProjects/Reinvent-master-3.2/result/LINK_invent/BTK/process_docking_weight1_custom_sum_contain_oxygen_bond_distance_aromatic_linkinvent_7_9_3/rearranged_h_0054.sdf

> <i_m_source_file_index>
72

> <r_mmod_Potential_Energy-OPLS-2005>
-531.318237304688

> <r_mmod_Stretch_Energy-OPLS-2005>
36.2174758911133

> <r_mmod_Bend_Energy-OPLS-2005>
130.592727661133

> <r_mmod_Torsional_Energy-OPLS-2005>
228.150329589844

> <r_mmod_Improper_Torsional_Energy-OPLS-2005>
2.94306588172913

> <r_mmod_Van_der_Waal_Energy-OPLS-2005>
174.103424072266

> <r_mmod_Electrostatic_Energy-OPLS-2005>
-636.741882324219

> <r_mmod_Solvation_Energy-OPLS-2005>
-476.174194335938

> <b_mmod_Minimization_Converged-OPLS-2005>
0

> <r_mmod_RMS_Derivative-OPLS-2005>
1.78927481174469

$$$$
72
                    3D
 Structure written by MMmdl.
144152  0  0  1  0            999 V2000
  -30.3766  -15.3002   20.3786 C   0  0  0  0  0  0
  -30.4517  -12.8222   19.5407 C   0  0  0  0  0  0
  -29.5481  -12.5941   18.2989 C   0  0  0  0  0  0
  -28.0942  -12.3083   18.7166 C   0  0  0  0  0  0
  -27.6172  -13.2760   19.8267 C   0  0  2  0  0  0
  -28.6464  -13.4362   20.9653 C   0  0  0  0  0  0
  -25.2413  -13.8245   20.5737 C   0  0  0  0  0  0
  -24.1759  -13.0435   20.9239 C   0  0  0  0  0  0
  -24.6412  -11.6932   20.8741 C   0  0  0  0  0  0
  -23.9102  -10.4293   21.0395 C   0  0  0  0  0  0
  -24.3642   -9.4208   21.9178 C   0  0  0  0  0  0
  -23.6307   -8.2248   22.0753 C   0  0  0  0  0  0
  -22.4288   -8.0286   21.3545 C   0  0  0  0  0  0
  -21.9930   -9.0261   20.4645 C   0  0  0  0  0  0
  -22.7268  -10.2134   20.3049 C   0  0  0  0  0  0
  -21.6858   -6.0740   22.5279 C   0  0  0  0  0  0
  -21.4018   -6.5642   23.8213 C   0  0  0  0  0  0
  -21.3661   -5.6794   24.9174 C   0  0  0  0  0  0
  -21.6044   -4.3056   24.7224 C   0  0  0  0  0  0
  -21.8819   -3.8149   23.4345 C   0  0  0  0  0  0
  -21.9194   -4.6966   22.3401 C   0  0  0  0  0  0
  -22.7775  -13.5188   21.1896 C   0  0  0  0  0  0
  -22.1662   -4.2152   21.0979 F   0  0  0  0  0  0
  -21.5628   -3.4539   25.7736 F   0  0  0  0  0  0
  -29.8874  -13.9559   20.3655 N   0  0  0  0  0  0
  -26.2844  -12.9521   20.3204 N   0  0  0  0  0  0
  -25.9352  -11.6625   20.5695 N   0  0  0  0  0  0
  -22.0436  -12.8169   22.0452 N   0  0  0  0  0  0
  -25.4056  -15.1983   20.4202 N   0  0  0  0  0  0
  -31.5798  -15.3425   20.0716 O   0  0  0  0  0  0
  -21.6647   -6.8886   21.4243 O   0  0  0  0  0  0
  -22.3451  -14.5490   20.6741 O   0  0  0  0  0  0
  -24.6644  -31.8207   23.1675 C   0  0  0  0  0  0
  -25.9316  -32.4572   23.8151 C   0  0  1  0  0  0
  -27.2251  -26.9078   20.1889 C   0  0  0  0  0  0
  -25.5974  -33.8388   24.2055 N   0  0  0  0  0  0
  -23.4808  -30.4297   21.5169 C   0  0  2  0  0  0
  -24.9360  -28.8101   20.1118 C   0  0  0  0  0  0
  -22.7675  -29.4422   22.4773 C   0  0  0  0  0  0
  -18.0323  -28.1410   22.8466 C   0  0  0  0  0  0
  -24.1494  -36.7201   23.2648 C   0  0  0  0  0  0
  -26.0502  -30.6207   21.4006 C   0  0  0  0  0  0
  -26.1190  -29.2077   20.7465 C   0  0  0  0  0  0
  -27.2561  -28.2780   20.7588 C   0  0  0  0  0  0
  -26.0131  -26.6656   19.5036 C   0  0  0  0  0  0
  -24.9096  -27.5604   19.4696 C   0  0  0  0  0  0
  -23.7221  -29.7402   20.1448 C   0  0  0  0  0  0
  -25.4136  -36.2958   24.0297 C   0  0  1  0  0  0
  -20.5948  -28.3755   23.1185 C   0  0  2  0  0  0
  -20.6798  -26.9434   22.5404 C   0  0  0  0  0  0
  -19.5773  -26.6376   21.5215 C   0  0  0  0  0  0
  -18.1955  -26.7942   22.1622 C   0  0  0  0  0  0
  -19.1585  -28.8904   23.2811 C   0  0  0  0  0  0
  -18.9495  -30.1493   23.8848 C   0  0  0  0  0  0
  -17.6488  -30.6598   24.0554 C   0  0  0  0  0  0
  -25.9102  -34.9342   23.5001 C   0  0  0  0  0  0
  -16.5378  -29.9085   23.6344 C   0  0  0  0  0  0
  -16.7305  -28.6505   23.0363 C   0  0  0  0  0  0
  -26.4561  -31.6530   25.0692 C   0  0  0  0  0  0
  -25.3682  -31.3787   26.1343 C   0  0  0  0  0  0
  -27.0466  -30.2895   24.6444 C   0  0  0  0  0  0
  -27.6045  -32.4349   25.7498 C   0  0  0  0  0  0
  -27.5570  -37.1757   24.8466 C   0  0  0  0  0  0
  -21.4342  -29.3038   22.3527 N   0  0  0  0  0  0
  -26.4279  -37.3698   23.9408 N   0  0  0  0  0  0
  -24.7532  -30.9848   22.0820 N   0  0  0  0  0  0
  -23.4212  -28.8001   23.3031 O   0  0  0  0  0  0
  -28.2327  -25.8024   20.2831 O   0  0  0  0  0  0
  -26.5720  -34.8883   22.4602 O   0  0  0  0  0  0
  -23.5710  -32.1186   23.6756 O   0  0  0  0  0  0
  -29.1582  -19.7238   21.0590 C   0  0  0  0  0  0
  -29.0835  -20.9462   20.2619 C   0  0  0  0  0  0
  -29.0335  -22.7019   20.5343 C   0  0  0  0  0  0
  -29.4843  -16.7889   20.7349 C   0  0  0  0  0  0
  -28.0541  -24.1600   20.0621 C   0  0  0  0  0  0
  -29.4208  -20.3078   19.0332 N   0  0  0  0  0  0
  -29.5956  -18.9601   19.0793 N   0  0  0  0  0  0
  -29.5086  -18.4457   20.3537 N   0  0  0  0  0  0
  -31.4695  -13.0366   19.2128 H   0  0  0  0  0  0
  -30.5256  -11.9109   20.1364 H   0  0  0  0  0  0
  -29.9339  -11.7736   17.6926 H   0  0  0  0  0  0
  -29.5762  -13.4827   17.6665 H   0  0  0  0  0  0
  -28.0506  -11.2819   19.0827 H   0  0  0  0  0  0
  -27.4301  -12.3548   17.8527 H   0  0  0  0  0  0
  -27.5372  -14.2471   19.3370 H   0  0  0  0  0  0
  -28.8111  -12.4936   21.4894 H   0  0  0  0  0  0
  -28.2775  -14.1425   21.7105 H   0  0  0  0  0  0
  -25.2785   -9.5683   22.4757 H   0  0  0  0  0  0
  -24.0011   -7.4640   22.7477 H   0  0  0  0  0  0
  -21.0860   -8.8785   19.8952 H   0  0  0  0  0  0
  -22.3727  -10.9673   19.6159 H   0  0  0  0  0  0
  -21.2012   -7.6150   23.9717 H   0  0  0  0  0  0
  -21.1483   -6.0523   25.9077 H   0  0  0  0  0  0
  -22.0596   -2.7611   23.2844 H   0  0  0  0  0  0
  -22.4071  -11.9838   22.4840 H   0  0  0  0  0  0
  -21.1048  -13.1175   22.2657 H   0  0  0  0  0  0
  -24.6362  -15.8486   20.5383 H   0  0  0  0  0  0
  -26.2507  -15.6431   20.0868 H   0  0  0  0  0  0
  -26.7386  -32.5105   23.0865 H   0  0  0  0  0  0
  -25.0060  -33.9461   25.0165 H   0  0  0  0  0  0
  -22.7951  -31.2616   21.3427 H   0  0  0  0  0  0
  -23.3769  -35.9518   23.3275 H   0  0  0  0  0  0
  -24.3569  -36.8886   22.2069 H   0  0  0  0  0  0
  -23.7239  -37.6373   23.6731 H   0  0  0  0  0  0
  -26.2318  -31.3601   20.6195 H   0  0  0  0  0  0
  -26.9094  -30.6797   22.0567 H   0  0  0  0  0  0
  -28.1504  -28.5808   21.2850 H   0  0  0  0  0  0
  -25.8865  -25.7097   19.0160 H   0  0  0  0  0  0
  -24.0109  -27.2498   18.9544 H   0  0  0  0  0  0
  -23.8783  -30.5065   19.3846 H   0  0  0  0  0  0
  -22.8317  -29.1943   19.8281 H   0  0  0  0  0  0
  -25.1336  -36.1749   25.0788 H   0  0  0  0  0  0
  -21.0036  -28.3365   24.1309 H   0  0  0  0  0  0
  -20.5675  -26.2374   23.3647 H   0  0  0  0  0  0
  -21.6661  -26.7405   22.1213 H   0  0  0  0  0  0
  -19.6931  -25.6273   21.1278 H   0  0  0  0  0  0
  -19.6713  -27.3158   20.6723 H   0  0  0  0  0  0
  -17.4224  -26.6685   21.4026 H   0  0  0  0  0  0
  -18.0349  -26.0096   22.9030 H   0  0  0  0  0  0
  -19.7970  -30.7323   24.2195 H   0  0  0  0  0  0
  -17.5039  -31.6273   24.5166 H   0  0  0  0  0  0
  -15.5376  -30.2970   23.7696 H   0  0  0  0  0  0
  -15.8706  -28.0807   22.7107 H   0  0  0  0  0  0
  -24.5880  -30.7121   25.7651 H   0  0  0  0  0  0
  -24.8853  -32.2991   26.4638 H   0  0  0  0  0  0
  -25.7907  -30.9040   27.0208 H   0  0  0  0  0  0
  -26.3139  -29.6559   24.1433 H   0  0  0  0  0  0
  -27.3970  -29.7273   25.5110 H   0  0  0  0  0  0
  -27.9089  -30.4071   23.9880 H   0  0  0  0  0  0
  -27.2606  -33.3696   26.1941 H   0  0  0  0  0  0
  -28.3927  -32.6838   25.0380 H   0  0  0  0  0  0
  -28.0636  -31.8568   26.5528 H   0  0  0  0  0  0
  -28.2565  -38.0074   24.7515 H   0  0  0  0  0  0
  -28.1088  -36.2599   24.6291 H   0  0  0  0  0  0
  -27.2285  -37.1395   25.8867 H   0  0  0  0  0  0
  -20.9603  -29.8717   21.6642 H   0  0  0  0  0  0
  -26.0124  -38.2754   24.1418 H   0  0  0  0  0  0
  -28.9993  -19.6599   22.1291 H   0  0  0  0  0  0
  -30.0351  -23.0225   20.2489 H   0  0  0  0  0  0
  -29.0594  -22.7954   21.6197 H   0  0  0  0  0  0
  -28.4662  -16.4960   20.4826 H   0  0  0  0  0  0
  -29.4811  -16.7820   21.8240 H   0  0  0  0  0  0
  -27.0528  -23.9534   20.4403 H   0  0  0  0  0  0
  -27.9499  -24.0747   18.9804 H   0  0  0  0  0  0
  1 25  1  0  0  0
  1 30  2  0  0  0
  1 74  1  0  0  0
  2  3  1  0  0  0
  2 25  1  0  0  0
  2 79  1  0  0  0
  2 80  1  0  0  0
  3  4  1  0  0  0
  3 81  1  0  0  0
  3 82  1  0  0  0
  4  5  1  0  0  0
  4 83  1  0  0  0
  4 84  1  0  0  0
  5  6  1  0  0  0
  5 26  1  0  0  0
  5 85  1  0  0  0
  6 25  1  0  0  0
  6 86  1  0  0  0
  6 87  1  0  0  0
  7  8  2  0  0  0
  7 26  1  0  0  0
  7 29  1  0  0  0
  8  9  1  0  0  0
  8 22  1  0  0  0
  9 10  1  0  0  0
  9 27  2  0  0  0
 10 11  2  0  0  0
 10 15  1  0  0  0
 11 12  1  0  0  0
 11 88  1  0  0  0
 12 13  2  0  0  0
 12 89  1  0  0  0
 13 14  1  0  0  0
 13 31  1  0  0  0
 14 15  2  0  0  0
 14 90  1  0  0  0
 15 91  1  0  0  0
 16 17  2  0  0  0
 16 21  1  0  0  0
 16 31  1  0  0  0
 17 18  1  0  0  0
 17 92  1  0  0  0
 18 19  2  0  0  0
 18 93  1  0  0  0
 19 20  1  0  0  0
 19 24  1  0  0  0
 20 21  2  0  0  0
 20 94  1  0  0  0
 21 23  1  0  0  0
 22 28  1  0  0  0
 22 32  2  0  0  0
 26 27  1  0  0  0
 28 95  1  0  0  0
 28 96  1  0  0  0
 29 97  1  0  0  0
 29 98  1  0  0  0
 33 34  1  0  0  0
 33 66  1  0  0  0
 33 70  2  0  0  0
 34 36  1  0  0  0
 34 59  1  0  0  0
 34 99  1  0  0  0
 35 44  2  0  0  0
 35 45  1  0  0  0
 35 68  1  0  0  0
 36 56  1  0  0  0
 36100  1  0  0  0
 37 39  1  0  0  0
 37 47  1  0  0  0
 37 66  1  0  0  0
 37101  1  0  0  0
 38 43  2  0  0  0
 38 46  1  0  0  0
 38 47  1  0  0  0
 39 64  1  0  0  0
 39 67  2  0  0  0
 40 52  1  0  0  0
 40 53  2  0  0  0
 40 58  1  0  0  0
 41102  1  0  0  0
 41103  1  0  0  0
 41104  1  0  0  0
 41 48  1  0  0  0
 42 43  1  0  0  0
 42 66  1  0  0  0
 42105  1  0  0  0
 42106  1  0  0  0
 43 44  1  0  0  0
 44107  1  0  0  0
 45 46  2  0  0  0
 45108  1  0  0  0
 46109  1  0  0  0
 47110  1  0  0  0
 47111  1  0  0  0
 48 56  1  0  0  0
 48 65  1  0  0  0
 48112  1  0  0  0
 49 50  1  0  0  0
 49 53  1  0  0  0
 49 64  1  0  0  0
 49113  1  0  0  0
 50 51  1  0  0  0
 50114  1  0  0  0
 50115  1  0  0  0
 51 52  1  0  0  0
 51116  1  0  0  0
 51117  1  0  0  0
 52118  1  0  0  0
 52119  1  0  0  0
 53 54  1  0  0  0
 54 55  2  0  0  0
 54120  1  0  0  0
 55 57  1  0  0  0
 55121  1  0  0  0
 56 69  2  0  0  0
 57 58  2  0  0  0
 57122  1  0  0  0
 58123  1  0  0  0
 59 60  1  0  0  0
 59 61  1  0  0  0
 59 62  1  0  0  0
 60124  1  0  0  0
 60125  1  0  0  0
 60126  1  0  0  0
 61127  1  0  0  0
 61128  1  0  0  0
 61129  1  0  0  0
 62130  1  0  0  0
 62131  1  0  0  0
 62132  1  0  0  0
 63 65  1  0  0  0
 63133  1  0  0  0
 63134  1  0  0  0
 63135  1  0  0  0
 64136  1  0  0  0
 65137  1  0  0  0
 68 75  1  0  0  0
 71 72  2  0  0  0
 71 78  1  0  0  0
 71138  1  0  0  0
 72 73  1  0  0  0
 72 76  1  0  0  0
 73 75  1  0  0  0
 73139  1  0  0  0
 73140  1  0  0  0
 74 78  1  0  0  0
 74141  1  0  0  0
 74142  1  0  0  0
 75143  1  0  0  0
 75144  1  0  0  0
 76 77  2  0  0  0
 77 78  1  0  0  0
M  ISO  4   1 100  68 101  74 100  75 101
M  END
> <chiral flag>
0

> <version>
0

> <s_m_source_file>
/data/baiqing/PycharmProjects/Reinvent-master-3.2/result/LINK_invent/BTK/process_docking_weight1_custom_sum_contain_oxygen_bond_distance_aromatic_linkinvent_7_9_3/rearranged_h_0054.sdf

> <i_m_source_file_index>
73

> <r_mmod_Potential_Energy-OPLS-2005>
1362.30639648438

> <r_mmod_Stretch_Energy-OPLS-2005>
627.548400878906

> <r_mmod_Bend_Energy-OPLS-2005>
486.677856445312

> <r_mmod_Torsional_Energy-OPLS-2005>
183.425109863281

> <r_mmod_Improper_Torsional_Energy-OPLS-2005>
4.51959848403931

> <r_mmod_Van_der_Waal_Energy-OPLS-2005>
104.507263183594

> <r_mmod_Electrostatic_Energy-OPLS-2005>
-304.607238769531

> <r_mmod_Solvation_Energy-OPLS-2005>
-231.691940307617

> <b_mmod_Minimization_Converged-OPLS-2005>
1

> <r_mmod_RMS_Derivative-OPLS-2005>
0.0246558394283056

$$$$
73
                    3D
 Structure written by MMmdl.
155163  0  0  1  0            999 V2000
  -30.5731  -14.8823   20.4787 C   0  0  0  0  0  0
  -30.4363  -12.5555   19.4902 C   0  0  0  0  0  0
  -29.5151  -12.5400   18.2473 C   0  0  0  0  0  0
  -28.0435  -12.3340   18.6568 C   0  0  0  0  0  0
  -27.6347  -13.2357   19.8509 C   0  0  2  0  0  0
  -28.6791  -13.1739   20.9837 C   0  0  0  0  0  0
  -25.2455  -13.8182   20.5664 C   0  0  0  0  0  0
  -24.1766  -13.0424   20.9202 C   0  0  0  0  0  0
  -24.6375  -11.6909   20.8748 C   0  0  0  0  0  0
  -23.9063  -10.4287   21.0408 C   0  0  0  0  0  0
  -24.3619   -9.4204   21.9183 C   0  0  0  0  0  0
  -23.6295   -8.2238   22.0753 C   0  0  0  0  0  0
  -22.4277   -8.0273   21.3543 C   0  0  0  0  0  0
  -21.9910   -9.0246   20.4645 C   0  0  0  0  0  0
  -22.7236  -10.2125   20.3056 C   0  0  0  0  0  0
  -21.6854   -6.0734   22.5281 C   0  0  0  0  0  0
  -21.4015   -6.5640   23.8214 C   0  0  0  0  0  0
  -21.3663   -5.6793   24.9175 C   0  0  0  0  0  0
  -21.6045   -4.3056   24.7224 C   0  0  0  0  0  0
  -21.8821   -3.8147   23.4348 C   0  0  0  0  0  0
  -21.9194   -4.6963   22.3404 C   0  0  0  0  0  0
  -22.7794  -13.5204   21.1870 C   0  0  0  0  0  0
  -22.1662   -4.2153   21.0980 F   0  0  0  0  0  0
  -21.5630   -3.4536   25.7735 F   0  0  0  0  0  0
  -29.9548  -13.6308   20.4080 N   0  0  0  0  0  0
  -26.2892  -12.9397   20.3271 N   0  0  0  0  0  0
  -25.9303  -11.6540   20.5747 N   0  0  0  0  0  0
  -22.0456  -12.8188   22.0435 N   0  0  0  0  0  0
  -25.4110  -15.1897   20.4020 N   0  0  0  0  0  0
  -31.7500  -14.9340   20.1003 O   0  0  0  0  0  0
  -21.6643   -6.8871   21.4242 O   0  0  0  0  0  0
  -22.3476  -14.5512   20.6724 O   0  0  0  0  0  0
  -24.6395  -31.8476   23.1902 C   0  0  0  0  0  0
  -25.9182  -32.4713   23.8284 C   0  0  1  0  0  0
  -27.2188  -27.1761   20.1495 C   0  0  0  0  0  0
  -25.5945  -33.8523   24.2207 N   0  0  0  0  0  0
  -23.4410  -30.4669   21.5353 C   0  0  2  0  0  0
  -24.8887  -28.8970   20.1105 C   0  0  0  0  0  0
  -22.7543  -29.4567   22.4873 C   0  0  0  0  0  0
  -18.0305  -28.1398   22.8473 C   0  0  0  0  0  0
  -24.1493  -36.7264   23.2640 C   0  0  0  0  0  0
  -25.9924  -30.7331   21.3826 C   0  0  0  0  0  0
  -26.0631  -29.3476   20.7259 C   0  0  0  0  0  0
  -27.2285  -28.5013   20.7301 C   0  0  0  0  0  0
  -26.0205  -26.8134   19.4971 C   0  0  0  0  0  0
  -24.8773  -27.6419   19.4825 C   0  0  0  0  0  0
  -23.6630  -29.7953   20.1541 C   0  0  0  0  0  0
  -25.4124  -36.3045   24.0317 C   0  0  1  0  0  0
  -20.5913  -28.3718   23.1241 C   0  0  2  0  0  0
  -20.6796  -26.9423   22.5407 C   0  0  0  0  0  0
  -19.5772  -26.6385   21.5215 C   0  0  0  0  0  0
  -18.1948  -26.7937   22.1621 C   0  0  0  0  0  0
  -19.1561  -28.8876   23.2852 C   0  0  0  0  0  0
  -18.9478  -30.1472   23.8875 C   0  0  0  0  0  0
  -17.6474  -30.6591   24.0560 C   0  0  0  0  0  0
  -25.9070  -34.9420   23.5070 C   0  0  0  0  0  0
  -16.5364  -29.9084   23.6340 C   0  0  0  0  0  0
  -16.7291  -28.6508   23.0352 C   0  0  0  0  0  0
  -26.4520  -31.6566   25.0709 C   0  0  0  0  0  0
  -25.3707  -31.3752   26.1405 C   0  0  0  0  0  0
  -27.0380  -30.2968   24.6267 C   0  0  0  0  0  0
  -27.6071  -32.4314   25.7480 C   0  0  0  0  0  0
  -27.5578  -37.1786   24.8463 C   0  0  0  0  0  0
  -21.4239  -29.3045   22.3609 N   0  0  0  0  0  0
  -26.4292  -37.3750   23.9404 N   0  0  0  0  0  0
  -24.7106  -31.0366   22.0916 N   0  0  0  0  0  0
  -23.4201  -28.8122   23.3019 O   0  0  0  0  0  0
  -28.2924  -26.2307   20.2280 O   0  0  0  0  0  0
  -26.5655  -34.8905   22.4646 O   0  0  0  0  0  0
  -23.5524  -32.1336   23.7148 O   0  0  0  0  0  0
  -28.6248  -19.6287   19.6213 C   0  0  0  0  0  0
  -30.1927  -21.1994   21.1588 C   0  0  0  0  0  0
  -28.3728  -21.0604   19.6708 C   0  0  0  0  0  0
  -29.1927  -21.9422   20.4497 C   0  0  0  0  0  0
  -29.6871  -18.9879   20.3375 C   0  0  0  0  0  0
  -27.2395  -21.6359   18.8456 C   0  0  0  0  0  0
  -28.8635  -16.2395   21.7353 C   0  0  0  0  0  0
  -29.1813  -23.5851   20.5583 C   0  0  0  0  0  0
  -30.2576  -17.4767   20.0503 C   0  0  0  0  0  0
  -28.0700  -24.7134   20.0674 C   0  0  0  0  0  0
  -30.4338  -19.8365   21.1054 N   0  0  0  0  0  0
  -29.8502  -16.0987   20.6629 N   0  0  0  0  0  0
  -31.4712  -12.7036   19.1793 H   0  0  0  0  0  0
  -30.4241  -11.5858   19.9900 H   0  0  0  0  0  0
  -29.8245  -11.7575   17.5530 H   0  0  0  0  0  0
  -29.6147  -13.4835   17.7089 H   0  0  0  0  0  0
  -27.9209  -11.2848   18.9285 H   0  0  0  0  0  0
  -27.3838  -12.5059   17.8055 H   0  0  0  0  0  0
  -27.6222  -14.2568   19.4681 H   0  0  0  0  0  0
  -28.7661  -12.1541   21.3621 H   0  0  0  0  0  0
  -28.3640  -13.7548   21.8444 H   0  0  0  0  0  0
  -25.2765   -9.5683   22.4751 H   0  0  0  0  0  0
  -24.0013   -7.4630   22.7465 H   0  0  0  0  0  0
  -21.0847   -8.8755   19.8942 H   0  0  0  0  0  0
  -22.3693  -10.9662   19.6161 H   0  0  0  0  0  0
  -21.2006   -7.6148   23.9716 H   0  0  0  0  0  0
  -21.1484   -6.0523   25.9080 H   0  0  0  0  0  0
  -22.0597   -2.7608   23.2845 H   0  0  0  0  0  0
  -22.4086  -11.9852   22.4821 H   0  0  0  0  0  0
  -21.1074  -13.1202   22.2655 H   0  0  0  0  0  0
  -24.6423  -15.8430   20.5057 H   0  0  0  0  0  0
  -26.2590  -15.6278   20.0671 H   0  0  0  0  0  0
  -26.7243  -32.5328   23.1010 H   0  0  0  0  0  0
  -25.0079  -33.9649   25.0345 H   0  0  0  0  0  0
  -22.7426  -31.2920   21.3828 H   0  0  0  0  0  0
  -23.3760  -35.9589   23.3297 H   0  0  0  0  0  0
  -24.3580  -36.8901   22.2055 H   0  0  0  0  0  0
  -23.7247  -37.6458   23.6679 H   0  0  0  0  0  0
  -26.1429  -31.4879   20.6096 H   0  0  0  0  0  0
  -26.8655  -30.7834   22.0216 H   0  0  0  0  0  0
  -28.1228  -28.8384   21.2351 H   0  0  0  0  0  0
  -25.9380  -25.8523   19.0120 H   0  0  0  0  0  0
  -23.9797  -27.2913   18.9927 H   0  0  0  0  0  0
  -23.7930  -30.5691   19.3967 H   0  0  0  0  0  0
  -22.7786  -29.2332   19.8486 H   0  0  0  0  0  0
  -25.1312  -36.1883   25.0810 H   0  0  0  0  0  0
  -21.0008  -28.3309   24.1365 H   0  0  0  0  0  0
  -20.5704  -26.2324   23.3620 H   0  0  0  0  0  0
  -21.6661  -26.7445   22.1198 H   0  0  0  0  0  0
  -19.6935  -25.6295   21.1255 H   0  0  0  0  0  0
  -19.6719  -27.3184   20.6735 H   0  0  0  0  0  0
  -17.4223  -26.6678   21.4019 H   0  0  0  0  0  0
  -18.0345  -26.0088   22.9027 H   0  0  0  0  0  0
  -19.7954  -30.7298   24.2224 H   0  0  0  0  0  0
  -17.5030  -31.6267   24.5168 H   0  0  0  0  0  0
  -15.5366  -30.2981   23.7680 H   0  0  0  0  0  0
  -15.8691  -28.0826   22.7070 H   0  0  0  0  0  0
  -24.5889  -30.7099   25.7720 H   0  0  0  0  0  0
  -24.8885  -32.2931   26.4775 H   0  0  0  0  0  0
  -25.7983  -30.8958   27.0218 H   0  0  0  0  0  0
  -26.2989  -29.6690   24.1275 H   0  0  0  0  0  0
  -27.4005  -29.7269   25.4832 H   0  0  0  0  0  0
  -27.8889  -30.4216   23.9568 H   0  0  0  0  0  0
  -27.2691  -33.3632   26.2024 H   0  0  0  0  0  0
  -28.3891  -32.6843   25.0308 H   0  0  0  0  0  0
  -28.0724  -31.8456   26.5414 H   0  0  0  0  0  0
  -28.2594  -38.0085   24.7512 H   0  0  0  0  0  0
  -28.1080  -36.2618   24.6292 H   0  0  0  0  0  0
  -27.2296  -37.1430   25.8865 H   0  0  0  0  0  0
  -20.9439  -29.8736   21.6776 H   0  0  0  0  0  0
  -26.0168  -38.2822   24.1404 H   0  0  0  0  0  0
  -28.0208  -19.0165   18.9647 H   0  0  0  0  0  0
  -30.8832  -21.7415   21.7880 H   0  0  0  0  0  0
  -27.6301  -22.2742   18.0533 H   0  0  0  0  0  0
  -26.5746  -22.2298   19.4730 H   0  0  0  0  0  0
  -26.6415  -20.8516   18.3823 H   0  0  0  0  0  0
  -27.8771  -15.9336   21.3916 H   0  0  0  0  0  0
  -28.7735  -17.2652   22.0898 H   0  0  0  0  0  0
  -29.1394  -15.6470   22.6086 H   0  0  0  0  0  0
  -30.1211  -23.8873   20.0963 H   0  0  0  0  0  0
  -29.3353  -23.7832   21.6195 H   0  0  0  0  0  0
  -31.3359  -17.5521   20.1957 H   0  0  0  0  0  0
  -30.1488  -17.3389   18.9743 H   0  0  0  0  0  0
  -27.1345  -24.4700   20.5719 H   0  0  0  0  0  0
  -27.8889  -24.5454   19.0060 H   0  0  0  0  0  0
  1 25  1  0  0  0
  1 30  2  0  0  0
  1 82  1  0  0  0
  2  3  1  0  0  0
  2 25  1  0  0  0
  2 83  1  0  0  0
  2 84  1  0  0  0
  3  4  1  0  0  0
  3 85  1  0  0  0
  3 86  1  0  0  0
  4  5  1  0  0  0
  4 87  1  0  0  0
  4 88  1  0  0  0
  5  6  1  0  0  0
  5 26  1  0  0  0
  5 89  1  0  0  0
  6 25  1  0  0  0
  6 90  1  0  0  0
  6 91  1  0  0  0
  7  8  2  0  0  0
  7 26  1  0  0  0
  7 29  1  0  0  0
  8  9  1  0  0  0
  8 22  1  0  0  0
  9 10  1  0  0  0
  9 27  2  0  0  0
 10 11  2  0  0  0
 10 15  1  0  0  0
 11 12  1  0  0  0
 11 92  1  0  0  0
 12 13  2  0  0  0
 12 93  1  0  0  0
 13 14  1  0  0  0
 13 31  1  0  0  0
 14 15  2  0  0  0
 14 94  1  0  0  0
 15 95  1  0  0  0
 16 17  2  0  0  0
 16 21  1  0  0  0
 16 31  1  0  0  0
 17 18  1  0  0  0
 17 96  1  0  0  0
 18 19  2  0  0  0
 18 97  1  0  0  0
 19 20  1  0  0  0
 19 24  1  0  0  0
 20 21  2  0  0  0
 20 98  1  0  0  0
 21 23  1  0  0  0
 22 28  1  0  0  0
 22 32  2  0  0  0
 26 27  1  0  0  0
 28 99  1  0  0  0
 28100  1  0  0  0
 29101  1  0  0  0
 29102  1  0  0  0
 33 34  1  0  0  0
 33 66  1  0  0  0
 33 70  2  0  0  0
 34 36  1  0  0  0
 34 59  1  0  0  0
 34103  1  0  0  0
 35 44  2  0  0  0
 35 45  1  0  0  0
 35 68  1  0  0  0
 36 56  1  0  0  0
 36104  1  0  0  0
 37 39  1  0  0  0
 37 47  1  0  0  0
 37 66  1  0  0  0
 37105  1  0  0  0
 38 43  2  0  0  0
 38 46  1  0  0  0
 38 47  1  0  0  0
 39 64  1  0  0  0
 39 67  2  0  0  0
 40 52  1  0  0  0
 40 53  2  0  0  0
 40 58  1  0  0  0
 41106  1  0  0  0
 41107  1  0  0  0
 41108  1  0  0  0
 41 48  1  0  0  0
 42 43  1  0  0  0
 42 66  1  0  0  0
 42109  1  0  0  0
 42110  1  0  0  0
 43 44  1  0  0  0
 44111  1  0  0  0
 45 46  2  0  0  0
 45112  1  0  0  0
 46113  1  0  0  0
 47114  1  0  0  0
 47115  1  0  0  0
 48 56  1  0  0  0
 48 65  1  0  0  0
 48116  1  0  0  0
 49 50  1  0  0  0
 49 53  1  0  0  0
 49 64  1  0  0  0
 49117  1  0  0  0
 50 51  1  0  0  0
 50118  1  0  0  0
 50119  1  0  0  0
 51 52  1  0  0  0
 51120  1  0  0  0
 51121  1  0  0  0
 52122  1  0  0  0
 52123  1  0  0  0
 53 54  1  0  0  0
 54 55  2  0  0  0
 54124  1  0  0  0
 55 57  1  0  0  0
 55125  1  0  0  0
 56 69  2  0  0  0
 57 58  2  0  0  0
 57126  1  0  0  0
 58127  1  0  0  0
 59 60  1  0  0  0
 59 61  1  0  0  0
 59 62  1  0  0  0
 60128  1  0  0  0
 60129  1  0  0  0
 60130  1  0  0  0
 61131  1  0  0  0
 61132  1  0  0  0
 61133  1  0  0  0
 62134  1  0  0  0
 62135  1  0  0  0
 62136  1  0  0  0
 63 65  1  0  0  0
 63137  1  0  0  0
 63138  1  0  0  0
 63139  1  0  0  0
 64140  1  0  0  0
 65141  1  0  0  0
 68 80  1  0  0  0
 71 73  2  0  0  0
 71 75  1  0  0  0
 71142  1  0  0  0
 72 74  2  0  0  0
 72 81  1  0  0  0
 72143  1  0  0  0
 73 74  1  0  0  0
 73 76  1  0  0  0
 74 78  1  0  0  0
 75 79  1  0  0  0
 75 81  2  0  0  0
 76144  1  0  0  0
 76145  1  0  0  0
 76146  1  0  0  0
 77 82  1  0  0  0
 77147  1  0  0  0
 77148  1  0  0  0
 77149  1  0  0  0
 78 80  1  0  0  0
 78150  1  0  0  0
 78151  1  0  0  0
 79 82  1  0  0  0
 79152  1  0  0  0
 79153  1  0  0  0
 80154  1  0  0  0
 80155  1  0  0  0
M  ISO  4   1 100  68 101  80 101  82 100
M  END
> <chiral flag>
0

> <version>
0

> <s_m_source_file>
/data/baiqing/PycharmProjects/Reinvent-master-3.2/result/LINK_invent/BTK/process_docking_weight1_custom_sum_contain_oxygen_bond_distance_aromatic_linkinvent_7_9_3/rearranged_h_0054.sdf

> <i_m_source_file_index>
74

> <r_mmod_Potential_Energy-OPLS-2005>
286.733489990234

> <r_mmod_Stretch_Energy-OPLS-2005>
200.127807617188

> <r_mmod_Bend_Energy-OPLS-2005>
253.877655029297

> <r_mmod_Torsional_Energy-OPLS-2005>
252.904418945312

> <r_mmod_Improper_Torsional_Energy-OPLS-2005>
10.1820735931396

> <r_mmod_Van_der_Waal_Energy-OPLS-2005>
141.095169067383

> <r_mmod_Electrostatic_Energy-OPLS-2005>
-497.089050292969

> <r_mmod_Solvation_Energy-OPLS-2005>
-219.300704956055

> <b_mmod_Minimization_Converged-OPLS-2005>
0

> <r_mmod_RMS_Derivative-OPLS-2005>
1.06907188892365

$$$$
74
                    3D
 Structure written by MMmdl.
162170  0  0  1  0            999 V2000
  -30.6565  -14.7971   20.3477 C   0  0  0  0  0  0
  -30.4115  -12.4716   19.4960 C   0  0  0  0  0  0
  -29.5011  -12.4744   18.2474 C   0  0  0  0  0  0
  -28.0279  -12.3022   18.6583 C   0  0  0  0  0  0
  -27.6156  -13.2311   19.8314 C   0  0  2  0  0  0
  -28.6677  -13.2692   20.9546 C   0  0  0  0  0  0
  -25.2397  -13.8146   20.5736 C   0  0  0  0  0  0
  -24.1729  -13.0403   20.9336 C   0  0  0  0  0  0
  -24.6347  -11.6881   20.8851 C   0  0  0  0  0  0
  -23.9044  -10.4251   21.0459 C   0  0  0  0  0  0
  -24.3599   -9.4138   21.9208 C   0  0  0  0  0  0
  -23.6263   -8.2179   22.0769 C   0  0  0  0  0  0
  -22.4258   -8.0232   21.3538 C   0  0  0  0  0  0
  -21.9901   -9.0225   20.4652 C   0  0  0  0  0  0
  -22.7234  -10.2106   20.3090 C   0  0  0  0  0  0
  -21.6825   -6.0706   22.5270 C   0  0  0  0  0  0
  -21.3987   -6.5613   23.8198 C   0  0  0  0  0  0
  -21.3686   -5.6790   24.9179 C   0  0  0  0  0  0
  -21.6053   -4.3045   24.7230 C   0  0  0  0  0  0
  -21.8826   -3.8128   23.4355 C   0  0  0  0  0  0
  -21.9185   -4.6940   22.3407 C   0  0  0  0  0  0
  -22.7741  -13.5158   21.1961 C   0  0  0  0  0  0
  -22.1661   -4.2128   21.0985 F   0  0  0  0  0  0
  -21.5628   -3.4532   25.7743 F   0  0  0  0  0  0
  -29.9721  -13.5935   20.3640 N   0  0  0  0  0  0
  -26.2808  -12.9351   20.3274 N   0  0  0  0  0  0
  -25.9269  -11.6504   20.5847 N   0  0  0  0  0  0
  -22.0401  -12.8177   22.0544 N   0  0  0  0  0  0
  -25.3991  -15.1869   20.3982 N   0  0  0  0  0  0
  -31.8861  -14.7241   20.2887 O   0  0  0  0  0  0
  -21.6602   -6.8849   21.4233 O   0  0  0  0  0  0
  -22.3406  -14.5436   20.6738 O   0  0  0  0  0  0
  -24.6365  -31.8552   23.1983 C   0  0  0  0  0  0
  -25.9200  -32.4752   23.8327 C   0  0  1  0  0  0
  -27.2027  -27.2271   20.1125 C   0  0  0  0  0  0
  -25.5990  -33.8553   24.2271 N   0  0  0  0  0  0
  -23.4323  -30.4843   21.5423 C   0  0  2  0  0  0
  -24.8726  -28.9323   20.1075 C   0  0  0  0  0  0
  -22.7513  -29.4644   22.4877 C   0  0  0  0  0  0
  -18.0302  -28.1405   22.8475 C   0  0  0  0  0  0
  -24.1495  -36.7263   23.2634 C   0  0  0  0  0  0
  -25.9840  -30.7541   21.3860 C   0  0  0  0  0  0
  -26.0500  -29.3782   20.7187 C   0  0  0  0  0  0
  -27.2146  -28.5379   20.7118 C   0  0  0  0  0  0
  -25.9906  -26.8581   19.4820 C   0  0  0  0  0  0
  -24.8516  -27.6814   19.4802 C   0  0  0  0  0  0
  -23.6501  -29.8261   20.1566 C   0  0  0  0  0  0
  -25.4119  -36.3066   24.0331 C   0  0  1  0  0  0
  -20.5912  -28.3746   23.1217 C   0  0  2  0  0  0
  -20.6791  -26.9455   22.5381 C   0  0  0  0  0  0
  -19.5767  -26.6402   21.5189 C   0  0  0  0  0  0
  -18.1953  -26.7952   22.1609 C   0  0  0  0  0  0
  -19.1558  -28.8882   23.2854 C   0  0  0  0  0  0
  -18.9476  -30.1471   23.8898 C   0  0  0  0  0  0
  -17.6476  -30.6602   24.0561 C   0  0  0  0  0  0
  -25.9063  -34.9440   23.5095 C   0  0  0  0  0  0
  -16.5367  -29.9098   23.6331 C   0  0  0  0  0  0
  -16.7289  -28.6508   23.0366 C   0  0  0  0  0  0
  -26.4532  -31.6582   25.0734 C   0  0  0  0  0  0
  -25.3723  -31.3758   26.1429 C   0  0  0  0  0  0
  -27.0391  -30.2994   24.6263 C   0  0  0  0  0  0
  -27.6083  -32.4325   25.7499 C   0  0  0  0  0  0
  -27.5587  -37.1786   24.8465 C   0  0  0  0  0  0
  -21.4220  -29.3089   22.3598 N   0  0  0  0  0  0
  -26.4298  -37.3766   23.9412 N   0  0  0  0  0  0
  -24.7041  -31.0482   22.0983 N   0  0  0  0  0  0
  -23.4202  -28.8158   23.2961 O   0  0  0  0  0  0
  -28.2885  -26.3129   20.2091 O   0  0  0  0  0  0
  -26.5609  -34.8916   22.4647 O   0  0  0  0  0  0
  -23.5509  -32.1398   23.7261 O   0  0  0  0  0  0
  -28.6294  -23.6546   20.3131 C   0  0  0  0  0  0
  -29.3011  -22.2743   21.7776 C   0  0  0  0  0  0
  -29.7985  -21.7021   23.0661 C   0  0  0  0  0  0
  -30.4962  -16.1913   17.3551 C   0  0  0  0  0  0
  -29.5407  -17.0665   22.2838 C   0  0  0  0  0  0
  -28.3147  -24.9775   19.4943 C   0  0  0  0  0  0
  -29.4734  -16.3033   18.5009 C   0  0  0  0  0  0
  -28.5799  -19.9824   20.7081 C   0  0  0  0  0  0
  -29.7374  -18.8542   20.5204 C   0  0  0  0  0  0
  -30.0822  -16.2815   19.9325 C   0  0  1  0  0  0
  -29.2132  -23.6014   21.5520 N   0  0  0  0  0  0
  -28.4102  -22.4048   19.8063 N   0  0  0  0  0  0
  -28.8601  -21.4960   20.7648 N   0  0  0  0  0  0
  -29.4199  -17.3544   20.8350 N   0  3  1  0  0  0
  -31.4563  -12.5577   19.1936 H   0  0  0  0  0  0
  -30.3283  -11.5231   20.0282 H   0  0  0  0  0  0
  -29.7912  -11.6731   17.5655 H   0  0  0  0  0  0
  -29.6206  -13.4029   17.6899 H   0  0  0  0  0  0
  -27.8944  -11.2609   18.9510 H   0  0  0  0  0  0
  -27.3716  -12.4580   17.8016 H   0  0  0  0  0  0
  -27.5527  -14.2278   19.4162 H   0  0  0  0  0  0
  -28.7146  -12.3076   21.4686 H   0  0  0  0  0  0
  -28.3913  -14.0033   21.7116 H   0  0  0  0  0  0
  -25.2760   -9.5557   22.4777 H   0  0  0  0  0  0
  -23.9984   -7.4556   22.7472 H   0  0  0  0  0  0
  -21.0849   -8.8720   19.8927 H   0  0  0  0  0  0
  -22.3714  -10.9641   19.6184 H   0  0  0  0  0  0
  -21.1953   -7.6121   23.9669 H   0  0  0  0  0  0
  -21.1539   -6.0535   25.9084 H   0  0  0  0  0  0
  -22.0608   -2.7581   23.2870 H   0  0  0  0  0  0
  -22.4021  -11.9891   22.5032 H   0  0  0  0  0  0
  -21.0981  -13.1123   22.2678 H   0  0  0  0  0  0
  -24.5767  -15.7831   20.3917 H   0  0  0  0  0  0
  -26.1521  -15.5579   19.8371 H   0  0  0  0  0  0
  -26.7265  -32.5384   23.1049 H   0  0  0  0  0  0
  -25.0184  -33.9684   25.0454 H   0  0  0  0  0  0
  -22.7327  -31.3108   21.3985 H   0  0  0  0  0  0
  -23.3777  -35.9582   23.3297 H   0  0  0  0  0  0
  -24.3582  -36.8872   22.2048 H   0  0  0  0  0  0
  -23.7228  -37.6454   23.6649 H   0  0  0  0  0  0
  -26.1357  -31.5193   20.6225 H   0  0  0  0  0  0
  -26.8564  -30.7929   22.0268 H   0  0  0  0  0  0
  -28.1132  -28.8737   21.2096 H   0  0  0  0  0  0
  -25.8362  -25.9051   19.0073 H   0  0  0  0  0  0
  -23.9449  -27.3307   19.0059 H   0  0  0  0  0  0
  -23.7820  -30.6047   19.4050 H   0  0  0  0  0  0
  -22.7633  -29.2705   19.8451 H   0  0  0  0  0  0
  -25.1293  -36.1914   25.0824 H   0  0  0  0  0  0
  -21.0025  -28.3356   24.1329 H   0  0  0  0  0  0
  -20.5664  -26.2372   23.3604 H   0  0  0  0  0  0
  -21.6660  -26.7459   22.1188 H   0  0  0  0  0  0
  -19.6923  -25.6299   21.1245 H   0  0  0  0  0  0
  -19.6699  -27.3178   20.6690 H   0  0  0  0  0  0
  -17.4213  -26.6705   21.4021 H   0  0  0  0  0  0
  -18.0368  -26.0087   22.8995 H   0  0  0  0  0  0
  -19.7949  -30.7284   24.2292 H   0  0  0  0  0  0
  -17.5027  -31.6282   24.5164 H   0  0  0  0  0  0
  -15.5370  -30.2997   23.7648 H   0  0  0  0  0  0
  -15.8695  -28.0808   22.7110 H   0  0  0  0  0  0
  -24.5910  -30.7108   25.7728 H   0  0  0  0  0  0
  -24.8910  -32.2938   26.4801 H   0  0  0  0  0  0
  -25.8004  -30.8949   27.0230 H   0  0  0  0  0  0
  -26.3007  -29.6714   24.1268 H   0  0  0  0  0  0
  -27.4019  -29.7282   25.4810 H   0  0  0  0  0  0
  -27.8898  -30.4230   23.9565 H   0  0  0  0  0  0
  -27.2718  -33.3641   26.2054 H   0  0  0  0  0  0
  -28.3911  -32.6864   25.0341 H   0  0  0  0  0  0
  -28.0747  -31.8471   26.5428 H   0  0  0  0  0  0
  -28.2593  -38.0094   24.7535 H   0  0  0  0  0  0
  -28.1103  -36.2623   24.6277 H   0  0  0  0  0  0
  -27.2304  -37.1411   25.8869 H   0  0  0  0  0  0
  -20.9424  -29.8816   21.6782 H   0  0  0  0  0  0
  -26.0179  -38.2841   24.1418 H   0  0  0  0  0  0
  -29.6054  -22.3957   23.8849 H   0  0  0  0  0  0
  -30.8714  -21.5233   23.0030 H   0  0  0  0  0  0
  -29.2972  -20.7644   23.3050 H   0  0  0  0  0  0
  -31.1119  -15.2954   17.4363 H   0  0  0  0  0  0
  -31.1633  -17.0538   17.3239 H   0  0  0  0  0  0
  -29.9821  -16.1468   16.3938 H   0  0  0  0  0  0
  -30.5688  -17.1908   22.6314 H   0  0  0  0  0  0
  -29.2234  -16.0527   22.5252 H   0  0  0  0  0  0
  -28.9032  -17.7379   22.8616 H   0  0  0  0  0  0
  -27.4399  -24.7664   18.8925 H   0  0  0  0  0  0
  -29.1091  -25.0668   18.7539 H   0  0  0  0  0  0
  -28.7476  -15.5112   18.3764 H   0  0  0  0  0  0
  -28.9089  -17.2225   18.3376 H   0  0  0  0  0  0
  -28.0491  -19.7504   21.6313 H   0  0  0  0  0  0
  -27.8392  -19.8284   19.9232 H   0  0  0  0  0  0
  -30.6116  -19.1422   21.1033 H   0  0  0  0  0  0
  -30.0711  -18.9322   19.4858 H   0  0  0  0  0  0
  -31.0355  -16.7950   19.7951 H   0  0  0  0  0  0
  -28.4368  -17.2453   20.6391 H   0  0  0  0  0  0
  1 25  1  0  0  0
  1 30  2  0  0  0
  1 80  1  0  0  0
  2  3  1  0  0  0
  2 25  1  0  0  0
  2 85  1  0  0  0
  2 86  1  0  0  0
  3  4  1  0  0  0
  3 87  1  0  0  0
  3 88  1  0  0  0
  4  5  1  0  0  0
  4 89  1  0  0  0
  4 90  1  0  0  0
  5  6  1  0  0  0
  5 26  1  0  0  0
  5 91  1  0  0  0
  6 25  1  0  0  0
  6 92  1  0  0  0
  6 93  1  0  0  0
  7  8  2  0  0  0
  7 26  1  0  0  0
  7 29  1  0  0  0
  8  9  1  0  0  0
  8 22  1  0  0  0
  9 10  1  0  0  0
  9 27  2  0  0  0
 10 11  2  0  0  0
 10 15  1  0  0  0
 11 12  1  0  0  0
 11 94  1  0  0  0
 12 13  2  0  0  0
 12 95  1  0  0  0
 13 14  1  0  0  0
 13 31  1  0  0  0
 14 15  2  0  0  0
 14 96  1  0  0  0
 15 97  1  0  0  0
 16 17  2  0  0  0
 16 21  1  0  0  0
 16 31  1  0  0  0
 17 18  1  0  0  0
 17 98  1  0  0  0
 18 19  2  0  0  0
 18 99  1  0  0  0
 19 20  1  0  0  0
 19 24  1  0  0  0
 20 21  2  0  0  0
 20100  1  0  0  0
 21 23  1  0  0  0
 22 28  1  0  0  0
 22 32  2  0  0  0
 26 27  1  0  0  0
 28101  1  0  0  0
 28102  1  0  0  0
 29103  1  0  0  0
 29104  1  0  0  0
 33 34  1  0  0  0
 33 66  1  0  0  0
 33 70  2  0  0  0
 34 36  1  0  0  0
 34 59  1  0  0  0
 34105  1  0  0  0
 35 44  2  0  0  0
 35 45  1  0  0  0
 35 68  1  0  0  0
 36 56  1  0  0  0
 36106  1  0  0  0
 37 39  1  0  0  0
 37 47  1  0  0  0
 37 66  1  0  0  0
 37107  1  0  0  0
 38 43  2  0  0  0
 38 46  1  0  0  0
 38 47  1  0  0  0
 39 64  1  0  0  0
 39 67  2  0  0  0
 40 52  1  0  0  0
 40 53  2  0  0  0
 40 58  1  0  0  0
 41108  1  0  0  0
 41109  1  0  0  0
 41110  1  0  0  0
 41 48  1  0  0  0
 42 43  1  0  0  0
 42 66  1  0  0  0
 42111  1  0  0  0
 42112  1  0  0  0
 43 44  1  0  0  0
 44113  1  0  0  0
 45 46  2  0  0  0
 45114  1  0  0  0
 46115  1  0  0  0
 47116  1  0  0  0
 47117  1  0  0  0
 48 56  1  0  0  0
 48 65  1  0  0  0
 48118  1  0  0  0
 49 50  1  0  0  0
 49 53  1  0  0  0
 49 64  1  0  0  0
 49119  1  0  0  0
 50 51  1  0  0  0
 50120  1  0  0  0
 50121  1  0  0  0
 51 52  1  0  0  0
 51122  1  0  0  0
 51123  1  0  0  0
 52124  1  0  0  0
 52125  1  0  0  0
 53 54  1  0  0  0
 54 55  2  0  0  0
 54126  1  0  0  0
 55 57  1  0  0  0
 55127  1  0  0  0
 56 69  2  0  0  0
 57 58  2  0  0  0
 57128  1  0  0  0
 58129  1  0  0  0
 59 60  1  0  0  0
 59 61  1  0  0  0
 59 62  1  0  0  0
 60130  1  0  0  0
 60131  1  0  0  0
 60132  1  0  0  0
 61133  1  0  0  0
 61134  1  0  0  0
 61135  1  0  0  0
 62136  1  0  0  0
 62137  1  0  0  0
 62138  1  0  0  0
 63 65  1  0  0  0
 63139  1  0  0  0
 63140  1  0  0  0
 63141  1  0  0  0
 64142  1  0  0  0
 65143  1  0  0  0
 68 76  1  0  0  0
 71 76  1  0  0  0
 71 81  1  0  0  0
 71 82  2  0  0  0
 72 73  1  0  0  0
 72 81  2  0  0  0
 72 83  1  0  0  0
 73144  1  0  0  0
 73145  1  0  0  0
 73146  1  0  0  0
 74 77  1  0  0  0
 74147  1  0  0  0
 74148  1  0  0  0
 74149  1  0  0  0
 75150  1  0  0  0
 75151  1  0  0  0
 75152  1  0  0  0
 75 84  1  0  0  0
 76153  1  0  0  0
 76154  1  0  0  0
 77155  1  0  0  0
 77156  1  0  0  0
 77 80  1  0  0  0
 78 79  1  0  0  0
 78 83  1  0  0  0
 78157  1  0  0  0
 78158  1  0  0  0
 79 84  1  0  0  0
 79159  1  0  0  0
 79160  1  0  0  0
 80 84  1  0  0  0
 80161  1  0  0  0
 82 83  1  0  0  0
 84162  1  0  0  0
M  CHG  1  84   1
M  ISO  4   1 100  68 101  76 101  80 100
M  END
> <chiral flag>
0

> <version>
0

> <s_m_source_file>
/data/baiqing/PycharmProjects/Reinvent-master-3.2/result/LINK_invent/BTK/process_docking_weight1_custom_sum_contain_oxygen_bond_distance_aromatic_linkinvent_7_9_3/rearranged_h_0054.sdf

> <i_m_source_file_index>
75

> <r_mmod_Potential_Energy-OPLS-2005>
266.861877441406

> <r_mmod_Stretch_Energy-OPLS-2005>
151.524154663086

> <r_mmod_Bend_Energy-OPLS-2005>
245.687286376953

> <r_mmod_Torsional_Energy-OPLS-2005>
263.893707275391

> <r_mmod_Improper_Torsional_Energy-OPLS-2005>
16.2491054534912

> <r_mmod_Van_der_Waal_Energy-OPLS-2005>
116.271347045898

> <r_mmod_Electrostatic_Energy-OPLS-2005>
-171.02214050293

> <r_mmod_Solvation_Energy-OPLS-2005>
-479.183410644531

> <b_mmod_Minimization_Converged-OPLS-2005>
0

> <r_mmod_RMS_Derivative-OPLS-2005>
3.09167456626892

$$$$
75
                    3D
 Structure written by MMmdl.
155163  0  0  1  0            999 V2000
  -28.8955  -16.8283   20.2180 C   0  0  0  0  0  0
  -30.0440  -14.1947   19.5560 C   0  0  0  0  0  0
  -29.5221  -13.1443   18.4868 C   0  0  0  0  0  0
  -28.2578  -12.4344   18.9744 C   0  0  0  0  0  0
  -27.4459  -13.4214   19.8144 C   0  0  2  0  0  0
  -28.2261  -14.2038   20.8967 C   0  0  0  0  0  0
  -25.1465  -13.8354   20.5734 C   0  0  0  0  0  0
  -24.1192  -13.0297   20.9428 C   0  0  0  0  0  0
  -24.6180  -11.6918   20.8861 C   0  0  0  0  0  0
  -23.9002  -10.4227   21.0417 C   0  0  0  0  0  0
  -24.3585   -9.4142   21.9196 C   0  0  0  0  0  0
  -23.6274   -8.2158   22.0761 C   0  0  0  0  0  0
  -22.4256   -8.0217   21.3530 C   0  0  0  0  0  0
  -21.9862   -9.0171   20.4620 C   0  0  0  0  0  0
  -22.7169  -10.2069   20.3030 C   0  0  0  0  0  0
  -21.6858   -6.0699   22.5283 C   0  0  0  0  0  0
  -21.3996   -6.5599   23.8214 C   0  0  0  0  0  0
  -21.3639   -5.6749   24.9171 C   0  0  0  0  0  0
  -21.6048   -4.3022   24.7248 C   0  0  0  0  0  0
  -21.8806   -3.8113   23.4381 C   0  0  0  0  0  0
  -21.9190   -4.6921   22.3432 C   0  0  0  0  0  0
  -22.7205  -13.4984   21.2086 C   0  0  0  0  0  0
  -22.1657   -4.2112   21.1013 F   0  0  0  0  0  0
  -21.5644   -3.4511   25.7777 F   0  0  0  0  0  0
  -28.9990  -15.2369   20.1728 N   0  0  0  0  0  0
  -26.1900  -12.9828   20.3139 N   0  0  0  0  0  0
  -25.9089  -11.6817   20.5602 N   0  0  0  0  0  0
  -21.9908  -12.7964   22.0667 N   0  0  0  0  0  0
  -25.2586  -15.2141   20.4061 N   0  0  0  0  0  0
  -30.1980  -16.8506   20.0477 O   0  0  0  0  0  0
  -21.6609   -6.8840   21.4238 O   0  0  0  0  0  0
  -22.2841  -14.5244   20.6917 O   0  0  0  0  0  0
  -24.7009  -31.7342   22.9631 C   0  0  0  0  0  0
  -25.9065  -32.4607   23.7402 C   0  0  1  0  0  0
  -27.0811  -27.6457   20.8955 C   0  0  0  0  0  0
  -25.4916  -33.8329   24.0917 N   0  0  0  0  0  0
  -24.1355  -29.3564   21.3410 C   0  0  2  0  0  0
  -25.2898  -29.0385   19.5752 C   0  0  0  0  0  0
  -23.6946  -27.5834   22.3302 C   0  0  0  0  0  0
  -18.1926  -28.1548   22.9206 C   0  0  0  0  0  0
  -24.1422  -36.7377   23.2566 C   0  0  0  0  0  0
  -26.0835  -30.9324   21.1284 C   0  0  0  0  0  0
  -26.3478  -29.6822   20.2823 C   0  0  0  0  0  0
  -27.4617  -28.9344   20.6257 C   0  0  0  0  0  0
  -26.3566  -26.9522   19.8939 C   0  0  0  0  0  0
  -25.3720  -27.6892   19.2036 C   0  0  0  0  0  0
  -23.9611  -29.5422   19.8270 C   0  0  0  0  0  0
  -25.4079  -36.3025   24.0131 C   0  0  1  0  0  0
  -20.7989  -27.5072   23.5920 C   0  0  2  0  0  0
  -20.2257  -26.2312   23.0572 C   0  0  0  0  0  0
  -19.3657  -26.2808   21.7604 C   0  0  0  0  0  0
  -18.0427  -26.7680   22.3292 C   0  0  0  0  0  0
  -19.4774  -28.6335   23.4201 C   0  0  0  0  0  0
  -19.3187  -29.9906   23.9832 C   0  0  0  0  0  0
  -18.0584  -30.6863   24.1331 C   0  0  0  0  0  0
  -25.8880  -34.9438   23.4589 C   0  0  0  0  0  0
  -16.8692  -30.0943   23.6872 C   0  0  0  0  0  0
  -16.9445  -28.8475   23.0675 C   0  0  0  0  0  0
  -26.5152  -31.8311   25.1225 C   0  0  0  0  0  0
  -25.4416  -31.6224   26.2436 C   0  0  0  0  0  0
  -27.3937  -30.5740   24.8749 C   0  0  0  0  0  0
  -27.5647  -32.7872   25.8140 C   0  0  0  0  0  0
  -27.5501  -37.1790   24.8409 C   0  0  0  0  0  0
  -22.4558  -27.2201   23.2101 N   0  0  0  0  0  0
  -26.4196  -37.3813   23.9412 N   0  0  0  0  0  0
  -24.8389  -30.7929   21.8643 N   0  0  0  0  0  0
  -24.3872  -26.7509   22.7460 O   0  0  0  0  0  0
  -26.5886  -27.6016   22.2154 O   0  0  0  0  0  0
  -26.6004  -34.9092   22.4521 O   0  0  0  0  0  0
  -23.6014  -31.9277   23.5167 O   0  0  0  0  0  0
  -24.8265  -21.1635   19.9080 C   0  0  0  0  0  0
  -25.5153  -23.4159   20.9753 C   0  0  0  0  0  0
  -26.2902  -20.6107   20.3424 C   0  0  0  0  0  0
  -24.0230  -23.9251   20.6116 C   0  0  0  0  0  0
  -27.3836  -18.5897   20.4732 C   0  0  0  0  0  0
  -22.6946  -25.7868   20.5600 C   0  0  0  0  0  0
  -23.7932  -29.3706   23.7909 C   0  0  0  0  0  0
  -22.0020  -29.3567   22.3078 C   0  0  0  0  0  0
  -25.7198  -28.6980   23.3288 C   0  0  0  0  0  0
  -26.4096  -22.0836   20.8561 N   0  0  0  0  0  0
  -23.9429  -22.4994   20.0114 N   0  0  0  0  0  0
  -21.8008  -27.6874   20.9468 N   0  3  0  0  0  0
  -30.7735  -14.8125   19.0252 H   0  0  0  0  0  0
  -30.6529  -13.7772   20.3759 H   0  0  0  0  0  0
  -30.3390  -12.4776   18.2536 H   0  0  0  0  0  0
  -29.2997  -13.7080   17.5855 H   0  0  0  0  0  0
  -28.5531  -11.6023   19.6259 H   0  0  0  0  0  0
  -27.6883  -12.0469   18.1369 H   0  0  0  0  0  0
  -27.1599  -14.1514   19.0644 H   0  0  0  0  0  0
  -28.8221  -13.5878   21.5837 H   0  0  0  0  0  0
  -27.5573  -14.7600   21.5528 H   0  0  0  0  0  0
  -25.2698   -9.5679   22.4797 H   0  0  0  0  0  0
  -23.9973   -7.4574   22.7488 H   0  0  0  0  0  0
  -21.0775   -8.8652   19.8971 H   0  0  0  0  0  0
  -22.3556  -10.9591   19.6184 H   0  0  0  0  0  0
  -21.1945   -7.6106   23.9701 H   0  0  0  0  0  0
  -21.1478   -6.0504   25.9089 H   0  0  0  0  0  0
  -22.0620   -2.7576   23.2893 H   0  0  0  0  0  0
  -22.3560  -11.9642   22.5042 H   0  0  0  0  0  0
  -21.0552  -13.0989   22.2911 H   0  0  0  0  0  0
  -24.4191  -15.7869   20.4142 H   0  0  0  0  0  0
  -26.0143  -15.6302   19.8752 H   0  0  0  0  0  0
  -26.7759  -32.5360   23.0932 H   0  0  0  0  0  0
  -24.9475  -33.9352   24.9380 H   0  0  0  0  0  0
  -23.4533  -30.1548   21.1345 H   0  0  0  0  0  0
  -23.3719  -35.9634   23.3138 H   0  0  0  0  0  0
  -24.3539  -36.9213   22.1975 H   0  0  0  0  0  0
  -23.7135  -37.6500   23.6789 H   0  0  0  0  0  0
  -25.9108  -31.8076   20.5134 H   0  0  0  0  0  0
  -26.9401  -31.0663   21.7955 H   0  0  0  0  0  0
  -28.2121  -29.3811   21.2737 H   0  0  0  0  0  0
  -26.2818  -25.8737   19.9522 H   0  0  0  0  0  0
  -24.6484  -27.1724   18.6024 H   0  0  0  0  0  0
  -23.9355  -30.6022   19.4422 H   0  0  0  0  0  0
  -23.1652  -28.9574   19.3195 H   0  0  0  0  0  0
  -25.1315  -36.1619   25.0595 H   0  0  0  0  0  0
  -20.8741  -27.3276   24.6752 H   0  0  0  0  0  0
  -19.6206  -25.7743   23.8662 H   0  0  0  0  0  0
  -20.9700  -25.4708   23.2315 H   0  0  0  0  0  0
  -19.1843  -25.3045   21.3712 H   0  0  0  0  0  0
  -19.6475  -26.9110   20.9191 H   0  0  0  0  0  0
  -17.1556  -26.6334   21.6817 H   0  0  0  0  0  0
  -17.7903  -26.2426   23.2725 H   0  0  0  0  0  0
  -20.1548  -30.4723   24.4409 H   0  0  0  0  0  0
  -18.1092  -31.6684   24.6170 H   0  0  0  0  0  0
  -15.9625  -30.6945   23.8126 H   0  0  0  0  0  0
  -15.9985  -28.3943   22.7592 H   0  0  0  0  0  0
  -25.7496  -30.8711   26.9793 H   0  0  0  0  0  0
  -24.4317  -31.4611   25.9173 H   0  0  0  0  0  0
  -25.2619  -32.5732   26.7755 H   0  0  0  0  0  0
  -26.9597  -29.6414   25.2226 H   0  0  0  0  0  0
  -28.2921  -30.6087   25.4877 H   0  0  0  0  0  0
  -27.8423  -30.5601   23.8762 H   0  0  0  0  0  0
  -27.1368  -33.7511   26.1133 H   0  0  0  0  0  0
  -28.4283  -33.0323   25.1854 H   0  0  0  0  0  0
  -27.9697  -32.3746   26.7442 H   0  0  0  0  0  0
  -28.2494  -38.0156   24.7713 H   0  0  0  0  0  0
  -28.1098  -36.2727   24.5991 H   0  0  0  0  0  0
  -27.2313  -37.1125   25.8849 H   0  0  0  0  0  0
  -22.7615  -26.3940   23.6797 H   0  0  0  0  0  0
  -26.0056  -38.2807   24.1796 H   0  0  0  0  0  0
  -24.2997  -20.5380   19.1838 H   0  0  0  0  0  0
  -26.1097  -24.1971   21.4218 H   0  0  0  0  0  0
  -26.4335  -18.0150   20.3959 H   0  0  0  0  0  0
  -27.5951  -18.7439   21.5368 H   0  0  0  0  0  0
  -21.9714  -25.3608   19.8842 H   0  0  0  0  0  0
  -23.2499  -26.4414   19.9022 H   0  0  0  0  0  0
  -23.6661  -28.7168   24.6385 H   0  0  0  0  0  0
  -23.7761  -30.0870   24.6682 H   0  0  0  0  0  0
  -21.5282  -30.2877   21.9475 H   0  0  0  0  0  0
  -21.6473  -29.5815   23.3397 H   0  0  0  0  0  0
  -26.0339  -28.1063   24.2152 H   0  0  0  0  0  0
  -26.3675  -29.4669   23.1378 H   0  0  0  0  0  0
  -20.8308  -27.4204   20.9412 H   0  0  0  0  0  0
  -21.8927  -28.1748   20.0808 H   0  0  0  0  0  0
  1 25  1  0  0  0
  1 30  2  0  0  0
  1 75  1  0  0  0
  2  3  1  0  0  0
  2 25  1  0  0  0
  2 83  1  0  0  0
  2 84  1  0  0  0
  3  4  1  0  0  0
  3 85  1  0  0  0
  3 86  1  0  0  0
  4  5  1  0  0  0
  4 87  1  0  0  0
  4 88  1  0  0  0
  5  6  1  0  0  0
  5 26  1  0  0  0
  5 89  1  0  0  0
  6 25  1  0  0  0
  6 90  1  0  0  0
  6 91  1  0  0  0
  7  8  2  0  0  0
  7 26  1  0  0  0
  7 29  1  0  0  0
  8  9  1  0  0  0
  8 22  1  0  0  0
  9 10  1  0  0  0
  9 27  2  0  0  0
 10 11  2  0  0  0
 10 15  1  0  0  0
 11 12  1  0  0  0
 11 92  1  0  0  0
 12 13  2  0  0  0
 12 93  1  0  0  0
 13 14  1  0  0  0
 13 31  1  0  0  0
 14 15  2  0  0  0
 14 94  1  0  0  0
 15 95  1  0  0  0
 16 17  2  0  0  0
 16 21  1  0  0  0
 16 31  1  0  0  0
 17 18  1  0  0  0
 17 96  1  0  0  0
 18 19  2  0  0  0
 18 97  1  0  0  0
 19 20  1  0  0  0
 19 24  1  0  0  0
 20 21  2  0  0  0
 20 98  1  0  0  0
 21 23  1  0  0  0
 22 28  1  0  0  0
 22 32  2  0  0  0
 26 27  1  0  0  0
 28 99  1  0  0  0
 28100  1  0  0  0
 29101  1  0  0  0
 29102  1  0  0  0
 33 34  1  0  0  0
 33 66  1  0  0  0
 33 70  2  0  0  0
 34 36  1  0  0  0
 34 59  1  0  0  0
 34103  1  0  0  0
 35 44  2  0  0  0
 35 45  1  0  0  0
 35 68  1  0  0  0
 36 56  1  0  0  0
 36104  1  0  0  0
 37 39  1  0  0  0
 37 47  1  0  0  0
 37 66  1  0  0  0
 37105  1  0  0  0
 38 43  2  0  0  0
 38 46  1  0  0  0
 38 47  1  0  0  0
 39 64  1  0  0  0
 39 67  2  0  0  0
 40 52  1  0  0  0
 40 53  2  0  0  0
 40 58  1  0  0  0
 41106  1  0  0  0
 41107  1  0  0  0
 41108  1  0  0  0
 41 48  1  0  0  0
 42 43  1  0  0  0
 42 66  1  0  0  0
 42109  1  0  0  0
 42110  1  0  0  0
 43 44  1  0  0  0
 44111  1  0  0  0
 45 46  2  0  0  0
 45112  1  0  0  0
 46113  1  0  0  0
 47114  1  0  0  0
 47115  1  0  0  0
 48 56  1  0  0  0
 48 65  1  0  0  0
 48116  1  0  0  0
 49 50  1  0  0  0
 49 53  1  0  0  0
 49 64  1  0  0  0
 49117  1  0  0  0
 50 51  1  0  0  0
 50118  1  0  0  0
 50119  1  0  0  0
 51 52  1  0  0  0
 51120  1  0  0  0
 51121  1  0  0  0
 52122  1  0  0  0
 52123  1  0  0  0
 53 54  1  0  0  0
 54 55  2  0  0  0
 54124  1  0  0  0
 55 57  1  0  0  0
 55125  1  0  0  0
 56 69  2  0  0  0
 57 58  2  0  0  0
 57126  1  0  0  0
 58127  1  0  0  0
 59 60  1  0  0  0
 59 61  1  0  0  0
 59 62  1  0  0  0
 60128  1  0  0  0
 60129  1  0  0  0
 60130  1  0  0  0
 61131  1  0  0  0
 61132  1  0  0  0
 61133  1  0  0  0
 62134  1  0  0  0
 62135  1  0  0  0
 62136  1  0  0  0
 63 65  1  0  0  0
 63137  1  0  0  0
 63138  1  0  0  0
 63139  1  0  0  0
 64140  1  0  0  0
 65141  1  0  0  0
 68 79  1  0  0  0
 71 73  2  0  0  0
 71 81  1  0  0  0
 71142  1  0  0  0
 72 74  1  0  0  0
 72 80  2  0  0  0
 72143  1  0  0  0
 73 75  1  0  0  0
 73 80  1  0  0  0
 74 76  1  0  0  0
 74 81  2  0  0  0
 75144  1  0  0  0
 75145  1  0  0  0
 76 82  1  0  0  0
 76146  1  0  0  0
 76147  1  0  0  0
 77 78  1  0  0  0
 77 79  1  0  0  0
 77148  1  0  0  0
 77149  1  0  0  0
 78 82  1  0  0  0
 78150  1  0  0  0
 78151  1  0  0  0
 79152  1  0  0  0
 79153  1  0  0  0
 82154  1  0  0  0
 82155  1  0  0  0
M  CHG  1  82   1
M  ISO  4   1 100  68 101  75 100  79 101
M  END
> <chiral flag>
0

> <version>
0

> <s_m_source_file>
/data/baiqing/PycharmProjects/Reinvent-master-3.2/result/LINK_invent/BTK/process_docking_weight1_custom_sum_contain_oxygen_bond_distance_aromatic_linkinvent_7_9_3/rearranged_h_0054.sdf

> <i_m_source_file_index>
76

> <r_mmod_Potential_Energy-OPLS-2005>
17957.845703125

> <r_mmod_Stretch_Energy-OPLS-2005>
6963.35546875

> <r_mmod_Bend_Energy-OPLS-2005>
2835.58154296875

> <r_mmod_Torsional_Energy-OPLS-2005>
574.916442871094

> <r_mmod_Improper_Torsional_Energy-OPLS-2005>
57.162712097168

> <r_mmod_Van_der_Waal_Energy-OPLS-2005>
1923.95690917969

> <r_mmod_Electrostatic_Energy-OPLS-2005>
-197.305145263672

> <r_mmod_Solvation_Energy-OPLS-2005>
-459.393981933594

> <b_mmod_Minimization_Converged-OPLS-2005>
0

> <r_mmod_RMS_Derivative-OPLS-2005>
88.1158905029297

$$$$
76
                    3D
 Structure written by MMmdl.
162170  0  0  1  0            999 V2000
  -30.5339  -15.0599   20.3748 C   0  0  0  0  0  0
  -30.4350  -12.6592   19.5024 C   0  0  0  0  0  0
  -29.5243  -12.4787   18.2657 C   0  0  0  0  0  0
  -28.0604  -12.2767   18.6945 C   0  0  0  0  0  0
  -27.6156  -13.2514   19.8170 C   0  0  2  0  0  0
  -28.6580  -13.3819   20.9442 C   0  0  0  0  0  0
  -25.2451  -13.8241   20.5747 C   0  0  0  0  0  0
  -24.1765  -13.0460   20.9249 C   0  0  0  0  0  0
  -24.6384  -11.6942   20.8766 C   0  0  0  0  0  0
  -23.9078  -10.4300   21.0414 C   0  0  0  0  0  0
  -24.3633   -9.4202   21.9178 C   0  0  0  0  0  0
  -23.6309   -8.2240   22.0743 C   0  0  0  0  0  0
  -22.4292   -8.0277   21.3538 C   0  0  0  0  0  0
  -21.9921   -9.0260   20.4647 C   0  0  0  0  0  0
  -22.7252  -10.2143   20.3057 C   0  0  0  0  0  0
  -21.6864   -6.0740   22.5273 C   0  0  0  0  0  0
  -21.4021   -6.5636   23.8206 C   0  0  0  0  0  0
  -21.3663   -5.6787   24.9166 C   0  0  0  0  0  0
  -21.6049   -4.3051   24.7223 C   0  0  0  0  0  0
  -21.8825   -3.8149   23.4343 C   0  0  0  0  0  0
  -21.9201   -4.6969   22.3403 C   0  0  0  0  0  0
  -22.7780  -13.5210   21.1928 C   0  0  0  0  0  0
  -22.1661   -4.2154   21.0983 F   0  0  0  0  0  0
  -21.5636   -3.4537   25.7740 F   0  0  0  0  0  0
  -29.9056  -13.8084   20.2987 N   0  0  0  0  0  0
  -26.2836  -12.9458   20.3212 N   0  0  0  0  0  0
  -25.9303  -11.6597   20.5731 N   0  0  0  0  0  0
  -22.0452  -12.8176   22.0485 N   0  0  0  0  0  0
  -25.4214  -15.1970   20.4180 N   0  0  0  0  0  0
  -31.7700  -15.0166   20.3147 O   0  0  0  0  0  0
  -21.6645   -6.8885   21.4236 O   0  0  0  0  0  0
  -22.3447  -14.5520   20.6803 O   0  0  0  0  0  0
  -24.6514  -31.8371   23.1827 C   0  0  0  0  0  0
  -25.9253  -32.4655   23.8242 C   0  0  1  0  0  0
  -27.2133  -27.0683   20.1662 C   0  0  0  0  0  0
  -25.5978  -33.8464   24.2154 N   0  0  0  0  0  0
  -23.4573  -30.4542   21.5294 C   0  0  2  0  0  0
  -24.9088  -28.8679   20.1149 C   0  0  0  0  0  0
  -22.7593  -29.4514   22.4831 C   0  0  0  0  0  0
  -18.0309  -28.1404   22.8473 C   0  0  0  0  0  0
  -24.1493  -36.7228   23.2634 C   0  0  0  0  0  0
  -26.0195  -30.6898   21.3927 C   0  0  0  0  0  0
  -26.0901  -29.2931   20.7376 C   0  0  0  0  0  0
  -27.2457  -28.4125   20.7400 C   0  0  0  0  0  0
  -26.0079  -26.7632   19.5007 C   0  0  0  0  0  0
  -24.8848  -27.6193   19.4782 C   0  0  0  0  0  0
  -23.6883  -29.7767   20.1529 C   0  0  0  0  0  0
  -25.4124  -36.3001   24.0304 C   0  0  1  0  0  0
  -20.5922  -28.3744   23.1204 C   0  0  2  0  0  0
  -20.6791  -26.9431   22.5403 C   0  0  0  0  0  0
  -19.5766  -26.6379   21.5216 C   0  0  0  0  0  0
  -18.1943  -26.7942   22.1617 C   0  0  0  0  0  0
  -19.1561  -28.8886   23.2833 C   0  0  0  0  0  0
  -18.9482  -30.1488   23.8857 C   0  0  0  0  0  0
  -17.6476  -30.6603   24.0545 C   0  0  0  0  0  0
  -25.9085  -34.9382   23.5036 C   0  0  0  0  0  0
  -16.5370  -29.9087   23.6343 C   0  0  0  0  0  0
  -16.7290  -28.6504   23.0363 C   0  0  0  0  0  0
  -26.4551  -31.6540   25.0709 C   0  0  0  0  0  0
  -25.3713  -31.3753   26.1389 C   0  0  0  0  0  0
  -27.0422  -30.2913   24.6353 C   0  0  0  0  0  0
  -27.6065  -32.4320   25.7514 C   0  0  0  0  0  0
  -27.5588  -37.1749   24.8439 C   0  0  0  0  0  0
  -21.4277  -29.3062   22.3580 N   0  0  0  0  0  0
  -26.4267  -37.3735   23.9433 N   0  0  0  0  0  0
  -24.7295  -31.0170   22.0887 N   0  0  0  0  0  0
  -23.4204  -28.8061   23.3011 O   0  0  0  0  0  0
  -28.2352  -26.0287   20.1767 O   0  0  0  0  0  0
  -26.5664  -34.8892   22.4612 O   0  0  0  0  0  0
  -23.5621  -32.1268   23.7004 O   0  0  0  0  0  0
  -28.5765  -23.0476   20.2236 C   0  0  0  0  0  0
  -29.0669  -22.5557   18.9657 C   0  0  0  0  0  0
  -28.7068  -21.8031   20.9348 C   0  0  0  0  0  0
  -29.1914  -23.3266   17.6838 C   0  0  0  0  0  0
  -28.3499  -21.5578   22.3621 C   0  0  0  0  0  0
  -28.5763  -16.7675   17.7764 C   0  0  0  0  0  0
  -31.0865  -17.2470   17.8856 C   0  0  0  0  0  0
  -27.9045  -24.5502   20.6393 C   0  0  0  0  0  0
  -29.9152  -19.2377   20.4996 C   0  0  0  0  0  0
  -29.2843  -17.6395   20.5311 C   0  0  0  0  0  0
  -29.9266  -16.3854   18.4164 C   0  0  0  0  0  0
  -29.4512  -21.2512   18.9538 N   0  0  0  0  0  0
  -29.2498  -20.6792   20.1750 N   0  0  0  0  0  0
  -29.8854  -16.2754   19.9014 N   0  0  0  0  0  0
  -31.4638  -12.8269   19.1822 H   0  0  0  0  0  0
  -30.4545  -11.7509   20.1072 H   0  0  0  0  0  0
  -29.8584  -11.6250   17.6749 H   0  0  0  0  0  0
  -29.6005  -13.3400   17.6066 H   0  0  0  0  0  0
  -27.9742  -11.2497   19.0512 H   0  0  0  0  0  0
  -27.3992  -12.3530   17.8310 H   0  0  0  0  0  0
  -27.5478  -14.2259   19.3368 H   0  0  0  0  0  0
  -28.7769  -12.4468   21.4951 H   0  0  0  0  0  0
  -28.3415  -14.1367   21.6671 H   0  0  0  0  0  0
  -25.2785   -9.5678   22.4738 H   0  0  0  0  0  0
  -24.0032   -7.4622   22.7448 H   0  0  0  0  0  0
  -21.0860   -8.8787   19.8931 H   0  0  0  0  0  0
  -22.3717  -10.9694   19.6167 H   0  0  0  0  0  0
  -21.1999   -7.6138   23.9720 H   0  0  0  0  0  0
  -21.1484   -6.0510   25.9074 H   0  0  0  0  0  0
  -22.0598   -2.7611   23.2848 H   0  0  0  0  0  0
  -22.4085  -11.9827   22.4860 H   0  0  0  0  0  0
  -21.1079  -13.1182   22.2736 H   0  0  0  0  0  0
  -24.6693  -15.8672   20.5355 H   0  0  0  0  0  0
  -26.2869  -15.6255   20.1163 H   0  0  0  0  0  0
  -26.7309  -32.5233   23.0963 H   0  0  0  0  0  0
  -25.0129  -33.9566   25.0302 H   0  0  0  0  0  0
  -22.7650  -31.2826   21.3680 H   0  0  0  0  0  0
  -23.3802  -35.9507   23.3187 H   0  0  0  0  0  0
  -24.3596  -36.8983   22.2075 H   0  0  0  0  0  0
  -23.7189  -37.6354   23.6756 H   0  0  0  0  0  0
  -26.1834  -31.4383   20.6164 H   0  0  0  0  0  0
  -26.8864  -30.7409   22.0399 H   0  0  0  0  0  0
  -28.1462  -28.7366   21.2419 H   0  0  0  0  0  0
  -25.9138  -25.8075   19.0042 H   0  0  0  0  0  0
  -23.9872  -27.2891   18.9747 H   0  0  0  0  0  0
  -23.8278  -30.5470   19.3935 H   0  0  0  0  0  0
  -22.8031  -29.2197   19.8408 H   0  0  0  0  0  0
  -25.1315  -36.1796   25.0792 H   0  0  0  0  0  0
  -21.0010  -28.3358   24.1321 H   0  0  0  0  0  0
  -20.5693  -26.2361   23.3635 H   0  0  0  0  0  0
  -21.6657  -26.7433   22.1205 H   0  0  0  0  0  0
  -19.6930  -25.6281   21.1271 H   0  0  0  0  0  0
  -19.6713  -27.3166   20.6726 H   0  0  0  0  0  0
  -17.4214  -26.6686   21.4009 H   0  0  0  0  0  0
  -18.0342  -26.0097   22.9026 H   0  0  0  0  0  0
  -19.7950  -30.7323   24.2202 H   0  0  0  0  0  0
  -17.5018  -31.6271   24.5176 H   0  0  0  0  0  0
  -15.5363  -30.2968   23.7699 H   0  0  0  0  0  0
  -15.8692  -28.0812   22.7103 H   0  0  0  0  0  0
  -24.5902  -30.7097   25.7701 H   0  0  0  0  0  0
  -24.8905  -32.2948   26.4735 H   0  0  0  0  0  0
  -25.7980  -30.8970   27.0216 H   0  0  0  0  0  0
  -26.3057  -29.6618   24.1352 H   0  0  0  0  0  0
  -27.3976  -29.7243   25.4971 H   0  0  0  0  0  0
  -27.8993  -30.4113   23.9722 H   0  0  0  0  0  0
  -27.2645  -33.3655   26.1999 H   0  0  0  0  0  0
  -28.3935  -32.6821   25.0383 H   0  0  0  0  0  0
  -28.0662  -31.8498   26.5512 H   0  0  0  0  0  0
  -28.2492  -38.0154   24.7627 H   0  0  0  0  0  0
  -28.1198  -36.2692   24.6092 H   0  0  0  0  0  0
  -27.2320  -37.1173   25.8833 H   0  0  0  0  0  0
  -20.9511  -29.8756   21.6727 H   0  0  0  0  0  0
  -26.0116  -38.2770   24.1533 H   0  0  0  0  0  0
  -28.7486  -24.3197   17.7655 H   0  0  0  0  0  0
  -28.6920  -22.8110   16.8641 H   0  0  0  0  0  0
  -30.2371  -23.4561   17.4051 H   0  0  0  0  0  0
  -27.6412  -22.3016   22.7255 H   0  0  0  0  0  0
  -29.2366  -21.5908   22.9940 H   0  0  0  0  0  0
  -27.8867  -20.5776   22.4847 H   0  0  0  0  0  0
  -28.6116  -16.6261   16.6961 H   0  0  0  0  0  0
  -28.3181  -17.8130   17.9470 H   0  0  0  0  0  0
  -27.7603  -16.1514   18.1518 H   0  0  0  0  0  0
  -31.2415  -17.0620   16.8209 H   0  0  0  0  0  0
  -32.0288  -17.0254   18.3899 H   0  0  0  0  0  0
  -30.8851  -18.3097   17.9859 H   0  0  0  0  0  0
  -28.0160  -24.6390   21.7205 H   0  0  0  0  0  0
  -26.8271  -24.4387   20.5321 H   0  0  0  0  0  0
  -30.8316  -19.2049   19.9171 H   0  0  0  0  0  0
  -30.3133  -19.3723   21.5051 H   0  0  0  0  0  0
  -28.2506  -17.7161   20.1985 H   0  0  0  0  0  0
  -29.1654  -17.3992   21.5886 H   0  0  0  0  0  0
  -30.1298  -15.3954   18.0107 H   0  0  0  0  0  0
  1 25  1  0  0  0
  1 30  2  0  0  0
  1 84  1  0  0  0
  2  3  1  0  0  0
  2 25  1  0  0  0
  2 85  1  0  0  0
  2 86  1  0  0  0
  3  4  1  0  0  0
  3 87  1  0  0  0
  3 88  1  0  0  0
  4  5  1  0  0  0
  4 89  1  0  0  0
  4 90  1  0  0  0
  5  6  1  0  0  0
  5 26  1  0  0  0
  5 91  1  0  0  0
  6 25  1  0  0  0
  6 92  1  0  0  0
  6 93  1  0  0  0
  7  8  2  0  0  0
  7 26  1  0  0  0
  7 29  1  0  0  0
  8  9  1  0  0  0
  8 22  1  0  0  0
  9 10  1  0  0  0
  9 27  2  0  0  0
 10 11  2  0  0  0
 10 15  1  0  0  0
 11 12  1  0  0  0
 11 94  1  0  0  0
 12 13  2  0  0  0
 12 95  1  0  0  0
 13 14  1  0  0  0
 13 31  1  0  0  0
 14 15  2  0  0  0
 14 96  1  0  0  0
 15 97  1  0  0  0
 16 17  2  0  0  0
 16 21  1  0  0  0
 16 31  1  0  0  0
 17 18  1  0  0  0
 17 98  1  0  0  0
 18 19  2  0  0  0
 18 99  1  0  0  0
 19 20  1  0  0  0
 19 24  1  0  0  0
 20 21  2  0  0  0
 20100  1  0  0  0
 21 23  1  0  0  0
 22 28  1  0  0  0
 22 32  2  0  0  0
 26 27  1  0  0  0
 28101  1  0  0  0
 28102  1  0  0  0
 29103  1  0  0  0
 29104  1  0  0  0
 33 34  1  0  0  0
 33 66  1  0  0  0
 33 70  2  0  0  0
 34 36  1  0  0  0
 34 59  1  0  0  0
 34105  1  0  0  0
 35 44  2  0  0  0
 35 45  1  0  0  0
 35 68  1  0  0  0
 36 56  1  0  0  0
 36106  1  0  0  0
 37 39  1  0  0  0
 37 47  1  0  0  0
 37 66  1  0  0  0
 37107  1  0  0  0
 38 43  2  0  0  0
 38 46  1  0  0  0
 38 47  1  0  0  0
 39 64  1  0  0  0
 39 67  2  0  0  0
 40 52  1  0  0  0
 40 53  2  0  0  0
 40 58  1  0  0  0
 41108  1  0  0  0
 41109  1  0  0  0
 41110  1  0  0  0
 41 48  1  0  0  0
 42 43  1  0  0  0
 42 66  1  0  0  0
 42111  1  0  0  0
 42112  1  0  0  0
 43 44  1  0  0  0
 44113  1  0  0  0
 45 46  2  0  0  0
 45114  1  0  0  0
 46115  1  0  0  0
 47116  1  0  0  0
 47117  1  0  0  0
 48 56  1  0  0  0
 48 65  1  0  0  0
 48118  1  0  0  0
 49 50  1  0  0  0
 49 53  1  0  0  0
 49 64  1  0  0  0
 49119  1  0  0  0
 50 51  1  0  0  0
 50120  1  0  0  0
 50121  1  0  0  0
 51 52  1  0  0  0
 51122  1  0  0  0
 51123  1  0  0  0
 52124  1  0  0  0
 52125  1  0  0  0
 53 54  1  0  0  0
 54 55  2  0  0  0
 54126  1  0  0  0
 55 57  1  0  0  0
 55127  1  0  0  0
 56 69  2  0  0  0
 57 58  2  0  0  0
 57128  1  0  0  0
 58129  1  0  0  0
 59 60  1  0  0  0
 59 61  1  0  0  0
 59 62  1  0  0  0
 60130  1  0  0  0
 60131  1  0  0  0
 60132  1  0  0  0
 61133  1  0  0  0
 61134  1  0  0  0
 61135  1  0  0  0
 62136  1  0  0  0
 62137  1  0  0  0
 62138  1  0  0  0
 63 65  1  0  0  0
 63139  1  0  0  0
 63140  1  0  0  0
 63141  1  0  0  0
 64142  1  0  0  0
 65143  1  0  0  0
 68 78  1  0  0  0
 71 72  1  0  0  0
 71 73  2  0  0  0
 71 78  1  0  0  0
 72 74  1  0  0  0
 72 82  2  0  0  0
 73 75  1  0  0  0
 73 83  1  0  0  0
 74144  1  0  0  0
 74145  1  0  0  0
 74146  1  0  0  0
 75147  1  0  0  0
 75148  1  0  0  0
 75149  1  0  0  0
 76150  1  0  0  0
 76151  1  0  0  0
 76152  1  0  0  0
 76 81  1  0  0  0
 77 81  1  0  0  0
 77153  1  0  0  0
 77154  1  0  0  0
 77155  1  0  0  0
 78156  1  0  0  0
 78157  1  0  0  0
 79 80  1  0  0  0
 79 83  1  0  0  0
 79158  1  0  0  0
 79159  1  0  0  0
 80 84  1  0  0  0
 80160  1  0  0  0
 80161  1  0  0  0
 81 84  1  0  0  0
 81162  1  0  0  0
 82 83  1  0  0  0
M  ISO  4   1 100  68 101  78 101  84 100
M  END
> <chiral flag>
0

> <version>
0

> <s_m_source_file>
/data/baiqing/PycharmProjects/Reinvent-master-3.2/result/LINK_invent/BTK/process_docking_weight1_custom_sum_contain_oxygen_bond_distance_aromatic_linkinvent_7_9_3/rearranged_h_0054.sdf

> <i_m_source_file_index>
77

> <r_mmod_Potential_Energy-OPLS-2005>
994.267883300781

> <r_mmod_Stretch_Energy-OPLS-2005>
343.636749267578

> <r_mmod_Bend_Energy-OPLS-2005>
350.651489257812

> <r_mmod_Torsional_Energy-OPLS-2005>
390.245300292969

> <r_mmod_Improper_Torsional_Energy-OPLS-2005>
25.79319190979

> <r_mmod_Van_der_Waal_Energy-OPLS-2005>
104.339958190918

> <r_mmod_Electrostatic_Energy-OPLS-2005>
-294.965515136719

> <r_mmod_Solvation_Energy-OPLS-2005>
-204.19303894043

> <b_mmod_Minimization_Converged-OPLS-2005>
0

> <r_mmod_RMS_Derivative-OPLS-2005>
2.41347408294678

$$$$
77
                    3D
 Structure written by MMmdl.
156164  0  0  1  0            999 V2000
  -30.5815  -14.7638   20.4472 C   0  0  0  0  0  0
  -30.4469  -12.4687   19.4585 C   0  0  0  0  0  0
  -29.5182  -12.5084   18.2243 C   0  0  0  0  0  0
  -28.0459  -12.3179   18.6432 C   0  0  0  0  0  0
  -27.6437  -13.2213   19.8392 C   0  0  2  0  0  0
  -28.6900  -13.1610   20.9723 C   0  0  0  0  0  0
  -25.2546  -13.8162   20.5658 C   0  0  0  0  0  0
  -24.1824  -13.0442   20.9181 C   0  0  0  0  0  0
  -24.6387  -11.6919   20.8709 C   0  0  0  0  0  0
  -23.9050  -10.4304   21.0376 C   0  0  0  0  0  0
  -24.3615   -9.4243   21.9166 C   0  0  0  0  0  0
  -23.6293   -8.2278   22.0755 C   0  0  0  0  0  0
  -22.4269   -8.0304   21.3558 C   0  0  0  0  0  0
  -21.9898   -9.0262   20.4653 C   0  0  0  0  0  0
  -22.7215  -10.2143   20.3035 C   0  0  0  0  0  0
  -21.6858   -6.0751   22.5278 C   0  0  0  0  0  0
  -21.4029   -6.5654   23.8211 C   0  0  0  0  0  0
  -21.3646   -5.6795   24.9172 C   0  0  0  0  0  0
  -21.6027   -4.3051   24.7218 C   0  0  0  0  0  0
  -21.8813   -3.8163   23.4333 C   0  0  0  0  0  0
  -21.9197   -4.6986   22.3399 C   0  0  0  0  0  0
  -22.7843  -13.5267   21.1813 C   0  0  0  0  0  0
  -22.1666   -4.2175   21.0975 F   0  0  0  0  0  0
  -21.5619   -3.4528   25.7728 F   0  0  0  0  0  0
  -29.9851  -13.5235   20.3833 N   0  0  0  0  0  0
  -26.2955  -12.9343   20.3202 N   0  0  0  0  0  0
  -25.9304  -11.6508   20.5674 N   0  0  0  0  0  0
  -22.0431  -12.8309   22.0358 N   0  0  0  0  0  0
  -25.4248  -15.1883   20.4095 N   0  0  0  0  0  0
  -31.7833  -14.8886   20.1918 O   0  0  0  0  0  0
  -21.6654   -6.8890   21.4234 O   0  0  0  0  0  0
  -22.3568  -14.5574   20.6639 O   0  0  0  0  0  0
  -24.6334  -31.8552   23.1963 C   0  0  0  0  0  0
  -25.9173  -32.4733   23.8316 C   0  0  1  0  0  0
  -27.2260  -27.2595   20.1176 C   0  0  0  0  0  0
  -25.5982  -33.8538   24.2250 N   0  0  0  0  0  0
  -23.4305  -30.4783   21.5385 C   0  0  2  0  0  0
  -24.8762  -28.9236   20.1105 C   0  0  0  0  0  0
  -22.7523  -29.4622   22.4890 C   0  0  0  0  0  0
  -18.0308  -28.1390   22.8479 C   0  0  0  0  0  0
  -24.1494  -36.7280   23.2636 C   0  0  0  0  0  0
  -25.9766  -30.7673   21.3757 C   0  0  0  0  0  0
  -26.0496  -29.3889   20.7174 C   0  0  0  0  0  0
  -27.2266  -28.5728   20.7052 C   0  0  0  0  0  0
  -26.0204  -26.8619   19.4934 C   0  0  0  0  0  0
  -24.8661  -27.6674   19.4903 C   0  0  0  0  0  0
  -23.6491  -29.8111   20.1553 C   0  0  0  0  0  0
  -25.4110  -36.3044   24.0327 C   0  0  1  0  0  0
  -20.5911  -28.3726   23.1247 C   0  0  2  0  0  0
  -20.6800  -26.9443   22.5395 C   0  0  0  0  0  0
  -19.5775  -26.6388   21.5205 C   0  0  0  0  0  0
  -18.1954  -26.7936   22.1613 C   0  0  0  0  0  0
  -19.1562  -28.8875   23.2857 C   0  0  0  0  0  0
  -18.9479  -30.1465   23.8879 C   0  0  0  0  0  0
  -17.6479  -30.6588   24.0560 C   0  0  0  0  0  0
  -25.9058  -34.9424   23.5078 C   0  0  0  0  0  0
  -16.5370  -29.9081   23.6322 C   0  0  0  0  0  0
  -16.7297  -28.6499   23.0351 C   0  0  0  0  0  0
  -26.4545  -31.6561   25.0710 C   0  0  0  0  0  0
  -25.3789  -31.3734   26.1450 C   0  0  0  0  0  0
  -27.0388  -30.2961   24.6214 C   0  0  0  0  0  0
  -27.6070  -32.4332   25.7509 C   0  0  0  0  0  0
  -27.5577  -37.1784   24.8460 C   0  0  0  0  0  0
  -21.4233  -29.3068   22.3637 N   0  0  0  0  0  0
  -26.4273  -37.3754   23.9423 N   0  0  0  0  0  0
  -24.6989  -31.0535   22.0924 N   0  0  0  0  0  0
  -23.4211  -28.8158   23.2998 O   0  0  0  0  0  0
  -28.3376  -26.3812   20.1428 O   0  0  0  0  0  0
  -26.5613  -34.8918   22.4629 O   0  0  0  0  0  0
  -23.5493  -32.1377   23.7263 O   0  0  0  0  0  0
  -28.1912  -21.5628   21.0875 C   0  0  0  0  0  0
  -29.8270  -21.1844   19.7349 C   0  0  0  0  0  0
  -29.1301  -22.2713   20.2779 C   0  0  0  0  0  0
  -28.2943  -18.0012   19.0054 C   0  0  0  0  0  0
  -30.7008  -18.4849   18.6650 C   0  0  0  0  0  0
  -29.3444  -23.8466   20.1155 C   0  0  0  0  0  0
  -29.9884  -17.3617   20.8339 C   0  0  0  0  0  0
  -28.1137  -24.8901   20.1660 C   0  0  0  0  0  0
  -29.5783  -18.4750   19.7211 C   0  0  0  0  0  0
  -28.3037  -20.2250   21.0323 N   0  0  0  0  0  0
  -29.3232  -19.9311   20.1804 N   0  0  0  0  0  0
  -29.7517  -15.8619   20.6020 N   0  0  0  0  0  0
  -31.4843  -12.6194   19.1552 H   0  0  0  0  0  0
  -30.4142  -11.4909   19.9428 H   0  0  0  0  0  0
  -29.8120  -11.7400   17.5106 H   0  0  0  0  0  0
  -29.6361  -13.4642   17.7085 H   0  0  0  0  0  0
  -27.9139  -11.2691   18.9147 H   0  0  0  0  0  0
  -27.3859  -12.4963   17.7927 H   0  0  0  0  0  0
  -27.6359  -14.2395   19.4517 H   0  0  0  0  0  0
  -28.7311  -12.1657   21.4177 H   0  0  0  0  0  0
  -28.4222  -13.8420   21.7819 H   0  0  0  0  0  0
  -25.2741   -9.5750   22.4758 H   0  0  0  0  0  0
  -24.0001   -7.4676   22.7475 H   0  0  0  0  0  0
  -21.0826   -8.8757   19.8968 H   0  0  0  0  0  0
  -22.3624  -10.9684   19.6165 H   0  0  0  0  0  0
  -21.2035   -7.6163   23.9724 H   0  0  0  0  0  0
  -21.1458   -6.0529   25.9073 H   0  0  0  0  0  0
  -22.0599   -2.7631   23.2812 H   0  0  0  0  0  0
  -22.4028  -12.0052   22.4907 H   0  0  0  0  0  0
  -21.1035  -13.1374   22.2453 H   0  0  0  0  0  0
  -24.6533  -15.8361   20.5233 H   0  0  0  0  0  0
  -26.2621  -15.6294   20.0545 H   0  0  0  0  0  0
  -26.7234  -32.5381   23.1060 H   0  0  0  0  0  0
  -25.0210  -33.9658   25.0452 H   0  0  0  0  0  0
  -22.7263  -31.2988   21.3880 H   0  0  0  0  0  0
  -23.3751  -35.9615   23.3258 H   0  0  0  0  0  0
  -24.3598  -36.8943   22.2059 H   0  0  0  0  0  0
  -23.7261  -37.6476   23.6685 H   0  0  0  0  0  0
  -26.1177  -31.5299   20.6080 H   0  0  0  0  0  0
  -26.8516  -30.8139   22.0117 H   0  0  0  0  0  0
  -28.1277  -28.9261   21.1854 H   0  0  0  0  0  0
  -25.9294  -25.9111   18.9935 H   0  0  0  0  0  0
  -23.9675  -27.3030   19.0109 H   0  0  0  0  0  0
  -23.7774  -30.5817   19.3948 H   0  0  0  0  0  0
  -22.7677  -29.2449   19.8508 H   0  0  0  0  0  0
  -25.1287  -36.1870   25.0819 H   0  0  0  0  0  0
  -20.9994  -28.3317   24.1376 H   0  0  0  0  0  0
  -20.5711  -26.2354   23.3616 H   0  0  0  0  0  0
  -21.6670  -26.7485   22.1185 H   0  0  0  0  0  0
  -19.6942  -25.6292   21.1258 H   0  0  0  0  0  0
  -19.6691  -27.3175   20.6711 H   0  0  0  0  0  0
  -17.4231  -26.6698   21.4004 H   0  0  0  0  0  0
  -18.0334  -26.0077   22.9000 H   0  0  0  0  0  0
  -19.7958  -30.7282   24.2242 H   0  0  0  0  0  0
  -17.5037  -31.6258   24.5183 H   0  0  0  0  0  0
  -15.5367  -30.2976   23.7649 H   0  0  0  0  0  0
  -15.8702  -28.0799   22.7076 H   0  0  0  0  0  0
  -24.5932  -30.7110   25.7811 H   0  0  0  0  0  0
  -24.9037  -32.2921   26.4894 H   0  0  0  0  0  0
  -25.8134  -30.8909   27.0214 H   0  0  0  0  0  0
  -26.2959  -29.6697   24.1258 H   0  0  0  0  0  0
  -27.4075  -29.7245   25.4746 H   0  0  0  0  0  0
  -27.8844  -30.4213   23.9444 H   0  0  0  0  0  0
  -27.2622  -33.3631   26.2053 H   0  0  0  0  0  0
  -28.3903  -32.6905   25.0366 H   0  0  0  0  0  0
  -28.0714  -31.8499   26.5477 H   0  0  0  0  0  0
  -28.2557  -38.0112   24.7510 H   0  0  0  0  0  0
  -28.1102  -36.2638   24.6246 H   0  0  0  0  0  0
  -27.2313  -37.1392   25.8868 H   0  0  0  0  0  0
  -20.9436  -29.8798   21.6834 H   0  0  0  0  0  0
  -26.0142  -38.2826   24.1413 H   0  0  0  0  0  0
  -27.4208  -21.9818   21.7209 H   0  0  0  0  0  0
  -30.6520  -21.2083   19.0360 H   0  0  0  0  0  0
  -28.4099  -17.0136   18.5589 H   0  0  0  0  0  0
  -28.0265  -18.6842   18.1969 H   0  0  0  0  0  0
  -27.4471  -17.9612   19.6910 H   0  0  0  0  0  0
  -30.8495  -17.4973   18.2278 H   0  0  0  0  0  0
  -31.6500  -18.7945   19.0998 H   0  0  0  0  0  0
  -30.4732  -19.1671   17.8433 H   0  0  0  0  0  0
  -29.8574  -24.0323   19.1700 H   0  0  0  0  0  0
  -30.0583  -24.1702   20.8737 H   0  0  0  0  0  0
  -29.4080  -17.5956   21.7262 H   0  0  0  0  0  0
  -31.0255  -17.5155   21.1354 H   0  0  0  0  0  0
  -27.5372  -24.6780   21.0670 H   0  0  0  0  0  0
  -27.4792  -24.6046   19.3305 H   0  0  0  0  0  0
  -28.7807  -15.6058   20.6862 H   0  0  0  0  0  0
  1 25  1  0  0  0
  1 30  2  0  0  0
  1 82  1  0  0  0
  2  3  1  0  0  0
  2 25  1  0  0  0
  2 83  1  0  0  0
  2 84  1  0  0  0
  3  4  1  0  0  0
  3 85  1  0  0  0
  3 86  1  0  0  0
  4  5  1  0  0  0
  4 87  1  0  0  0
  4 88  1  0  0  0
  5  6  1  0  0  0
  5 26  1  0  0  0
  5 89  1  0  0  0
  6 25  1  0  0  0
  6 90  1  0  0  0
  6 91  1  0  0  0
  7  8  2  0  0  0
  7 26  1  0  0  0
  7 29  1  0  0  0
  8  9  1  0  0  0
  8 22  1  0  0  0
  9 10  1  0  0  0
  9 27  2  0  0  0
 10 11  2  0  0  0
 10 15  1  0  0  0
 11 12  1  0  0  0
 11 92  1  0  0  0
 12 13  2  0  0  0
 12 93  1  0  0  0
 13 14  1  0  0  0
 13 31  1  0  0  0
 14 15  2  0  0  0
 14 94  1  0  0  0
 15 95  1  0  0  0
 16 17  2  0  0  0
 16 21  1  0  0  0
 16 31  1  0  0  0
 17 18  1  0  0  0
 17 96  1  0  0  0
 18 19  2  0  0  0
 18 97  1  0  0  0
 19 20  1  0  0  0
 19 24  1  0  0  0
 20 21  2  0  0  0
 20 98  1  0  0  0
 21 23  1  0  0  0
 22 28  1  0  0  0
 22 32  2  0  0  0
 26 27  1  0  0  0
 28 99  1  0  0  0
 28100  1  0  0  0
 29101  1  0  0  0
 29102  1  0  0  0
 33 34  1  0  0  0
 33 66  1  0  0  0
 33 70  2  0  0  0
 34 36  1  0  0  0
 34 59  1  0  0  0
 34103  1  0  0  0
 35 44  2  0  0  0
 35 45  1  0  0  0
 35 68  1  0  0  0
 36 56  1  0  0  0
 36104  1  0  0  0
 37 39  1  0  0  0
 37 47  1  0  0  0
 37 66  1  0  0  0
 37105  1  0  0  0
 38 43  2  0  0  0
 38 46  1  0  0  0
 38 47  1  0  0  0
 39 64  1  0  0  0
 39 67  2  0  0  0
 40 52  1  0  0  0
 40 53  2  0  0  0
 40 58  1  0  0  0
 41106  1  0  0  0
 41107  1  0  0  0
 41108  1  0  0  0
 41 48  1  0  0  0
 42 43  1  0  0  0
 42 66  1  0  0  0
 42109  1  0  0  0
 42110  1  0  0  0
 43 44  1  0  0  0
 44111  1  0  0  0
 45 46  2  0  0  0
 45112  1  0  0  0
 46113  1  0  0  0
 47114  1  0  0  0
 47115  1  0  0  0
 48 56  1  0  0  0
 48 65  1  0  0  0
 48116  1  0  0  0
 49 50  1  0  0  0
 49 53  1  0  0  0
 49 64  1  0  0  0
 49117  1  0  0  0
 50 51  1  0  0  0
 50118  1  0  0  0
 50119  1  0  0  0
 51 52  1  0  0  0
 51120  1  0  0  0
 51121  1  0  0  0
 52122  1  0  0  0
 52123  1  0  0  0
 53 54  1  0  0  0
 54 55  2  0  0  0
 54124  1  0  0  0
 55 57  1  0  0  0
 55125  1  0  0  0
 56 69  2  0  0  0
 57 58  2  0  0  0
 57126  1  0  0  0
 58127  1  0  0  0
 59 60  1  0  0  0
 59 61  1  0  0  0
 59 62  1  0  0  0
 60128  1  0  0  0
 60129  1  0  0  0
 60130  1  0  0  0
 61131  1  0  0  0
 61132  1  0  0  0
 61133  1  0  0  0
 62134  1  0  0  0
 62135  1  0  0  0
 62136  1  0  0  0
 63 65  1  0  0  0
 63137  1  0  0  0
 63138  1  0  0  0
 63139  1  0  0  0
 64140  1  0  0  0
 65141  1  0  0  0
 68 78  1  0  0  0
 71 73  1  0  0  0
 71 80  2  0  0  0
 71142  1  0  0  0
 72 73  2  0  0  0
 72 81  1  0  0  0
 72143  1  0  0  0
 73 76  1  0  0  0
 74144  1  0  0  0
 74145  1  0  0  0
 74146  1  0  0  0
 74 79  1  0  0  0
 75 79  1  0  0  0
 75147  1  0  0  0
 75148  1  0  0  0
 75149  1  0  0  0
 76 78  1  0  0  0
 76150  1  0  0  0
 76151  1  0  0  0
 77 79  1  0  0  0
 77 82  1  0  0  0
 77152  1  0  0  0
 77153  1  0  0  0
 78154  1  0  0  0
 78155  1  0  0  0
 79 81  1  0  0  0
 80 81  1  0  0  0
 82156  1  0  0  0
M  ISO  4   1 100  68 101  78 101  82 100
M  END
> <chiral flag>
0

> <version>
0

> <s_m_source_file>
/data/baiqing/PycharmProjects/Reinvent-master-3.2/result/LINK_invent/BTK/process_docking_weight1_custom_sum_contain_oxygen_bond_distance_aromatic_linkinvent_7_9_3/rearranged_h_0054.sdf

> <i_m_source_file_index>
78

> <r_mmod_Potential_Energy-OPLS-2005>
121.250823974609

> <r_mmod_Stretch_Energy-OPLS-2005>
124.506721496582

> <r_mmod_Bend_Energy-OPLS-2005>
172.131881713867

> <r_mmod_Torsional_Energy-OPLS-2005>
253.426208496094

> <r_mmod_Improper_Torsional_Energy-OPLS-2005>
5.43184900283813

> <r_mmod_Van_der_Waal_Energy-OPLS-2005>
114.958992004395

> <r_mmod_Electrostatic_Energy-OPLS-2005>
-423.190795898438

> <r_mmod_Solvation_Energy-OPLS-2005>
-216.468292236328

> <b_mmod_Minimization_Converged-OPLS-2005>
0

> <r_mmod_RMS_Derivative-OPLS-2005>
3.36047625541687

$$$$
78
                    3D
 Structure written by MMmdl.
175183  0  0  1  0            999 V2000
  -30.7358  -14.4151   20.6700 C   0  0  0  0  0  0
  -30.4036  -12.3073   19.4207 C   0  0  0  0  0  0
  -29.4860  -12.5183   18.2001 C   0  0  0  0  0  0
  -28.0068  -12.3754   18.6021 C   0  0  0  0  0  0
  -27.6517  -13.2083   19.8611 C   0  0  2  0  0  0
  -28.6778  -12.9735   20.9836 C   0  0  0  0  0  0
  -25.2549  -13.8146   20.5681 C   0  0  0  0  0  0
  -24.1802  -13.0435   20.9155 C   0  0  0  0  0  0
  -24.6347  -11.6888   20.8668 C   0  0  0  0  0  0
  -23.9014  -10.4290   21.0360 C   0  0  0  0  0  0
  -24.3578   -9.4227   21.9156 C   0  0  0  0  0  0
  -23.6273   -8.2251   22.0743 C   0  0  0  0  0  0
  -22.4254   -8.0271   21.3541 C   0  0  0  0  0  0
  -21.9867   -9.0237   20.4635 C   0  0  0  0  0  0
  -22.7170  -10.2122   20.3031 C   0  0  0  0  0  0
  -21.6854   -6.0720   22.5280 C   0  0  0  0  0  0
  -21.4023   -6.5624   23.8214 C   0  0  0  0  0  0
  -21.3661   -5.6771   24.9171 C   0  0  0  0  0  0
  -21.6048   -4.3035   24.7225 C   0  0  0  0  0  0
  -21.8828   -3.8128   23.4344 C   0  0  0  0  0  0
  -21.9186   -4.6948   22.3393 C   0  0  0  0  0  0
  -22.7842  -13.5246   21.1838 C   0  0  0  0  0  0
  -22.1627   -4.2127   21.0968 F   0  0  0  0  0  0
  -21.5626   -3.4520   25.7741 F   0  0  0  0  0  0
  -30.0209  -13.2735   20.4639 N   0  0  0  0  0  0
  -26.2950  -12.9319   20.3242 N   0  0  0  0  0  0
  -25.9254  -11.6474   20.5621 N   0  0  0  0  0  0
  -22.0440  -12.8241   22.0364 N   0  0  0  0  0  0
  -25.4273  -15.1873   20.4261 N   0  0  0  0  0  0
  -31.7955  -14.6419   20.0708 O   0  0  0  0  0  0
  -21.6630   -6.8859   21.4241 O   0  0  0  0  0  0
  -22.3568  -14.5601   20.6746 O   0  0  0  0  0  0
  -24.6163  -31.8724   23.2125 C   0  0  0  0  0  0
  -25.9042  -32.4881   23.8409 C   0  0  1  0  0  0
  -27.2264  -27.4387   20.0899 C   0  0  0  0  0  0
  -25.5890  -33.8680   24.2355 N   0  0  0  0  0  0
  -23.4023  -30.4971   21.5557 C   0  0  2  0  0  0
  -24.8417  -28.9661   20.1150 C   0  0  0  0  0  0
  -22.7421  -29.4683   22.5025 C   0  0  0  0  0  0
  -18.0296  -28.1392   22.8539 C   0  0  0  0  0  0
  -24.1465  -36.7334   23.2641 C   0  0  0  0  0  0
  -25.9292  -30.8394   21.3588 C   0  0  0  0  0  0
  -26.0031  -29.4721   20.7119 C   0  0  0  0  0  0
  -27.1942  -28.7133   20.7002 C   0  0  0  0  0  0
  -26.0429  -26.9471   19.4882 C   0  0  0  0  0  0
  -24.8570  -27.7039   19.4998 C   0  0  0  0  0  0
  -23.6051  -29.8360   20.1667 C   0  0  0  0  0  0
  -25.4098  -36.3180   24.0347 C   0  0  1  0  0  0
  -20.5878  -28.3683   23.1361 C   0  0  2  0  0  0
  -20.6786  -26.9422   22.5468 C   0  0  0  0  0  0
  -19.5749  -26.6355   21.5281 C   0  0  0  0  0  0
  -18.1943  -26.7928   22.1706 C   0  0  0  0  0  0
  -19.1539  -28.8851   23.2953 C   0  0  0  0  0  0
  -18.9462  -30.1473   23.8947 C   0  0  0  0  0  0
  -17.6454  -30.6611   24.0573 C   0  0  0  0  0  0
  -25.9024  -34.9527   23.5152 C   0  0  0  0  0  0
  -16.5349  -29.9108   23.6312 C   0  0  0  0  0  0
  -16.7286  -28.6518   23.0347 C   0  0  0  0  0  0
  -26.4452  -31.6636   25.0713 C   0  0  0  0  0  0
  -25.3682  -31.3674   26.1417 C   0  0  0  0  0  0
  -27.0228  -30.3092   24.6004 C   0  0  0  0  0  0
  -27.6071  -32.4298   25.7463 C   0  0  0  0  0  0
  -27.5587  -37.1838   24.8472 C   0  0  0  0  0  0
  -21.4149  -29.3058   22.3773 N   0  0  0  0  0  0
  -26.4307  -37.3858   23.9416 N   0  0  0  0  0  0
  -24.6694  -31.0816   22.1026 N   0  0  0  0  0  0
  -23.4206  -28.8186   23.3035 O   0  0  0  0  0  0
  -28.4173  -26.7401   20.0998 O   0  0  0  0  0  0
  -26.5609  -34.8969   22.4728 O   0  0  0  0  0  0
  -23.5353  -32.1464   23.7509 O   0  0  0  0  0  0
  -27.5519  -18.7497   22.5023 C   0  0  0  0  0  0
  -26.7553  -19.1558   21.4156 C   0  0  0  0  0  0
  -27.1231  -18.6235   20.1590 C   0  0  0  0  0  0
  -28.8972  -17.5201   21.1296 C   0  0  0  0  0  0
  -26.0527  -17.7277   18.0104 C   0  0  0  0  0  0
  -29.3971  -14.8934   23.8362 C   0  0  0  0  0  0
  -26.3494  -22.8727   22.9175 C   0  0  0  0  0  0
  -25.5125  -20.0212   21.6696 C   0  0  0  0  0  0
  -26.4239  -18.9594   18.8463 C   0  0  0  0  0  0
  -30.1833  -16.7301   20.9264 C   0  0  0  0  0  0
  -27.9505  -24.4514   20.9464 C   0  0  0  0  0  0
  -30.5547  -15.3126   22.9156 C   0  0  0  0  0  0
  -25.4972  -21.4593   21.0809 C   0  0  0  0  0  0
  -26.8682  -23.4208   20.5465 C   0  0  0  0  0  0
  -28.4257  -25.3448   19.7728 C   0  0  0  0  0  0
  -28.6266  -17.9548   22.3523 N   0  0  0  0  0  0
  -28.2001  -17.8215   20.0409 N   0  0  0  0  0  0
  -30.1932  -15.3557   21.4793 N   0  0  0  0  0  0
  -26.5962  -22.3458   21.5498 N   0  3  1  0  0  0
  -31.4503  -12.4031   19.1271 H   0  0  0  0  0  0
  -30.3001  -11.2926   19.8047 H   0  0  0  0  0  0
  -29.7322  -11.7968   17.4187 H   0  0  0  0  0  0
  -29.6567  -13.5064   17.7708 H   0  0  0  0  0  0
  -27.8138  -11.3179   18.7849 H   0  0  0  0  0  0
  -27.3590  -12.6575   17.7731 H   0  0  0  0  0  0
  -27.6980  -14.2603   19.5758 H   0  0  0  0  0  0
  -28.6375  -11.9384   21.3275 H   0  0  0  0  0  0
  -28.3968  -13.5801   21.8371 H   0  0  0  0  0  0
  -25.2726   -9.5713   22.4727 H   0  0  0  0  0  0
  -23.9975   -7.4645   22.7471 H   0  0  0  0  0  0
  -21.0788   -8.8732   19.8958 H   0  0  0  0  0  0
  -22.3600  -10.9656   19.6146 H   0  0  0  0  0  0
  -21.2008   -7.6130   23.9728 H   0  0  0  0  0  0
  -21.1462   -6.0469   25.9077 H   0  0  0  0  0  0
  -22.0601   -2.7596   23.2825 H   0  0  0  0  0  0
  -22.3995  -11.9890   22.4786 H   0  0  0  0  0  0
  -21.1079  -13.1357   22.2558 H   0  0  0  0  0  0
  -24.6564  -15.8318   20.5535 H   0  0  0  0  0  0
  -26.2781  -15.6411   20.1186 H   0  0  0  0  0  0
  -26.7121  -32.5585   23.1189 H   0  0  0  0  0  0
  -25.0006  -33.9841   25.0473 H   0  0  0  0  0  0
  -22.6929  -31.3157   21.4248 H   0  0  0  0  0  0
  -23.3759  -35.9636   23.3347 H   0  0  0  0  0  0
  -24.3546  -36.8897   22.2047 H   0  0  0  0  0  0
  -23.7158  -37.6530   23.6610 H   0  0  0  0  0  0
  -26.0185  -31.5973   20.5793 H   0  0  0  0  0  0
  -26.8301  -30.9118   21.9569 H   0  0  0  0  0  0
  -28.0905  -29.0991   21.1660 H   0  0  0  0  0  0
  -25.9994  -25.9893   18.9953 H   0  0  0  0  0  0
  -23.9665  -27.3155   19.0244 H   0  0  0  0  0  0
  -23.7127  -30.6184   19.4138 H   0  0  0  0  0  0
  -22.7252  -29.2606   19.8702 H   0  0  0  0  0  0
  -25.1271  -36.2099   25.0845 H   0  0  0  0  0  0
  -20.9990  -28.3256   24.1480 H   0  0  0  0  0  0
  -20.5673  -26.2329   23.3674 H   0  0  0  0  0  0
  -21.6662  -26.7440   22.1302 H   0  0  0  0  0  0
  -19.6869  -25.6242   21.1385 H   0  0  0  0  0  0
  -19.6658  -27.3103   20.6759 H   0  0  0  0  0  0
  -17.4183  -26.6642   21.4141 H   0  0  0  0  0  0
  -18.0379  -26.0102   22.9148 H   0  0  0  0  0  0
  -19.7921  -30.7302   24.2328 H   0  0  0  0  0  0
  -17.4990  -31.6303   24.5160 H   0  0  0  0  0  0
  -15.5342  -30.3018   23.7587 H   0  0  0  0  0  0
  -15.8708  -28.0841   22.7022 H   0  0  0  0  0  0
  -24.5953  -30.6947   25.7687 H   0  0  0  0  0  0
  -24.8739  -32.2778   26.4812 H   0  0  0  0  0  0
  -25.8008  -30.8869   27.0200 H   0  0  0  0  0  0
  -26.2722  -29.6941   24.1034 H   0  0  0  0  0  0
  -27.3998  -29.7252   25.4408 H   0  0  0  0  0  0
  -27.8572  -30.4438   23.9113 H   0  0  0  0  0  0
  -27.2783  -33.3641   26.2023 H   0  0  0  0  0  0
  -28.3892  -32.6779   25.0269 H   0  0  0  0  0  0
  -28.0726  -31.8400   26.5367 H   0  0  0  0  0  0
  -28.2652  -38.0100   24.7548 H   0  0  0  0  0  0
  -28.1052  -36.2651   24.6300 H   0  0  0  0  0  0
  -27.2306  -37.1483   25.8874 H   0  0  0  0  0  0
  -20.9296  -29.8877   21.7088 H   0  0  0  0  0  0
  -26.0227  -38.2957   24.1404 H   0  0  0  0  0  0
  -27.3315  -19.0774   23.5075 H   0  0  0  0  0  0
  -25.5821  -18.0291   17.0754 H   0  0  0  0  0  0
  -25.3457  -17.0902   18.5374 H   0  0  0  0  0  0
  -26.9325  -17.1348   17.7621 H   0  0  0  0  0  0
  -29.6169  -15.1608   24.8703 H   0  0  0  0  0  0
  -29.2380  -13.8146   23.8255 H   0  0  0  0  0  0
  -28.4621  -15.3826   23.5631 H   0  0  0  0  0  0
  -26.0097  -22.0956   23.6015 H   0  0  0  0  0  0
  -25.5937  -23.6611   22.9057 H   0  0  0  0  0  0
  -27.2600  -23.2865   23.3491 H   0  0  0  0  0  0
  -25.3368  -20.0666   22.7446 H   0  0  0  0  0  0
  -24.6509  -19.4773   21.2818 H   0  0  0  0  0  0
  -27.0703  -19.6233   18.2716 H   0  0  0  0  0  0
  -25.5035  -19.5067   19.0259 H   0  0  0  0  0  0
  -31.0156  -17.3087   21.3317 H   0  0  0  0  0  0
  -30.3665  -16.7179   19.8483 H   0  0  0  0  0  0
  -28.8172  -23.9354   21.3610 H   0  0  0  0  0  0
  -27.5692  -25.0835   21.7480 H   0  0  0  0  0  0
  -31.4020  -14.6463   23.0919 H   0  0  0  0  0  0
  -30.9030  -16.2904   23.2499 H   0  0  0  0  0  0
  -24.5425  -21.9356   21.3119 H   0  0  0  0  0  0
  -25.5143  -21.4056   19.9939 H   0  0  0  0  0  0
  -27.1630  -22.9405   19.6134 H   0  0  0  0  0  0
  -25.9383  -23.9513   20.3341 H   0  0  0  0  0  0
  -27.9038  -25.1324   18.8395 H   0  0  0  0  0  0
  -29.4612  -25.0823   19.5526 H   0  0  0  0  0  0
  -27.4212  -21.7653   21.5916 H   0  0  0  0  0  0
  1 25  1  0  0  0
  1 30  2  0  0  0
  1 88  1  0  0  0
  2  3  1  0  0  0
  2 25  1  0  0  0
  2 90  1  0  0  0
  2 91  1  0  0  0
  3  4  1  0  0  0
  3 92  1  0  0  0
  3 93  1  0  0  0
  4  5  1  0  0  0
  4 94  1  0  0  0
  4 95  1  0  0  0
  5  6  1  0  0  0
  5 26  1  0  0  0
  5 96  1  0  0  0
  6 25  1  0  0  0
  6 97  1  0  0  0
  6 98  1  0  0  0
  7  8  2  0  0  0
  7 26  1  0  0  0
  7 29  1  0  0  0
  8  9  1  0  0  0
  8 22  1  0  0  0
  9 10  1  0  0  0
  9 27  2  0  0  0
 10 11  2  0  0  0
 10 15  1  0  0  0
 11 12  1  0  0  0
 11 99  1  0  0  0
 12 13  2  0  0  0
 12100  1  0  0  0
 13 14  1  0  0  0
 13 31  1  0  0  0
 14 15  2  0  0  0
 14101  1  0  0  0
 15102  1  0  0  0
 16 17  2  0  0  0
 16 21  1  0  0  0
 16 31  1  0  0  0
 17 18  1  0  0  0
 17103  1  0  0  0
 18 19  2  0  0  0
 18104  1  0  0  0
 19 20  1  0  0  0
 19 24  1  0  0  0
 20 21  2  0  0  0
 20105  1  0  0  0
 21 23  1  0  0  0
 22 28  1  0  0  0
 22 32  2  0  0  0
 26 27  1  0  0  0
 28106  1  0  0  0
 28107  1  0  0  0
 29108  1  0  0  0
 29109  1  0  0  0
 33 34  1  0  0  0
 33 66  1  0  0  0
 33 70  2  0  0  0
 34 36  1  0  0  0
 34 59  1  0  0  0
 34110  1  0  0  0
 35 44  2  0  0  0
 35 45  1  0  0  0
 35 68  1  0  0  0
 36 56  1  0  0  0
 36111  1  0  0  0
 37 39  1  0  0  0
 37 47  1  0  0  0
 37 66  1  0  0  0
 37112  1  0  0  0
 38 43  2  0  0  0
 38 46  1  0  0  0
 38 47  1  0  0  0
 39 64  1  0  0  0
 39 67  2  0  0  0
 40 52  1  0  0  0
 40 53  2  0  0  0
 40 58  1  0  0  0
 41113  1  0  0  0
 41114  1  0  0  0
 41115  1  0  0  0
 41 48  1  0  0  0
 42 43  1  0  0  0
 42 66  1  0  0  0
 42116  1  0  0  0
 42117  1  0  0  0
 43 44  1  0  0  0
 44118  1  0  0  0
 45 46  2  0  0  0
 45119  1  0  0  0
 46120  1  0  0  0
 47121  1  0  0  0
 47122  1  0  0  0
 48 56  1  0  0  0
 48 65  1  0  0  0
 48123  1  0  0  0
 49 50  1  0  0  0
 49 53  1  0  0  0
 49 64  1  0  0  0
 49124  1  0  0  0
 50 51  1  0  0  0
 50125  1  0  0  0
 50126  1  0  0  0
 51 52  1  0  0  0
 51127  1  0  0  0
 51128  1  0  0  0
 52129  1  0  0  0
 52130  1  0  0  0
 53 54  1  0  0  0
 54 55  2  0  0  0
 54131  1  0  0  0
 55 57  1  0  0  0
 55132  1  0  0  0
 56 69  2  0  0  0
 57 58  2  0  0  0
 57133  1  0  0  0
 58134  1  0  0  0
 59 60  1  0  0  0
 59 61  1  0  0  0
 59 62  1  0  0  0
 60135  1  0  0  0
 60136  1  0  0  0
 60137  1  0  0  0
 61138  1  0  0  0
 61139  1  0  0  0
 61140  1  0  0  0
 62141  1  0  0  0
 62142  1  0  0  0
 62143  1  0  0  0
 63 65  1  0  0  0
 63144  1  0  0  0
 63145  1  0  0  0
 63146  1  0  0  0
 64147  1  0  0  0
 65148  1  0  0  0
 68 85  1  0  0  0
 71 72  2  0  0  0
 71 86  1  0  0  0
 71149  1  0  0  0
 72 73  1  0  0  0
 72 78  1  0  0  0
 73 79  1  0  0  0
 73 87  2  0  0  0
 74 80  1  0  0  0
 74 86  2  0  0  0
 74 87  1  0  0  0
 75 79  1  0  0  0
 75150  1  0  0  0
 75151  1  0  0  0
 75152  1  0  0  0
 76 82  1  0  0  0
 76153  1  0  0  0
 76154  1  0  0  0
 76155  1  0  0  0
 77156  1  0  0  0
 77157  1  0  0  0
 77158  1  0  0  0
 77 89  1  0  0  0
 78 83  1  0  0  0
 78159  1  0  0  0
 78160  1  0  0  0
 79161  1  0  0  0
 79162  1  0  0  0
 80 88  1  0  0  0
 80163  1  0  0  0
 80164  1  0  0  0
 81 84  1  0  0  0
 81 85  1  0  0  0
 81165  1  0  0  0
 81166  1  0  0  0
 82 88  1  0  0  0
 82167  1  0  0  0
 82168  1  0  0  0
 83 89  1  0  0  0
 83169  1  0  0  0
 83170  1  0  0  0
 84 89  1  0  0  0
 84171  1  0  0  0
 84172  1  0  0  0
 85173  1  0  0  0
 85174  1  0  0  0
 89175  1  0  0  0
M  CHG  1  89   1
M  ISO  4   1 100  68 101  85 101  88 100
M  END
> <chiral flag>
0

> <version>
0

> <s_m_source_file>
/data/baiqing/PycharmProjects/Reinvent-master-3.2/result/LINK_invent/BTK/process_docking_weight1_custom_sum_contain_oxygen_bond_distance_aromatic_linkinvent_7_9_3/rearranged_h_0054.sdf

> <i_m_source_file_index>
79

> <r_mmod_Potential_Energy-OPLS-2005>
-511.705261230469

> <r_mmod_Stretch_Energy-OPLS-2005>
39.4409103393555

> <r_mmod_Bend_Energy-OPLS-2005>
124.261932373047

> <r_mmod_Torsional_Energy-OPLS-2005>
288.631408691406

> <r_mmod_Improper_Torsional_Energy-OPLS-2005>
7.21297454833984

> <r_mmod_Van_der_Waal_Energy-OPLS-2005>
160.833892822266

> <r_mmod_Electrostatic_Energy-OPLS-2005>
-710.747863769531

> <r_mmod_Solvation_Energy-OPLS-2005>
-431.161834716797

> <b_mmod_Minimization_Converged-OPLS-2005>
0

> <r_mmod_RMS_Derivative-OPLS-2005>
3.16832685470581

$$$$
79
                    3D
 Structure written by MMmdl.
158166  0  0  1  0            999 V2000
  -30.6735  -14.5909   20.4032 C   0  0  0  0  0  0
  -30.4203  -12.3539   19.4100 C   0  0  0  0  0  0
  -29.4778  -12.4207   18.1881 C   0  0  0  0  0  0
  -27.9932  -12.3321   18.6083 C   0  0  0  0  0  0
  -27.6290  -13.2023   19.8465 C   0  0  2  0  0  0
  -28.6972  -13.1045   20.9552 C   0  0  0  0  0  0
  -25.2504  -13.8177   20.5766 C   0  0  0  0  0  0
  -24.1741  -13.0478   20.9288 C   0  0  0  0  0  0
  -24.6272  -11.6931   20.8803 C   0  0  0  0  0  0
  -23.8953  -10.4301   21.0404 C   0  0  0  0  0  0
  -24.3570   -9.4201   21.9125 C   0  0  0  0  0  0
  -23.6297   -8.2206   22.0665 C   0  0  0  0  0  0
  -22.4279   -8.0224   21.3496 C   0  0  0  0  0  0
  -21.9894   -9.0187   20.4603 C   0  0  0  0  0  0
  -22.7170  -10.2099   20.3042 C   0  0  0  0  0  0
  -21.6864   -6.0716   22.5294 C   0  0  0  0  0  0
  -21.3963   -6.5608   23.8227 C   0  0  0  0  0  0
  -21.3649   -5.6764   24.9205 C   0  0  0  0  0  0
  -21.6046   -4.3024   24.7251 C   0  0  0  0  0  0
  -21.8814   -3.8137   23.4370 C   0  0  0  0  0  0
  -21.9203   -4.6945   22.3426 C   0  0  0  0  0  0
  -22.7780  -13.5251   21.1959 C   0  0  0  0  0  0
  -22.1683   -4.2125   21.1008 F   0  0  0  0  0  0
  -21.5667   -3.4505   25.7753 F   0  0  0  0  0  0
  -30.0011  -13.4041   20.3497 N   0  0  0  0  0  0
  -26.2856  -12.9272   20.3396 N   0  0  0  0  0  0
  -25.9175  -11.6454   20.5815 N   0  0  0  0  0  0
  -22.0411  -12.8185   22.0471 N   0  0  0  0  0  0
  -25.4256  -15.1910   20.4148 N   0  0  0  0  0  0
  -31.8978  -14.6501   20.2617 O   0  0  0  0  0  0
  -21.6701   -6.8795   21.4201 O   0  0  0  0  0  0
  -22.3403  -14.5552   20.6796 O   0  0  0  0  0  0
  -24.6164  -31.8674   23.2103 C   0  0  0  0  0  0
  -25.9031  -32.4825   23.8402 C   0  0  1  0  0  0
  -27.2382  -27.4090   20.1161 C   0  0  0  0  0  0
  -25.5882  -33.8617   24.2335 N   0  0  0  0  0  0
  -23.4081  -30.4876   21.5499 C   0  0  2  0  0  0
  -24.8602  -28.9489   20.1219 C   0  0  0  0  0  0
  -22.7420  -29.4646   22.4990 C   0  0  0  0  0  0
  -18.0284  -28.1371   22.8605 C   0  0  0  0  0  0
  -24.1491  -36.7316   23.2632 C   0  0  0  0  0  0
  -25.9400  -30.8233   21.3743 C   0  0  0  0  0  0
  -26.0182  -29.4511   20.7301 C   0  0  0  0  0  0
  -27.2119  -28.6872   20.7313 C   0  0  0  0  0  0
  -26.0655  -26.9255   19.5041 C   0  0  0  0  0  0
  -24.8774  -27.6825   19.5110 C   0  0  0  0  0  0
  -23.6234  -29.8196   20.1651 C   0  0  0  0  0  0
  -25.4120  -36.3121   24.0328 C   0  0  1  0  0  0
  -20.5878  -28.3686   23.1401 C   0  0  2  0  0  0
  -20.6712  -26.9351   22.5686 C   0  0  0  0  0  0
  -19.5782  -26.6502   21.5331 C   0  0  0  0  0  0
  -18.1972  -26.7875   22.1798 C   0  0  0  0  0  0
  -19.1531  -28.8876   23.2966 C   0  0  0  0  0  0
  -18.9451  -30.1477   23.8958 C   0  0  0  0  0  0
  -17.6450  -30.6612   24.0612 C   0  0  0  0  0  0
  -25.9049  -34.9475   23.5138 C   0  0  0  0  0  0
  -16.5331  -29.9104   23.6400 C   0  0  0  0  0  0
  -16.7261  -28.6492   23.0482 C   0  0  0  0  0  0
  -26.4444  -31.6608   25.0742 C   0  0  0  0  0  0
  -25.3693  -31.3718   26.1484 C   0  0  0  0  0  0
  -27.0281  -30.3038   24.6148 C   0  0  0  0  0  0
  -27.6026  -32.4333   25.7494 C   0  0  0  0  0  0
  -27.5587  -37.1825   24.8462 C   0  0  0  0  0  0
  -21.4154  -29.2947   22.3664 N   0  0  0  0  0  0
  -26.4313  -37.3799   23.9393 N   0  0  0  0  0  0
  -24.6717  -31.0751   22.1028 N   0  0  0  0  0  0
  -23.4162  -28.8265   23.3110 O   0  0  0  0  0  0
  -28.3763  -26.6333   20.0376 O   0  0  0  0  0  0
  -26.5598  -34.8912   22.4705 O   0  0  0  0  0  0
  -23.5335  -32.1429   23.7473 O   0  0  0  0  0  0
  -27.7147  -23.7638   21.8550 C   0  0  0  0  0  0
  -29.8140  -23.6548   20.7591 C   0  0  0  0  0  0
  -28.7686  -24.4634   21.2493 C   0  0  0  0  0  0
  -28.7687  -21.7574   21.5102 C   0  0  0  0  0  0
  -30.5355  -16.5949   17.9409 C   0  0  0  0  0  0
  -28.8236  -26.0036   21.2479 C   0  0  0  0  0  0
  -29.2898  -18.1723   20.9727 C   0  0  0  0  0  0
  -29.4540  -16.0470   18.8950 C   0  0  0  0  0  0
  -30.3242  -16.9880   20.9925 C   0  0  0  0  0  0
  -29.7897  -19.5199   21.5671 C   0  0  0  0  0  0
  -27.7124  -22.4198   21.9625 N   0  0  0  0  0  0
  -29.8191  -22.3046   20.9041 N   0  0  0  0  0  0
  -29.9290  -15.7395   20.2691 N   0  0  0  0  0  0
  -28.6652  -20.4113   21.6755 O   0  0  0  0  0  0
  -31.4545  -12.4798   19.0809 H   0  0  0  0  0  0
  -30.3715  -11.3770   19.8908 H   0  0  0  0  0  0
  -29.7155  -11.6090   17.5003 H   0  0  0  0  0  0
  -29.6602  -13.3251   17.6093 H   0  0  0  0  0  0
  -27.7762  -11.2847   18.8219 H   0  0  0  0  0  0
  -27.3598  -12.6020   17.7611 H   0  0  0  0  0  0
  -27.5906  -14.2269   19.5037 H   0  0  0  0  0  0
  -28.4733  -13.8015   21.7656 H   0  0  0  0  0  0
  -28.7034  -12.1005   21.3808 H   0  0  0  0  0  0
  -25.2676   -9.5732   22.4721 H   0  0  0  0  0  0
  -24.0044   -7.4566   22.7323 H   0  0  0  0  0  0
  -21.0862   -8.8698   19.8859 H   0  0  0  0  0  0
  -22.3572  -10.9652   19.6203 H   0  0  0  0  0  0
  -21.1866   -7.6095   23.9771 H   0  0  0  0  0  0
  -21.1526   -6.0460   25.9133 H   0  0  0  0  0  0
  -22.0617   -2.7603   23.2903 H   0  0  0  0  0  0
  -22.4051  -11.9791   22.4744 H   0  0  0  0  0  0
  -21.1002  -13.1120   22.2669 H   0  0  0  0  0  0
  -24.6581  -15.8460   20.5109 H   0  0  0  0  0  0
  -26.3052  -15.6441   20.1901 H   0  0  0  0  0  0
  -26.7132  -32.5534   23.1189 H   0  0  0  0  0  0
  -25.0039  -33.9798   25.0476 H   0  0  0  0  0  0
  -22.6960  -31.3035   21.4079 H   0  0  0  0  0  0
  -23.3750  -35.9657   23.3330 H   0  0  0  0  0  0
  -24.3569  -36.8896   22.2041 H   0  0  0  0  0  0
  -23.7257  -37.6531   23.6633 H   0  0  0  0  0  0
  -26.0632  -31.5854   20.6033 H   0  0  0  0  0  0
  -26.8256  -30.8787   21.9964 H   0  0  0  0  0  0
  -28.1109  -29.0740   21.1906 H   0  0  0  0  0  0
  -26.0695  -25.9557   19.0270 H   0  0  0  0  0  0
  -23.9870  -27.2920   19.0400 H   0  0  0  0  0  0
  -23.7403  -30.5969   19.4073 H   0  0  0  0  0  0
  -22.7482  -29.2405   19.8639 H   0  0  0  0  0  0
  -25.1310  -36.2001   25.0821 H   0  0  0  0  0  0
  -21.0010  -28.3355   24.1510 H   0  0  0  0  0  0
  -20.5289  -26.2327   23.3930 H   0  0  0  0  0  0
  -21.6663  -26.7195   22.1752 H   0  0  0  0  0  0
  -19.6697  -27.3562   20.7065 H   0  0  0  0  0  0
  -19.7075  -25.6542   21.1070 H   0  0  0  0  0  0
  -17.4138  -26.6451   21.4339 H   0  0  0  0  0  0
  -18.0571  -26.0061   22.9304 H   0  0  0  0  0  0
  -19.7925  -30.7242   24.2393 H   0  0  0  0  0  0
  -17.5017  -31.6288   24.5214 H   0  0  0  0  0  0
  -15.5325  -30.3022   23.7727 H   0  0  0  0  0  0
  -15.8664  -28.0790   22.7227 H   0  0  0  0  0  0
  -24.5858  -30.7083   25.7798 H   0  0  0  0  0  0
  -24.8880  -32.2877   26.4931 H   0  0  0  0  0  0
  -25.8005  -30.8866   27.0253 H   0  0  0  0  0  0
  -26.2844  -29.6829   24.1135 H   0  0  0  0  0  0
  -27.3961  -29.7245   25.4629 H   0  0  0  0  0  0
  -27.8726  -30.4336   23.9374 H   0  0  0  0  0  0
  -27.2645  -33.3629   26.2088 H   0  0  0  0  0  0
  -28.3805  -32.6913   25.0292 H   0  0  0  0  0  0
  -28.0744  -31.8462   26.5389 H   0  0  0  0  0  0
  -28.2642  -38.0088   24.7493 H   0  0  0  0  0  0
  -28.1055  -36.2624   24.6339 H   0  0  0  0  0  0
  -27.2288  -37.1530   25.8858 H   0  0  0  0  0  0
  -20.9351  -29.8392   21.6630 H   0  0  0  0  0  0
  -26.0211  -38.2887   24.1357 H   0  0  0  0  0  0
  -26.8739  -24.2854   22.2914 H   0  0  0  0  0  0
  -30.6724  -24.0928   20.2690 H   0  0  0  0  0  0
  -31.4682  -16.0321   18.0017 H   0  0  0  0  0  0
  -30.7662  -17.6443   18.1237 H   0  0  0  0  0  0
  -30.1864  -16.5175   16.9112 H   0  0  0  0  0  0
  -29.8603  -26.3090   21.4032 H   0  0  0  0  0  0
  -28.2738  -26.3758   22.1171 H   0  0  0  0  0  0
  -28.3810  -17.8625   21.4911 H   0  0  0  0  0  0
  -28.9841  -18.4235   19.9575 H   0  0  0  0  0  0
  -29.0709  -15.1567   18.4193 H   0  0  0  0  0  0
  -28.5830  -16.6938   18.8892 H   0  0  0  0  0  0
  -31.2757  -17.3363   20.5862 H   0  0  0  0  0  0
  -30.5437  -16.7380   22.0310 H   0  0  0  0  0  0
  -30.1915  -19.3494   22.5684 H   0  0  0  0  0  0
  -30.6078  -19.9140   20.9651 H   0  0  0  0  0  0
  1 25  1  0  0  0
  1 30  2  0  0  0
  1 83  1  0  0  0
  2  3  1  0  0  0
  2 25  1  0  0  0
  2 85  1  0  0  0
  2 86  1  0  0  0
  3  4  1  0  0  0
  3 87  1  0  0  0
  3 88  1  0  0  0
  4  5  1  0  0  0
  4 89  1  0  0  0
  4 90  1  0  0  0
  5  6  1  0  0  0
  5 26  1  0  0  0
  5 91  1  0  0  0
  6 25  1  0  0  0
  6 92  1  0  0  0
  6 93  1  0  0  0
  7  8  2  0  0  0
  7 26  1  0  0  0
  7 29  1  0  0  0
  8  9  1  0  0  0
  8 22  1  0  0  0
  9 10  1  0  0  0
  9 27  2  0  0  0
 10 11  2  0  0  0
 10 15  1  0  0  0
 11 12  1  0  0  0
 11 94  1  0  0  0
 12 13  2  0  0  0
 12 95  1  0  0  0
 13 14  1  0  0  0
 13 31  1  0  0  0
 14 15  2  0  0  0
 14 96  1  0  0  0
 15 97  1  0  0  0
 16 17  2  0  0  0
 16 21  1  0  0  0
 16 31  1  0  0  0
 17 18  1  0  0  0
 17 98  1  0  0  0
 18 19  2  0  0  0
 18 99  1  0  0  0
 19 20  1  0  0  0
 19 24  1  0  0  0
 20 21  2  0  0  0
 20100  1  0  0  0
 21 23  1  0  0  0
 22 28  1  0  0  0
 22 32  2  0  0  0
 26 27  1  0  0  0
 28101  1  0  0  0
 28102  1  0  0  0
 29103  1  0  0  0
 29104  1  0  0  0
 33 34  1  0  0  0
 33 66  1  0  0  0
 33 70  2  0  0  0
 34 36  1  0  0  0
 34 59  1  0  0  0
 34105  1  0  0  0
 35 44  2  0  0  0
 35 45  1  0  0  0
 35 68  1  0  0  0
 36 56  1  0  0  0
 36106  1  0  0  0
 37 39  1  0  0  0
 37 47  1  0  0  0
 37 66  1  0  0  0
 37107  1  0  0  0
 38 43  2  0  0  0
 38 46  1  0  0  0
 38 47  1  0  0  0
 39 64  1  0  0  0
 39 67  2  0  0  0
 40 52  1  0  0  0
 40 53  2  0  0  0
 40 58  1  0  0  0
 41108  1  0  0  0
 41109  1  0  0  0
 41110  1  0  0  0
 41 48  1  0  0  0
 42 43  1  0  0  0
 42 66  1  0  0  0
 42111  1  0  0  0
 42112  1  0  0  0
 43 44  1  0  0  0
 44113  1  0  0  0
 45 46  2  0  0  0
 45114  1  0  0  0
 46115  1  0  0  0
 47116  1  0  0  0
 47117  1  0  0  0
 48 56  1  0  0  0
 48 65  1  0  0  0
 48118  1  0  0  0
 49 50  1  0  0  0
 49 53  1  0  0  0
 49 64  1  0  0  0
 49119  1  0  0  0
 50 51  1  0  0  0
 50120  1  0  0  0
 50121  1  0  0  0
 51 52  1  0  0  0
 51122  1  0  0  0
 51123  1  0  0  0
 52124  1  0  0  0
 52125  1  0  0  0
 53 54  1  0  0  0
 54 55  2  0  0  0
 54126  1  0  0  0
 55 57  1  0  0  0
 55127  1  0  0  0
 56 69  2  0  0  0
 57 58  2  0  0  0
 57128  1  0  0  0
 58129  1  0  0  0
 59 60  1  0  0  0
 59 61  1  0  0  0
 59 62  1  0  0  0
 60130  1  0  0  0
 60131  1  0  0  0
 60132  1  0  0  0
 61133  1  0  0  0
 61134  1  0  0  0
 61135  1  0  0  0
 62136  1  0  0  0
 62137  1  0  0  0
 62138  1  0  0  0
 63 65  1  0  0  0
 63139  1  0  0  0
 63140  1  0  0  0
 63141  1  0  0  0
 64142  1  0  0  0
 65143  1  0  0  0
 68 76  1  0  0  0
 71 73  2  0  0  0
 71 81  1  0  0  0
 71144  1  0  0  0
 72 73  1  0  0  0
 72 82  2  0  0  0
 72145  1  0  0  0
 73 76  1  0  0  0
 74 81  2  0  0  0
 74 82  1  0  0  0
 74 84  1  0  0  0
 75 78  1  0  0  0
 75146  1  0  0  0
 75147  1  0  0  0
 75148  1  0  0  0
 76149  1  0  0  0
 76150  1  0  0  0
 77 79  1  0  0  0
 77 80  1  0  0  0
 77151  1  0  0  0
 77152  1  0  0  0
 78 83  1  0  0  0
 78153  1  0  0  0
 78154  1  0  0  0
 79 83  1  0  0  0
 79155  1  0  0  0
 79156  1  0  0  0
 80 84  1  0  0  0
 80157  1  0  0  0
 80158  1  0  0  0
M  ISO  4   1 100  68 101  76 101  83 100
M  END
> <chiral flag>
0

> <version>
0

> <s_m_source_file>
/data/baiqing/PycharmProjects/Reinvent-master-3.2/result/LINK_invent/BTK/process_docking_weight1_custom_sum_contain_oxygen_bond_distance_aromatic_linkinvent_7_9_3/rearranged_h_0054.sdf

> <i_m_source_file_index>
80

> <r_mmod_Potential_Energy-OPLS-2005>
-172.679046630859

> <r_mmod_Stretch_Energy-OPLS-2005>
47.7216949462891

> <r_mmod_Bend_Energy-OPLS-2005>
130.878448486328

> <r_mmod_Torsional_Energy-OPLS-2005>
353.445770263672

> <r_mmod_Improper_Torsional_Energy-OPLS-2005>
12.5331325531006

> <r_mmod_Van_der_Waal_Energy-OPLS-2005>
162.012084960938

> <r_mmod_Electrostatic_Energy-OPLS-2005>
-709.020935058594

> <r_mmod_Solvation_Energy-OPLS-2005>
-209.60758972168

> <b_mmod_Minimization_Converged-OPLS-2005>
0

> <r_mmod_RMS_Derivative-OPLS-2005>
5.16788578033447

$$$$
80
                    3D
 Structure written by MMmdl.
163171  0  0  1  0            999 V2000
  -30.7845  -14.3373   20.7168 C   0  0  0  0  0  0
  -30.4184  -12.2871   19.3919 C   0  0  0  0  0  0
  -29.4838  -12.5287   18.1929 C   0  0  0  0  0  0
  -28.0100  -12.3789   18.6109 C   0  0  0  0  0  0
  -27.6687  -13.1996   19.8811 C   0  0  2  0  0  0
  -28.7046  -12.9384   20.9975 C   0  0  0  0  0  0
  -25.2607  -13.8127   20.5632 C   0  0  0  0  0  0
  -24.1862  -13.0431   20.9194 C   0  0  0  0  0  0
  -24.6401  -11.6893   20.8750 C   0  0  0  0  0  0
  -23.9059  -10.4286   21.0412 C   0  0  0  0  0  0
  -24.3610   -9.4204   21.9190 C   0  0  0  0  0  0
  -23.6283   -8.2242   22.0757 C   0  0  0  0  0  0
  -22.4268   -8.0282   21.3543 C   0  0  0  0  0  0
  -21.9906   -9.0258   20.4645 C   0  0  0  0  0  0
  -22.7235  -10.2136   20.3057 C   0  0  0  0  0  0
  -21.6850   -6.0731   22.5276 C   0  0  0  0  0  0
  -21.4014   -6.5638   23.8211 C   0  0  0  0  0  0
  -21.3656   -5.6789   24.9172 C   0  0  0  0  0  0
  -21.6047   -4.3052   24.7224 C   0  0  0  0  0  0
  -21.8820   -3.8144   23.4344 C   0  0  0  0  0  0
  -21.9192   -4.6958   22.3399 C   0  0  0  0  0  0
  -22.7886  -13.5247   21.1841 C   0  0  0  0  0  0
  -22.1661   -4.2144   21.0973 F   0  0  0  0  0  0
  -21.5629   -3.4537   25.7737 F   0  0  0  0  0  0
  -30.0535  -13.2189   20.4683 N   0  0  0  0  0  0
  -26.3054  -12.9299   20.3362 N   0  0  0  0  0  0
  -25.9325  -11.6471   20.5768 N   0  0  0  0  0  0
  -22.0505  -12.8251   22.0389 N   0  0  0  0  0  0
  -25.4308  -15.1816   20.3860 N   0  0  0  0  0  0
  -31.7554  -14.6833   20.0337 O   0  0  0  0  0  0
  -21.6636   -6.8878   21.4237 O   0  0  0  0  0  0
  -22.3602  -14.5559   20.6675 O   0  0  0  0  0  0
  -24.6107  -31.8724   23.2144 C   0  0  0  0  0  0
  -25.9022  -32.4846   23.8418 C   0  0  1  0  0  0
  -27.2348  -27.4639   20.0920 C   0  0  0  0  0  0
  -25.5896  -33.8644   24.2349 N   0  0  0  0  0  0
  -23.3968  -30.4951   21.5552 C   0  0  2  0  0  0
  -24.8431  -28.9618   20.1225 C   0  0  0  0  0  0
  -22.7393  -29.4681   22.5037 C   0  0  0  0  0  0
  -18.0262  -28.1363   22.8497 C   0  0  0  0  0  0
  -24.1488  -36.7318   23.2639 C   0  0  0  0  0  0
  -25.9221  -30.8434   21.3666 C   0  0  0  0  0  0
  -26.0002  -29.4774   20.7193 C   0  0  0  0  0  0
  -27.1992  -28.7328   20.7081 C   0  0  0  0  0  0
  -26.0676  -26.9649   19.4761 C   0  0  0  0  0  0
  -24.8684  -27.7004   19.5029 C   0  0  0  0  0  0
  -23.6045  -29.8264   20.1705 C   0  0  0  0  0  0
  -25.4110  -36.3117   24.0334 C   0  0  1  0  0  0
  -20.5853  -28.3653   23.1337 C   0  0  2  0  0  0
  -20.6758  -26.9399   22.5421 C   0  0  0  0  0  0
  -19.5739  -26.6385   21.5210 C   0  0  0  0  0  0
  -18.1914  -26.7916   22.1618 C   0  0  0  0  0  0
  -19.1512  -28.8825   23.2911 C   0  0  0  0  0  0
  -18.9445  -30.1429   23.8921 C   0  0  0  0  0  0
  -17.6453  -30.6581   24.0565 C   0  0  0  0  0  0
  -25.9035  -34.9485   23.5137 C   0  0  0  0  0  0
  -16.5340  -29.9083   23.6327 C   0  0  0  0  0  0
  -16.7254  -28.6494   23.0358 C   0  0  0  0  0  0
  -26.4464  -31.6612   25.0727 C   0  0  0  0  0  0
  -25.3734  -31.3703   26.1477 C   0  0  0  0  0  0
  -27.0301  -30.3058   24.6084 C   0  0  0  0  0  0
  -27.6052  -32.4334   25.7479 C   0  0  0  0  0  0
  -27.5583  -37.1809   24.8464 C   0  0  0  0  0  0
  -21.4131  -29.3028   22.3759 N   0  0  0  0  0  0
  -26.4298  -37.3795   23.9402 N   0  0  0  0  0  0
  -24.6607  -31.0839   22.1039 N   0  0  0  0  0  0
  -23.4181  -28.8238   23.3075 O   0  0  0  0  0  0
  -28.4148  -26.7638   20.0400 O   0  0  0  0  0  0
  -26.5597  -34.8933   22.4697 O   0  0  0  0  0  0
  -23.5307  -32.1474   23.7545 O   0  0  0  0  0  0
  -27.3989  -22.5257   21.8695 C   0  0  0  0  0  0
  -29.6176  -21.1823   21.0989 C   0  0  0  0  0  0
  -28.2711  -23.0415   20.8825 C   0  0  0  0  0  0
  -28.7227  -20.6431   22.0556 C   0  0  0  0  0  0
  -31.0018  -14.7074   23.0766 C   0  0  0  0  0  0
  -26.7322  -18.2947   22.0681 C   0  0  0  0  0  0
  -27.9509  -24.3362   20.1570 C   0  0  0  0  0  0
  -28.9409  -19.2529   22.6464 C   0  0  0  0  0  0
  -30.0893  -16.4886   21.6403 C   0  0  0  0  0  0
  -28.6753  -16.8057   22.1825 C   0  0  0  0  0  0
  -28.4909  -25.5950   20.8600 C   0  0  0  0  0  0
  -29.3972  -22.3832   20.5101 N   0  0  0  0  0  0
  -27.6234  -21.3285   22.4621 N   0  0  0  0  0  0
  -30.3959  -15.0584   21.7898 N   0  0  0  0  0  0
  -28.2051  -18.1912   21.9009 N   0  3  1  0  0  0
  -31.4612  -12.3930   19.0856 H   0  0  0  0  0  0
  -30.3209  -11.2611   19.7501 H   0  0  0  0  0  0
  -29.7160  -11.8290   17.3888 H   0  0  0  0  0  0
  -29.6538  -13.5280   17.7886 H   0  0  0  0  0  0
  -27.8202  -11.3201   18.7917 H   0  0  0  0  0  0
  -27.3549  -12.6673   17.7882 H   0  0  0  0  0  0
  -27.7290  -14.2541   19.6107 H   0  0  0  0  0  0
  -28.6588  -11.8970   21.3188 H   0  0  0  0  0  0
  -28.4508  -13.5219   21.8828 H   0  0  0  0  0  0
  -25.2756   -9.5682   22.4761 H   0  0  0  0  0  0
  -23.9990   -7.4638   22.7482 H   0  0  0  0  0  0
  -21.0840   -8.8777   19.8952 H   0  0  0  0  0  0
  -22.3698  -10.9673   19.6163 H   0  0  0  0  0  0
  -21.2001   -7.6147   23.9710 H   0  0  0  0  0  0
  -21.1481   -6.0520   25.9074 H   0  0  0  0  0  0
  -22.0602   -2.7605   23.2845 H   0  0  0  0  0  0
  -22.4096  -11.9900   22.4772 H   0  0  0  0  0  0
  -21.1121  -13.1289   22.2571 H   0  0  0  0  0  0
  -24.6085  -15.7749   20.3600 H   0  0  0  0  0  0
  -26.1892  -15.5389   19.8207 H   0  0  0  0  0  0
  -26.7103  -32.5565   23.1195 H   0  0  0  0  0  0
  -25.0036  -33.9816   25.0488 H   0  0  0  0  0  0
  -22.6820  -31.3092   21.4173 H   0  0  0  0  0  0
  -23.3745  -35.9654   23.3312 H   0  0  0  0  0  0
  -24.3580  -36.8926   22.2052 H   0  0  0  0  0  0
  -23.7253  -37.6527   23.6655 H   0  0  0  0  0  0
  -26.0291  -31.6108   20.5980 H   0  0  0  0  0  0
  -26.8108  -30.8982   21.9828 H   0  0  0  0  0  0
  -28.0961  -29.1300   21.1636 H   0  0  0  0  0  0
  -26.0803  -26.0266   18.9439 H   0  0  0  0  0  0
  -23.9808  -27.3040   19.0284 H   0  0  0  0  0  0
  -23.7101  -30.5994   19.4089 H   0  0  0  0  0  0
  -22.7285  -29.2445   19.8785 H   0  0  0  0  0  0
  -25.1285  -36.1980   25.0825 H   0  0  0  0  0  0
  -20.9929  -28.3218   24.1465 H   0  0  0  0  0  0
  -20.5665  -26.2263   23.3602 H   0  0  0  0  0  0
  -21.6635  -26.7461   22.1210 H   0  0  0  0  0  0
  -19.6910  -25.6302   21.1229 H   0  0  0  0  0  0
  -19.6676  -27.3206   20.6750 H   0  0  0  0  0  0
  -17.4191  -26.6675   21.4010 H   0  0  0  0  0  0
  -18.0300  -26.0040   22.8992 H   0  0  0  0  0  0
  -19.7925  -30.7220   24.2319 H   0  0  0  0  0  0
  -17.5015  -31.6270   24.5148 H   0  0  0  0  0  0
  -15.5341  -30.2995   23.7636 H   0  0  0  0  0  0
  -15.8651  -28.0811   22.7081 H   0  0  0  0  0  0
  -24.5918  -30.7041   25.7812 H   0  0  0  0  0  0
  -24.8900  -32.2845   26.4929 H   0  0  0  0  0  0
  -25.8082  -30.8876   27.0238 H   0  0  0  0  0  0
  -26.2842  -29.6808   24.1156 H   0  0  0  0  0  0
  -27.4109  -29.7296   25.4528 H   0  0  0  0  0  0
  -27.8657  -30.4385   23.9208 H   0  0  0  0  0  0
  -27.2690  -33.3643   26.2059 H   0  0  0  0  0  0
  -28.3846  -32.6885   25.0285 H   0  0  0  0  0  0
  -28.0734  -31.8455   26.5381 H   0  0  0  0  0  0
  -28.2604  -38.0104   24.7512 H   0  0  0  0  0  0
  -28.1074  -36.2633   24.6287 H   0  0  0  0  0  0
  -27.2295  -37.1461   25.8867 H   0  0  0  0  0  0
  -20.9294  -29.8746   21.6975 H   0  0  0  0  0  0
  -26.0187  -38.2874   24.1401 H   0  0  0  0  0  0
  -26.5050  -23.0581   22.1594 H   0  0  0  0  0  0
  -30.4971  -20.6389   20.7839 H   0  0  0  0  0  0
  -30.5631  -15.2739   23.8984 H   0  0  0  0  0  0
  -32.0747  -14.9086   23.0653 H   0  0  0  0  0  0
  -30.8615  -13.6483   23.3004 H   0  0  0  0  0  0
  -26.3374  -19.2296   21.6731 H   0  0  0  0  0  0
  -26.4488  -18.2232   23.1188 H   0  0  0  0  0  0
  -26.2129  -17.5033   21.5313 H   0  0  0  0  0  0
  -26.8681  -24.3851   20.0605 H   0  0  0  0  0  0
  -28.3514  -24.2825   19.1443 H   0  0  0  0  0  0
  -28.6466  -19.2462   23.6970 H   0  0  0  0  0  0
  -30.0132  -19.0634   22.6366 H   0  0  0  0  0  0
  -30.8563  -17.0682   22.1545 H   0  0  0  0  0  0
  -30.1439  -16.7822   20.5893 H   0  0  0  0  0  0
  -28.6251  -16.6175   23.2561 H   0  0  0  0  0  0
  -27.9807  -16.0996   21.7246 H   0  0  0  0  0  0
  -29.5462  -25.4469   21.0911 H   0  0  0  0  0  0
  -27.9876  -25.7513   21.8160 H   0  0  0  0  0  0
  -28.3806  -18.3576   20.9219 H   0  0  0  0  0  0
  1 25  1  0  0  0
  1 30  2  0  0  0
  1 84  1  0  0  0
  2  3  1  0  0  0
  2 25  1  0  0  0
  2 86  1  0  0  0
  2 87  1  0  0  0
  3  4  1  0  0  0
  3 88  1  0  0  0
  3 89  1  0  0  0
  4  5  1  0  0  0
  4 90  1  0  0  0
  4 91  1  0  0  0
  5  6  1  0  0  0
  5 26  1  0  0  0
  5 92  1  0  0  0
  6 25  1  0  0  0
  6 93  1  0  0  0
  6 94  1  0  0  0
  7  8  2  0  0  0
  7 26  1  0  0  0
  7 29  1  0  0  0
  8  9  1  0  0  0
  8 22  1  0  0  0
  9 10  1  0  0  0
  9 27  2  0  0  0
 10 11  2  0  0  0
 10 15  1  0  0  0
 11 12  1  0  0  0
 11 95  1  0  0  0
 12 13  2  0  0  0
 12 96  1  0  0  0
 13 14  1  0  0  0
 13 31  1  0  0  0
 14 15  2  0  0  0
 14 97  1  0  0  0
 15 98  1  0  0  0
 16 17  2  0  0  0
 16 21  1  0  0  0
 16 31  1  0  0  0
 17 18  1  0  0  0
 17 99  1  0  0  0
 18 19  2  0  0  0
 18100  1  0  0  0
 19 20  1  0  0  0
 19 24  1  0  0  0
 20 21  2  0  0  0
 20101  1  0  0  0
 21 23  1  0  0  0
 22 28  1  0  0  0
 22 32  2  0  0  0
 26 27  1  0  0  0
 28102  1  0  0  0
 28103  1  0  0  0
 29104  1  0  0  0
 29105  1  0  0  0
 33 34  1  0  0  0
 33 66  1  0  0  0
 33 70  2  0  0  0
 34 36  1  0  0  0
 34 59  1  0  0  0
 34106  1  0  0  0
 35 44  2  0  0  0
 35 45  1  0  0  0
 35 68  1  0  0  0
 36 56  1  0  0  0
 36107  1  0  0  0
 37 39  1  0  0  0
 37 47  1  0  0  0
 37 66  1  0  0  0
 37108  1  0  0  0
 38 43  2  0  0  0
 38 46  1  0  0  0
 38 47  1  0  0  0
 39 64  1  0  0  0
 39 67  2  0  0  0
 40 52  1  0  0  0
 40 53  2  0  0  0
 40 58  1  0  0  0
 41109  1  0  0  0
 41110  1  0  0  0
 41111  1  0  0  0
 41 48  1  0  0  0
 42 43  1  0  0  0
 42 66  1  0  0  0
 42112  1  0  0  0
 42113  1  0  0  0
 43 44  1  0  0  0
 44114  1  0  0  0
 45 46  2  0  0  0
 45115  1  0  0  0
 46116  1  0  0  0
 47117  1  0  0  0
 47118  1  0  0  0
 48 56  1  0  0  0
 48 65  1  0  0  0
 48119  1  0  0  0
 49 50  1  0  0  0
 49 53  1  0  0  0
 49 64  1  0  0  0
 49120  1  0  0  0
 50 51  1  0  0  0
 50121  1  0  0  0
 50122  1  0  0  0
 51 52  1  0  0  0
 51123  1  0  0  0
 51124  1  0  0  0
 52125  1  0  0  0
 52126  1  0  0  0
 53 54  1  0  0  0
 54 55  2  0  0  0
 54127  1  0  0  0
 55 57  1  0  0  0
 55128  1  0  0  0
 56 69  2  0  0  0
 57 58  2  0  0  0
 57129  1  0  0  0
 58130  1  0  0  0
 59 60  1  0  0  0
 59 61  1  0  0  0
 59 62  1  0  0  0
 60131  1  0  0  0
 60132  1  0  0  0
 60133  1  0  0  0
 61134  1  0  0  0
 61135  1  0  0  0
 61136  1  0  0  0
 62137  1  0  0  0
 62138  1  0  0  0
 62139  1  0  0  0
 63 65  1  0  0  0
 63140  1  0  0  0
 63141  1  0  0  0
 63142  1  0  0  0
 64143  1  0  0  0
 65144  1  0  0  0
 68 81  1  0  0  0
 71 73  2  0  0  0
 71 83  1  0  0  0
 71145  1  0  0  0
 72 74  1  0  0  0
 72 82  2  0  0  0
 72146  1  0  0  0
 73 77  1  0  0  0
 73 82  1  0  0  0
 74 78  1  0  0  0
 74 83  2  0  0  0
 75 84  1  0  0  0
 75147  1  0  0  0
 75148  1  0  0  0
 75149  1  0  0  0
 76150  1  0  0  0
 76151  1  0  0  0
 76152  1  0  0  0
 76 85  1  0  0  0
 77 81  1  0  0  0
 77153  1  0  0  0
 77154  1  0  0  0
 78 85  1  0  0  0
 78155  1  0  0  0
 78156  1  0  0  0
 79 80  1  0  0  0
 79 84  1  0  0  0
 79157  1  0  0  0
 79158  1  0  0  0
 80 85  1  0  0  0
 80159  1  0  0  0
 80160  1  0  0  0
 81161  1  0  0  0
 81162  1  0  0  0
 85163  1  0  0  0
M  CHG  1  85   1
M  ISO  4   1 100  68 101  81 101  84 100
M  END
> <chiral flag>
0

> <version>
0

> <s_m_source_file>
/data/baiqing/PycharmProjects/Reinvent-master-3.2/result/LINK_invent/BTK/process_docking_weight1_custom_sum_contain_oxygen_bond_distance_aromatic_linkinvent_7_9_3/rearranged_h_0054.sdf

> <i_m_source_file_index>
81

> <r_mmod_Potential_Energy-OPLS-2005>
-33.4349899291992

> <r_mmod_Stretch_Energy-OPLS-2005>
35.9958572387695

> <r_mmod_Bend_Energy-OPLS-2005>
88.4078979492188

> <r_mmod_Torsional_Energy-OPLS-2005>
296.598846435547

> <r_mmod_Improper_Torsional_Energy-OPLS-2005>
7.12161636352539

> <r_mmod_Van_der_Waal_Energy-OPLS-2005>
155.501419067383

> <r_mmod_Electrostatic_Energy-OPLS-2005>
-176.747711181641

> <r_mmod_Solvation_Energy-OPLS-2005>
-447.265502929688

> <b_mmod_Minimization_Converged-OPLS-2005>
0

> <r_mmod_RMS_Derivative-OPLS-2005>
1.21723818778992

$$$$
81
                    3D
 Structure written by MMmdl.
152160  0  0  1  0            999 V2000
  -30.5962  -14.7856   20.5076 C   0  0  0  0  0  0
  -30.4372  -12.5039   19.4558 C   0  0  0  0  0  0
  -29.5060  -12.5446   18.2215 C   0  0  0  0  0  0
  -28.0284  -12.3658   18.6291 C   0  0  0  0  0  0
  -27.6412  -13.2295   19.8585 C   0  0  2  0  0  0
  -28.6909  -13.0922   20.9783 C   0  0  0  0  0  0
  -25.2478  -13.8178   20.5649 C   0  0  0  0  0  0
  -24.1785  -13.0416   20.9170 C   0  0  0  0  0  0
  -24.6386  -11.6899   20.8726 C   0  0  0  0  0  0
  -23.9056  -10.4287   21.0405 C   0  0  0  0  0  0
  -24.3622   -9.4213   21.9192 C   0  0  0  0  0  0
  -23.6308   -8.2242   22.0753 C   0  0  0  0  0  0
  -22.4292   -8.0271   21.3536 C   0  0  0  0  0  0
  -21.9917   -9.0232   20.4643 C   0  0  0  0  0  0
  -22.7227  -10.2122   20.3059 C   0  0  0  0  0  0
  -21.6846   -6.0740   22.5278 C   0  0  0  0  0  0
  -21.4005   -6.5646   23.8211 C   0  0  0  0  0  0
  -21.3664   -5.6798   24.9171 C   0  0  0  0  0  0
  -21.6057   -4.3061   24.7224 C   0  0  0  0  0  0
  -21.8817   -3.8151   23.4344 C   0  0  0  0  0  0
  -21.9194   -4.6968   22.3397 C   0  0  0  0  0  0
  -22.7812  -13.5195   21.1852 C   0  0  0  0  0  0
  -22.1668   -4.2160   21.0974 F   0  0  0  0  0  0
  -21.5638   -3.4540   25.7736 F   0  0  0  0  0  0
  -29.9709  -13.5462   20.4116 N   0  0  0  0  0  0
  -26.2926  -12.9384   20.3303 N   0  0  0  0  0  0
  -25.9321  -11.6531   20.5752 N   0  0  0  0  0  0
  -22.0467  -12.8186   22.0416 N   0  0  0  0  0  0
  -25.4129  -15.1899   20.4031 N   0  0  0  0  0  0
  -31.7687  -14.8603   20.1201 O   0  0  0  0  0  0
  -21.6645   -6.8876   21.4237 O   0  0  0  0  0  0
  -22.3499  -14.5511   20.6708 O   0  0  0  0  0  0
  -24.6310  -31.8551   23.1986 C   0  0  0  0  0  0
  -25.9139  -32.4740   23.8334 C   0  0  1  0  0  0
  -27.2140  -27.2610   20.1420 C   0  0  0  0  0  0
  -25.5943  -33.8540   24.2253 N   0  0  0  0  0  0
  -23.4271  -30.4780   21.5410 C   0  0  2  0  0  0
  -24.8748  -28.9207   20.1139 C   0  0  0  0  0  0
  -22.7496  -29.4605   22.4905 C   0  0  0  0  0  0
  -18.0292  -28.1385   22.8486 C   0  0  0  0  0  0
  -24.1497  -36.7282   23.2641 C   0  0  0  0  0  0
  -25.9722  -30.7725   21.3739 C   0  0  0  0  0  0
  -26.0469  -29.3919   20.7205 C   0  0  0  0  0  0
  -27.2241  -28.5764   20.7179 C   0  0  0  0  0  0
  -26.0226  -26.8517   19.5122 C   0  0  0  0  0  0
  -24.8682  -27.6586   19.4981 C   0  0  0  0  0  0
  -23.6458  -29.8085   20.1574 C   0  0  0  0  0  0
  -25.4120  -36.3054   24.0324 C   0  0  1  0  0  0
  -20.5899  -28.3690   23.1269 C   0  0  2  0  0  0
  -20.6776  -26.9401   22.5420 C   0  0  0  0  0  0
  -19.5750  -26.6370   21.5221 C   0  0  0  0  0  0
  -18.1929  -26.7926   22.1623 C   0  0  0  0  0  0
  -19.1548  -28.8853   23.2875 C   0  0  0  0  0  0
  -18.9472  -30.1456   23.8889 C   0  0  0  0  0  0
  -17.6476  -30.6585   24.0558 C   0  0  0  0  0  0
  -25.9067  -34.9420   23.5094 C   0  0  0  0  0  0
  -16.5369  -29.9083   23.6334 C   0  0  0  0  0  0
  -16.7282  -28.6501   23.0354 C   0  0  0  0  0  0
  -26.4517  -31.6564   25.0720 C   0  0  0  0  0  0
  -25.3753  -31.3685   26.1443 C   0  0  0  0  0  0
  -27.0366  -30.2986   24.6190 C   0  0  0  0  0  0
  -27.6066  -32.4304   25.7496 C   0  0  0  0  0  0
  -27.5572  -37.1792   24.8460 C   0  0  0  0  0  0
  -21.4205  -29.3040   22.3652 N   0  0  0  0  0  0
  -26.4278  -37.3762   23.9415 N   0  0  0  0  0  0
  -24.6964  -31.0523   22.0947 N   0  0  0  0  0  0
  -23.4201  -28.8132   23.2985 O   0  0  0  0  0  0
  -28.3035  -26.3642   20.1501 O   0  0  0  0  0  0
  -26.5626  -34.8897   22.4655 O   0  0  0  0  0  0
  -23.5464  -32.1346   23.7301 O   0  0  0  0  0  0
  -28.3549  -18.9925   19.5457 C   0  0  0  0  0  0
  -29.5324  -18.7219   20.3034 C   0  0  0  0  0  0
  -28.9024  -16.0769   21.8420 C   0  0  0  0  0  0
  -30.4000  -17.3769   20.3661 C   0  0  0  0  0  0
  -28.5880  -23.5969   20.0383 C   0  0  0  0  0  0
  -28.7597  -22.2684   20.9673 C   0  0  0  0  0  0
  -28.1148  -24.9895   20.7385 C   0  0  0  0  0  0
  -27.9859  -20.2626   19.6179 N   0  0  0  0  0  0
  -29.8596  -19.9017   20.8568 N   0  0  0  0  0  0
  -28.9262  -20.8492   20.4085 N   0  0  0  0  0  0
  -29.8748  -15.9782   20.7480 N   0  0  0  0  0  0
  -31.4708  -12.6567   19.1410 H   0  0  0  0  0  0
  -30.4204  -11.5131   19.9143 H   0  0  0  0  0  0
  -29.7967  -11.7786   17.5010 H   0  0  0  0  0  0
  -29.6265  -13.5025   17.7129 H   0  0  0  0  0  0
  -27.8693  -11.3091   18.8504 H   0  0  0  0  0  0
  -27.3748  -12.5993   17.7872 H   0  0  0  0  0  0
  -27.6513  -14.2669   19.5229 H   0  0  0  0  0  0
  -28.7582  -12.0497   21.2962 H   0  0  0  0  0  0
  -28.3984  -13.6167   21.8805 H   0  0  0  0  0  0
  -25.2770   -9.5703   22.4760 H   0  0  0  0  0  0
  -24.0032   -7.4629   22.7469 H   0  0  0  0  0  0
  -21.0855   -8.8745   19.8931 H   0  0  0  0  0  0
  -22.3691  -10.9666   19.6167 H   0  0  0  0  0  0
  -21.1986   -7.6152   23.9715 H   0  0  0  0  0  0
  -21.1499   -6.0530   25.9080 H   0  0  0  0  0  0
  -22.0597   -2.7617   23.2835 H   0  0  0  0  0  0
  -22.4095  -11.9861   22.4819 H   0  0  0  0  0  0
  -21.1073  -13.1187   22.2595 H   0  0  0  0  0  0
  -24.6387  -15.8374   20.5096 H   0  0  0  0  0  0
  -26.2675  -15.6372   20.0970 H   0  0  0  0  0  0
  -26.7192  -32.5395   23.1066 H   0  0  0  0  0  0
  -25.0082  -33.9675   25.0390 H   0  0  0  0  0  0
  -22.7240  -31.2989   21.3928 H   0  0  0  0  0  0
  -23.3752  -35.9621   23.3297 H   0  0  0  0  0  0
  -24.3583  -36.8935   22.2060 H   0  0  0  0  0  0
  -23.7260  -37.6481   23.6681 H   0  0  0  0  0  0
  -26.1047  -31.5308   20.6015 H   0  0  0  0  0  0
  -26.8528  -30.8261   22.0036 H   0  0  0  0  0  0
  -28.1254  -28.9350   21.1956 H   0  0  0  0  0  0
  -25.9811  -25.8803   19.0406 H   0  0  0  0  0  0
  -23.9688  -27.2934   19.0218 H   0  0  0  0  0  0
  -23.7716  -30.5835   19.4001 H   0  0  0  0  0  0
  -22.7649  -29.2433   19.8495 H   0  0  0  0  0  0
  -25.1302  -36.1891   25.0814 H   0  0  0  0  0  0
  -20.9985  -28.3256   24.1388 H   0  0  0  0  0  0
  -20.5675  -26.2294   23.3631 H   0  0  0  0  0  0
  -21.6647  -26.7407   22.1214 H   0  0  0  0  0  0
  -19.6918  -25.6283   21.1254 H   0  0  0  0  0  0
  -19.6707  -27.3182   20.6749 H   0  0  0  0  0  0
  -17.4201  -26.6672   21.4034 H   0  0  0  0  0  0
  -18.0324  -26.0074   22.9026 H   0  0  0  0  0  0
  -19.7952  -30.7277   24.2257 H   0  0  0  0  0  0
  -17.5033  -31.6264   24.5154 H   0  0  0  0  0  0
  -15.5373  -30.2990   23.7665 H   0  0  0  0  0  0
  -15.8675  -28.0821   22.7080 H   0  0  0  0  0  0
  -24.5953  -30.7003   25.7769 H   0  0  0  0  0  0
  -24.8910  -32.2842   26.4846 H   0  0  0  0  0  0
  -25.8099  -30.8884   27.0223 H   0  0  0  0  0  0
  -26.2946  -29.6720   24.1225 H   0  0  0  0  0  0
  -27.4076  -29.7246   25.4694 H   0  0  0  0  0  0
  -27.8815  -30.4267   23.9413 H   0  0  0  0  0  0
  -27.2680  -33.3618   26.2037 H   0  0  0  0  0  0
  -28.3905  -32.6843   25.0349 H   0  0  0  0  0  0
  -28.0702  -31.8451   26.5449 H   0  0  0  0  0  0
  -28.2565  -38.0108   24.7507 H   0  0  0  0  0  0
  -28.1089  -36.2638   24.6282 H   0  0  0  0  0  0
  -27.2283  -37.1433   25.8857 H   0  0  0  0  0  0
  -20.9381  -29.8780   21.6877 H   0  0  0  0  0  0
  -26.0154  -38.2831   24.1424 H   0  0  0  0  0  0
  -27.7985  -18.2954   18.9349 H   0  0  0  0  0  0
  -27.9093  -15.7696   21.5204 H   0  0  0  0  0  0
  -28.8041  -17.0902   22.2293 H   0  0  0  0  0  0
  -29.2098  -15.4692   22.6947 H   0  0  0  0  0  0
  -31.2485  -17.5572   21.0262 H   0  0  0  0  0  0
  -30.8591  -17.2580   19.3834 H   0  0  0  0  0  0
  -27.8817  -23.3720   19.2386 H   0  0  0  0  0  0
  -29.5393  -23.7712   19.5381 H   0  0  0  0  0  0
  -27.8845  -22.2196   21.6157 H   0  0  0  0  0  0
  -29.5927  -22.4448   21.6472 H   0  0  0  0  0  0
  -28.6439  -25.0450   21.6904 H   0  0  0  0  0  0
  -27.0727  -24.8634   21.0318 H   0  0  0  0  0  0
  1 25  1  0  0  0
  1 30  2  0  0  0
  1 81  1  0  0  0
  2  3  1  0  0  0
  2 25  1  0  0  0
  2 82  1  0  0  0
  2 83  1  0  0  0
  3  4  1  0  0  0
  3 84  1  0  0  0
  3 85  1  0  0  0
  4  5  1  0  0  0
  4 86  1  0  0  0
  4 87  1  0  0  0
  5  6  1  0  0  0
  5 26  1  0  0  0
  5 88  1  0  0  0
  6 25  1  0  0  0
  6 89  1  0  0  0
  6 90  1  0  0  0
  7  8  2  0  0  0
  7 26  1  0  0  0
  7 29  1  0  0  0
  8  9  1  0  0  0
  8 22  1  0  0  0
  9 10  1  0  0  0
  9 27  2  0  0  0
 10 11  2  0  0  0
 10 15  1  0  0  0
 11 12  1  0  0  0
 11 91  1  0  0  0
 12 13  2  0  0  0
 12 92  1  0  0  0
 13 14  1  0  0  0
 13 31  1  0  0  0
 14 15  2  0  0  0
 14 93  1  0  0  0
 15 94  1  0  0  0
 16 17  2  0  0  0
 16 21  1  0  0  0
 16 31  1  0  0  0
 17 18  1  0  0  0
 17 95  1  0  0  0
 18 19  2  0  0  0
 18 96  1  0  0  0
 19 20  1  0  0  0
 19 24  1  0  0  0
 20 21  2  0  0  0
 20 97  1  0  0  0
 21 23  1  0  0  0
 22 28  1  0  0  0
 22 32  2  0  0  0
 26 27  1  0  0  0
 28 98  1  0  0  0
 28 99  1  0  0  0
 29100  1  0  0  0
 29101  1  0  0  0
 33 34  1  0  0  0
 33 66  1  0  0  0
 33 70  2  0  0  0
 34 36  1  0  0  0
 34 59  1  0  0  0
 34102  1  0  0  0
 35 44  2  0  0  0
 35 45  1  0  0  0
 35 68  1  0  0  0
 36 56  1  0  0  0
 36103  1  0  0  0
 37 39  1  0  0  0
 37 47  1  0  0  0
 37 66  1  0  0  0
 37104  1  0  0  0
 38 43  2  0  0  0
 38 46  1  0  0  0
 38 47  1  0  0  0
 39 64  1  0  0  0
 39 67  2  0  0  0
 40 52  1  0  0  0
 40 53  2  0  0  0
 40 58  1  0  0  0
 41105  1  0  0  0
 41106  1  0  0  0
 41107  1  0  0  0
 41 48  1  0  0  0
 42 43  1  0  0  0
 42 66  1  0  0  0
 42108  1  0  0  0
 42109  1  0  0  0
 43 44  1  0  0  0
 44110  1  0  0  0
 45 46  2  0  0  0
 45111  1  0  0  0
 46112  1  0  0  0
 47113  1  0  0  0
 47114  1  0  0  0
 48 56  1  0  0  0
 48 65  1  0  0  0
 48115  1  0  0  0
 49 50  1  0  0  0
 49 53  1  0  0  0
 49 64  1  0  0  0
 49116  1  0  0  0
 50 51  1  0  0  0
 50117  1  0  0  0
 50118  1  0  0  0
 51 52  1  0  0  0
 51119  1  0  0  0
 51120  1  0  0  0
 52121  1  0  0  0
 52122  1  0  0  0
 53 54  1  0  0  0
 54 55  2  0  0  0
 54123  1  0  0  0
 55 57  1  0  0  0
 55124  1  0  0  0
 56 69  2  0  0  0
 57 58  2  0  0  0
 57125  1  0  0  0
 58126  1  0  0  0
 59 60  1  0  0  0
 59 61  1  0  0  0
 59 62  1  0  0  0
 60127  1  0  0  0
 60128  1  0  0  0
 60129  1  0  0  0
 61130  1  0  0  0
 61131  1  0  0  0
 61132  1  0  0  0
 62133  1  0  0  0
 62134  1  0  0  0
 62135  1  0  0  0
 63 65  1  0  0  0
 63136  1  0  0  0
 63137  1  0  0  0
 63138  1  0  0  0
 64139  1  0  0  0
 65140  1  0  0  0
 68 77  1  0  0  0
 71 72  1  0  0  0
 71 78  2  0  0  0
 71141  1  0  0  0
 72 74  1  0  0  0
 72 79  2  0  0  0
 73 81  1  0  0  0
 73142  1  0  0  0
 73143  1  0  0  0
 73144  1  0  0  0
 74 81  1  0  0  0
 74145  1  0  0  0
 74146  1  0  0  0
 75 76  1  0  0  0
 75 77  1  0  0  0
 75147  1  0  0  0
 75148  1  0  0  0
 76 80  1  0  0  0
 76149  1  0  0  0
 76150  1  0  0  0
 77151  1  0  0  0
 77152  1  0  0  0
 78 80  1  0  0  0
 79 80  1  0  0  0
M  ISO  4   1 100  68 101  77 101  81 100
M  END
> <chiral flag>
0

> <version>
0

> <s_m_source_file>
/data/baiqing/PycharmProjects/Reinvent-master-3.2/result/LINK_invent/BTK/process_docking_weight1_custom_sum_contain_oxygen_bond_distance_aromatic_linkinvent_7_9_3/rearranged_h_0054.sdf

> <i_m_source_file_index>
82

> <r_mmod_Potential_Energy-OPLS-2005>
268.505493164062

> <r_mmod_Stretch_Energy-OPLS-2005>
140.535186767578

> <r_mmod_Bend_Energy-OPLS-2005>
200.155242919922

> <r_mmod_Torsional_Energy-OPLS-2005>
273.73486328125

> <r_mmod_Improper_Torsional_Energy-OPLS-2005>
10.6604337692261

> <r_mmod_Van_der_Waal_Energy-OPLS-2005>
121.504676818848

> <r_mmod_Electrostatic_Energy-OPLS-2005>
-352.201751708984

> <r_mmod_Solvation_Energy-OPLS-2005>
-213.703399658203

> <b_mmod_Minimization_Converged-OPLS-2005>
0

> <r_mmod_RMS_Derivative-OPLS-2005>
2.53646016120911

$$$$
82
                    3D
 Structure written by MMmdl.
163171  0  0  1  0            999 V2000
  -30.5735  -15.0155   20.4542 C   0  0  0  0  0  0
  -30.4437  -12.6639   19.5008 C   0  0  0  0  0  0
  -29.5199  -12.5549   18.2631 C   0  0  0  0  0  0
  -28.0618  -12.2963   18.6885 C   0  0  0  0  0  0
  -27.6127  -13.2294   19.8435 C   0  0  2  0  0  0
  -28.6668  -13.3339   20.9706 C   0  0  0  0  0  0
  -25.2415  -13.8129   20.5881 C   0  0  0  0  0  0
  -24.1725  -13.0439   20.9335 C   0  0  0  0  0  0
  -24.6314  -11.6901   20.8910 C   0  0  0  0  0  0
  -23.8990  -10.4364   21.0561 C   0  0  0  0  0  0
  -24.3567   -9.4275   21.9321 C   0  0  0  0  0  0
  -23.6262   -8.2290   22.0866 C   0  0  0  0  0  0
  -22.4267   -8.0326   21.3590 C   0  0  0  0  0  0
  -21.9870   -9.0341   20.4750 C   0  0  0  0  0  0
  -22.7172  -10.2226   20.3204 C   0  0  0  0  0  0
  -21.6815   -6.0792   22.5293 C   0  0  0  0  0  0
  -21.3968   -6.5709   23.8221 C   0  0  0  0  0  0
  -21.3661   -5.6864   24.9193 C   0  0  0  0  0  0
  -21.6040   -4.3121   24.7230 C   0  0  0  0  0  0
  -21.8775   -3.8213   23.4340 C   0  0  0  0  0  0
  -21.9197   -4.7033   22.3409 C   0  0  0  0  0  0
  -22.7740  -13.5263   21.1948 C   0  0  0  0  0  0
  -22.1680   -4.2206   21.0997 F   0  0  0  0  0  0
  -21.5652   -3.4623   25.7751 F   0  0  0  0  0  0
  -29.9306  -13.7706   20.3518 N   0  0  0  0  0  0
  -26.2797  -12.9298   20.3412 N   0  0  0  0  0  0
  -25.9222  -11.6451   20.5869 N   0  0  0  0  0  0
  -22.0260  -12.8399   22.0496 N   0  0  0  0  0  0
  -25.4118  -15.1882   20.4279 N   0  0  0  0  0  0
  -31.8068  -14.9989   20.3847 O   0  0  0  0  0  0
  -21.6629   -6.8919   21.4248 O   0  0  0  0  0  0
  -22.3552  -14.5632   20.6766 O   0  0  0  0  0  0
  -24.6455  -31.8507   23.1891 C   0  0  0  0  0  0
  -25.9207  -32.4773   23.8355 C   0  0  1  0  0  0
  -27.2163  -27.0923   20.1895 C   0  0  0  0  0  0
  -25.5963  -33.8567   24.2253 N   0  0  0  0  0  0
  -23.4462  -30.4699   21.5339 C   0  0  2  0  0  0
  -24.8940  -28.8791   20.1130 C   0  0  0  0  0  0
  -22.7582  -29.4615   22.4871 C   0  0  0  0  0  0
  -18.0310  -28.1420   22.8455 C   0  0  0  0  0  0
  -24.1480  -36.7166   23.2640 C   0  0  0  0  0  0
  -26.0007  -30.7073   21.3862 C   0  0  0  0  0  0
  -26.0747  -29.3127   20.7326 C   0  0  0  0  0  0
  -27.2324  -28.4395   20.7413 C   0  0  0  0  0  0
  -26.0082  -26.7643   19.5193 C   0  0  0  0  0  0
  -24.8780  -27.6197   19.4908 C   0  0  0  0  0  0
  -23.6693  -29.7918   20.1553 C   0  0  0  0  0  0
  -25.4117  -36.3032   24.0323 C   0  0  1  0  0  0
  -20.5911  -28.3752   23.1193 C   0  0  2  0  0  0
  -20.6745  -26.9440   22.5388 C   0  0  0  0  0  0
  -19.5727  -26.6386   21.5186 C   0  0  0  0  0  0
  -18.1933  -26.7940   22.1628 C   0  0  0  0  0  0
  -19.1569  -28.8917   23.2795 C   0  0  0  0  0  0
  -18.9496  -30.1508   23.8826 C   0  0  0  0  0  0
  -17.6493  -30.6603   24.0569 C   0  0  0  0  0  0
  -25.9095  -34.9422   23.5086 C   0  0  0  0  0  0
  -16.5381  -29.9096   23.6328 C   0  0  0  0  0  0
  -16.7294  -28.6512   23.0340 C   0  0  0  0  0  0
  -26.4446  -31.6688   25.0826 C   0  0  0  0  0  0
  -25.3647  -31.3953   26.1576 C   0  0  0  0  0  0
  -27.0272  -30.3153   24.6201 C   0  0  0  0  0  0
  -27.6024  -32.4411   25.7681 C   0  0  0  0  0  0
  -27.5550  -37.1746   24.8482 C   0  0  0  0  0  0
  -21.4275  -29.3077   22.3585 N   0  0  0  0  0  0
  -26.4270  -37.3741   23.9417 N   0  0  0  0  0  0
  -24.7176  -31.0366   22.0891 N   0  0  0  0  0  0
  -23.4226  -28.8182   23.3045 O   0  0  0  0  0  0
  -28.2647  -26.0895   20.3212 O   0  0  0  0  0  0
  -26.5657  -34.8871   22.4658 O   0  0  0  0  0  0
  -23.5581  -32.1358   23.7134 O   0  0  0  0  0  0
  -29.6000  -23.4279   22.0330 C   0  0  0  0  0  0
  -28.8809  -23.2616   20.8331 C   0  0  0  0  0  0
  -29.4028  -20.7745   21.0235 C   0  0  0  0  0  0
  -29.9535  -21.0959   22.3061 C   0  0  0  0  0  0
  -30.1481  -16.9370   17.9503 C   0  0  0  0  0  0
  -31.6188  -19.3739   23.3283 C   0  0  0  0  0  0
  -28.9894  -19.2648   23.8105 C   0  0  0  0  0  0
  -29.3201  -19.2005   20.4304 C   0  0  0  0  0  0
  -27.9736  -24.5418   20.2639 C   0  0  0  0  0  0
  -29.1895  -16.4524   19.0440 C   0  0  0  0  0  0
  -30.0959  -17.7259   20.9476 C   0  0  0  0  0  0
  -30.2440  -20.0785   23.4055 C   0  0  0  0  0  0
  -30.0981  -22.3847   22.7398 N   0  0  0  0  0  0
  -28.8416  -21.9095   20.3369 N   0  0  0  0  0  0
  -29.8675  -16.2703   20.3285 N   0  0  0  0  0  0
  -31.4667  -12.8684   19.1702 H   0  0  0  0  0  0
  -30.4786  -11.7283   20.0656 H   0  0  0  0  0  0
  -29.8607  -11.7546   17.6081 H   0  0  0  0  0  0
  -29.5846  -13.4721   17.6731 H   0  0  0  0  0  0
  -28.0064  -11.2597   19.0164 H   0  0  0  0  0  0
  -27.3871  -12.3892   17.8345 H   0  0  0  0  0  0
  -27.4993  -14.1993   19.3831 H   0  0  0  0  0  0
  -28.7771  -12.3783   21.4868 H   0  0  0  0  0  0
  -28.3407  -14.0528   21.7265 H   0  0  0  0  0  0
  -25.2696   -9.5801   22.4918 H   0  0  0  0  0  0
  -23.9992   -7.4674   22.7582 H   0  0  0  0  0  0
  -21.0811   -8.8882   19.9044 H   0  0  0  0  0  0
  -22.3635  -10.9819   19.6390 H   0  0  0  0  0  0
  -21.1919   -7.6197   23.9721 H   0  0  0  0  0  0
  -21.1538   -6.0634   25.9095 H   0  0  0  0  0  0
  -22.0546   -2.7672   23.2846 H   0  0  0  0  0  0
  -22.3638  -11.9921   22.4801 H   0  0  0  0  0  0
  -21.0908  -13.1657   22.2661 H   0  0  0  0  0  0
  -24.6351  -15.8297   20.5498 H   0  0  0  0  0  0
  -26.2706  -15.6509   20.1667 H   0  0  0  0  0  0
  -26.7330  -32.5340   23.1147 H   0  0  0  0  0  0
  -25.0138  -33.9709   25.0434 H   0  0  0  0  0  0
  -22.7503  -31.2988   21.3879 H   0  0  0  0  0  0
  -23.3823  -35.9430   23.3354 H   0  0  0  0  0  0
  -24.3512  -36.8764   22.2044 H   0  0  0  0  0  0
  -23.7187  -37.6331   23.6681 H   0  0  0  0  0  0
  -26.1543  -31.4509   20.6040 H   0  0  0  0  0  0
  -26.8708  -30.7726   22.0261 H   0  0  0  0  0  0
  -28.1270  -28.7564   21.2537 H   0  0  0  0  0  0
  -25.8916  -25.7959   19.0523 H   0  0  0  0  0  0
  -23.9682  -27.2930   19.0080 H   0  0  0  0  0  0
  -23.7795  -30.5671   19.3952 H   0  0  0  0  0  0
  -22.7779  -29.2348   19.8538 H   0  0  0  0  0  0
  -25.1292  -36.1863   25.0814 H   0  0  0  0  0  0
  -20.9977  -28.3325   24.1325 H   0  0  0  0  0  0
  -20.5555  -26.2391   23.3628 H   0  0  0  0  0  0
  -21.6621  -26.7374   22.1267 H   0  0  0  0  0  0
  -19.6869  -25.6275   21.1259 H   0  0  0  0  0  0
  -19.6649  -27.3152   20.6680 H   0  0  0  0  0  0
  -17.4178  -26.6653   21.4056 H   0  0  0  0  0  0
  -18.0386  -26.0096   22.9056 H   0  0  0  0  0  0
  -19.7991  -30.7344   24.2127 H   0  0  0  0  0  0
  -17.5066  -31.6261   24.5233 H   0  0  0  0  0  0
  -15.5379  -30.3006   23.7694 H   0  0  0  0  0  0
  -15.8684  -28.0833   22.7074 H   0  0  0  0  0  0
  -24.5678  -30.7426   25.8032 H   0  0  0  0  0  0
  -24.8909  -32.3176   26.5002 H   0  0  0  0  0  0
  -25.7850  -30.9154   27.0417 H   0  0  0  0  0  0
  -27.3780  -29.7196   25.4585 H   0  0  0  0  0  0
  -26.2871  -29.7091   24.0998 H   0  0  0  0  0  0
  -27.8789  -30.4599   23.9569 H   0  0  0  0  0  0
  -27.2672  -33.3717   26.2297 H   0  0  0  0  0  0
  -28.3838  -32.7014   25.0546 H   0  0  0  0  0  0
  -28.0672  -31.8505   26.5576 H   0  0  0  0  0  0
  -28.2607  -38.0003   24.7517 H   0  0  0  0  0  0
  -28.1006  -36.2551   24.6346 H   0  0  0  0  0  0
  -27.2262  -37.1402   25.8879 H   0  0  0  0  0  0
  -20.9572  -29.8774   21.6692 H   0  0  0  0  0  0
  -26.0149  -38.2822   24.1435 H   0  0  0  0  0  0
  -29.7149  -24.4004   22.4925 H   0  0  0  0  0  0
  -29.5935  -17.1028   17.0310 H   0  0  0  0  0  0
  -30.9096  -16.1866   17.7470 H   0  0  0  0  0  0
  -30.6783  -17.8581   18.2011 H   0  0  0  0  0  0
  -32.1643  -19.6043   22.4090 H   0  0  0  0  0  0
  -31.5575  -18.2912   23.4499 H   0  0  0  0  0  0
  -32.2614  -19.7499   24.1322 H   0  0  0  0  0  0
  -28.1958  -19.9322   24.1556 H   0  0  0  0  0  0
  -29.1964  -18.5687   24.6203 H   0  0  0  0  0  0
  -28.5294  -18.7121   22.9977 H   0  0  0  0  0  0
  -29.5508  -19.3479   19.3694 H   0  0  0  0  0  0
  -28.2468  -18.9796   20.4190 H   0  0  0  0  0  0
  -27.0569  -24.4254   20.8422 H   0  0  0  0  0  0
  -27.6852  -24.2776   19.2473 H   0  0  0  0  0  0
  -28.8002  -15.5174   18.6727 H   0  0  0  0  0  0
  -28.3227  -17.1032   19.1563 H   0  0  0  0  0  0
  -31.1774  -17.8695   21.0077 H   0  0  0  0  0  0
  -29.8172  -17.5064   21.9770 H   0  0  0  0  0  0
  -30.3941  -20.6827   24.3006 H   0  0  0  0  0  0
  1 25  1  0  0  0
  1 30  2  0  0  0
  1 85  1  0  0  0
  2  3  1  0  0  0
  2 25  1  0  0  0
  2 86  1  0  0  0
  2 87  1  0  0  0
  3  4  1  0  0  0
  3 88  1  0  0  0
  3 89  1  0  0  0
  4  5  1  0  0  0
  4 90  1  0  0  0
  4 91  1  0  0  0
  5  6  1  0  0  0
  5 26  1  0  0  0
  5 92  1  0  0  0
  6 25  1  0  0  0
  6 93  1  0  0  0
  6 94  1  0  0  0
  7  8  2  0  0  0
  7 26  1  0  0  0
  7 29  1  0  0  0
  8  9  1  0  0  0
  8 22  1  0  0  0
  9 10  1  0  0  0
  9 27  2  0  0  0
 10 11  2  0  0  0
 10 15  1  0  0  0
 11 12  1  0  0  0
 11 95  1  0  0  0
 12 13  2  0  0  0
 12 96  1  0  0  0
 13 14  1  0  0  0
 13 31  1  0  0  0
 14 15  2  0  0  0
 14 97  1  0  0  0
 15 98  1  0  0  0
 16 17  2  0  0  0
 16 21  1  0  0  0
 16 31  1  0  0  0
 17 18  1  0  0  0
 17 99  1  0  0  0
 18 19  2  0  0  0
 18100  1  0  0  0
 19 20  1  0  0  0
 19 24  1  0  0  0
 20 21  2  0  0  0
 20101  1  0  0  0
 21 23  1  0  0  0
 22 28  1  0  0  0
 22 32  2  0  0  0
 26 27  1  0  0  0
 28102  1  0  0  0
 28103  1  0  0  0
 29104  1  0  0  0
 29105  1  0  0  0
 33 34  1  0  0  0
 33 66  1  0  0  0
 33 70  2  0  0  0
 34 36  1  0  0  0
 34 59  1  0  0  0
 34106  1  0  0  0
 35 44  2  0  0  0
 35 45  1  0  0  0
 35 68  1  0  0  0
 36 56  1  0  0  0
 36107  1  0  0  0
 37 39  1  0  0  0
 37 47  1  0  0  0
 37 66  1  0  0  0
 37108  1  0  0  0
 38 43  2  0  0  0
 38 46  1  0  0  0
 38 47  1  0  0  0
 39 64  1  0  0  0
 39 67  2  0  0  0
 40 52  1  0  0  0
 40 53  2  0  0  0
 40 58  1  0  0  0
 41109  1  0  0  0
 41110  1  0  0  0
 41111  1  0  0  0
 41 48  1  0  0  0
 42 43  1  0  0  0
 42 66  1  0  0  0
 42112  1  0  0  0
 42113  1  0  0  0
 43 44  1  0  0  0
 44114  1  0  0  0
 45 46  2  0  0  0
 45115  1  0  0  0
 46116  1  0  0  0
 47117  1  0  0  0
 47118  1  0  0  0
 48 56  1  0  0  0
 48 65  1  0  0  0
 48119  1  0  0  0
 49 50  1  0  0  0
 49 53  1  0  0  0
 49 64  1  0  0  0
 49120  1  0  0  0
 50 51  1  0  0  0
 50121  1  0  0  0
 50122  1  0  0  0
 51 52  1  0  0  0
 51123  1  0  0  0
 51124  1  0  0  0
 52125  1  0  0  0
 52126  1  0  0  0
 53 54  1  0  0  0
 54 55  2  0  0  0
 54127  1  0  0  0
 55 57  1  0  0  0
 55128  1  0  0  0
 56 69  2  0  0  0
 57 58  2  0  0  0
 57129  1  0  0  0
 58130  1  0  0  0
 59 60  1  0  0  0
 59 61  1  0  0  0
 59 62  1  0  0  0
 60131  1  0  0  0
 60132  1  0  0  0
 60133  1  0  0  0
 61134  1  0  0  0
 61135  1  0  0  0
 61136  1  0  0  0
 62137  1  0  0  0
 62138  1  0  0  0
 62139  1  0  0  0
 63 65  1  0  0  0
 63140  1  0  0  0
 63141  1  0  0  0
 63142  1  0  0  0
 64143  1  0  0  0
 65144  1  0  0  0
 68 79  1  0  0  0
 71 72  2  0  0  0
 71 83  1  0  0  0
 71145  1  0  0  0
 72 79  1  0  0  0
 72 84  1  0  0  0
 73 74  1  0  0  0
 73 78  1  0  0  0
 73 84  2  0  0  0
 74 82  1  0  0  0
 74 83  2  0  0  0
 75 80  1  0  0  0
 75146  1  0  0  0
 75147  1  0  0  0
 75148  1  0  0  0
 76149  1  0  0  0
 76150  1  0  0  0
 76151  1  0  0  0
 76 82  1  0  0  0
 77 82  1  0  0  0
 77152  1  0  0  0
 77153  1  0  0  0
 77154  1  0  0  0
 78 81  1  0  0  0
 78155  1  0  0  0
 78156  1  0  0  0
 79157  1  0  0  0
 79158  1  0  0  0
 80 85  1  0  0  0
 80159  1  0  0  0
 80160  1  0  0  0
 81 85  1  0  0  0
 81161  1  0  0  0
 81162  1  0  0  0
 82163  1  0  0  0
M  ISO  4   1 100  68 101  79 101  85 100
M  END
> <chiral flag>
0

> <version>
0

> <s_m_source_file>
/data/baiqing/PycharmProjects/Reinvent-master-3.2/result/LINK_invent/BTK/process_docking_weight1_custom_sum_contain_oxygen_bond_distance_aromatic_linkinvent_7_9_3/rearranged_h_0054.sdf

> <i_m_source_file_index>
83

> <r_mmod_Potential_Energy-OPLS-2005>
995.316040039062

> <r_mmod_Stretch_Energy-OPLS-2005>
339.160736083984

> <r_mmod_Bend_Energy-OPLS-2005>
323.279174804688

> <r_mmod_Torsional_Energy-OPLS-2005>
338.566131591797

> <r_mmod_Improper_Torsional_Energy-OPLS-2005>
11.2864904403687

> <r_mmod_Van_der_Waal_Energy-OPLS-2005>
140.785461425781

> <r_mmod_Electrostatic_Energy-OPLS-2005>
-198.549423217773

> <r_mmod_Solvation_Energy-OPLS-2005>
-208.523864746094

> <b_mmod_Minimization_Converged-OPLS-2005>
0

> <r_mmod_RMS_Derivative-OPLS-2005>
10.0589399337769

$$$$
83
                    3D
 Structure written by MMmdl.
151159  0  0  1  0            999 V2000
  -30.5441  -15.0097   20.3817 C   0  0  0  0  0  0
  -30.4401  -12.6268   19.4960 C   0  0  0  0  0  0
  -29.5202  -12.5198   18.2599 C   0  0  0  0  0  0
  -28.0586  -12.3043   18.6882 C   0  0  0  0  0  0
  -27.6276  -13.2543   19.8336 C   0  0  2  0  0  0
  -28.6737  -13.3344   20.9644 C   0  0  0  0  0  0
  -25.2455  -13.8229   20.5710 C   0  0  0  0  0  0
  -24.1792  -13.0445   20.9253 C   0  0  0  0  0  0
  -24.6412  -11.6929   20.8778 C   0  0  0  0  0  0
  -23.9105  -10.4302   21.0437 C   0  0  0  0  0  0
  -24.3653   -9.4204   21.9192 C   0  0  0  0  0  0
  -23.6318   -8.2236   22.0742 C   0  0  0  0  0  0
  -22.4297   -8.0282   21.3541 C   0  0  0  0  0  0
  -21.9949   -9.0264   20.4638 C   0  0  0  0  0  0
  -22.7286  -10.2148   20.3058 C   0  0  0  0  0  0
  -21.6860   -6.0736   22.5276 C   0  0  0  0  0  0
  -21.4008   -6.5632   23.8209 C   0  0  0  0  0  0
  -21.3661   -5.6795   24.9164 C   0  0  0  0  0  0
  -21.6054   -4.3047   24.7223 C   0  0  0  0  0  0
  -21.8825   -3.8150   23.4334 C   0  0  0  0  0  0
  -21.9197   -4.6975   22.3388 C   0  0  0  0  0  0
  -22.7808  -13.5199   21.1909 C   0  0  0  0  0  0
  -22.1671   -4.2152   21.0971 F   0  0  0  0  0  0
  -21.5638   -3.4532   25.7733 F   0  0  0  0  0  0
  -29.9394  -13.7484   20.3448 N   0  0  0  0  0  0
  -26.2899  -12.9476   20.3278 N   0  0  0  0  0  0
  -25.9350  -11.6605   20.5787 N   0  0  0  0  0  0
  -22.0479  -12.8149   22.0464 N   0  0  0  0  0  0
  -25.4101  -15.1953   20.4109 N   0  0  0  0  0  0
  -31.7584  -15.0438   20.1585 O   0  0  0  0  0  0
  -21.6642   -6.8888   21.4235 O   0  0  0  0  0  0
  -22.3469  -14.5509   20.6772 O   0  0  0  0  0  0
  -24.6503  -31.8385   23.1839 C   0  0  0  0  0  0
  -25.9250  -32.4650   23.8231 C   0  0  1  0  0  0
  -27.2143  -27.0864   20.1423 C   0  0  0  0  0  0
  -25.5992  -33.8462   24.2164 N   0  0  0  0  0  0
  -23.4530  -30.4580   21.5316 C   0  0  2  0  0  0
  -24.8975  -28.8748   20.1087 C   0  0  0  0  0  0
  -22.7575  -29.4529   22.4863 C   0  0  0  0  0  0
  -18.0303  -28.1416   22.8495 C   0  0  0  0  0  0
  -24.1473  -36.7195   23.2641 C   0  0  0  0  0  0
  -26.0115  -30.6945   21.3866 C   0  0  0  0  0  0
  -26.0794  -29.3013   20.7268 C   0  0  0  0  0  0
  -27.2347  -28.4241   20.7272 C   0  0  0  0  0  0
  -26.0003  -26.7751   19.4867 C   0  0  0  0  0  0
  -24.8714  -27.6251   19.4739 C   0  0  0  0  0  0
  -23.6785  -29.7854   20.1523 C   0  0  0  0  0  0
  -25.4107  -36.3007   24.0337 C   0  0  1  0  0  0
  -20.5923  -28.3733   23.1229 C   0  0  2  0  0  0
  -20.6807  -26.9445   22.5397 C   0  0  0  0  0  0
  -19.5779  -26.6402   21.5206 C   0  0  0  0  0  0
  -18.1952  -26.7956   22.1627 C   0  0  0  0  0  0
  -19.1562  -28.8898   23.2852 C   0  0  0  0  0  0
  -18.9491  -30.1492   23.8880 C   0  0  0  0  0  0
  -17.6482  -30.6615   24.0556 C   0  0  0  0  0  0
  -25.9072  -34.9389   23.5048 C   0  0  0  0  0  0
  -16.5371  -29.9103   23.6363 C   0  0  0  0  0  0
  -16.7281  -28.6520   23.0377 C   0  0  0  0  0  0
  -26.4574  -31.6530   25.0679 C   0  0  0  0  0  0
  -25.3790  -31.3702   26.1388 C   0  0  0  0  0  0
  -27.0421  -30.2936   24.6260 C   0  0  0  0  0  0
  -27.6104  -32.4284   25.7477 C   0  0  0  0  0  0
  -27.5551  -37.1736   24.8479 C   0  0  0  0  0  0
  -21.4260  -29.3043   22.3585 N   0  0  0  0  0  0
  -26.4254  -37.3739   23.9453 N   0  0  0  0  0  0
  -24.7248  -31.0191   22.0885 N   0  0  0  0  0  0
  -23.4185  -28.8063   23.3026 O   0  0  0  0  0  0
  -28.2562  -26.0706   20.2024 O   0  0  0  0  0  0
  -26.5631  -34.8912   22.4608 O   0  0  0  0  0  0
  -23.5606  -32.1247   23.7061 O   0  0  0  0  0  0
  -30.3613  -23.4260   20.2050 C   0  0  0  0  0  0
  -31.2313  -22.3175   20.2430 C   0  0  0  0  0  0
  -28.9728  -23.2238   20.1831 C   0  0  0  0  0  0
  -29.4961  -20.7629   20.2603 C   0  0  0  0  0  0
  -32.7363  -22.5224   20.2078 C   0  0  0  0  0  0
  -27.9441  -24.5327   20.0181 C   0  0  0  0  0  0
  -29.1044  -19.1326   20.2898 C   0  0  0  0  0  0
  -30.1695  -17.7838   20.3479 C   0  0  0  0  0  0
  -30.8008  -21.0298   20.2755 N   0  0  0  0  0  0
  -28.5894  -21.8415   20.2083 N   0  0  0  0  0  0
  -29.7848  -16.2251   20.4478 N   0  0  0  0  0  0
  -31.4688  -12.7890   19.1731 H   0  0  0  0  0  0
  -30.4489  -11.6905   20.0568 H   0  0  0  0  0  0
  -29.8440  -11.6996   17.6176 H   0  0  0  0  0  0
  -29.5982  -13.4268   17.6599 H   0  0  0  0  0  0
  -27.9720  -11.2715   19.0242 H   0  0  0  0  0  0
  -27.3877  -12.4088   17.8348 H   0  0  0  0  0  0
  -27.5770  -14.2443   19.3811 H   0  0  0  0  0  0
  -28.7760  -12.3839   21.4872 H   0  0  0  0  0  0
  -28.3676  -14.0687   21.7125 H   0  0  0  0  0  0
  -25.2800   -9.5663   22.4767 H   0  0  0  0  0  0
  -24.0033   -7.4612   22.7440 H   0  0  0  0  0  0
  -21.0882   -8.8788   19.8927 H   0  0  0  0  0  0
  -22.3753  -10.9690   19.6158 H   0  0  0  0  0  0
  -21.1984   -7.6139   23.9707 H   0  0  0  0  0  0
  -21.1485   -6.0516   25.9075 H   0  0  0  0  0  0
  -22.0606   -2.7614   23.2831 H   0  0  0  0  0  0
  -22.4133  -11.9800   22.4809 H   0  0  0  0  0  0
  -21.1090  -13.1121   22.2714 H   0  0  0  0  0  0
  -24.6345  -15.8443   20.4967 H   0  0  0  0  0  0
  -26.2496  -15.6328   20.0538 H   0  0  0  0  0  0
  -26.7269  -32.5246   23.0913 H   0  0  0  0  0  0
  -25.0236  -33.9565   25.0387 H   0  0  0  0  0  0
  -22.7592  -31.2858   21.3747 H   0  0  0  0  0  0
  -23.3778  -35.9481   23.3319 H   0  0  0  0  0  0
  -24.3568  -36.8816   22.2056 H   0  0  0  0  0  0
  -23.7192  -37.6381   23.6666 H   0  0  0  0  0  0
  -26.1666  -31.4457   20.6102 H   0  0  0  0  0  0
  -26.8841  -30.7453   22.0251 H   0  0  0  0  0  0
  -28.1281  -28.7541   21.2382 H   0  0  0  0  0  0
  -25.8790  -25.8266   18.9859 H   0  0  0  0  0  0
  -23.9690  -27.2926   18.9753 H   0  0  0  0  0  0
  -23.8149  -30.5581   19.3960 H   0  0  0  0  0  0
  -22.7919  -29.2319   19.8417 H   0  0  0  0  0  0
  -25.1298  -36.1803   25.0836 H   0  0  0  0  0  0
  -21.0007  -28.3316   24.1354 H   0  0  0  0  0  0
  -20.5696  -26.2342   23.3610 H   0  0  0  0  0  0
  -21.6657  -26.7431   22.1191 H   0  0  0  0  0  0
  -19.6935  -25.6306   21.1256 H   0  0  0  0  0  0
  -19.6732  -27.3208   20.6740 H   0  0  0  0  0  0
  -17.4209  -26.6690   21.4030 H   0  0  0  0  0  0
  -18.0343  -26.0107   22.9047 H   0  0  0  0  0  0
  -19.7961  -30.7316   24.2228 H   0  0  0  0  0  0
  -17.5043  -31.6302   24.5146 H   0  0  0  0  0  0
  -15.5375  -30.2994   23.7720 H   0  0  0  0  0  0
  -15.8682  -28.0824   22.7122 H   0  0  0  0  0  0
  -24.5997  -30.7004   25.7728 H   0  0  0  0  0  0
  -24.8946  -32.2867   26.4764 H   0  0  0  0  0  0
  -25.8119  -30.8921   27.0190 H   0  0  0  0  0  0
  -26.3007  -29.6666   24.1273 H   0  0  0  0  0  0
  -27.4057  -29.7223   25.4814 H   0  0  0  0  0  0
  -27.8934  -30.4189   23.9561 H   0  0  0  0  0  0
  -27.2719  -33.3651   26.1910 H   0  0  0  0  0  0
  -28.3994  -32.6709   25.0347 H   0  0  0  0  0  0
  -28.0674  -31.8484   26.5506 H   0  0  0  0  0  0
  -28.2544  -38.0044   24.7559 H   0  0  0  0  0  0
  -28.1060  -36.2590   24.6261 H   0  0  0  0  0  0
  -27.2286  -37.1331   25.8877 H   0  0  0  0  0  0
  -20.9469  -29.8682   21.6703 H   0  0  0  0  0  0
  -26.0115  -38.2792   24.1508 H   0  0  0  0  0  0
  -30.7560  -24.4359   20.1607 H   0  0  0  0  0  0
  -33.0458  -22.8256   19.2078 H   0  0  0  0  0  0
  -33.2789  -21.6102   20.4539 H   0  0  0  0  0  0
  -33.0459  -23.2945   20.9122 H   0  0  0  0  0  0
  -27.0768  -24.3079   20.6413 H   0  0  0  0  0  0
  -27.5892  -24.4402   18.9907 H   0  0  0  0  0  0
  -28.4729  -18.9922   19.4131 H   0  0  0  0  0  0
  -28.4209  -19.0234   21.1304 H   0  0  0  0  0  0
  -30.8401  -17.9677   21.1870 H   0  0  0  0  0  0
  -30.8183  -17.8702   19.4747 H   0  0  0  0  0  0
  -28.7939  -16.0559   20.5454 H   0  0  0  0  0  0
  1 25  1  0  0  0
  1 30  2  0  0  0
  1 81  1  0  0  0
  2  3  1  0  0  0
  2 25  1  0  0  0
  2 82  1  0  0  0
  2 83  1  0  0  0
  3  4  1  0  0  0
  3 84  1  0  0  0
  3 85  1  0  0  0
  4  5  1  0  0  0
  4 86  1  0  0  0
  4 87  1  0  0  0
  5  6  1  0  0  0
  5 26  1  0  0  0
  5 88  1  0  0  0
  6 25  1  0  0  0
  6 89  1  0  0  0
  6 90  1  0  0  0
  7  8  2  0  0  0
  7 26  1  0  0  0
  7 29  1  0  0  0
  8  9  1  0  0  0
  8 22  1  0  0  0
  9 10  1  0  0  0
  9 27  2  0  0  0
 10 11  2  0  0  0
 10 15  1  0  0  0
 11 12  1  0  0  0
 11 91  1  0  0  0
 12 13  2  0  0  0
 12 92  1  0  0  0
 13 14  1  0  0  0
 13 31  1  0  0  0
 14 15  2  0  0  0
 14 93  1  0  0  0
 15 94  1  0  0  0
 16 17  2  0  0  0
 16 21  1  0  0  0
 16 31  1  0  0  0
 17 18  1  0  0  0
 17 95  1  0  0  0
 18 19  2  0  0  0
 18 96  1  0  0  0
 19 20  1  0  0  0
 19 24  1  0  0  0
 20 21  2  0  0  0
 20 97  1  0  0  0
 21 23  1  0  0  0
 22 28  1  0  0  0
 22 32  2  0  0  0
 26 27  1  0  0  0
 28 98  1  0  0  0
 28 99  1  0  0  0
 29100  1  0  0  0
 29101  1  0  0  0
 33 34  1  0  0  0
 33 66  1  0  0  0
 33 70  2  0  0  0
 34 36  1  0  0  0
 34 59  1  0  0  0
 34102  1  0  0  0
 35 44  2  0  0  0
 35 45  1  0  0  0
 35 68  1  0  0  0
 36 56  1  0  0  0
 36103  1  0  0  0
 37 39  1  0  0  0
 37 47  1  0  0  0
 37 66  1  0  0  0
 37104  1  0  0  0
 38 43  2  0  0  0
 38 46  1  0  0  0
 38 47  1  0  0  0
 39 64  1  0  0  0
 39 67  2  0  0  0
 40 52  1  0  0  0
 40 53  2  0  0  0
 40 58  1  0  0  0
 41105  1  0  0  0
 41106  1  0  0  0
 41107  1  0  0  0
 41 48  1  0  0  0
 42 43  1  0  0  0
 42 66  1  0  0  0
 42108  1  0  0  0
 42109  1  0  0  0
 43 44  1  0  0  0
 44110  1  0  0  0
 45 46  2  0  0  0
 45111  1  0  0  0
 46112  1  0  0  0
 47113  1  0  0  0
 47114  1  0  0  0
 48 56  1  0  0  0
 48 65  1  0  0  0
 48115  1  0  0  0
 49 50  1  0  0  0
 49 53  1  0  0  0
 49 64  1  0  0  0
 49116  1  0  0  0
 50 51  1  0  0  0
 50117  1  0  0  0
 50118  1  0  0  0
 51 52  1  0  0  0
 51119  1  0  0  0
 51120  1  0  0  0
 52121  1  0  0  0
 52122  1  0  0  0
 53 54  1  0  0  0
 54 55  2  0  0  0
 54123  1  0  0  0
 55 57  1  0  0  0
 55124  1  0  0  0
 56 69  2  0  0  0
 57 58  2  0  0  0
 57125  1  0  0  0
 58126  1  0  0  0
 59 60  1  0  0  0
 59 61  1  0  0  0
 59 62  1  0  0  0
 60127  1  0  0  0
 60128  1  0  0  0
 60129  1  0  0  0
 61130  1  0  0  0
 61131  1  0  0  0
 61132  1  0  0  0
 62133  1  0  0  0
 62134  1  0  0  0
 62135  1  0  0  0
 63 65  1  0  0  0
 63136  1  0  0  0
 63137  1  0  0  0
 63138  1  0  0  0
 64139  1  0  0  0
 65140  1  0  0  0
 68 76  1  0  0  0
 71 72  2  0  0  0
 71 73  1  0  0  0
 71141  1  0  0  0
 72 75  1  0  0  0
 72 79  1  0  0  0
 73 76  1  0  0  0
 73 80  2  0  0  0
 74 77  1  0  0  0
 74 79  2  0  0  0
 74 80  1  0  0  0
 75142  1  0  0  0
 75143  1  0  0  0
 75144  1  0  0  0
 76145  1  0  0  0
 76146  1  0  0  0
 77 78  1  0  0  0
 77147  1  0  0  0
 77148  1  0  0  0
 78 81  1  0  0  0
 78149  1  0  0  0
 78150  1  0  0  0
 81151  1  0  0  0
M  ISO  4   1 100  68 101  76 101  81 100
M  END
> <chiral flag>
0

> <version>
0

> <s_m_source_file>
/data/baiqing/PycharmProjects/Reinvent-master-3.2/result/LINK_invent/BTK/process_docking_weight1_custom_sum_contain_oxygen_bond_distance_aromatic_linkinvent_7_9_3/rearranged_h_0054.sdf

> <i_m_source_file_index>
84

> <r_mmod_Potential_Energy-OPLS-2005>
214.781539916992

> <r_mmod_Stretch_Energy-OPLS-2005>
313.948059082031

> <r_mmod_Bend_Energy-OPLS-2005>
274.562225341797

> <r_mmod_Torsional_Energy-OPLS-2005>
215.649322509766

> <r_mmod_Improper_Torsional_Energy-OPLS-2005>
4.94062471389771

> <r_mmod_Van_der_Waal_Energy-OPLS-2005>
133.182540893555

> <r_mmod_Electrostatic_Energy-OPLS-2005>
-717.143127441406

> <r_mmod_Solvation_Energy-OPLS-2005>
-250.361206054688

> <b_mmod_Minimization_Converged-OPLS-2005>
0

> <r_mmod_RMS_Derivative-OPLS-2005>
4.25543117523193

$$$$
84
                    3D
 Structure written by MMmdl.
148156  0  0  1  0            999 V2000
  -30.4622  -15.2103   20.3762 C   0  0  0  0  0  0
  -30.4364  -12.7689   19.5188 C   0  0  0  0  0  0
  -29.5303  -12.5605   18.2803 C   0  0  0  0  0  0
  -28.0768  -12.2959   18.7126 C   0  0  0  0  0  0
  -27.6126  -13.2698   19.8244 C   0  0  2  0  0  0
  -28.6480  -13.4237   20.9577 C   0  0  0  0  0  0
  -25.2400  -13.8233   20.5749 C   0  0  0  0  0  0
  -24.1751  -13.0435   20.9271 C   0  0  0  0  0  0
  -24.6400  -11.6930   20.8794 C   0  0  0  0  0  0
  -23.9099  -10.4293   21.0432 C   0  0  0  0  0  0
  -24.3647   -9.4202   21.9203 C   0  0  0  0  0  0
  -23.6313   -8.2238   22.0760 C   0  0  0  0  0  0
  -22.4290   -8.0293   21.3551 C   0  0  0  0  0  0
  -21.9941   -9.0270   20.4650 C   0  0  0  0  0  0
  -22.7280  -10.2142   20.3067 C   0  0  0  0  0  0
  -21.6850   -6.0759   22.5294 C   0  0  0  0  0  0
  -21.4010   -6.5663   23.8231 C   0  0  0  0  0  0
  -21.3651   -5.6806   24.9190 C   0  0  0  0  0  0
  -21.6033   -4.3069   24.7231 C   0  0  0  0  0  0
  -21.8815   -3.8169   23.4353 C   0  0  0  0  0  0
  -21.9189   -4.6986   22.3416 C   0  0  0  0  0  0
  -22.7775  -13.5196   21.1915 C   0  0  0  0  0  0
  -22.1664   -4.2179   21.0989 F   0  0  0  0  0  0
  -21.5617   -3.4549   25.7740 F   0  0  0  0  0  0
  -29.8852  -13.9144   20.3295 N   0  0  0  0  0  0
  -26.2821  -12.9499   20.3222 N   0  0  0  0  0  0
  -25.9327  -11.6611   20.5739 N   0  0  0  0  0  0
  -22.0422  -12.8178   22.0461 N   0  0  0  0  0  0
  -25.4046  -15.1961   20.4182 N   0  0  0  0  0  0
  -31.6837  -15.2083   20.1714 O   0  0  0  0  0  0
  -21.6638   -6.8903   21.4254 O   0  0  0  0  0  0
  -22.3463  -14.5505   20.6760 O   0  0  0  0  0  0
  -24.6619  -31.8255   23.1709 C   0  0  0  0  0  0
  -25.9297  -32.4605   23.8173 C   0  0  1  0  0  0
  -27.2109  -26.9478   20.1718 C   0  0  0  0  0  0
  -25.5969  -33.8422   24.2083 N   0  0  0  0  0  0
  -23.4745  -30.4405   21.5216 C   0  0  2  0  0  0
  -24.9248  -28.8345   20.1106 C   0  0  0  0  0  0
  -22.7662  -29.4464   22.4786 C   0  0  0  0  0  0
  -18.0322  -28.1430   22.8486 C   0  0  0  0  0  0
  -24.1486  -36.7195   23.2648 C   0  0  0  0  0  0
  -26.0449  -30.6384   21.3994 C   0  0  0  0  0  0
  -26.1108  -29.2316   20.7416 C   0  0  0  0  0  0
  -27.2495  -28.3093   20.7492 C   0  0  0  0  0  0
  -25.9934  -26.7016   19.4953 C   0  0  0  0  0  0
  -24.8906  -27.5885   19.4695 C   0  0  0  0  0  0
  -23.7113  -29.7608   20.1466 C   0  0  0  0  0  0
  -25.4126  -36.2979   24.0316 C   0  0  1  0  0  0
  -20.5950  -28.3765   23.1202 C   0  0  2  0  0  0
  -20.6810  -26.9450   22.5408 C   0  0  0  0  0  0
  -19.5773  -26.6395   21.5227 C   0  0  0  0  0  0
  -18.1952  -26.7966   22.1636 C   0  0  0  0  0  0
  -19.1584  -28.8912   23.2829 C   0  0  0  0  0  0
  -18.9499  -30.1506   23.8856 C   0  0  0  0  0  0
  -17.6494  -30.6616   24.0573 C   0  0  0  0  0  0
  -25.9096  -34.9364   23.5013 C   0  0  0  0  0  0
  -16.5379  -29.9117   23.6367 C   0  0  0  0  0  0
  -16.7303  -28.6540   23.0378 C   0  0  0  0  0  0
  -26.4545  -31.6544   25.0694 C   0  0  0  0  0  0
  -25.3668  -31.3811   26.1347 C   0  0  0  0  0  0
  -27.0438  -30.2917   24.6420 C   0  0  0  0  0  0
  -27.6041  -32.4362   25.7479 C   0  0  0  0  0  0
  -27.5567  -37.1749   24.8474 C   0  0  0  0  0  0
  -21.4327  -29.3045   22.3537 N   0  0  0  0  0  0
  -26.4267  -37.3719   23.9432 N   0  0  0  0  0  0
  -24.7487  -30.9945   22.0837 N   0  0  0  0  0  0
  -23.4225  -28.8038   23.3017 O   0  0  0  0  0  0
  -28.1989  -25.8351   20.2467 O   0  0  0  0  0  0
  -26.5707  -34.8900   22.4613 O   0  0  0  0  0  0
  -23.5688  -32.1216   23.6807 O   0  0  0  0  0  0
  -28.7462  -20.4575   21.3547 C   0  0  0  0  0  0
  -29.3670  -19.6487   20.3072 C   0  0  0  0  0  0
  -29.2259  -21.8867   19.1614 C   0  0  0  0  0  0
  -28.6048  -22.6989   20.2136 C   0  0  0  0  0  0
  -29.5186  -22.5081   17.8095 C   0  0  0  0  0  0
  -30.1336  -18.0822   20.4093 C   0  0  0  0  0  0
  -27.8133  -24.2541   20.0590 C   0  0  0  0  0  0
  -28.3797  -21.8399   21.2997 N   0  0  0  0  0  0
  -29.5912  -20.5060   19.2236 N   0  0  0  0  0  0
  -29.7162  -16.4814   20.4493 N   0  0  0  0  0  0
  -31.4584  -12.9614   19.1906 H   0  0  0  0  0  0
  -30.4876  -11.8579   20.1167 H   0  0  0  0  0  0
  -29.8981  -11.7306   17.6750 H   0  0  0  0  0  0
  -29.5680  -13.4455   17.6434 H   0  0  0  0  0  0
  -28.0304  -11.2723   19.0864 H   0  0  0  0  0  0
  -27.4046  -12.3384   17.8547 H   0  0  0  0  0  0
  -27.5342  -14.2410   19.3339 H   0  0  0  0  0  0
  -28.8036  -12.4804   21.4843 H   0  0  0  0  0  0
  -28.2982  -14.1434   21.7000 H   0  0  0  0  0  0
  -25.2785   -9.5672   22.4793 H   0  0  0  0  0  0
  -24.0024   -7.4615   22.7470 H   0  0  0  0  0  0
  -21.0877   -8.8792   19.8953 H   0  0  0  0  0  0
  -22.3746  -10.9689   19.6185 H   0  0  0  0  0  0
  -21.2008   -7.6172   23.9747 H   0  0  0  0  0  0
  -21.1466   -6.0536   25.9091 H   0  0  0  0  0  0
  -22.0593   -2.7634   23.2841 H   0  0  0  0  0  0
  -22.4047  -11.9840   22.4851 H   0  0  0  0  0  0
  -21.1034  -13.1192   22.2657 H   0  0  0  0  0  0
  -24.6314  -15.8449   20.5200 H   0  0  0  0  0  0
  -26.2420  -15.6341   20.0585 H   0  0  0  0  0  0
  -26.7363  -32.5143   23.0884 H   0  0  0  0  0  0
  -25.0094  -33.9510   25.0220 H   0  0  0  0  0  0
  -22.7874  -31.2719   21.3527 H   0  0  0  0  0  0
  -23.3773  -35.9498   23.3293 H   0  0  0  0  0  0
  -24.3568  -36.8849   22.2062 H   0  0  0  0  0  0
  -23.7216  -37.6370   23.6708 H   0  0  0  0  0  0
  -26.2254  -31.3819   20.6222 H   0  0  0  0  0  0
  -26.9052  -30.6895   22.0553 H   0  0  0  0  0  0
  -28.1460  -28.6111   21.2720 H   0  0  0  0  0  0
  -25.8463  -25.7543   18.9995 H   0  0  0  0  0  0
  -23.9884  -27.2779   18.9611 H   0  0  0  0  0  0
  -23.8669  -30.5308   19.3898 H   0  0  0  0  0  0
  -22.8208  -29.2162   19.8280 H   0  0  0  0  0  0
  -25.1321  -36.1764   25.0806 H   0  0  0  0  0  0
  -21.0038  -28.3359   24.1321 H   0  0  0  0  0  0
  -20.5717  -26.2375   23.3640 H   0  0  0  0  0  0
  -21.6671  -26.7458   22.1186 H   0  0  0  0  0  0
  -19.6950  -25.6299   21.1278 H   0  0  0  0  0  0
  -19.6717  -27.3197   20.6749 H   0  0  0  0  0  0
  -17.4229  -26.6717   21.4030 H   0  0  0  0  0  0
  -18.0335  -26.0112   22.9032 H   0  0  0  0  0  0
  -19.7972  -30.7343   24.2192 H   0  0  0  0  0  0
  -17.5054  -31.6292   24.5183 H   0  0  0  0  0  0
  -15.5384  -30.3017   23.7719 H   0  0  0  0  0  0
  -15.8698  -28.0854   22.7120 H   0  0  0  0  0  0
  -24.5858  -30.7155   25.7660 H   0  0  0  0  0  0
  -24.8833  -32.3009   26.4642 H   0  0  0  0  0  0
  -25.7881  -30.9062   27.0212 H   0  0  0  0  0  0
  -26.3103  -29.6598   24.1398 H   0  0  0  0  0  0
  -27.3948  -29.7284   25.5077 H   0  0  0  0  0  0
  -27.9060  -30.4124   23.9860 H   0  0  0  0  0  0
  -27.2610  -33.3718   26.1909 H   0  0  0  0  0  0
  -28.3896  -32.6833   25.0326 H   0  0  0  0  0  0
  -28.0647  -31.8577   26.5486 H   0  0  0  0  0  0
  -28.2569  -38.0060   24.7533 H   0  0  0  0  0  0
  -28.1067  -36.2588   24.6274 H   0  0  0  0  0  0
  -27.2287  -37.1360   25.8876 H   0  0  0  0  0  0
  -20.9572  -29.8716   21.6655 H   0  0  0  0  0  0
  -26.0107  -38.2772   24.1461 H   0  0  0  0  0  0
  -28.5637  -19.9882   22.3114 H   0  0  0  0  0  0
  -29.1676  -23.5361   17.7379 H   0  0  0  0  0  0
  -29.0399  -21.9325   17.0158 H   0  0  0  0  0  0
  -30.5930  -22.5149   17.6237 H   0  0  0  0  0  0
  -30.7416  -18.1869   21.3081 H   0  0  0  0  0  0
  -30.8690  -18.1155   19.6049 H   0  0  0  0  0  0
  -26.9306  -24.1385   20.6886 H   0  0  0  0  0  0
  -27.4141  -24.2070   19.0471 H   0  0  0  0  0  0
  -28.7232  -16.3394   20.5550 H   0  0  0  0  0  0
  1 25  1  0  0  0
  1 30  2  0  0  0
  1 80  1  0  0  0
  2  3  1  0  0  0
  2 25  1  0  0  0
  2 81  1  0  0  0
  2 82  1  0  0  0
  3  4  1  0  0  0
  3 83  1  0  0  0
  3 84  1  0  0  0
  4  5  1  0  0  0
  4 85  1  0  0  0
  4 86  1  0  0  0
  5  6  1  0  0  0
  5 26  1  0  0  0
  5 87  1  0  0  0
  6 25  1  0  0  0
  6 88  1  0  0  0
  6 89  1  0  0  0
  7  8  2  0  0  0
  7 26  1  0  0  0
  7 29  1  0  0  0
  8  9  1  0  0  0
  8 22  1  0  0  0
  9 10  1  0  0  0
  9 27  2  0  0  0
 10 11  2  0  0  0
 10 15  1  0  0  0
 11 12  1  0  0  0
 11 90  1  0  0  0
 12 13  2  0  0  0
 12 91  1  0  0  0
 13 14  1  0  0  0
 13 31  1  0  0  0
 14 15  2  0  0  0
 14 92  1  0  0  0
 15 93  1  0  0  0
 16 17  2  0  0  0
 16 21  1  0  0  0
 16 31  1  0  0  0
 17 18  1  0  0  0
 17 94  1  0  0  0
 18 19  2  0  0  0
 18 95  1  0  0  0
 19 20  1  0  0  0
 19 24  1  0  0  0
 20 21  2  0  0  0
 20 96  1  0  0  0
 21 23  1  0  0  0
 22 28  1  0  0  0
 22 32  2  0  0  0
 26 27  1  0  0  0
 28 97  1  0  0  0
 28 98  1  0  0  0
 29 99  1  0  0  0
 29100  1  0  0  0
 33 34  1  0  0  0
 33 66  1  0  0  0
 33 70  2  0  0  0
 34 36  1  0  0  0
 34 59  1  0  0  0
 34101  1  0  0  0
 35 44  2  0  0  0
 35 45  1  0  0  0
 35 68  1  0  0  0
 36 56  1  0  0  0
 36102  1  0  0  0
 37 39  1  0  0  0
 37 47  1  0  0  0
 37 66  1  0  0  0
 37103  1  0  0  0
 38 43  2  0  0  0
 38 46  1  0  0  0
 38 47  1  0  0  0
 39 64  1  0  0  0
 39 67  2  0  0  0
 40 52  1  0  0  0
 40 53  2  0  0  0
 40 58  1  0  0  0
 41104  1  0  0  0
 41105  1  0  0  0
 41106  1  0  0  0
 41 48  1  0  0  0
 42 43  1  0  0  0
 42 66  1  0  0  0
 42107  1  0  0  0
 42108  1  0  0  0
 43 44  1  0  0  0
 44109  1  0  0  0
 45 46  2  0  0  0
 45110  1  0  0  0
 46111  1  0  0  0
 47112  1  0  0  0
 47113  1  0  0  0
 48 56  1  0  0  0
 48 65  1  0  0  0
 48114  1  0  0  0
 49 50  1  0  0  0
 49 53  1  0  0  0
 49 64  1  0  0  0
 49115  1  0  0  0
 50 51  1  0  0  0
 50116  1  0  0  0
 50117  1  0  0  0
 51 52  1  0  0  0
 51118  1  0  0  0
 51119  1  0  0  0
 52120  1  0  0  0
 52121  1  0  0  0
 53 54  1  0  0  0
 54 55  2  0  0  0
 54122  1  0  0  0
 55 57  1  0  0  0
 55123  1  0  0  0
 56 69  2  0  0  0
 57 58  2  0  0  0
 57124  1  0  0  0
 58125  1  0  0  0
 59 60  1  0  0  0
 59 61  1  0  0  0
 59 62  1  0  0  0
 60126  1  0  0  0
 60127  1  0  0  0
 60128  1  0  0  0
 61129  1  0  0  0
 61130  1  0  0  0
 61131  1  0  0  0
 62132  1  0  0  0
 62133  1  0  0  0
 62134  1  0  0  0
 63 65  1  0  0  0
 63135  1  0  0  0
 63136  1  0  0  0
 63137  1  0  0  0
 64138  1  0  0  0
 65139  1  0  0  0
 68 77  1  0  0  0
 71 72  2  0  0  0
 71 78  1  0  0  0
 71140  1  0  0  0
 72 76  1  0  0  0
 72 79  1  0  0  0
 73 74  1  0  0  0
 73 75  1  0  0  0
 73 79  2  0  0  0
 74 77  1  0  0  0
 74 78  2  0  0  0
 75141  1  0  0  0
 75142  1  0  0  0
 75143  1  0  0  0
 76 80  1  0  0  0
 76144  1  0  0  0
 76145  1  0  0  0
 77146  1  0  0  0
 77147  1  0  0  0
 80148  1  0  0  0
M  ISO  4   1 100  68 101  77 101  80 100
M  END
> <chiral flag>
0

> <version>
0

> <s_m_source_file>
/data/baiqing/PycharmProjects/Reinvent-master-3.2/result/LINK_invent/BTK/process_docking_weight1_custom_sum_contain_oxygen_bond_distance_aromatic_linkinvent_7_9_3/rearranged_h_0054.sdf

> <i_m_source_file_index>
85

> <r_mmod_Potential_Energy-OPLS-2005>
1137.91967773438

> <r_mmod_Stretch_Energy-OPLS-2005>
493.155151367188

> <r_mmod_Bend_Energy-OPLS-2005>
430.026977539062

> <r_mmod_Torsional_Energy-OPLS-2005>
220.990219116211

> <r_mmod_Improper_Torsional_Energy-OPLS-2005>
9.08442401885986

> <r_mmod_Van_der_Waal_Energy-OPLS-2005>
134.380767822266

> <r_mmod_Electrostatic_Energy-OPLS-2005>
-328.680053710938

> <r_mmod_Solvation_Energy-OPLS-2005>
-237.4921875

> <b_mmod_Minimization_Converged-OPLS-2005>
0

> <r_mmod_RMS_Derivative-OPLS-2005>
1.81848573684692

$$$$
85
                    3D
 Structure written by MMmdl.
157165  0  0  1  0            999 V2000
  -30.6437  -14.7449   20.5555 C   0  0  0  0  0  0
  -30.4573  -12.4915   19.4560 C   0  0  0  0  0  0
  -29.5199  -12.5481   18.2275 C   0  0  0  0  0  0
  -28.0409  -12.3690   18.6359 C   0  0  0  0  0  0
  -27.6576  -13.2253   19.8732 C   0  0  2  0  0  0
  -28.7156  -13.0577   20.9866 C   0  0  0  0  0  0
  -25.2536  -13.8138   20.5679 C   0  0  0  0  0  0
  -24.1812  -13.0360   20.9172 C   0  0  0  0  0  0
  -24.6418  -11.6874   20.8700 C   0  0  0  0  0  0
  -23.9084  -10.4244   21.0340 C   0  0  0  0  0  0
  -24.3625   -9.4161   21.9104 C   0  0  0  0  0  0
  -23.6269   -8.2216   22.0716 C   0  0  0  0  0  0
  -22.4243   -8.0250   21.3525 C   0  0  0  0  0  0
  -21.9903   -9.0231   20.4629 C   0  0  0  0  0  0
  -22.7261  -10.2091   20.3002 C   0  0  0  0  0  0
  -21.6846   -6.0719   22.5273 C   0  0  0  0  0  0
  -21.4007   -6.5621   23.8216 C   0  0  0  0  0  0
  -21.3660   -5.6775   24.9178 C   0  0  0  0  0  0
  -21.6048   -4.3041   24.7241 C   0  0  0  0  0  0
  -21.8811   -3.8132   23.4358 C   0  0  0  0  0  0
  -21.9184   -4.6940   22.3416 C   0  0  0  0  0  0
  -22.7815  -13.5095   21.1841 C   0  0  0  0  0  0
  -22.1665   -4.2122   21.0994 F   0  0  0  0  0  0
  -21.5663   -3.4545   25.7779 F   0  0  0  0  0  0
  -29.9941  -13.5228   20.4251 N   0  0  0  0  0  0
  -26.3035  -12.9370   20.3392 N   0  0  0  0  0  0
  -25.9376  -11.6496   20.5776 N   0  0  0  0  0  0
  -22.0526  -12.8064   22.0454 N   0  0  0  0  0  0
  -25.4022  -15.1865   20.4054 N   0  0  0  0  0  0
  -31.8096  -14.8083   20.1540 O   0  0  0  0  0  0
  -21.6588   -6.8865   21.4242 O   0  0  0  0  0  0
  -22.3438  -14.5357   20.6677 O   0  0  0  0  0  0
  -24.6283  -31.8563   23.1919 C   0  0  0  0  0  0
  -25.9086  -32.4761   23.8297 C   0  0  1  0  0  0
  -27.2110  -27.2380   20.1588 C   0  0  0  0  0  0
  -25.5876  -33.8567   24.2206 N   0  0  0  0  0  0
  -23.4306  -30.4706   21.5402 C   0  0  2  0  0  0
  -24.8790  -28.9153   20.1099 C   0  0  0  0  0  0
  -22.7511  -29.4559   22.4925 C   0  0  0  0  0  0
  -18.0287  -28.1395   22.8456 C   0  0  0  0  0  0
  -24.1518  -36.7271   23.2653 C   0  0  0  0  0  0
  -25.9794  -30.7578   21.3837 C   0  0  0  0  0  0
  -26.0505  -29.3792   20.7246 C   0  0  0  0  0  0
  -27.2204  -28.5527   20.7338 C   0  0  0  0  0  0
  -26.0234  -26.8465   19.5074 C   0  0  0  0  0  0
  -24.8718  -27.6577   19.4878 C   0  0  0  0  0  0
  -23.6510  -29.8044   20.1585 C   0  0  0  0  0  0
  -25.4159  -36.3080   24.0322 C   0  0  1  0  0  0
  -20.5887  -28.3692   23.1298 C   0  0  2  0  0  0
  -20.6793  -26.9410   22.5443 C   0  0  0  0  0  0
  -19.5772  -26.6396   21.5234 C   0  0  0  0  0  0
  -18.1942  -26.7940   22.1620 C   0  0  0  0  0  0
  -19.1536  -28.8851   23.2862 C   0  0  0  0  0  0
  -18.9465  -30.1455   23.8869 C   0  0  0  0  0  0
  -17.6465  -30.6592   24.0549 C   0  0  0  0  0  0
  -25.9094  -34.9446   23.5091 C   0  0  0  0  0  0
  -16.5348  -29.9087   23.6322 C   0  0  0  0  0  0
  -16.7268  -28.6510   23.0317 C   0  0  0  0  0  0
  -26.4442  -31.6587   25.0693 C   0  0  0  0  0  0
  -25.3600  -31.3752   26.1350 C   0  0  0  0  0  0
  -27.0329  -30.3014   24.6213 C   0  0  0  0  0  0
  -27.6028  -32.4330   25.7403 C   0  0  0  0  0  0
  -27.5605  -37.1764   24.8463 C   0  0  0  0  0  0
  -21.4223  -29.2997   22.3646 N   0  0  0  0  0  0
  -26.4345  -37.3762   23.9378 N   0  0  0  0  0  0
  -24.6984  -31.0468   22.0945 N   0  0  0  0  0  0
  -23.4185  -28.8151   23.3089 O   0  0  0  0  0  0
  -28.2953  -26.3351   20.2036 O   0  0  0  0  0  0
  -26.5724  -34.8899   22.4701 O   0  0  0  0  0  0
  -23.5405  -32.1431   23.7129 O   0  0  0  0  0  0
  -29.3689  -20.3464   19.0912 C   0  0  0  0  0  0
  -29.2284  -20.8348   20.3748 C   0  0  0  0  0  0
  -29.9951  -18.6315   20.4248 C   0  0  0  0  0  0
  -30.2374  -18.2041   18.0131 C   0  0  0  0  0  0
  -28.8166  -16.0238   21.7871 C   0  0  0  0  0  0
  -28.6716  -22.2057   20.9431 C   0  0  0  0  0  0
  -30.7015  -17.2990   20.9069 C   0  0  0  0  0  0
  -28.8944  -23.6365   20.2037 C   0  0  0  0  0  0
  -28.0488  -24.9323   20.7064 C   0  0  0  0  0  0
  -29.8482  -19.0441   19.1517 N   0  0  0  0  0  0
  -29.6246  -19.7291   21.1553 N   0  3  0  0  0  0
  -29.9868  -15.9452   20.9020 N   0  0  0  0  0  0
  -31.4915  -12.6433   19.1378 H   0  0  0  0  0  0
  -30.4508  -11.4981   19.9095 H   0  0  0  0  0  0
  -29.8074  -11.7825   17.5091 H   0  0  0  0  0  0
  -29.6459  -13.5004   17.7057 H   0  0  0  0  0  0
  -27.8836  -11.3117   18.8548 H   0  0  0  0  0  0
  -27.3817  -12.6083   17.7976 H   0  0  0  0  0  0
  -27.6794  -14.2614   19.5399 H   0  0  0  0  0  0
  -28.7826  -12.0026   21.2626 H   0  0  0  0  0  0
  -28.4542  -13.5462   21.9195 H   0  0  0  0  0  0
  -25.2812   -9.5615   22.4613 H   0  0  0  0  0  0
  -23.9975   -7.4595   22.7420 H   0  0  0  0  0  0
  -21.0837   -8.8721   19.8945 H   0  0  0  0  0  0
  -22.3694  -10.9583   19.6062 H   0  0  0  0  0  0
  -21.1976   -7.6122   23.9719 H   0  0  0  0  0  0
  -21.1504   -6.0500   25.9069 H   0  0  0  0  0  0
  -22.0591   -2.7586   23.2863 H   0  0  0  0  0  0
  -22.4268  -11.9778   22.4864 H   0  0  0  0  0  0
  -21.1118  -13.1005   22.2688 H   0  0  0  0  0  0
  -24.6179  -15.8184   20.5211 H   0  0  0  0  0  0
  -26.2392  -15.6605   20.0941 H   0  0  0  0  0  0
  -26.7118  -32.5398   23.1000 H   0  0  0  0  0  0
  -24.9853  -33.9761   25.0215 H   0  0  0  0  0  0
  -22.7256  -31.2903   21.3881 H   0  0  0  0  0  0
  -23.3816  -35.9562   23.3329 H   0  0  0  0  0  0
  -24.3596  -36.8910   22.2065 H   0  0  0  0  0  0
  -23.7243  -37.6452   23.6695 H   0  0  0  0  0  0
  -26.1384  -31.5209   20.6201 H   0  0  0  0  0  0
  -26.8475  -30.7949   22.0290 H   0  0  0  0  0  0
  -28.1182  -28.8935   21.2270 H   0  0  0  0  0  0
  -25.9665  -25.8852   19.0192 H   0  0  0  0  0  0
  -23.9750  -27.2947   19.0010 H   0  0  0  0  0  0
  -23.7692  -30.5827   19.4043 H   0  0  0  0  0  0
  -22.7711  -29.2385   19.8501 H   0  0  0  0  0  0
  -25.1335  -36.1970   25.0819 H   0  0  0  0  0  0
  -20.9910  -28.3283   24.1446 H   0  0  0  0  0  0
  -20.5764  -26.2275   23.3640 H   0  0  0  0  0  0
  -21.6665  -26.7496   22.1177 H   0  0  0  0  0  0
  -19.6981  -25.6316   21.1265 H   0  0  0  0  0  0
  -19.6752  -27.3200   20.6759 H   0  0  0  0  0  0
  -17.4222  -26.6631   21.4024 H   0  0  0  0  0  0
  -18.0331  -26.0132   22.9053 H   0  0  0  0  0  0
  -19.7941  -30.7278   24.2229 H   0  0  0  0  0  0
  -17.5014  -31.6270   24.5183 H   0  0  0  0  0  0
  -15.5341  -30.2966   23.7702 H   0  0  0  0  0  0
  -15.8668  -28.0852   22.7001 H   0  0  0  0  0  0
  -24.5746  -30.7204   25.7546 H   0  0  0  0  0  0
  -24.8816  -32.2940   26.4748 H   0  0  0  0  0  0
  -25.7778  -30.8843   27.0142 H   0  0  0  0  0  0
  -26.2953  -29.6721   24.1227 H   0  0  0  0  0  0
  -27.4024  -29.7307   25.4739 H   0  0  0  0  0  0
  -27.8793  -30.4309   23.9468 H   0  0  0  0  0  0
  -27.2703  -33.3659   26.1948 H   0  0  0  0  0  0
  -28.3770  -32.6865   25.0146 H   0  0  0  0  0  0
  -28.0762  -31.8490   26.5296 H   0  0  0  0  0  0
  -28.2601  -38.0077   24.7526 H   0  0  0  0  0  0
  -28.1123  -36.2604   24.6283 H   0  0  0  0  0  0
  -27.2301  -37.1368   25.8859 H   0  0  0  0  0  0
  -20.9423  -29.8670   21.6792 H   0  0  0  0  0  0
  -26.0258  -38.2862   24.1326 H   0  0  0  0  0  0
  -29.1752  -20.8335   18.1445 H   0  0  0  0  0  0
  -31.3271  -18.2027   17.9418 H   0  0  0  0  0  0
  -29.8187  -18.6071   17.0904 H   0  0  0  0  0  0
  -29.8785  -17.1807   18.1558 H   0  0  0  0  0  0
  -29.0429  -15.5474   22.7425 H   0  0  0  0  0  0
  -28.5233  -17.0497   22.0120 H   0  0  0  0  0  0
  -27.9310  -15.5692   21.3554 H   0  0  0  0  0  0
  -29.0539  -22.3069   21.9607 H   0  0  0  0  0  0
  -27.5975  -22.0601   21.0714 H   0  0  0  0  0  0
  -31.0320  -17.4961   21.9277 H   0  0  0  0  0  0
  -31.6235  -17.2462   20.3301 H   0  0  0  0  0  0
  -28.6944  -23.5090   19.1383 H   0  0  0  0  0  0
  -29.9558  -23.8740   20.2779 H   0  0  0  0  0  0
  -28.1844  -24.9901   21.7881 H   0  0  0  0  0  0
  -26.9936  -24.6786   20.6035 H   0  0  0  0  0  0
  -29.6815  -19.7514   22.1690 H   0  0  0  0  0  0
  1 25  1  0  0  0
  1 30  2  0  0  0
  1 82  1  0  0  0
  2  3  1  0  0  0
  2 25  1  0  0  0
  2 83  1  0  0  0
  2 84  1  0  0  0
  3  4  1  0  0  0
  3 85  1  0  0  0
  3 86  1  0  0  0
  4  5  1  0  0  0
  4 87  1  0  0  0
  4 88  1  0  0  0
  5  6  1  0  0  0
  5 26  1  0  0  0
  5 89  1  0  0  0
  6 25  1  0  0  0
  6 90  1  0  0  0
  6 91  1  0  0  0
  7  8  2  0  0  0
  7 26  1  0  0  0
  7 29  1  0  0  0
  8  9  1  0  0  0
  8 22  1  0  0  0
  9 10  1  0  0  0
  9 27  2  0  0  0
 10 11  2  0  0  0
 10 15  1  0  0  0
 11 12  1  0  0  0
 11 92  1  0  0  0
 12 13  2  0  0  0
 12 93  1  0  0  0
 13 14  1  0  0  0
 13 31  1  0  0  0
 14 15  2  0  0  0
 14 94  1  0  0  0
 15 95  1  0  0  0
 16 17  2  0  0  0
 16 21  1  0  0  0
 16 31  1  0  0  0
 17 18  1  0  0  0
 17 96  1  0  0  0
 18 19  2  0  0  0
 18 97  1  0  0  0
 19 20  1  0  0  0
 19 24  1  0  0  0
 20 21  2  0  0  0
 20 98  1  0  0  0
 21 23  1  0  0  0
 22 28  1  0  0  0
 22 32  2  0  0  0
 26 27  1  0  0  0
 28 99  1  0  0  0
 28100  1  0  0  0
 29101  1  0  0  0
 29102  1  0  0  0
 33 34  1  0  0  0
 33 66  1  0  0  0
 33 70  2  0  0  0
 34 36  1  0  0  0
 34 59  1  0  0  0
 34103  1  0  0  0
 35 44  2  0  0  0
 35 45  1  0  0  0
 35 68  1  0  0  0
 36 56  1  0  0  0
 36104  1  0  0  0
 37 39  1  0  0  0
 37 47  1  0  0  0
 37 66  1  0  0  0
 37105  1  0  0  0
 38 43  2  0  0  0
 38 46  1  0  0  0
 38 47  1  0  0  0
 39 64  1  0  0  0
 39 67  2  0  0  0
 40 52  1  0  0  0
 40 53  2  0  0  0
 40 58  1  0  0  0
 41106  1  0  0  0
 41107  1  0  0  0
 41108  1  0  0  0
 41 48  1  0  0  0
 42 43  1  0  0  0
 42 66  1  0  0  0
 42109  1  0  0  0
 42110  1  0  0  0
 43 44  1  0  0  0
 44111  1  0  0  0
 45 46  2  0  0  0
 45112  1  0  0  0
 46113  1  0  0  0
 47114  1  0  0  0
 47115  1  0  0  0
 48 56  1  0  0  0
 48 65  1  0  0  0
 48116  1  0  0  0
 49 50  1  0  0  0
 49 53  1  0  0  0
 49 64  1  0  0  0
 49117  1  0  0  0
 50 51  1  0  0  0
 50118  1  0  0  0
 50119  1  0  0  0
 51 52  1  0  0  0
 51120  1  0  0  0
 51121  1  0  0  0
 52122  1  0  0  0
 52123  1  0  0  0
 53 54  1  0  0  0
 54 55  2  0  0  0
 54124  1  0  0  0
 55 57  1  0  0  0
 55125  1  0  0  0
 56 69  2  0  0  0
 57 58  2  0  0  0
 57126  1  0  0  0
 58127  1  0  0  0
 59 60  1  0  0  0
 59 61  1  0  0  0
 59 62  1  0  0  0
 60128  1  0  0  0
 60129  1  0  0  0
 60130  1  0  0  0
 61131  1  0  0  0
 61132  1  0  0  0
 61133  1  0  0  0
 62134  1  0  0  0
 62135  1  0  0  0
 62136  1  0  0  0
 63 65  1  0  0  0
 63137  1  0  0  0
 63138  1  0  0  0
 63139  1  0  0  0
 64140  1  0  0  0
 65141  1  0  0  0
 68 79  1  0  0  0
 71 72  2  0  0  0
 71 80  1  0  0  0
 71142  1  0  0  0
 72 76  1  0  0  0
 72 81  1  0  0  0
 73 77  1  0  0  0
 73 80  1  0  0  0
 73 81  2  0  0  0
 74 80  1  0  0  0
 74143  1  0  0  0
 74144  1  0  0  0
 74145  1  0  0  0
 75 82  1  0  0  0
 75146  1  0  0  0
 75147  1  0  0  0
 75148  1  0  0  0
 76 78  1  0  0  0
 76149  1  0  0  0
 76150  1  0  0  0
 77 82  1  0  0  0
 77151  1  0  0  0
 77152  1  0  0  0
 78 79  1  0  0  0
 78153  1  0  0  0
 78154  1  0  0  0
 79155  1  0  0  0
 79156  1  0  0  0
 81157  1  0  0  0
M  CHG  1  81   1
M  ISO  4   1 100  68 101  79 101  82 100
M  END
> <chiral flag>
0

> <version>
0

> <s_m_source_file>
/data/baiqing/PycharmProjects/Reinvent-master-3.2/result/LINK_invent/BTK/process_docking_weight1_custom_sum_contain_oxygen_bond_distance_aromatic_linkinvent_7_9_3/rearranged_h_0054.sdf

> <i_m_source_file_index>
86

> <r_mmod_Potential_Energy-OPLS-2005>
203.928665161133

> <r_mmod_Stretch_Energy-OPLS-2005>
132.028411865234

> <r_mmod_Bend_Energy-OPLS-2005>
191.925994873047

> <r_mmod_Torsional_Energy-OPLS-2005>
256.564727783203

> <r_mmod_Improper_Torsional_Energy-OPLS-2005>
8.00420570373535

> <r_mmod_Van_der_Waal_Energy-OPLS-2005>
127.994064331055

> <r_mmod_Electrostatic_Energy-OPLS-2005>
-189.196212768555

> <r_mmod_Solvation_Energy-OPLS-2005>
-409.225616455078

> <b_mmod_Minimization_Converged-OPLS-2005>
0

> <r_mmod_RMS_Derivative-OPLS-2005>
5.30566120147705

$$$$
86
                    3D
 Structure written by MMmdl.
153161  0  0  1  0            999 V2000
  -30.5935  -14.9116   20.5296 C   0  0  0  0  0  0
  -30.4394  -12.5806   19.5248 C   0  0  0  0  0  0
  -29.5234  -12.5279   18.2764 C   0  0  0  0  0  0
  -28.0565  -12.3092   18.6850 C   0  0  0  0  0  0
  -27.6347  -13.2427   19.8466 C   0  0  2  0  0  0
  -28.6627  -13.2453   20.9967 C   0  0  0  0  0  0
  -25.2473  -13.8242   20.5669 C   0  0  0  0  0  0
  -24.1791  -13.0481   20.9179 C   0  0  0  0  0  0
  -24.6407  -11.6943   20.8755 C   0  0  0  0  0  0
  -23.9101  -10.4310   21.0424 C   0  0  0  0  0  0
  -24.3654   -9.4211   21.9187 C   0  0  0  0  0  0
  -23.6312   -8.2266   22.0770 C   0  0  0  0  0  0
  -22.4299   -8.0307   21.3544 C   0  0  0  0  0  0
  -21.9939   -9.0287   20.4655 C   0  0  0  0  0  0
  -22.7282  -10.2160   20.3058 C   0  0  0  0  0  0
  -21.6846   -6.0797   22.5305 C   0  0  0  0  0  0
  -21.4014   -6.5699   23.8246 C   0  0  0  0  0  0
  -21.3621   -5.6841   24.9191 C   0  0  0  0  0  0
  -21.6011   -4.3103   24.7234 C   0  0  0  0  0  0
  -21.8798   -3.8202   23.4356 C   0  0  0  0  0  0
  -21.9194   -4.7031   22.3421 C   0  0  0  0  0  0
  -22.7808  -13.5244   21.1849 C   0  0  0  0  0  0
  -22.1692   -4.2233   21.1010 F   0  0  0  0  0  0
  -21.5564   -3.4572   25.7730 F   0  0  0  0  0  0
  -29.9607  -13.6656   20.4390 N   0  0  0  0  0  0
  -26.2903  -12.9476   20.3237 N   0  0  0  0  0  0
  -25.9335  -11.6608   20.5738 N   0  0  0  0  0  0
  -22.0465  -12.8223   22.0399 N   0  0  0  0  0  0
  -25.4159  -15.1981   20.4099 N   0  0  0  0  0  0
  -31.7261  -14.9948   20.0409 O   0  0  0  0  0  0
  -21.6628   -6.8939   21.4268 O   0  0  0  0  0  0
  -22.3496  -14.5574   20.6721 O   0  0  0  0  0  0
  -24.6439  -31.8433   23.1887 C   0  0  0  0  0  0
  -25.9201  -32.4706   23.8283 C   0  0  1  0  0  0
  -27.2342  -27.1447   20.1445 C   0  0  0  0  0  0
  -25.5950  -33.8510   24.2208 N   0  0  0  0  0  0
  -23.4483  -30.4592   21.5331 C   0  0  2  0  0  0
  -24.9031  -28.8892   20.1092 C   0  0  0  0  0  0
  -22.7566  -29.4527   22.4867 C   0  0  0  0  0  0
  -18.0302  -28.1371   22.8476 C   0  0  0  0  0  0
  -24.1483  -36.7255   23.2642 C   0  0  0  0  0  0
  -26.0050  -30.7179   21.3882 C   0  0  0  0  0  0
  -26.0775  -29.3291   20.7318 C   0  0  0  0  0  0
  -27.2381  -28.4697   20.7404 C   0  0  0  0  0  0
  -26.0295  -26.8060   19.4817 C   0  0  0  0  0  0
  -24.8919  -27.6404   19.4718 C   0  0  0  0  0  0
  -23.6752  -29.7851   20.1535 C   0  0  0  0  0  0
  -25.4119  -36.3046   24.0322 C   0  0  1  0  0  0
  -20.5913  -28.3703   23.1259 C   0  0  2  0  0  0
  -20.6789  -26.9404   22.5427 C   0  0  0  0  0  0
  -19.5782  -26.6370   21.5209 C   0  0  0  0  0  0
  -18.1955  -26.7909   22.1610 C   0  0  0  0  0  0
  -19.1553  -28.8861   23.2855 C   0  0  0  0  0  0
  -18.9459  -30.1458   23.8872 C   0  0  0  0  0  0
  -17.6444  -30.6566   24.0540 C   0  0  0  0  0  0
  -25.9070  -34.9411   23.5075 C   0  0  0  0  0  0
  -16.5341  -29.9048   23.6324 C   0  0  0  0  0  0
  -16.7281  -28.6466   23.0347 C   0  0  0  0  0  0
  -26.4523  -31.6578   25.0724 C   0  0  0  0  0  0
  -25.3722  -31.3761   26.1436 C   0  0  0  0  0  0
  -27.0389  -30.2985   24.6290 C   0  0  0  0  0  0
  -27.6061  -32.4334   25.7512 C   0  0  0  0  0  0
  -27.5569  -37.1791   24.8471 C   0  0  0  0  0  0
  -21.4252  -29.3031   22.3626 N   0  0  0  0  0  0
  -26.4281  -37.3754   23.9409 N   0  0  0  0  0  0
  -24.7189  -31.0277   22.0928 N   0  0  0  0  0  0
  -23.4216  -28.8075   23.3013 O   0  0  0  0  0  0
  -28.2950  -26.1739   20.2792 O   0  0  0  0  0  0
  -26.5638  -34.8902   22.4647 O   0  0  0  0  0  0
  -23.5552  -32.1302   23.7096 O   0  0  0  0  0  0
  -27.9433  -22.1706   19.4510 C   0  0  0  0  0  0
  -28.6050  -23.2698   20.0918 C   0  0  0  0  0  0
  -29.1774  -20.4836   20.5628 C   0  0  0  0  0  0
  -30.8637  -16.7607   23.2303 C   0  0  0  0  0  0
  -28.3790  -24.8153   19.5389 C   0  0  0  0  0  0
  -29.2834  -18.9201   21.0881 C   0  0  0  0  0  0
  -29.6744  -16.1730   22.4389 C   0  0  0  0  0  0
  -29.9741  -17.5617   20.3670 C   0  0  0  0  0  0
  -28.2108  -20.8301   19.6866 N   0  0  0  0  0  0
  -29.6001  -22.8447   20.9513 N   0  0  0  0  0  0
  -29.8577  -21.5004   21.1939 N   0  0  0  0  0  0
  -29.9310  -16.0964   20.9845 N   0  0  0  0  0  0
  -30.4379  -11.6239   20.0494 H   0  0  0  0  0  0
  -31.4735  -12.7284   19.2064 H   0  0  0  0  0  0
  -29.8450  -11.7266   17.6093 H   0  0  0  0  0  0
  -29.6101  -13.4587   17.7138 H   0  0  0  0  0  0
  -27.9570  -11.2693   18.9993 H   0  0  0  0  0  0
  -27.3989  -12.4349   17.8229 H   0  0  0  0  0  0
  -27.6109  -14.2500   19.4318 H   0  0  0  0  0  0
  -28.7378  -12.2634   21.4659 H   0  0  0  0  0  0
  -28.2962  -13.9167   21.7676 H   0  0  0  0  0  0
  -25.2797   -9.5685   22.4769 H   0  0  0  0  0  0
  -23.9982   -7.4676   22.7519 H   0  0  0  0  0  0
  -21.0847   -8.8818   19.9001 H   0  0  0  0  0  0
  -22.3722  -10.9708   19.6173 H   0  0  0  0  0  0
  -21.2030   -7.6204   23.9770 H   0  0  0  0  0  0
  -21.1446   -6.0574   25.9099 H   0  0  0  0  0  0
  -22.0600   -2.7678   23.2836 H   0  0  0  0  0  0
  -22.4146  -11.9893   22.4762 H   0  0  0  0  0  0
  -21.1088  -13.1253   22.2650 H   0  0  0  0  0  0
  -24.6541  -15.8529   20.5483 H   0  0  0  0  0  0
  -26.2732  -15.6450   20.1150 H   0  0  0  0  0  0
  -26.7268  -32.5326   23.1009 H   0  0  0  0  0  0
  -25.0127  -33.9635   25.0376 H   0  0  0  0  0  0
  -22.7517  -31.2848   21.3749 H   0  0  0  0  0  0
  -23.3753  -35.9574   23.3304 H   0  0  0  0  0  0
  -24.3570  -36.8891   22.2055 H   0  0  0  0  0  0
  -23.7217  -37.6449   23.6669 H   0  0  0  0  0  0
  -26.1528  -31.4669   20.6089 H   0  0  0  0  0  0
  -26.8791  -30.7757   22.0256 H   0  0  0  0  0  0
  -28.1295  -28.7963   21.2589 H   0  0  0  0  0  0
  -25.8969  -25.8498   19.0057 H   0  0  0  0  0  0
  -23.9945  -27.2936   18.9783 H   0  0  0  0  0  0
  -23.8058  -30.5573   19.3951 H   0  0  0  0  0  0
  -22.7940  -29.2175   19.8494 H   0  0  0  0  0  0
  -25.1294  -36.1893   25.0808 H   0  0  0  0  0  0
  -21.0018  -28.3309   24.1380 H   0  0  0  0  0  0
  -20.5646  -26.2320   23.3639 H   0  0  0  0  0  0
  -21.6670  -26.7400   22.1259 H   0  0  0  0  0  0
  -19.6954  -25.6279   21.1248 H   0  0  0  0  0  0
  -19.6744  -27.3171   20.6742 H   0  0  0  0  0  0
  -17.4231  -26.6638   21.4002 H   0  0  0  0  0  0
  -18.0360  -26.0047   22.9015 H   0  0  0  0  0  0
  -19.7921  -30.7283   24.2257 H   0  0  0  0  0  0
  -17.4979  -31.6259   24.5110 H   0  0  0  0  0  0
  -15.5327  -30.2920   23.7639 H   0  0  0  0  0  0
  -15.8697  -28.0748   22.7093 H   0  0  0  0  0  0
  -24.5914  -30.7083   25.7778 H   0  0  0  0  0  0
  -24.8884  -32.2933   26.4803 H   0  0  0  0  0  0
  -25.8029  -30.8999   27.0255 H   0  0  0  0  0  0
  -26.3006  -29.6727   24.1275 H   0  0  0  0  0  0
  -27.3993  -29.7266   25.4852 H   0  0  0  0  0  0
  -27.8908  -30.4235   23.9606 H   0  0  0  0  0  0
  -27.2673  -33.3657   26.2027 H   0  0  0  0  0  0
  -28.3912  -32.6866   25.0380 H   0  0  0  0  0  0
  -28.0676  -31.8505   26.5490 H   0  0  0  0  0  0
  -28.2597  -38.0080   24.7507 H   0  0  0  0  0  0
  -28.1059  -36.2614   24.6313 H   0  0  0  0  0  0
  -27.2285  -37.1453   25.8875 H   0  0  0  0  0  0
  -20.9470  -29.8762   21.6815 H   0  0  0  0  0  0
  -26.0166  -38.2824   24.1423 H   0  0  0  0  0  0
  -27.1983  -22.3657   18.6931 H   0  0  0  0  0  0
  -31.7020  -17.0371   22.5890 H   0  0  0  0  0  0
  -31.2388  -16.0414   23.9596 H   0  0  0  0  0  0
  -30.5710  -17.6462   23.7960 H   0  0  0  0  0  0
  -27.5654  -24.7333   18.8279 H   0  0  0  0  0  0
  -29.2368  -24.9566   18.8797 H   0  0  0  0  0  0
  -28.2460  -18.6482   21.2792 H   0  0  0  0  0  0
  -29.7191  -19.0056   22.0831 H   0  0  0  0  0  0
  -28.7567  -16.7260   22.6417 H   0  0  0  0  0  0
  -29.5002  -15.1880   22.8671 H   0  0  0  0  0  0
  -29.5381  -17.4729   19.3720 H   0  0  0  0  0  0
  -31.0248  -17.7897   20.1918 H   0  0  0  0  0  0
  1 25  1  0  0  0
  1 30  2  0  0  0
  1 82  1  0  0  0
  2  3  1  0  0  0
  2 25  1  0  0  0
  2 83  1  0  0  0
  2 84  1  0  0  0
  3  4  1  0  0  0
  3 85  1  0  0  0
  3 86  1  0  0  0
  4  5  1  0  0  0
  4 87  1  0  0  0
  4 88  1  0  0  0
  5  6  1  0  0  0
  5 26  1  0  0  0
  5 89  1  0  0  0
  6 25  1  0  0  0
  6 90  1  0  0  0
  6 91  1  0  0  0
  7  8  2  0  0  0
  7 26  1  0  0  0
  7 29  1  0  0  0
  8  9  1  0  0  0
  8 22  1  0  0  0
  9 10  1  0  0  0
  9 27  2  0  0  0
 10 11  2  0  0  0
 10 15  1  0  0  0
 11 12  1  0  0  0
 11 92  1  0  0  0
 12 13  2  0  0  0
 12 93  1  0  0  0
 13 14  1  0  0  0
 13 31  1  0  0  0
 14 15  2  0  0  0
 14 94  1  0  0  0
 15 95  1  0  0  0
 16 17  2  0  0  0
 16 21  1  0  0  0
 16 31  1  0  0  0
 17 18  1  0  0  0
 17 96  1  0  0  0
 18 19  2  0  0  0
 18 97  1  0  0  0
 19 20  1  0  0  0
 19 24  1  0  0  0
 20 21  2  0  0  0
 20 98  1  0  0  0
 21 23  1  0  0  0
 22 28  1  0  0  0
 22 32  2  0  0  0
 26 27  1  0  0  0
 28 99  1  0  0  0
 28100  1  0  0  0
 29101  1  0  0  0
 29102  1  0  0  0
 33 34  1  0  0  0
 33 66  1  0  0  0
 33 70  2  0  0  0
 34 36  1  0  0  0
 34 59  1  0  0  0
 34103  1  0  0  0
 35 44  2  0  0  0
 35 45  1  0  0  0
 35 68  1  0  0  0
 36 56  1  0  0  0
 36104  1  0  0  0
 37 39  1  0  0  0
 37 47  1  0  0  0
 37 66  1  0  0  0
 37105  1  0  0  0
 38 43  2  0  0  0
 38 46  1  0  0  0
 38 47  1  0  0  0
 39 64  1  0  0  0
 39 67  2  0  0  0
 40 52  1  0  0  0
 40 53  2  0  0  0
 40 58  1  0  0  0
 41106  1  0  0  0
 41107  1  0  0  0
 41108  1  0  0  0
 41 48  1  0  0  0
 42 43  1  0  0  0
 42 66  1  0  0  0
 42109  1  0  0  0
 42110  1  0  0  0
 43 44  1  0  0  0
 44111  1  0  0  0
 45 46  2  0  0  0
 45112  1  0  0  0
 46113  1  0  0  0
 47114  1  0  0  0
 47115  1  0  0  0
 48 56  1  0  0  0
 48 65  1  0  0  0
 48116  1  0  0  0
 49 50  1  0  0  0
 49 53  1  0  0  0
 49 64  1  0  0  0
 49117  1  0  0  0
 50 51  1  0  0  0
 50118  1  0  0  0
 50119  1  0  0  0
 51 52  1  0  0  0
 51120  1  0  0  0
 51121  1  0  0  0
 52122  1  0  0  0
 52123  1  0  0  0
 53 54  1  0  0  0
 54 55  2  0  0  0
 54124  1  0  0  0
 55 57  1  0  0  0
 55125  1  0  0  0
 56 69  2  0  0  0
 57 58  2  0  0  0
 57126  1  0  0  0
 58127  1  0  0  0
 59 60  1  0  0  0
 59 61  1  0  0  0
 59 62  1  0  0  0
 60128  1  0  0  0
 60129  1  0  0  0
 60130  1  0  0  0
 61131  1  0  0  0
 61132  1  0  0  0
 61133  1  0  0  0
 62134  1  0  0  0
 62135  1  0  0  0
 62136  1  0  0  0
 63 65  1  0  0  0
 63137  1  0  0  0
 63138  1  0  0  0
 63139  1  0  0  0
 64140  1  0  0  0
 65141  1  0  0  0
 68 75  1  0  0  0
 71 72  2  0  0  0
 71 79  1  0  0  0
 71142  1  0  0  0
 72 75  1  0  0  0
 72 80  1  0  0  0
 73 76  1  0  0  0
 73 79  2  0  0  0
 73 81  1  0  0  0
 74 77  1  0  0  0
 74143  1  0  0  0
 74144  1  0  0  0
 74145  1  0  0  0
 75146  1  0  0  0
 75147  1  0  0  0
 76 78  1  0  0  0
 76148  1  0  0  0
 76149  1  0  0  0
 77 82  1  0  0  0
 77150  1  0  0  0
 77151  1  0  0  0
 78 82  1  0  0  0
 78152  1  0  0  0
 78153  1  0  0  0
 80 81  2  0  0  0
M  ISO  4   1 100  68 101  75 101  82 100
M  END
> <chiral flag>
0

> <version>
0

> <s_m_source_file>
/data/baiqing/PycharmProjects/Reinvent-master-3.2/result/LINK_invent/BTK/process_docking_weight1_custom_sum_contain_oxygen_bond_distance_aromatic_linkinvent_7_9_3/rearranged_h_0054.sdf

> <i_m_source_file_index>
87

> <r_mmod_Potential_Energy-OPLS-2005>
687.730590820312

> <r_mmod_Stretch_Energy-OPLS-2005>
251.299514770508

> <r_mmod_Bend_Energy-OPLS-2005>
297.798675537109

> <r_mmod_Torsional_Energy-OPLS-2005>
293.991729736328

> <r_mmod_Improper_Torsional_Energy-OPLS-2005>
9.61673259735107

> <r_mmod_Van_der_Waal_Energy-OPLS-2005>
145.982086181641

> <r_mmod_Electrostatic_Energy-OPLS-2005>
-252.48681640625

> <r_mmod_Solvation_Energy-OPLS-2005>
-233.223129272461

> <b_mmod_Minimization_Converged-OPLS-2005>
0

> <r_mmod_RMS_Derivative-OPLS-2005>
3.60338592529297

$$$$
87
                    3D
 Structure written by MMmdl.
160168  0  0  1  0            999 V2000
  -30.6042  -14.7441   20.4788 C   0  0  0  0  0  0
  -30.4367  -12.4610   19.4645 C   0  0  0  0  0  0
  -29.5071  -12.5056   18.2310 C   0  0  0  0  0  0
  -28.0342  -12.3309   18.6486 C   0  0  0  0  0  0
  -27.6423  -13.2287   19.8519 C   0  0  2  0  0  0
  -28.6898  -13.1543   20.9837 C   0  0  0  0  0  0
  -25.2522  -13.8192   20.5706 C   0  0  0  0  0  0
  -24.1818  -13.0443   20.9221 C   0  0  0  0  0  0
  -24.6396  -11.6916   20.8767 C   0  0  0  0  0  0
  -23.9072  -10.4289   21.0421 C   0  0  0  0  0  0
  -24.3620   -9.4203   21.9201 C   0  0  0  0  0  0
  -23.6292   -8.2248   22.0765 C   0  0  0  0  0  0
  -22.4281   -8.0286   21.3542 C   0  0  0  0  0  0
  -21.9920   -9.0263   20.4654 C   0  0  0  0  0  0
  -22.7252  -10.2139   20.3069 C   0  0  0  0  0  0
  -21.6848   -6.0736   22.5282 C   0  0  0  0  0  0
  -21.4007   -6.5647   23.8212 C   0  0  0  0  0  0
  -21.3653   -5.6798   24.9173 C   0  0  0  0  0  0
  -21.6041   -4.3058   24.7235 C   0  0  0  0  0  0
  -21.8818   -3.8154   23.4356 C   0  0  0  0  0  0
  -21.9190   -4.6961   22.3405 C   0  0  0  0  0  0
  -22.7834  -13.5230   21.1870 C   0  0  0  0  0  0
  -22.1666   -4.2152   21.0974 F   0  0  0  0  0  0
  -21.5624   -3.4538   25.7746 F   0  0  0  0  0  0
  -29.9863  -13.5161   20.3993 N   0  0  0  0  0  0
  -26.2941  -12.9396   20.3306 N   0  0  0  0  0  0
  -25.9330  -11.6539   20.5787 N   0  0  0  0  0  0
  -22.0470  -12.8222   22.0414 N   0  0  0  0  0  0
  -25.4197  -15.1911   20.4067 N   0  0  0  0  0  0
  -31.7954  -14.8538   20.1783 O   0  0  0  0  0  0
  -21.6640   -6.8889   21.4242 O   0  0  0  0  0  0
  -22.3523  -14.5541   20.6708 O   0  0  0  0  0  0
  -24.6331  -31.8503   23.2005 C   0  0  0  0  0  0
  -25.9150  -32.4706   23.8361 C   0  0  1  0  0  0
  -27.2119  -27.2508   20.1220 C   0  0  0  0  0  0
  -25.5939  -33.8513   24.2277 N   0  0  0  0  0  0
  -23.4288  -30.4768   21.5459 C   0  0  2  0  0  0
  -24.8727  -28.9268   20.1066 C   0  0  0  0  0  0
  -22.7511  -29.4572   22.4921 C   0  0  0  0  0  0
  -18.0300  -28.1319   22.8446 C   0  0  0  0  0  0
  -24.1492  -36.7300   23.2639 C   0  0  0  0  0  0
  -25.9777  -30.7590   21.3828 C   0  0  0  0  0  0
  -26.0458  -29.3841   20.7201 C   0  0  0  0  0  0
  -27.2193  -28.5595   20.7166 C   0  0  0  0  0  0
  -26.0156  -26.8672   19.4733 C   0  0  0  0  0  0
  -24.8636  -27.6778   19.4708 C   0  0  0  0  0  0
  -23.6448  -29.8166   20.1597 C   0  0  0  0  0  0
  -25.4107  -36.3050   24.0315 C   0  0  1  0  0  0
  -20.5909  -28.3638   23.1244 C   0  0  2  0  0  0
  -20.6777  -26.9353   22.5393 C   0  0  0  0  0  0
  -19.5765  -26.6332   21.5180 C   0  0  0  0  0  0
  -18.1943  -26.7867   22.1581 C   0  0  0  0  0  0
  -19.1555  -28.8796   23.2826 C   0  0  0  0  0  0
  -18.9472  -30.1410   23.8826 C   0  0  0  0  0  0
  -17.6469  -30.6531   24.0530 C   0  0  0  0  0  0
  -25.9025  -34.9403   23.5095 C   0  0  0  0  0  0
  -16.5361  -29.9016   23.6309 C   0  0  0  0  0  0
  -16.7287  -28.6442   23.0311 C   0  0  0  0  0  0
  -26.4514  -31.6518   25.0747 C   0  0  0  0  0  0
  -25.3755  -31.3641   26.1498 C   0  0  0  0  0  0
  -27.0353  -30.2909   24.6247 C   0  0  0  0  0  0
  -27.6060  -32.4291   25.7490 C   0  0  0  0  0  0
  -27.5580  -37.1795   24.8455 C   0  0  0  0  0  0
  -21.4220  -29.2993   22.3643 N   0  0  0  0  0  0
  -26.4289  -37.3748   23.9392 N   0  0  0  0  0  0
  -24.6988  -31.0483   22.0983 N   0  0  0  0  0  0
  -23.4200  -28.8083   23.3014 O   0  0  0  0  0  0
  -28.2972  -26.3406   20.1913 O   0  0  0  0  0  0
  -26.5618  -34.8858   22.4678 O   0  0  0  0  0  0
  -23.5478  -32.1371   23.7281 O   0  0  0  0  0  0
  -27.9316  -21.5409   22.2215 C   0  0  0  0  0  0
  -27.6658  -20.4506   23.0001 C   0  0  0  0  0  0
  -28.8469  -19.7483   21.2077 C   0  0  0  0  0  0
  -25.5254  -21.0619   24.1481 C   0  0  0  0  0  0
  -26.8742  -20.3314   24.2669 C   0  0  0  0  0  0
  -29.4004  -18.5947   20.2879 C   0  0  0  0  0  0
  -29.1143  -23.7406   20.4284 C   0  0  0  0  0  0
  -28.9612  -22.1588   20.0295 C   0  0  0  0  0  0
  -30.2209  -17.3330   20.9256 C   0  0  0  0  0  0
  -28.0421  -24.8685   19.9870 C   0  0  0  0  0  0
  -28.6446  -21.1316   21.1184 N   0  0  0  0  0  0
  -28.2582  -19.3938   22.3621 N   0  3  0  0  0  0
  -29.8185  -15.8649   20.7116 N   0  0  0  0  0  0
  -31.4740  -12.5990   19.1542 H   0  0  0  0  0  0
  -30.3968  -11.4840   19.9472 H   0  0  0  0  0  0
  -29.7870  -11.7263   17.5207 H   0  0  0  0  0  0
  -29.6299  -13.4556   17.7088 H   0  0  0  0  0  0
  -27.8902  -11.2819   18.9122 H   0  0  0  0  0  0
  -27.3732  -12.5249   17.8038 H   0  0  0  0  0  0
  -27.6392  -14.2514   19.4745 H   0  0  0  0  0  0
  -28.7316  -12.1529   21.4125 H   0  0  0  0  0  0
  -28.4264  -13.8239   21.8041 H   0  0  0  0  0  0
  -25.2759   -9.5682   22.4794 H   0  0  0  0  0  0
  -23.9991   -7.4638   22.7497 H   0  0  0  0  0  0
  -21.0853   -8.8786   19.8975 H   0  0  0  0  0  0
  -22.3705  -10.9681   19.6195 H   0  0  0  0  0  0
  -21.1999   -7.6159   23.9717 H   0  0  0  0  0  0
  -21.1475   -6.0528   25.9070 H   0  0  0  0  0  0
  -22.0601   -2.7619   23.2851 H   0  0  0  0  0  0
  -22.4078  -11.9852   22.4771 H   0  0  0  0  0  0
  -21.1093  -13.1264   22.2649 H   0  0  0  0  0  0
  -24.6384  -15.8327   20.4869 H   0  0  0  0  0  0
  -26.2456  -15.6221   20.0147 H   0  0  0  0  0  0
  -26.7207  -32.5339   23.1081 H   0  0  0  0  0  0
  -25.0064  -33.9637   25.0415 H   0  0  0  0  0  0
  -22.7238  -31.2982   21.4014 H   0  0  0  0  0  0
  -23.3712  -35.9665   23.3293 H   0  0  0  0  0  0
  -24.3608  -36.8974   22.2065 H   0  0  0  0  0  0
  -23.7297  -37.6511   23.6689 H   0  0  0  0  0  0
  -26.1247  -31.5187   20.6149 H   0  0  0  0  0  0
  -26.8516  -30.8054   22.0216 H   0  0  0  0  0  0
  -28.1175  -28.8988   21.2107 H   0  0  0  0  0  0
  -25.9350  -25.9137   18.9715 H   0  0  0  0  0  0
  -23.9688  -27.3218   18.9829 H   0  0  0  0  0  0
  -23.7704  -30.5965   19.4077 H   0  0  0  0  0  0
  -22.7581  -29.2575   19.8570 H   0  0  0  0  0  0
  -25.1286  -36.1906   25.0806 H   0  0  0  0  0  0
  -20.9972  -28.3227   24.1373 H   0  0  0  0  0  0
  -20.5640  -26.2260   23.3594 H   0  0  0  0  0  0
  -21.6653  -26.7358   22.1212 H   0  0  0  0  0  0
  -19.6938  -25.6243   21.1203 H   0  0  0  0  0  0
  -19.6708  -27.3123   20.6685 H   0  0  0  0  0  0
  -17.4220  -26.6580   21.3971 H   0  0  0  0  0  0
  -18.0355  -25.9995   22.8959 H   0  0  0  0  0  0
  -19.7961  -30.7235   24.2158 H   0  0  0  0  0  0
  -17.5036  -31.6205   24.5139 H   0  0  0  0  0  0
  -15.5362  -30.2888   23.7691 H   0  0  0  0  0  0
  -15.8683  -28.0770   22.7016 H   0  0  0  0  0  0
  -24.5963  -30.6913   25.7912 H   0  0  0  0  0  0
  -24.8864  -32.2760   26.4921 H   0  0  0  0  0  0
  -25.8142  -30.8896   27.0289 H   0  0  0  0  0  0
  -26.2935  -29.6604   24.1323 H   0  0  0  0  0  0
  -27.4072  -29.7224   25.4787 H   0  0  0  0  0  0
  -27.8797  -30.4159   23.9468 H   0  0  0  0  0  0
  -27.2695  -33.3652   26.1960 H   0  0  0  0  0  0
  -28.3907  -32.6766   25.0332 H   0  0  0  0  0  0
  -28.0662  -31.8479   26.5505 H   0  0  0  0  0  0
  -28.2566  -38.0117   24.7520 H   0  0  0  0  0  0
  -28.1119  -36.2649   24.6263 H   0  0  0  0  0  0
  -27.2303  -37.1454   25.8861 H   0  0  0  0  0  0
  -20.9409  -29.8789   21.6915 H   0  0  0  0  0  0
  -26.0154  -38.2812   24.1396 H   0  0  0  0  0  0
  -27.6241  -22.5676   22.3672 H   0  0  0  0  0  0
  -24.9507  -20.9659   25.0706 H   0  0  0  0  0  0
  -24.9213  -20.6521   23.3356 H   0  0  0  0  0  0
  -25.6620  -22.1257   23.9534 H   0  0  0  0  0  0
  -27.4522  -20.7568   25.0880 H   0  0  0  0  0  0
  -26.7117  -19.2815   24.5144 H   0  0  0  0  0  0
  -30.0238  -19.0930   19.5448 H   0  0  0  0  0  0
  -28.5330  -18.2231   19.7429 H   0  0  0  0  0  0
  -30.0591  -24.0575   19.9884 H   0  0  0  0  0  0
  -29.2928  -23.8301   21.4994 H   0  0  0  0  0  0
  -29.8942  -21.8231   19.5723 H   0  0  0  0  0  0
  -28.1977  -22.0500   19.2587 H   0  0  0  0  0  0
  -30.3039  -17.4804   22.0035 H   0  0  0  0  0  0
  -31.2497  -17.4323   20.5746 H   0  0  0  0  0  0
  -27.1131  -24.6111   20.4952 H   0  0  0  0  0  0
  -27.8498  -24.7266   18.9234 H   0  0  0  0  0  0
  -28.2103  -18.4384   22.6953 H   0  0  0  0  0  0
  -28.8458  -15.6530   20.8756 H   0  0  0  0  0  0
  1 25  1  0  0  0
  1 30  2  0  0  0
  1 83  1  0  0  0
  2  3  1  0  0  0
  2 25  1  0  0  0
  2 84  1  0  0  0
  2 85  1  0  0  0
  3  4  1  0  0  0
  3 86  1  0  0  0
  3 87  1  0  0  0
  4  5  1  0  0  0
  4 88  1  0  0  0
  4 89  1  0  0  0
  5  6  1  0  0  0
  5 26  1  0  0  0
  5 90  1  0  0  0
  6 25  1  0  0  0
  6 91  1  0  0  0
  6 92  1  0  0  0
  7  8  2  0  0  0
  7 26  1  0  0  0
  7 29  1  0  0  0
  8  9  1  0  0  0
  8 22  1  0  0  0
  9 10  1  0  0  0
  9 27  2  0  0  0
 10 11  2  0  0  0
 10 15  1  0  0  0
 11 12  1  0  0  0
 11 93  1  0  0  0
 12 13  2  0  0  0
 12 94  1  0  0  0
 13 14  1  0  0  0
 13 31  1  0  0  0
 14 15  2  0  0  0
 14 95  1  0  0  0
 15 96  1  0  0  0
 16 17  2  0  0  0
 16 21  1  0  0  0
 16 31  1  0  0  0
 17 18  1  0  0  0
 17 97  1  0  0  0
 18 19  2  0  0  0
 18 98  1  0  0  0
 19 20  1  0  0  0
 19 24  1  0  0  0
 20 21  2  0  0  0
 20 99  1  0  0  0
 21 23  1  0  0  0
 22 28  1  0  0  0
 22 32  2  0  0  0
 26 27  1  0  0  0
 28100  1  0  0  0
 28101  1  0  0  0
 29102  1  0  0  0
 29103  1  0  0  0
 33 34  1  0  0  0
 33 66  1  0  0  0
 33 70  2  0  0  0
 34 36  1  0  0  0
 34 59  1  0  0  0
 34104  1  0  0  0
 35 44  2  0  0  0
 35 45  1  0  0  0
 35 68  1  0  0  0
 36 56  1  0  0  0
 36105  1  0  0  0
 37 39  1  0  0  0
 37 47  1  0  0  0
 37 66  1  0  0  0
 37106  1  0  0  0
 38 43  2  0  0  0
 38 46  1  0  0  0
 38 47  1  0  0  0
 39 64  1  0  0  0
 39 67  2  0  0  0
 40 52  1  0  0  0
 40 53  2  0  0  0
 40 58  1  0  0  0
 41107  1  0  0  0
 41108  1  0  0  0
 41109  1  0  0  0
 41 48  1  0  0  0
 42 43  1  0  0  0
 42 66  1  0  0  0
 42110  1  0  0  0
 42111  1  0  0  0
 43 44  1  0  0  0
 44112  1  0  0  0
 45 46  2  0  0  0
 45113  1  0  0  0
 46114  1  0  0  0
 47115  1  0  0  0
 47116  1  0  0  0
 48 56  1  0  0  0
 48 65  1  0  0  0
 48117  1  0  0  0
 49 50  1  0  0  0
 49 53  1  0  0  0
 49 64  1  0  0  0
 49118  1  0  0  0
 50 51  1  0  0  0
 50119  1  0  0  0
 50120  1  0  0  0
 51 52  1  0  0  0
 51121  1  0  0  0
 51122  1  0  0  0
 52123  1  0  0  0
 52124  1  0  0  0
 53 54  1  0  0  0
 54 55  2  0  0  0
 54125  1  0  0  0
 55 57  1  0  0  0
 55126  1  0  0  0
 56 69  2  0  0  0
 57 58  2  0  0  0
 57127  1  0  0  0
 58128  1  0  0  0
 59 60  1  0  0  0
 59 61  1  0  0  0
 59 62  1  0  0  0
 60129  1  0  0  0
 60130  1  0  0  0
 60131  1  0  0  0
 61132  1  0  0  0
 61133  1  0  0  0
 61134  1  0  0  0
 62135  1  0  0  0
 62136  1  0  0  0
 62137  1  0  0  0
 63 65  1  0  0  0
 63138  1  0  0  0
 63139  1  0  0  0
 63140  1  0  0  0
 64141  1  0  0  0
 65142  1  0  0  0
 68 80  1  0  0  0
 71 72  2  0  0  0
 71 81  1  0  0  0
 71143  1  0  0  0
 72 75  1  0  0  0
 72 82  1  0  0  0
 73 76  1  0  0  0
 73 81  1  0  0  0
 73 82  2  0  0  0
 74 75  1  0  0  0
 74144  1  0  0  0
 74145  1  0  0  0
 74146  1  0  0  0
 75147  1  0  0  0
 75148  1  0  0  0
 76 79  1  0  0  0
 76149  1  0  0  0
 76150  1  0  0  0
 77 78  1  0  0  0
 77 80  1  0  0  0
 77151  1  0  0  0
 77152  1  0  0  0
 78 81  1  0  0  0
 78153  1  0  0  0
 78154  1  0  0  0
 79 83  1  0  0  0
 79155  1  0  0  0
 79156  1  0  0  0
 80157  1  0  0  0
 80158  1  0  0  0
 82159  1  0  0  0
 83160  1  0  0  0
M  CHG  1  82   1
M  ISO  4   1 100  68 101  80 101  83 100
M  END
> <chiral flag>
0

> <version>
0

> <s_m_source_file>
/data/baiqing/PycharmProjects/Reinvent-master-3.2/result/LINK_invent/BTK/process_docking_weight1_custom_sum_contain_oxygen_bond_distance_aromatic_linkinvent_7_9_3/rearranged_h_0054.sdf

> <i_m_source_file_index>
88

> <r_mmod_Potential_Energy-OPLS-2005>
149.966491699219

> <r_mmod_Stretch_Energy-OPLS-2005>
133.402206420898

> <r_mmod_Bend_Energy-OPLS-2005>
190.6640625

> <r_mmod_Torsional_Energy-OPLS-2005>
252.400344848633

> <r_mmod_Improper_Torsional_Energy-OPLS-2005>
5.36437940597534

> <r_mmod_Van_der_Waal_Energy-OPLS-2005>
116.376663208008

> <r_mmod_Electrostatic_Energy-OPLS-2005>
-204.256896972656

> <r_mmod_Solvation_Energy-OPLS-2005>
-433.93603515625

> <b_mmod_Minimization_Converged-OPLS-2005>
0

> <r_mmod_RMS_Derivative-OPLS-2005>
3.49694633483887

$$$$
88
                    3D
 Structure written by MMmdl.
164172  0  0  1  0            999 V2000
  -29.9908  -14.8026   20.7067 C   0  0  0  0  0  0
  -30.6004  -12.6401   19.3891 C   0  0  0  0  0  0
  -29.6969  -12.5453   18.1075 C   0  0  0  0  0  0
  -28.2023  -12.2998   18.4006 C   0  0  0  0  0  0
  -27.8585  -13.2006   19.5567 C   0  0  2  0  0  0
  -28.7645  -12.7546   20.7397 C   0  0  0  0  0  0
  -25.2248  -14.1590   20.1832 C   0  0  0  0  0  0
  -24.1546  -13.3027   21.0055 C   0  0  0  0  0  0
  -24.7442  -11.7919   21.2676 C   0  0  0  0  0  0
  -23.9544  -10.5031   21.2946 C   0  0  0  0  0  0
  -24.4081   -9.4068   22.0498 C   0  0  0  0  0  0
  -23.6713   -8.1990   22.1053 C   0  0  0  0  0  0
  -22.4657   -8.0448   21.3837 C   0  0  0  0  0  0
  -22.0481   -9.0964   20.5495 C   0  0  0  0  0  0
  -22.7822  -10.3001   20.5016 C   0  0  0  0  0  0
  -21.6941   -6.0793   22.5201 C   0  0  0  0  0  0
  -21.4065   -6.5670   23.8146 C   0  0  0  0  0  0
  -21.3666   -5.6821   24.9100 C   0  0  0  0  0  0
  -21.6011   -4.3095   24.7167 C   0  0  0  0  0  0
  -21.8800   -3.8182   23.4299 C   0  0  0  0  0  0
  -21.9209   -4.6998   22.3339 C   0  0  0  0  0  0
  -22.7343  -13.6707   21.2348 C   0  0  0  0  0  0
  -22.1684   -4.2179   21.0920 F   0  0  0  0  0  0
  -21.5586   -3.4581   25.7673 F   0  0  0  0  0  0
  -29.9224  -13.4511   20.4411 N   0  0  0  0  0  0
  -26.5654  -13.0830   19.9420 N   0  0  0  0  0  0
  -26.1799  -11.6610   20.6713 N   0  0  0  0  0  0
  -22.0368  -12.9181   22.0797 N   0  0  0  0  0  0
  -25.2923  -15.4891   19.8582 N   0  0  0  0  0  0
  -31.1035  -15.2725   20.3673 O   0  0  0  0  0  0
  -21.6933   -6.9055   21.4194 O   0  0  0  0  0  0
  -22.2494  -14.6441   20.6674 O   0  0  0  0  0  0
  -24.6576  -31.8286   23.1778 C   0  0  0  0  0  0
  -25.9305  -32.4584   23.8184 C   0  0  1  0  0  0
  -27.1253  -26.9206   20.2263 C   0  0  0  0  0  0
  -25.6009  -33.8408   24.2084 N   0  0  0  0  0  0
  -23.4638  -30.4514   21.5271 C   0  0  2  0  0  0
  -24.9010  -28.8490   20.1086 C   0  0  0  0  0  0
  -22.7602  -29.4484   22.4786 C   0  0  0  0  0  0
  -18.0315  -28.1383   22.8467 C   0  0  0  0  0  0
  -24.1513  -36.7213   23.2640 C   0  0  0  0  0  0
  -26.0320  -30.6332   21.4083 C   0  0  0  0  0  0
  -26.0846  -29.2250   20.7568 C   0  0  0  0  0  0
  -27.2016  -28.2804   20.7950 C   0  0  0  0  0  0
  -25.9407  -26.7100   19.4933 C   0  0  0  0  0  0
  -24.8557  -27.6135   19.4502 C   0  0  0  0  0  0
  -23.6967  -29.7842   20.1454 C   0  0  0  0  0  0
  -25.4145  -36.2960   24.0293 C   0  0  1  0  0  0
  -20.5930  -28.3743   23.1189 C   0  0  2  0  0  0
  -20.6794  -26.9428   22.5398 C   0  0  0  0  0  0
  -19.5775  -26.6367   21.5198 C   0  0  0  0  0  0
  -18.1958  -26.7921   22.1610 C   0  0  0  0  0  0
  -19.1572  -28.8875   23.2820 C   0  0  0  0  0  0
  -18.9491  -30.1462   23.8858 C   0  0  0  0  0  0
  -17.6488  -30.6584   24.0549 C   0  0  0  0  0  0
  -25.9114  -34.9349   23.5003 C   0  0  0  0  0  0
  -16.5376  -29.9075   23.6334 C   0  0  0  0  0  0
  -16.7297  -28.6485   23.0367 C   0  0  0  0  0  0
  -26.4562  -31.6510   25.0696 C   0  0  0  0  0  0
  -25.3713  -31.3768   26.1371 C   0  0  0  0  0  0
  -27.0428  -30.2863   24.6416 C   0  0  0  0  0  0
  -27.6057  -32.4305   25.7496 C   0  0  0  0  0  0
  -27.5584  -37.1753   24.8456 C   0  0  0  0  0  0
  -21.4279  -29.3054   22.3535 N   0  0  0  0  0  0
  -26.4281  -37.3702   23.9417 N   0  0  0  0  0  0
  -24.7392  -30.9985   22.0906 N   0  0  0  0  0  0
  -23.4181  -28.8028   23.2988 O   0  0  0  0  0  0
  -28.0353  -25.7527   20.3092 O   0  0  0  0  0  0
  -26.5708  -34.8880   22.4588 O   0  0  0  0  0  0
  -23.5669  -32.1271   23.6912 O   0  0  0  0  0  0
  -28.0842  -22.6727   20.4581 C   0  0  0  0  0  0
  -28.4561  -20.7936   19.3573 C   0  0  0  0  0  0
  -28.7133  -19.8956   18.1930 C   0  0  0  0  0  0
  -25.3472  -14.2932   23.1560 C   0  0  0  0  0  0
  -24.7218  -12.2934   19.0229 C   0  0  0  0  0  0
  -26.7953  -12.4678   23.1644 C   0  0  0  0  0  0
  -27.4927  -24.2723   20.7622 C   0  0  0  0  0  0
  -28.4739  -18.7519   21.2625 C   0  0  0  0  0  0
  -28.5858  -17.1336   20.5238 C   0  0  0  0  0  0
  -27.4255  -14.9662   21.9363 C   0  0  0  0  0  0
  -26.2332  -13.5098   22.0762 C   0  0  0  0  0  0
  -28.3115  -22.1508   19.1978 N   0  0  0  0  0  0
  -28.0988  -21.5567   21.3302 N   0  0  0  0  0  0
  -28.3459  -20.2965   20.6163 N   0  0  0  0  0  0
  -28.7461  -15.5534   21.0758 N   0  0  0  0  0  0
  -31.5700  -13.0715   19.1386 H   0  0  0  0  0  0
  -30.8222  -11.6390   19.7628 H   0  0  0  0  0  0
  -30.0726  -11.7723   17.4359 H   0  0  0  0  0  0
  -29.7806  -13.4793   17.5489 H   0  0  0  0  0  0
  -28.0331  -11.2505   18.6456 H   0  0  0  0  0  0
  -27.5866  -12.5190   17.5265 H   0  0  0  0  0  0
  -27.9449  -14.2218   19.1878 H   0  0  0  0  0  0
  -28.8846  -11.6708   20.7699 H   0  0  0  0  0  0
  -28.6188  -13.0011   21.7667 H   0  0  0  0  0  0
  -25.3251   -9.5019   22.6163 H   0  0  0  0  0  0
  -24.0464   -7.3914   22.7139 H   0  0  0  0  0  0
  -21.1435   -8.9929   19.9666 H   0  0  0  0  0  0
  -22.4037  -11.0916   19.8734 H   0  0  0  0  0  0
  -21.2114   -7.6192   23.9651 H   0  0  0  0  0  0
  -21.1446   -6.0552   25.8983 H   0  0  0  0  0  0
  -22.0551   -2.7652   23.2773 H   0  0  0  0  0  0
  -22.4546  -12.1265   22.5456 H   0  0  0  0  0  0
  -21.0711  -13.1371   22.2683 H   0  0  0  0  0  0
  -24.5200  -16.1262   20.0105 H   0  0  0  0  0  0
  -26.0618  -15.9006   19.3466 H   0  0  0  0  0  0
  -26.7345  -32.5093   23.0863 H   0  0  0  0  0  0
  -25.0121  -33.9478   25.0206 H   0  0  0  0  0  0
  -22.7763  -31.2849   21.3694 H   0  0  0  0  0  0
  -23.3789  -35.9528   23.3238 H   0  0  0  0  0  0
  -24.3604  -36.8930   22.2071 H   0  0  0  0  0  0
  -23.7257  -37.6375   23.6741 H   0  0  0  0  0  0
  -26.2150  -31.3698   20.6259 H   0  0  0  0  0  0
  -26.8952  -30.6814   22.0601 H   0  0  0  0  0  0
  -28.0869  -28.5527   21.3517 H   0  0  0  0  0  0
  -25.8077  -25.7698   18.9791 H   0  0  0  0  0  0
  -23.9606  -27.3260   18.9143 H   0  0  0  0  0  0
  -23.8609  -30.5623   19.3988 H   0  0  0  0  0  0
  -22.8003  -29.2526   19.8199 H   0  0  0  0  0  0
  -25.1340  -36.1742   25.0781 H   0  0  0  0  0  0
  -21.0022  -28.3361   24.1309 H   0  0  0  0  0  0
  -20.5665  -26.2359   23.3636 H   0  0  0  0  0  0
  -21.6666  -26.7400   22.1215 H   0  0  0  0  0  0
  -19.6950  -25.6268   21.1253 H   0  0  0  0  0  0
  -19.6719  -27.3152   20.6714 H   0  0  0  0  0  0
  -17.4223  -26.6650   21.4018 H   0  0  0  0  0  0
  -18.0373  -26.0058   22.9008 H   0  0  0  0  0  0
  -19.7972  -30.7280   24.2216 H   0  0  0  0  0  0
  -17.5052  -31.6269   24.5152 H   0  0  0  0  0  0
  -15.5378  -30.2974   23.7680 H   0  0  0  0  0  0
  -15.8692  -28.0786   22.7119 H   0  0  0  0  0  0
  -24.5929  -30.7048   25.7732 H   0  0  0  0  0  0
  -24.8855  -32.2970   26.4637 H   0  0  0  0  0  0
  -25.7986  -30.9080   27.0248 H   0  0  0  0  0  0
  -26.3072  -29.6552   24.1414 H   0  0  0  0  0  0
  -27.3942  -29.7200   25.5056 H   0  0  0  0  0  0
  -27.9040  -30.4017   23.9829 H   0  0  0  0  0  0
  -27.2627  -33.3667   26.1916 H   0  0  0  0  0  0
  -28.3962  -32.6759   25.0389 H   0  0  0  0  0  0
  -28.0613  -31.8523   26.5548 H   0  0  0  0  0  0
  -28.2537  -38.0106   24.7544 H   0  0  0  0  0  0
  -28.1138  -36.2633   24.6222 H   0  0  0  0  0  0
  -27.2308  -37.1320   25.8855 H   0  0  0  0  0  0
  -20.9492  -29.8770   21.6706 H   0  0  0  0  0  0
  -26.0122  -38.2752   24.1446 H   0  0  0  0  0  0
  -28.5374  -20.4275   17.2549 H   0  0  0  0  0  0
  -28.0486  -19.0322   18.2124 H   0  0  0  0  0  0
  -29.7491  -19.5556   18.2050 H   0  0  0  0  0  0
  -24.5561  -13.6822   23.5935 H   0  0  0  0  0  0
  -24.8669  -15.1792   22.7394 H   0  0  0  0  0  0
  -25.9400  -14.6595   23.9964 H   0  0  0  0  0  0
  -23.6618  -12.5009   18.8351 H   0  0  0  0  0  0
  -25.1402  -12.7190   18.0999 H   0  0  0  0  0  0
  -24.8097  -11.2186   18.8044 H   0  0  0  0  0  0
  -25.9959  -11.9529   23.6998 H   0  0  0  0  0  0
  -27.4156  -12.9529   23.9170 H   0  0  0  0  0  0
  -27.4034  -11.6548   22.7685 H   0  0  0  0  0  0
  -27.4063  -24.3475   21.8466 H   0  0  0  0  0  0
  -26.4551  -24.2276   20.4357 H   0  0  0  0  0  0
  -29.3260  -18.8065   21.9405 H   0  0  0  0  0  0
  -27.6139  -18.6785   21.9314 H   0  0  0  0  0  0
  -29.4103  -17.2358   19.8182 H   0  0  0  0  0  0
  -27.7104  -17.0805   19.8770 H   0  0  0  0  0  0
  -26.7955  -15.8489   21.8663 H   0  0  0  0  0  0
  -27.8409  -15.0587   22.9416 H   0  0  0  0  0  0
  1 25  1  0  0  0
  1 30  2  0  0  0
  1 85  1  0  0  0
  2  3  1  0  0  0
  2 25  1  0  0  0
  2 86  1  0  0  0
  2 87  1  0  0  0
  3  4  1  0  0  0
  3 88  1  0  0  0
  3 89  1  0  0  0
  4  5  1  0  0  0
  4 90  1  0  0  0
  4 91  1  0  0  0
  5  6  1  0  0  0
  5 26  1  0  0  0
  5 92  1  0  0  0
  6 25  1  0  0  0
  6 93  1  0  0  0
  6 94  1  0  0  0
  7  8  2  0  0  0
  7 26  1  0  0  0
  7 29  1  0  0  0
  8  9  1  0  0  0
  8 22  1  0  0  0
  9 10  1  0  0  0
  9 27  2  0  0  0
 10 11  2  0  0  0
 10 15  1  0  0  0
 11 12  1  0  0  0
 11 95  1  0  0  0
 12 13  2  0  0  0
 12 96  1  0  0  0
 13 14  1  0  0  0
 13 31  1  0  0  0
 14 15  2  0  0  0
 14 97  1  0  0  0
 15 98  1  0  0  0
 16 17  2  0  0  0
 16 21  1  0  0  0
 16 31  1  0  0  0
 17 18  1  0  0  0
 17 99  1  0  0  0
 18 19  2  0  0  0
 18100  1  0  0  0
 19 20  1  0  0  0
 19 24  1  0  0  0
 20 21  2  0  0  0
 20101  1  0  0  0
 21 23  1  0  0  0
 22 28  1  0  0  0
 22 32  2  0  0  0
 26 27  1  0  0  0
 28102  1  0  0  0
 28103  1  0  0  0
 29104  1  0  0  0
 29105  1  0  0  0
 33 34  1  0  0  0
 33 66  1  0  0  0
 33 70  2  0  0  0
 34 36  1  0  0  0
 34 59  1  0  0  0
 34106  1  0  0  0
 35 44  2  0  0  0
 35 45  1  0  0  0
 35 68  1  0  0  0
 36 56  1  0  0  0
 36107  1  0  0  0
 37 39  1  0  0  0
 37 47  1  0  0  0
 37 66  1  0  0  0
 37108  1  0  0  0
 38 43  2  0  0  0
 38 46  1  0  0  0
 38 47  1  0  0  0
 39 64  1  0  0  0
 39 67  2  0  0  0
 40 52  1  0  0  0
 40 53  2  0  0  0
 40 58  1  0  0  0
 41109  1  0  0  0
 41110  1  0  0  0
 41111  1  0  0  0
 41 48  1  0  0  0
 42 43  1  0  0  0
 42 66  1  0  0  0
 42112  1  0  0  0
 42113  1  0  0  0
 43 44  1  0  0  0
 44114  1  0  0  0
 45 46  2  0  0  0
 45115  1  0  0  0
 46116  1  0  0  0
 47117  1  0  0  0
 47118  1  0  0  0
 48 56  1  0  0  0
 48 65  1  0  0  0
 48119  1  0  0  0
 49 50  1  0  0  0
 49 53  1  0  0  0
 49 64  1  0  0  0
 49120  1  0  0  0
 50 51  1  0  0  0
 50121  1  0  0  0
 50122  1  0  0  0
 51 52  1  0  0  0
 51123  1  0  0  0
 51124  1  0  0  0
 52125  1  0  0  0
 52126  1  0  0  0
 53 54  1  0  0  0
 54 55  2  0  0  0
 54127  1  0  0  0
 55 57  1  0  0  0
 55128  1  0  0  0
 56 69  2  0  0  0
 57 58  2  0  0  0
 57129  1  0  0  0
 58130  1  0  0  0
 59 60  1  0  0  0
 59 61  1  0  0  0
 59 62  1  0  0  0
 60131  1  0  0  0
 60132  1  0  0  0
 60133  1  0  0  0
 61134  1  0  0  0
 61135  1  0  0  0
 61136  1  0  0  0
 62137  1  0  0  0
 62138  1  0  0  0
 62139  1  0  0  0
 63 65  1  0  0  0
 63140  1  0  0  0
 63141  1  0  0  0
 63142  1  0  0  0
 64143  1  0  0  0
 65144  1  0  0  0
 68 77  1  0  0  0
 71 77  1  0  0  0
 71 82  1  0  0  0
 71 83  2  0  0  0
 72 73  1  0  0  0
 72 82  2  0  0  0
 72 84  1  0  0  0
 73145  1  0  0  0
 73146  1  0  0  0
 73147  1  0  0  0
 74148  1  0  0  0
 74149  1  0  0  0
 74150  1  0  0  0
 74 81  1  0  0  0
 75 81  1  0  0  0
 75151  1  0  0  0
 75152  1  0  0  0
 75153  1  0  0  0
 76 81  1  0  0  0
 76154  1  0  0  0
 76155  1  0  0  0
 76156  1  0  0  0
 77157  1  0  0  0
 77158  1  0  0  0
 78 79  1  0  0  0
 78 84  1  0  0  0
 78159  1  0  0  0
 78160  1  0  0  0
 79 85  1  0  0  0
 79161  1  0  0  0
 79162  1  0  0  0
 80 81  1  0  0  0
 80 85  1  0  0  0
 80163  1  0  0  0
 80164  1  0  0  0
 83 84  1  0  0  0
M  ISO  4   1 100  68 101  77 101  85 100
M  END
> <chiral flag>
0

> <version>
0

> <s_m_source_file>
/data/baiqing/PycharmProjects/Reinvent-master-3.2/result/LINK_invent/BTK/process_docking_weight1_custom_sum_contain_oxygen_bond_distance_aromatic_linkinvent_7_9_3/rearranged_h_0054.sdf

> <i_m_source_file_index>
89

> <r_mmod_Potential_Energy-OPLS-2005>
9772.564453125

> <r_mmod_Stretch_Energy-OPLS-2005>
6399.70849609375

> <r_mmod_Bend_Energy-OPLS-2005>
674.700256347656

> <r_mmod_Torsional_Energy-OPLS-2005>
359.775512695312

> <r_mmod_Improper_Torsional_Energy-OPLS-2005>
23.1266460418701

> <r_mmod_Van_der_Waal_Energy-OPLS-2005>
2225.14965820312

> <r_mmod_Electrostatic_Energy-OPLS-2005>
-298.367736816406

> <r_mmod_Solvation_Energy-OPLS-2005>
-221.183303833008

> <b_mmod_Minimization_Converged-OPLS-2005>
0

> <r_mmod_RMS_Derivative-OPLS-2005>
6.76234006881714

$$$$
89
                    3D
 Structure written by MMmdl.
160167  0  0  1  0            999 V2000
  -30.7120  -14.4732   20.6031 C   0  0  0  0  0  0
  -30.4241  -12.3117   19.4337 C   0  0  0  0  0  0
  -29.5047  -12.5193   18.2146 C   0  0  0  0  0  0
  -28.0251  -12.3736   18.6212 C   0  0  0  0  0  0
  -27.6633  -13.2095   19.8784 C   0  0  2  0  0  0
  -28.7030  -12.9893   21.0018 C   0  0  0  0  0  0
  -25.2581  -13.8138   20.5669 C   0  0  0  0  0  0
  -24.1852  -13.0410   20.9230 C   0  0  0  0  0  0
  -24.6409  -11.6889   20.8773 C   0  0  0  0  0  0
  -23.9046  -10.4294   21.0432 C   0  0  0  0  0  0
  -24.3587   -9.4200   21.9203 C   0  0  0  0  0  0
  -23.6291   -8.2226   22.0739 C   0  0  0  0  0  0
  -22.4282   -8.0267   21.3520 C   0  0  0  0  0  0
  -21.9913   -9.0250   20.4633 C   0  0  0  0  0  0
  -22.7227  -10.2141   20.3066 C   0  0  0  0  0  0
  -21.6849   -6.0733   22.5266 C   0  0  0  0  0  0
  -21.4006   -6.5635   23.8206 C   0  0  0  0  0  0
  -21.3678   -5.6781   24.9172 C   0  0  0  0  0  0
  -21.6069   -4.3048   24.7220 C   0  0  0  0  0  0
  -21.8813   -3.8138   23.4334 C   0  0  0  0  0  0
  -21.9190   -4.6960   22.3397 C   0  0  0  0  0  0
  -22.7874  -13.5219   21.1888 C   0  0  0  0  0  0
  -22.1653   -4.2145   21.0986 F   0  0  0  0  0  0
  -21.5646   -3.4541   25.7726 F   0  0  0  0  0  0
  -30.0385  -13.2961   20.4561 N   0  0  0  0  0  0
  -26.3034  -12.9318   20.3369 N   0  0  0  0  0  0
  -25.9337  -11.6470   20.5776 N   0  0  0  0  0  0
  -22.0482  -12.8229   22.0418 N   0  0  0  0  0  0
  -25.4244  -15.1864   20.3980 N   0  0  0  0  0  0
  -31.7995  -14.6936   20.0604 O   0  0  0  0  0  0
  -21.6635   -6.8872   21.4222 O   0  0  0  0  0  0
  -22.3584  -14.5534   20.6722 O   0  0  0  0  0  0
  -24.6145  -31.8667   23.2083 C   0  0  0  0  0  0
  -25.9046  -32.4815   23.8362 C   0  0  1  0  0  0
  -27.2298  -27.4201   20.0862 C   0  0  0  0  0  0
  -25.5886  -33.8612   24.2294 N   0  0  0  0  0  0
  -23.4021  -30.4914   21.5494 C   0  0  2  0  0  0
  -24.8442  -28.9544   20.1119 C   0  0  0  0  0  0
  -22.7403  -29.4661   22.4983 C   0  0  0  0  0  0
  -18.0268  -28.1391   22.8511 C   0  0  0  0  0  0
  -24.1477  -36.7317   23.2640 C   0  0  0  0  0  0
  -25.9324  -30.8248   21.3644 C   0  0  0  0  0  0
  -26.0042  -29.4585   20.7106 C   0  0  0  0  0  0
  -27.1950  -28.6962   20.6981 C   0  0  0  0  0  0
  -26.0454  -26.9288   19.4890 C   0  0  0  0  0  0
  -24.8602  -27.6881   19.5014 C   0  0  0  0  0  0
  -23.6080  -29.8240   20.1635 C   0  0  0  0  0  0
  -25.4103  -36.3104   24.0333 C   0  0  1  0  0  0
  -20.5862  -28.3667   23.1325 C   0  0  2  0  0  0
  -20.6761  -26.9408   22.5424 C   0  0  0  0  0  0
  -19.5731  -26.6389   21.5232 C   0  0  0  0  0  0
  -18.1916  -26.7926   22.1657 C   0  0  0  0  0  0
  -19.1520  -28.8841   23.2915 C   0  0  0  0  0  0
  -18.9453  -30.1447   23.8914 C   0  0  0  0  0  0
  -17.6459  -30.6601   24.0570 C   0  0  0  0  0  0
  -25.9036  -34.9480   23.5115 C   0  0  0  0  0  0
  -16.5344  -29.9115   23.6319 C   0  0  0  0  0  0
  -16.7262  -28.6530   23.0346 C   0  0  0  0  0  0
  -26.4461  -31.6598   25.0697 C   0  0  0  0  0  0
  -25.3736  -31.3733   26.1457 C   0  0  0  0  0  0
  -27.0268  -30.3019   24.6105 C   0  0  0  0  0  0
  -27.6022  -32.4330   25.7453 C   0  0  0  0  0  0
  -27.5579  -37.1808   24.8464 C   0  0  0  0  0  0
  -21.4134  -29.3027   22.3722 N   0  0  0  0  0  0
  -26.4283  -37.3800   23.9412 N   0  0  0  0  0  0
  -24.6683  -31.0758   22.0989 N   0  0  0  0  0  0
  -23.4178  -28.8212   23.3027 O   0  0  0  0  0  0
  -28.4158  -26.7083   20.1159 O   0  0  0  0  0  0
  -26.5631  -34.8934   22.4689 O   0  0  0  0  0  0
  -23.5337  -32.1424   23.7481 O   0  0  0  0  0  0
  -28.2775  -24.2141   20.1980 C   0  0  0  0  0  0
  -30.2468  -15.5964   22.7114 C   0  0  0  0  0  0
  -31.0680  -20.7130   19.5350 C   0  0  0  0  0  0
  -29.3311  -23.0832   20.1754 C   0  0  0  0  0  0
  -28.5758  -25.4858   19.3666 C   0  0  0  0  0  0
  -30.0612  -17.9939   20.7387 C   0  0  0  0  0  0
  -29.3894  -16.5917   20.5850 C   0  0  0  0  0  0
  -28.7915  -21.6273   19.9852 C   0  0  0  0  0  0
  -29.2259  -19.1584   20.1051 C   0  0  0  0  0  0
  -30.0561  -15.4562   21.2670 N   0  0  0  0  0  0
  -29.7913  -20.5397   20.2783 N   0  3  1  0  0  0
  -27.2402  -24.1032   20.8593 O   0  0  0  0  0  0
  -31.4726  -12.4050   19.1425 H   0  0  0  0  0  0
  -30.3105  -11.3007   19.8302 H   0  0  0  0  0  0
  -29.7522  -11.8010   17.4302 H   0  0  0  0  0  0
  -29.6750  -13.5100   17.7920 H   0  0  0  0  0  0
  -27.8461  -11.3178   18.8201 H   0  0  0  0  0  0
  -27.3773  -12.6394   17.7841 H   0  0  0  0  0  0
  -27.7038  -14.2575   19.5826 H   0  0  0  0  0  0
  -28.6796  -11.9557   21.3527 H   0  0  0  0  0  0
  -28.4567  -13.5930   21.8751 H   0  0  0  0  0  0
  -25.2723   -9.5696   22.4773 H   0  0  0  0  0  0
  -24.0024   -7.4614   22.7443 H   0  0  0  0  0  0
  -21.0857   -8.8764   19.8950 H   0  0  0  0  0  0
  -22.3690  -10.9667   19.6186 H   0  0  0  0  0  0
  -21.1968   -7.6125   23.9710 H   0  0  0  0  0  0
  -21.1529   -6.0504   25.9073 H   0  0  0  0  0  0
  -22.0581   -2.7596   23.2823 H   0  0  0  0  0  0
  -22.4044  -11.9914   22.4893 H   0  0  0  0  0  0
  -21.1067  -13.1258   22.2520 H   0  0  0  0  0  0
  -24.6476  -15.8319   20.4837 H   0  0  0  0  0  0
  -26.2585  -15.6205   20.0253 H   0  0  0  0  0  0
  -26.7101  -32.5504   23.1105 H   0  0  0  0  0  0
  -24.9959  -33.9750   25.0383 H   0  0  0  0  0  0
  -22.6915  -31.3086   21.4123 H   0  0  0  0  0  0
  -23.3737  -35.9651   23.3303 H   0  0  0  0  0  0
  -24.3571  -36.8937   22.2057 H   0  0  0  0  0  0
  -23.7227  -37.6518   23.6657 H   0  0  0  0  0  0
  -26.0519  -31.5907   20.5964 H   0  0  0  0  0  0
  -26.8191  -30.8721   21.9853 H   0  0  0  0  0  0
  -28.0917  -29.0838   21.1626 H   0  0  0  0  0  0
  -26.0071  -25.9555   19.0237 H   0  0  0  0  0  0
  -23.9661  -27.2914   19.0406 H   0  0  0  0  0  0
  -23.7163  -30.5994   19.4037 H   0  0  0  0  0  0
  -22.7297  -29.2460   19.8692 H   0  0  0  0  0  0
  -25.1279  -36.1968   25.0828 H   0  0  0  0  0  0
  -20.9968  -28.3240   24.1437 H   0  0  0  0  0  0
  -20.5702  -26.2270   23.3610 H   0  0  0  0  0  0
  -21.6623  -26.7481   22.1179 H   0  0  0  0  0  0
  -19.6892  -25.6311   21.1229 H   0  0  0  0  0  0
  -19.6654  -27.3219   20.6779 H   0  0  0  0  0  0
  -17.4184  -26.6677   21.4064 H   0  0  0  0  0  0
  -18.0325  -26.0070   22.9059 H   0  0  0  0  0  0
  -19.7932  -30.7259   24.2285 H   0  0  0  0  0  0
  -17.5023  -31.6277   24.5177 H   0  0  0  0  0  0
  -15.5352  -30.3035   23.7618 H   0  0  0  0  0  0
  -15.8662  -28.0865   22.7032 H   0  0  0  0  0  0
  -24.5869  -30.7122   25.7804 H   0  0  0  0  0  0
  -24.8979  -32.2908   26.4928 H   0  0  0  0  0  0
  -25.8088  -30.8872   27.0199 H   0  0  0  0  0  0
  -26.2806  -29.6797   24.1153 H   0  0  0  0  0  0
  -27.3985  -29.7239   25.4575 H   0  0  0  0  0  0
  -27.8666  -30.4276   23.9271 H   0  0  0  0  0  0
  -27.2612  -33.3607   26.2057 H   0  0  0  0  0  0
  -28.3812  -32.6948   25.0283 H   0  0  0  0  0  0
  -28.0719  -31.8461   26.5354 H   0  0  0  0  0  0
  -28.2604  -38.0100   24.7513 H   0  0  0  0  0  0
  -28.1061  -36.2634   24.6279 H   0  0  0  0  0  0
  -27.2302  -37.1456   25.8869 H   0  0  0  0  0  0
  -20.9296  -29.8721   21.6920 H   0  0  0  0  0  0
  -26.0174  -38.2868   24.1434 H   0  0  0  0  0  0
  -31.1047  -16.2365   22.9235 H   0  0  0  0  0  0
  -30.4305  -14.6311   23.1886 H   0  0  0  0  0  0
  -29.3628  -16.0313   23.1770 H   0  0  0  0  0  0
  -31.5074  -21.6972   19.6969 H   0  0  0  0  0  0
  -30.9274  -20.5790   18.4608 H   0  0  0  0  0  0
  -31.8198  -19.9990   19.8636 H   0  0  0  0  0  0
  -29.8699  -23.1519   21.1212 H   0  0  0  0  0  0
  -30.0516  -23.3179   19.3920 H   0  0  0  0  0  0
  -27.9914  -25.4898   18.4467 H   0  0  0  0  0  0
  -29.6186  -25.4468   19.0514 H   0  0  0  0  0  0
  -31.0548  -17.9507   20.2929 H   0  0  0  0  0  0
  -30.2110  -18.2120   21.7955 H   0  0  0  0  0  0
  -29.2967  -16.3602   19.5208 H   0  0  0  0  0  0
  -28.3675  -16.6373   20.9618 H   0  0  0  0  0  0
  -28.4300  -21.5131   18.9613 H   0  0  0  0  0  0
  -27.9211  -21.4768   20.6288 H   0  0  0  0  0  0
  -28.2288  -19.1364   20.5494 H   0  0  0  0  0  0
  -29.0783  -18.9695   19.0402 H   0  0  0  0  0  0
  -30.0156  -20.6309   21.2597 H   0  0  0  0  0  0
  1 25  1  0  0  0
  1 30  2  0  0  0
  1 80  1  0  0  0
  2  3  1  0  0  0
  2 25  1  0  0  0
  2 83  1  0  0  0
  2 84  1  0  0  0
  3  4  1  0  0  0
  3 85  1  0  0  0
  3 86  1  0  0  0
  4  5  1  0  0  0
  4 87  1  0  0  0
  4 88  1  0  0  0
  5  6  1  0  0  0
  5 26  1  0  0  0
  5 89  1  0  0  0
  6 25  1  0  0  0
  6 90  1  0  0  0
  6 91  1  0  0  0
  7  8  2  0  0  0
  7 26  1  0  0  0
  7 29  1  0  0  0
  8  9  1  0  0  0
  8 22  1  0  0  0
  9 10  1  0  0  0
  9 27  2  0  0  0
 10 11  2  0  0  0
 10 15  1  0  0  0
 11 12  1  0  0  0
 11 92  1  0  0  0
 12 13  2  0  0  0
 12 93  1  0  0  0
 13 14  1  0  0  0
 13 31  1  0  0  0
 14 15  2  0  0  0
 14 94  1  0  0  0
 15 95  1  0  0  0
 16 17  2  0  0  0
 16 21  1  0  0  0
 16 31  1  0  0  0
 17 18  1  0  0  0
 17 96  1  0  0  0
 18 19  2  0  0  0
 18 97  1  0  0  0
 19 20  1  0  0  0
 19 24  1  0  0  0
 20 21  2  0  0  0
 20 98  1  0  0  0
 21 23  1  0  0  0
 22 28  1  0  0  0
 22 32  2  0  0  0
 26 27  1  0  0  0
 28 99  1  0  0  0
 28100  1  0  0  0
 29101  1  0  0  0
 29102  1  0  0  0
 33 34  1  0  0  0
 33 66  1  0  0  0
 33 70  2  0  0  0
 34 36  1  0  0  0
 34 59  1  0  0  0
 34103  1  0  0  0
 35 44  2  0  0  0
 35 45  1  0  0  0
 35 68  1  0  0  0
 36 56  1  0  0  0
 36104  1  0  0  0
 37 39  1  0  0  0
 37 47  1  0  0  0
 37 66  1  0  0  0
 37105  1  0  0  0
 38 43  2  0  0  0
 38 46  1  0  0  0
 38 47  1  0  0  0
 39 64  1  0  0  0
 39 67  2  0  0  0
 40 52  1  0  0  0
 40 53  2  0  0  0
 40 58  1  0  0  0
 41106  1  0  0  0
 41107  1  0  0  0
 41108  1  0  0  0
 41 48  1  0  0  0
 42 43  1  0  0  0
 42 66  1  0  0  0
 42109  1  0  0  0
 42110  1  0  0  0
 43 44  1  0  0  0
 44111  1  0  0  0
 45 46  2  0  0  0
 45112  1  0  0  0
 46113  1  0  0  0
 47114  1  0  0  0
 47115  1  0  0  0
 48 56  1  0  0  0
 48 65  1  0  0  0
 48116  1  0  0  0
 49 50  1  0  0  0
 49 53  1  0  0  0
 49 64  1  0  0  0
 49117  1  0  0  0
 50 51  1  0  0  0
 50118  1  0  0  0
 50119  1  0  0  0
 51 52  1  0  0  0
 51120  1  0  0  0
 51121  1  0  0  0
 52122  1  0  0  0
 52123  1  0  0  0
 53 54  1  0  0  0
 54 55  2  0  0  0
 54124  1  0  0  0
 55 57  1  0  0  0
 55125  1  0  0  0
 56 69  2  0  0  0
 57 58  2  0  0  0
 57126  1  0  0  0
 58127  1  0  0  0
 59 60  1  0  0  0
 59 61  1  0  0  0
 59 62  1  0  0  0
 60128  1  0  0  0
 60129  1  0  0  0
 60130  1  0  0  0
 61131  1  0  0  0
 61132  1  0  0  0
 61133  1  0  0  0
 62134  1  0  0  0
 62135  1  0  0  0
 62136  1  0  0  0
 63 65  1  0  0  0
 63137  1  0  0  0
 63138  1  0  0  0
 63139  1  0  0  0
 64140  1  0  0  0
 65141  1  0  0  0
 68 75  1  0  0  0
 71 74  1  0  0  0
 71 75  1  0  0  0
 71 82  2  0  0  0
 72 80  1  0  0  0
 72142  1  0  0  0
 72143  1  0  0  0
 72144  1  0  0  0
 73145  1  0  0  0
 73146  1  0  0  0
 73147  1  0  0  0
 73 81  1  0  0  0
 74 78  1  0  0  0
 74148  1  0  0  0
 74149  1  0  0  0
 75150  1  0  0  0
 75151  1  0  0  0
 76 77  1  0  0  0
 76 79  1  0  0  0
 76152  1  0  0  0
 76153  1  0  0  0
 77 80  1  0  0  0
 77154  1  0  0  0
 77155  1  0  0  0
 78 81  1  0  0  0
 78156  1  0  0  0
 78157  1  0  0  0
 79 81  1  0  0  0
 79158  1  0  0  0
 79159  1  0  0  0
 81160  1  0  0  0
M  CHG  1  81   1
M  ISO  4   1 100  68 101  75 101  80 100
M  END
> <chiral flag>
0

> <version>
0

> <s_m_source_file>
/data/baiqing/PycharmProjects/Reinvent-master-3.2/result/LINK_invent/BTK/process_docking_weight1_custom_sum_contain_oxygen_bond_distance_aromatic_linkinvent_7_9_3/rearranged_h_0054.sdf

> <i_m_source_file_index>
90

> <r_mmod_Potential_Energy-OPLS-2005>
-12.9701232910156

> <r_mmod_Stretch_Energy-OPLS-2005>
44.7925148010254

> <r_mmod_Bend_Energy-OPLS-2005>
108.232109069824

> <r_mmod_Torsional_Energy-OPLS-2005>
300.794403076172

> <r_mmod_Improper_Torsional_Energy-OPLS-2005>
3.82319688796997

> <r_mmod_Van_der_Waal_Energy-OPLS-2005>
129.988494873047

> <r_mmod_Electrostatic_Energy-OPLS-2005>
-154.813873291016

> <r_mmod_Solvation_Energy-OPLS-2005>
-458.8310546875

> <b_mmod_Minimization_Converged-OPLS-2005>
0

> <r_mmod_RMS_Derivative-OPLS-2005>
3.31292629241943

$$$$
90
                    3D
 Structure written by MMmdl.
150158  0  0  1  0            999 V2000
  -30.5141  -15.0453   20.4635 C   0  0  0  0  0  0
  -30.4533  -12.6686   19.5019 C   0  0  0  0  0  0
  -29.5300  -12.5662   18.2615 C   0  0  0  0  0  0
  -28.0615  -12.3381   18.6710 C   0  0  0  0  0  0
  -27.6342  -13.2499   19.8488 C   0  0  2  0  0  0
  -28.6817  -13.2284   20.9782 C   0  0  0  0  0  0
  -25.2447  -13.8206   20.5679 C   0  0  0  0  0  0
  -24.1775  -13.0431   20.9223 C   0  0  0  0  0  0
  -24.6406  -11.6922   20.8757 C   0  0  0  0  0  0
  -23.9086  -10.4296   21.0413 C   0  0  0  0  0  0
  -24.3632   -9.4208   21.9186 C   0  0  0  0  0  0
  -23.6297   -8.2245   22.0754 C   0  0  0  0  0  0
  -22.4277   -8.0284   21.3546 C   0  0  0  0  0  0
  -21.9921   -9.0265   20.4650 C   0  0  0  0  0  0
  -22.7262  -10.2137   20.3060 C   0  0  0  0  0  0
  -21.6859   -6.0733   22.5273 C   0  0  0  0  0  0
  -21.4017   -6.5635   23.8207 C   0  0  0  0  0  0
  -21.3662   -5.6787   24.9169 C   0  0  0  0  0  0
  -21.6053   -4.3050   24.7222 C   0  0  0  0  0  0
  -21.8818   -3.8142   23.4342 C   0  0  0  0  0  0
  -21.9192   -4.6959   22.3398 C   0  0  0  0  0  0
  -22.7792  -13.5197   21.1879 C   0  0  0  0  0  0
  -22.1661   -4.2144   21.0977 F   0  0  0  0  0  0
  -21.5632   -3.4533   25.7734 F   0  0  0  0  0  0
  -29.9343  -13.7558   20.3990 N   0  0  0  0  0  0
  -26.2904  -12.9446   20.3274 N   0  0  0  0  0  0
  -25.9344  -11.6576   20.5750 N   0  0  0  0  0  0
  -22.0444  -12.8191   22.0443 N   0  0  0  0  0  0
  -25.4057  -15.1929   20.4037 N   0  0  0  0  0  0
  -31.6908  -15.0989   20.0823 O   0  0  0  0  0  0
  -21.6645   -6.8879   21.4236 O   0  0  0  0  0  0
  -22.3470  -14.5498   20.6721 O   0  0  0  0  0  0
  -24.6504  -31.8379   23.1835 C   0  0  0  0  0  0
  -25.9250  -32.4661   23.8242 C   0  0  1  0  0  0
  -27.2210  -27.0741   20.1525 C   0  0  0  0  0  0
  -25.5975  -33.8468   24.2158 N   0  0  0  0  0  0
  -23.4571  -30.4567   21.5298 C   0  0  2  0  0  0
  -24.9090  -28.8748   20.1106 C   0  0  0  0  0  0
  -22.7606  -29.4517   22.4827 C   0  0  0  0  0  0
  -18.0312  -28.1399   22.8473 C   0  0  0  0  0  0
  -24.1488  -36.7242   23.2643 C   0  0  0  0  0  0
  -26.0192  -30.6915   21.3934 C   0  0  0  0  0  0
  -26.0901  -29.2968   20.7345 C   0  0  0  0  0  0
  -27.2446  -28.4141   20.7386 C   0  0  0  0  0  0
  -26.0096  -26.7756   19.4856 C   0  0  0  0  0  0
  -24.8860  -27.6293   19.4697 C   0  0  0  0  0  0
  -23.6883  -29.7842   20.1509 C   0  0  0  0  0  0
  -25.4123  -36.3008   24.0311 C   0  0  1  0  0  0
  -20.5931  -28.3731   23.1213 C   0  0  2  0  0  0
  -20.6790  -26.9426   22.5397 C   0  0  0  0  0  0
  -19.5763  -26.6379   21.5208 C   0  0  0  0  0  0
  -18.1948  -26.7937   22.1622 C   0  0  0  0  0  0
  -19.1574  -28.8882   23.2833 C   0  0  0  0  0  0
  -18.9487  -30.1478   23.8859 C   0  0  0  0  0  0
  -17.6482  -30.6590   24.0558 C   0  0  0  0  0  0
  -25.9083  -34.9387   23.5042 C   0  0  0  0  0  0
  -16.5370  -29.9084   23.6337 C   0  0  0  0  0  0
  -16.7298  -28.6505   23.0355 C   0  0  0  0  0  0
  -26.4544  -31.6553   25.0713 C   0  0  0  0  0  0
  -25.3712  -31.3775   26.1399 C   0  0  0  0  0  0
  -27.0426  -30.2936   24.6356 C   0  0  0  0  0  0
  -27.6051  -32.4341   25.7514 C   0  0  0  0  0  0
  -27.5569  -37.1778   24.8468 C   0  0  0  0  0  0
  -21.4289  -29.3053   22.3583 N   0  0  0  0  0  0
  -26.4279  -37.3730   23.9410 N   0  0  0  0  0  0
  -24.7289  -31.0181   22.0899 N   0  0  0  0  0  0
  -23.4221  -28.8068   23.3000 O   0  0  0  0  0  0
  -28.2469  -26.0357   20.2220 O   0  0  0  0  0  0
  -26.5669  -34.8896   22.4622 O   0  0  0  0  0  0
  -23.5604  -32.1286   23.7009 O   0  0  0  0  0  0
  -30.2118  -22.8713   20.0141 C   0  0  0  0  0  0
  -30.4691  -21.5024   20.1207 C   0  0  0  0  0  0
  -28.8084  -23.1059   20.1939 C   0  0  0  0  0  0
  -28.8098  -16.2520   21.8142 C   0  0  0  0  0  0
  -27.8822  -24.5042   20.0403 C   0  0  0  0  0  0
  -29.0814  -19.2006   20.6579 C   0  0  0  0  0  0
  -30.0540  -17.8184   20.2845 C   0  0  0  0  0  0
  -28.3130  -21.7997   20.3882 N   0  0  0  0  0  0
  -29.3087  -20.7636   20.3346 N   0  0  0  0  0  0
  -29.7744  -16.2797   20.7114 N   0  0  0  0  0  0
  -31.4768  -12.8587   19.1752 H   0  0  0  0  0  0
  -30.5000  -11.7143   20.0285 H   0  0  0  0  0  0
  -29.8656  -11.7617   17.6053 H   0  0  0  0  0  0
  -29.6060  -13.4858   17.6792 H   0  0  0  0  0  0
  -27.9598  -11.2922   18.9629 H   0  0  0  0  0  0
  -27.4002  -12.4832   17.8161 H   0  0  0  0  0  0
  -27.6063  -14.2651   19.4507 H   0  0  0  0  0  0
  -28.8151  -12.2106   21.3478 H   0  0  0  0  0  0
  -28.3366  -13.7756   21.8486 H   0  0  0  0  0  0
  -25.2777   -9.5680   22.4758 H   0  0  0  0  0  0
  -24.0008   -7.4637   22.7466 H   0  0  0  0  0  0
  -21.0855   -8.8797   19.8949 H   0  0  0  0  0  0
  -22.3736  -10.9676   19.6166 H   0  0  0  0  0  0
  -21.2014   -7.6144   23.9708 H   0  0  0  0  0  0
  -21.1484   -6.0517   25.9070 H   0  0  0  0  0  0
  -22.0597   -2.7602   23.2843 H   0  0  0  0  0  0
  -22.4061  -11.9867   22.4858 H   0  0  0  0  0  0
  -21.1049  -13.1202   22.2622 H   0  0  0  0  0  0
  -24.6353  -15.8425   20.5149 H   0  0  0  0  0  0
  -26.2504  -15.6351   20.0648 H   0  0  0  0  0  0
  -26.7317  -32.5243   23.0966 H   0  0  0  0  0  0
  -25.0110  -33.9572   25.0298 H   0  0  0  0  0  0
  -22.7623  -31.2842   21.3703 H   0  0  0  0  0  0
  -23.3753  -35.9570   23.3290 H   0  0  0  0  0  0
  -24.3572  -36.8893   22.2059 H   0  0  0  0  0  0
  -23.7241  -37.6431   23.6696 H   0  0  0  0  0  0
  -26.1837  -31.4411   20.6179 H   0  0  0  0  0  0
  -26.8858  -30.7425   22.0407 H   0  0  0  0  0  0
  -28.1390  -28.7323   21.2553 H   0  0  0  0  0  0
  -25.8818  -25.8304   18.9821 H   0  0  0  0  0  0
  -23.9883  -27.3014   18.9648 H   0  0  0  0  0  0
  -23.8300  -30.5571   19.3941 H   0  0  0  0  0  0
  -22.8017  -29.2296   19.8379 H   0  0  0  0  0  0
  -25.1310  -36.1821   25.0801 H   0  0  0  0  0  0
  -21.0021  -28.3325   24.1334 H   0  0  0  0  0  0
  -20.5667  -26.2350   23.3626 H   0  0  0  0  0  0
  -21.6656  -26.7412   22.1202 H   0  0  0  0  0  0
  -19.6920  -25.6283   21.1257 H   0  0  0  0  0  0
  -19.6695  -27.3170   20.6722 H   0  0  0  0  0  0
  -17.4211  -26.6673   21.4034 H   0  0  0  0  0  0
  -18.0351  -26.0089   22.9027 H   0  0  0  0  0  0
  -19.7962  -30.7306   24.2210 H   0  0  0  0  0  0
  -17.5034  -31.6266   24.5169 H   0  0  0  0  0  0
  -15.5370  -30.2971   23.7685 H   0  0  0  0  0  0
  -15.8699  -28.0812   22.7086 H   0  0  0  0  0  0
  -24.5894  -30.7117   25.7730 H   0  0  0  0  0  0
  -24.8904  -32.2969   26.4744 H   0  0  0  0  0  0
  -25.7978  -30.9006   27.0230 H   0  0  0  0  0  0
  -26.3069  -29.6641   24.1338 H   0  0  0  0  0  0
  -27.3981  -29.7258   25.4965 H   0  0  0  0  0  0
  -27.8996  -30.4153   23.9732 H   0  0  0  0  0  0
  -27.2623  -33.3667   26.2009 H   0  0  0  0  0  0
  -28.3910  -32.6863   25.0382 H   0  0  0  0  0  0
  -28.0667  -31.8526   26.5504 H   0  0  0  0  0  0
  -28.2575  -38.0083   24.7502 H   0  0  0  0  0  0
  -28.1073  -36.2609   24.6302 H   0  0  0  0  0  0
  -27.2290  -37.1431   25.8872 H   0  0  0  0  0  0
  -20.9511  -29.8781   21.6763 H   0  0  0  0  0  0
  -26.0138  -38.2793   24.1412 H   0  0  0  0  0  0
  -30.9594  -23.6275   19.8165 H   0  0  0  0  0  0
  -31.4178  -20.9862   20.0603 H   0  0  0  0  0  0
  -29.1487  -15.5952   22.6162 H   0  0  0  0  0  0
  -27.8318  -15.9275   21.4662 H   0  0  0  0  0  0
  -28.6705  -17.2089   22.3036 H   0  0  0  0  0  0
  -27.0017  -24.3566   20.6662 H   0  0  0  0  0  0
  -27.5034  -24.4504   19.0209 H   0  0  0  0  0  0
  -28.9738  -19.2063   21.7408 H   0  0  0  0  0  0
  -28.0815  -18.9740   20.2866 H   0  0  0  0  0  0
  -31.0570  -18.0376   20.6516 H   0  0  0  0  0  0
  -30.1612  -17.7969   19.1998 H   0  0  0  0  0  0
  1 25  1  0  0  0
  1 30  2  0  0  0
  1 80  1  0  0  0
  2  3  1  0  0  0
  2 25  1  0  0  0
  2 81  1  0  0  0
  2 82  1  0  0  0
  3  4  1  0  0  0
  3 83  1  0  0  0
  3 84  1  0  0  0
  4  5  1  0  0  0
  4 85  1  0  0  0
  4 86  1  0  0  0
  5  6  1  0  0  0
  5 26  1  0  0  0
  5 87  1  0  0  0
  6 25  1  0  0  0
  6 88  1  0  0  0
  6 89  1  0  0  0
  7  8  2  0  0  0
  7 26  1  0  0  0
  7 29  1  0  0  0
  8  9  1  0  0  0
  8 22  1  0  0  0
  9 10  1  0  0  0
  9 27  2  0  0  0
 10 11  2  0  0  0
 10 15  1  0  0  0
 11 12  1  0  0  0
 11 90  1  0  0  0
 12 13  2  0  0  0
 12 91  1  0  0  0
 13 14  1  0  0  0
 13 31  1  0  0  0
 14 15  2  0  0  0
 14 92  1  0  0  0
 15 93  1  0  0  0
 16 17  2  0  0  0
 16 21  1  0  0  0
 16 31  1  0  0  0
 17 18  1  0  0  0
 17 94  1  0  0  0
 18 19  2  0  0  0
 18 95  1  0  0  0
 19 20  1  0  0  0
 19 24  1  0  0  0
 20 21  2  0  0  0
 20 96  1  0  0  0
 21 23  1  0  0  0
 22 28  1  0  0  0
 22 32  2  0  0  0
 26 27  1  0  0  0
 28 97  1  0  0  0
 28 98  1  0  0  0
 29 99  1  0  0  0
 29100  1  0  0  0
 33 34  1  0  0  0
 33 66  1  0  0  0
 33 70  2  0  0  0
 34 36  1  0  0  0
 34 59  1  0  0  0
 34101  1  0  0  0
 35 44  2  0  0  0
 35 45  1  0  0  0
 35 68  1  0  0  0
 36 56  1  0  0  0
 36102  1  0  0  0
 37 39  1  0  0  0
 37 47  1  0  0  0
 37 66  1  0  0  0
 37103  1  0  0  0
 38 43  2  0  0  0
 38 46  1  0  0  0
 38 47  1  0  0  0
 39 64  1  0  0  0
 39 67  2  0  0  0
 40 52  1  0  0  0
 40 53  2  0  0  0
 40 58  1  0  0  0
 41104  1  0  0  0
 41105  1  0  0  0
 41106  1  0  0  0
 41 48  1  0  0  0
 42 43  1  0  0  0
 42 66  1  0  0  0
 42107  1  0  0  0
 42108  1  0  0  0
 43 44  1  0  0  0
 44109  1  0  0  0
 45 46  2  0  0  0
 45110  1  0  0  0
 46111  1  0  0  0
 47112  1  0  0  0
 47113  1  0  0  0
 48 56  1  0  0  0
 48 65  1  0  0  0
 48114  1  0  0  0
 49 50  1  0  0  0
 49 53  1  0  0  0
 49 64  1  0  0  0
 49115  1  0  0  0
 50 51  1  0  0  0
 50116  1  0  0  0
 50117  1  0  0  0
 51 52  1  0  0  0
 51118  1  0  0  0
 51119  1  0  0  0
 52120  1  0  0  0
 52121  1  0  0  0
 53 54  1  0  0  0
 54 55  2  0  0  0
 54122  1  0  0  0
 55 57  1  0  0  0
 55123  1  0  0  0
 56 69  2  0  0  0
 57 58  2  0  0  0
 57124  1  0  0  0
 58125  1  0  0  0
 59 60  1  0  0  0
 59 61  1  0  0  0
 59 62  1  0  0  0
 60126  1  0  0  0
 60127  1  0  0  0
 60128  1  0  0  0
 61129  1  0  0  0
 61130  1  0  0  0
 61131  1  0  0  0
 62132  1  0  0  0
 62133  1  0  0  0
 62134  1  0  0  0
 63 65  1  0  0  0
 63135  1  0  0  0
 63136  1  0  0  0
 63137  1  0  0  0
 64138  1  0  0  0
 65139  1  0  0  0
 68 75  1  0  0  0
 71 72  2  0  0  0
 71 73  1  0  0  0
 71140  1  0  0  0
 72 79  1  0  0  0
 72141  1  0  0  0
 73 75  1  0  0  0
 73 78  2  0  0  0
 74 80  1  0  0  0
 74142  1  0  0  0
 74143  1  0  0  0
 74144  1  0  0  0
 75145  1  0  0  0
 75146  1  0  0  0
 76 77  1  0  0  0
 76 79  1  0  0  0
 76147  1  0  0  0
 76148  1  0  0  0
 77 80  1  0  0  0
 77149  1  0  0  0
 77150  1  0  0  0
 78 79  1  0  0  0
M  ISO  4   1 100  68 101  75 101  80 100
M  END
> <chiral flag>
0

> <version>
0

> <s_m_source_file>
/data/baiqing/PycharmProjects/Reinvent-master-3.2/result/LINK_invent/BTK/process_docking_weight1_custom_sum_contain_oxygen_bond_distance_aromatic_linkinvent_7_9_3/rearranged_h_0054.sdf

> <i_m_source_file_index>
91

> <r_mmod_Potential_Energy-OPLS-2005>
832.927185058594

> <r_mmod_Stretch_Energy-OPLS-2005>
352.943664550781

> <r_mmod_Bend_Energy-OPLS-2005>
320.769378662109

> <r_mmod_Torsional_Energy-OPLS-2005>
278.903900146484

> <r_mmod_Improper_Torsional_Energy-OPLS-2005>
6.97753381729126

> <r_mmod_Van_der_Waal_Energy-OPLS-2005>
125.21070098877

> <r_mmod_Electrostatic_Energy-OPLS-2005>
-279.622406005859

> <r_mmod_Solvation_Energy-OPLS-2005>
-223.227844238281

> <b_mmod_Minimization_Converged-OPLS-2005>
0

> <r_mmod_RMS_Derivative-OPLS-2005>
1.05408263206482

$$$$
91
                    3D
 Structure written by MMmdl.
160168  0  0  1  0            999 V2000
  -30.5859  -14.9153   20.3774 C   0  0  0  0  0  0
  -30.4277  -12.5607   19.4798 C   0  0  0  0  0  0
  -29.5114  -12.4919   18.2419 C   0  0  0  0  0  0
  -28.0399  -12.3152   18.6663 C   0  0  0  0  0  0
  -27.6245  -13.2449   19.8408 C   0  0  2  0  0  0
  -28.6787  -13.2953   20.9607 C   0  0  0  0  0  0
  -25.2463  -13.8210   20.5768 C   0  0  0  0  0  0
  -24.1772  -13.0434   20.9252 C   0  0  0  0  0  0
  -24.6384  -11.6918   20.8785 C   0  0  0  0  0  0
  -23.9071  -10.4291   21.0424 C   0  0  0  0  0  0
  -24.3620   -9.4199   21.9197 C   0  0  0  0  0  0
  -23.6293   -8.2236   22.0759 C   0  0  0  0  0  0
  -22.4274   -8.0282   21.3550 C   0  0  0  0  0  0
  -21.9916   -9.0258   20.4652 C   0  0  0  0  0  0
  -22.7247  -10.2136   20.3067 C   0  0  0  0  0  0
  -21.6847   -6.0732   22.5279 C   0  0  0  0  0  0
  -21.4012   -6.5636   23.8212 C   0  0  0  0  0  0
  -21.3661   -5.6794   24.9178 C   0  0  0  0  0  0
  -21.6044   -4.3056   24.7234 C   0  0  0  0  0  0
  -21.8817   -3.8144   23.4357 C   0  0  0  0  0  0
  -21.9192   -4.6959   22.3409 C   0  0  0  0  0  0
  -22.7790  -13.5203   21.1891 C   0  0  0  0  0  0
  -22.1660   -4.2142   21.0987 F   0  0  0  0  0  0
  -21.5632   -3.4539   25.7747 F   0  0  0  0  0  0
  -29.9384  -13.6865   20.3198 N   0  0  0  0  0  0
  -26.2880  -12.9427   20.3338 N   0  0  0  0  0  0
  -25.9320  -11.6560   20.5814 N   0  0  0  0  0  0
  -22.0439  -12.8190   22.0444 N   0  0  0  0  0  0
  -25.4153  -15.1943   20.4195 N   0  0  0  0  0  0
  -31.8185  -14.8860   20.2735 O   0  0  0  0  0  0
  -21.6638   -6.8877   21.4241 O   0  0  0  0  0  0
  -22.3480  -14.5508   20.6732 O   0  0  0  0  0  0
  -24.6410  -31.8462   23.1901 C   0  0  0  0  0  0
  -25.9187  -32.4710   23.8287 C   0  0  1  0  0  0
  -27.2140  -27.1609   20.1568 C   0  0  0  0  0  0
  -25.5939  -33.8512   24.2208 N   0  0  0  0  0  0
  -23.4432  -30.4659   21.5358 C   0  0  2  0  0  0
  -24.8911  -28.8938   20.1144 C   0  0  0  0  0  0
  -22.7560  -29.4560   22.4874 C   0  0  0  0  0  0
  -18.0312  -28.1380   22.8518 C   0  0  0  0  0  0
  -24.1492  -36.7261   23.2641 C   0  0  0  0  0  0
  -25.9967  -30.7297   21.3837 C   0  0  0  0  0  0
  -26.0681  -29.3422   20.7279 C   0  0  0  0  0  0
  -27.2332  -28.4925   20.7284 C   0  0  0  0  0  0
  -26.0146  -26.8069   19.5041 C   0  0  0  0  0  0
  -24.8756  -27.6390   19.4868 C   0  0  0  0  0  0
  -23.6677  -29.7942   20.1557 C   0  0  0  0  0  0
  -25.4124  -36.3040   24.0318 C   0  0  1  0  0  0
  -20.5930  -28.3706   23.1234 C   0  0  2  0  0  0
  -20.6807  -26.9433   22.5352 C   0  0  0  0  0  0
  -19.5739  -26.6394   21.5204 C   0  0  0  0  0  0
  -18.1960  -26.7899   22.1712 C   0  0  0  0  0  0
  -19.1578  -28.8870   23.2867 C   0  0  0  0  0  0
  -18.9502  -30.1471   23.8877 C   0  0  0  0  0  0
  -17.6502  -30.6592   24.0567 C   0  0  0  0  0  0
  -25.9067  -34.9413   23.5073 C   0  0  0  0  0  0
  -16.5386  -29.9089   23.6355 C   0  0  0  0  0  0
  -16.7301  -28.6495   23.0398 C   0  0  0  0  0  0
  -26.4514  -31.6570   25.0720 C   0  0  0  0  0  0
  -25.3705  -31.3748   26.1418 C   0  0  0  0  0  0
  -27.0378  -30.2973   24.6277 C   0  0  0  0  0  0
  -27.6053  -32.4329   25.7507 C   0  0  0  0  0  0
  -27.5578  -37.1790   24.8464 C   0  0  0  0  0  0
  -21.4259  -29.3046   22.3621 N   0  0  0  0  0  0
  -26.4291  -37.3749   23.9402 N   0  0  0  0  0  0
  -24.7134  -31.0345   22.0920 N   0  0  0  0  0  0
  -23.4222  -28.8112   23.3020 O   0  0  0  0  0  0
  -28.2848  -26.2071   20.1803 O   0  0  0  0  0  0
  -26.5647  -34.8904   22.4647 O   0  0  0  0  0  0
  -23.5532  -32.1314   23.7138 O   0  0  0  0  0  0
  -30.2681  -21.1908   20.6114 C   0  0  0  0  0  0
  -28.1549  -19.6122   20.2241 C   0  0  0  0  0  0
  -29.0365  -21.8594   20.2794 C   0  0  0  0  0  0
  -29.3939  -18.9468   20.5499 C   0  0  0  0  0  0
  -28.5872  -15.9491   16.9900 C   0  0  0  0  0  0
  -29.6642  -18.2017   16.8079 C   0  0  0  0  0  0
  -28.9843  -23.4584   19.8743 C   0  0  0  0  0  0
  -29.5655  -17.3485   20.9443 C   0  0  0  0  0  0
  -30.3451  -16.6864   18.7181 C   0  0  0  0  0  0
  -28.0573  -24.7014   20.4838 C   0  0  0  0  0  0
  -29.1861  -17.1165   17.7839 C   0  0  0  0  0  0
  -27.9849  -20.9935   20.0702 N   0  0  0  0  0  0
  -30.4411  -19.8146   20.7485 N   0  0  0  0  0  0
  -29.9144  -16.1287   20.0217 N   0  0  0  0  0  0
  -31.4631  -12.6996   19.1643 H   0  0  0  0  0  0
  -30.4041  -11.6204   20.0336 H   0  0  0  0  0  0
  -29.8146  -11.6706   17.5911 H   0  0  0  0  0  0
  -29.6262  -13.4009   17.6530 H   0  0  0  0  0  0
  -27.9183  -11.2738   18.9656 H   0  0  0  0  0  0
  -27.3768  -12.4657   17.8136 H   0  0  0  0  0  0
  -27.5748  -14.2503   19.4330 H   0  0  0  0  0  0
  -28.7695  -12.3335   21.4677 H   0  0  0  0  0  0
  -28.3969  -14.0283   21.7180 H   0  0  0  0  0  0
  -25.2763   -9.5667   22.4775 H   0  0  0  0  0  0
  -23.9999   -7.4622   22.7471 H   0  0  0  0  0  0
  -21.0854   -8.8787   19.8951 H   0  0  0  0  0  0
  -22.3719  -10.9683   19.6180 H   0  0  0  0  0  0
  -21.1999   -7.6144   23.9713 H   0  0  0  0  0  0
  -21.1485   -6.0527   25.9081 H   0  0  0  0  0  0
  -22.0594   -2.7607   23.2862 H   0  0  0  0  0  0
  -22.4054  -11.9840   22.4817 H   0  0  0  0  0  0
  -21.1052  -13.1205   22.2647 H   0  0  0  0  0  0
  -24.6488  -15.8483   20.5322 H   0  0  0  0  0  0
  -26.2679  -15.6331   20.0968 H   0  0  0  0  0  0
  -26.7256  -32.5330   23.1023 H   0  0  0  0  0  0
  -25.0078  -33.9630   25.0348 H   0  0  0  0  0  0
  -22.7448  -31.2910   21.3827 H   0  0  0  0  0  0
  -23.3758  -35.9589   23.3294 H   0  0  0  0  0  0
  -24.3576  -36.8899   22.2058 H   0  0  0  0  0  0
  -23.7244  -37.6454   23.6679 H   0  0  0  0  0  0
  -26.1474  -31.4851   20.6115 H   0  0  0  0  0  0
  -26.8692  -30.7810   22.0238 H   0  0  0  0  0  0
  -28.1345  -28.8346   21.2169 H   0  0  0  0  0  0
  -25.9407  -25.8528   19.0042 H   0  0  0  0  0  0
  -23.9785  -27.2921   18.9926 H   0  0  0  0  0  0
  -23.8029  -30.5671   19.3983 H   0  0  0  0  0  0
  -22.7838  -29.2341   19.8474 H   0  0  0  0  0  0
  -25.1315  -36.1874   25.0811 H   0  0  0  0  0  0
  -21.0036  -28.3271   24.1347 H   0  0  0  0  0  0
  -20.5760  -26.2319   23.3553 H   0  0  0  0  0  0
  -21.6661  -26.7487   22.1095 H   0  0  0  0  0  0
  -19.6618  -27.3206   20.6733 H   0  0  0  0  0  0
  -19.6893  -25.6300   21.1235 H   0  0  0  0  0  0
  -17.4162  -26.6539   21.4209 H   0  0  0  0  0  0
  -18.0504  -26.0077   22.9179 H   0  0  0  0  0  0
  -19.7981  -30.7306   24.2217 H   0  0  0  0  0  0
  -17.5064  -31.6274   24.5162 H   0  0  0  0  0  0
  -15.5389  -30.2987   23.7695 H   0  0  0  0  0  0
  -15.8694  -28.0802   22.7163 H   0  0  0  0  0  0
  -24.5889  -30.7092   25.7736 H   0  0  0  0  0  0
  -24.8886  -32.2928   26.4794 H   0  0  0  0  0  0
  -25.7987  -30.8953   27.0228 H   0  0  0  0  0  0
  -26.2991  -29.6704   24.1272 H   0  0  0  0  0  0
  -27.3992  -29.7259   25.4836 H   0  0  0  0  0  0
  -27.8893  -30.4225   23.9588 H   0  0  0  0  0  0
  -27.2650  -33.3645   26.2039 H   0  0  0  0  0  0
  -28.3885  -32.6863   25.0351 H   0  0  0  0  0  0
  -28.0691  -31.8482   26.5458 H   0  0  0  0  0  0
  -28.2594  -38.0088   24.7508 H   0  0  0  0  0  0
  -28.1076  -36.2619   24.6300 H   0  0  0  0  0  0
  -27.2289  -37.1449   25.8864 H   0  0  0  0  0  0
  -20.9460  -29.8758   21.6805 H   0  0  0  0  0  0
  -26.0160  -38.2817   24.1398 H   0  0  0  0  0  0
  -31.1692  -21.7751   20.7278 H   0  0  0  0  0  0
  -27.2562  -19.0227   20.1111 H   0  0  0  0  0  0
  -27.8029  -16.2946   16.3149 H   0  0  0  0  0  0
  -28.1352  -15.2100   17.6403 H   0  0  0  0  0  0
  -29.3420  -15.4463   16.3853 H   0  0  0  0  0  0
  -28.8478  -18.5501   16.1744 H   0  0  0  0  0  0
  -30.4545  -17.8287   16.1559 H   0  0  0  0  0  0
  -30.0540  -19.0706   17.3389 H   0  0  0  0  0  0
  -30.0130  -23.7964   19.9969 H   0  0  0  0  0  0
  -28.8329  -23.4684   18.7956 H   0  0  0  0  0  0
  -28.6246  -17.0743   21.4215 H   0  0  0  0  0  0
  -30.2916  -17.3228   21.7567 H   0  0  0  0  0  0
  -31.0100  -17.5299   18.9129 H   0  0  0  0  0  0
  -30.9735  -15.9870   18.1600 H   0  0  0  0  0  0
  -28.1394  -24.6347   21.5687 H   0  0  0  0  0  0
  -27.0199  -24.4441   20.2810 H   0  0  0  0  0  0
  -28.3830  -17.5509   18.3770 H   0  0  0  0  0  0
  1 25  1  0  0  0
  1 30  2  0  0  0
  1 84  1  0  0  0
  2  3  1  0  0  0
  2 25  1  0  0  0
  2 85  1  0  0  0
  2 86  1  0  0  0
  3  4  1  0  0  0
  3 87  1  0  0  0
  3 88  1  0  0  0
  4  5  1  0  0  0
  4 89  1  0  0  0
  4 90  1  0  0  0
  5  6  1  0  0  0
  5 26  1  0  0  0
  5 91  1  0  0  0
  6 25  1  0  0  0
  6 92  1  0  0  0
  6 93  1  0  0  0
  7  8  2  0  0  0
  7 26  1  0  0  0
  7 29  1  0  0  0
  8  9  1  0  0  0
  8 22  1  0  0  0
  9 10  1  0  0  0
  9 27  2  0  0  0
 10 11  2  0  0  0
 10 15  1  0  0  0
 11 12  1  0  0  0
 11 94  1  0  0  0
 12 13  2  0  0  0
 12 95  1  0  0  0
 13 14  1  0  0  0
 13 31  1  0  0  0
 14 15  2  0  0  0
 14 96  1  0  0  0
 15 97  1  0  0  0
 16 17  2  0  0  0
 16 21  1  0  0  0
 16 31  1  0  0  0
 17 18  1  0  0  0
 17 98  1  0  0  0
 18 19  2  0  0  0
 18 99  1  0  0  0
 19 20  1  0  0  0
 19 24  1  0  0  0
 20 21  2  0  0  0
 20100  1  0  0  0
 21 23  1  0  0  0
 22 28  1  0  0  0
 22 32  2  0  0  0
 26 27  1  0  0  0
 28101  1  0  0  0
 28102  1  0  0  0
 29103  1  0  0  0
 29104  1  0  0  0
 33 34  1  0  0  0
 33 66  1  0  0  0
 33 70  2  0  0  0
 34 36  1  0  0  0
 34 59  1  0  0  0
 34105  1  0  0  0
 35 44  2  0  0  0
 35 45  1  0  0  0
 35 68  1  0  0  0
 36 56  1  0  0  0
 36106  1  0  0  0
 37 39  1  0  0  0
 37 47  1  0  0  0
 37 66  1  0  0  0
 37107  1  0  0  0
 38 43  2  0  0  0
 38 46  1  0  0  0
 38 47  1  0  0  0
 39 64  1  0  0  0
 39 67  2  0  0  0
 40 52  1  0  0  0
 40 53  2  0  0  0
 40 58  1  0  0  0
 41108  1  0  0  0
 41109  1  0  0  0
 41110  1  0  0  0
 41 48  1  0  0  0
 42 43  1  0  0  0
 42 66  1  0  0  0
 42111  1  0  0  0
 42112  1  0  0  0
 43 44  1  0  0  0
 44113  1  0  0  0
 45 46  2  0  0  0
 45114  1  0  0  0
 46115  1  0  0  0
 47116  1  0  0  0
 47117  1  0  0  0
 48 56  1  0  0  0
 48 65  1  0  0  0
 48118  1  0  0  0
 49 50  1  0  0  0
 49 53  1  0  0  0
 49 64  1  0  0  0
 49119  1  0  0  0
 50 51  1  0  0  0
 50120  1  0  0  0
 50121  1  0  0  0
 51 52  1  0  0  0
 51122  1  0  0  0
 51123  1  0  0  0
 52124  1  0  0  0
 52125  1  0  0  0
 53 54  1  0  0  0
 54 55  2  0  0  0
 54126  1  0  0  0
 55 57  1  0  0  0
 55127  1  0  0  0
 56 69  2  0  0  0
 57 58  2  0  0  0
 57128  1  0  0  0
 58129  1  0  0  0
 59 60  1  0  0  0
 59 61  1  0  0  0
 59 62  1  0  0  0
 60130  1  0  0  0
 60131  1  0  0  0
 60132  1  0  0  0
 61133  1  0  0  0
 61134  1  0  0  0
 61135  1  0  0  0
 62136  1  0  0  0
 62137  1  0  0  0
 62138  1  0  0  0
 63 65  1  0  0  0
 63139  1  0  0  0
 63140  1  0  0  0
 63141  1  0  0  0
 64142  1  0  0  0
 65143  1  0  0  0
 68 80  1  0  0  0
 71 73  2  0  0  0
 71 83  1  0  0  0
 71144  1  0  0  0
 72 74  1  0  0  0
 72 82  2  0  0  0
 72145  1  0  0  0
 73 77  1  0  0  0
 73 82  1  0  0  0
 74 78  1  0  0  0
 74 83  2  0  0  0
 75146  1  0  0  0
 75147  1  0  0  0
 75148  1  0  0  0
 75 81  1  0  0  0
 76 81  1  0  0  0
 76149  1  0  0  0
 76150  1  0  0  0
 76151  1  0  0  0
 77 80  1  0  0  0
 77152  1  0  0  0
 77153  1  0  0  0
 78 84  1  0  0  0
 78154  1  0  0  0
 78155  1  0  0  0
 79 81  1  0  0  0
 79 84  1  0  0  0
 79156  1  0  0  0
 79157  1  0  0  0
 80158  1  0  0  0
 80159  1  0  0  0
 81160  1  0  0  0
M  ISO  4   1 100  68 101  80 101  84 100
M  END
> <chiral flag>
0

> <version>
0

> <s_m_source_file>
/data/baiqing/PycharmProjects/Reinvent-master-3.2/result/LINK_invent/BTK/process_docking_weight1_custom_sum_contain_oxygen_bond_distance_aromatic_linkinvent_7_9_3/rearranged_h_0054.sdf

> <i_m_source_file_index>
92

> <r_mmod_Potential_Energy-OPLS-2005>
649.590637207031

> <r_mmod_Stretch_Energy-OPLS-2005>
225.271011352539

> <r_mmod_Bend_Energy-OPLS-2005>
261.777465820312

> <r_mmod_Torsional_Energy-OPLS-2005>
311.417205810547

> <r_mmod_Improper_Torsional_Energy-OPLS-2005>
23.8798027038574

> <r_mmod_Van_der_Waal_Energy-OPLS-2005>
131.458099365234

> <r_mmod_Electrostatic_Energy-OPLS-2005>
-267.556610107422

> <r_mmod_Solvation_Energy-OPLS-2005>
-209.792282104492

> <b_mmod_Minimization_Converged-OPLS-2005>
0

> <r_mmod_RMS_Derivative-OPLS-2005>
1.33699774742126

$$$$
92
                    3D
 Structure written by MMmdl.
154162  0  0  1  0            999 V2000
  -30.5245  -15.0426   20.3450 C   0  0  0  0  0  0
  -30.4414  -12.6448   19.4858 C   0  0  0  0  0  0
  -29.5176  -12.4957   18.2552 C   0  0  0  0  0  0
  -28.0564  -12.2682   18.6915 C   0  0  0  0  0  0
  -27.6123  -13.2243   19.8285 C   0  0  2  0  0  0
  -28.6675  -13.3475   20.9475 C   0  0  0  0  0  0
  -25.2450  -13.8120   20.5803 C   0  0  0  0  0  0
  -24.1739  -13.0380   20.9267 C   0  0  0  0  0  0
  -24.6332  -11.6859   20.8795 C   0  0  0  0  0  0
  -23.9019  -10.4255   21.0431 C   0  0  0  0  0  0
  -24.3581   -9.4177   21.9205 C   0  0  0  0  0  0
  -23.6266   -8.2209   22.0756 C   0  0  0  0  0  0
  -22.4251   -8.0256   21.3539 C   0  0  0  0  0  0
  -21.9880   -9.0230   20.4647 C   0  0  0  0  0  0
  -22.7198  -10.2111   20.3073 C   0  0  0  0  0  0
  -21.6837   -6.0725   22.5286 C   0  0  0  0  0  0
  -21.4007   -6.5635   23.8221 C   0  0  0  0  0  0
  -21.3655   -5.6789   24.9184 C   0  0  0  0  0  0
  -21.6040   -4.3051   24.7234 C   0  0  0  0  0  0
  -21.8819   -3.8140   23.4357 C   0  0  0  0  0  0
  -21.9189   -4.6956   22.3411 C   0  0  0  0  0  0
  -22.7772  -13.5191   21.1893 C   0  0  0  0  0  0
  -22.1659   -4.2145   21.0988 F   0  0  0  0  0  0
  -21.5627   -3.4536   25.7746 F   0  0  0  0  0  0
  -29.9218  -13.7754   20.3081 N   0  0  0  0  0  0
  -26.2824  -12.9281   20.3323 N   0  0  0  0  0  0
  -25.9257  -11.6444   20.5801 N   0  0  0  0  0  0
  -22.0389  -12.8214   22.0443 N   0  0  0  0  0  0
  -25.4156  -15.1858   20.4289 N   0  0  0  0  0  0
  -31.7593  -15.0553   20.2816 O   0  0  0  0  0  0
  -21.6618   -6.8856   21.4240 O   0  0  0  0  0  0
  -22.3493  -14.5503   20.6718 O   0  0  0  0  0  0
  -24.6469  -31.8416   23.1872 C   0  0  0  0  0  0
  -25.9230  -32.4682   23.8268 C   0  0  1  0  0  0
  -27.2183  -27.0989   20.1547 C   0  0  0  0  0  0
  -25.5972  -33.8491   24.2183 N   0  0  0  0  0  0
  -23.4525  -30.4614   21.5336 C   0  0  2  0  0  0
  -24.9046  -28.8871   20.1081 C   0  0  0  0  0  0
  -22.7584  -29.4540   22.4848 C   0  0  0  0  0  0
  -18.0306  -28.1402   22.8476 C   0  0  0  0  0  0
  -24.1492  -36.7245   23.2644 C   0  0  0  0  0  0
  -26.0128  -30.7038   21.3935 C   0  0  0  0  0  0
  -26.0844  -29.3122   20.7328 C   0  0  0  0  0  0
  -27.2406  -28.4353   20.7399 C   0  0  0  0  0  0
  -26.0127  -26.7951   19.4789 C   0  0  0  0  0  0
  -24.8851  -27.6427   19.4644 C   0  0  0  0  0  0
  -23.6815  -29.7926   20.1525 C   0  0  0  0  0  0
  -25.4125  -36.3020   24.0312 C   0  0  1  0  0  0
  -20.5923  -28.3734   23.1227 C   0  0  2  0  0  0
  -20.6795  -26.9432   22.5407 C   0  0  0  0  0  0
  -19.5765  -26.6385   21.5219 C   0  0  0  0  0  0
  -18.1944  -26.7940   22.1627 C   0  0  0  0  0  0
  -19.1564  -28.8886   23.2844 C   0  0  0  0  0  0
  -18.9481  -30.1481   23.8868 C   0  0  0  0  0  0
  -17.6476  -30.6597   24.0557 C   0  0  0  0  0  0
  -25.9078  -34.9400   23.5053 C   0  0  0  0  0  0
  -16.5367  -29.9087   23.6342 C   0  0  0  0  0  0
  -16.7290  -28.6508   23.0358 C   0  0  0  0  0  0
  -26.4540  -31.6557   25.0723 C   0  0  0  0  0  0
  -25.3717  -31.3761   26.1412 C   0  0  0  0  0  0
  -27.0413  -30.2944   24.6340 C   0  0  0  0  0  0
  -27.6055  -32.4337   25.7517 C   0  0  0  0  0  0
  -27.5568  -37.1784   24.8466 C   0  0  0  0  0  0
  -21.4273  -29.3054   22.3593 N   0  0  0  0  0  0
  -26.4282  -37.3737   23.9405 N   0  0  0  0  0  0
  -24.7242  -31.0233   22.0933 N   0  0  0  0  0  0
  -23.4207  -28.8090   23.3018 O   0  0  0  0  0  0
  -28.2409  -26.0660   20.2457 O   0  0  0  0  0  0
  -26.5659  -34.8902   22.4630 O   0  0  0  0  0  0
  -23.5579  -32.1319   23.7064 O   0  0  0  0  0  0
  -29.9326  -22.8263   20.9684 C   0  0  0  0  0  0
  -28.3277  -21.7856   19.9613 C   0  0  0  0  0  0
  -28.6964  -23.1215   20.2946 C   0  0  0  0  0  0
  -30.2185  -21.4566   21.0111 C   0  0  0  0  0  0
  -31.3895  -20.7669   21.6308 C   0  0  0  0  0  0
  -28.9033  -16.3079   19.0086 C   0  0  0  0  0  0
  -27.8698  -24.5581   20.0021 C   0  0  0  0  0  0
  -29.0564  -19.1313   20.1414 C   0  0  0  0  0  0
  -30.0681  -17.8083   20.5594 C   0  0  0  0  0  0
  -29.2201  -20.7140   20.3735 N   0  0  0  0  0  0
  -29.7664  -16.2716   20.1950 N   0  0  0  0  0  0
  -31.4661  -12.8247   19.1561 H   0  0  0  0  0  0
  -30.4695  -11.7230   20.0685 H   0  0  0  0  0  0
  -29.8525  -11.6658   17.6313 H   0  0  0  0  0  0
  -29.5865  -13.3847   17.6286 H   0  0  0  0  0  0
  -27.9803  -11.2364   19.0370 H   0  0  0  0  0  0
  -27.3848  -12.3519   17.8362 H   0  0  0  0  0  0
  -27.5095  -14.1900   19.3542 H   0  0  0  0  0  0
  -28.7928  -12.4049   21.4820 H   0  0  0  0  0  0
  -28.3514  -14.0879   21.6849 H   0  0  0  0  0  0
  -25.2720   -9.5661   22.4788 H   0  0  0  0  0  0
  -23.9981   -7.4595   22.7466 H   0  0  0  0  0  0
  -21.0815   -8.8748   19.8950 H   0  0  0  0  0  0
  -22.3656  -10.9661   19.6195 H   0  0  0  0  0  0
  -21.2000   -7.6142   23.9723 H   0  0  0  0  0  0
  -21.1474   -6.0519   25.9085 H   0  0  0  0  0  0
  -22.0600   -2.7603   23.2858 H   0  0  0  0  0  0
  -22.3981  -11.9894   22.4883 H   0  0  0  0  0  0
  -21.1001  -13.1258   22.2600 H   0  0  0  0  0  0
  -24.6520  -15.8404   20.5607 H   0  0  0  0  0  0
  -26.2804  -15.6320   20.1547 H   0  0  0  0  0  0
  -26.7297  -32.5279   23.0994 H   0  0  0  0  0  0
  -25.0102  -33.9604   25.0318 H   0  0  0  0  0  0
  -22.7579  -31.2895   21.3788 H   0  0  0  0  0  0
  -23.3756  -35.9573   23.3293 H   0  0  0  0  0  0
  -24.3571  -36.8892   22.2059 H   0  0  0  0  0  0
  -23.7246  -37.6438   23.6689 H   0  0  0  0  0  0
  -26.1739  -31.4588   20.6225 H   0  0  0  0  0  0
  -26.8799  -30.7528   22.0402 H   0  0  0  0  0  0
  -28.1343  -28.7543   21.2582 H   0  0  0  0  0  0
  -25.8931  -25.8502   18.9721 H   0  0  0  0  0  0
  -23.9882  -27.3115   18.9593 H   0  0  0  0  0  0
  -23.8188  -30.5694   19.3992 H   0  0  0  0  0  0
  -22.7948  -29.2380   19.8396 H   0  0  0  0  0  0
  -25.1316  -36.1840   25.0803 H   0  0  0  0  0  0
  -21.0017  -28.3329   24.1346 H   0  0  0  0  0  0
  -20.5697  -26.2349   23.3629 H   0  0  0  0  0  0
  -21.6661  -26.7443   22.1199 H   0  0  0  0  0  0
  -19.6930  -25.6290   21.1262 H   0  0  0  0  0  0
  -19.6698  -27.3183   20.6736 H   0  0  0  0  0  0
  -17.4217  -26.6681   21.4025 H   0  0  0  0  0  0
  -18.0340  -26.0088   22.9032 H   0  0  0  0  0  0
  -19.7957  -30.7307   24.2222 H   0  0  0  0  0  0
  -17.5030  -31.6274   24.5166 H   0  0  0  0  0  0
  -15.5365  -30.2980   23.7690 H   0  0  0  0  0  0
  -15.8690  -28.0819   22.7092 H   0  0  0  0  0  0
  -24.5910  -30.7091   25.7740 H   0  0  0  0  0  0
  -24.8895  -32.2949   26.4760 H   0  0  0  0  0  0
  -25.8000  -30.8994   27.0237 H   0  0  0  0  0  0
  -26.3048  -29.6659   24.1324 H   0  0  0  0  0  0
  -27.3977  -29.7255   25.4937 H   0  0  0  0  0  0
  -27.8974  -30.4159   23.9701 H   0  0  0  0  0  0
  -27.2630  -33.3660   26.2019 H   0  0  0  0  0  0
  -28.3909  -32.6864   25.0382 H   0  0  0  0  0  0
  -28.0673  -31.8517   26.5502 H   0  0  0  0  0  0
  -28.2585  -38.0081   24.7501 H   0  0  0  0  0  0
  -28.1066  -36.2610   24.6308 H   0  0  0  0  0  0
  -27.2284  -37.1450   25.8870 H   0  0  0  0  0  0
  -20.9490  -29.8750   21.6752 H   0  0  0  0  0  0
  -26.0142  -38.2802   24.1408 H   0  0  0  0  0  0
  -30.5769  -23.5738   21.4126 H   0  0  0  0  0  0
  -27.4326  -21.4833   19.4323 H   0  0  0  0  0  0
  -32.0802  -21.4857   22.0723 H   0  0  0  0  0  0
  -31.9430  -20.1889   20.8910 H   0  0  0  0  0  0
  -31.0703  -20.0897   22.4230 H   0  0  0  0  0  0
  -27.8684  -16.5121   19.2818 H   0  0  0  0  0  0
  -28.9363  -15.4009   18.4092 H   0  0  0  0  0  0
  -29.2309  -17.0748   18.3086 H   0  0  0  0  0  0
  -26.9252  -24.4092   20.5263 H   0  0  0  0  0  0
  -27.6245  -24.4924   18.9417 H   0  0  0  0  0  0
  -28.0825  -18.8914   20.5696 H   0  0  0  0  0  0
  -28.8898  -19.0636   19.0681 H   0  0  0  0  0  0
  -31.0564  -18.0167   20.1502 H   0  0  0  0  0  0
  -30.2003  -17.8330   21.6417 H   0  0  0  0  0  0
  1 25  1  0  0  0
  1 30  2  0  0  0
  1 81  1  0  0  0
  2  3  1  0  0  0
  2 25  1  0  0  0
  2 82  1  0  0  0
  2 83  1  0  0  0
  3  4  1  0  0  0
  3 84  1  0  0  0
  3 85  1  0  0  0
  4  5  1  0  0  0
  4 86  1  0  0  0
  4 87  1  0  0  0
  5  6  1  0  0  0
  5 26  1  0  0  0
  5 88  1  0  0  0
  6 25  1  0  0  0
  6 89  1  0  0  0
  6 90  1  0  0  0
  7  8  2  0  0  0
  7 26  1  0  0  0
  7 29  1  0  0  0
  8  9  1  0  0  0
  8 22  1  0  0  0
  9 10  1  0  0  0
  9 27  2  0  0  0
 10 11  2  0  0  0
 10 15  1  0  0  0
 11 12  1  0  0  0
 11 91  1  0  0  0
 12 13  2  0  0  0
 12 92  1  0  0  0
 13 14  1  0  0  0
 13 31  1  0  0  0
 14 15  2  0  0  0
 14 93  1  0  0  0
 15 94  1  0  0  0
 16 17  2  0  0  0
 16 21  1  0  0  0
 16 31  1  0  0  0
 17 18  1  0  0  0
 17 95  1  0  0  0
 18 19  2  0  0  0
 18 96  1  0  0  0
 19 20  1  0  0  0
 19 24  1  0  0  0
 20 21  2  0  0  0
 20 97  1  0  0  0
 21 23  1  0  0  0
 22 28  1  0  0  0
 22 32  2  0  0  0
 26 27  1  0  0  0
 28 98  1  0  0  0
 28 99  1  0  0  0
 29100  1  0  0  0
 29101  1  0  0  0
 33 34  1  0  0  0
 33 66  1  0  0  0
 33 70  2  0  0  0
 34 36  1  0  0  0
 34 59  1  0  0  0
 34102  1  0  0  0
 35 44  2  0  0  0
 35 45  1  0  0  0
 35 68  1  0  0  0
 36 56  1  0  0  0
 36103  1  0  0  0
 37 39  1  0  0  0
 37 47  1  0  0  0
 37 66  1  0  0  0
 37104  1  0  0  0
 38 43  2  0  0  0
 38 46  1  0  0  0
 38 47  1  0  0  0
 39 64  1  0  0  0
 39 67  2  0  0  0
 40 52  1  0  0  0
 40 53  2  0  0  0
 40 58  1  0  0  0
 41105  1  0  0  0
 41106  1  0  0  0
 41107  1  0  0  0
 41 48  1  0  0  0
 42 43  1  0  0  0
 42 66  1  0  0  0
 42108  1  0  0  0
 42109  1  0  0  0
 43 44  1  0  0  0
 44110  1  0  0  0
 45 46  2  0  0  0
 45111  1  0  0  0
 46112  1  0  0  0
 47113  1  0  0  0
 47114  1  0  0  0
 48 56  1  0  0  0
 48 65  1  0  0  0
 48115  1  0  0  0
 49 50  1  0  0  0
 49 53  1  0  0  0
 49 64  1  0  0  0
 49116  1  0  0  0
 50 51  1  0  0  0
 50117  1  0  0  0
 50118  1  0  0  0
 51 52  1  0  0  0
 51119  1  0  0  0
 51120  1  0  0  0
 52121  1  0  0  0
 52122  1  0  0  0
 53 54  1  0  0  0
 54 55  2  0  0  0
 54123  1  0  0  0
 55 57  1  0  0  0
 55124  1  0  0  0
 56 69  2  0  0  0
 57 58  2  0  0  0
 57125  1  0  0  0
 58126  1  0  0  0
 59 60  1  0  0  0
 59 61  1  0  0  0
 59 62  1  0  0  0
 60127  1  0  0  0
 60128  1  0  0  0
 60129  1  0  0  0
 61130  1  0  0  0
 61131  1  0  0  0
 61132  1  0  0  0
 62133  1  0  0  0
 62134  1  0  0  0
 62135  1  0  0  0
 63 65  1  0  0  0
 63136  1  0  0  0
 63137  1  0  0  0
 63138  1  0  0  0
 64139  1  0  0  0
 65140  1  0  0  0
 68 77  1  0  0  0
 71 73  1  0  0  0
 71 74  2  0  0  0
 71141  1  0  0  0
 72 73  2  0  0  0
 72 80  1  0  0  0
 72142  1  0  0  0
 73 77  1  0  0  0
 74 75  1  0  0  0
 74 80  1  0  0  0
 75143  1  0  0  0
 75144  1  0  0  0
 75145  1  0  0  0
 76 81  1  0  0  0
 76146  1  0  0  0
 76147  1  0  0  0
 76148  1  0  0  0
 77149  1  0  0  0
 77150  1  0  0  0
 78 79  1  0  0  0
 78 80  1  0  0  0
 78151  1  0  0  0
 78152  1  0  0  0
 79 81  1  0  0  0
 79153  1  0  0  0
 79154  1  0  0  0
M  ISO  4   1 100  68 101  77 101  81 100
M  END
> <chiral flag>
0

> <version>
0

> <s_m_source_file>
/data/baiqing/PycharmProjects/Reinvent-master-3.2/result/LINK_invent/BTK/process_docking_weight1_custom_sum_contain_oxygen_bond_distance_aromatic_linkinvent_7_9_3/rearranged_h_0054.sdf

> <i_m_source_file_index>
93

> <r_mmod_Potential_Energy-OPLS-2005>
799.595642089844

> <r_mmod_Stretch_Energy-OPLS-2005>
306.495208740234

> <r_mmod_Bend_Energy-OPLS-2005>
301.659637451172

> <r_mmod_Torsional_Energy-OPLS-2005>
306.804351806641

> <r_mmod_Improper_Torsional_Energy-OPLS-2005>
8.07316303253174

> <r_mmod_Van_der_Waal_Energy-OPLS-2005>
119.890037536621

> <r_mmod_Electrostatic_Energy-OPLS-2005>
-286.661468505859

> <r_mmod_Solvation_Energy-OPLS-2005>
-216.111679077148

> <b_mmod_Minimization_Converged-OPLS-2005>
0

> <r_mmod_RMS_Derivative-OPLS-2005>
0.995109438896179

$$$$
93
                    3D
 Structure written by MMmdl.
162170  0  0  1  0            999 V2000
  -30.6587  -14.5586   20.5406 C   0  0  0  0  0  0
  -30.4360  -12.3588   19.4247 C   0  0  0  0  0  0
  -29.4990  -12.4933   18.2051 C   0  0  0  0  0  0
  -28.0188  -12.3640   18.6217 C   0  0  0  0  0  0
  -27.6558  -13.2117   19.8683 C   0  0  2  0  0  0
  -28.7017  -13.0237   20.9876 C   0  0  0  0  0  0
  -25.2572  -13.8129   20.5630 C   0  0  0  0  0  0
  -24.1805  -13.0408   20.9143 C   0  0  0  0  0  0
  -24.6354  -11.6900   20.8675 C   0  0  0  0  0  0
  -23.8988  -10.4304   21.0409 C   0  0  0  0  0  0
  -24.3570   -9.4225   21.9178 C   0  0  0  0  0  0
  -23.6270   -8.2243   22.0734 C   0  0  0  0  0  0
  -22.4246   -8.0259   21.3534 C   0  0  0  0  0  0
  -21.9880   -9.0206   20.4624 C   0  0  0  0  0  0
  -22.7169  -10.2114   20.3050 C   0  0  0  0  0  0
  -21.6854   -6.0703   22.5273 C   0  0  0  0  0  0
  -21.4009   -6.5626   23.8190 C   0  0  0  0  0  0
  -21.3654   -5.6794   24.9161 C   0  0  0  0  0  0
  -21.6045   -4.3050   24.7239 C   0  0  0  0  0  0
  -21.8817   -3.8130   23.4368 C   0  0  0  0  0  0
  -21.9193   -4.6931   22.3414 C   0  0  0  0  0  0
  -22.7853  -13.5225   21.1834 C   0  0  0  0  0  0
  -22.1670   -4.2114   21.0990 F   0  0  0  0  0  0
  -21.5645   -3.4538   25.7758 F   0  0  0  0  0  0
  -30.0196  -13.3596   20.4231 N   0  0  0  0  0  0
  -26.2995  -12.9301   20.3316 N   0  0  0  0  0  0
  -25.9290  -11.6474   20.5730 N   0  0  0  0  0  0
  -22.0499  -12.8212   22.0419 N   0  0  0  0  0  0
  -25.4309  -15.1817   20.4015 N   0  0  0  0  0  0
  -31.8145  -14.7274   20.1475 O   0  0  0  0  0  0
  -21.6638   -6.8834   21.4226 O   0  0  0  0  0  0
  -22.3564  -14.5533   20.6707 O   0  0  0  0  0  0
  -24.6226  -31.8649   23.2066 C   0  0  0  0  0  0
  -25.9098  -32.4808   23.8421 C   0  0  1  0  0  0
  -27.2600  -27.4203   20.1127 C   0  0  0  0  0  0
  -25.5981  -33.8598   24.2394 N   0  0  0  0  0  0
  -23.4129  -30.4899   21.5435 C   0  0  2  0  0  0
  -24.8637  -28.9476   20.1135 C   0  0  0  0  0  0
  -22.7472  -29.4692   22.4941 C   0  0  0  0  0  0
  -18.0288  -28.1441   22.8501 C   0  0  0  0  0  0
  -24.1456  -36.7249   23.2605 C   0  0  0  0  0  0
  -25.9360  -30.8439   21.3402 C   0  0  0  0  0  0
  -26.0205  -29.4678   20.7043 C   0  0  0  0  0  0
  -27.2155  -28.7132   20.6954 C   0  0  0  0  0  0
  -26.0808  -26.9119   19.5187 C   0  0  0  0  0  0
  -24.8904  -27.6732   19.5153 C   0  0  0  0  0  0
  -23.6220  -29.8136   20.1605 C   0  0  0  0  0  0
  -25.4073  -36.3073   24.0333 C   0  0  1  0  0  0
  -20.5887  -28.3719   23.1269 C   0  0  2  0  0  0
  -20.6769  -26.9441   22.5382 C   0  0  0  0  0  0
  -19.5730  -26.6418   21.5198 C   0  0  0  0  0  0
  -18.1907  -26.7994   22.1630 C   0  0  0  0  0  0
  -19.1541  -28.8886   23.2910 C   0  0  0  0  0  0
  -18.9471  -30.1482   23.8944 C   0  0  0  0  0  0
  -17.6451  -30.6617   24.0558 C   0  0  0  0  0  0
  -25.9015  -34.9441   23.5140 C   0  0  0  0  0  0
  -16.5351  -29.9135   23.6308 C   0  0  0  0  0  0
  -16.7266  -28.6552   23.0341 C   0  0  0  0  0  0
  -26.4532  -31.6579   25.0726 C   0  0  0  0  0  0
  -25.3749  -31.3676   26.1440 C   0  0  0  0  0  0
  -27.0398  -30.3053   24.6010 C   0  0  0  0  0  0
  -27.6138  -32.4321   25.7467 C   0  0  0  0  0  0
  -27.5561  -37.1751   24.8474 C   0  0  0  0  0  0
  -21.4178  -29.3083   22.3687 N   0  0  0  0  0  0
  -26.4262  -37.3771   23.9443 N   0  0  0  0  0  0
  -24.6790  -31.0779   22.0948 N   0  0  0  0  0  0
  -23.4239  -28.8183   23.2942 O   0  0  0  0  0  0
  -28.4612  -26.7306   20.1636 O   0  0  0  0  0  0
  -26.5485  -34.8875   22.4646 O   0  0  0  0  0  0
  -23.5410  -32.1411   23.7420 O   0  0  0  0  0  0
  -27.1531  -24.6755   21.9013 C   0  0  0  0  0  0
  -28.0831  -24.3772   20.9461 C   0  0  0  0  0  0
  -28.4300  -22.9957   21.2226 C   0  0  0  0  0  0
  -25.9721  -23.3800   23.7212 C   0  0  0  0  0  0
  -27.6806  -20.5224   19.7098 C   0  0  0  0  0  0
  -28.5786  -25.3235   19.8586 C   0  0  0  0  0  0
  -29.4625  -22.0842   20.5312 C   0  0  0  0  0  0
  -29.3921  -18.1169   20.5520 C   0  0  0  0  0  0
  -30.2958  -17.0106   21.2095 C   0  0  0  0  0  0
  -29.5052  -19.5792   21.1460 C   0  0  0  0  0  0
  -27.7257  -22.5235   22.2532 N   0  0  0  0  0  0
  -26.9318  -23.5457   22.6473 N   0  0  0  0  0  0
  -29.8882  -15.6000   20.9507 N   0  0  0  0  0  0
  -29.0740  -20.6671   20.1964 N   0  3  1  0  0  0
  -31.4739  -12.4933   19.1118 H   0  0  0  0  0  0
  -30.3784  -11.3580   19.8580 H   0  0  0  0  0  0
  -29.7464  -11.7326   17.4629 H   0  0  0  0  0  0
  -29.6546  -13.4549   17.7165 H   0  0  0  0  0  0
  -27.8242  -11.3090   18.8205 H   0  0  0  0  0  0
  -27.3711  -12.6304   17.7849 H   0  0  0  0  0  0
  -27.6876  -14.2555   19.5589 H   0  0  0  0  0  0
  -28.7048  -11.9896   21.3339 H   0  0  0  0  0  0
  -28.4563  -13.6243   21.8648 H   0  0  0  0  0  0
  -25.2716   -9.5720   22.4730 H   0  0  0  0  0  0
  -23.9981   -7.4646   22.7452 H   0  0  0  0  0  0
  -21.0806   -8.8700   19.8955 H   0  0  0  0  0  0
  -22.3580  -10.9629   19.6167 H   0  0  0  0  0  0
  -21.1999   -7.6127   23.9679 H   0  0  0  0  0  0
  -21.1479   -6.0534   25.9053 H   0  0  0  0  0  0
  -22.0602   -2.7586   23.2886 H   0  0  0  0  0  0
  -22.4158  -11.9899   22.4820 H   0  0  0  0  0  0
  -21.1111  -13.1243   22.2553 H   0  0  0  0  0  0
  -24.6763  -15.8488   20.5226 H   0  0  0  0  0  0
  -26.2814  -15.6077   20.0560 H   0  0  0  0  0  0
  -26.7187  -32.5503   23.1231 H   0  0  0  0  0  0
  -25.0414  -33.9798   25.0725 H   0  0  0  0  0  0
  -22.7089  -31.3106   21.3960 H   0  0  0  0  0  0
  -23.3744  -35.9555   23.3232 H   0  0  0  0  0  0
  -24.3585  -36.8879   22.2031 H   0  0  0  0  0  0
  -23.7162  -37.6432   23.6621 H   0  0  0  0  0  0
  -26.0008  -31.5991   20.5563 H   0  0  0  0  0  0
  -26.8430  -30.9356   21.9249 H   0  0  0  0  0  0
  -28.1149  -29.1167   21.1425 H   0  0  0  0  0  0
  -26.0643  -25.9314   19.0669 H   0  0  0  0  0  0
  -23.9963  -27.2709   19.0598 H   0  0  0  0  0  0
  -23.7201  -30.5858   19.3937 H   0  0  0  0  0  0
  -22.7487  -29.2271   19.8734 H   0  0  0  0  0  0
  -25.1221  -36.1935   25.0824 H   0  0  0  0  0  0
  -21.0018  -28.3256   24.1364 H   0  0  0  0  0  0
  -20.5627  -26.2347   23.3576 H   0  0  0  0  0  0
  -21.6637  -26.7450   22.1186 H   0  0  0  0  0  0
  -19.6876  -25.6320   21.1266 H   0  0  0  0  0  0
  -19.6661  -27.3187   20.6676 H   0  0  0  0  0  0
  -17.4181  -26.6747   21.4010 H   0  0  0  0  0  0
  -18.0301  -26.0156   22.9038 H   0  0  0  0  0  0
  -19.7925  -30.7290   24.2389 H   0  0  0  0  0  0
  -17.4993  -31.6291   24.5163 H   0  0  0  0  0  0
  -15.5361  -30.3031   23.7597 H   0  0  0  0  0  0
  -15.8683  -28.0851   22.7063 H   0  0  0  0  0  0
  -24.5936  -30.7038   25.7720 H   0  0  0  0  0  0
  -24.8900  -32.2825   26.4853 H   0  0  0  0  0  0
  -25.7989  -30.8847   27.0245 H   0  0  0  0  0  0
  -26.2928  -29.6772   24.1148 H   0  0  0  0  0  0
  -27.4383  -29.7311   25.4387 H   0  0  0  0  0  0
  -27.8627  -30.4469   23.8996 H   0  0  0  0  0  0
  -27.2829  -33.3662   26.2022 H   0  0  0  0  0  0
  -28.3931  -32.6857   25.0256 H   0  0  0  0  0  0
  -28.0854  -31.8479   26.5386 H   0  0  0  0  0  0
  -28.2568  -38.0054   24.7586 H   0  0  0  0  0  0
  -28.1057  -36.2607   24.6236 H   0  0  0  0  0  0
  -27.2279  -37.1301   25.8865 H   0  0  0  0  0  0
  -20.9356  -29.8868   21.6925 H   0  0  0  0  0  0
  -26.0131  -38.2825   24.1526 H   0  0  0  0  0  0
  -26.6164  -25.5951   22.0958 H   0  0  0  0  0  0
  -26.4018  -23.7217   24.6649 H   0  0  0  0  0  0
  -25.6858  -22.3331   23.8137 H   0  0  0  0  0  0
  -25.0705  -23.9619   23.5090 H   0  0  0  0  0  0
  -26.9840  -20.4033   20.5374 H   0  0  0  0  0  0
  -27.5904  -19.6447   19.0727 H   0  0  0  0  0  0
  -27.3618  -21.3880   19.1249 H   0  0  0  0  0  0
  -28.1353  -25.1001   18.8882 H   0  0  0  0  0  0
  -29.6452  -25.1505   19.7158 H   0  0  0  0  0  0
  -30.4100  -22.1009   21.0690 H   0  0  0  0  0  0
  -29.7023  -22.5414   19.5716 H   0  0  0  0  0  0
  -28.3442  -17.8134   20.6040 H   0  0  0  0  0  0
  -29.6390  -18.1458   19.4893 H   0  0  0  0  0  0
  -31.3289  -17.1634   20.8950 H   0  0  0  0  0  0
  -30.2952  -17.1470   22.2908 H   0  0  0  0  0  0
  -30.5355  -19.7617   21.4632 H   0  0  0  0  0  0
  -28.9058  -19.6491   22.0542 H   0  0  0  0  0  0
  -28.9261  -15.3724   21.1480 H   0  0  0  0  0  0
  -29.6547  -20.4988   19.3858 H   0  0  0  0  0  0
  1 25  1  0  0  0
  1 30  2  0  0  0
  1 83  1  0  0  0
  2  3  1  0  0  0
  2 25  1  0  0  0
  2 85  1  0  0  0
  2 86  1  0  0  0
  3  4  1  0  0  0
  3 87  1  0  0  0
  3 88  1  0  0  0
  4  5  1  0  0  0
  4 89  1  0  0  0
  4 90  1  0  0  0
  5  6  1  0  0  0
  5 26  1  0  0  0
  5 91  1  0  0  0
  6 25  1  0  0  0
  6 92  1  0  0  0
  6 93  1  0  0  0
  7  8  2  0  0  0
  7 26  1  0  0  0
  7 29  1  0  0  0
  8  9  1  0  0  0
  8 22  1  0  0  0
  9 10  1  0  0  0
  9 27  2  0  0  0
 10 11  2  0  0  0
 10 15  1  0  0  0
 11 12  1  0  0  0
 11 94  1  0  0  0
 12 13  2  0  0  0
 12 95  1  0  0  0
 13 14  1  0  0  0
 13 31  1  0  0  0
 14 15  2  0  0  0
 14 96  1  0  0  0
 15 97  1  0  0  0
 16 17  2  0  0  0
 16 21  1  0  0  0
 16 31  1  0  0  0
 17 18  1  0  0  0
 17 98  1  0  0  0
 18 19  2  0  0  0
 18 99  1  0  0  0
 19 20  1  0  0  0
 19 24  1  0  0  0
 20 21  2  0  0  0
 20100  1  0  0  0
 21 23  1  0  0  0
 22 28  1  0  0  0
 22 32  2  0  0  0
 26 27  1  0  0  0
 28101  1  0  0  0
 28102  1  0  0  0
 29103  1  0  0  0
 29104  1  0  0  0
 33 34  1  0  0  0
 33 66  1  0  0  0
 33 70  2  0  0  0
 34 36  1  0  0  0
 34 59  1  0  0  0
 34105  1  0  0  0
 35 44  2  0  0  0
 35 45  1  0  0  0
 35 68  1  0  0  0
 36 56  1  0  0  0
 36106  1  0  0  0
 37 39  1  0  0  0
 37 47  1  0  0  0
 37 66  1  0  0  0
 37107  1  0  0  0
 38 43  2  0  0  0
 38 46  1  0  0  0
 38 47  1  0  0  0
 39 64  1  0  0  0
 39 67  2  0  0  0
 40 52  1  0  0  0
 40 53  2  0  0  0
 40 58  1  0  0  0
 41108  1  0  0  0
 41109  1  0  0  0
 41110  1  0  0  0
 41 48  1  0  0  0
 42 43  1  0  0  0
 42 66  1  0  0  0
 42111  1  0  0  0
 42112  1  0  0  0
 43 44  1  0  0  0
 44113  1  0  0  0
 45 46  2  0  0  0
 45114  1  0  0  0
 46115  1  0  0  0
 47116  1  0  0  0
 47117  1  0  0  0
 48 56  1  0  0  0
 48 65  1  0  0  0
 48118  1  0  0  0
 49 50  1  0  0  0
 49 53  1  0  0  0
 49 64  1  0  0  0
 49119  1  0  0  0
 50 51  1  0  0  0
 50120  1  0  0  0
 50121  1  0  0  0
 51 52  1  0  0  0
 51122  1  0  0  0
 51123  1  0  0  0
 52124  1  0  0  0
 52125  1  0  0  0
 53 54  1  0  0  0
 54 55  2  0  0  0
 54126  1  0  0  0
 55 57  1  0  0  0
 55127  1  0  0  0
 56 69  2  0  0  0
 57 58  2  0  0  0
 57128  1  0  0  0
 58129  1  0  0  0
 59 60  1  0  0  0
 59 61  1  0  0  0
 59 62  1  0  0  0
 60130  1  0  0  0
 60131  1  0  0  0
 60132  1  0  0  0
 61133  1  0  0  0
 61134  1  0  0  0
 61135  1  0  0  0
 62136  1  0  0  0
 62137  1  0  0  0
 62138  1  0  0  0
 63 65  1  0  0  0
 63139  1  0  0  0
 63140  1  0  0  0
 63141  1  0  0  0
 64142  1  0  0  0
 65143  1  0  0  0
 68 76  1  0  0  0
 71 72  2  0  0  0
 71 82  1  0  0  0
 71144  1  0  0  0
 72 73  1  0  0  0
 72 76  1  0  0  0
 73 77  1  0  0  0
 73 81  2  0  0  0
 74 82  1  0  0  0
 74145  1  0  0  0
 74146  1  0  0  0
 74147  1  0  0  0
 75148  1  0  0  0
 75149  1  0  0  0
 75150  1  0  0  0
 75 84  1  0  0  0
 76151  1  0  0  0
 76152  1  0  0  0
 77 84  1  0  0  0
 77153  1  0  0  0
 77154  1  0  0  0
 78 79  1  0  0  0
 78 80  1  0  0  0
 78155  1  0  0  0
 78156  1  0  0  0
 79 83  1  0  0  0
 79157  1  0  0  0
 79158  1  0  0  0
 80 84  1  0  0  0
 80159  1  0  0  0
 80160  1  0  0  0
 81 82  1  0  0  0
 83161  1  0  0  0
 84162  1  0  0  0
M  CHG  1  84   1
M  ISO  4   1 100  68 101  76 101  83 100
M  END
> <chiral flag>
0

> <version>
0

> <s_m_source_file>
/data/baiqing/PycharmProjects/Reinvent-master-3.2/result/LINK_invent/BTK/process_docking_weight1_custom_sum_contain_oxygen_bond_distance_aromatic_linkinvent_7_9_3/rearranged_h_0054.sdf

> <i_m_source_file_index>
94

> <r_mmod_Potential_Energy-OPLS-2005>
-239.129592895508

> <r_mmod_Stretch_Energy-OPLS-2005>
52.0432815551758

> <r_mmod_Bend_Energy-OPLS-2005>
128.733825683594

> <r_mmod_Torsional_Energy-OPLS-2005>
210.191497802734

> <r_mmod_Improper_Torsional_Energy-OPLS-2005>
3.80498576164246

> <r_mmod_Van_der_Waal_Energy-OPLS-2005>
117.571746826172

> <r_mmod_Electrostatic_Energy-OPLS-2005>
-319.658386230469

> <r_mmod_Solvation_Energy-OPLS-2005>
-454.865356445312

> <b_mmod_Minimization_Converged-OPLS-2005>
0

> <r_mmod_RMS_Derivative-OPLS-2005>
5.6590690612793

$$$$
