0
                    3D
 Structure written by MMmdl.
187195  0  0  1  0            999 V2000
  -30.6113  -14.5437   20.4124 C   0  0  0  0  0  0
  -30.4012  -12.3048   19.4970 C   0  0  0  0  0  0
  -29.4860  -12.4407   18.2601 C   0  0  0  0  0  0
  -28.0075  -12.3443   18.6645 C   0  0  0  0  0  0
  -27.6209  -13.2079   19.8880 C   0  0  2  0  0  0
  -28.6618  -13.1097   21.0202 C   0  0  0  0  0  0
  -25.2319  -13.8054   20.5781 C   0  0  0  0  0  0
  -24.1573  -13.0287   20.9208 C   0  0  0  0  0  0
  -24.6234  -11.6798   20.8783 C   0  0  0  0  0  0
  -23.8912  -10.4258   21.0438 C   0  0  0  0  0  0
  -24.3502   -9.4275   21.9247 C   0  0  0  0  0  0
  -23.6266   -8.2229   22.0737 C   0  0  0  0  0  0
  -22.4268   -8.0259   21.3532 C   0  0  0  0  0  0
  -21.9868   -9.0202   20.4587 C   0  0  0  0  0  0
  -22.7067  -10.2135   20.3068 C   0  0  0  0  0  0
  -21.6928   -6.0665   22.5227 C   0  0  0  0  0  0
  -21.4057   -6.5610   23.8129 C   0  0  0  0  0  0
  -21.3657   -5.6771   24.9109 C   0  0  0  0  0  0
  -21.6001   -4.3017   24.7199 C   0  0  0  0  0  0
  -21.8838   -3.8096   23.4342 C   0  0  0  0  0  0
  -21.9215   -4.6903   22.3374 C   0  0  0  0  0  0
  -22.7678  -13.5184   21.1909 C   0  0  0  0  0  0
  -22.1680   -4.2067   21.0972 F   0  0  0  0  0  0
  -21.5611   -3.4531   25.7731 F   0  0  0  0  0  0
  -29.9980  -13.3378   20.4573 N   0  0  0  0  0  0
  -26.2747  -12.9222   20.3473 N   0  0  0  0  0  0
  -25.9179  -11.6401   20.5874 N   0  0  0  0  0  0
  -22.0341  -12.8148   22.0494 N   0  0  0  0  0  0
  -25.4025  -15.1766   20.4330 N   0  0  0  0  0  0
  -31.8411  -14.6476   20.3368 O   0  0  0  0  0  0
  -21.6693   -6.8849   21.4194 O   0  0  0  0  0  0
  -22.3417  -14.5543   20.6881 O   0  0  0  0  0  0
  -24.6123  -31.8713   23.2075 C   0  0  0  0  0  0
  -25.9057  -32.4813   23.8381 C   0  0  1  0  0  0
  -27.2176  -27.4371   20.1161 C   0  0  0  0  0  0
  -25.5921  -33.8598   24.2339 N   0  0  0  0  0  0
  -23.3986  -30.4972   21.5534 C   0  0  2  0  0  0
  -24.8406  -28.9694   20.1105 C   0  0  0  0  0  0
  -22.7375  -29.4685   22.5010 C   0  0  0  0  0  0
  -18.0279  -28.1372   22.8506 C   0  0  0  0  0  0
  -24.1502  -36.7330   23.2635 C   0  0  0  0  0  0
  -25.9241  -30.8445   21.3499 C   0  0  0  0  0  0
  -25.9967  -29.4775   20.7026 C   0  0  0  0  0  0
  -27.1931  -28.7247   20.6982 C   0  0  0  0  0  0
  -26.0413  -26.9429   19.5109 C   0  0  0  0  0  0
  -24.8592  -27.7002   19.5014 C   0  0  0  0  0  0
  -23.5996  -29.8320   20.1656 C   0  0  0  0  0  0
  -25.4110  -36.3101   24.0336 C   0  0  1  0  0  0
  -20.5884  -28.3665   23.1312 C   0  0  2  0  0  0
  -20.6769  -26.9417   22.5409 C   0  0  0  0  0  0
  -19.5742  -26.6394   21.5206 C   0  0  0  0  0  0
  -18.1920  -26.7915   22.1623 C   0  0  0  0  0  0
  -19.1538  -28.8827   23.2923 C   0  0  0  0  0  0
  -18.9455  -30.1431   23.8934 C   0  0  0  0  0  0
  -17.6455  -30.6592   24.0567 C   0  0  0  0  0  0
  -25.9036  -34.9472   23.5124 C   0  0  0  0  0  0
  -16.5356  -29.9102   23.6340 C   0  0  0  0  0  0
  -16.7255  -28.6521   23.0344 C   0  0  0  0  0  0
  -26.4472  -31.6573   25.0701 C   0  0  0  0  0  0
  -25.3756  -31.3677   26.1462 C   0  0  0  0  0  0
  -27.0291  -30.3026   24.6016 C   0  0  0  0  0  0
  -27.6063  -32.4274   25.7468 C   0  0  0  0  0  0
  -27.5593  -37.1823   24.8475 C   0  0  0  0  0  0
  -21.4120  -29.3044   22.3743 N   0  0  0  0  0  0
  -26.4298  -37.3794   23.9401 N   0  0  0  0  0  0
  -24.6663  -31.0840   22.0983 N   0  0  0  0  0  0
  -23.4178  -28.8230   23.3066 O   0  0  0  0  0  0
  -28.4010  -26.7244   20.1564 O   0  0  0  0  0  0
  -26.5583  -34.8932   22.4688 O   0  0  0  0  0  0
  -23.5332  -32.1418   23.7543 O   0  0  0  0  0  0
  -28.8858  -16.6317   20.5672 C   0  0  0  0  0  0
  -30.4974  -23.6525   20.6816 C   0  0  0  0  0  0
  -28.6210  -23.7506   22.2156 C   0  0  0  0  0  0
  -30.3306  -22.2939   21.3854 C   0  0  1  0  0  0
  -28.8310  -22.3014   21.7007 C   0  0  1  0  0  0
  -29.4306  -24.6835   21.2282 C   0  0  1  0  0  0
  -27.9228  -17.3654   19.6316 C   0  0  0  0  0  0
  -30.8805  -21.1071   20.5748 C   0  0  0  0  0  0
  -30.9727  -25.4768   23.2357 C   0  0  0  0  0  0
  -31.0906  -26.7555   21.1084 C   0  0  0  0  0  0
  -28.5782  -24.9017   18.6782 C   0  0  0  0  0  0
  -30.0787  -20.7140   24.3264 C   0  0  0  0  0  0
  -29.8406  -15.7283   19.7636 C   0  0  0  0  0  0
  -28.3242  -18.1619   23.8712 C   0  0  0  0  0  0
  -27.8073  -19.5457   24.3803 C   0  0  0  0  0  0
  -27.9769  -17.8183   22.4102 C   0  0  0  0  0  0
  -30.1607  -25.8674   21.9795 C   0  0  0  0  0  0
  -28.4002  -25.2874   20.1535 C   0  0  2  0  0  0
  -28.5861  -20.8256   23.9224 C   0  0  2  0  0  0
  -28.9163  -16.8426   21.8341 N   0  0  0  0  0  0
  -28.2496  -21.1676   22.4973 N   0  3  0  0  0  0
  -31.4481  -12.4302   19.2044 H   0  0  0  0  0  0
  -30.3144  -11.3210   19.9562 H   0  0  0  0  0  0
  -29.7091  -11.6622   17.5302 H   0  0  0  0  0  0
  -29.6810  -13.3840   17.7583 H   0  0  0  0  0  0
  -27.8223  -11.2998   18.9043 H   0  0  0  0  0  0
  -27.3659  -12.5976   17.8213 H   0  0  0  0  0  0
  -27.5878  -14.2284   19.5320 H   0  0  0  0  0  0
  -28.6205  -12.1538   21.5430 H   0  0  0  0  0  0
  -28.4479  -13.8766   21.7702 H   0  0  0  0  0  0
  -25.2638   -9.5823   22.4836 H   0  0  0  0  0  0
  -24.0012   -7.4649   22.7498 H   0  0  0  0  0  0
  -21.0772   -8.8663   19.8937 H   0  0  0  0  0  0
  -22.3486  -10.9692   19.6183 H   0  0  0  0  0  0
  -21.2139   -7.6137   23.9590 H   0  0  0  0  0  0
  -21.1440   -6.0551   25.8996 H   0  0  0  0  0  0
  -22.0665   -2.7563   23.2856 H   0  0  0  0  0  0
  -22.3957  -11.9717   22.4782 H   0  0  0  0  0  0
  -21.1050  -13.1264   22.2755 H   0  0  0  0  0  0
  -24.6591  -15.8510   20.6071 H   0  0  0  0  0  0
  -26.2865  -15.6153   20.2058 H   0  0  0  0  0  0
  -26.7129  -32.5527   23.1155 H   0  0  0  0  0  0
  -25.0109  -33.9772   25.0485 H   0  0  0  0  0  0
  -22.6853  -31.3131   21.4174 H   0  0  0  0  0  0
  -23.3745  -35.9705   23.3330 H   0  0  0  0  0  0
  -24.3590  -36.8891   22.2053 H   0  0  0  0  0  0
  -23.7305  -37.6562   23.6600 H   0  0  0  0  0  0
  -26.0180  -31.6099   20.5786 H   0  0  0  0  0  0
  -26.8135  -30.9070   21.9625 H   0  0  0  0  0  0
  -28.0858  -29.1217   21.1583 H   0  0  0  0  0  0
  -26.0030  -25.9768   19.0351 H   0  0  0  0  0  0
  -23.9764  -27.3033   19.0200 H   0  0  0  0  0  0
  -23.6968  -30.6037   19.4013 H   0  0  0  0  0  0
  -22.7218  -29.2491   19.8783 H   0  0  0  0  0  0
  -25.1298  -36.1987   25.0830 H   0  0  0  0  0  0
  -20.9966  -28.3235   24.1437 H   0  0  0  0  0  0
  -20.5673  -26.2286   23.3604 H   0  0  0  0  0  0
  -21.6627  -26.7465   22.1210 H   0  0  0  0  0  0
  -19.6907  -25.6317   21.1212 H   0  0  0  0  0  0
  -19.6656  -27.3225   20.6759 H   0  0  0  0  0  0
  -17.4196  -26.6686   21.4025 H   0  0  0  0  0  0
  -18.0320  -26.0048   22.9008 H   0  0  0  0  0  0
  -19.7928  -30.7229   24.2323 H   0  0  0  0  0  0
  -17.5019  -31.6253   24.5168 H   0  0  0  0  0  0
  -15.5361  -30.3000   23.7600 H   0  0  0  0  0  0
  -15.8660  -28.0813   22.7034 H   0  0  0  0  0  0
  -24.5943  -30.6976   25.7822 H   0  0  0  0  0  0
  -24.8910  -32.2831   26.4879 H   0  0  0  0  0  0
  -25.8127  -30.8891   27.0235 H   0  0  0  0  0  0
  -26.2808  -29.6808   24.1064 H   0  0  0  0  0  0
  -27.4092  -29.7220   25.4431 H   0  0  0  0  0  0
  -27.8626  -30.4359   23.9116 H   0  0  0  0  0  0
  -27.2682  -33.3567   26.2064 H   0  0  0  0  0  0
  -28.3865  -32.6831   25.0289 H   0  0  0  0  0  0
  -28.0722  -31.8374   26.5368 H   0  0  0  0  0  0
  -28.2631  -38.0099   24.7481 H   0  0  0  0  0  0
  -28.1061  -36.2630   24.6340 H   0  0  0  0  0  0
  -27.2297  -37.1531   25.8874 H   0  0  0  0  0  0
  -20.9268  -29.8802   21.6989 H   0  0  0  0  0  0
  -26.0205  -38.2884   24.1351 H   0  0  0  0  0  0
  -30.4342  -23.4985   19.6141 H   0  0  0  0  0  0
  -31.5154  -23.9879   20.8734 H   0  0  0  0  0  0
  -29.0257  -23.8096   23.2187 H   0  0  0  0  0  0
  -27.5672  -24.0141   22.3430 H   0  0  0  0  0  0
  -30.8974  -22.3715   22.3064 H   0  0  0  0  0  0
  -28.3353  -22.2147   20.7266 H   0  0  0  0  0  0
  -28.1911  -18.4256   19.5811 H   0  0  0  0  0  0
  -26.8917  -17.2806   19.9783 H   0  0  0  0  0  0
  -27.9739  -16.9736   18.6131 H   0  0  0  0  0  0
  -31.8692  -21.3732   20.1819 H   0  0  0  0  0  0
  -30.2500  -20.7950   19.7365 H   0  0  0  0  0  0
  -31.0022  -20.2227   21.2000 H   0  0  0  0  0  0
  -30.3277  -25.2255   24.0745 H   0  0  0  0  0  0
  -31.5670  -26.3243   23.5699 H   0  0  0  0  0  0
  -31.6553  -24.6520   23.0596 H   0  0  0  0  0  0
  -30.7109  -27.0312   20.1280 H   0  0  0  0  0  0
  -32.0601  -26.3069   20.9343 H   0  0  0  0  0  0
  -31.2652  -27.7021   21.6134 H   0  0  0  0  0  0
  -28.3681  -23.8445   18.5172 H   0  0  0  0  0  0
  -29.5780  -25.1364   18.3121 H   0  0  0  0  0  0
  -27.8817  -25.4391   18.0372 H   0  0  0  0  0  0
  -30.1505  -20.3215   25.3454 H   0  0  0  0  0  0
  -30.5939  -21.6734   24.3717 H   0  0  0  0  0  0
  -30.6585  -20.0257   23.7136 H   0  0  0  0  0  0
  -30.5593  -16.3928   19.2856 H   0  0  0  0  0  0
  -29.3108  -15.2968   18.9188 H   0  0  0  0  0  0
  -27.8750  -17.3757   24.4868 H   0  0  0  0  0  0
  -29.3976  -18.0658   24.0476 H   0  0  0  0  0  0
  -27.8687  -19.5231   25.4687 H   0  0  0  0  0  0
  -26.7428  -19.6668   24.1849 H   0  0  0  0  0  0
  -27.9901  -18.7448   21.8384 H   0  0  0  0  0  0
  -26.9535  -17.4400   22.3543 H   0  0  0  0  0  0
  -29.3726  -26.5206   22.3628 H   0  0  0  0  0  0
  -27.4105  -24.9358   20.4392 H   0  0  0  0  0  0
  -28.1971  -21.6595   24.5058 H   0  0  0  0  0  0
  -28.3691  -20.3358   21.9483 H   0  0  0  0  0  0
  -27.2551  -21.3695   22.5187 H   0  0  0  0  0  0
  1 25  1  0  0  0
  1 30  2  0  0  0
  1 83  1  0  0  0
  2  3  1  0  0  0
  2 25  1  0  0  0
  2 92  1  0  0  0
  2 93  1  0  0  0
  3  4  1  0  0  0
  3 94  1  0  0  0
  3 95  1  0  0  0
  4  5  1  0  0  0
  4 96  1  0  0  0
  4 97  1  0  0  0
  5  6  1  0  0  0
  5 26  1  0  0  0
  5 98  1  0  0  0
  6 25  1  0  0  0
  6 99  1  0  0  0
  6100  1  0  0  0
  7  8  2  0  0  0
  7 26  1  0  0  0
  7 29  1  0  0  0
  8  9  1  0  0  0
  8 22  1  0  0  0
  9 10  1  0  0  0
  9 27  2  0  0  0
 10 11  2  0  0  0
 10 15  1  0  0  0
 11 12  1  0  0  0
 11101  1  0  0  0
 12 13  2  0  0  0
 12102  1  0  0  0
 13 14  1  0  0  0
 13 31  1  0  0  0
 14 15  2  0  0  0
 14103  1  0  0  0
 15104  1  0  0  0
 16 17  2  0  0  0
 16 21  1  0  0  0
 16 31  1  0  0  0
 17 18  1  0  0  0
 17105  1  0  0  0
 18 19  2  0  0  0
 18106  1  0  0  0
 19 20  1  0  0  0
 19 24  1  0  0  0
 20 21  2  0  0  0
 20107  1  0  0  0
 21 23  1  0  0  0
 22 28  1  0  0  0
 22 32  2  0  0  0
 26 27  1  0  0  0
 28108  1  0  0  0
 28109  1  0  0  0
 29110  1  0  0  0
 29111  1  0  0  0
 33 34  1  0  0  0
 33 66  1  0  0  0
 33 70  2  0  0  0
 34 36  1  0  0  0
 34 59  1  0  0  0
 34112  1  0  0  0
 35 44  2  0  0  0
 35 45  1  0  0  0
 35 68  1  0  0  0
 36 56  1  0  0  0
 36113  1  0  0  0
 37 39  1  0  0  0
 37 47  1  0  0  0
 37 66  1  0  0  0
 37114  1  0  0  0
 38 43  2  0  0  0
 38 46  1  0  0  0
 38 47  1  0  0  0
 39 64  1  0  0  0
 39 67  2  0  0  0
 40 52  1  0  0  0
 40 53  2  0  0  0
 40 58  1  0  0  0
 41115  1  0  0  0
 41116  1  0  0  0
 41117  1  0  0  0
 41 48  1  0  0  0
 42 43  1  0  0  0
 42 66  1  0  0  0
 42118  1  0  0  0
 42119  1  0  0  0
 43 44  1  0  0  0
 44120  1  0  0  0
 45 46  2  0  0  0
 45121  1  0  0  0
 46122  1  0  0  0
 47123  1  0  0  0
 47124  1  0  0  0
 48 56  1  0  0  0
 48 65  1  0  0  0
 48125  1  0  0  0
 49 50  1  0  0  0
 49 53  1  0  0  0
 49 64  1  0  0  0
 49126  1  0  0  0
 50 51  1  0  0  0
 50127  1  0  0  0
 50128  1  0  0  0
 51 52  1  0  0  0
 51129  1  0  0  0
 51130  1  0  0  0
 52131  1  0  0  0
 52132  1  0  0  0
 53 54  1  0  0  0
 54 55  2  0  0  0
 54133  1  0  0  0
 55 57  1  0  0  0
 55134  1  0  0  0
 56 69  2  0  0  0
 57 58  2  0  0  0
 57135  1  0  0  0
 58136  1  0  0  0
 59 60  1  0  0  0
 59 61  1  0  0  0
 59 62  1  0  0  0
 60137  1  0  0  0
 60138  1  0  0  0
 60139  1  0  0  0
 61140  1  0  0  0
 61141  1  0  0  0
 61142  1  0  0  0
 62143  1  0  0  0
 62144  1  0  0  0
 62145  1  0  0  0
 63 65  1  0  0  0
 63146  1  0  0  0
 63147  1  0  0  0
 63148  1  0  0  0
 64149  1  0  0  0
 65150  1  0  0  0
 68 88  1  0  0  0
 71 77  1  0  0  0
 71 83  1  0  0  0
 71 90  2  0  0  0
 72 74  1  0  0  0
 72151  1  0  0  0
 72152  1  0  0  0
 72 76  1  0  0  0
 73 75  1  0  0  0
 73 76  1  0  0  0
 73153  1  0  0  0
 73154  1  0  0  0
 74 75  1  0  0  0
 74 78  1  0  0  0
 74155  1  0  0  0
 75 91  1  0  0  0
 75156  1  0  0  0
 76 87  1  0  0  0
 76 88  1  0  0  0
 77157  1  0  0  0
 77158  1  0  0  0
 77159  1  0  0  0
 78160  1  0  0  0
 78161  1  0  0  0
 78162  1  0  0  0
 79163  1  0  0  0
 79164  1  0  0  0
 79165  1  0  0  0
 79 87  1  0  0  0
 80 87  1  0  0  0
 80166  1  0  0  0
 80167  1  0  0  0
 80168  1  0  0  0
 81169  1  0  0  0
 81170  1  0  0  0
 81171  1  0  0  0
 81 88  1  0  0  0
 82172  1  0  0  0
 82173  1  0  0  0
 82174  1  0  0  0
 82 89  1  0  0  0
 83175  1  0  0  0
 83176  1  0  0  0
 84 85  1  0  0  0
 84 86  1  0  0  0
 84177  1  0  0  0
 84178  1  0  0  0
 85 89  1  0  0  0
 85179  1  0  0  0
 85180  1  0  0  0
 86 90  1  0  0  0
 86181  1  0  0  0
 86182  1  0  0  0
 87183  1  0  0  0
 88184  1  0  0  0
 89 91  1  0  0  0
 89185  1  0  0  0
 91186  1  0  0  0
 91187  1  0  0  0
M  CHG  1  91   1
M  ISO  4   1 100  68 101  83 100  88 101
M  END
> <chiral flag>
0

> <version>
0

> <s_m_source_file>
/data/baiqing/PycharmProjects/Reinvent-master-3.2/result/LINK_invent/BTK/process_docking_weight1_custom_sum_contain_oxygen_bond_distance_aromatic_linkinvent_7_9_3/rearranged_h_0021.sdf

> <i_m_source_file_index>
1

> <r_mmod_Potential_Energy-OPLS-2005>
166.476776123047

> <r_mmod_Stretch_Energy-OPLS-2005>
60.1942024230957

> <r_mmod_Bend_Energy-OPLS-2005>
232.443756103516

> <r_mmod_Torsional_Energy-OPLS-2005>
337.35986328125

> <r_mmod_Improper_Torsional_Energy-OPLS-2005>
21.9519538879395

> <r_mmod_Van_der_Waal_Energy-OPLS-2005>
148.904067993164

> <r_mmod_Electrostatic_Energy-OPLS-2005>
-242.040191650391

> <r_mmod_Solvation_Energy-OPLS-2005>
-430.543365478516

> <b_mmod_Minimization_Converged-OPLS-2005>
0

> <r_mmod_RMS_Derivative-OPLS-2005>
13.83469581604

$$$$
1
                    3D
 Structure written by MMmdl.
159167  0  0  1  0            999 V2000
  -30.7021  -14.5778   20.5354 C   0  0  0  0  0  0
  -30.4171  -12.3670   19.4492 C   0  0  0  0  0  0
  -29.4973  -12.5068   18.2198 C   0  0  0  0  0  0
  -28.0207  -12.3560   18.6307 C   0  0  0  0  0  0
  -27.6498  -13.2258   19.8620 C   0  0  2  0  0  0
  -28.6944  -13.0921   20.9928 C   0  0  0  0  0  0
  -25.2510  -13.8177   20.5653 C   0  0  0  0  0  0
  -24.1806  -13.0433   20.9205 C   0  0  0  0  0  0
  -24.6396  -11.6913   20.8752 C   0  0  0  0  0  0
  -23.9069  -10.4289   21.0405 C   0  0  0  0  0  0
  -24.3621   -9.4204   21.9183 C   0  0  0  0  0  0
  -23.6292   -8.2242   22.0754 C   0  0  0  0  0  0
  -22.4273   -8.0279   21.3544 C   0  0  0  0  0  0
  -21.9912   -9.0250   20.4645 C   0  0  0  0  0  0
  -22.7241  -10.2129   20.3053 C   0  0  0  0  0  0
  -21.6856   -6.0730   22.5277 C   0  0  0  0  0  0
  -21.4013   -6.5636   23.8207 C   0  0  0  0  0  0
  -21.3661   -5.6792   24.9174 C   0  0  0  0  0  0
  -21.6048   -4.3054   24.7227 C   0  0  0  0  0  0
  -21.8821   -3.8142   23.4347 C   0  0  0  0  0  0
  -21.9191   -4.6956   22.3401 C   0  0  0  0  0  0
  -22.7826  -13.5219   21.1856 C   0  0  0  0  0  0
  -22.1661   -4.2142   21.0978 F   0  0  0  0  0  0
  -21.5629   -3.4539   25.7740 F   0  0  0  0  0  0
  -30.0128  -13.4016   20.4218 N   0  0  0  0  0  0
  -26.2966  -12.9393   20.3317 N   0  0  0  0  0  0
  -25.9329  -11.6538   20.5774 N   0  0  0  0  0  0
  -22.0475  -12.8209   22.0420 N   0  0  0  0  0  0
  -25.4148  -15.1880   20.3949 N   0  0  0  0  0  0
  -31.8624  -14.6754   20.1301 O   0  0  0  0  0  0
  -21.6640   -6.8874   21.4238 O   0  0  0  0  0  0
  -22.3504  -14.5521   20.6698 O   0  0  0  0  0  0
  -24.6249  -31.8629   23.2077 C   0  0  0  0  0  0
  -25.9104  -32.4794   23.8387 C   0  0  1  0  0  0
  -27.2125  -27.3381   20.1035 C   0  0  0  0  0  0
  -25.5926  -33.8596   24.2308 N   0  0  0  0  0  0
  -23.4162  -30.4917   21.5503 C   0  0  2  0  0  0
  -24.8593  -28.9612   20.1078 C   0  0  0  0  0  0
  -22.7461  -29.4646   22.4935 C   0  0  0  0  0  0
  -18.0285  -28.1385   22.8480 C   0  0  0  0  0  0
  -24.1489  -36.7299   23.2637 C   0  0  0  0  0  0
  -25.9587  -30.7994   21.3790 C   0  0  0  0  0  0
  -26.0308  -29.4315   20.7156 C   0  0  0  0  0  0
  -27.2105  -28.6308   20.7086 C   0  0  0  0  0  0
  -26.0181  -26.9331   19.4549 C   0  0  0  0  0  0
  -24.8544  -27.7158   19.4698 C   0  0  0  0  0  0
  -23.6282  -29.8384   20.1619 C   0  0  0  0  0  0
  -25.4113  -36.3087   24.0331 C   0  0  1  0  0  0
  -20.5884  -28.3686   23.1275 C   0  0  2  0  0  0
  -20.6773  -26.9410   22.5405 C   0  0  0  0  0  0
  -19.5747  -26.6386   21.5209 C   0  0  0  0  0  0
  -18.1924  -26.7927   22.1621 C   0  0  0  0  0  0
  -19.1538  -28.8851   23.2874 C   0  0  0  0  0  0
  -18.9466  -30.1452   23.8891 C   0  0  0  0  0  0
  -17.6469  -30.6584   24.0561 C   0  0  0  0  0  0
  -25.9049  -34.9453   23.5110 C   0  0  0  0  0  0
  -16.5353  -29.9087   23.6331 C   0  0  0  0  0  0
  -16.7274  -28.6508   23.0343 C   0  0  0  0  0  0
  -26.4490  -31.6589   25.0740 C   0  0  0  0  0  0
  -25.3731  -31.3725   26.1468 C   0  0  0  0  0  0
  -27.0327  -30.3010   24.6185 C   0  0  0  0  0  0
  -27.6053  -32.4320   25.7515 C   0  0  0  0  0  0
  -27.5579  -37.1803   24.8465 C   0  0  0  0  0  0
  -21.4179  -29.3047   22.3669 N   0  0  0  0  0  0
  -26.4292  -37.3781   23.9408 N   0  0  0  0  0  0
  -24.6855  -31.0659   22.1025 N   0  0  0  0  0  0
  -23.4200  -28.8163   23.2983 O   0  0  0  0  0  0
  -28.3129  -26.4667   20.1707 O   0  0  0  0  0  0
  -26.5614  -34.8915   22.4676 O   0  0  0  0  0  0
  -23.5415  -32.1427   23.7407 O   0  0  0  0  0  0
  -30.1963  -20.7789   20.2845 C   0  0  0  0  0  0
  -30.7575  -19.4828   20.4638 C   0  0  0  0  0  0
  -28.8498  -21.0612   20.5913 C   0  0  0  0  0  0
  -29.9901  -18.3877   20.9782 C   0  0  0  0  0  0
  -28.6333  -18.6715   21.3112 C   0  0  0  0  0  0
  -28.0706  -19.9719   21.0874 C   0  0  0  0  0  0
  -32.2256  -19.3176   20.1016 C   0  0  0  0  0  0
  -27.7787  -17.5731   21.9366 C   0  0  0  0  0  0
  -28.1971  -22.4547   20.2837 C   0  0  0  0  0  0
  -30.6748  -17.0027   21.2948 C   0  0  0  0  0  0
  -28.9545  -23.8423   20.4083 C   0  0  0  0  0  0
  -28.0009  -25.0353   19.9923 C   0  0  0  0  0  0
  -30.0364  -15.6819   20.9802 N   0  0  0  0  0  0
  -26.3819  -20.2238   21.3976 Cl  0  0  0  0  0  0
  -31.4622  -12.4564   19.1477 H   0  0  0  0  0  0
  -30.3211  -11.3741   19.8914 H   0  0  0  0  0  0
  -29.7550  -11.7606   17.4673 H   0  0  0  0  0  0
  -29.6519  -13.4805   17.7520 H   0  0  0  0  0  0
  -27.8486  -11.3031   18.8555 H   0  0  0  0  0  0
  -27.3688  -12.5981   17.7904 H   0  0  0  0  0  0
  -27.6680  -14.2619   19.5234 H   0  0  0  0  0  0
  -28.6921  -12.0802   21.4011 H   0  0  0  0  0  0
  -28.4494  -13.7517   21.8266 H   0  0  0  0  0  0
  -25.2768   -9.5681   22.4758 H   0  0  0  0  0  0
  -23.9999   -7.4636   22.7476 H   0  0  0  0  0  0
  -21.0844   -8.8767   19.8951 H   0  0  0  0  0  0
  -22.3699  -10.9665   19.6160 H   0  0  0  0  0  0
  -21.2008   -7.6146   23.9710 H   0  0  0  0  0  0
  -21.1483   -6.0523   25.9078 H   0  0  0  0  0  0
  -22.0597   -2.7603   23.2850 H   0  0  0  0  0  0
  -22.4094  -11.9873   22.4810 H   0  0  0  0  0  0
  -21.1087  -13.1217   22.2619 H   0  0  0  0  0  0
  -24.6368  -15.8324   20.4811 H   0  0  0  0  0  0
  -26.2378  -15.6136   19.9901 H   0  0  0  0  0  0
  -26.7174  -32.5469   23.1139 H   0  0  0  0  0  0
  -25.0065  -33.9755   25.0443 H   0  0  0  0  0  0
  -22.7103  -31.3135   21.4146 H   0  0  0  0  0  0
  -23.3743  -35.9639   23.3308 H   0  0  0  0  0  0
  -24.3575  -36.8914   22.2049 H   0  0  0  0  0  0
  -23.7255  -37.6509   23.6657 H   0  0  0  0  0  0
  -26.0915  -31.5679   20.6163 H   0  0  0  0  0  0
  -26.8386  -30.8417   22.0088 H   0  0  0  0  0  0
  -28.1062  -28.9826   21.2017 H   0  0  0  0  0  0
  -25.9377  -25.9911   18.9352 H   0  0  0  0  0  0
  -23.9598  -27.3535   18.9822 H   0  0  0  0  0  0
  -23.7473  -30.6213   19.4122 H   0  0  0  0  0  0
  -22.7478  -29.2703   19.8544 H   0  0  0  0  0  0
  -25.1292  -36.1949   25.0826 H   0  0  0  0  0  0
  -20.9983  -28.3267   24.1396 H   0  0  0  0  0  0
  -20.5681  -26.2288   23.3602 H   0  0  0  0  0  0
  -21.6640  -26.7441   22.1186 H   0  0  0  0  0  0
  -19.6912  -25.6300   21.1232 H   0  0  0  0  0  0
  -19.6691  -27.3197   20.6736 H   0  0  0  0  0  0
  -17.4192  -26.6663   21.4027 H   0  0  0  0  0  0
  -18.0332  -26.0077   22.9030 H   0  0  0  0  0  0
  -19.7945  -30.7259   24.2260 H   0  0  0  0  0  0
  -17.5027  -31.6268   24.5155 H   0  0  0  0  0  0
  -15.5352  -30.2983   23.7670 H   0  0  0  0  0  0
  -15.8672  -28.0832   22.7051 H   0  0  0  0  0  0
  -24.5914  -30.7061   25.7803 H   0  0  0  0  0  0
  -24.8906  -32.2884   26.4883 H   0  0  0  0  0  0
  -25.8056  -30.8917   27.0248 H   0  0  0  0  0  0
  -26.2895  -29.6768   24.1208 H   0  0  0  0  0  0
  -27.4016  -29.7260   25.4689 H   0  0  0  0  0  0
  -27.8774  -30.4286   23.9416 H   0  0  0  0  0  0
  -27.2661  -33.3618   26.2094 H   0  0  0  0  0  0
  -28.3865  -32.6877   25.0346 H   0  0  0  0  0  0
  -28.0715  -31.8440   26.5433 H   0  0  0  0  0  0
  -28.2588  -38.0103   24.7499 H   0  0  0  0  0  0
  -28.1079  -36.2627   24.6306 H   0  0  0  0  0  0
  -27.2289  -37.1468   25.8866 H   0  0  0  0  0  0
  -20.9345  -29.8807   21.6917 H   0  0  0  0  0  0
  -26.0173  -38.2855   24.1418 H   0  0  0  0  0  0
  -30.8100  -21.5739   19.8848 H   0  0  0  0  0  0
  -32.6497  -20.2393   19.7007 H   0  0  0  0  0  0
  -32.3527  -18.5473   19.3410 H   0  0  0  0  0  0
  -32.8129  -19.0445   20.9791 H   0  0  0  0  0  0
  -28.3417  -17.0139   22.6826 H   0  0  0  0  0  0
  -27.4392  -16.8849   21.1651 H   0  0  0  0  0  0
  -26.9002  -17.9440   22.4605 H   0  0  0  0  0  0
  -27.3223  -22.5603   20.9217 H   0  0  0  0  0  0
  -27.8013  -22.3762   19.2703 H   0  0  0  0  0  0
  -30.8489  -16.9992   22.3714 H   0  0  0  0  0  0
  -31.6774  -16.9969   20.8743 H   0  0  0  0  0  0
  -29.8408  -23.8466   19.7744 H   0  0  0  0  0  0
  -29.2976  -23.9825   21.4336 H   0  0  0  0  0  0
  -27.0752  -24.8464   20.5380 H   0  0  0  0  0  0
  -27.7796  -24.8851   18.9350 H   0  0  0  0  0  0
  -29.0705  -15.5594   21.2386 H   0  0  0  0  0  0
  1 25  1  0  0  0
  1 30  2  0  0  0
  1 83  1  0  0  0
  2  3  1  0  0  0
  2 25  1  0  0  0
  2 85  1  0  0  0
  2 86  1  0  0  0
  3  4  1  0  0  0
  3 87  1  0  0  0
  3 88  1  0  0  0
  4  5  1  0  0  0
  4 89  1  0  0  0
  4 90  1  0  0  0
  5  6  1  0  0  0
  5 26  1  0  0  0
  5 91  1  0  0  0
  6 25  1  0  0  0
  6 92  1  0  0  0
  6 93  1  0  0  0
  7  8  2  0  0  0
  7 26  1  0  0  0
  7 29  1  0  0  0
  8  9  1  0  0  0
  8 22  1  0  0  0
  9 10  1  0  0  0
  9 27  2  0  0  0
 10 11  2  0  0  0
 10 15  1  0  0  0
 11 12  1  0  0  0
 11 94  1  0  0  0
 12 13  2  0  0  0
 12 95  1  0  0  0
 13 14  1  0  0  0
 13 31  1  0  0  0
 14 15  2  0  0  0
 14 96  1  0  0  0
 15 97  1  0  0  0
 16 17  2  0  0  0
 16 21  1  0  0  0
 16 31  1  0  0  0
 17 18  1  0  0  0
 17 98  1  0  0  0
 18 19  2  0  0  0
 18 99  1  0  0  0
 19 20  1  0  0  0
 19 24  1  0  0  0
 20 21  2  0  0  0
 20100  1  0  0  0
 21 23  1  0  0  0
 22 28  1  0  0  0
 22 32  2  0  0  0
 26 27  1  0  0  0
 28101  1  0  0  0
 28102  1  0  0  0
 29103  1  0  0  0
 29104  1  0  0  0
 33 34  1  0  0  0
 33 66  1  0  0  0
 33 70  2  0  0  0
 34 36  1  0  0  0
 34 59  1  0  0  0
 34105  1  0  0  0
 35 44  2  0  0  0
 35 45  1  0  0  0
 35 68  1  0  0  0
 36 56  1  0  0  0
 36106  1  0  0  0
 37 39  1  0  0  0
 37 47  1  0  0  0
 37 66  1  0  0  0
 37107  1  0  0  0
 38 43  2  0  0  0
 38 46  1  0  0  0
 38 47  1  0  0  0
 39 64  1  0  0  0
 39 67  2  0  0  0
 40 52  1  0  0  0
 40 53  2  0  0  0
 40 58  1  0  0  0
 41108  1  0  0  0
 41109  1  0  0  0
 41110  1  0  0  0
 41 48  1  0  0  0
 42 43  1  0  0  0
 42 66  1  0  0  0
 42111  1  0  0  0
 42112  1  0  0  0
 43 44  1  0  0  0
 44113  1  0  0  0
 45 46  2  0  0  0
 45114  1  0  0  0
 46115  1  0  0  0
 47116  1  0  0  0
 47117  1  0  0  0
 48 56  1  0  0  0
 48 65  1  0  0  0
 48118  1  0  0  0
 49 50  1  0  0  0
 49 53  1  0  0  0
 49 64  1  0  0  0
 49119  1  0  0  0
 50 51  1  0  0  0
 50120  1  0  0  0
 50121  1  0  0  0
 51 52  1  0  0  0
 51122  1  0  0  0
 51123  1  0  0  0
 52124  1  0  0  0
 52125  1  0  0  0
 53 54  1  0  0  0
 54 55  2  0  0  0
 54126  1  0  0  0
 55 57  1  0  0  0
 55127  1  0  0  0
 56 69  2  0  0  0
 57 58  2  0  0  0
 57128  1  0  0  0
 58129  1  0  0  0
 59 60  1  0  0  0
 59 61  1  0  0  0
 59 62  1  0  0  0
 60130  1  0  0  0
 60131  1  0  0  0
 60132  1  0  0  0
 61133  1  0  0  0
 61134  1  0  0  0
 61135  1  0  0  0
 62136  1  0  0  0
 62137  1  0  0  0
 62138  1  0  0  0
 63 65  1  0  0  0
 63139  1  0  0  0
 63140  1  0  0  0
 63141  1  0  0  0
 64142  1  0  0  0
 65143  1  0  0  0
 68 82  1  0  0  0
 71 72  2  0  0  0
 71 73  1  0  0  0
 71144  1  0  0  0
 72 74  1  0  0  0
 72 77  1  0  0  0
 73 76  2  0  0  0
 73 79  1  0  0  0
 74 75  2  0  0  0
 74 80  1  0  0  0
 75 76  1  0  0  0
 75 78  1  0  0  0
 76 84  1  0  0  0
 77145  1  0  0  0
 77146  1  0  0  0
 77147  1  0  0  0
 78148  1  0  0  0
 78149  1  0  0  0
 78150  1  0  0  0
 79 81  1  0  0  0
 79151  1  0  0  0
 79152  1  0  0  0
 80 83  1  0  0  0
 80153  1  0  0  0
 80154  1  0  0  0
 81 82  1  0  0  0
 81155  1  0  0  0
 81156  1  0  0  0
 82157  1  0  0  0
 82158  1  0  0  0
 83159  1  0  0  0
M  ISO  4   1 100  68 101  82 101  83 100
M  END
> <chiral flag>
0

> <version>
0

> <s_m_source_file>
/data/baiqing/PycharmProjects/Reinvent-master-3.2/result/LINK_invent/BTK/process_docking_weight1_custom_sum_contain_oxygen_bond_distance_aromatic_linkinvent_7_9_3/rearranged_h_0021.sdf

> <i_m_source_file_index>
2

> <r_mmod_Potential_Energy-OPLS-2005>
11.5371189117432

> <r_mmod_Stretch_Energy-OPLS-2005>
74.0814514160156

> <r_mmod_Bend_Energy-OPLS-2005>
144.192047119141

> <r_mmod_Torsional_Energy-OPLS-2005>
199.198883056641

> <r_mmod_Improper_Torsional_Energy-OPLS-2005>
4.31592845916748

> <r_mmod_Van_der_Waal_Energy-OPLS-2005>
168.692474365234

> <r_mmod_Electrostatic_Energy-OPLS-2005>
-419.229064941406

> <r_mmod_Solvation_Energy-OPLS-2005>
-200.425659179688

> <b_mmod_Minimization_Converged-OPLS-2005>
0

> <r_mmod_RMS_Derivative-OPLS-2005>
1.0253849029541

$$$$
2
                    3D
 Structure written by MMmdl.
166174  0  0  1  0            999 V2000
  -30.7562  -14.5668   20.3452 C   0  0  0  0  0  0
  -30.3993  -12.3090   19.4682 C   0  0  0  0  0  0
  -29.4883  -12.3327   18.2253 C   0  0  0  0  0  0
  -28.0028  -12.2951   18.6330 C   0  0  0  0  0  0
  -27.6322  -13.2263   19.8233 C   0  0  2  0  0  0
  -28.6881  -13.2033   20.9448 C   0  0  0  0  0  0
  -25.2493  -13.8184   20.5756 C   0  0  0  0  0  0
  -24.1785  -13.0428   20.9259 C   0  0  0  0  0  0
  -24.6375  -11.6916   20.8789 C   0  0  0  0  0  0
  -23.9061  -10.4288   21.0419 C   0  0  0  0  0  0
  -24.3618   -9.4200   21.9189 C   0  0  0  0  0  0
  -23.6293   -8.2234   22.0752 C   0  0  0  0  0  0
  -22.4276   -8.0277   21.3543 C   0  0  0  0  0  0
  -21.9912   -9.0250   20.4641 C   0  0  0  0  0  0
  -22.7239  -10.2132   20.3057 C   0  0  0  0  0  0
  -21.6852   -6.0726   22.5273 C   0  0  0  0  0  0
  -21.4014   -6.5630   23.8209 C   0  0  0  0  0  0
  -21.3668   -5.6785   24.9173 C   0  0  0  0  0  0
  -21.6049   -4.3047   24.7220 C   0  0  0  0  0  0
  -21.8821   -3.8139   23.4342 C   0  0  0  0  0  0
  -21.9192   -4.6956   22.3398 C   0  0  0  0  0  0
  -22.7802  -13.5211   21.1879 C   0  0  0  0  0  0
  -22.1658   -4.2140   21.0975 F   0  0  0  0  0  0
  -21.5639   -3.4533   25.7735 F   0  0  0  0  0  0
  -30.0038  -13.4276   20.3407 N   0  0  0  0  0  0
  -26.2905  -12.9403   20.3253 N   0  0  0  0  0  0
  -25.9302  -11.6552   20.5804 N   0  0  0  0  0  0
  -22.0434  -12.8215   22.0437 N   0  0  0  0  0  0
  -25.4119  -15.1894   20.4222 N   0  0  0  0  0  0
  -31.9789  -14.4554   20.3766 O   0  0  0  0  0  0
  -21.6642   -6.8874   21.4237 O   0  0  0  0  0  0
  -22.3480  -14.5493   20.6688 O   0  0  0  0  0  0
  -24.6160  -31.8681   23.2098 C   0  0  0  0  0  0
  -25.9044  -32.4824   23.8406 C   0  0  1  0  0  0
  -27.2204  -27.4195   20.1069 C   0  0  0  0  0  0
  -25.5898  -33.8626   24.2327 N   0  0  0  0  0  0
  -23.4039  -30.4926   21.5504 C   0  0  2  0  0  0
  -24.8491  -28.9587   20.1140 C   0  0  0  0  0  0
  -22.7417  -29.4659   22.4977 C   0  0  0  0  0  0
  -18.0273  -28.1369   22.8493 C   0  0  0  0  0  0
  -24.1484  -36.7321   23.2641 C   0  0  0  0  0  0
  -25.9355  -30.8295   21.3665 C   0  0  0  0  0  0
  -26.0105  -29.4630   20.7141 C   0  0  0  0  0  0
  -27.2027  -28.7000   20.7086 C   0  0  0  0  0  0
  -26.0508  -26.9431   19.4808 C   0  0  0  0  0  0
  -24.8645  -27.6990   19.4929 C   0  0  0  0  0  0
  -23.6127  -29.8275   20.1640 C   0  0  0  0  0  0
  -25.4106  -36.3116   24.0338 C   0  0  1  0  0  0
  -20.5866  -28.3661   23.1312 C   0  0  2  0  0  0
  -20.6761  -26.9393   22.5415 C   0  0  0  0  0  0
  -19.5741  -26.6375   21.5212 C   0  0  0  0  0  0
  -18.1919  -26.7917   22.1622 C   0  0  0  0  0  0
  -19.1522  -28.8831   23.2902 C   0  0  0  0  0  0
  -18.9450  -30.1437   23.8913 C   0  0  0  0  0  0
  -17.6453  -30.6580   24.0564 C   0  0  0  0  0  0
  -25.9033  -34.9481   23.5131 C   0  0  0  0  0  0
  -16.5344  -29.9081   23.6320 C   0  0  0  0  0  0
  -16.7261  -28.6495   23.0351 C   0  0  0  0  0  0
  -26.4464  -31.6607   25.0739 C   0  0  0  0  0  0
  -25.3721  -31.3726   26.1485 C   0  0  0  0  0  0
  -27.0298  -30.3045   24.6130 C   0  0  0  0  0  0
  -27.6042  -32.4330   25.7496 C   0  0  0  0  0  0
  -27.5579  -37.1817   24.8465 C   0  0  0  0  0  0
  -21.4139  -29.3040   22.3726 N   0  0  0  0  0  0
  -26.4293  -37.3797   23.9402 N   0  0  0  0  0  0
  -24.6700  -31.0777   22.1001 N   0  0  0  0  0  0
  -23.4186  -28.8193   23.3016 O   0  0  0  0  0  0
  -28.3533  -26.6338   20.1279 O   0  0  0  0  0  0
  -26.5598  -34.8932   22.4694 O   0  0  0  0  0  0
  -23.5345  -32.1439   23.7479 O   0  0  0  0  0  0
  -29.0934  -18.5784   22.3074 C   0  0  0  0  0  0
  -28.1644  -19.3392   21.5733 C   0  0  0  0  0  0
  -27.6173  -18.7560   20.4044 C   0  0  0  0  0  0
  -29.2433  -16.8616   20.5346 C   0  0  0  0  0  0
  -29.6044  -17.3546   21.8260 C   0  0  0  0  0  0
  -28.1331  -17.5263   19.9013 C   0  0  0  0  0  0
  -27.5578  -22.9901   21.3404 C   0  0  0  0  0  0
  -26.4830  -19.4469   19.6446 C   0  0  0  0  0  0
  -26.5226  -23.3562   22.4016 C   0  0  0  0  0  0
  -29.9865  -15.7052   18.2473 C   0  0  0  0  0  0
  -31.5199  -16.9066   19.6094 C   0  0  0  0  0  0
  -27.7296  -20.7158   22.1074 C   0  0  0  0  0  0
  -27.8834  -24.1401   20.3644 C   0  0  0  0  0  0
  -28.2819  -25.4999   21.0235 C   0  0  0  0  0  0
  -30.2744  -15.9625   19.7467 C   0  0  0  0  0  0
  -28.0917  -21.8252   21.2100 N   0  0  0  0  0  0
  -30.7522  -16.5613   22.8507 Cl  0  0  0  0  0  0
  -27.3338  -16.9188   18.4838 Cl  0  0  0  0  0  0
  -31.4469  -12.3523   19.1642 H   0  0  0  0  0  0
  -30.2857  -11.3663   20.0052 H   0  0  0  0  0  0
  -29.7064  -11.4606   17.6077 H   0  0  0  0  0  0
  -29.7040  -13.1753   17.5780 H   0  0  0  0  0  0
  -27.7901  -11.2599   18.9020 H   0  0  0  0  0  0
  -27.3690  -12.5117   17.7723 H   0  0  0  0  0  0
  -27.6094  -14.2374   19.4274 H   0  0  0  0  0  0
  -28.6748  -12.2479   21.4710 H   0  0  0  0  0  0
  -28.4730  -13.9738   21.6868 H   0  0  0  0  0  0
  -25.2759   -9.5681   22.4770 H   0  0  0  0  0  0
  -24.0000   -7.4622   22.7468 H   0  0  0  0  0  0
  -21.0846   -8.8771   19.8938 H   0  0  0  0  0  0
  -22.3695  -10.9679   19.6174 H   0  0  0  0  0  0
  -21.2005   -7.6136   23.9715 H   0  0  0  0  0  0
  -21.1492   -6.0508   25.9078 H   0  0  0  0  0  0
  -22.0594   -2.7597   23.2842 H   0  0  0  0  0  0
  -22.4057  -11.9900   22.4865 H   0  0  0  0  0  0
  -21.1037  -13.1237   22.2605 H   0  0  0  0  0  0
  -24.6320  -15.8286   20.5155 H   0  0  0  0  0  0
  -26.2323  -15.6243   20.0185 H   0  0  0  0  0  0
  -26.7120  -32.5522   23.1176 H   0  0  0  0  0  0
  -25.0059  -33.9793   25.0481 H   0  0  0  0  0  0
  -22.6941  -31.3103   21.4115 H   0  0  0  0  0  0
  -23.3738  -35.9662   23.3324 H   0  0  0  0  0  0
  -24.3583  -36.8912   22.2050 H   0  0  0  0  0  0
  -23.7246  -37.6539   23.6640 H   0  0  0  0  0  0
  -26.0531  -31.5943   20.5972 H   0  0  0  0  0  0
  -26.8224  -30.8804   21.9868 H   0  0  0  0  0  0
  -28.0988  -29.0785   21.1807 H   0  0  0  0  0  0
  -26.0458  -25.9920   18.9740 H   0  0  0  0  0  0
  -23.9741  -27.3097   19.0181 H   0  0  0  0  0  0
  -23.7248  -30.6045   19.4068 H   0  0  0  0  0  0
  -22.7356  -29.2503   19.8648 H   0  0  0  0  0  0
  -25.1281  -36.1994   25.0832 H   0  0  0  0  0  0
  -20.9958  -28.3220   24.1432 H   0  0  0  0  0  0
  -20.5648  -26.2269   23.3603 H   0  0  0  0  0  0
  -21.6633  -26.7427   22.1215 H   0  0  0  0  0  0
  -19.6900  -25.6287   21.1234 H   0  0  0  0  0  0
  -19.6676  -27.3192   20.6747 H   0  0  0  0  0  0
  -17.4185  -26.6668   21.4023 H   0  0  0  0  0  0
  -18.0318  -26.0056   22.9013 H   0  0  0  0  0  0
  -19.7929  -30.7246   24.2290 H   0  0  0  0  0  0
  -17.5011  -31.6263   24.5163 H   0  0  0  0  0  0
  -15.5344  -30.2992   23.7638 H   0  0  0  0  0  0
  -15.8659  -28.0818   22.7063 H   0  0  0  0  0  0
  -24.5884  -30.7086   25.7820 H   0  0  0  0  0  0
  -24.8926  -32.2888   26.4941 H   0  0  0  0  0  0
  -25.8064  -30.8885   27.0241 H   0  0  0  0  0  0
  -26.2854  -29.6813   24.1158 H   0  0  0  0  0  0
  -27.4035  -29.7280   25.4604 H   0  0  0  0  0  0
  -27.8702  -30.4364   23.9311 H   0  0  0  0  0  0
  -27.2661  -33.3617   26.2110 H   0  0  0  0  0  0
  -28.3828  -32.6915   25.0304 H   0  0  0  0  0  0
  -28.0740  -31.8435   26.5382 H   0  0  0  0  0  0
  -28.2610  -38.0100   24.7499 H   0  0  0  0  0  0
  -28.1057  -36.2634   24.6302 H   0  0  0  0  0  0
  -27.2300  -37.1489   25.8869 H   0  0  0  0  0  0
  -20.9290  -29.8790   21.6980 H   0  0  0  0  0  0
  -26.0187  -38.2879   24.1390 H   0  0  0  0  0  0
  -29.4626  -18.9557   23.2505 H   0  0  0  0  0  0
  -26.1445  -20.3774   20.0921 H   0  0  0  0  0  0
  -25.6099  -18.7958   19.5889 H   0  0  0  0  0  0
  -26.7986  -19.6831   18.6276 H   0  0  0  0  0  0
  -27.0123  -23.5726   23.3508 H   0  0  0  0  0  0
  -25.7872  -22.5700   22.5587 H   0  0  0  0  0  0
  -25.9532  -24.2366   22.1022 H   0  0  0  0  0  0
  -29.0858  -15.1275   18.0809 H   0  0  0  0  0  0
  -29.9012  -16.6294   17.6752 H   0  0  0  0  0  0
  -30.7981  -15.1439   17.7807 H   0  0  0  0  0  0
  -32.0106  -17.1148   20.5585 H   0  0  0  0  0  0
  -32.2917  -16.4969   18.9561 H   0  0  0  0  0  0
  -31.2423  -17.8715   19.1823 H   0  0  0  0  0  0
  -28.1811  -20.8798   23.0876 H   0  0  0  0  0  0
  -26.6559  -20.6493   22.2829 H   0  0  0  0  0  0
  -27.0073  -24.2670   19.7345 H   0  0  0  0  0  0
  -28.6815  -23.8250   19.6914 H   0  0  0  0  0  0
  -27.6190  -25.7447   21.8545 H   0  0  0  0  0  0
  -29.2674  -25.3821   21.4755 H   0  0  0  0  0  0
  1 25  1  0  0  0
  1 30  2  0  0  0
  1 85  1  0  0  0
  2  3  1  0  0  0
  2 25  1  0  0  0
  2 89  1  0  0  0
  2 90  1  0  0  0
  3  4  1  0  0  0
  3 91  1  0  0  0
  3 92  1  0  0  0
  4  5  1  0  0  0
  4 93  1  0  0  0
  4 94  1  0  0  0
  5  6  1  0  0  0
  5 26  1  0  0  0
  5 95  1  0  0  0
  6 25  1  0  0  0
  6 96  1  0  0  0
  6 97  1  0  0  0
  7  8  2  0  0  0
  7 26  1  0  0  0
  7 29  1  0  0  0
  8  9  1  0  0  0
  8 22  1  0  0  0
  9 10  1  0  0  0
  9 27  2  0  0  0
 10 11  2  0  0  0
 10 15  1  0  0  0
 11 12  1  0  0  0
 11 98  1  0  0  0
 12 13  2  0  0  0
 12 99  1  0  0  0
 13 14  1  0  0  0
 13 31  1  0  0  0
 14 15  2  0  0  0
 14100  1  0  0  0
 15101  1  0  0  0
 16 17  2  0  0  0
 16 21  1  0  0  0
 16 31  1  0  0  0
 17 18  1  0  0  0
 17102  1  0  0  0
 18 19  2  0  0  0
 18103  1  0  0  0
 19 20  1  0  0  0
 19 24  1  0  0  0
 20 21  2  0  0  0
 20104  1  0  0  0
 21 23  1  0  0  0
 22 28  1  0  0  0
 22 32  2  0  0  0
 26 27  1  0  0  0
 28105  1  0  0  0
 28106  1  0  0  0
 29107  1  0  0  0
 29108  1  0  0  0
 33 34  1  0  0  0
 33 66  1  0  0  0
 33 70  2  0  0  0
 34 36  1  0  0  0
 34 59  1  0  0  0
 34109  1  0  0  0
 35 44  2  0  0  0
 35 45  1  0  0  0
 35 68  1  0  0  0
 36 56  1  0  0  0
 36110  1  0  0  0
 37 39  1  0  0  0
 37 47  1  0  0  0
 37 66  1  0  0  0
 37111  1  0  0  0
 38 43  2  0  0  0
 38 46  1  0  0  0
 38 47  1  0  0  0
 39 64  1  0  0  0
 39 67  2  0  0  0
 40 52  1  0  0  0
 40 53  2  0  0  0
 40 58  1  0  0  0
 41112  1  0  0  0
 41113  1  0  0  0
 41114  1  0  0  0
 41 48  1  0  0  0
 42 43  1  0  0  0
 42 66  1  0  0  0
 42115  1  0  0  0
 42116  1  0  0  0
 43 44  1  0  0  0
 44117  1  0  0  0
 45 46  2  0  0  0
 45118  1  0  0  0
 46119  1  0  0  0
 47120  1  0  0  0
 47121  1  0  0  0
 48 56  1  0  0  0
 48 65  1  0  0  0
 48122  1  0  0  0
 49 50  1  0  0  0
 49 53  1  0  0  0
 49 64  1  0  0  0
 49123  1  0  0  0
 50 51  1  0  0  0
 50124  1  0  0  0
 50125  1  0  0  0
 51 52  1  0  0  0
 51126  1  0  0  0
 51127  1  0  0  0
 52128  1  0  0  0
 52129  1  0  0  0
 53 54  1  0  0  0
 54 55  2  0  0  0
 54130  1  0  0  0
 55 57  1  0  0  0
 55131  1  0  0  0
 56 69  2  0  0  0
 57 58  2  0  0  0
 57132  1  0  0  0
 58133  1  0  0  0
 59 60  1  0  0  0
 59 61  1  0  0  0
 59 62  1  0  0  0
 60134  1  0  0  0
 60135  1  0  0  0
 60136  1  0  0  0
 61137  1  0  0  0
 61138  1  0  0  0
 61139  1  0  0  0
 62140  1  0  0  0
 62141  1  0  0  0
 62142  1  0  0  0
 63 65  1  0  0  0
 63143  1  0  0  0
 63144  1  0  0  0
 63145  1  0  0  0
 64146  1  0  0  0
 65147  1  0  0  0
 68 84  1  0  0  0
 71 72  2  0  0  0
 71 75  1  0  0  0
 71148  1  0  0  0
 72 73  1  0  0  0
 72 82  1  0  0  0
 73 76  2  0  0  0
 73 78  1  0  0  0
 74 75  2  0  0  0
 74 76  1  0  0  0
 74 85  1  0  0  0
 75 87  1  0  0  0
 76 88  1  0  0  0
 77 79  1  0  0  0
 77 83  1  0  0  0
 77 86  2  0  0  0
 78149  1  0  0  0
 78150  1  0  0  0
 78151  1  0  0  0
 79152  1  0  0  0
 79153  1  0  0  0
 79154  1  0  0  0
 80155  1  0  0  0
 80156  1  0  0  0
 80157  1  0  0  0
 80 85  1  0  0  0
 81 85  1  0  0  0
 81158  1  0  0  0
 81159  1  0  0  0
 81160  1  0  0  0
 82 86  1  0  0  0
 82161  1  0  0  0
 82162  1  0  0  0
 83 84  1  0  0  0
 83163  1  0  0  0
 83164  1  0  0  0
 84165  1  0  0  0
 84166  1  0  0  0
M  ISO  4   1 100  68 101  84 101  85 100
M  END
> <chiral flag>
0

> <version>
0

> <s_m_source_file>
/data/baiqing/PycharmProjects/Reinvent-master-3.2/result/LINK_invent/BTK/process_docking_weight1_custom_sum_contain_oxygen_bond_distance_aromatic_linkinvent_7_9_3/rearranged_h_0021.sdf

> <i_m_source_file_index>
3

> <r_mmod_Potential_Energy-OPLS-2005>
233.503372192383

> <r_mmod_Stretch_Energy-OPLS-2005>
62.1142578125

> <r_mmod_Bend_Energy-OPLS-2005>
156.421539306641

> <r_mmod_Torsional_Energy-OPLS-2005>
285.129272460938

> <r_mmod_Improper_Torsional_Energy-OPLS-2005>
20.6993579864502

> <r_mmod_Van_der_Waal_Energy-OPLS-2005>
184.745254516602

> <r_mmod_Electrostatic_Energy-OPLS-2005>
-360.496307373047

> <r_mmod_Solvation_Energy-OPLS-2005>
-178.722229003906

> <b_mmod_Minimization_Converged-OPLS-2005>
0

> <r_mmod_RMS_Derivative-OPLS-2005>
1.23557817935944

$$$$
3
                    3D
 Structure written by MMmdl.
173181  0  0  1  0            999 V2000
  -30.7185  -14.4913   20.6038 C   0  0  0  0  0  0
  -30.4199  -12.3344   19.4349 C   0  0  0  0  0  0
  -29.4986  -12.5270   18.2149 C   0  0  0  0  0  0
  -28.0218  -12.3698   18.6237 C   0  0  0  0  0  0
  -27.6587  -13.2156   19.8743 C   0  0  2  0  0  0
  -28.6993  -13.0170   21.0008 C   0  0  0  0  0  0
  -25.2573  -13.8209   20.5697 C   0  0  0  0  0  0
  -24.1819  -13.0454   20.9171 C   0  0  0  0  0  0
  -24.6397  -11.6936   20.8736 C   0  0  0  0  0  0
  -23.9071  -10.4304   21.0416 C   0  0  0  0  0  0
  -24.3626   -9.4217   21.9190 C   0  0  0  0  0  0
  -23.6296   -8.2253   22.0747 C   0  0  0  0  0  0
  -22.4272   -8.0297   21.3543 C   0  0  0  0  0  0
  -21.9915   -9.0268   20.4645 C   0  0  0  0  0  0
  -22.7249  -10.2140   20.3065 C   0  0  0  0  0  0
  -21.6847   -6.0757   22.5283 C   0  0  0  0  0  0
  -21.4016   -6.5647   23.8219 C   0  0  0  0  0  0
  -21.3661   -5.6799   24.9177 C   0  0  0  0  0  0
  -21.6035   -4.3060   24.7230 C   0  0  0  0  0  0
  -21.8815   -3.8153   23.4345 C   0  0  0  0  0  0
  -21.9186   -4.6984   22.3403 C   0  0  0  0  0  0
  -22.7852  -13.5248   21.1837 C   0  0  0  0  0  0
  -22.1652   -4.2166   21.0987 F   0  0  0  0  0  0
  -21.5619   -3.4541   25.7739 F   0  0  0  0  0  0
  -30.0295  -13.3250   20.4492 N   0  0  0  0  0  0
  -26.3002  -12.9380   20.3363 N   0  0  0  0  0  0
  -25.9322  -11.6529   20.5758 N   0  0  0  0  0  0
  -22.0500  -12.8224   22.0411 N   0  0  0  0  0  0
  -25.4313  -15.1935   20.4190 N   0  0  0  0  0  0
  -31.8267  -14.6771   20.0938 O   0  0  0  0  0  0
  -21.6619   -6.8898   21.4251 O   0  0  0  0  0  0
  -22.3531  -14.5550   20.6702 O   0  0  0  0  0  0
  -24.6152  -31.8709   23.2108 C   0  0  0  0  0  0
  -25.9054  -32.4834   23.8389 C   0  0  1  0  0  0
  -27.2207  -27.4269   20.0998 C   0  0  0  0  0  0
  -25.5921  -33.8625   24.2337 N   0  0  0  0  0  0
  -23.3999  -30.4997   21.5520 C   0  0  2  0  0  0
  -24.8444  -28.9741   20.1077 C   0  0  0  0  0  0
  -22.7394  -29.4712   22.4977 C   0  0  0  0  0  0
  -18.0314  -28.1381   22.8512 C   0  0  0  0  0  0
  -24.1494  -36.7319   23.2638 C   0  0  0  0  0  0
  -25.9306  -30.8364   21.3644 C   0  0  0  0  0  0
  -26.0074  -29.4715   20.7095 C   0  0  0  0  0  0
  -27.1981  -28.7047   20.7089 C   0  0  0  0  0  0
  -26.0415  -26.9677   19.4615 C   0  0  0  0  0  0
  -24.8566  -27.7207   19.4800 C   0  0  0  0  0  0
  -23.6054  -29.8380   20.1647 C   0  0  0  0  0  0
  -25.4115  -36.3109   24.0333 C   0  0  1  0  0  0
  -20.5880  -28.3724   23.1340 C   0  0  2  0  0  0
  -20.6832  -26.9456   22.5487 C   0  0  0  0  0  0
  -19.5845  -26.6375   21.5272 C   0  0  0  0  0  0
  -18.1994  -26.7928   22.1640 C   0  0  0  0  0  0
  -19.1539  -28.8857   23.2920 C   0  0  0  0  0  0
  -18.9455  -30.1468   23.8903 C   0  0  0  0  0  0
  -17.6457  -30.6600   24.0540 C   0  0  0  0  0  0
  -25.9046  -34.9480   23.5129 C   0  0  0  0  0  0
  -16.5357  -29.9082   23.6338 C   0  0  0  0  0  0
  -16.7297  -28.6505   23.0371 C   0  0  0  0  0  0
  -26.4479  -31.6598   25.0708 C   0  0  0  0  0  0
  -25.3751  -31.3680   26.1450 C   0  0  0  0  0  0
  -27.0312  -30.3055   24.6054 C   0  0  0  0  0  0
  -27.6061  -32.4296   25.7484 C   0  0  0  0  0  0
  -27.5587  -37.1808   24.8466 C   0  0  0  0  0  0
  -21.4128  -29.3084   22.3715 N   0  0  0  0  0  0
  -26.4305  -37.3792   23.9412 N   0  0  0  0  0  0
  -24.6668  -31.0817   22.1016 N   0  0  0  0  0  0
  -23.4160  -28.8253   23.3033 O   0  0  0  0  0  0
  -28.3498  -26.6253   20.1733 O   0  0  0  0  0  0
  -26.5598  -34.8930   22.4688 O   0  0  0  0  0  0
  -23.5352  -32.1456   23.7523 O   0  0  0  0  0  0
  -29.9530  -20.3598   20.5833 C   0  0  0  0  0  0
  -30.5661  -19.0936   20.7234 C   0  0  0  0  0  0
  -28.6839  -18.3393   22.0820 C   0  0  0  0  0  0
  -29.9516  -18.0610   21.4883 C   0  0  0  0  0  0
  -28.0638  -19.6156   21.9106 C   0  0  0  0  0  0
  -28.6984  -20.6386   21.1537 C   0  0  0  0  0  0
  -31.9107  -18.8940   20.0431 C   0  0  0  0  0  0
  -27.9633  -17.2761   22.9099 C   0  0  0  0  0  0
  -26.6938  -19.8855   22.5248 C   0  0  0  0  0  0
  -24.8103  -21.7484   20.2984 C   0  0  0  0  0  0
  -30.7053  -16.7295   21.7664 C   0  0  0  0  0  0
  -25.9360  -22.6477   19.7697 C   0  0  0  0  0  0
  -29.1058  -24.3013   20.9607 C   0  0  0  0  0  0
  -27.3364  -21.9958   19.6546 C   0  0  0  0  0  0
  -28.5156  -23.0586   21.7117 C   0  0  0  0  0  0
  -28.0383  -25.2231   20.3262 C   0  0  0  0  0  0
  -30.0992  -15.4637   21.2995 N   0  0  0  0  0  0
  -28.0936  -21.8953   20.9056 N   0  0  0  0  0  0
  -31.4676  -12.4211   19.1448 H   0  0  0  0  0  0
  -30.3106  -11.3285   19.8405 H   0  0  0  0  0  0
  -29.7507  -11.8110   17.4323 H   0  0  0  0  0  0
  -29.6583  -13.5195   17.7876 H   0  0  0  0  0  0
  -27.8468  -11.3134   18.8336 H   0  0  0  0  0  0
  -27.3702  -12.6285   17.7890 H   0  0  0  0  0  0
  -27.6929  -14.2614   19.5663 H   0  0  0  0  0  0
  -28.6845  -11.9856   21.3567 H   0  0  0  0  0  0
  -28.4512  -13.6241   21.8732 H   0  0  0  0  0  0
  -25.2790   -9.5671   22.4750 H   0  0  0  0  0  0
  -23.9998   -7.4643   22.7455 H   0  0  0  0  0  0
  -21.0847   -8.8803   19.8945 H   0  0  0  0  0  0
  -22.3740  -10.9677   19.6157 H   0  0  0  0  0  0
  -21.2009   -7.6160   23.9739 H   0  0  0  0  0  0
  -21.1484   -6.0518   25.9078 H   0  0  0  0  0  0
  -22.0594   -2.7622   23.2839 H   0  0  0  0  0  0
  -22.4098  -11.9875   22.4782 H   0  0  0  0  0  0
  -21.1133  -13.1271   22.2624 H   0  0  0  0  0  0
  -24.6729  -15.8571   20.5321 H   0  0  0  0  0  0
  -26.2962  -15.6326   20.1293 H   0  0  0  0  0  0
  -26.7142  -32.5541   23.1165 H   0  0  0  0  0  0
  -25.0036  -33.9791   25.0449 H   0  0  0  0  0  0
  -22.6880  -31.3175   21.4174 H   0  0  0  0  0  0
  -23.3750  -35.9660   23.3306 H   0  0  0  0  0  0
  -24.3580  -36.8925   22.2053 H   0  0  0  0  0  0
  -23.7255  -37.6531   23.6644 H   0  0  0  0  0  0
  -26.0388  -31.6010   20.5932 H   0  0  0  0  0  0
  -26.8208  -30.8907   21.9789 H   0  0  0  0  0  0
  -28.0837  -29.0731   21.2084 H   0  0  0  0  0  0
  -26.0079  -26.0133   18.9577 H   0  0  0  0  0  0
  -23.9660  -27.3319   19.0064 H   0  0  0  0  0  0
  -23.7080  -30.6141   19.4055 H   0  0  0  0  0  0
  -22.7275  -29.2568   19.8744 H   0  0  0  0  0  0
  -25.1295  -36.1967   25.0825 H   0  0  0  0  0  0
  -20.9969  -28.3290   24.1460 H   0  0  0  0  0  0
  -21.6739  -26.7522   22.1318 H   0  0  0  0  0  0
  -20.5712  -26.2367   23.3704 H   0  0  0  0  0  0
  -19.7074  -25.6248   21.1404 H   0  0  0  0  0  0
  -19.6780  -27.3129   20.6754 H   0  0  0  0  0  0
  -17.4277  -26.6666   21.4033 H   0  0  0  0  0  0
  -18.0338  -26.0090   22.9062 H   0  0  0  0  0  0
  -19.7918  -30.7307   24.2289 H   0  0  0  0  0  0
  -17.4988  -31.6286   24.5103 H   0  0  0  0  0  0
  -15.5355  -30.2968   23.7652 H   0  0  0  0  0  0
  -15.8711  -28.0826   22.7043 H   0  0  0  0  0  0
  -24.5919  -30.7047   25.7766 H   0  0  0  0  0  0
  -24.8953  -32.2829   26.4934 H   0  0  0  0  0  0
  -25.8100  -30.8808   27.0183 H   0  0  0  0  0  0
  -26.2850  -29.6818   24.1121 H   0  0  0  0  0  0
  -27.4129  -29.7283   25.4484 H   0  0  0  0  0  0
  -27.8658  -30.4415   23.9176 H   0  0  0  0  0  0
  -27.2697  -33.3581   26.2113 H   0  0  0  0  0  0
  -28.3853  -32.6873   25.0299 H   0  0  0  0  0  0
  -28.0746  -31.8372   26.5355 H   0  0  0  0  0  0
  -28.2605  -38.0104   24.7500 H   0  0  0  0  0  0
  -28.1076  -36.2627   24.6298 H   0  0  0  0  0  0
  -27.2294  -37.1471   25.8867 H   0  0  0  0  0  0
  -20.9278  -29.8803   21.6948 H   0  0  0  0  0  0
  -26.0187  -38.2876   24.1384 H   0  0  0  0  0  0
  -30.4503  -21.1361   20.0190 H   0  0  0  0  0  0
  -32.7101  -18.8256   20.7818 H   0  0  0  0  0  0
  -32.1502  -19.7185   19.3704 H   0  0  0  0  0  0
  -31.9110  -17.9855   19.4421 H   0  0  0  0  0  0
  -28.5337  -16.3721   23.0967 H   0  0  0  0  0  0
  -27.0466  -16.9829   22.4002 H   0  0  0  0  0  0
  -27.7090  -17.6501   23.8984 H   0  0  0  0  0  0
  -26.5406  -19.3898   23.4798 H   0  0  0  0  0  0
  -25.9153  -19.5542   21.8368 H   0  0  0  0  0  0
  -26.5531  -20.9444   22.7351 H   0  0  0  0  0  0
  -23.8389  -22.2208   20.1489 H   0  0  0  0  0  0
  -24.9033  -21.5732   21.3673 H   0  0  0  0  0  0
  -24.7883  -20.7872   19.7865 H   0  0  0  0  0  0
  -31.7381  -16.7915   21.4341 H   0  0  0  0  0  0
  -30.8060  -16.6455   22.8487 H   0  0  0  0  0  0
  -25.9495  -23.5515   20.3699 H   0  0  0  0  0  0
  -25.6492  -22.9710   18.7669 H   0  0  0  0  0  0
  -29.8630  -24.0112   20.2325 H   0  0  0  0  0  0
  -29.6312  -24.9039   21.7041 H   0  0  0  0  0  0
  -27.9438  -22.5668   18.9513 H   0  0  0  0  0  0
  -27.2297  -21.0091   19.2002 H   0  0  0  0  0  0
  -27.6656  -23.3650   22.3250 H   0  0  0  0  0  0
  -29.2706  -22.7171   22.4231 H   0  0  0  0  0  0
  -27.1687  -25.1652   20.9812 H   0  0  0  0  0  0
  -27.7624  -24.8138   19.3554 H   0  0  0  0  0  0
  -29.1798  -15.2437   21.6488 H   0  0  0  0  0  0
  1 25  1  0  0  0
  1 30  2  0  0  0
  1 87  1  0  0  0
  2  3  1  0  0  0
  2 25  1  0  0  0
  2 89  1  0  0  0
  2 90  1  0  0  0
  3  4  1  0  0  0
  3 91  1  0  0  0
  3 92  1  0  0  0
  4  5  1  0  0  0
  4 93  1  0  0  0
  4 94  1  0  0  0
  5  6  1  0  0  0
  5 26  1  0  0  0
  5 95  1  0  0  0
  6 25  1  0  0  0
  6 96  1  0  0  0
  6 97  1  0  0  0
  7  8  2  0  0  0
  7 26  1  0  0  0
  7 29  1  0  0  0
  8  9  1  0  0  0
  8 22  1  0  0  0
  9 10  1  0  0  0
  9 27  2  0  0  0
 10 11  2  0  0  0
 10 15  1  0  0  0
 11 12  1  0  0  0
 11 98  1  0  0  0
 12 13  2  0  0  0
 12 99  1  0  0  0
 13 14  1  0  0  0
 13 31  1  0  0  0
 14 15  2  0  0  0
 14100  1  0  0  0
 15101  1  0  0  0
 16 17  2  0  0  0
 16 21  1  0  0  0
 16 31  1  0  0  0
 17 18  1  0  0  0
 17102  1  0  0  0
 18 19  2  0  0  0
 18103  1  0  0  0
 19 20  1  0  0  0
 19 24  1  0  0  0
 20 21  2  0  0  0
 20104  1  0  0  0
 21 23  1  0  0  0
 22 28  1  0  0  0
 22 32  2  0  0  0
 26 27  1  0  0  0
 28105  1  0  0  0
 28106  1  0  0  0
 29107  1  0  0  0
 29108  1  0  0  0
 33 34  1  0  0  0
 33 66  1  0  0  0
 33 70  2  0  0  0
 34 36  1  0  0  0
 34 59  1  0  0  0
 34109  1  0  0  0
 35 44  2  0  0  0
 35 45  1  0  0  0
 35 68  1  0  0  0
 36 56  1  0  0  0
 36110  1  0  0  0
 37 39  1  0  0  0
 37 47  1  0  0  0
 37 66  1  0  0  0
 37111  1  0  0  0
 38 43  2  0  0  0
 38 46  1  0  0  0
 38 47  1  0  0  0
 39 64  1  0  0  0
 39 67  2  0  0  0
 40 52  1  0  0  0
 40 53  2  0  0  0
 40 58  1  0  0  0
 41112  1  0  0  0
 41113  1  0  0  0
 41114  1  0  0  0
 41 48  1  0  0  0
 42 43  1  0  0  0
 42 66  1  0  0  0
 42115  1  0  0  0
 42116  1  0  0  0
 43 44  1  0  0  0
 44117  1  0  0  0
 45 46  2  0  0  0
 45118  1  0  0  0
 46119  1  0  0  0
 47120  1  0  0  0
 47121  1  0  0  0
 48 56  1  0  0  0
 48 65  1  0  0  0
 48122  1  0  0  0
 49 50  1  0  0  0
 49 53  1  0  0  0
 49 64  1  0  0  0
 49123  1  0  0  0
 50 51  1  0  0  0
 50124  1  0  0  0
 50125  1  0  0  0
 51 52  1  0  0  0
 51126  1  0  0  0
 51127  1  0  0  0
 52128  1  0  0  0
 52129  1  0  0  0
 53 54  1  0  0  0
 54 55  2  0  0  0
 54130  1  0  0  0
 55 57  1  0  0  0
 55131  1  0  0  0
 56 69  2  0  0  0
 57 58  2  0  0  0
 57132  1  0  0  0
 58133  1  0  0  0
 59 60  1  0  0  0
 59 61  1  0  0  0
 59 62  1  0  0  0
 60134  1  0  0  0
 60135  1  0  0  0
 60136  1  0  0  0
 61137  1  0  0  0
 61138  1  0  0  0
 61139  1  0  0  0
 62140  1  0  0  0
 62141  1  0  0  0
 62142  1  0  0  0
 63 65  1  0  0  0
 63143  1  0  0  0
 63144  1  0  0  0
 63145  1  0  0  0
 64146  1  0  0  0
 65147  1  0  0  0
 68 86  1  0  0  0
 71 72  2  0  0  0
 71 76  1  0  0  0
 71148  1  0  0  0
 72 74  1  0  0  0
 72 77  1  0  0  0
 73 74  2  0  0  0
 73 75  1  0  0  0
 73 78  1  0  0  0
 74 81  1  0  0  0
 75 76  2  0  0  0
 75 79  1  0  0  0
 76 88  1  0  0  0
 77149  1  0  0  0
 77150  1  0  0  0
 77151  1  0  0  0
 78152  1  0  0  0
 78153  1  0  0  0
 78154  1  0  0  0
 79155  1  0  0  0
 79156  1  0  0  0
 79157  1  0  0  0
 80 82  1  0  0  0
 80158  1  0  0  0
 80159  1  0  0  0
 80160  1  0  0  0
 81 87  1  0  0  0
 81161  1  0  0  0
 81162  1  0  0  0
 82 84  1  0  0  0
 82163  1  0  0  0
 82164  1  0  0  0
 83 85  1  0  0  0
 83 86  1  0  0  0
 83165  1  0  0  0
 83166  1  0  0  0
 84 88  1  0  0  0
 84167  1  0  0  0
 84168  1  0  0  0
 85 88  1  0  0  0
 85169  1  0  0  0
 85170  1  0  0  0
 86171  1  0  0  0
 86172  1  0  0  0
 87173  1  0  0  0
M  ISO  4   1 100  68 101  86 101  87 100
M  END
> <chiral flag>
0

> <version>
0

> <s_m_source_file>
/data/baiqing/PycharmProjects/Reinvent-master-3.2/result/LINK_invent/BTK/process_docking_weight1_custom_sum_contain_oxygen_bond_distance_aromatic_linkinvent_7_9_3/rearranged_h_0021.sdf

> <i_m_source_file_index>
4

> <r_mmod_Potential_Energy-OPLS-2005>
-27.7699317932129

> <r_mmod_Stretch_Energy-OPLS-2005>
48.0991592407227

> <r_mmod_Bend_Energy-OPLS-2005>
125.220039367676

> <r_mmod_Torsional_Energy-OPLS-2005>
260.452819824219

> <r_mmod_Improper_Torsional_Energy-OPLS-2005>
3.092533826828

> <r_mmod_Van_der_Waal_Energy-OPLS-2005>
167.608932495117

> <r_mmod_Electrostatic_Energy-OPLS-2005>
-449.922210693359

> <r_mmod_Solvation_Energy-OPLS-2005>
-199.888946533203

> <b_mmod_Minimization_Converged-OPLS-2005>
0

> <r_mmod_RMS_Derivative-OPLS-2005>
3.42671251296997

$$$$
4
                    3D
 Structure written by MMmdl.
156164  0  0  1  0            999 V2000
  -30.5259  -14.8620   20.4413 C   0  0  0  0  0  0
  -30.4539  -12.5284   19.4811 C   0  0  0  0  0  0
  -29.5228  -12.5219   18.2449 C   0  0  0  0  0  0
  -28.0512  -12.3196   18.6600 C   0  0  0  0  0  0
  -27.6403  -13.2293   19.8468 C   0  0  2  0  0  0
  -28.6858  -13.1862   20.9828 C   0  0  0  0  0  0
  -25.2506  -13.8169   20.5674 C   0  0  0  0  0  0
  -24.1804  -13.0425   20.9221 C   0  0  0  0  0  0
  -24.6395  -11.6904   20.8755 C   0  0  0  0  0  0
  -23.9069  -10.4285   21.0414 C   0  0  0  0  0  0
  -24.3619   -9.4199   21.9188 C   0  0  0  0  0  0
  -23.6291   -8.2237   22.0755 C   0  0  0  0  0  0
  -22.4274   -8.0279   21.3547 C   0  0  0  0  0  0
  -21.9911   -9.0253   20.4648 C   0  0  0  0  0  0
  -22.7243  -10.2129   20.3059 C   0  0  0  0  0  0
  -21.6851   -6.0734   22.5279 C   0  0  0  0  0  0
  -21.4013   -6.5638   23.8212 C   0  0  0  0  0  0
  -21.3658   -5.6792   24.9174 C   0  0  0  0  0  0
  -21.6043   -4.3055   24.7225 C   0  0  0  0  0  0
  -21.8819   -3.8146   23.4347 C   0  0  0  0  0  0
  -21.9192   -4.6962   22.3403 C   0  0  0  0  0  0
  -22.7827  -13.5216   21.1875 C   0  0  0  0  0  0
  -22.1662   -4.2147   21.0981 F   0  0  0  0  0  0
  -21.5628   -3.4539   25.7738 F   0  0  0  0  0  0
  -29.9752  -13.5901   20.4016 N   0  0  0  0  0  0
  -26.2929  -12.9370   20.3247 N   0  0  0  0  0  0
  -25.9322  -11.6519   20.5736 N   0  0  0  0  0  0
  -22.0469  -12.8209   22.0430 N   0  0  0  0  0  0
  -25.4171  -15.1887   20.4032 N   0  0  0  0  0  0
  -31.7183  -15.0081   20.1492 O   0  0  0  0  0  0
  -21.6639   -6.8877   21.4241 O   0  0  0  0  0  0
  -22.3516  -14.5521   20.6715 O   0  0  0  0  0  0
  -24.6382  -31.8484   23.1916 C   0  0  0  0  0  0
  -25.9175  -32.4719   23.8292 C   0  0  1  0  0  0
  -27.2248  -27.1927   20.1516 C   0  0  0  0  0  0
  -25.5941  -33.8523   24.2213 N   0  0  0  0  0  0
  -23.4395  -30.4673   21.5361 C   0  0  2  0  0  0
  -24.8897  -28.8971   20.1158 C   0  0  0  0  0  0
  -22.7540  -29.4569   22.4887 C   0  0  0  0  0  0
  -18.0300  -28.1394   22.8481 C   0  0  0  0  0  0
  -24.1491  -36.7269   23.2642 C   0  0  0  0  0  0
  -25.9904  -30.7407   21.3807 C   0  0  0  0  0  0
  -26.0647  -29.3547   20.7271 C   0  0  0  0  0  0
  -27.2368  -28.5189   20.7249 C   0  0  0  0  0  0
  -26.0263  -26.8165   19.5105 C   0  0  0  0  0  0
  -24.8792  -27.6386   19.4934 C   0  0  0  0  0  0
  -23.6636  -29.7936   20.1563 C   0  0  0  0  0  0
  -25.4120  -36.3048   24.0320 C   0  0  1  0  0  0
  -20.5907  -28.3714   23.1252 C   0  0  2  0  0  0
  -20.6786  -26.9423   22.5407 C   0  0  0  0  0  0
  -19.5760  -26.6383   21.5214 C   0  0  0  0  0  0
  -18.1941  -26.7933   22.1625 C   0  0  0  0  0  0
  -19.1554  -28.8871   23.2859 C   0  0  0  0  0  0
  -18.9472  -30.1468   23.8882 C   0  0  0  0  0  0
  -17.6469  -30.6591   24.0561 C   0  0  0  0  0  0
  -25.9065  -34.9421   23.5074 C   0  0  0  0  0  0
  -16.5360  -29.9085   23.6335 C   0  0  0  0  0  0
  -16.7285  -28.6504   23.0355 C   0  0  0  0  0  0
  -26.4516  -31.6570   25.0712 C   0  0  0  0  0  0
  -25.3715  -31.3744   26.1416 C   0  0  0  0  0  0
  -27.0379  -30.2976   24.6255 C   0  0  0  0  0  0
  -27.6052  -32.4327   25.7498 C   0  0  0  0  0  0
  -27.5576  -37.1791   24.8466 C   0  0  0  0  0  0
  -21.4240  -29.3046   22.3631 N   0  0  0  0  0  0
  -26.4289  -37.3754   23.9407 N   0  0  0  0  0  0
  -24.7089  -31.0387   22.0921 N   0  0  0  0  0  0
  -23.4203  -28.8122   23.3026 O   0  0  0  0  0  0
  -28.3059  -26.2591   20.1558 O   0  0  0  0  0  0
  -26.5647  -34.8911   22.4651 O   0  0  0  0  0  0
  -23.5513  -32.1335   23.7169 O   0  0  0  0  0  0
  -28.3338  -18.0931   20.3075 C   0  0  0  0  0  0
  -30.6436  -18.4017   20.6953 C   0  0  0  0  0  0
  -28.1094  -19.5206   20.3252 C   0  0  0  0  0  0
  -30.4311  -19.8453   20.7354 C   0  0  0  0  0  0
  -29.1428  -20.4808   20.5816 C   0  0  0  0  0  0
  -29.5920  -17.4458   20.5152 C   0  0  0  0  0  0
  -26.6837  -20.0045   20.1232 C   0  0  0  0  0  0
  -31.6363  -20.7233   21.0173 C   0  0  0  0  0  0
  -28.8091  -22.0420   20.9746 C   0  0  0  0  0  0
  -28.7914  -23.4175   20.0511 C   0  0  0  0  0  0
  -28.1016  -24.8159   20.6368 C   0  0  0  0  0  0
  -29.6310  -15.9319   20.6105 N   0  0  0  0  0  0
  -31.4866  -12.6980   19.1714 H   0  0  0  0  0  0
  -30.4452  -11.5579   19.9797 H   0  0  0  0  0  0
  -29.8262  -11.7403   17.5471 H   0  0  0  0  0  0
  -29.6233  -13.4661   17.7075 H   0  0  0  0  0  0
  -27.9305  -11.2728   18.9412 H   0  0  0  0  0  0
  -27.3901  -12.4836   17.8082 H   0  0  0  0  0  0
  -27.6232  -14.2437   19.4484 H   0  0  0  0  0  0
  -28.7510  -12.1863   21.4141 H   0  0  0  0  0  0
  -28.3984  -13.8499   21.7999 H   0  0  0  0  0  0
  -25.2762   -9.5673   22.4763 H   0  0  0  0  0  0
  -23.9998   -7.4625   22.7474 H   0  0  0  0  0  0
  -21.0842   -8.8773   19.8951 H   0  0  0  0  0  0
  -22.3705  -10.9669   19.6169 H   0  0  0  0  0  0
  -21.2008   -7.6146   23.9715 H   0  0  0  0  0  0
  -21.1480   -6.0522   25.9077 H   0  0  0  0  0  0
  -22.0599   -2.7608   23.2848 H   0  0  0  0  0  0
  -22.4088  -11.9875   22.4824 H   0  0  0  0  0  0
  -21.1084  -13.1231   22.2630 H   0  0  0  0  0  0
  -24.6351  -15.8288   20.4881 H   0  0  0  0  0  0
  -26.2309  -15.6137   19.9814 H   0  0  0  0  0  0
  -26.7244  -32.5351   23.1029 H   0  0  0  0  0  0
  -25.0073  -33.9644   25.0349 H   0  0  0  0  0  0
  -22.7396  -31.2914   21.3826 H   0  0  0  0  0  0
  -23.3755  -35.9599   23.3296 H   0  0  0  0  0  0
  -24.3578  -36.8906   22.2059 H   0  0  0  0  0  0
  -23.7244  -37.6464   23.6679 H   0  0  0  0  0  0
  -26.1356  -31.4960   20.6072 H   0  0  0  0  0  0
  -26.8650  -30.7942   22.0176 H   0  0  0  0  0  0
  -28.1387  -28.8688   21.2071 H   0  0  0  0  0  0
  -25.9672  -25.8526   19.0250 H   0  0  0  0  0  0
  -23.9821  -27.2834   19.0052 H   0  0  0  0  0  0
  -23.7964  -30.5662   19.3983 H   0  0  0  0  0  0
  -22.7803  -29.2310   19.8489 H   0  0  0  0  0  0
  -25.1306  -36.1884   25.0812 H   0  0  0  0  0  0
  -20.9999  -28.3300   24.1373 H   0  0  0  0  0  0
  -20.5684  -26.2326   23.3620 H   0  0  0  0  0  0
  -21.6653  -26.7436   22.1202 H   0  0  0  0  0  0
  -19.6920  -25.6290   21.1254 H   0  0  0  0  0  0
  -19.6696  -27.3185   20.6737 H   0  0  0  0  0  0
  -17.4209  -26.6679   21.4029 H   0  0  0  0  0  0
  -18.0340  -26.0079   22.9026 H   0  0  0  0  0  0
  -19.7946  -30.7290   24.2244 H   0  0  0  0  0  0
  -17.5021  -31.6269   24.5166 H   0  0  0  0  0  0
  -15.5360  -30.2981   23.7666 H   0  0  0  0  0  0
  -15.8686  -28.0816   22.7078 H   0  0  0  0  0  0
  -24.5901  -30.7082   25.7741 H   0  0  0  0  0  0
  -24.8894  -32.2921   26.4795 H   0  0  0  0  0  0
  -25.8010  -30.8953   27.0223 H   0  0  0  0  0  0
  -26.2986  -29.6703   24.1261 H   0  0  0  0  0  0
  -27.4015  -29.7264   25.4807 H   0  0  0  0  0  0
  -27.8880  -30.4230   23.9545 H   0  0  0  0  0  0
  -27.2649  -33.3643   26.2032 H   0  0  0  0  0  0
  -28.3888  -32.6863   25.0346 H   0  0  0  0  0  0
  -28.0692  -31.8480   26.5452 H   0  0  0  0  0  0
  -28.2589  -38.0091   24.7507 H   0  0  0  0  0  0
  -28.1076  -36.2620   24.6298 H   0  0  0  0  0  0
  -27.2293  -37.1446   25.8869 H   0  0  0  0  0  0
  -20.9442  -29.8753   21.6810 H   0  0  0  0  0  0
  -26.0161  -38.2825   24.1404 H   0  0  0  0  0  0
  -27.4707  -17.4605   20.1573 H   0  0  0  0  0  0
  -31.6419  -18.0220   20.8647 H   0  0  0  0  0  0
  -26.0818  -19.2607   19.6001 H   0  0  0  0  0  0
  -26.6604  -20.9182   19.5283 H   0  0  0  0  0  0
  -26.2088  -20.2056   21.0837 H   0  0  0  0  0  0
  -31.6578  -21.0156   22.0675 H   0  0  0  0  0  0
  -31.6073  -21.6282   20.4094 H   0  0  0  0  0  0
  -32.5689  -20.2059   20.7899 H   0  0  0  0  0  0
  -29.4661  -22.2668   21.8149 H   0  0  0  0  0  0
  -27.8293  -22.0091   21.4496 H   0  0  0  0  0  0
  -28.2890  -23.1835   19.1123 H   0  0  0  0  0  0
  -29.8226  -23.6378   19.7752 H   0  0  0  0  0  0
  -28.4066  -24.8635   21.6824 H   0  0  0  0  0  0
  -27.0302  -24.6247   20.6953 H   0  0  0  0  0  0
  -28.7119  -15.5489   20.7659 H   0  0  0  0  0  0
  1 25  1  0  0  0
  1 30  2  0  0  0
  1 82  1  0  0  0
  2  3  1  0  0  0
  2 25  1  0  0  0
  2 83  1  0  0  0
  2 84  1  0  0  0
  3  4  1  0  0  0
  3 85  1  0  0  0
  3 86  1  0  0  0
  4  5  1  0  0  0
  4 87  1  0  0  0
  4 88  1  0  0  0
  5  6  1  0  0  0
  5 26  1  0  0  0
  5 89  1  0  0  0
  6 25  1  0  0  0
  6 90  1  0  0  0
  6 91  1  0  0  0
  7  8  2  0  0  0
  7 26  1  0  0  0
  7 29  1  0  0  0
  8  9  1  0  0  0
  8 22  1  0  0  0
  9 10  1  0  0  0
  9 27  2  0  0  0
 10 11  2  0  0  0
 10 15  1  0  0  0
 11 12  1  0  0  0
 11 92  1  0  0  0
 12 13  2  0  0  0
 12 93  1  0  0  0
 13 14  1  0  0  0
 13 31  1  0  0  0
 14 15  2  0  0  0
 14 94  1  0  0  0
 15 95  1  0  0  0
 16 17  2  0  0  0
 16 21  1  0  0  0
 16 31  1  0  0  0
 17 18  1  0  0  0
 17 96  1  0  0  0
 18 19  2  0  0  0
 18 97  1  0  0  0
 19 20  1  0  0  0
 19 24  1  0  0  0
 20 21  2  0  0  0
 20 98  1  0  0  0
 21 23  1  0  0  0
 22 28  1  0  0  0
 22 32  2  0  0  0
 26 27  1  0  0  0
 28 99  1  0  0  0
 28100  1  0  0  0
 29101  1  0  0  0
 29102  1  0  0  0
 33 34  1  0  0  0
 33 66  1  0  0  0
 33 70  2  0  0  0
 34 36  1  0  0  0
 34 59  1  0  0  0
 34103  1  0  0  0
 35 44  2  0  0  0
 35 45  1  0  0  0
 35 68  1  0  0  0
 36 56  1  0  0  0
 36104  1  0  0  0
 37 39  1  0  0  0
 37 47  1  0  0  0
 37 66  1  0  0  0
 37105  1  0  0  0
 38 43  2  0  0  0
 38 46  1  0  0  0
 38 47  1  0  0  0
 39 64  1  0  0  0
 39 67  2  0  0  0
 40 52  1  0  0  0
 40 53  2  0  0  0
 40 58  1  0  0  0
 41106  1  0  0  0
 41107  1  0  0  0
 41108  1  0  0  0
 41 48  1  0  0  0
 42 43  1  0  0  0
 42 66  1  0  0  0
 42109  1  0  0  0
 42110  1  0  0  0
 43 44  1  0  0  0
 44111  1  0  0  0
 45 46  2  0  0  0
 45112  1  0  0  0
 46113  1  0  0  0
 47114  1  0  0  0
 47115  1  0  0  0
 48 56  1  0  0  0
 48 65  1  0  0  0
 48116  1  0  0  0
 49 50  1  0  0  0
 49 53  1  0  0  0
 49 64  1  0  0  0
 49117  1  0  0  0
 50 51  1  0  0  0
 50118  1  0  0  0
 50119  1  0  0  0
 51 52  1  0  0  0
 51120  1  0  0  0
 51121  1  0  0  0
 52122  1  0  0  0
 52123  1  0  0  0
 53 54  1  0  0  0
 54 55  2  0  0  0
 54124  1  0  0  0
 55 57  1  0  0  0
 55125  1  0  0  0
 56 69  2  0  0  0
 57 58  2  0  0  0
 57126  1  0  0  0
 58127  1  0  0  0
 59 60  1  0  0  0
 59 61  1  0  0  0
 59 62  1  0  0  0
 60128  1  0  0  0
 60129  1  0  0  0
 60130  1  0  0  0
 61131  1  0  0  0
 61132  1  0  0  0
 61133  1  0  0  0
 62134  1  0  0  0
 62135  1  0  0  0
 62136  1  0  0  0
 63 65  1  0  0  0
 63137  1  0  0  0
 63138  1  0  0  0
 63139  1  0  0  0
 64140  1  0  0  0
 65141  1  0  0  0
 68 81  1  0  0  0
 71 73  2  0  0  0
 71 76  1  0  0  0
 71142  1  0  0  0
 72 74  1  0  0  0
 72 76  2  0  0  0
 72143  1  0  0  0
 73 75  1  0  0  0
 73 77  1  0  0  0
 74 75  2  0  0  0
 74 78  1  0  0  0
 75 79  1  0  0  0
 76 82  1  0  0  0
 77144  1  0  0  0
 77145  1  0  0  0
 77146  1  0  0  0
 78147  1  0  0  0
 78148  1  0  0  0
 78149  1  0  0  0
 79 80  1  0  0  0
 79150  1  0  0  0
 79151  1  0  0  0
 80 81  1  0  0  0
 80152  1  0  0  0
 80153  1  0  0  0
 81154  1  0  0  0
 81155  1  0  0  0
 82156  1  0  0  0
M  ISO  4   1 100  68 101  81 101  82 100
M  END
> <chiral flag>
0

> <version>
0

> <s_m_source_file>
/data/baiqing/PycharmProjects/Reinvent-master-3.2/result/LINK_invent/BTK/process_docking_weight1_custom_sum_contain_oxygen_bond_distance_aromatic_linkinvent_7_9_3/rearranged_h_0021.sdf

> <i_m_source_file_index>
5

> <r_mmod_Potential_Energy-OPLS-2005>
362.037933349609

> <r_mmod_Stretch_Energy-OPLS-2005>
186.312789916992

> <r_mmod_Bend_Energy-OPLS-2005>
241.12678527832

> <r_mmod_Torsional_Energy-OPLS-2005>
241.908493041992

> <r_mmod_Improper_Torsional_Energy-OPLS-2005>
7.68209409713745

> <r_mmod_Van_der_Waal_Energy-OPLS-2005>
128.809112548828

> <r_mmod_Electrostatic_Energy-OPLS-2005>
-377.669067382812

> <r_mmod_Solvation_Energy-OPLS-2005>
-205.003723144531

> <b_mmod_Minimization_Converged-OPLS-2005>
0

> <r_mmod_RMS_Derivative-OPLS-2005>
0.374660044908524

$$$$
5
                    3D
 Structure written by MMmdl.
159167  0  0  1  0            999 V2000
  -30.2843  -15.6614   20.3210 C   0  0  0  0  0  0
  -30.4233  -13.1070   19.5268 C   0  0  0  0  0  0
  -29.5537  -12.6685   18.3154 C   0  0  0  0  0  0
  -28.1258  -12.3026   18.7563 C   0  0  0  0  0  0
  -27.5904  -13.3098   19.7998 C   0  0  2  0  0  0
  -28.6063  -13.6549   20.9123 C   0  0  0  0  0  0
  -25.2291  -13.8267   20.5801 C   0  0  0  0  0  0
  -24.1685  -13.0415   20.9296 C   0  0  0  0  0  0
  -24.6384  -11.6932   20.8742 C   0  0  0  0  0  0
  -23.9086  -10.4287   21.0363 C   0  0  0  0  0  0
  -24.3621   -9.4205   21.9144 C   0  0  0  0  0  0
  -23.6304   -8.2246   22.0729 C   0  0  0  0  0  0
  -22.4275   -8.0272   21.3539 C   0  0  0  0  0  0
  -21.9916   -9.0233   20.4629 C   0  0  0  0  0  0
  -22.7246  -10.2119   20.3025 C   0  0  0  0  0  0
  -21.6856   -6.0726   22.5276 C   0  0  0  0  0  0
  -21.4004   -6.5629   23.8213 C   0  0  0  0  0  0
  -21.3668   -5.6777   24.9165 C   0  0  0  0  0  0
  -21.6058   -4.3044   24.7215 C   0  0  0  0  0  0
  -21.8816   -3.8137   23.4331 C   0  0  0  0  0  0
  -21.9186   -4.6954   22.3390 C   0  0  0  0  0  0
  -22.7710  -13.5155   21.1932 C   0  0  0  0  0  0
  -22.1669   -4.2141   21.0967 F   0  0  0  0  0  0
  -21.5635   -3.4525   25.7727 F   0  0  0  0  0  0
  -29.7695  -14.2904   20.2455 N   0  0  0  0  0  0
  -26.2728  -12.9610   20.3157 N   0  0  0  0  0  0
  -25.9320  -11.6682   20.5620 N   0  0  0  0  0  0
  -22.0348  -12.8148   22.0485 N   0  0  0  0  0  0
  -25.3876  -15.2008   20.4306 N   0  0  0  0  0  0
  -31.5275  -15.5936   20.2313 O   0  0  0  0  0  0
  -21.6646   -6.8863   21.4242 O   0  0  0  0  0  0
  -22.3385  -14.5450   20.6725 O   0  0  0  0  0  0
  -24.6896  -31.7966   23.1511 C   0  0  0  0  0  0
  -25.9453  -32.4457   23.8069 C   0  0  1  0  0  0
  -27.2255  -26.6810   20.2162 C   0  0  0  0  0  0
  -25.6016  -33.8283   24.1951 N   0  0  0  0  0  0
  -23.5149  -30.3992   21.5056 C   0  0  2  0  0  0
  -24.9696  -28.7321   20.1264 C   0  0  0  0  0  0
  -22.7794  -29.4303   22.4711 C   0  0  0  0  0  0
  -18.0333  -28.1422   22.8431 C   0  0  0  0  0  0
  -24.1487  -36.7138   23.2644 C   0  0  0  0  0  0
  -26.0989  -30.5240   21.4156 C   0  0  0  0  0  0
  -26.1637  -29.0858   20.7672 C   0  0  0  0  0  0
  -27.2818  -28.0927   20.7687 C   0  0  0  0  0  0
  -25.9927  -26.5377   19.5302 C   0  0  0  0  0  0
  -24.9247  -27.4844   19.4833 C   0  0  0  0  0  0
  -23.7702  -29.6921   20.1438 C   0  0  0  0  0  0
  -25.4145  -36.2900   24.0275 C   0  0  1  0  0  0
  -20.5975  -28.3788   23.1123 C   0  0  2  0  0  0
  -20.6797  -26.9440   22.5396 C   0  0  0  0  0  0
  -19.5786  -26.6363   21.5195 C   0  0  0  0  0  0
  -18.1965  -26.7945   22.1598 C   0  0  0  0  0  0
  -19.1600  -28.8931   23.2755 C   0  0  0  0  0  0
  -18.9504  -30.1505   23.8815 C   0  0  0  0  0  0
  -17.6496  -30.6600   24.0535 C   0  0  0  0  0  0
  -25.9131  -34.9284   23.4954 C   0  0  0  0  0  0
  -16.5381  -29.9091   23.6339 C   0  0  0  0  0  0
  -16.7319  -28.6515   23.0364 C   0  0  0  0  0  0
  -26.4632  -31.6496   25.0692 C   0  0  0  0  0  0
  -25.3678  -31.3825   26.1294 C   0  0  0  0  0  0
  -27.0544  -30.2827   24.6587 C   0  0  0  0  0  0
  -27.6102  -32.4339   25.7500 C   0  0  0  0  0  0
  -27.5567  -37.1736   24.8466 C   0  0  0  0  0  0
  -21.4437  -29.3043   22.3456 N   0  0  0  0  0  0
  -26.4276  -37.3664   23.9402 N   0  0  0  0  0  0
  -24.7915  -30.9395   22.0765 N   0  0  0  0  0  0
  -23.4234  -28.7883   23.3042 O   0  0  0  0  0  0
  -28.2077  -25.4694   20.1978 O   0  0  0  0  0  0
  -26.5770  -34.8870   22.4573 O   0  0  0  0  0  0
  -23.5906  -32.1047   23.6448 O   0  0  0  0  0  0
  -30.5412  -19.8245   19.7488 C   0  0  0  0  0  0
  -30.2090  -21.4406   19.9919 C   0  0  0  0  0  0
  -28.3665  -20.2079   20.4502 C   0  0  0  0  0  0
  -29.5489  -18.8220   20.4741 C   0  0  1  0  0  0
  -28.6766  -21.9322   19.9121 C   0  0  2  0  0  0
  -28.8657  -21.1278   17.3666 C   0  0  0  0  0  0
  -26.6551  -21.8510   18.2593 C   0  0  0  0  0  0
  -28.2021  -23.6955   22.0066 C   0  0  0  0  0  0
  -28.1855  -22.0267   18.4172 C   0  0  0  0  0  0
  -28.0759  -23.7237   20.4826 C   0  0  1  0  0  0
  -29.5106  -17.0262   20.3090 N   0  0  0  0  0  0
  -31.4099  -13.3867   19.1584 H   0  0  0  0  0  0
  -30.6025  -12.2751   20.2094 H   0  0  0  0  0  0
  -30.0195  -11.8333   17.7928 H   0  0  0  0  0  0
  -29.5106  -13.4883   17.5956 H   0  0  0  0  0  0
  -28.1554  -11.3059   19.1967 H   0  0  0  0  0  0
  -27.4601  -12.2441   17.8930 H   0  0  0  0  0  0
  -27.4469  -14.2267   19.2284 H   0  0  0  0  0  0
  -28.8741  -12.7779   21.5019 H   0  0  0  0  0  0
  -28.1673  -14.3682   21.6126 H   0  0  0  0  0  0
  -25.2751   -9.5694   22.4721 H   0  0  0  0  0  0
  -24.0013   -7.4633   22.7438 H   0  0  0  0  0  0
  -21.0858   -8.8729   19.8944 H   0  0  0  0  0  0
  -22.3670  -10.9631   19.6143 H   0  0  0  0  0  0
  -21.1997   -7.6139   23.9704 H   0  0  0  0  0  0
  -21.1507   -6.0511   25.9070 H   0  0  0  0  0  0
  -22.0590   -2.7599   23.2820 H   0  0  0  0  0  0
  -22.3982  -11.9875   22.4973 H   0  0  0  0  0  0
  -21.0930  -13.1126   22.2590 H   0  0  0  0  0  0
  -24.6134  -15.8461   20.5498 H   0  0  0  0  0  0
  -26.2289  -15.6477   20.0912 H   0  0  0  0  0  0
  -26.7532  -32.4930   23.0774 H   0  0  0  0  0  0
  -25.0100  -33.9323   25.0070 H   0  0  0  0  0  0
  -22.8415  -31.2370   21.3122 H   0  0  0  0  0  0
  -23.3788  -35.9429   23.3271 H   0  0  0  0  0  0
  -24.3542  -36.8841   22.2064 H   0  0  0  0  0  0
  -23.7211  -37.6291   23.6747 H   0  0  0  0  0  0
  -26.3060  -31.2468   20.6247 H   0  0  0  0  0  0
  -26.9502  -30.5946   22.0806 H   0  0  0  0  0  0
  -28.1926  -28.3793   21.2754 H   0  0  0  0  0  0
  -25.8231  -25.5951   19.0280 H   0  0  0  0  0  0
  -24.0246  -27.2069   18.9508 H   0  0  0  0  0  0
  -23.9548  -30.4483   19.3808 H   0  0  0  0  0  0
  -22.8750  -29.1619   19.8150 H   0  0  0  0  0  0
  -25.1356  -36.1668   25.0767 H   0  0  0  0  0  0
  -21.0040  -28.3409   24.1252 H   0  0  0  0  0  0
  -20.5632  -26.2409   23.3661 H   0  0  0  0  0  0
  -21.6664  -26.7366   22.1239 H   0  0  0  0  0  0
  -19.6951  -25.6250   21.1292 H   0  0  0  0  0  0
  -19.6739  -27.3107   20.6675 H   0  0  0  0  0  0
  -17.4227  -26.6651   21.4009 H   0  0  0  0  0  0
  -18.0382  -26.0119   22.9034 H   0  0  0  0  0  0
  -19.7980  -30.7323   24.2176 H   0  0  0  0  0  0
  -17.5054  -31.6274   24.5145 H   0  0  0  0  0  0
  -15.5384  -30.2973   23.7723 H   0  0  0  0  0  0
  -15.8709  -28.0807   22.7150 H   0  0  0  0  0  0
  -24.5860  -30.7194   25.7568 H   0  0  0  0  0  0
  -24.8875  -32.3055   26.4553 H   0  0  0  0  0  0
  -25.7829  -30.9068   27.0186 H   0  0  0  0  0  0
  -26.3260  -29.6455   24.1555 H   0  0  0  0  0  0
  -27.3943  -29.7258   25.5331 H   0  0  0  0  0  0
  -27.9267  -30.3943   24.0138 H   0  0  0  0  0  0
  -27.2686  -33.3724   26.1878 H   0  0  0  0  0  0
  -28.4028  -32.6759   25.0401 H   0  0  0  0  0  0
  -28.0651  -31.8585   26.5574 H   0  0  0  0  0  0
  -28.2574  -38.0046   24.7527 H   0  0  0  0  0  0
  -28.1084  -36.2576   24.6293 H   0  0  0  0  0  0
  -27.2280  -37.1373   25.8870 H   0  0  0  0  0  0
  -20.9758  -29.8684   21.6498 H   0  0  0  0  0  0
  -26.0107  -38.2711   24.1433 H   0  0  0  0  0  0
  -31.5666  -19.6194   20.0595 H   0  0  0  0  0  0
  -30.5396  -19.5934   18.6868 H   0  0  0  0  0  0
  -30.8287  -22.0494   19.3329 H   0  0  0  0  0  0
  -30.5663  -21.6811   20.9935 H   0  0  0  0  0  0
  -28.0167  -20.2966   21.4792 H   0  0  0  0  0  0
  -27.4840  -19.8508   19.9233 H   0  0  0  0  0  0
  -29.8971  -18.8531   21.5066 H   0  0  0  0  0  0
  -29.9398  -21.2921   17.3041 H   0  0  0  0  0  0
  -28.4737  -21.3357   16.3702 H   0  0  0  0  0  0
  -28.6782  -20.0724   17.5654 H   0  0  0  0  0  0
  -26.0629  -22.3002   19.0541 H   0  0  0  0  0  0
  -26.3774  -20.7968   18.2269 H   0  0  0  0  0  0
  -26.3060  -22.2947   17.3258 H   0  0  0  0  0  0
  -27.8857  -22.7297   22.4018 H   0  0  0  0  0  0
  -27.5803  -24.4600   22.4726 H   0  0  0  0  0  0
  -29.2315  -23.8648   22.3177 H   0  0  0  0  0  0
  -28.4127  -23.0480   18.1027 H   0  0  0  0  0  0
  -27.0041  -23.6500   20.3236 H   0  0  0  0  0  0
  -28.5362  -16.7661   20.2538 H   0  0  0  0  0  0
  1 25  1  0  0  0
  1 30  2  0  0  0
  1 81  1  0  0  0
  2  3  1  0  0  0
  2 25  1  0  0  0
  2 82  1  0  0  0
  2 83  1  0  0  0
  3  4  1  0  0  0
  3 84  1  0  0  0
  3 85  1  0  0  0
  4  5  1  0  0  0
  4 86  1  0  0  0
  4 87  1  0  0  0
  5  6  1  0  0  0
  5 26  1  0  0  0
  5 88  1  0  0  0
  6 25  1  0  0  0
  6 89  1  0  0  0
  6 90  1  0  0  0
  7  8  2  0  0  0
  7 26  1  0  0  0
  7 29  1  0  0  0
  8  9  1  0  0  0
  8 22  1  0  0  0
  9 10  1  0  0  0
  9 27  2  0  0  0
 10 11  2  0  0  0
 10 15  1  0  0  0
 11 12  1  0  0  0
 11 91  1  0  0  0
 12 13  2  0  0  0
 12 92  1  0  0  0
 13 14  1  0  0  0
 13 31  1  0  0  0
 14 15  2  0  0  0
 14 93  1  0  0  0
 15 94  1  0  0  0
 16 17  2  0  0  0
 16 21  1  0  0  0
 16 31  1  0  0  0
 17 18  1  0  0  0
 17 95  1  0  0  0
 18 19  2  0  0  0
 18 96  1  0  0  0
 19 20  1  0  0  0
 19 24  1  0  0  0
 20 21  2  0  0  0
 20 97  1  0  0  0
 21 23  1  0  0  0
 22 28  1  0  0  0
 22 32  2  0  0  0
 26 27  1  0  0  0
 28 98  1  0  0  0
 28 99  1  0  0  0
 29100  1  0  0  0
 29101  1  0  0  0
 33 34  1  0  0  0
 33 66  1  0  0  0
 33 70  2  0  0  0
 34 36  1  0  0  0
 34 59  1  0  0  0
 34102  1  0  0  0
 35 44  2  0  0  0
 35 45  1  0  0  0
 35 68  1  0  0  0
 36 56  1  0  0  0
 36103  1  0  0  0
 37 39  1  0  0  0
 37 47  1  0  0  0
 37 66  1  0  0  0
 37104  1  0  0  0
 38 43  2  0  0  0
 38 46  1  0  0  0
 38 47  1  0  0  0
 39 64  1  0  0  0
 39 67  2  0  0  0
 40 52  1  0  0  0
 40 53  2  0  0  0
 40 58  1  0  0  0
 41105  1  0  0  0
 41106  1  0  0  0
 41107  1  0  0  0
 41 48  1  0  0  0
 42 43  1  0  0  0
 42 66  1  0  0  0
 42108  1  0  0  0
 42109  1  0  0  0
 43 44  1  0  0  0
 44110  1  0  0  0
 45 46  2  0  0  0
 45111  1  0  0  0
 46112  1  0  0  0
 47113  1  0  0  0
 47114  1  0  0  0
 48 56  1  0  0  0
 48 65  1  0  0  0
 48115  1  0  0  0
 49 50  1  0  0  0
 49 53  1  0  0  0
 49 64  1  0  0  0
 49116  1  0  0  0
 50 51  1  0  0  0
 50117  1  0  0  0
 50118  1  0  0  0
 51 52  1  0  0  0
 51119  1  0  0  0
 51120  1  0  0  0
 52121  1  0  0  0
 52122  1  0  0  0
 53 54  1  0  0  0
 54 55  2  0  0  0
 54123  1  0  0  0
 55 57  1  0  0  0
 55124  1  0  0  0
 56 69  2  0  0  0
 57 58  2  0  0  0
 57125  1  0  0  0
 58126  1  0  0  0
 59 60  1  0  0  0
 59 61  1  0  0  0
 59 62  1  0  0  0
 60127  1  0  0  0
 60128  1  0  0  0
 60129  1  0  0  0
 61130  1  0  0  0
 61131  1  0  0  0
 61132  1  0  0  0
 62133  1  0  0  0
 62134  1  0  0  0
 62135  1  0  0  0
 63 65  1  0  0  0
 63136  1  0  0  0
 63137  1  0  0  0
 63138  1  0  0  0
 64139  1  0  0  0
 65140  1  0  0  0
 68 80  1  0  0  0
 71 72  1  0  0  0
 71 74  1  0  0  0
 71141  1  0  0  0
 71142  1  0  0  0
 72143  1  0  0  0
 72144  1  0  0  0
 72 75  1  0  0  0
 73 74  1  0  0  0
 73 75  1  0  0  0
 73145  1  0  0  0
 73146  1  0  0  0
 74 81  1  0  0  0
 74147  1  0  0  0
 75 79  1  0  0  0
 75 80  1  0  0  0
 76148  1  0  0  0
 76149  1  0  0  0
 76150  1  0  0  0
 76 79  1  0  0  0
 77 79  1  0  0  0
 77151  1  0  0  0
 77152  1  0  0  0
 77153  1  0  0  0
 78154  1  0  0  0
 78155  1  0  0  0
 78156  1  0  0  0
 78 80  1  0  0  0
 79157  1  0  0  0
 80158  1  0  0  0
 81159  1  0  0  0
M  ISO  4   1 100  68 101  80 101  81 100
M  END
> <chiral flag>
0

> <version>
0

> <s_m_source_file>
/data/baiqing/PycharmProjects/Reinvent-master-3.2/result/LINK_invent/BTK/process_docking_weight1_custom_sum_contain_oxygen_bond_distance_aromatic_linkinvent_7_9_3/rearranged_h_0021.sdf

> <i_m_source_file_index>
6

> <r_mmod_Potential_Energy-OPLS-2005>
2694.294921875

> <r_mmod_Stretch_Energy-OPLS-2005>
1133.88354492188

> <r_mmod_Bend_Energy-OPLS-2005>
782.233032226562

> <r_mmod_Torsional_Energy-OPLS-2005>
292.772247314453

> <r_mmod_Improper_Torsional_Energy-OPLS-2005>
4.08304119110107

> <r_mmod_Van_der_Waal_Energy-OPLS-2005>
113.344711303711

> <r_mmod_Electrostatic_Energy-OPLS-2005>
-367.608062744141

> <r_mmod_Solvation_Energy-OPLS-2005>
-204.982162475586

> <b_mmod_Minimization_Converged-OPLS-2005>
0

> <r_mmod_RMS_Derivative-OPLS-2005>
3.46845030784607

$$$$
6
                    3D
 Structure written by MMmdl.
153161  0  0  1  0            999 V2000
  -30.5429  -14.8591   20.4579 C   0  0  0  0  0  0
  -30.4520  -12.5297   19.4928 C   0  0  0  0  0  0
  -29.5234  -12.5380   18.2550 C   0  0  0  0  0  0
  -28.0520  -12.3354   18.6675 C   0  0  0  0  0  0
  -27.6442  -13.2382   19.8601 C   0  0  2  0  0  0
  -28.6879  -13.1910   20.9985 C   0  0  0  0  0  0
  -25.2498  -13.8198   20.5694 C   0  0  0  0  0  0
  -24.1789  -13.0435   20.9188 C   0  0  0  0  0  0
  -24.6398  -11.6922   20.8749 C   0  0  0  0  0  0
  -23.9079  -10.4300   21.0407 C   0  0  0  0  0  0
  -24.3631   -9.4214   21.9188 C   0  0  0  0  0  0
  -23.6303   -8.2250   22.0757 C   0  0  0  0  0  0
  -22.4286   -8.0282   21.3547 C   0  0  0  0  0  0
  -21.9925   -9.0251   20.4651 C   0  0  0  0  0  0
  -22.7251  -10.2131   20.3060 C   0  0  0  0  0  0
  -21.6856   -6.0735   22.5279 C   0  0  0  0  0  0
  -21.4012   -6.5643   23.8208 C   0  0  0  0  0  0
  -21.3666   -5.6799   24.9173 C   0  0  0  0  0  0
  -21.6048   -4.3055   24.7228 C   0  0  0  0  0  0
  -21.8817   -3.8144   23.4346 C   0  0  0  0  0  0
  -21.9191   -4.6963   22.3403 C   0  0  0  0  0  0
  -22.7811  -13.5211   21.1851 C   0  0  0  0  0  0
  -22.1658   -4.2151   21.0980 F   0  0  0  0  0  0
  -21.5636   -3.4536   25.7736 F   0  0  0  0  0  0
  -29.9837  -13.5888   20.4256 N   0  0  0  0  0  0
  -26.2953  -12.9429   20.3331 N   0  0  0  0  0  0
  -25.9346  -11.6565   20.5788 N   0  0  0  0  0  0
  -22.0469  -12.8199   22.0423 N   0  0  0  0  0  0
  -25.4147  -15.1910   20.4077 N   0  0  0  0  0  0
  -31.7084  -15.0065   20.0754 O   0  0  0  0  0  0
  -21.6639   -6.8876   21.4242 O   0  0  0  0  0  0
  -22.3497  -14.5525   20.6706 O   0  0  0  0  0  0
  -24.6364  -31.8481   23.1940 C   0  0  0  0  0  0
  -25.9164  -32.4713   23.8301 C   0  0  1  0  0  0
  -27.2201  -27.1949   20.1451 C   0  0  0  0  0  0
  -25.5928  -33.8514   24.2207 N   0  0  0  0  0  0
  -23.4372  -30.4740   21.5366 C   0  0  2  0  0  0
  -24.8849  -28.9094   20.1101 C   0  0  0  0  0  0
  -22.7542  -29.4585   22.4858 C   0  0  0  0  0  0
  -18.0316  -28.1375   22.8498 C   0  0  0  0  0  0
  -24.1499  -36.7265   23.2655 C   0  0  0  0  0  0
  -25.9899  -30.7413   21.3838 C   0  0  0  0  0  0
  -26.0609  -29.3610   20.7223 C   0  0  0  0  0  0
  -27.2293  -28.5196   20.7211 C   0  0  0  0  0  0
  -26.0169  -26.8318   19.4950 C   0  0  0  0  0  0
  -24.8712  -27.6532   19.4867 C   0  0  0  0  0  0
  -23.6597  -29.8076   20.1532 C   0  0  0  0  0  0
  -25.4126  -36.3043   24.0334 C   0  0  1  0  0  0
  -20.5925  -28.3691   23.1237 C   0  0  2  0  0  0
  -20.6798  -26.9391   22.5405 C   0  0  0  0  0  0
  -19.5760  -26.6351   21.5216 C   0  0  0  0  0  0
  -18.1944  -26.7923   22.1624 C   0  0  0  0  0  0
  -19.1574  -28.8847   23.2863 C   0  0  0  0  0  0
  -18.9496  -30.1459   23.8851 C   0  0  0  0  0  0
  -17.6492  -30.6571   24.0564 C   0  0  0  0  0  0
  -25.9061  -34.9419   23.5074 C   0  0  0  0  0  0
  -16.5379  -29.9081   23.6325 C   0  0  0  0  0  0
  -16.7305  -28.6508   23.0343 C   0  0  0  0  0  0
  -26.4498  -31.6577   25.0727 C   0  0  0  0  0  0
  -25.3722  -31.3777   26.1462 C   0  0  0  0  0  0
  -27.0341  -30.2974   24.6263 C   0  0  0  0  0  0
  -27.6004  -32.4368   25.7508 C   0  0  0  0  0  0
  -27.5578  -37.1794   24.8470 C   0  0  0  0  0  0
  -21.4241  -29.3041   22.3624 N   0  0  0  0  0  0
  -26.4290  -37.3748   23.9421 N   0  0  0  0  0  0
  -24.7081  -31.0416   22.0929 N   0  0  0  0  0  0
  -23.4228  -28.8113   23.2972 O   0  0  0  0  0  0
  -28.2895  -26.2440   20.2292 O   0  0  0  0  0  0
  -26.5652  -34.8907   22.4649 O   0  0  0  0  0  0
  -23.5495  -32.1311   23.7199 O   0  0  0  0  0  0
  -30.4572  -18.3205   19.8878 C   0  0  0  0  0  0
  -28.3205  -19.5693   21.2076 C   0  0  0  0  0  0
  -29.0860  -20.4327   20.3453 C   0  0  0  0  0  0
  -29.6460  -17.4439   20.6753 C   0  0  0  0  0  0
  -30.1864  -19.7397   19.7266 C   0  0  0  0  0  0
  -28.5974  -18.1457   21.3561 C   0  0  0  0  0  0
  -27.1349  -20.1866   21.9525 C   0  0  0  0  0  0
  -28.5654  -21.9254   19.8870 C   0  0  0  0  0  0
  -28.9724  -23.4398   20.4236 C   0  0  0  0  0  0
  -28.0154  -24.7453   20.0327 C   0  0  0  0  0  0
  -29.7144  -15.9311   20.8141 N   0  0  0  0  0  0
  -31.2230  -20.6275   18.6680 Cl  0  0  0  0  0  0
  -27.5929  -17.1774   22.3872 Cl  0  0  0  0  0  0
  -31.4865  -12.6893   19.1845 H   0  0  0  0  0  0
  -30.4367  -11.5547   19.9828 H   0  0  0  0  0  0
  -29.8242  -11.7629   17.5488 H   0  0  0  0  0  0
  -29.6285  -13.4897   17.7310 H   0  0  0  0  0  0
  -27.9268  -11.2865   18.9385 H   0  0  0  0  0  0
  -27.3925  -12.5112   17.8175 H   0  0  0  0  0  0
  -27.6308  -14.2575   19.4729 H   0  0  0  0  0  0
  -28.7496  -12.1920   21.4322 H   0  0  0  0  0  0
  -28.3988  -13.8548   21.8152 H   0  0  0  0  0  0
  -25.2769   -9.5685   22.4776 H   0  0  0  0  0  0
  -23.9999   -7.4643   22.7482 H   0  0  0  0  0  0
  -21.0857   -8.8777   19.8961 H   0  0  0  0  0  0
  -22.3704  -10.9676   19.6176 H   0  0  0  0  0  0
  -21.1997   -7.6152   23.9716 H   0  0  0  0  0  0
  -21.1496   -6.0523   25.9077 H   0  0  0  0  0  0
  -22.0589   -2.7609   23.2841 H   0  0  0  0  0  0
  -22.4074  -11.9826   22.4761 H   0  0  0  0  0  0
  -21.1108  -13.1251   22.2689 H   0  0  0  0  0  0
  -24.6512  -15.8438   20.5411 H   0  0  0  0  0  0
  -26.2735  -15.6437   20.1279 H   0  0  0  0  0  0
  -26.7223  -32.5305   23.1027 H   0  0  0  0  0  0
  -25.0094  -33.9635   25.0366 H   0  0  0  0  0  0
  -22.7370  -31.2999   21.3880 H   0  0  0  0  0  0
  -23.3758  -35.9591   23.3293 H   0  0  0  0  0  0
  -24.3596  -36.8886   22.2066 H   0  0  0  0  0  0
  -23.7249  -37.6463   23.6690 H   0  0  0  0  0  0
  -26.1522  -31.5018   20.6189 H   0  0  0  0  0  0
  -26.8597  -30.7787   22.0277 H   0  0  0  0  0  0
  -28.1271  -28.8651   21.2144 H   0  0  0  0  0  0
  -25.9228  -25.8740   19.0065 H   0  0  0  0  0  0
  -23.9670  -27.3014   19.0071 H   0  0  0  0  0  0
  -23.7985  -30.5860   19.4013 H   0  0  0  0  0  0
  -22.7732  -29.2531   19.8405 H   0  0  0  0  0  0
  -25.1307  -36.1863   25.0820 H   0  0  0  0  0  0
  -21.0038  -28.3264   24.1349 H   0  0  0  0  0  0
  -20.5660  -26.2297   23.3623 H   0  0  0  0  0  0
  -21.6662  -26.7370   22.1200 H   0  0  0  0  0  0
  -19.6907  -25.6256   21.1252 H   0  0  0  0  0  0
  -19.6696  -27.3165   20.6753 H   0  0  0  0  0  0
  -17.4218  -26.6684   21.4031 H   0  0  0  0  0  0
  -18.0325  -26.0061   22.9002 H   0  0  0  0  0  0
  -19.7978  -30.7311   24.2148 H   0  0  0  0  0  0
  -17.5055  -31.6239   24.5203 H   0  0  0  0  0  0
  -15.5387  -30.2978   23.7668 H   0  0  0  0  0  0
  -15.8711  -28.0836   22.7030 H   0  0  0  0  0  0
  -24.5911  -30.7072   25.7869 H   0  0  0  0  0  0
  -24.8914  -32.2962   26.4830 H   0  0  0  0  0  0
  -25.8062  -30.9050   27.0275 H   0  0  0  0  0  0
  -26.2931  -29.6732   24.1258 H   0  0  0  0  0  0
  -27.3972  -29.7229   25.4793 H   0  0  0  0  0  0
  -27.8830  -30.4236   23.9545 H   0  0  0  0  0  0
  -27.2559  -33.3711   26.1962 H   0  0  0  0  0  0
  -28.3872  -32.6852   25.0378 H   0  0  0  0  0  0
  -28.0592  -31.8578   26.5529 H   0  0  0  0  0  0
  -28.2582  -38.0109   24.7499 H   0  0  0  0  0  0
  -28.1078  -36.2621   24.6293 H   0  0  0  0  0  0
  -27.2293  -37.1427   25.8876 H   0  0  0  0  0  0
  -20.9417  -29.8801   21.6863 H   0  0  0  0  0  0
  -26.0145  -38.2804   24.1420 H   0  0  0  0  0  0
  -31.2903  -17.9028   19.3419 H   0  0  0  0  0  0
  -27.4688  -21.0353   22.5481 H   0  0  0  0  0  0
  -26.6273  -19.5133   22.6394 H   0  0  0  0  0  0
  -26.3743  -20.5351   21.2554 H   0  0  0  0  0  0
  -27.4782  -21.8851   19.9191 H   0  0  0  0  0  0
  -28.7550  -21.9549   18.8137 H   0  0  0  0  0  0
  -29.9783  -23.6461   20.0580 H   0  0  0  0  0  0
  -29.0639  -23.4057   21.5086 H   0  0  0  0  0  0
  -27.0684  -24.5524   20.5397 H   0  0  0  0  0  0
  -27.7965  -24.6407   18.9705 H   0  0  0  0  0  0
  -28.8675  -15.5816   21.2397 H   0  0  0  0  0  0
  1 25  1  0  0  0
  1 30  2  0  0  0
  1 81  1  0  0  0
  2  3  1  0  0  0
  2 25  1  0  0  0
  2 84  1  0  0  0
  2 85  1  0  0  0
  3  4  1  0  0  0
  3 86  1  0  0  0
  3 87  1  0  0  0
  4  5  1  0  0  0
  4 88  1  0  0  0
  4 89  1  0  0  0
  5  6  1  0  0  0
  5 26  1  0  0  0
  5 90  1  0  0  0
  6 25  1  0  0  0
  6 91  1  0  0  0
  6 92  1  0  0  0
  7  8  2  0  0  0
  7 26  1  0  0  0
  7 29  1  0  0  0
  8  9  1  0  0  0
  8 22  1  0  0  0
  9 10  1  0  0  0
  9 27  2  0  0  0
 10 11  2  0  0  0
 10 15  1  0  0  0
 11 12  1  0  0  0
 11 93  1  0  0  0
 12 13  2  0  0  0
 12 94  1  0  0  0
 13 14  1  0  0  0
 13 31  1  0  0  0
 14 15  2  0  0  0
 14 95  1  0  0  0
 15 96  1  0  0  0
 16 17  2  0  0  0
 16 21  1  0  0  0
 16 31  1  0  0  0
 17 18  1  0  0  0
 17 97  1  0  0  0
 18 19  2  0  0  0
 18 98  1  0  0  0
 19 20  1  0  0  0
 19 24  1  0  0  0
 20 21  2  0  0  0
 20 99  1  0  0  0
 21 23  1  0  0  0
 22 28  1  0  0  0
 22 32  2  0  0  0
 26 27  1  0  0  0
 28100  1  0  0  0
 28101  1  0  0  0
 29102  1  0  0  0
 29103  1  0  0  0
 33 34  1  0  0  0
 33 66  1  0  0  0
 33 70  2  0  0  0
 34 36  1  0  0  0
 34 59  1  0  0  0
 34104  1  0  0  0
 35 44  2  0  0  0
 35 45  1  0  0  0
 35 68  1  0  0  0
 36 56  1  0  0  0
 36105  1  0  0  0
 37 39  1  0  0  0
 37 47  1  0  0  0
 37 66  1  0  0  0
 37106  1  0  0  0
 38 43  2  0  0  0
 38 46  1  0  0  0
 38 47  1  0  0  0
 39 64  1  0  0  0
 39 67  2  0  0  0
 40 52  1  0  0  0
 40 53  2  0  0  0
 40 58  1  0  0  0
 41107  1  0  0  0
 41108  1  0  0  0
 41109  1  0  0  0
 41 48  1  0  0  0
 42 43  1  0  0  0
 42 66  1  0  0  0
 42110  1  0  0  0
 42111  1  0  0  0
 43 44  1  0  0  0
 44112  1  0  0  0
 45 46  2  0  0  0
 45113  1  0  0  0
 46114  1  0  0  0
 47115  1  0  0  0
 47116  1  0  0  0
 48 56  1  0  0  0
 48 65  1  0  0  0
 48117  1  0  0  0
 49 50  1  0  0  0
 49 53  1  0  0  0
 49 64  1  0  0  0
 49118  1  0  0  0
 50 51  1  0  0  0
 50119  1  0  0  0
 50120  1  0  0  0
 51 52  1  0  0  0
 51121  1  0  0  0
 51122  1  0  0  0
 52123  1  0  0  0
 52124  1  0  0  0
 53 54  1  0  0  0
 54 55  2  0  0  0
 54125  1  0  0  0
 55 57  1  0  0  0
 55126  1  0  0  0
 56 69  2  0  0  0
 57 58  2  0  0  0
 57127  1  0  0  0
 58128  1  0  0  0
 59 60  1  0  0  0
 59 61  1  0  0  0
 59 62  1  0  0  0
 60129  1  0  0  0
 60130  1  0  0  0
 60131  1  0  0  0
 61132  1  0  0  0
 61133  1  0  0  0
 61134  1  0  0  0
 62135  1  0  0  0
 62136  1  0  0  0
 62137  1  0  0  0
 63 65  1  0  0  0
 63138  1  0  0  0
 63139  1  0  0  0
 63140  1  0  0  0
 64141  1  0  0  0
 65142  1  0  0  0
 68 80  1  0  0  0
 71 74  2  0  0  0
 71 75  1  0  0  0
 71143  1  0  0  0
 72 73  1  0  0  0
 72 76  2  0  0  0
 72 77  1  0  0  0
 73 75  2  0  0  0
 73 78  1  0  0  0
 74 76  1  0  0  0
 74 81  1  0  0  0
 75 82  1  0  0  0
 76 83  1  0  0  0
 77144  1  0  0  0
 77145  1  0  0  0
 77146  1  0  0  0
 78 79  1  0  0  0
 78147  1  0  0  0
 78148  1  0  0  0
 79 80  1  0  0  0
 79149  1  0  0  0
 79150  1  0  0  0
 80151  1  0  0  0
 80152  1  0  0  0
 81153  1  0  0  0
M  ISO  4   1 100  68 101  80 101  81 100
M  END
> <chiral flag>
0

> <version>
0

> <s_m_source_file>
/data/baiqing/PycharmProjects/Reinvent-master-3.2/result/LINK_invent/BTK/process_docking_weight1_custom_sum_contain_oxygen_bond_distance_aromatic_linkinvent_7_9_3/rearranged_h_0021.sdf

> <i_m_source_file_index>
7

> <r_mmod_Potential_Energy-OPLS-2005>
348.572174072266

> <r_mmod_Stretch_Energy-OPLS-2005>
191.202163696289

> <r_mmod_Bend_Energy-OPLS-2005>
240.826461791992

> <r_mmod_Torsional_Energy-OPLS-2005>
220.7890625

> <r_mmod_Improper_Torsional_Energy-OPLS-2005>
4.9782018661499

> <r_mmod_Van_der_Waal_Energy-OPLS-2005>
138.699935913086

> <r_mmod_Electrostatic_Energy-OPLS-2005>
-385.740570068359

> <r_mmod_Solvation_Energy-OPLS-2005>
-201.800323486328

> <b_mmod_Minimization_Converged-OPLS-2005>
0

> <r_mmod_RMS_Derivative-OPLS-2005>
3.12344908714294

$$$$
7
                    3D
 Structure written by MMmdl.
150158  0  0  1  0            999 V2000
  -30.4417  -15.1848   20.3823 C   0  0  0  0  0  0
  -30.4476  -12.7484   19.5232 C   0  0  0  0  0  0
  -29.5368  -12.5721   18.2818 C   0  0  0  0  0  0
  -28.0784  -12.3128   18.7015 C   0  0  0  0  0  0
  -27.6198  -13.2682   19.8318 C   0  0  2  0  0  0
  -28.6569  -13.3876   20.9692 C   0  0  0  0  0  0
  -25.2394  -13.8213   20.5695 C   0  0  0  0  0  0
  -24.1746  -13.0416   20.9230 C   0  0  0  0  0  0
  -24.6406  -11.6918   20.8757 C   0  0  0  0  0  0
  -23.9095  -10.4284   21.0405 C   0  0  0  0  0  0
  -24.3637   -9.4199   21.9185 C   0  0  0  0  0  0
  -23.6302   -8.2239   22.0755 C   0  0  0  0  0  0
  -22.4284   -8.0282   21.3544 C   0  0  0  0  0  0
  -21.9927   -9.0257   20.4645 C   0  0  0  0  0  0
  -22.7264  -10.2130   20.3054 C   0  0  0  0  0  0
  -21.6854   -6.0736   22.5279 C   0  0  0  0  0  0
  -21.4016   -6.5640   23.8213 C   0  0  0  0  0  0
  -21.3660   -5.6792   24.9175 C   0  0  0  0  0  0
  -21.6044   -4.3054   24.7226 C   0  0  0  0  0  0
  -21.8817   -3.8146   23.4346 C   0  0  0  0  0  0
  -21.9193   -4.6963   22.3402 C   0  0  0  0  0  0
  -22.7766  -13.5179   21.1893 C   0  0  0  0  0  0
  -22.1660   -4.2148   21.0977 F   0  0  0  0  0  0
  -21.5629   -3.4537   25.7738 F   0  0  0  0  0  0
  -29.9052  -13.8736   20.3603 N   0  0  0  0  0  0
  -26.2848  -12.9494   20.3232 N   0  0  0  0  0  0
  -25.9348  -11.6605   20.5735 N   0  0  0  0  0  0
  -22.0429  -12.8164   22.0455 N   0  0  0  0  0  0
  -25.3975  -15.1933   20.4081 N   0  0  0  0  0  0
  -31.6511  -15.2349   20.1227 O   0  0  0  0  0  0
  -21.6641   -6.8883   21.4242 O   0  0  0  0  0  0
  -22.3438  -14.5479   20.6737 O   0  0  0  0  0  0
  -24.6579  -31.8274   23.1735 C   0  0  0  0  0  0
  -25.9281  -32.4604   23.8185 C   0  0  1  0  0  0
  -27.2248  -26.9825   20.1783 C   0  0  0  0  0  0
  -25.5969  -33.8419   24.2091 N   0  0  0  0  0  0
  -23.4704  -30.4400   21.5212 C   0  0  2  0  0  0
  -24.9245  -28.8350   20.1111 C   0  0  0  0  0  0
  -22.7641  -29.4457   22.4789 C   0  0  0  0  0  0
  -18.0317  -28.1407   22.8466 C   0  0  0  0  0  0
  -24.1494  -36.7220   23.2646 C   0  0  0  0  0  0
  -26.0356  -30.6530   21.3941 C   0  0  0  0  0  0
  -26.1062  -29.2477   20.7391 C   0  0  0  0  0  0
  -27.2525  -28.3422   20.7470 C   0  0  0  0  0  0
  -26.0140  -26.7051   19.5065 C   0  0  0  0  0  0
  -24.9004  -27.5830   19.4747 C   0  0  0  0  0  0
  -23.7079  -29.7567   20.1464 C   0  0  0  0  0  0
  -25.4130  -36.2974   24.0299 C   0  0  1  0  0  0
  -20.5938  -28.3746   23.1196 C   0  0  2  0  0  0
  -20.6795  -26.9429   22.5403 C   0  0  0  0  0  0
  -19.5771  -26.6376   21.5214 C   0  0  0  0  0  0
  -18.1953  -26.7939   22.1622 C   0  0  0  0  0  0
  -19.1578  -28.8895   23.2821 C   0  0  0  0  0  0
  -18.9491  -30.1486   23.8855 C   0  0  0  0  0  0
  -17.6487  -30.6598   24.0556 C   0  0  0  0  0  0
  -25.9091  -34.9357   23.5013 C   0  0  0  0  0  0
  -16.5375  -29.9088   23.6341 C   0  0  0  0  0  0
  -16.7301  -28.6508   23.0359 C   0  0  0  0  0  0
  -26.4551  -31.6538   25.0697 C   0  0  0  0  0  0
  -25.3698  -31.3780   26.1370 C   0  0  0  0  0  0
  -27.0440  -30.2910   24.6395 C   0  0  0  0  0  0
  -27.6042  -32.4346   25.7506 C   0  0  0  0  0  0
  -27.5566  -37.1767   24.8464 C   0  0  0  0  0  0
  -21.4315  -29.3042   22.3547 N   0  0  0  0  0  0
  -26.4277  -37.3708   23.9404 N   0  0  0  0  0  0
  -24.7421  -30.9994   22.0838 N   0  0  0  0  0  0
  -23.4212  -28.8020   23.3008 O   0  0  0  0  0  0
  -28.2509  -25.9200   20.2588 O   0  0  0  0  0  0
  -26.5698  -34.8887   22.4607 O   0  0  0  0  0  0
  -23.5660  -32.1214   23.6864 O   0  0  0  0  0  0
  -30.2373  -20.4236   19.8366 C   0  0  0  0  0  0
  -29.1166  -21.2097   20.3479 C   0  0  0  0  0  0
  -28.2075  -20.2275   20.9216 C   0  0  0  0  0  0
  -29.5469  -17.9763   20.4522 C   0  0  0  0  0  0
  -30.4505  -18.9545   19.8708 C   0  0  0  0  0  0
  -28.4118  -18.7478   20.9571 C   0  0  0  0  0  0
  -26.9460  -20.7756   21.5700 C   0  0  0  0  0  0
  -29.1166  -22.9488   20.4550 C   0  0  0  0  0  0
  -28.0346  -24.3106   20.1074 C   0  0  0  0  0  0
  -29.5979  -16.3711   20.5458 N   0  0  0  0  0  0
  -31.9062  -18.3750   19.1482 Cl  0  0  0  0  0  0
  -27.1762  -17.7954   21.7071 Cl  0  0  0  0  0  0
  -31.4700  -12.9482   19.1990 H   0  0  0  0  0  0
  -30.4984  -11.8255   20.1028 H   0  0  0  0  0  0
  -29.8999  -11.7564   17.6552 H   0  0  0  0  0  0
  -29.5835  -13.4735   17.6690 H   0  0  0  0  0  0
  -28.0130  -11.2802   19.0458 H   0  0  0  0  0  0
  -27.4138  -12.3912   17.8404 H   0  0  0  0  0  0
  -27.5512  -14.2500   19.3620 H   0  0  0  0  0  0
  -28.8007  -12.4337   21.4781 H   0  0  0  0  0  0
  -28.3119  -14.0935   21.7263 H   0  0  0  0  0  0
  -25.2780   -9.5671   22.4764 H   0  0  0  0  0  0
  -24.0005   -7.4629   22.7477 H   0  0  0  0  0  0
  -21.0858   -8.8780   19.8950 H   0  0  0  0  0  0
  -22.3727  -10.9669   19.6163 H   0  0  0  0  0  0
  -21.2009   -7.6149   23.9717 H   0  0  0  0  0  0
  -21.1485   -6.0522   25.9078 H   0  0  0  0  0  0
  -22.0596   -2.7608   23.2846 H   0  0  0  0  0  0
  -22.4068  -11.9836   22.4843 H   0  0  0  0  0  0
  -21.1044  -13.1171   22.2665 H   0  0  0  0  0  0
  -24.6296  -15.8398   20.5492 H   0  0  0  0  0  0
  -26.2450  -15.6524   20.1053 H   0  0  0  0  0  0
  -26.7349  -32.5161   23.0903 H   0  0  0  0  0  0
  -25.0072  -33.9506   25.0212 H   0  0  0  0  0  0
  -22.7809  -31.2695   21.3523 H   0  0  0  0  0  0
  -23.3757  -35.9551   23.3285 H   0  0  0  0  0  0
  -24.3570  -36.8891   22.2065 H   0  0  0  0  0  0
  -23.7255  -37.6405   23.6719 H   0  0  0  0  0  0
  -26.2076  -31.3971   20.6153 H   0  0  0  0  0  0
  -26.8988  -30.7093   22.0455 H   0  0  0  0  0  0
  -28.1499  -28.6565   21.2610 H   0  0  0  0  0  0
  -25.8987  -25.7453   19.0239 H   0  0  0  0  0  0
  -24.0013  -27.2618   18.9666 H   0  0  0  0  0  0
  -23.8597  -30.5255   19.3876 H   0  0  0  0  0  0
  -22.8192  -29.2074   19.8307 H   0  0  0  0  0  0
  -25.1329  -36.1773   25.0791 H   0  0  0  0  0  0
  -21.0028  -28.3352   24.1320 H   0  0  0  0  0  0
  -20.5674  -26.2363   23.3640 H   0  0  0  0  0  0
  -21.6659  -26.7411   22.1209 H   0  0  0  0  0  0
  -19.6931  -25.6276   21.1271 H   0  0  0  0  0  0
  -19.6711  -27.3164   20.6722 H   0  0  0  0  0  0
  -17.4219  -26.6679   21.4028 H   0  0  0  0  0  0
  -18.0350  -26.0095   22.9029 H   0  0  0  0  0  0
  -19.7967  -30.7311   24.2207 H   0  0  0  0  0  0
  -17.5040  -31.6273   24.5167 H   0  0  0  0  0  0
  -15.5375  -30.2977   23.7690 H   0  0  0  0  0  0
  -15.8700  -28.0815   22.7094 H   0  0  0  0  0  0
  -24.5887  -30.7118   25.7694 H   0  0  0  0  0  0
  -24.8883  -32.2982   26.4690 H   0  0  0  0  0  0
  -25.7949  -30.9025   27.0218 H   0  0  0  0  0  0
  -26.3093  -29.6597   24.1383 H   0  0  0  0  0  0
  -27.3970  -29.7261   25.5034 H   0  0  0  0  0  0
  -27.9036  -30.4100   23.9796 H   0  0  0  0  0  0
  -27.2600  -33.3684   26.1968 H   0  0  0  0  0  0
  -28.3919  -32.6851   25.0388 H   0  0  0  0  0  0
  -28.0637  -31.8554   26.5526 H   0  0  0  0  0  0
  -28.2564  -38.0079   24.7498 H   0  0  0  0  0  0
  -28.1079  -36.2603   24.6304 H   0  0  0  0  0  0
  -27.2281  -37.1425   25.8866 H   0  0  0  0  0  0
  -20.9556  -29.8744   21.6695 H   0  0  0  0  0  0
  -26.0124  -38.2765   24.1415 H   0  0  0  0  0  0
  -31.0412  -20.9943   19.3943 H   0  0  0  0  0  0
  -26.9008  -20.4888   22.6208 H   0  0  0  0  0  0
  -26.0600  -20.3853   21.0682 H   0  0  0  0  0  0
  -26.8943  -21.8621   21.5265 H   0  0  0  0  0  0
  -30.0243  -23.2123   19.9120 H   0  0  0  0  0  0
  -29.3929  -23.1087   21.4969 H   0  0  0  0  0  0
  -27.1248  -24.1110   20.6737 H   0  0  0  0  0  0
  -27.7373  -24.1788   19.0671 H   0  0  0  0  0  0
  -28.6843  -16.0434   20.8188 H   0  0  0  0  0  0
  1 25  1  0  0  0
  1 30  2  0  0  0
  1 80  1  0  0  0
  2  3  1  0  0  0
  2 25  1  0  0  0
  2 83  1  0  0  0
  2 84  1  0  0  0
  3  4  1  0  0  0
  3 85  1  0  0  0
  3 86  1  0  0  0
  4  5  1  0  0  0
  4 87  1  0  0  0
  4 88  1  0  0  0
  5  6  1  0  0  0
  5 26  1  0  0  0
  5 89  1  0  0  0
  6 25  1  0  0  0
  6 90  1  0  0  0
  6 91  1  0  0  0
  7  8  2  0  0  0
  7 26  1  0  0  0
  7 29  1  0  0  0
  8  9  1  0  0  0
  8 22  1  0  0  0
  9 10  1  0  0  0
  9 27  2  0  0  0
 10 11  2  0  0  0
 10 15  1  0  0  0
 11 12  1  0  0  0
 11 92  1  0  0  0
 12 13  2  0  0  0
 12 93  1  0  0  0
 13 14  1  0  0  0
 13 31  1  0  0  0
 14 15  2  0  0  0
 14 94  1  0  0  0
 15 95  1  0  0  0
 16 17  2  0  0  0
 16 21  1  0  0  0
 16 31  1  0  0  0
 17 18  1  0  0  0
 17 96  1  0  0  0
 18 19  2  0  0  0
 18 97  1  0  0  0
 19 20  1  0  0  0
 19 24  1  0  0  0
 20 21  2  0  0  0
 20 98  1  0  0  0
 21 23  1  0  0  0
 22 28  1  0  0  0
 22 32  2  0  0  0
 26 27  1  0  0  0
 28 99  1  0  0  0
 28100  1  0  0  0
 29101  1  0  0  0
 29102  1  0  0  0
 33 34  1  0  0  0
 33 66  1  0  0  0
 33 70  2  0  0  0
 34 36  1  0  0  0
 34 59  1  0  0  0
 34103  1  0  0  0
 35 44  2  0  0  0
 35 45  1  0  0  0
 35 68  1  0  0  0
 36 56  1  0  0  0
 36104  1  0  0  0
 37 39  1  0  0  0
 37 47  1  0  0  0
 37 66  1  0  0  0
 37105  1  0  0  0
 38 43  2  0  0  0
 38 46  1  0  0  0
 38 47  1  0  0  0
 39 64  1  0  0  0
 39 67  2  0  0  0
 40 52  1  0  0  0
 40 53  2  0  0  0
 40 58  1  0  0  0
 41106  1  0  0  0
 41107  1  0  0  0
 41108  1  0  0  0
 41 48  1  0  0  0
 42 43  1  0  0  0
 42 66  1  0  0  0
 42109  1  0  0  0
 42110  1  0  0  0
 43 44  1  0  0  0
 44111  1  0  0  0
 45 46  2  0  0  0
 45112  1  0  0  0
 46113  1  0  0  0
 47114  1  0  0  0
 47115  1  0  0  0
 48 56  1  0  0  0
 48 65  1  0  0  0
 48116  1  0  0  0
 49 50  1  0  0  0
 49 53  1  0  0  0
 49 64  1  0  0  0
 49117  1  0  0  0
 50 51  1  0  0  0
 50118  1  0  0  0
 50119  1  0  0  0
 51 52  1  0  0  0
 51120  1  0  0  0
 51121  1  0  0  0
 52122  1  0  0  0
 52123  1  0  0  0
 53 54  1  0  0  0
 54 55  2  0  0  0
 54124  1  0  0  0
 55 57  1  0  0  0
 55125  1  0  0  0
 56 69  2  0  0  0
 57 58  2  0  0  0
 57126  1  0  0  0
 58127  1  0  0  0
 59 60  1  0  0  0
 59 61  1  0  0  0
 59 62  1  0  0  0
 60128  1  0  0  0
 60129  1  0  0  0
 60130  1  0  0  0
 61131  1  0  0  0
 61132  1  0  0  0
 61133  1  0  0  0
 62134  1  0  0  0
 62135  1  0  0  0
 62136  1  0  0  0
 63 65  1  0  0  0
 63137  1  0  0  0
 63138  1  0  0  0
 63139  1  0  0  0
 64140  1  0  0  0
 65141  1  0  0  0
 68 79  1  0  0  0
 71 72  2  0  0  0
 71 75  1  0  0  0
 71142  1  0  0  0
 72 73  1  0  0  0
 72 78  1  0  0  0
 73 76  2  0  0  0
 73 77  1  0  0  0
 74 75  2  0  0  0
 74 76  1  0  0  0
 74 80  1  0  0  0
 75 81  1  0  0  0
 76 82  1  0  0  0
 77143  1  0  0  0
 77144  1  0  0  0
 77145  1  0  0  0
 78 79  1  0  0  0
 78146  1  0  0  0
 78147  1  0  0  0
 79148  1  0  0  0
 79149  1  0  0  0
 80150  1  0  0  0
M  ISO  4   1 100  68 101  79 101  80 100
M  END
> <chiral flag>
0

> <version>
0

> <s_m_source_file>
/data/baiqing/PycharmProjects/Reinvent-master-3.2/result/LINK_invent/BTK/process_docking_weight1_custom_sum_contain_oxygen_bond_distance_aromatic_linkinvent_7_9_3/rearranged_h_0021.sdf

> <i_m_source_file_index>
8

> <r_mmod_Potential_Energy-OPLS-2005>
981.833312988281

> <r_mmod_Stretch_Energy-OPLS-2005>
456.074340820312

> <r_mmod_Bend_Energy-OPLS-2005>
411.928405761719

> <r_mmod_Torsional_Energy-OPLS-2005>
214.472686767578

> <r_mmod_Improper_Torsional_Energy-OPLS-2005>
4.52982902526855

> <r_mmod_Van_der_Waal_Energy-OPLS-2005>
125.066452026367

> <r_mmod_Electrostatic_Energy-OPLS-2005>
-399.713897705078

> <r_mmod_Solvation_Energy-OPLS-2005>
-208.038208007812

> <b_mmod_Minimization_Converged-OPLS-2005>
0

> <r_mmod_RMS_Derivative-OPLS-2005>
0.692124605178833

$$$$
8
                    3D
 Structure written by MMmdl.
150158  0  0  1  0            999 V2000
  -30.4094  -15.3441   20.3796 C   0  0  0  0  0  0
  -30.4455  -12.8778   19.5072 C   0  0  0  0  0  0
  -29.5407  -12.5870   18.2826 C   0  0  0  0  0  0
  -28.0963  -12.2902   18.7231 C   0  0  0  0  0  0
  -27.6095  -13.2764   19.8139 C   0  0  2  0  0  0
  -28.6454  -13.4885   20.9371 C   0  0  0  0  0  0
  -25.2401  -13.8239   20.5754 C   0  0  0  0  0  0
  -24.1748  -13.0437   20.9253 C   0  0  0  0  0  0
  -24.6408  -11.6932   20.8755 C   0  0  0  0  0  0
  -23.9083  -10.4301   21.0397 C   0  0  0  0  0  0
  -24.3619   -9.4219   21.9173 C   0  0  0  0  0  0
  -23.6296   -8.2254   22.0744 C   0  0  0  0  0  0
  -22.4282   -8.0278   21.3534 C   0  0  0  0  0  0
  -21.9921   -9.0253   20.4633 C   0  0  0  0  0  0
  -22.7250  -10.2137   20.3048 C   0  0  0  0  0  0
  -21.6863   -6.0730   22.5276 C   0  0  0  0  0  0
  -21.4018   -6.5627   23.8209 C   0  0  0  0  0  0
  -21.3665   -5.6781   24.9175 C   0  0  0  0  0  0
  -21.6041   -4.3041   24.7218 C   0  0  0  0  0  0
  -21.8820   -3.8136   23.4338 C   0  0  0  0  0  0
  -21.9193   -4.6953   22.3399 C   0  0  0  0  0  0
  -22.7767  -13.5202   21.1875 C   0  0  0  0  0  0
  -22.1658   -4.2140   21.0978 F   0  0  0  0  0  0
  -21.5635   -3.4527   25.7730 F   0  0  0  0  0  0
  -29.8523  -14.0295   20.2852 N   0  0  0  0  0  0
  -26.2829  -12.9513   20.3222 N   0  0  0  0  0  0
  -25.9349  -11.6615   20.5721 N   0  0  0  0  0  0
  -22.0375  -12.8237   22.0434 N   0  0  0  0  0  0
  -25.4034  -15.1977   20.4212 N   0  0  0  0  0  0
  -31.6447  -15.3272   20.2680 O   0  0  0  0  0  0
  -21.6642   -6.8875   21.4240 O   0  0  0  0  0  0
  -22.3464  -14.5485   20.6670 O   0  0  0  0  0  0
  -24.6669  -31.8196   23.1663 C   0  0  0  0  0  0
  -25.9337  -32.4557   23.8141 C   0  0  1  0  0  0
  -27.2281  -26.8955   20.1951 C   0  0  0  0  0  0
  -25.5994  -33.8372   24.2045 N   0  0  0  0  0  0
  -23.4824  -30.4277   21.5179 C   0  0  2  0  0  0
  -24.9363  -28.8005   20.1220 C   0  0  0  0  0  0
  -22.7678  -29.4418   22.4804 C   0  0  0  0  0  0
  -18.0324  -28.1403   22.8450 C   0  0  0  0  0  0
  -24.1502  -36.7197   23.2644 C   0  0  0  0  0  0
  -26.0533  -30.6170   21.3994 C   0  0  0  0  0  0
  -26.1235  -29.2012   20.7492 C   0  0  0  0  0  0
  -27.2648  -28.2732   20.7518 C   0  0  0  0  0  0
  -26.0052  -26.6484   19.5311 C   0  0  0  0  0  0
  -24.9039  -27.5449   19.4929 C   0  0  0  0  0  0
  -23.7240  -29.7329   20.1492 C   0  0  0  0  0  0
  -25.4143  -36.2952   24.0293 C   0  0  1  0  0  0
  -20.5942  -28.3747   23.1187 C   0  0  2  0  0  0
  -20.6795  -26.9430   22.5402 C   0  0  0  0  0  0
  -19.5778  -26.6369   21.5208 C   0  0  0  0  0  0
  -18.1956  -26.7931   22.1610 C   0  0  0  0  0  0
  -19.1582  -28.8898   23.2797 C   0  0  0  0  0  0
  -18.9490  -30.1479   23.8838 C   0  0  0  0  0  0
  -17.6486  -30.6589   24.0537 C   0  0  0  0  0  0
  -25.9100  -34.9330   23.4994 C   0  0  0  0  0  0
  -16.5373  -29.9069   23.6349 C   0  0  0  0  0  0
  -16.7301  -28.6494   23.0356 C   0  0  0  0  0  0
  -26.4582  -31.6508   25.0681 C   0  0  0  0  0  0
  -25.3700  -31.3770   26.1332 C   0  0  0  0  0  0
  -27.0478  -30.2867   24.6434 C   0  0  0  0  0  0
  -27.6068  -32.4317   25.7487 C   0  0  0  0  0  0
  -27.5576  -37.1757   24.8459 C   0  0  0  0  0  0
  -21.4347  -29.3037   22.3540 N   0  0  0  0  0  0
  -26.4289  -37.3692   23.9400 N   0  0  0  0  0  0
  -24.7559  -30.9822   22.0817 N   0  0  0  0  0  0
  -23.4209  -28.8005   23.3065 O   0  0  0  0  0  0
  -28.2573  -25.8038   20.1826 O   0  0  0  0  0  0
  -26.5710  -34.8871   22.4587 O   0  0  0  0  0  0
  -23.5739  -32.1190   23.6746 O   0  0  0  0  0  0
  -29.5636  -20.9943   21.8959 C   0  0  0  0  0  0
  -29.1258  -20.9839   20.5634 C   0  0  0  0  0  0
  -30.0421  -18.5114   22.0705 C   0  0  0  0  0  0
  -29.6634  -18.2104   20.7220 C   0  0  0  0  0  0
  -30.0031  -19.8456   22.6032 C   0  0  0  0  0  0
  -29.1997  -19.5242   20.0186 C   0  0  0  0  0  0
  -30.4749  -17.3928   23.0195 C   0  0  0  0  0  0
  -28.7949  -22.5879   19.8889 C   0  0  0  0  0  0
  -28.1263  -24.1713   20.5167 C   0  0  0  0  0  0
  -29.6295  -16.6242   20.2881 N   0  0  0  0  0  0
  -30.5276  -20.1473   24.2249 Cl  0  0  0  0  0  0
  -28.7087  -19.3308   18.3776 Cl  0  0  0  0  0  0
  -31.4494  -13.1195   19.1557 H   0  0  0  0  0  0
  -30.5592  -11.9917   20.1353 H   0  0  0  0  0  0
  -29.9441  -11.7552   17.7035 H   0  0  0  0  0  0
  -29.5458  -13.4535   17.6196 H   0  0  0  0  0  0
  -28.0741  -11.2741   19.1192 H   0  0  0  0  0  0
  -27.4252  -12.2990   17.8626 H   0  0  0  0  0  0
  -27.5102  -14.2319   19.2966 H   0  0  0  0  0  0
  -28.8456  -12.5656   21.4838 H   0  0  0  0  0  0
  -28.2694  -14.2060   21.6682 H   0  0  0  0  0  0
  -25.2745   -9.5718   22.4768 H   0  0  0  0  0  0
  -23.9991   -7.4662   22.7484 H   0  0  0  0  0  0
  -21.0841   -8.8776   19.8958 H   0  0  0  0  0  0
  -22.3679  -10.9673   19.6168 H   0  0  0  0  0  0
  -21.2014   -7.6135   23.9716 H   0  0  0  0  0  0
  -21.1485   -6.0507   25.9079 H   0  0  0  0  0  0
  -22.0597   -2.7598   23.2838 H   0  0  0  0  0  0
  -22.3948  -11.9938   22.4937 H   0  0  0  0  0  0
  -21.0973  -13.1293   22.2512 H   0  0  0  0  0  0
  -24.6383  -15.8504   20.5483 H   0  0  0  0  0  0
  -26.2565  -15.6447   20.1149 H   0  0  0  0  0  0
  -26.7398  -32.5090   23.0843 H   0  0  0  0  0  0
  -25.0090  -33.9432   25.0168 H   0  0  0  0  0  0
  -22.7994  -31.2609   21.3392 H   0  0  0  0  0  0
  -23.3779  -35.9513   23.3267 H   0  0  0  0  0  0
  -24.3581  -36.8885   22.2064 H   0  0  0  0  0  0
  -23.7244  -37.6365   23.6731 H   0  0  0  0  0  0
  -26.2339  -31.3576   20.6187 H   0  0  0  0  0  0
  -26.9130  -30.6777   22.0553 H   0  0  0  0  0  0
  -28.1711  -28.5912   21.2481 H   0  0  0  0  0  0
  -25.8833  -25.6923   19.0419 H   0  0  0  0  0  0
  -24.0023  -27.2306   18.9849 H   0  0  0  0  0  0
  -23.8810  -30.4941   19.3848 H   0  0  0  0  0  0
  -22.8340  -29.1858   19.8331 H   0  0  0  0  0  0
  -25.1352  -36.1740   25.0790 H   0  0  0  0  0  0
  -21.0016  -28.3340   24.1311 H   0  0  0  0  0  0
  -20.5669  -26.2364   23.3640 H   0  0  0  0  0  0
  -21.6660  -26.7391   22.1216 H   0  0  0  0  0  0
  -19.6941  -25.6268   21.1268 H   0  0  0  0  0  0
  -19.6721  -27.3144   20.6713 H   0  0  0  0  0  0
  -17.4230  -26.6654   21.4007 H   0  0  0  0  0  0
  -18.0347  -26.0084   22.9022 H   0  0  0  0  0  0
  -19.7965  -30.7299   24.2188 H   0  0  0  0  0  0
  -17.5037  -31.6268   24.5134 H   0  0  0  0  0  0
  -15.5366  -30.2947   23.7713 H   0  0  0  0  0  0
  -15.8698  -28.0787   22.7116 H   0  0  0  0  0  0
  -24.5900  -30.7094   25.7647 H   0  0  0  0  0  0
  -24.8866  -32.2968   26.4626 H   0  0  0  0  0  0
  -25.7933  -30.9024   27.0192 H   0  0  0  0  0  0
  -26.3150  -29.6526   24.1428 H   0  0  0  0  0  0
  -27.3981  -29.7247   25.5103 H   0  0  0  0  0  0
  -27.9105  -30.4027   23.9868 H   0  0  0  0  0  0
  -27.2639  -33.3669   26.1921 H   0  0  0  0  0  0
  -28.3962  -32.6786   25.0373 H   0  0  0  0  0  0
  -28.0643  -31.8526   26.5517 H   0  0  0  0  0  0
  -28.2571  -38.0077   24.7523 H   0  0  0  0  0  0
  -28.1102  -36.2603   24.6281 H   0  0  0  0  0  0
  -27.2287  -37.1379   25.8860 H   0  0  0  0  0  0
  -20.9626  -29.8715   21.6644 H   0  0  0  0  0  0
  -26.0136  -38.2753   24.1407 H   0  0  0  0  0  0
  -29.5936  -21.9460   22.4071 H   0  0  0  0  0  0
  -31.5598  -17.2794   23.0034 H   0  0  0  0  0  0
  -30.0191  -16.4346   22.7897 H   0  0  0  0  0  0
  -30.1730  -17.5838   24.0488 H   0  0  0  0  0  0
  -28.2292  -22.3850   18.9804 H   0  0  0  0  0  0
  -29.7784  -22.8705   19.5127 H   0  0  0  0  0  0
  -28.4788  -24.1696   21.5472 H   0  0  0  0  0  0
  -27.0548  -24.0019   20.6175 H   0  0  0  0  0  0
  -28.7188  -16.3951   19.9209 H   0  0  0  0  0  0
  1 25  1  0  0  0
  1 30  2  0  0  0
  1 80  1  0  0  0
  2  3  1  0  0  0
  2 25  1  0  0  0
  2 83  1  0  0  0
  2 84  1  0  0  0
  3  4  1  0  0  0
  3 85  1  0  0  0
  3 86  1  0  0  0
  4  5  1  0  0  0
  4 87  1  0  0  0
  4 88  1  0  0  0
  5  6  1  0  0  0
  5 26  1  0  0  0
  5 89  1  0  0  0
  6 25  1  0  0  0
  6 90  1  0  0  0
  6 91  1  0  0  0
  7  8  2  0  0  0
  7 26  1  0  0  0
  7 29  1  0  0  0
  8  9  1  0  0  0
  8 22  1  0  0  0
  9 10  1  0  0  0
  9 27  2  0  0  0
 10 11  2  0  0  0
 10 15  1  0  0  0
 11 12  1  0  0  0
 11 92  1  0  0  0
 12 13  2  0  0  0
 12 93  1  0  0  0
 13 14  1  0  0  0
 13 31  1  0  0  0
 14 15  2  0  0  0
 14 94  1  0  0  0
 15 95  1  0  0  0
 16 17  2  0  0  0
 16 21  1  0  0  0
 16 31  1  0  0  0
 17 18  1  0  0  0
 17 96  1  0  0  0
 18 19  2  0  0  0
 18 97  1  0  0  0
 19 20  1  0  0  0
 19 24  1  0  0  0
 20 21  2  0  0  0
 20 98  1  0  0  0
 21 23  1  0  0  0
 22 28  1  0  0  0
 22 32  2  0  0  0
 26 27  1  0  0  0
 28 99  1  0  0  0
 28100  1  0  0  0
 29101  1  0  0  0
 29102  1  0  0  0
 33 34  1  0  0  0
 33 66  1  0  0  0
 33 70  2  0  0  0
 34 36  1  0  0  0
 34 59  1  0  0  0
 34103  1  0  0  0
 35 44  2  0  0  0
 35 45  1  0  0  0
 35 68  1  0  0  0
 36 56  1  0  0  0
 36104  1  0  0  0
 37 39  1  0  0  0
 37 47  1  0  0  0
 37 66  1  0  0  0
 37105  1  0  0  0
 38 43  2  0  0  0
 38 46  1  0  0  0
 38 47  1  0  0  0
 39 64  1  0  0  0
 39 67  2  0  0  0
 40 52  1  0  0  0
 40 53  2  0  0  0
 40 58  1  0  0  0
 41106  1  0  0  0
 41107  1  0  0  0
 41108  1  0  0  0
 41 48  1  0  0  0
 42 43  1  0  0  0
 42 66  1  0  0  0
 42109  1  0  0  0
 42110  1  0  0  0
 43 44  1  0  0  0
 44111  1  0  0  0
 45 46  2  0  0  0
 45112  1  0  0  0
 46113  1  0  0  0
 47114  1  0  0  0
 47115  1  0  0  0
 48 56  1  0  0  0
 48 65  1  0  0  0
 48116  1  0  0  0
 49 50  1  0  0  0
 49 53  1  0  0  0
 49 64  1  0  0  0
 49117  1  0  0  0
 50 51  1  0  0  0
 50118  1  0  0  0
 50119  1  0  0  0
 51 52  1  0  0  0
 51120  1  0  0  0
 51121  1  0  0  0
 52122  1  0  0  0
 52123  1  0  0  0
 53 54  1  0  0  0
 54 55  2  0  0  0
 54124  1  0  0  0
 55 57  1  0  0  0
 55125  1  0  0  0
 56 69  2  0  0  0
 57 58  2  0  0  0
 57126  1  0  0  0
 58127  1  0  0  0
 59 60  1  0  0  0
 59 61  1  0  0  0
 59 62  1  0  0  0
 60128  1  0  0  0
 60129  1  0  0  0
 60130  1  0  0  0
 61131  1  0  0  0
 61132  1  0  0  0
 61133  1  0  0  0
 62134  1  0  0  0
 62135  1  0  0  0
 62136  1  0  0  0
 63 65  1  0  0  0
 63137  1  0  0  0
 63138  1  0  0  0
 63139  1  0  0  0
 64140  1  0  0  0
 65141  1  0  0  0
 68 79  1  0  0  0
 71 72  2  0  0  0
 71 75  1  0  0  0
 71142  1  0  0  0
 72 76  1  0  0  0
 72 78  1  0  0  0
 73 74  1  0  0  0
 73 75  2  0  0  0
 73 77  1  0  0  0
 74 76  2  0  0  0
 74 80  1  0  0  0
 75 81  1  0  0  0
 76 82  1  0  0  0
 77143  1  0  0  0
 77144  1  0  0  0
 77145  1  0  0  0
 78 79  1  0  0  0
 78146  1  0  0  0
 78147  1  0  0  0
 79148  1  0  0  0
 79149  1  0  0  0
 80150  1  0  0  0
M  ISO  4   1 100  68 101  79 101  80 100
M  END
> <chiral flag>
0

> <version>
0

> <s_m_source_file>
/data/baiqing/PycharmProjects/Reinvent-master-3.2/result/LINK_invent/BTK/process_docking_weight1_custom_sum_contain_oxygen_bond_distance_aromatic_linkinvent_7_9_3/rearranged_h_0021.sdf

> <i_m_source_file_index>
9

> <r_mmod_Potential_Energy-OPLS-2005>
1432.96740722656

> <r_mmod_Stretch_Energy-OPLS-2005>
656.442321777344

> <r_mmod_Bend_Energy-OPLS-2005>
449.603607177734

> <r_mmod_Torsional_Energy-OPLS-2005>
257.976898193359

> <r_mmod_Improper_Torsional_Energy-OPLS-2005>
9.15836429595947

> <r_mmod_Van_der_Waal_Energy-OPLS-2005>
126.889465332031

> <r_mmod_Electrostatic_Energy-OPLS-2005>
-382.505859375

> <r_mmod_Solvation_Energy-OPLS-2005>
-208.894546508789

> <b_mmod_Minimization_Converged-OPLS-2005>
0

> <r_mmod_RMS_Derivative-OPLS-2005>
2.26833343505859

$$$$
9
                    3D
 Structure written by MMmdl.
159167  0  0  1  0            999 V2000
  -30.5908  -14.6378   20.4854 C   0  0  0  0  0  0
  -30.4449  -12.3799   19.4613 C   0  0  0  0  0  0
  -29.5154  -12.4843   18.2303 C   0  0  0  0  0  0
  -28.0336  -12.3347   18.6363 C   0  0  0  0  0  0
  -27.6543  -13.2043   19.8643 C   0  0  2  0  0  0
  -28.6961  -13.0493   20.9950 C   0  0  0  0  0  0
  -25.2588  -13.8139   20.5721 C   0  0  0  0  0  0
  -24.1832  -13.0432   20.9192 C   0  0  0  0  0  0
  -24.6374  -11.6893   20.8737 C   0  0  0  0  0  0
  -23.9041  -10.4291   21.0408 C   0  0  0  0  0  0
  -24.3595   -9.4222   21.9198 C   0  0  0  0  0  0
  -23.6286   -8.2248   22.0760 C   0  0  0  0  0  0
  -22.4270   -8.0277   21.3543 C   0  0  0  0  0  0
  -21.9905   -9.0249   20.4638 C   0  0  0  0  0  0
  -22.7221  -10.2131   20.3053 C   0  0  0  0  0  0
  -21.6848   -6.0741   22.5284 C   0  0  0  0  0  0
  -21.4015   -6.5648   23.8220 C   0  0  0  0  0  0
  -21.3668   -5.6797   24.9184 C   0  0  0  0  0  0
  -21.6035   -4.3057   24.7225 C   0  0  0  0  0  0
  -21.8819   -3.8154   23.4347 C   0  0  0  0  0  0
  -21.9189   -4.6970   22.3404 C   0  0  0  0  0  0
  -22.7856  -13.5240   21.1856 C   0  0  0  0  0  0
  -22.1657   -4.2159   21.0982 F   0  0  0  0  0  0
  -21.5626   -3.4540   25.7738 F   0  0  0  0  0  0
  -30.0129  -13.3970   20.4366 N   0  0  0  0  0  0
  -26.2990  -12.9294   20.3317 N   0  0  0  0  0  0
  -25.9295  -11.6463   20.5753 N   0  0  0  0  0  0
  -22.0465  -12.8238   22.0388 N   0  0  0  0  0  0
  -25.4368  -15.1868   20.4214 N   0  0  0  0  0  0
  -31.7483  -14.8348   20.1045 O   0  0  0  0  0  0
  -21.6629   -6.8876   21.4244 O   0  0  0  0  0  0
  -22.3566  -14.5566   20.6714 O   0  0  0  0  0  0
  -24.6236  -31.8618   23.2015 C   0  0  0  0  0  0
  -25.9097  -32.4785   23.8352 C   0  0  1  0  0  0
  -27.2347  -27.3393   20.1168 C   0  0  0  0  0  0
  -25.5927  -33.8583   24.2291 N   0  0  0  0  0  0
  -23.4176  -30.4759   21.5477 C   0  0  2  0  0  0
  -24.8660  -28.9263   20.1184 C   0  0  0  0  0  0
  -22.7473  -29.4581   22.4995 C   0  0  0  0  0  0
  -18.0262  -28.1347   22.8476 C   0  0  0  0  0  0
  -24.1491  -36.7289   23.2637 C   0  0  0  0  0  0
  -25.9525  -30.7983   21.3642 C   0  0  0  0  0  0
  -26.0332  -29.4230   20.7141 C   0  0  0  0  0  0
  -27.2223  -28.6411   20.6979 C   0  0  0  0  0  0
  -26.0462  -26.8741   19.5187 C   0  0  0  0  0  0
  -24.8723  -27.6556   19.5127 C   0  0  0  0  0  0
  -23.6317  -29.8037   20.1653 C   0  0  0  0  0  0
  -25.4118  -36.3086   24.0320 C   0  0  1  0  0  0
  -20.5872  -28.3651   23.1300 C   0  0  2  0  0  0
  -20.6773  -26.9382   22.5402 C   0  0  0  0  0  0
  -19.5750  -26.6370   21.5185 C   0  0  0  0  0  0
  -18.1918  -26.7894   22.1590 C   0  0  0  0  0  0
  -19.1512  -28.8813   23.2882 C   0  0  0  0  0  0
  -18.9451  -30.1417   23.8893 C   0  0  0  0  0  0
  -17.6462  -30.6576   24.0523 C   0  0  0  0  0  0
  -25.9052  -34.9449   23.5109 C   0  0  0  0  0  0
  -16.5347  -29.9068   23.6314 C   0  0  0  0  0  0
  -16.7251  -28.6476   23.0342 C   0  0  0  0  0  0
  -26.4501  -31.6582   25.0706 C   0  0  0  0  0  0
  -25.3731  -31.3673   26.1439 C   0  0  0  0  0  0
  -27.0333  -30.3026   24.6083 C   0  0  0  0  0  0
  -27.6087  -32.4306   25.7460 C   0  0  0  0  0  0
  -27.5581  -37.1800   24.8460 C   0  0  0  0  0  0
  -21.4188  -29.3002   22.3718 N   0  0  0  0  0  0
  -26.4304  -37.3781   23.9392 N   0  0  0  0  0  0
  -24.6836  -31.0623   22.0960 N   0  0  0  0  0  0
  -23.4194  -28.8119   23.3083 O   0  0  0  0  0  0
  -28.3854  -26.5521   20.0882 O   0  0  0  0  0  0
  -26.5636  -34.8919   22.4679 O   0  0  0  0  0  0
  -23.5402  -32.1414   23.7341 O   0  0  0  0  0  0
  -29.7720  -19.3899   21.4518 C   0  0  0  0  0  0
  -29.0833  -19.9366   20.3369 C   0  0  0  0  0  0
  -28.8101  -19.0298   19.2637 C   0  0  0  0  0  0
  -29.1122  -17.6249   19.3732 C   0  0  0  0  0  0
  -29.7271  -17.0822   20.5446 C   0  0  0  0  0  0
  -30.0818  -18.0052   21.5627 C   0  0  0  0  0  0
  -28.1240  -19.5424   17.9983 C   0  0  0  0  0  0
  -28.6903  -16.6714   18.2566 C   0  0  0  0  0  0
  -28.4867  -21.3984   20.4184 C   0  0  0  0  0  0
  -29.2705  -22.6321   19.8195 C   0  0  0  0  0  0
  -28.5077  -23.9994   19.4781 C   0  0  0  0  0  0
  -28.3379  -25.1531   20.5493 C   0  0  0  0  0  0
  -29.7340  -15.6477   20.8227 N   0  0  0  0  0  0
  -30.8163  -17.4351   23.0205 Cl  0  0  0  0  0  0
  -31.4865  -12.5143   19.1653 H   0  0  0  0  0  0
  -30.3859  -11.3858   19.9062 H   0  0  0  0  0  0
  -29.7773  -11.7169   17.5005 H   0  0  0  0  0  0
  -29.6693  -13.4420   17.7321 H   0  0  0  0  0  0
  -27.8630  -11.2833   18.8692 H   0  0  0  0  0  0
  -27.3840  -12.5669   17.7920 H   0  0  0  0  0  0
  -27.6724  -14.2381   19.5250 H   0  0  0  0  0  0
  -28.7058  -12.0255   21.3702 H   0  0  0  0  0  0
  -28.4388  -13.6706   21.8538 H   0  0  0  0  0  0
  -25.2727   -9.5704   22.4795 H   0  0  0  0  0  0
  -23.9987   -7.4642   22.7492 H   0  0  0  0  0  0
  -21.0835   -8.8765   19.8943 H   0  0  0  0  0  0
  -22.3682  -10.9676   19.6160 H   0  0  0  0  0  0
  -21.2016   -7.6157   23.9729 H   0  0  0  0  0  0
  -21.1487   -6.0528   25.9087 H   0  0  0  0  0  0
  -22.0588   -2.7618   23.2844 H   0  0  0  0  0  0
  -22.4028  -11.9861   22.4749 H   0  0  0  0  0  0
  -21.1097  -13.1311   22.2589 H   0  0  0  0  0  0
  -24.6784  -15.8455   20.5591 H   0  0  0  0  0  0
  -26.2978  -15.6317   20.1337 H   0  0  0  0  0  0
  -26.7168  -32.5469   23.1113 H   0  0  0  0  0  0
  -25.0052  -33.9719   25.0424 H   0  0  0  0  0  0
  -22.7083  -31.2939   21.4042 H   0  0  0  0  0  0
  -23.3756  -35.9619   23.3282 H   0  0  0  0  0  0
  -24.3583  -36.8922   22.2057 H   0  0  0  0  0  0
  -23.7226  -37.6471   23.6685 H   0  0  0  0  0  0
  -26.0706  -31.5582   20.5908 H   0  0  0  0  0  0
  -26.8363  -30.8558   21.9868 H   0  0  0  0  0  0
  -28.1267  -29.0194   21.1529 H   0  0  0  0  0  0
  -26.0220  -25.8995   19.0511 H   0  0  0  0  0  0
  -23.9751  -27.2643   19.0507 H   0  0  0  0  0  0
  -23.7475  -30.5792   19.4070 H   0  0  0  0  0  0
  -22.7530  -29.2268   19.8702 H   0  0  0  0  0  0
  -25.1289  -36.1948   25.0811 H   0  0  0  0  0  0
  -20.9916  -28.3208   24.1437 H   0  0  0  0  0  0
  -20.5665  -26.2238   23.3579 H   0  0  0  0  0  0
  -21.6651  -26.7445   22.1190 H   0  0  0  0  0  0
  -19.6917  -25.6284   21.1188 H   0  0  0  0  0  0
  -19.6691  -27.3209   20.6735 H   0  0  0  0  0  0
  -17.4196  -26.6628   21.3983 H   0  0  0  0  0  0
  -18.0331  -26.0023   22.8976 H   0  0  0  0  0  0
  -19.7945  -30.7205   24.2278 H   0  0  0  0  0  0
  -17.5023  -31.6246   24.5148 H   0  0  0  0  0  0
  -15.5344  -30.2958   23.7654 H   0  0  0  0  0  0
  -15.8649  -28.0785   22.7086 H   0  0  0  0  0  0
  -24.5912  -30.7026   25.7729 H   0  0  0  0  0  0
  -24.8922  -32.2826   26.4914 H   0  0  0  0  0  0
  -25.8064  -30.8801   27.0188 H   0  0  0  0  0  0
  -26.2877  -29.6760   24.1186 H   0  0  0  0  0  0
  -27.4151  -29.7281   25.4526 H   0  0  0  0  0  0
  -27.8689  -30.4318   23.9192 H   0  0  0  0  0  0
  -27.2743  -33.3623   26.2026 H   0  0  0  0  0  0
  -28.3912  -32.6828   25.0286 H   0  0  0  0  0  0
  -28.0747  -31.8426   26.5372 H   0  0  0  0  0  0
  -28.2599  -38.0108   24.7553 H   0  0  0  0  0  0
  -28.1087  -36.2644   24.6258 H   0  0  0  0  0  0
  -27.2303  -37.1401   25.8866 H   0  0  0  0  0  0
  -20.9369  -29.8724   21.6930 H   0  0  0  0  0  0
  -26.0169  -38.2837   24.1449 H   0  0  0  0  0  0
  -30.0035  -20.0289   22.2919 H   0  0  0  0  0  0
  -27.9613  -20.6179   17.9932 H   0  0  0  0  0  0
  -27.1547  -19.0615   17.8634 H   0  0  0  0  0  0
  -28.7333  -19.3317   17.1194 H   0  0  0  0  0  0
  -27.6477  -16.3807   18.3844 H   0  0  0  0  0  0
  -29.2916  -15.7647   18.2428 H   0  0  0  0  0  0
  -28.8012  -17.1049   17.2640 H   0  0  0  0  0  0
  -28.3017  -21.6128   21.4708 H   0  0  0  0  0  0
  -27.4884  -21.3754   19.9814 H   0  0  0  0  0  0
  -29.6719  -22.2838   18.8678 H   0  0  0  0  0  0
  -30.1505  -22.8394   20.4279 H   0  0  0  0  0  0
  -27.5338  -23.7763   19.0423 H   0  0  0  0  0  0
  -29.0675  -24.4530   18.6590 H   0  0  0  0  0  0
  -29.1664  -25.0696   21.2518 H   0  0  0  0  0  0
  -27.4428  -24.9720   21.1466 H   0  0  0  0  0  0
  -28.8564  -15.3017   21.1769 H   0  0  0  0  0  0
  1 25  1  0  0  0
  1 30  2  0  0  0
  1 83  1  0  0  0
  2  3  1  0  0  0
  2 25  1  0  0  0
  2 85  1  0  0  0
  2 86  1  0  0  0
  3  4  1  0  0  0
  3 87  1  0  0  0
  3 88  1  0  0  0
  4  5  1  0  0  0
  4 89  1  0  0  0
  4 90  1  0  0  0
  5  6  1  0  0  0
  5 26  1  0  0  0
  5 91  1  0  0  0
  6 25  1  0  0  0
  6 92  1  0  0  0
  6 93  1  0  0  0
  7  8  2  0  0  0
  7 26  1  0  0  0
  7 29  1  0  0  0
  8  9  1  0  0  0
  8 22  1  0  0  0
  9 10  1  0  0  0
  9 27  2  0  0  0
 10 11  2  0  0  0
 10 15  1  0  0  0
 11 12  1  0  0  0
 11 94  1  0  0  0
 12 13  2  0  0  0
 12 95  1  0  0  0
 13 14  1  0  0  0
 13 31  1  0  0  0
 14 15  2  0  0  0
 14 96  1  0  0  0
 15 97  1  0  0  0
 16 17  2  0  0  0
 16 21  1  0  0  0
 16 31  1  0  0  0
 17 18  1  0  0  0
 17 98  1  0  0  0
 18 19  2  0  0  0
 18 99  1  0  0  0
 19 20  1  0  0  0
 19 24  1  0  0  0
 20 21  2  0  0  0
 20100  1  0  0  0
 21 23  1  0  0  0
 22 28  1  0  0  0
 22 32  2  0  0  0
 26 27  1  0  0  0
 28101  1  0  0  0
 28102  1  0  0  0
 29103  1  0  0  0
 29104  1  0  0  0
 33 34  1  0  0  0
 33 66  1  0  0  0
 33 70  2  0  0  0
 34 36  1  0  0  0
 34 59  1  0  0  0
 34105  1  0  0  0
 35 44  2  0  0  0
 35 45  1  0  0  0
 35 68  1  0  0  0
 36 56  1  0  0  0
 36106  1  0  0  0
 37 39  1  0  0  0
 37 47  1  0  0  0
 37 66  1  0  0  0
 37107  1  0  0  0
 38 43  2  0  0  0
 38 46  1  0  0  0
 38 47  1  0  0  0
 39 64  1  0  0  0
 39 67  2  0  0  0
 40 52  1  0  0  0
 40 53  2  0  0  0
 40 58  1  0  0  0
 41108  1  0  0  0
 41109  1  0  0  0
 41110  1  0  0  0
 41 48  1  0  0  0
 42 43  1  0  0  0
 42 66  1  0  0  0
 42111  1  0  0  0
 42112  1  0  0  0
 43 44  1  0  0  0
 44113  1  0  0  0
 45 46  2  0  0  0
 45114  1  0  0  0
 46115  1  0  0  0
 47116  1  0  0  0
 47117  1  0  0  0
 48 56  1  0  0  0
 48 65  1  0  0  0
 48118  1  0  0  0
 49 50  1  0  0  0
 49 53  1  0  0  0
 49 64  1  0  0  0
 49119  1  0  0  0
 50 51  1  0  0  0
 50120  1  0  0  0
 50121  1  0  0  0
 51 52  1  0  0  0
 51122  1  0  0  0
 51123  1  0  0  0
 52124  1  0  0  0
 52125  1  0  0  0
 53 54  1  0  0  0
 54 55  2  0  0  0
 54126  1  0  0  0
 55 57  1  0  0  0
 55127  1  0  0  0
 56 69  2  0  0  0
 57 58  2  0  0  0
 57128  1  0  0  0
 58129  1  0  0  0
 59 60  1  0  0  0
 59 61  1  0  0  0
 59 62  1  0  0  0
 60130  1  0  0  0
 60131  1  0  0  0
 60132  1  0  0  0
 61133  1  0  0  0
 61134  1  0  0  0
 61135  1  0  0  0
 62136  1  0  0  0
 62137  1  0  0  0
 62138  1  0  0  0
 63 65  1  0  0  0
 63139  1  0  0  0
 63140  1  0  0  0
 63141  1  0  0  0
 64142  1  0  0  0
 65143  1  0  0  0
 68 82  1  0  0  0
 71 72  2  0  0  0
 71 76  1  0  0  0
 71144  1  0  0  0
 72 73  1  0  0  0
 72 79  1  0  0  0
 73 74  2  0  0  0
 73 77  1  0  0  0
 74 75  1  0  0  0
 74 78  1  0  0  0
 75 76  2  0  0  0
 75 83  1  0  0  0
 76 84  1  0  0  0
 77145  1  0  0  0
 77146  1  0  0  0
 77147  1  0  0  0
 78148  1  0  0  0
 78149  1  0  0  0
 78150  1  0  0  0
 79 80  1  0  0  0
 79151  1  0  0  0
 79152  1  0  0  0
 80 81  1  0  0  0
 80153  1  0  0  0
 80154  1  0  0  0
 81 82  1  0  0  0
 81155  1  0  0  0
 81156  1  0  0  0
 82157  1  0  0  0
 82158  1  0  0  0
 83159  1  0  0  0
M  ISO  4   1 100  68 101  82 101  83 100
M  END
> <chiral flag>
0

> <version>
0

> <s_m_source_file>
/data/baiqing/PycharmProjects/Reinvent-master-3.2/result/LINK_invent/BTK/process_docking_weight1_custom_sum_contain_oxygen_bond_distance_aromatic_linkinvent_7_9_3/rearranged_h_0021.sdf

> <i_m_source_file_index>
10

> <r_mmod_Potential_Energy-OPLS-2005>
70.8050231933594

> <r_mmod_Stretch_Energy-OPLS-2005>
77.1918411254883

> <r_mmod_Bend_Energy-OPLS-2005>
141.203735351562

> <r_mmod_Torsional_Energy-OPLS-2005>
279.015899658203

> <r_mmod_Improper_Torsional_Energy-OPLS-2005>
7.40252113342285

> <r_mmod_Van_der_Waal_Energy-OPLS-2005>
135.68717956543

> <r_mmod_Electrostatic_Energy-OPLS-2005>
-408.652160644531

> <r_mmod_Solvation_Energy-OPLS-2005>
-203.607879638672

> <b_mmod_Minimization_Converged-OPLS-2005>
0

> <r_mmod_RMS_Derivative-OPLS-2005>
2.68033504486084

$$$$
10
                    3D
 Structure written by MMmdl.
150158  0  0  1  0            999 V2000
  -30.3030  -15.5965   20.3294 C   0  0  0  0  0  0
  -30.4331  -13.0498   19.5374 C   0  0  0  0  0  0
  -29.5548  -12.6524   18.3171 C   0  0  0  0  0  0
  -28.1210  -12.3079   18.7528 C   0  0  0  0  0  0
  -27.5999  -13.3061   19.8128 C   0  0  2  0  0  0
  -28.6206  -13.6106   20.9343 C   0  0  0  0  0  0
  -25.2337  -13.8285   20.5783 C   0  0  0  0  0  0
  -24.1727  -13.0435   20.9286 C   0  0  0  0  0  0
  -24.6426  -11.6947   20.8764 C   0  0  0  0  0  0
  -23.9123  -10.4297   21.0407 C   0  0  0  0  0  0
  -24.3650   -9.4208   21.9193 C   0  0  0  0  0  0
  -23.6308   -8.2250   22.0763 C   0  0  0  0  0  0
  -22.4288   -8.0295   21.3550 C   0  0  0  0  0  0
  -21.9936   -9.0275   20.4652 C   0  0  0  0  0  0
  -22.7283  -10.2145   20.3059 C   0  0  0  0  0  0
  -21.6858   -6.0746   22.5279 C   0  0  0  0  0  0
  -21.4020   -6.5647   23.8215 C   0  0  0  0  0  0
  -21.3661   -5.6794   24.9175 C   0  0  0  0  0  0
  -21.6041   -4.3055   24.7225 C   0  0  0  0  0  0
  -21.8816   -3.8151   23.4343 C   0  0  0  0  0  0
  -21.9193   -4.6971   22.3401 C   0  0  0  0  0  0
  -22.7737  -13.5177   21.1907 C   0  0  0  0  0  0
  -22.1661   -4.2160   21.0975 F   0  0  0  0  0  0
  -21.5627   -3.4533   25.7736 F   0  0  0  0  0  0
  -29.8019  -14.2255   20.2852 N   0  0  0  0  0  0
  -26.2789  -12.9615   20.3212 N   0  0  0  0  0  0
  -25.9371  -11.6688   20.5687 N   0  0  0  0  0  0
  -22.0375  -12.8180   22.0457 N   0  0  0  0  0  0
  -25.3909  -15.2028   20.4214 N   0  0  0  0  0  0
  -31.5376  -15.5666   20.1621 O   0  0  0  0  0  0
  -21.6642   -6.8893   21.4243 O   0  0  0  0  0  0
  -22.3426  -14.5471   20.6726 O   0  0  0  0  0  0
  -24.6838  -31.8014   23.1524 C   0  0  0  0  0  0
  -25.9417  -32.4480   23.8077 C   0  0  1  0  0  0
  -27.2289  -26.7112   20.2108 C   0  0  0  0  0  0
  -25.5993  -33.8305   24.1958 N   0  0  0  0  0  0
  -23.5095  -30.4033   21.5071 C   0  0  2  0  0  0
  -24.9676  -28.7466   20.1193 C   0  0  0  0  0  0
  -22.7770  -29.4327   22.4725 C   0  0  0  0  0  0
  -18.0338  -28.1421   22.8454 C   0  0  0  0  0  0
  -24.1494  -36.7164   23.2651 C   0  0  0  0  0  0
  -26.0906  -30.5371   21.4160 C   0  0  0  0  0  0
  -26.1577  -29.1027   20.7651 C   0  0  0  0  0  0
  -27.2747  -28.1136   20.7774 C   0  0  0  0  0  0
  -26.0042  -26.5640   19.5098 C   0  0  0  0  0  0
  -24.9298  -27.5024   19.4678 C   0  0  0  0  0  0
  -23.7631  -29.7004   20.1427 C   0  0  0  0  0  0
  -25.4144  -36.2907   24.0281 C   0  0  1  0  0  0
  -20.5974  -28.3785   23.1142 C   0  0  2  0  0  0
  -20.6807  -26.9445   22.5404 C   0  0  0  0  0  0
  -19.5780  -26.6369   21.5219 C   0  0  0  0  0  0
  -18.1961  -26.7948   22.1619 C   0  0  0  0  0  0
  -19.1604  -28.8928   23.2777 C   0  0  0  0  0  0
  -18.9509  -30.1510   23.8824 C   0  0  0  0  0  0
  -17.6499  -30.6605   24.0547 C   0  0  0  0  0  0
  -25.9126  -34.9295   23.4959 C   0  0  0  0  0  0
  -16.5389  -29.9087   23.6349 C   0  0  0  0  0  0
  -16.7318  -28.6507   23.0371 C   0  0  0  0  0  0
  -26.4590  -31.6516   25.0701 C   0  0  0  0  0  0
  -25.3651  -31.3845   26.1317 C   0  0  0  0  0  0
  -27.0515  -30.2852   24.6603 C   0  0  0  0  0  0
  -27.6038  -32.4375   25.7522 C   0  0  0  0  0  0
  -27.5566  -37.1743   24.8462 C   0  0  0  0  0  0
  -21.4417  -29.3032   22.3468 N   0  0  0  0  0  0
  -26.4274  -37.3664   23.9402 N   0  0  0  0  0  0
  -24.7848  -30.9466   22.0775 N   0  0  0  0  0  0
  -23.4220  -28.7931   23.3068 O   0  0  0  0  0  0
  -28.1879  -25.4899   20.2657 O   0  0  0  0  0  0
  -26.5762  -34.8869   22.4574 O   0  0  0  0  0  0
  -23.5856  -32.1087   23.6473 O   0  0  0  0  0  0
  -29.5100  -19.6971   21.3327 C   0  0  0  0  0  0
  -29.1708  -21.1965   21.3109 C   0  0  0  0  0  0
  -28.6323  -22.0596   20.2152 C   0  0  0  0  0  0
  -28.5479  -20.9976   19.1598 C   0  0  0  0  0  0
  -29.4054  -18.6290   20.2966 C   0  0  0  0  0  0
  -28.8669  -19.4893   19.2069 C   0  0  0  0  0  0
  -29.3606  -21.9182   22.6319 C   0  0  0  0  0  0
  -28.0094  -21.5011   17.8254 C   0  0  0  0  0  0
  -27.8594  -23.7718   20.2179 C   0  0  0  0  0  0
  -29.4780  -16.9094   20.3836 N   0  0  0  0  0  0
  -28.4945  -18.5708   17.7864 Cl  0  0  0  0  0  0
  -31.4286  -13.3130   19.1787 H   0  0  0  0  0  0
  -30.5849  -12.1961   20.2006 H   0  0  0  0  0  0
  -30.0006  -11.8137   17.7812 H   0  0  0  0  0  0
  -29.5288  -13.4853   17.6121 H   0  0  0  0  0  0
  -28.1319  -11.3022   19.1748 H   0  0  0  0  0  0
  -27.4546  -12.2730   17.8901 H   0  0  0  0  0  0
  -27.4698  -14.2377   19.2603 H   0  0  0  0  0  0
  -28.8701  -12.7170   21.5086 H   0  0  0  0  0  0
  -28.1974  -14.3230   21.6440 H   0  0  0  0  0  0
  -25.2794   -9.5685   22.4769 H   0  0  0  0  0  0
  -24.0013   -7.4646   22.7490 H   0  0  0  0  0  0
  -21.0866   -8.8805   19.8960 H   0  0  0  0  0  0
  -22.3750  -10.9686   19.6166 H   0  0  0  0  0  0
  -21.2016   -7.6155   23.9723 H   0  0  0  0  0  0
  -21.1484   -6.0522   25.9079 H   0  0  0  0  0  0
  -22.0591   -2.7613   23.2833 H   0  0  0  0  0  0
  -22.3991  -11.9871   22.4900 H   0  0  0  0  0  0
  -21.0981  -13.1211   22.2606 H   0  0  0  0  0  0
  -24.6120  -15.8434   20.5278 H   0  0  0  0  0  0
  -26.2173  -15.6437   20.0415 H   0  0  0  0  0  0
  -26.7509  -32.4956   23.0800 H   0  0  0  0  0  0
  -25.0049  -33.9356   25.0048 H   0  0  0  0  0  0
  -22.8344  -31.2404   21.3173 H   0  0  0  0  0  0
  -23.3776  -35.9476   23.3272 H   0  0  0  0  0  0
  -24.3558  -36.8870   22.2074 H   0  0  0  0  0  0
  -23.7242  -37.6327   23.6756 H   0  0  0  0  0  0
  -26.2925  -31.2639   20.6282 H   0  0  0  0  0  0
  -26.9408  -30.6045   22.0822 H   0  0  0  0  0  0
  -28.1709  -28.3931   21.3132 H   0  0  0  0  0  0
  -25.8356  -25.6241   19.0045 H   0  0  0  0  0  0
  -24.0320  -27.2206   18.9347 H   0  0  0  0  0  0
  -23.9382  -30.4601   19.3801 H   0  0  0  0  0  0
  -22.8681  -29.1667   19.8181 H   0  0  0  0  0  0
  -25.1357  -36.1675   25.0774 H   0  0  0  0  0  0
  -21.0050  -28.3409   24.1270 H   0  0  0  0  0  0
  -20.5674  -26.2412   23.3669 H   0  0  0  0  0  0
  -21.6668  -26.7394   22.1220 H   0  0  0  0  0  0
  -19.6940  -25.6258   21.1300 H   0  0  0  0  0  0
  -19.6718  -27.3135   20.6714 H   0  0  0  0  0  0
  -17.4235  -26.6693   21.4018 H   0  0  0  0  0  0
  -18.0345  -26.0109   22.9030 H   0  0  0  0  0  0
  -19.7987  -30.7337   24.2170 H   0  0  0  0  0  0
  -17.5053  -31.6279   24.5160 H   0  0  0  0  0  0
  -15.5386  -30.2963   23.7716 H   0  0  0  0  0  0
  -15.8720  -28.0794   22.7137 H   0  0  0  0  0  0
  -24.5849  -30.7182   25.7622 H   0  0  0  0  0  0
  -24.8823  -32.3070   26.4546 H   0  0  0  0  0  0
  -25.7819  -30.9136   27.0229 H   0  0  0  0  0  0
  -26.3232  -29.6473   24.1586 H   0  0  0  0  0  0
  -27.3927  -29.7295   25.5348 H   0  0  0  0  0  0
  -27.9220  -30.3976   24.0139 H   0  0  0  0  0  0
  -27.2578  -33.3741   26.1908 H   0  0  0  0  0  0
  -28.3948  -32.6839   25.0427 H   0  0  0  0  0  0
  -28.0601  -31.8638   26.5599 H   0  0  0  0  0  0
  -28.2556  -38.0064   24.7507 H   0  0  0  0  0  0
  -28.1091  -36.2586   24.6294 H   0  0  0  0  0  0
  -27.2281  -37.1388   25.8865 H   0  0  0  0  0  0
  -20.9735  -29.8686   21.6524 H   0  0  0  0  0  0
  -26.0106  -38.2720   24.1396 H   0  0  0  0  0  0
  -29.8387  -19.3206   22.2904 H   0  0  0  0  0  0
  -29.9530  -21.3324   23.3357 H   0  0  0  0  0  0
  -28.3948  -22.1256   23.0932 H   0  0  0  0  0  0
  -29.8761  -22.8671   22.4788 H   0  0  0  0  0  0
  -28.0609  -22.5843   17.7361 H   0  0  0  0  0  0
  -26.9723  -21.1938   17.6909 H   0  0  0  0  0  0
  -28.5942  -21.1147   16.9910 H   0  0  0  0  0  0
  -27.1982  -23.6787   21.0796 H   0  0  0  0  0  0
  -27.1639  -23.7141   19.3830 H   0  0  0  0  0  0
  -28.5254  -16.5807   20.4337 H   0  0  0  0  0  0
  1 25  1  0  0  0
  1 30  2  0  0  0
  1 80  1  0  0  0
  2  3  1  0  0  0
  2 25  1  0  0  0
  2 82  1  0  0  0
  2 83  1  0  0  0
  3  4  1  0  0  0
  3 84  1  0  0  0
  3 85  1  0  0  0
  4  5  1  0  0  0
  4 86  1  0  0  0
  4 87  1  0  0  0
  5  6  1  0  0  0
  5 26  1  0  0  0
  5 88  1  0  0  0
  6 25  1  0  0  0
  6 89  1  0  0  0
  6 90  1  0  0  0
  7  8  2  0  0  0
  7 26  1  0  0  0
  7 29  1  0  0  0
  8  9  1  0  0  0
  8 22  1  0  0  0
  9 10  1  0  0  0
  9 27  2  0  0  0
 10 11  2  0  0  0
 10 15  1  0  0  0
 11 12  1  0  0  0
 11 91  1  0  0  0
 12 13  2  0  0  0
 12 92  1  0  0  0
 13 14  1  0  0  0
 13 31  1  0  0  0
 14 15  2  0  0  0
 14 93  1  0  0  0
 15 94  1  0  0  0
 16 17  2  0  0  0
 16 21  1  0  0  0
 16 31  1  0  0  0
 17 18  1  0  0  0
 17 95  1  0  0  0
 18 19  2  0  0  0
 18 96  1  0  0  0
 19 20  1  0  0  0
 19 24  1  0  0  0
 20 21  2  0  0  0
 20 97  1  0  0  0
 21 23  1  0  0  0
 22 28  1  0  0  0
 22 32  2  0  0  0
 26 27  1  0  0  0
 28 98  1  0  0  0
 28 99  1  0  0  0
 29100  1  0  0  0
 29101  1  0  0  0
 33 34  1  0  0  0
 33 66  1  0  0  0
 33 70  2  0  0  0
 34 36  1  0  0  0
 34 59  1  0  0  0
 34102  1  0  0  0
 35 44  2  0  0  0
 35 45  1  0  0  0
 35 68  1  0  0  0
 36 56  1  0  0  0
 36103  1  0  0  0
 37 39  1  0  0  0
 37 47  1  0  0  0
 37 66  1  0  0  0
 37104  1  0  0  0
 38 43  2  0  0  0
 38 46  1  0  0  0
 38 47  1  0  0  0
 39 64  1  0  0  0
 39 67  2  0  0  0
 40 52  1  0  0  0
 40 53  2  0  0  0
 40 58  1  0  0  0
 41105  1  0  0  0
 41106  1  0  0  0
 41107  1  0  0  0
 41 48  1  0  0  0
 42 43  1  0  0  0
 42 66  1  0  0  0
 42108  1  0  0  0
 42109  1  0  0  0
 43 44  1  0  0  0
 44110  1  0  0  0
 45 46  2  0  0  0
 45111  1  0  0  0
 46112  1  0  0  0
 47113  1  0  0  0
 47114  1  0  0  0
 48 56  1  0  0  0
 48 65  1  0  0  0
 48115  1  0  0  0
 49 50  1  0  0  0
 49 53  1  0  0  0
 49 64  1  0  0  0
 49116  1  0  0  0
 50 51  1  0  0  0
 50117  1  0  0  0
 50118  1  0  0  0
 51 52  1  0  0  0
 51119  1  0  0  0
 51120  1  0  0  0
 52121  1  0  0  0
 52122  1  0  0  0
 53 54  1  0  0  0
 54 55  2  0  0  0
 54123  1  0  0  0
 55 57  1  0  0  0
 55124  1  0  0  0
 56 69  2  0  0  0
 57 58  2  0  0  0
 57125  1  0  0  0
 58126  1  0  0  0
 59 60  1  0  0  0
 59 61  1  0  0  0
 59 62  1  0  0  0
 60127  1  0  0  0
 60128  1  0  0  0
 60129  1  0  0  0
 61130  1  0  0  0
 61131  1  0  0  0
 61132  1  0  0  0
 62133  1  0  0  0
 62134  1  0  0  0
 62135  1  0  0  0
 63 65  1  0  0  0
 63136  1  0  0  0
 63137  1  0  0  0
 63138  1  0  0  0
 64139  1  0  0  0
 65140  1  0  0  0
 68 79  1  0  0  0
 71 72  2  0  0  0
 71 75  1  0  0  0
 71141  1  0  0  0
 72 73  1  0  0  0
 72 77  1  0  0  0
 73 74  2  0  0  0
 73 79  1  0  0  0
 74 76  1  0  0  0
 74 78  1  0  0  0
 75 76  2  0  0  0
 75 80  1  0  0  0
 76 81  1  0  0  0
 77142  1  0  0  0
 77143  1  0  0  0
 77144  1  0  0  0
 78145  1  0  0  0
 78146  1  0  0  0
 78147  1  0  0  0
 79148  1  0  0  0
 79149  1  0  0  0
 80150  1  0  0  0
M  ISO  4   1 100  68 101  79 101  80 100
M  END
> <chiral flag>
0

> <version>
0

> <s_m_source_file>
/data/baiqing/PycharmProjects/Reinvent-master-3.2/result/LINK_invent/BTK/process_docking_weight1_custom_sum_contain_oxygen_bond_distance_aromatic_linkinvent_7_9_3/rearranged_h_0021.sdf

> <i_m_source_file_index>
11

> <r_mmod_Potential_Energy-OPLS-2005>
2270.41796875

> <r_mmod_Stretch_Energy-OPLS-2005>
928.454040527344

> <r_mmod_Bend_Energy-OPLS-2005>
647.606750488281

> <r_mmod_Torsional_Energy-OPLS-2005>
265.037506103516

> <r_mmod_Improper_Torsional_Energy-OPLS-2005>
10.5070247650146

> <r_mmod_Van_der_Waal_Energy-OPLS-2005>
134.255126953125

> <r_mmod_Electrostatic_Energy-OPLS-2005>
-369.675018310547

> <r_mmod_Solvation_Energy-OPLS-2005>
-208.952545166016

> <b_mmod_Minimization_Converged-OPLS-2005>
0

> <r_mmod_RMS_Derivative-OPLS-2005>
1.01162612438202

$$$$
11
                    3D
 Structure written by MMmdl.
151159  0  0  1  0            999 V2000
  -30.3418  -15.4854   20.3350 C   0  0  0  0  0  0
  -30.4422  -12.9552   19.5474 C   0  0  0  0  0  0
  -29.5499  -12.6246   18.3172 C   0  0  0  0  0  0
  -28.1108  -12.2948   18.7480 C   0  0  0  0  0  0
  -27.5983  -13.2889   19.8139 C   0  0  2  0  0  0
  -28.6233  -13.5604   20.9392 C   0  0  0  0  0  0
  -25.2201  -13.8142   20.5720 C   0  0  0  0  0  0
  -24.1639  -13.0306   20.9301 C   0  0  0  0  0  0
  -24.6384  -11.6858   20.8778 C   0  0  0  0  0  0
  -23.9096  -10.4229   21.0399 C   0  0  0  0  0  0
  -24.3644   -9.4157   21.9175 C   0  0  0  0  0  0
  -23.6304   -8.2207   22.0749 C   0  0  0  0  0  0
  -22.4282   -8.0258   21.3543 C   0  0  0  0  0  0
  -21.9928   -9.0226   20.4639 C   0  0  0  0  0  0
  -22.7273  -10.2089   20.3039 C   0  0  0  0  0  0
  -21.6849   -6.0727   22.5281 C   0  0  0  0  0  0
  -21.4006   -6.5633   23.8210 C   0  0  0  0  0  0
  -21.3657   -5.6785   24.9172 C   0  0  0  0  0  0
  -21.6049   -4.3049   24.7224 C   0  0  0  0  0  0
  -21.8820   -3.8143   23.4341 C   0  0  0  0  0  0
  -21.9192   -4.6957   22.3398 C   0  0  0  0  0  0
  -22.7661  -13.5063   21.1957 C   0  0  0  0  0  0
  -22.1668   -4.2144   21.0976 F   0  0  0  0  0  0
  -21.5635   -3.4535   25.7739 F   0  0  0  0  0  0
  -29.8447  -14.1225   20.3218 N   0  0  0  0  0  0
  -26.2733  -12.9524   20.3207 N   0  0  0  0  0  0
  -25.9332  -11.6612   20.5722 N   0  0  0  0  0  0
  -22.0338  -12.8045   22.0525 N   0  0  0  0  0  0
  -25.3449  -15.1852   20.4072 N   0  0  0  0  0  0
  -31.5686  -15.4648   20.1377 O   0  0  0  0  0  0
  -21.6633   -6.8869   21.4245 O   0  0  0  0  0  0
  -22.3337  -14.5375   20.6817 O   0  0  0  0  0  0
  -24.6728  -31.8120   23.1606 C   0  0  0  0  0  0
  -25.9353  -32.4530   23.8121 C   0  0  1  0  0  0
  -27.2321  -26.8167   20.2096 C   0  0  0  0  0  0
  -25.5975  -33.8353   24.2010 N   0  0  0  0  0  0
  -23.4948  -30.4165   21.5121 C   0  0  2  0  0  0
  -24.9531  -28.7788   20.1170 C   0  0  0  0  0  0
  -22.7719  -29.4375   22.4752 C   0  0  0  0  0  0
  -18.0329  -28.1417   22.8462 C   0  0  0  0  0  0
  -24.1491  -36.7184   23.2654 C   0  0  0  0  0  0
  -26.0694  -30.5825   21.4086 C   0  0  0  0  0  0
  -26.1387  -29.1597   20.7569 C   0  0  0  0  0  0
  -27.2676  -28.2042   20.7718 C   0  0  0  0  0  0
  -26.0138  -26.6135   19.5176 C   0  0  0  0  0  0
  -24.9232  -27.5292   19.4739 C   0  0  0  0  0  0
  -23.7427  -29.7192   20.1441 C   0  0  0  0  0  0
  -25.4139  -36.2939   24.0291 C   0  0  1  0  0  0
  -20.5959  -28.3773   23.1163 C   0  0  2  0  0  0
  -20.6802  -26.9442   22.5405 C   0  0  0  0  0  0
  -19.5777  -26.6374   21.5220 C   0  0  0  0  0  0
  -18.1960  -26.7948   22.1622 C   0  0  0  0  0  0
  -19.1593  -28.8918   23.2795 C   0  0  0  0  0  0
  -18.9504  -30.1504   23.8836 C   0  0  0  0  0  0
  -17.6494  -30.6605   24.0556 C   0  0  0  0  0  0
  -25.9106  -34.9322   23.4980 C   0  0  0  0  0  0
  -16.5382  -29.9088   23.6353 C   0  0  0  0  0  0
  -16.7310  -28.6509   23.0374 C   0  0  0  0  0  0
  -26.4564  -31.6527   25.0702 C   0  0  0  0  0  0
  -25.3652  -31.3820   26.1336 C   0  0  0  0  0  0
  -27.0476  -30.2875   24.6530 C   0  0  0  0  0  0
  -27.6036  -32.4369   25.7506 C   0  0  0  0  0  0
  -27.5565  -37.1752   24.8467 C   0  0  0  0  0  0
  -21.4377  -29.3037   22.3495 N   0  0  0  0  0  0
  -26.4279  -37.3681   23.9398 N   0  0  0  0  0  0
  -24.7679  -30.9669   22.0801 N   0  0  0  0  0  0
  -23.4211  -28.7963   23.3052 O   0  0  0  0  0  0
  -28.2275  -25.6651   20.2931 O   0  0  0  0  0  0
  -26.5742  -34.8875   22.4594 O   0  0  0  0  0  0
  -23.5768  -32.1150   23.6616 O   0  0  0  0  0  0
  -30.1761  -18.6287   21.8453 C   0  0  0  0  0  0
  -29.2296  -17.4066   21.8947 C   0  0  0  0  0  0
  -29.7547  -18.9436   20.4091 C   0  0  1  0  0  0
  -29.4507  -17.0980   20.4007 C   0  0  1  0  0  0
  -28.2335  -16.8461   19.5318 C   0  0  0  0  0  0
  -28.7555  -20.5337   20.2222 C   0  0  0  0  0  0
  -29.0182  -22.3864   20.3960 C   0  0  0  0  0  0
  -28.0270  -23.9722   20.1770 C   0  0  0  0  0  0
  -31.4483  -13.1902   19.1997 H   0  0  0  0  0  0
  -30.5564  -12.0791   20.1880 H   0  0  0  0  0  0
  -29.9708  -11.7940   17.7495 H   0  0  0  0  0  0
  -29.5403  -13.4828   17.6440 H   0  0  0  0  0  0
  -28.1119  -11.2872   19.1646 H   0  0  0  0  0  0
  -27.4436  -12.2719   17.8853 H   0  0  0  0  0  0
  -27.4703  -14.2191   19.2661 H   0  0  0  0  0  0
  -28.8318  -12.6586   21.5164 H   0  0  0  0  0  0
  -28.2165  -14.2884   21.6430 H   0  0  0  0  0  0
  -25.2786   -9.5640   22.4750 H   0  0  0  0  0  0
  -24.0002   -7.4600   22.7472 H   0  0  0  0  0  0
  -21.0852   -8.8759   19.8951 H   0  0  0  0  0  0
  -22.3736  -10.9631   19.6149 H   0  0  0  0  0  0
  -21.1991   -7.6141   23.9713 H   0  0  0  0  0  0
  -21.1483   -6.0512   25.9074 H   0  0  0  0  0  0
  -22.0603   -2.7603   23.2837 H   0  0  0  0  0  0
  -22.3992  -11.9721   22.4907 H   0  0  0  0  0  0
  -21.0950  -13.1051   22.2748 H   0  0  0  0  0  0
  -24.5484  -15.8049   20.5086 H   0  0  0  0  0  0
  -26.1558  -15.6419   20.0155 H   0  0  0  0  0  0
  -26.7435  -32.5028   23.0838 H   0  0  0  0  0  0
  -25.0042  -33.9408   25.0109 H   0  0  0  0  0  0
  -22.8144  -31.2506   21.3292 H   0  0  0  0  0  0
  -23.3764  -35.9504   23.3303 H   0  0  0  0  0  0
  -24.3554  -36.8857   22.2072 H   0  0  0  0  0  0
  -23.7246  -37.6361   23.6732 H   0  0  0  0  0  0
  -26.2609  -31.3159   20.6244 H   0  0  0  0  0  0
  -26.9243  -30.6449   22.0700 H   0  0  0  0  0  0
  -28.1624  -28.5004   21.3015 H   0  0  0  0  0  0
  -25.8706  -25.6604   19.0293 H   0  0  0  0  0  0
  -24.0250  -27.2300   18.9519 H   0  0  0  0  0  0
  -23.9057  -30.4823   19.3821 H   0  0  0  0  0  0
  -22.8506  -29.1765   19.8255 H   0  0  0  0  0  0
  -25.1344  -36.1734   25.0783 H   0  0  0  0  0  0
  -21.0037  -28.3400   24.1291 H   0  0  0  0  0  0
  -20.5688  -26.2392   23.3658 H   0  0  0  0  0  0
  -21.6663  -26.7408   22.1210 H   0  0  0  0  0  0
  -19.6936  -25.6270   21.1293 H   0  0  0  0  0  0
  -19.6722  -27.3149   20.6725 H   0  0  0  0  0  0
  -17.4229  -26.6698   21.4025 H   0  0  0  0  0  0
  -18.0344  -26.0102   22.9028 H   0  0  0  0  0  0
  -19.7981  -30.7338   24.2179 H   0  0  0  0  0  0
  -17.5048  -31.6281   24.5168 H   0  0  0  0  0  0
  -15.5380  -30.2975   23.7712 H   0  0  0  0  0  0
  -15.8711  -28.0806   22.7129 H   0  0  0  0  0  0
  -24.5854  -30.7149   25.7641 H   0  0  0  0  0  0
  -24.8813  -32.3030   26.4594 H   0  0  0  0  0  0
  -25.7846  -30.9098   27.0228 H   0  0  0  0  0  0
  -26.3168  -29.6517   24.1518 H   0  0  0  0  0  0
  -27.3930  -29.7293   25.5241 H   0  0  0  0  0  0
  -27.9141  -30.4021   24.0018 H   0  0  0  0  0  0
  -27.2595  -33.3736   26.1907 H   0  0  0  0  0  0
  -28.3929  -32.6830   25.0390 H   0  0  0  0  0  0
  -28.0612  -31.8619   26.5566 H   0  0  0  0  0  0
  -28.2572  -38.0057   24.7490 H   0  0  0  0  0  0
  -28.1071  -36.2575   24.6331 H   0  0  0  0  0  0
  -27.2269  -37.1440   25.8869 H   0  0  0  0  0  0
  -20.9662  -29.8693   21.6574 H   0  0  0  0  0  0
  -26.0126  -38.2741   24.1398 H   0  0  0  0  0  0
  -31.2278  -18.3460   21.9206 H   0  0  0  0  0  0
  -29.9339  -19.4093   22.5676 H   0  0  0  0  0  0
  -28.1993  -17.6899   22.1177 H   0  0  0  0  0  0
  -29.5604  -16.6306   22.5860 H   0  0  0  0  0  0
  -30.6584  -19.0761   19.8129 H   0  0  0  0  0  0
  -27.4453  -16.4218   20.1356 H   0  0  0  0  0  0
  -28.4415  -16.1812   18.6930 H   0  0  0  0  0  0
  -27.8448  -17.7714   19.1079 H   0  0  0  0  0  0
  -27.8742  -20.3674   20.8434 H   0  0  0  0  0  0
  -28.3464  -20.4647   19.2143 H   0  0  0  0  0  0
  -29.9004  -22.5677   19.7833 H   0  0  0  0  0  0
  -29.3954  -22.4797   21.4144 H   0  0  0  0  0  0
  -27.1686  -23.8130   20.8305 H   0  0  0  0  0  0
  -27.6074  -23.8696   19.1764 H   0  0  0  0  0  0
  1 25  1  0  0  0
  1 30  2  0  0  0
  1 74  1  0  0  0
  2  3  1  0  0  0
  2 25  1  0  0  0
  2 79  1  0  0  0
  2 80  1  0  0  0
  3  4  1  0  0  0
  3 81  1  0  0  0
  3 82  1  0  0  0
  4  5  1  0  0  0
  4 83  1  0  0  0
  4 84  1  0  0  0
  5  6  1  0  0  0
  5 26  1  0  0  0
  5 85  1  0  0  0
  6 25  1  0  0  0
  6 86  1  0  0  0
  6 87  1  0  0  0
  7  8  2  0  0  0
  7 26  1  0  0  0
  7 29  1  0  0  0
  8  9  1  0  0  0
  8 22  1  0  0  0
  9 10  1  0  0  0
  9 27  2  0  0  0
 10 11  2  0  0  0
 10 15  1  0  0  0
 11 12  1  0  0  0
 11 88  1  0  0  0
 12 13  2  0  0  0
 12 89  1  0  0  0
 13 14  1  0  0  0
 13 31  1  0  0  0
 14 15  2  0  0  0
 14 90  1  0  0  0
 15 91  1  0  0  0
 16 17  2  0  0  0
 16 21  1  0  0  0
 16 31  1  0  0  0
 17 18  1  0  0  0
 17 92  1  0  0  0
 18 19  2  0  0  0
 18 93  1  0  0  0
 19 20  1  0  0  0
 19 24  1  0  0  0
 20 21  2  0  0  0
 20 94  1  0  0  0
 21 23  1  0  0  0
 22 28  1  0  0  0
 22 32  2  0  0  0
 26 27  1  0  0  0
 28 95  1  0  0  0
 28 96  1  0  0  0
 29 97  1  0  0  0
 29 98  1  0  0  0
 33 34  1  0  0  0
 33 66  1  0  0  0
 33 70  2  0  0  0
 34 36  1  0  0  0
 34 59  1  0  0  0
 34 99  1  0  0  0
 35 44  2  0  0  0
 35 45  1  0  0  0
 35 68  1  0  0  0
 36 56  1  0  0  0
 36100  1  0  0  0
 37 39  1  0  0  0
 37 47  1  0  0  0
 37 66  1  0  0  0
 37101  1  0  0  0
 38 43  2  0  0  0
 38 46  1  0  0  0
 38 47  1  0  0  0
 39 64  1  0  0  0
 39 67  2  0  0  0
 40 52  1  0  0  0
 40 53  2  0  0  0
 40 58  1  0  0  0
 41102  1  0  0  0
 41103  1  0  0  0
 41104  1  0  0  0
 41 48  1  0  0  0
 42 43  1  0  0  0
 42 66  1  0  0  0
 42105  1  0  0  0
 42106  1  0  0  0
 43 44  1  0  0  0
 44107  1  0  0  0
 45 46  2  0  0  0
 45108  1  0  0  0
 46109  1  0  0  0
 47110  1  0  0  0
 47111  1  0  0  0
 48 56  1  0  0  0
 48 65  1  0  0  0
 48112  1  0  0  0
 49 50  1  0  0  0
 49 53  1  0  0  0
 49 64  1  0  0  0
 49113  1  0  0  0
 50 51  1  0  0  0
 50114  1  0  0  0
 50115  1  0  0  0
 51 52  1  0  0  0
 51116  1  0  0  0
 51117  1  0  0  0
 52118  1  0  0  0
 52119  1  0  0  0
 53 54  1  0  0  0
 54 55  2  0  0  0
 54120  1  0  0  0
 55 57  1  0  0  0
 55121  1  0  0  0
 56 69  2  0  0  0
 57 58  2  0  0  0
 57122  1  0  0  0
 58123  1  0  0  0
 59 60  1  0  0  0
 59 61  1  0  0  0
 59 62  1  0  0  0
 60124  1  0  0  0
 60125  1  0  0  0
 60126  1  0  0  0
 61127  1  0  0  0
 61128  1  0  0  0
 61129  1  0  0  0
 62130  1  0  0  0
 62131  1  0  0  0
 62132  1  0  0  0
 63 65  1  0  0  0
 63133  1  0  0  0
 63134  1  0  0  0
 63135  1  0  0  0
 64136  1  0  0  0
 65137  1  0  0  0
 68 78  1  0  0  0
 71 72  1  0  0  0
 71 73  1  0  0  0
 71138  1  0  0  0
 71139  1  0  0  0
 72 74  1  0  0  0
 72140  1  0  0  0
 72141  1  0  0  0
 73 74  1  0  0  0
 73 76  1  0  0  0
 73142  1  0  0  0
 74 75  1  0  0  0
 75143  1  0  0  0
 75144  1  0  0  0
 75145  1  0  0  0
 76 77  1  0  0  0
 76146  1  0  0  0
 76147  1  0  0  0
 77 78  1  0  0  0
 77148  1  0  0  0
 77149  1  0  0  0
 78150  1  0  0  0
 78151  1  0  0  0
M  ISO  4   1 100  68 101  74 100  78 101
M  END
> <chiral flag>
0

> <version>
0

> <s_m_source_file>
/data/baiqing/PycharmProjects/Reinvent-master-3.2/result/LINK_invent/BTK/process_docking_weight1_custom_sum_contain_oxygen_bond_distance_aromatic_linkinvent_7_9_3/rearranged_h_0021.sdf

> <i_m_source_file_index>
12

> <r_mmod_Potential_Energy-OPLS-2005>
2081.00268554688

> <r_mmod_Stretch_Energy-OPLS-2005>
969.3408203125

> <r_mmod_Bend_Energy-OPLS-2005>
567.988464355469

> <r_mmod_Torsional_Energy-OPLS-2005>
221.347946166992

> <r_mmod_Improper_Torsional_Energy-OPLS-2005>
3.61333918571472

> <r_mmod_Van_der_Waal_Energy-OPLS-2005>
108.249229431152

> <r_mmod_Electrostatic_Energy-OPLS-2005>
-286.701568603516

> <r_mmod_Solvation_Energy-OPLS-2005>
-186.651336669922

> <b_mmod_Minimization_Converged-OPLS-2005>
0

> <r_mmod_RMS_Derivative-OPLS-2005>
1.22981154918671

$$$$
12
                    3D
 Structure written by MMmdl.
161169  0  0  1  0            999 V2000
  -30.7267  -14.4840   20.5650 C   0  0  0  0  0  0
  -30.4109  -12.3140   19.4220 C   0  0  0  0  0  0
  -29.4887  -12.5052   18.2024 C   0  0  0  0  0  0
  -28.0079  -12.3830   18.6126 C   0  0  0  0  0  0
  -27.6588  -13.2201   19.8734 C   0  0  2  0  0  0
  -28.7045  -13.0222   20.9943 C   0  0  0  0  0  0
  -25.2580  -13.8200   20.5693 C   0  0  0  0  0  0
  -24.1827  -13.0441   20.9178 C   0  0  0  0  0  0
  -24.6409  -11.6928   20.8719 C   0  0  0  0  0  0
  -23.9090  -10.4301   21.0389 C   0  0  0  0  0  0
  -24.3626   -9.4219   21.9183 C   0  0  0  0  0  0
  -23.6290   -8.2262   22.0762 C   0  0  0  0  0  0
  -22.4283   -8.0296   21.3539 C   0  0  0  0  0  0
  -21.9929   -9.0267   20.4640 C   0  0  0  0  0  0
  -22.7262  -10.2144   20.3042 C   0  0  0  0  0  0
  -21.6857   -6.0740   22.5279 C   0  0  0  0  0  0
  -21.4015   -6.5636   23.8210 C   0  0  0  0  0  0
  -21.3656   -5.6792   24.9168 C   0  0  0  0  0  0
  -21.6044   -4.3053   24.7223 C   0  0  0  0  0  0
  -21.8824   -3.8145   23.4338 C   0  0  0  0  0  0
  -21.9195   -4.6970   22.3391 C   0  0  0  0  0  0
  -22.7854  -13.5247   21.1815 C   0  0  0  0  0  0
  -22.1660   -4.2154   21.0973 F   0  0  0  0  0  0
  -21.5632   -3.4536   25.7727 F   0  0  0  0  0  0
  -30.0295  -13.3201   20.4317 N   0  0  0  0  0  0
  -26.3024  -12.9389   20.3379 N   0  0  0  0  0  0
  -25.9347  -11.6531   20.5772 N   0  0  0  0  0  0
  -22.0487  -12.8212   22.0351 N   0  0  0  0  0  0
  -25.4288  -15.1908   20.4128 N   0  0  0  0  0  0
  -31.8624  -14.6178   20.1016 O   0  0  0  0  0  0
  -21.6635   -6.8887   21.4239 O   0  0  0  0  0  0
  -22.3547  -14.5549   20.6678 O   0  0  0  0  0  0
  -24.6205  -31.8688   23.2061 C   0  0  0  0  0  0
  -25.9111  -32.4824   23.8355 C   0  0  1  0  0  0
  -27.2147  -27.3923   20.1057 C   0  0  0  0  0  0
  -25.5980  -33.8604   24.2341 N   0  0  0  0  0  0
  -23.4054  -30.4878   21.5551 C   0  0  2  0  0  0
  -24.8488  -28.9420   20.1232 C   0  0  0  0  0  0
  -22.7428  -29.4651   22.5053 C   0  0  0  0  0  0
  -18.0284  -28.1318   22.8500 C   0  0  0  0  0  0
  -24.1494  -36.7270   23.2637 C   0  0  0  0  0  0
  -25.9346  -30.8178   21.3633 C   0  0  0  0  0  0
  -26.0118  -29.4419   20.7245 C   0  0  0  0  0  0
  -27.2039  -28.6714   20.7202 C   0  0  0  0  0  0
  -26.0419  -26.9183   19.4907 C   0  0  0  0  0  0
  -24.8581  -27.6790   19.5057 C   0  0  0  0  0  0
  -23.6121  -29.8132   20.1716 C   0  0  0  0  0  0
  -25.4114  -36.3106   24.0331 C   0  0  1  0  0  0
  -20.5869  -28.3638   23.1309 C   0  0  2  0  0  0
  -20.6783  -26.9384   22.5402 C   0  0  0  0  0  0
  -19.5761  -26.6368   21.5194 C   0  0  0  0  0  0
  -18.1932  -26.7883   22.1591 C   0  0  0  0  0  0
  -19.1522  -28.8796   23.2907 C   0  0  0  0  0  0
  -18.9466  -30.1407   23.8915 C   0  0  0  0  0  0
  -17.6466  -30.6563   24.0518 C   0  0  0  0  0  0
  -25.9028  -34.9473   23.5121 C   0  0  0  0  0  0
  -16.5356  -29.9036   23.6311 C   0  0  0  0  0  0
  -16.7278  -28.6431   23.0370 C   0  0  0  0  0  0
  -26.4508  -31.6585   25.0680 C   0  0  0  0  0  0
  -25.3740  -31.3613   26.1392 C   0  0  0  0  0  0
  -27.0372  -30.3068   24.5987 C   0  0  0  0  0  0
  -27.6079  -32.4280   25.7474 C   0  0  0  0  0  0
  -27.5585  -37.1799   24.8466 C   0  0  0  0  0  0
  -21.4167  -29.2999   22.3739 N   0  0  0  0  0  0
  -26.4303  -37.3793   23.9397 N   0  0  0  0  0  0
  -24.6732  -31.0735   22.1000 N   0  0  0  0  0  0
  -23.4199  -28.8226   23.3125 O   0  0  0  0  0  0
  -28.3410  -26.6039   20.0023 O   0  0  0  0  0  0
  -26.5571  -34.8947   22.4664 O   0  0  0  0  0  0
  -23.5396  -32.1455   23.7462 O   0  0  0  0  0  0
  -28.9042  -20.1448   20.1616 C   0  0  0  0  0  0
  -29.2300  -18.6245   22.5160 C   0  0  0  0  0  0
  -29.7925  -18.1334   21.3023 C   0  0  0  0  0  0
  -28.3673  -20.6627   21.3603 C   0  0  0  0  0  0
  -29.5895  -18.9056   20.1243 C   0  0  0  0  0  0
  -28.5262  -19.8675   22.5337 C   0  0  0  0  0  0
  -29.3994  -17.8427   23.8251 C   0  0  0  0  0  0
  -27.2968  -23.1473   19.2402 C   0  0  0  0  0  0
  -30.7089  -16.8779   21.2638 C   0  0  0  0  0  0
  -27.7676  -24.4465   21.3880 C   0  0  0  0  0  0
  -28.6447  -25.7195   21.0989 C   0  0  0  0  0  0
  -28.0311  -23.1047   20.6039 C   0  0  1  0  0  0
  -27.6682  -21.9099   21.4113 N   0  0  0  0  0  0
  -30.0845  -15.5414   21.1110 N   0  0  0  0  0  0
  -30.1861  -18.3672   18.5950 Cl  0  0  0  0  0  0
  -27.8780  -20.4598   24.0288 Cl  0  0  0  0  0  0
  -31.4555  -12.3920   19.1169 H   0  0  0  0  0  0
  -30.2998  -11.3076   19.8317 H   0  0  0  0  0  0
  -29.7217  -11.7699   17.4316 H   0  0  0  0  0  0
  -29.6673  -13.4843   17.7534 H   0  0  0  0  0  0
  -27.7977  -11.3288   18.7912 H   0  0  0  0  0  0
  -27.3676  -12.6832   17.7809 H   0  0  0  0  0  0
  -27.6975  -14.2679   19.5748 H   0  0  0  0  0  0
  -28.6816  -11.9943   21.3582 H   0  0  0  0  0  0
  -28.4769  -13.6485   21.8580 H   0  0  0  0  0  0
  -25.2780   -9.5690   22.4753 H   0  0  0  0  0  0
  -23.9991   -7.4661   22.7496 H   0  0  0  0  0  0
  -21.0867   -8.8800   19.8929 H   0  0  0  0  0  0
  -22.3748  -10.9681   19.6133 H   0  0  0  0  0  0
  -21.2008   -7.6149   23.9715 H   0  0  0  0  0  0
  -21.1468   -6.0515   25.9073 H   0  0  0  0  0  0
  -22.0605   -2.7614   23.2838 H   0  0  0  0  0  0
  -22.4098  -11.9859   22.4705 H   0  0  0  0  0  0
  -21.1097  -13.1214   22.2520 H   0  0  0  0  0  0
  -24.6685  -15.8491   20.5413 H   0  0  0  0  0  0
  -26.2862  -15.6330   20.1065 H   0  0  0  0  0  0
  -26.7171  -32.5540   23.1096 H   0  0  0  0  0  0
  -25.0241  -33.9710   25.0569 H   0  0  0  0  0  0
  -22.6988  -31.3080   21.4139 H   0  0  0  0  0  0
  -23.3785  -35.9578   23.3299 H   0  0  0  0  0  0
  -24.3596  -36.8868   22.2051 H   0  0  0  0  0  0
  -23.7196  -37.6445   23.6651 H   0  0  0  0  0  0
  -26.0335  -31.5770   20.5883 H   0  0  0  0  0  0
  -26.8236  -30.8855   21.9758 H   0  0  0  0  0  0
  -28.1044  -29.0602   21.1759 H   0  0  0  0  0  0
  -26.0509  -25.9569   18.9989 H   0  0  0  0  0  0
  -23.9681  -27.2865   19.0312 H   0  0  0  0  0  0
  -23.7123  -30.5801   19.4013 H   0  0  0  0  0  0
  -22.7369  -29.2246   19.8911 H   0  0  0  0  0  0
  -25.1297  -36.1960   25.0817 H   0  0  0  0  0  0
  -20.9931  -28.3223   24.1426 H   0  0  0  0  0  0
  -20.5686  -26.2257   23.3587 H   0  0  0  0  0  0
  -21.6655  -26.7442   22.1184 H   0  0  0  0  0  0
  -19.6913  -25.6290   21.1210 H   0  0  0  0  0  0
  -19.6683  -27.3193   20.6735 H   0  0  0  0  0  0
  -17.4204  -26.6677   21.3981 H   0  0  0  0  0  0
  -18.0287  -25.9992   22.8941 H   0  0  0  0  0  0
  -19.7964  -30.7193   24.2314 H   0  0  0  0  0  0
  -17.5033  -31.6256   24.5111 H   0  0  0  0  0  0
  -15.5349  -30.2921   23.7651 H   0  0  0  0  0  0
  -15.8678  -28.0744   22.7088 H   0  0  0  0  0  0
  -24.6034  -30.6838   25.7705 H   0  0  0  0  0  0
  -24.8754  -32.2689   26.4797 H   0  0  0  0  0  0
  -25.8073  -30.8853   27.0182 H   0  0  0  0  0  0
  -26.2898  -29.6789   24.1126 H   0  0  0  0  0  0
  -27.4308  -29.7363   25.4405 H   0  0  0  0  0  0
  -27.8658  -30.4470   23.9033 H   0  0  0  0  0  0
  -27.2752  -33.3645   26.1970 H   0  0  0  0  0  0
  -28.3948  -32.6692   25.0310 H   0  0  0  0  0  0
  -28.0652  -31.8386   26.5426 H   0  0  0  0  0  0
  -28.2584  -38.0131   24.7593 H   0  0  0  0  0  0
  -28.1101  -36.2652   24.6231 H   0  0  0  0  0  0
  -27.2284  -37.1370   25.8867 H   0  0  0  0  0  0
  -20.9373  -29.8696   21.6929 H   0  0  0  0  0  0
  -26.0199  -38.2863   24.1428 H   0  0  0  0  0  0
  -28.7995  -20.6903   19.2403 H   0  0  0  0  0  0
  -29.8124  -16.8434   23.6984 H   0  0  0  0  0  0
  -28.4379  -17.7004   24.3158 H   0  0  0  0  0  0
  -30.0550  -18.3823   24.5118 H   0  0  0  0  0  0
  -27.6975  -23.9438   18.6071 H   0  0  0  0  0  0
  -26.2266  -23.3477   19.3443 H   0  0  0  0  0  0
  -27.3871  -22.2294   18.6645 H   0  0  0  0  0  0
  -31.3388  -16.8530   22.1550 H   0  0  0  0  0  0
  -31.4426  -17.0315   20.4706 H   0  0  0  0  0  0
  -26.7100  -24.7097   21.3617 H   0  0  0  0  0  0
  -27.9683  -24.2310   22.4371 H   0  0  0  0  0  0
  -29.6770  -25.4003   20.9639 H   0  0  0  0  0  0
  -28.6580  -26.3389   21.9956 H   0  0  0  0  0  0
  -29.1014  -23.0226   20.4118 H   0  0  0  0  0  0
  -27.3191  -22.1158   22.3473 H   0  0  0  0  0  0
  -29.1400  -15.4077   21.4366 H   0  0  0  0  0  0
  1 25  1  0  0  0
  1 30  2  0  0  0
  1 84  1  0  0  0
  2  3  1  0  0  0
  2 25  1  0  0  0
  2 87  1  0  0  0
  2 88  1  0  0  0
  3  4  1  0  0  0
  3 89  1  0  0  0
  3 90  1  0  0  0
  4  5  1  0  0  0
  4 91  1  0  0  0
  4 92  1  0  0  0
  5  6  1  0  0  0
  5 26  1  0  0  0
  5 93  1  0  0  0
  6 25  1  0  0  0
  6 94  1  0  0  0
  6 95  1  0  0  0
  7  8  2  0  0  0
  7 26  1  0  0  0
  7 29  1  0  0  0
  8  9  1  0  0  0
  8 22  1  0  0  0
  9 10  1  0  0  0
  9 27  2  0  0  0
 10 11  2  0  0  0
 10 15  1  0  0  0
 11 12  1  0  0  0
 11 96  1  0  0  0
 12 13  2  0  0  0
 12 97  1  0  0  0
 13 14  1  0  0  0
 13 31  1  0  0  0
 14 15  2  0  0  0
 14 98  1  0  0  0
 15 99  1  0  0  0
 16 17  2  0  0  0
 16 21  1  0  0  0
 16 31  1  0  0  0
 17 18  1  0  0  0
 17100  1  0  0  0
 18 19  2  0  0  0
 18101  1  0  0  0
 19 20  1  0  0  0
 19 24  1  0  0  0
 20 21  2  0  0  0
 20102  1  0  0  0
 21 23  1  0  0  0
 22 28  1  0  0  0
 22 32  2  0  0  0
 26 27  1  0  0  0
 28103  1  0  0  0
 28104  1  0  0  0
 29105  1  0  0  0
 29106  1  0  0  0
 33 34  1  0  0  0
 33 66  1  0  0  0
 33 70  2  0  0  0
 34 36  1  0  0  0
 34 59  1  0  0  0
 34107  1  0  0  0
 35 44  2  0  0  0
 35 45  1  0  0  0
 35 68  1  0  0  0
 36 56  1  0  0  0
 36108  1  0  0  0
 37 39  1  0  0  0
 37 47  1  0  0  0
 37 66  1  0  0  0
 37109  1  0  0  0
 38 43  2  0  0  0
 38 46  1  0  0  0
 38 47  1  0  0  0
 39 64  1  0  0  0
 39 67  2  0  0  0
 40 52  1  0  0  0
 40 53  2  0  0  0
 40 58  1  0  0  0
 41110  1  0  0  0
 41111  1  0  0  0
 41112  1  0  0  0
 41 48  1  0  0  0
 42 43  1  0  0  0
 42 66  1  0  0  0
 42113  1  0  0  0
 42114  1  0  0  0
 43 44  1  0  0  0
 44115  1  0  0  0
 45 46  2  0  0  0
 45116  1  0  0  0
 46117  1  0  0  0
 47118  1  0  0  0
 47119  1  0  0  0
 48 56  1  0  0  0
 48 65  1  0  0  0
 48120  1  0  0  0
 49 50  1  0  0  0
 49 53  1  0  0  0
 49 64  1  0  0  0
 49121  1  0  0  0
 50 51  1  0  0  0
 50122  1  0  0  0
 50123  1  0  0  0
 51 52  1  0  0  0
 51124  1  0  0  0
 51125  1  0  0  0
 52126  1  0  0  0
 52127  1  0  0  0
 53 54  1  0  0  0
 54 55  2  0  0  0
 54128  1  0  0  0
 55 57  1  0  0  0
 55129  1  0  0  0
 56 69  2  0  0  0
 57 58  2  0  0  0
 57130  1  0  0  0
 58131  1  0  0  0
 59 60  1  0  0  0
 59 61  1  0  0  0
 59 62  1  0  0  0
 60132  1  0  0  0
 60133  1  0  0  0
 60134  1  0  0  0
 61135  1  0  0  0
 61136  1  0  0  0
 61137  1  0  0  0
 62138  1  0  0  0
 62139  1  0  0  0
 62140  1  0  0  0
 63 65  1  0  0  0
 63141  1  0  0  0
 63142  1  0  0  0
 63143  1  0  0  0
 64144  1  0  0  0
 65145  1  0  0  0
 68 81  1  0  0  0
 71 74  2  0  0  0
 71 75  1  0  0  0
 71146  1  0  0  0
 72 73  1  0  0  0
 72 76  2  0  0  0
 72 77  1  0  0  0
 73 75  2  0  0  0
 73 79  1  0  0  0
 74 76  1  0  0  0
 74 83  1  0  0  0
 75 85  1  0  0  0
 76 86  1  0  0  0
 77147  1  0  0  0
 77148  1  0  0  0
 77149  1  0  0  0
 78150  1  0  0  0
 78151  1  0  0  0
 78152  1  0  0  0
 78 82  1  0  0  0
 79 84  1  0  0  0
 79153  1  0  0  0
 79154  1  0  0  0
 80 81  1  0  0  0
 80 82  1  0  0  0
 80155  1  0  0  0
 80156  1  0  0  0
 81157  1  0  0  0
 81158  1  0  0  0
 82 83  1  0  0  0
 82159  1  0  0  0
 83160  1  0  0  0
 84161  1  0  0  0
M  ISO  4   1 100  68 101  81 101  84 100
M  END
> <chiral flag>
0

> <version>
0

> <s_m_source_file>
/data/baiqing/PycharmProjects/Reinvent-master-3.2/result/LINK_invent/BTK/process_docking_weight1_custom_sum_contain_oxygen_bond_distance_aromatic_linkinvent_7_9_3/rearranged_h_0021.sdf

> <i_m_source_file_index>
13

> <r_mmod_Potential_Energy-OPLS-2005>
11.3114070892334

> <r_mmod_Stretch_Energy-OPLS-2005>
54.4681625366211

> <r_mmod_Bend_Energy-OPLS-2005>
132.16047668457

> <r_mmod_Torsional_Energy-OPLS-2005>
232.669067382812

> <r_mmod_Improper_Torsional_Energy-OPLS-2005>
5.94238662719727

> <r_mmod_Van_der_Waal_Energy-OPLS-2005>
145.30549621582

> <r_mmod_Electrostatic_Energy-OPLS-2005>
-373.689727783203

> <r_mmod_Solvation_Energy-OPLS-2005>
-202.987564086914

> <b_mmod_Minimization_Converged-OPLS-2005>
0

> <r_mmod_RMS_Derivative-OPLS-2005>
5.53961610794067

$$$$
13
                    3D
 Structure written by MMmdl.
156164  0  0  1  0            999 V2000
  -30.5395  -14.8515   20.4228 C   0  0  0  0  0  0
  -30.4524  -12.5224   19.4765 C   0  0  0  0  0  0
  -29.5270  -12.5312   18.2370 C   0  0  0  0  0  0
  -28.0533  -12.3330   18.6465 C   0  0  0  0  0  0
  -27.6430  -13.2330   19.8421 C   0  0  2  0  0  0
  -28.6887  -13.1864   20.9767 C   0  0  0  0  0  0
  -25.2524  -13.8178   20.5638 C   0  0  0  0  0  0
  -24.1841  -13.0430   20.9221 C   0  0  0  0  0  0
  -24.6429  -11.6909   20.8751 C   0  0  0  0  0  0
  -23.9099  -10.4285   21.0392 C   0  0  0  0  0  0
  -24.3642   -9.4203   21.9168 C   0  0  0  0  0  0
  -23.6306   -8.2241   22.0743 C   0  0  0  0  0  0
  -22.4288   -8.0280   21.3531 C   0  0  0  0  0  0
  -21.9934   -9.0260   20.4640 C   0  0  0  0  0  0
  -22.7270  -10.2133   20.3046 C   0  0  0  0  0  0
  -21.6857   -6.0744   22.5286 C   0  0  0  0  0  0
  -21.4019   -6.5640   23.8221 C   0  0  0  0  0  0
  -21.3656   -5.6786   24.9176 C   0  0  0  0  0  0
  -21.6044   -4.3052   24.7218 C   0  0  0  0  0  0
  -21.8825   -3.8150   23.4338 C   0  0  0  0  0  0
  -21.9191   -4.6971   22.3396 C   0  0  0  0  0  0
  -22.7863  -13.5218   21.1857 C   0  0  0  0  0  0
  -22.1661   -4.2160   21.0975 F   0  0  0  0  0  0
  -21.5622   -3.4531   25.7726 F   0  0  0  0  0  0
  -29.9797  -13.5851   20.3965 N   0  0  0  0  0  0
  -26.2948  -12.9388   20.3196 N   0  0  0  0  0  0
  -25.9348  -11.6530   20.5690 N   0  0  0  0  0  0
  -22.0484  -12.8234   22.0411 N   0  0  0  0  0  0
  -25.4137  -15.1887   20.3956 N   0  0  0  0  0  0
  -31.7350  -14.9703   20.1398 O   0  0  0  0  0  0
  -21.6638   -6.8886   21.4249 O   0  0  0  0  0  0
  -22.3552  -14.5503   20.6650 O   0  0  0  0  0  0
  -24.6389  -31.8513   23.1935 C   0  0  0  0  0  0
  -25.9186  -32.4726   23.8314 C   0  0  1  0  0  0
  -27.2192  -27.1970   20.1264 C   0  0  0  0  0  0
  -25.5965  -33.8535   24.2240 N   0  0  0  0  0  0
  -23.4385  -30.4736   21.5381 C   0  0  2  0  0  0
  -24.8864  -28.9125   20.1083 C   0  0  0  0  0  0
  -22.7539  -29.4596   22.4884 C   0  0  0  0  0  0
  -18.0295  -28.1379   22.8487 C   0  0  0  0  0  0
  -24.1499  -36.7257   23.2645 C   0  0  0  0  0  0
  -25.9923  -30.7415   21.3865 C   0  0  0  0  0  0
  -26.0627  -29.3599   20.7236 C   0  0  0  0  0  0
  -27.2307  -28.5169   20.7178 C   0  0  0  0  0  0
  -26.0178  -26.8441   19.4690 C   0  0  0  0  0  0
  -24.8725  -27.6646   19.4697 C   0  0  0  0  0  0
  -23.6610  -29.8075   20.1565 C   0  0  0  0  0  0
  -25.4130  -36.3062   24.0334 C   0  0  1  0  0  0
  -20.5905  -28.3722   23.1230 C   0  0  2  0  0  0
  -20.6786  -26.9433   22.5385 C   0  0  0  0  0  0
  -19.5763  -26.6376   21.5196 C   0  0  0  0  0  0
  -18.1942  -26.7925   22.1613 C   0  0  0  0  0  0
  -19.1555  -28.8864   23.2858 C   0  0  0  0  0  0
  -18.9473  -30.1451   23.8893 C   0  0  0  0  0  0
  -17.6477  -30.6591   24.0544 C   0  0  0  0  0  0
  -25.9069  -34.9432   23.5086 C   0  0  0  0  0  0
  -16.5363  -29.9079   23.6326 C   0  0  0  0  0  0
  -16.7285  -28.6482   23.0380 C   0  0  0  0  0  0
  -26.4526  -31.6570   25.0731 C   0  0  0  0  0  0
  -25.3709  -31.3718   26.1413 C   0  0  0  0  0  0
  -27.0394  -30.2983   24.6273 C   0  0  0  0  0  0
  -27.6089  -32.4309   25.7495 C   0  0  0  0  0  0
  -27.5586  -37.1788   24.8467 C   0  0  0  0  0  0
  -21.4243  -29.3063   22.3614 N   0  0  0  0  0  0
  -26.4303  -37.3769   23.9405 N   0  0  0  0  0  0
  -24.7091  -31.0425   22.0932 N   0  0  0  0  0  0
  -23.4203  -28.8155   23.3033 O   0  0  0  0  0  0
  -28.2864  -26.2432   20.1938 O   0  0  0  0  0  0
  -26.5648  -34.8916   22.4664 O   0  0  0  0  0  0
  -23.5517  -32.1375   23.7172 O   0  0  0  0  0  0
  -28.3372  -19.5792   21.0568 C   0  0  0  0  0  0
  -29.0749  -20.4529   20.2078 C   0  0  0  0  0  0
  -28.5782  -18.1647   21.2040 C   0  0  0  0  0  0
  -30.1512  -19.7640   19.5423 C   0  0  0  0  0  0
  -29.6158  -17.4502   20.5093 C   0  0  0  0  0  0
  -30.4016  -18.3250   19.6722 C   0  0  0  0  0  0
  -27.6116  -17.4310   22.1249 C   0  0  0  0  0  0
  -31.0318  -20.5748   18.6014 C   0  0  0  0  0  0
  -28.4880  -21.9357   19.8299 C   0  0  0  0  0  0
  -28.9489  -23.4435   20.3244 C   0  0  0  0  0  0
  -28.0215  -24.7576   19.9140 C   0  0  0  0  0  0
  -29.6684  -15.9338   20.6342 N   0  0  0  0  0  0
  -31.6400  -17.6301   18.6836 Cl  0  0  0  0  0  0
  -31.4884  -12.6805   19.1719 H   0  0  0  0  0  0
  -30.4315  -11.5490   19.9696 H   0  0  0  0  0  0
  -29.8328  -11.7555   17.5332 H   0  0  0  0  0  0
  -29.6344  -13.4807   17.7086 H   0  0  0  0  0  0
  -27.9247  -11.2832   18.9130 H   0  0  0  0  0  0
  -27.3994  -12.5131   17.7920 H   0  0  0  0  0  0
  -27.6268  -14.2517   19.4535 H   0  0  0  0  0  0
  -28.7514  -12.1850   21.4039 H   0  0  0  0  0  0
  -28.4041  -13.8494   21.7943 H   0  0  0  0  0  0
  -25.2771   -9.5688   22.4753 H   0  0  0  0  0  0
  -24.0008   -7.4638   22.7472 H   0  0  0  0  0  0
  -21.0851   -8.8794   19.8958 H   0  0  0  0  0  0
  -22.3716  -10.9674   19.6165 H   0  0  0  0  0  0
  -21.2022   -7.6145   23.9732 H   0  0  0  0  0  0
  -21.1467   -6.0506   25.9078 H   0  0  0  0  0  0
  -22.0602   -2.7614   23.2834 H   0  0  0  0  0  0
  -22.4088  -11.9930   22.4880 H   0  0  0  0  0  0
  -21.1084  -13.1289   22.2524 H   0  0  0  0  0  0
  -24.6178  -15.8136   20.4642 H   0  0  0  0  0  0
  -26.2151  -15.6201   19.9566 H   0  0  0  0  0  0
  -26.7255  -32.5360   23.1057 H   0  0  0  0  0  0
  -25.0126  -33.9663   25.0391 H   0  0  0  0  0  0
  -22.7388  -31.2993   21.3880 H   0  0  0  0  0  0
  -23.3781  -35.9562   23.3292 H   0  0  0  0  0  0
  -24.3595  -36.8891   22.2058 H   0  0  0  0  0  0
  -23.7216  -37.6443   23.6669 H   0  0  0  0  0  0
  -26.1492  -31.5039   20.6221 H   0  0  0  0  0  0
  -26.8611  -30.7828   22.0319 H   0  0  0  0  0  0
  -28.1275  -28.8569   21.2153 H   0  0  0  0  0  0
  -25.9249  -25.8987   18.9567 H   0  0  0  0  0  0
  -23.9758  -27.3192   18.9742 H   0  0  0  0  0  0
  -23.7877  -30.5816   19.3991 H   0  0  0  0  0  0
  -22.7775  -29.2448   19.8514 H   0  0  0  0  0  0
  -25.1308  -36.1919   25.0829 H   0  0  0  0  0  0
  -21.0001  -28.3311   24.1354 H   0  0  0  0  0  0
  -20.5661  -26.2358   23.3616 H   0  0  0  0  0  0
  -21.6657  -26.7442   22.1199 H   0  0  0  0  0  0
  -19.6925  -25.6273   21.1266 H   0  0  0  0  0  0
  -19.6687  -27.3151   20.6697 H   0  0  0  0  0  0
  -17.4214  -26.6678   21.4011 H   0  0  0  0  0  0
  -18.0342  -26.0052   22.8996 H   0  0  0  0  0  0
  -19.7950  -30.7252   24.2290 H   0  0  0  0  0  0
  -17.5029  -31.6279   24.5133 H   0  0  0  0  0  0
  -15.5361  -30.2983   23.7636 H   0  0  0  0  0  0
  -15.8686  -28.0768   22.7147 H   0  0  0  0  0  0
  -24.5911  -30.7062   25.7693 H   0  0  0  0  0  0
  -24.8861  -32.2871   26.4814 H   0  0  0  0  0  0
  -25.7978  -30.8887   27.0208 H   0  0  0  0  0  0
  -26.3000  -29.6700   24.1294 H   0  0  0  0  0  0
  -27.4051  -29.7295   25.4830 H   0  0  0  0  0  0
  -27.8891  -30.4246   23.9563 H   0  0  0  0  0  0
  -27.2734  -33.3634   26.2046 H   0  0  0  0  0  0
  -28.3904  -32.6822   25.0308 H   0  0  0  0  0  0
  -28.0756  -31.8442   26.5417 H   0  0  0  0  0  0
  -28.2599  -38.0094   24.7546 H   0  0  0  0  0  0
  -28.1097  -36.2630   24.6266 H   0  0  0  0  0  0
  -27.2310  -37.1395   25.8875 H   0  0  0  0  0  0
  -20.9447  -29.8785   21.6806 H   0  0  0  0  0  0
  -26.0185  -38.2851   24.1390 H   0  0  0  0  0  0
  -27.4867  -19.9997   21.5765 H   0  0  0  0  0  0
  -26.5870  -17.5974   21.7908 H   0  0  0  0  0  0
  -27.6969  -17.8214   23.1395 H   0  0  0  0  0  0
  -27.7611  -16.3549   22.1780 H   0  0  0  0  0  0
  -30.9745  -21.6429   18.8081 H   0  0  0  0  0  0
  -30.7334  -20.4096   17.5660 H   0  0  0  0  0  0
  -32.0813  -20.2991   18.7114 H   0  0  0  0  0  0
  -27.4275  -21.8756   20.0767 H   0  0  0  0  0  0
  -28.4812  -21.9672   18.7403 H   0  0  0  0  0  0
  -29.9592  -23.6190   19.9552 H   0  0  0  0  0  0
  -29.0304  -23.4291   21.4113 H   0  0  0  0  0  0
  -27.0448  -24.5365   20.3451 H   0  0  0  0  0  0
  -27.8843  -24.6954   18.8341 H   0  0  0  0  0  0
  -28.7835  -15.5687   20.9432 H   0  0  0  0  0  0
  1 25  1  0  0  0
  1 30  2  0  0  0
  1 82  1  0  0  0
  2  3  1  0  0  0
  2 25  1  0  0  0
  2 84  1  0  0  0
  2 85  1  0  0  0
  3  4  1  0  0  0
  3 86  1  0  0  0
  3 87  1  0  0  0
  4  5  1  0  0  0
  4 88  1  0  0  0
  4 89  1  0  0  0
  5  6  1  0  0  0
  5 26  1  0  0  0
  5 90  1  0  0  0
  6 25  1  0  0  0
  6 91  1  0  0  0
  6 92  1  0  0  0
  7  8  2  0  0  0
  7 26  1  0  0  0
  7 29  1  0  0  0
  8  9  1  0  0  0
  8 22  1  0  0  0
  9 10  1  0  0  0
  9 27  2  0  0  0
 10 11  2  0  0  0
 10 15  1  0  0  0
 11 12  1  0  0  0
 11 93  1  0  0  0
 12 13  2  0  0  0
 12 94  1  0  0  0
 13 14  1  0  0  0
 13 31  1  0  0  0
 14 15  2  0  0  0
 14 95  1  0  0  0
 15 96  1  0  0  0
 16 17  2  0  0  0
 16 21  1  0  0  0
 16 31  1  0  0  0
 17 18  1  0  0  0
 17 97  1  0  0  0
 18 19  2  0  0  0
 18 98  1  0  0  0
 19 20  1  0  0  0
 19 24  1  0  0  0
 20 21  2  0  0  0
 20 99  1  0  0  0
 21 23  1  0  0  0
 22 28  1  0  0  0
 22 32  2  0  0  0
 26 27  1  0  0  0
 28100  1  0  0  0
 28101  1  0  0  0
 29102  1  0  0  0
 29103  1  0  0  0
 33 34  1  0  0  0
 33 66  1  0  0  0
 33 70  2  0  0  0
 34 36  1  0  0  0
 34 59  1  0  0  0
 34104  1  0  0  0
 35 44  2  0  0  0
 35 45  1  0  0  0
 35 68  1  0  0  0
 36 56  1  0  0  0
 36105  1  0  0  0
 37 39  1  0  0  0
 37 47  1  0  0  0
 37 66  1  0  0  0
 37106  1  0  0  0
 38 43  2  0  0  0
 38 46  1  0  0  0
 38 47  1  0  0  0
 39 64  1  0  0  0
 39 67  2  0  0  0
 40 52  1  0  0  0
 40 53  2  0  0  0
 40 58  1  0  0  0
 41107  1  0  0  0
 41108  1  0  0  0
 41109  1  0  0  0
 41 48  1  0  0  0
 42 43  1  0  0  0
 42 66  1  0  0  0
 42110  1  0  0  0
 42111  1  0  0  0
 43 44  1  0  0  0
 44112  1  0  0  0
 45 46  2  0  0  0
 45113  1  0  0  0
 46114  1  0  0  0
 47115  1  0  0  0
 47116  1  0  0  0
 48 56  1  0  0  0
 48 65  1  0  0  0
 48117  1  0  0  0
 49 50  1  0  0  0
 49 53  1  0  0  0
 49 64  1  0  0  0
 49118  1  0  0  0
 50 51  1  0  0  0
 50119  1  0  0  0
 50120  1  0  0  0
 51 52  1  0  0  0
 51121  1  0  0  0
 51122  1  0  0  0
 52123  1  0  0  0
 52124  1  0  0  0
 53 54  1  0  0  0
 54 55  2  0  0  0
 54125  1  0  0  0
 55 57  1  0  0  0
 55126  1  0  0  0
 56 69  2  0  0  0
 57 58  2  0  0  0
 57127  1  0  0  0
 58128  1  0  0  0
 59 60  1  0  0  0
 59 61  1  0  0  0
 59 62  1  0  0  0
 60129  1  0  0  0
 60130  1  0  0  0
 60131  1  0  0  0
 61132  1  0  0  0
 61133  1  0  0  0
 61134  1  0  0  0
 62135  1  0  0  0
 62136  1  0  0  0
 62137  1  0  0  0
 63 65  1  0  0  0
 63138  1  0  0  0
 63139  1  0  0  0
 63140  1  0  0  0
 64141  1  0  0  0
 65142  1  0  0  0
 68 81  1  0  0  0
 71 72  2  0  0  0
 71 73  1  0  0  0
 71143  1  0  0  0
 72 74  1  0  0  0
 72 79  1  0  0  0
 73 75  2  0  0  0
 73 77  1  0  0  0
 74 76  2  0  0  0
 74 78  1  0  0  0
 75 76  1  0  0  0
 75 82  1  0  0  0
 76 83  1  0  0  0
 77144  1  0  0  0
 77145  1  0  0  0
 77146  1  0  0  0
 78147  1  0  0  0
 78148  1  0  0  0
 78149  1  0  0  0
 79 80  1  0  0  0
 79150  1  0  0  0
 79151  1  0  0  0
 80 81  1  0  0  0
 80152  1  0  0  0
 80153  1  0  0  0
 81154  1  0  0  0
 81155  1  0  0  0
 82156  1  0  0  0
M  ISO  4   1 100  68 101  81 101  82 100
M  END
> <chiral flag>
0

> <version>
0

> <s_m_source_file>
/data/baiqing/PycharmProjects/Reinvent-master-3.2/result/LINK_invent/BTK/process_docking_weight1_custom_sum_contain_oxygen_bond_distance_aromatic_linkinvent_7_9_3/rearranged_h_0021.sdf

> <i_m_source_file_index>
14

> <r_mmod_Potential_Energy-OPLS-2005>
335.884948730469

> <r_mmod_Stretch_Energy-OPLS-2005>
186.798812866211

> <r_mmod_Bend_Energy-OPLS-2005>
243.640914916992

> <r_mmod_Torsional_Energy-OPLS-2005>
224.108779907227

> <r_mmod_Improper_Torsional_Energy-OPLS-2005>
6.96519184112549

> <r_mmod_Van_der_Waal_Energy-OPLS-2005>
139.843597412109

> <r_mmod_Electrostatic_Energy-OPLS-2005>
-393.2666015625

> <r_mmod_Solvation_Energy-OPLS-2005>
-208.439208984375

> <b_mmod_Minimization_Converged-OPLS-2005>
0

> <r_mmod_RMS_Derivative-OPLS-2005>
2.46141910552979

$$$$
14
                    3D
 Structure written by MMmdl.
177185  0  0  1  0            999 V2000
  -30.9001  -14.4794   20.4806 C   0  0  0  0  0  0
  -30.3864  -12.3251   19.4423 C   0  0  0  0  0  0
  -29.4797  -12.4814   18.2149 C   0  0  0  0  0  0
  -28.0139  -12.2981   18.6426 C   0  0  0  0  0  0
  -27.6312  -13.2207   19.8258 C   0  0  2  0  0  0
  -28.6924  -13.2071   20.9433 C   0  0  0  0  0  0
  -25.2414  -13.8165   20.5613 C   0  0  0  0  0  0
  -24.1831  -13.0437   20.9332 C   0  0  0  0  0  0
  -24.6445  -11.6921   20.8986 C   0  0  0  0  0  0
  -23.9223  -10.4289   21.0586 C   0  0  0  0  0  0
  -24.3773   -9.4168   21.9321 C   0  0  0  0  0  0
  -23.6467   -8.2176   22.0766 C   0  0  0  0  0  0
  -22.4442   -8.0278   21.3499 C   0  0  0  0  0  0
  -22.0101   -9.0282   20.4627 C   0  0  0  0  0  0
  -22.7428  -10.2163   20.3169 C   0  0  0  0  0  0
  -21.6899   -6.0820   22.5312 C   0  0  0  0  0  0
  -21.4053   -6.5678   23.8284 C   0  0  0  0  0  0
  -21.3622   -5.6806   24.9229 C   0  0  0  0  0  0
  -21.6056   -4.3060   24.7259 C   0  0  0  0  0  0
  -21.8864   -3.8206   23.4347 C   0  0  0  0  0  0
  -21.9188   -4.7040   22.3446 C   0  0  0  0  0  0
  -22.7816  -13.5083   21.2134 C   0  0  0  0  0  0
  -22.1682   -4.2221   21.1031 F   0  0  0  0  0  0
  -21.5568   -3.4556   25.7762 F   0  0  0  0  0  0
  -30.0380  -13.4176   20.3662 N   0  0  0  0  0  0
  -26.2897  -12.9387   20.3190 N   0  0  0  0  0  0
  -25.9332  -11.6540   20.5844 N   0  0  0  0  0  0
  -22.0481  -12.7977   22.0551 N   0  0  0  0  0  0
  -25.4153  -15.1975   20.4100 N   0  0  0  0  0  0
  -32.0626  -14.3977   20.0981 O   0  0  0  0  0  0
  -21.6706   -6.8943   21.4244 O   0  0  0  0  0  0
  -22.3362  -14.5407   20.7083 O   0  0  0  0  0  0
  -24.6115  -31.8640   23.2083 C   0  0  0  0  0  0
  -25.9003  -32.4769   23.8358 C   0  0  1  0  0  0
  -27.2183  -27.4147   20.1294 C   0  0  0  0  0  0
  -25.5872  -33.8604   24.2283 N   0  0  0  0  0  0
  -23.3998  -30.4977   21.5379 C   0  0  2  0  0  0
  -24.8554  -28.9759   20.0903 C   0  0  0  0  0  0
  -22.7393  -29.4707   22.4867 C   0  0  0  0  0  0
  -18.0314  -28.1366   22.8469 C   0  0  0  0  0  0
  -24.1533  -36.7388   23.2646 C   0  0  0  0  0  0
  -25.9402  -30.8296   21.3763 C   0  0  0  0  0  0
  -26.0146  -29.4730   20.7046 C   0  0  0  0  0  0
  -27.1984  -28.7029   20.7185 C   0  0  0  0  0  0
  -26.0597  -26.9711   19.4455 C   0  0  0  0  0  0
  -24.8831  -27.7348   19.4367 C   0  0  0  0  0  0
  -23.6056  -29.8278   20.1476 C   0  0  0  0  0  0
  -25.4157  -36.3156   24.0290 C   0  0  1  0  0  0
  -20.5887  -28.3701   23.1287 C   0  0  2  0  0  0
  -20.6832  -26.9407   22.5417 C   0  0  0  0  0  0
  -19.5814  -26.6371   21.5229 C   0  0  0  0  0  0
  -18.1995  -26.7902   22.1609 C   0  0  0  0  0  0
  -19.1539  -28.8841   23.2883 C   0  0  0  0  0  0
  -18.9456  -30.1450   23.8875 C   0  0  0  0  0  0
  -17.6453  -30.6563   24.0571 C   0  0  0  0  0  0
  -25.9018  -34.9477   23.5094 C   0  0  0  0  0  0
  -16.5346  -29.9034   23.6375 C   0  0  0  0  0  0
  -16.7283  -28.6468   23.0336 C   0  0  0  0  0  0
  -26.4417  -31.6563   25.0721 C   0  0  0  0  0  0
  -25.3653  -31.3700   26.1427 C   0  0  0  0  0  0
  -27.0338  -30.2970   24.6359 C   0  0  0  0  0  0
  -27.5992  -32.4322   25.7447 C   0  0  0  0  0  0
  -27.5598  -37.1895   24.8427 C   0  0  0  0  0  0
  -21.4137  -29.3032   22.3629 N   0  0  0  0  0  0
  -26.4365  -37.3790   23.9298 N   0  0  0  0  0  0
  -24.6656  -31.0785   22.0945 N   0  0  0  0  0  0
  -23.4152  -28.8304   23.2942 O   0  0  0  0  0  0
  -28.3362  -26.6042   20.2398 O   0  0  0  0  0  0
  -26.5623  -34.8898   22.4683 O   0  0  0  0  0  0
  -23.5302  -32.1387   23.7466 O   0  0  0  0  0  0
  -30.3956  -18.2789   23.6671 C   0  0  0  0  0  0
  -28.4763  -16.5782   23.2047 C   0  0  0  0  0  0
  -31.1953  -17.5877   22.5141 C   0  0  0  0  0  0
  -29.7138  -15.6525   23.2094 C   0  0  0  0  0  0
  -28.8663  -17.9909   23.7380 C   0  0  2  0  0  0
  -30.7763  -16.1253   22.1867 C   0  0  1  0  0  0
  -29.4319  -17.6425   19.2718 C   0  0  0  0  0  0
  -32.0091  -17.3615   19.1891 C   0  0  0  0  0  0
  -27.9713  -19.1954   23.3093 C   0  0  0  0  0  0
  -28.2637  -19.7063   21.8821 C   0  0  0  0  0  0
  -27.2837  -20.6791   21.1665 C   0  0  0  0  0  0
  -27.4241  -22.2061   21.4161 C   0  0  0  0  0  0
  -28.8104  -22.8029   21.0495 C   0  0  0  0  0  0
  -28.9802  -24.3433   21.1931 C   0  0  0  0  0  0
  -28.0934  -25.1728   20.2292 C   0  0  0  0  0  0
  -30.6215  -16.6958   19.5542 C   0  0  0  0  0  0
  -30.4670  -15.7390   20.7507 N   0  0  0  0  0  0
  -31.4324  -12.3173   19.1407 H   0  0  0  0  0  0
  -30.2221  -11.3717   19.9556 H   0  0  0  0  0  0
  -29.7625  -11.7293   17.4823 H   0  0  0  0  0  0
  -29.6278  -13.4541   17.7289 H   0  0  0  0  0  0
  -27.9078  -11.2532   18.9409 H   0  0  0  0  0  0
  -27.3330  -12.4431   17.7990 H   0  0  0  0  0  0
  -27.6059  -14.2358   19.4348 H   0  0  0  0  0  0
  -28.6566  -12.2898   21.5344 H   0  0  0  0  0  0
  -28.3898  -14.0254   21.5762 H   0  0  0  0  0  0
  -25.2837   -9.5629   22.5041 H   0  0  0  0  0  0
  -24.0164   -7.4497   22.7411 H   0  0  0  0  0  0
  -21.1053   -8.8858   19.8928 H   0  0  0  0  0  0
  -22.3867  -10.9811   19.6427 H   0  0  0  0  0  0
  -21.2075   -7.6208   23.9813 H   0  0  0  0  0  0
  -21.1422   -6.0539   25.9143 H   0  0  0  0  0  0
  -22.0702   -2.7668   23.2879 H   0  0  0  0  0  0
  -22.3924  -11.9440   22.4793 H   0  0  0  0  0  0
  -21.1177  -13.1087   22.2928 H   0  0  0  0  0  0
  -24.6560  -15.8516   20.5365 H   0  0  0  0  0  0
  -26.2423  -15.6446   20.0439 H   0  0  0  0  0  0
  -26.7099  -32.5466   23.1135 H   0  0  0  0  0  0
  -24.9988  -33.9758   25.0400 H   0  0  0  0  0  0
  -22.6897  -31.3177   21.4001 H   0  0  0  0  0  0
  -23.3739  -35.9770   23.3325 H   0  0  0  0  0  0
  -24.3634  -36.9003   22.2063 H   0  0  0  0  0  0
  -23.7310  -37.6607   23.6664 H   0  0  0  0  0  0
  -26.1162  -31.6294   20.6512 H   0  0  0  0  0  0
  -26.7980  -30.8324   22.0387 H   0  0  0  0  0  0
  -28.0809  -29.0761   21.2171 H   0  0  0  0  0  0
  -26.0583  -26.0304   18.9104 H   0  0  0  0  0  0
  -24.0084  -27.3698   18.9176 H   0  0  0  0  0  0
  -23.6666  -30.5998   19.3737 H   0  0  0  0  0  0
  -22.7429  -29.2104   19.8911 H   0  0  0  0  0  0
  -25.1387  -36.2068   25.0786 H   0  0  0  0  0  0
  -21.0032  -28.3317   24.1390 H   0  0  0  0  0  0
  -20.5897  -26.2281   23.3614 H   0  0  0  0  0  0
  -21.6717  -26.7565   22.1151 H   0  0  0  0  0  0
  -19.7027  -25.6314   21.1246 H   0  0  0  0  0  0
  -19.6767  -27.3225   20.6817 H   0  0  0  0  0  0
  -17.4296  -26.6646   21.3983 H   0  0  0  0  0  0
  -18.0357  -26.0048   22.9022 H   0  0  0  0  0  0
  -19.7924  -30.7302   24.2173 H   0  0  0  0  0  0
  -17.4990  -31.6249   24.5174 H   0  0  0  0  0  0
  -15.5327  -30.2902   23.7733 H   0  0  0  0  0  0
  -15.8689  -28.0807   22.6987 H   0  0  0  0  0  0
  -24.5750  -30.7162   25.7682 H   0  0  0  0  0  0
  -24.8934  -32.2900   26.4930 H   0  0  0  0  0  0
  -25.7921  -30.8727   27.0144 H   0  0  0  0  0  0
  -26.3018  -29.6602   24.1414 H   0  0  0  0  0  0
  -27.3961  -29.7359   25.4988 H   0  0  0  0  0  0
  -27.8883  -30.4181   23.9707 H   0  0  0  0  0  0
  -27.2575  -33.3562   26.2122 H   0  0  0  0  0  0
  -28.3705  -32.6981   25.0206 H   0  0  0  0  0  0
  -28.0785  -31.8410   26.5255 H   0  0  0  0  0  0
  -28.2678  -38.0156   24.7436 H   0  0  0  0  0  0
  -28.1071  -36.2682   24.6374 H   0  0  0  0  0  0
  -27.2295  -37.1659   25.8832 H   0  0  0  0  0  0
  -20.9250  -29.8553   21.6712 H   0  0  0  0  0  0
  -26.0290  -38.2911   24.1120 H   0  0  0  0  0  0
  -30.5944  -19.3472   23.6582 H   0  0  0  0  0  0
  -30.8287  -17.9433   24.6190 H   0  0  0  0  0  0
  -27.6932  -16.1723   23.8505 H   0  0  0  0  0  0
  -28.0363  -16.5893   22.2056 H   0  0  0  0  0  0
  -32.2304  -17.5508   22.8669 H   0  0  0  0  0  0
  -31.2225  -18.2237   21.6288 H   0  0  0  0  0  0
  -29.4916  -14.5965   23.1035 H   0  0  0  0  0  0
  -30.1367  -15.6663   24.2137 H   0  0  0  0  0  0
  -28.6958  -17.8875   24.8110 H   0  0  0  0  0  0
  -31.6683  -15.5542   22.4809 H   0  0  0  0  0  0
  -29.3636  -17.8755   18.2031 H   0  0  0  0  0  0
  -29.5499  -18.6098   19.7476 H   0  0  0  0  0  0
  -28.4721  -17.2099   19.5685 H   0  0  0  0  0  0
  -32.1099  -17.4639   18.1012 H   0  0  0  0  0  0
  -32.8984  -16.8096   19.4956 H   0  0  0  0  0  0
  -32.1139  -18.3963   19.5202 H   0  0  0  0  0  0
  -28.1449  -20.0200   24.0091 H   0  0  0  0  0  0
  -26.9106  -18.9334   23.4069 H   0  0  0  0  0  0
  -28.2765  -18.8141   21.2713 H   0  0  0  0  0  0
  -29.2721  -20.0998   21.8372 H   0  0  0  0  0  0
  -26.2482  -20.3434   21.2977 H   0  0  0  0  0  0
  -27.4671  -20.5458   20.0988 H   0  0  0  0  0  0
  -27.1352  -22.4734   22.4315 H   0  0  0  0  0  0
  -26.6905  -22.7021   20.7711 H   0  0  0  0  0  0
  -29.0417  -22.5480   20.0179 H   0  0  0  0  0  0
  -29.5637  -22.3225   21.6824 H   0  0  0  0  0  0
  -30.0314  -24.6034   21.0351 H   0  0  0  0  0  0
  -28.7519  -24.5963   22.2281 H   0  0  0  0  0  0
  -28.2112  -24.8139   19.2078 H   0  0  0  0  0  0
  -27.0637  -24.9480   20.5276 H   0  0  0  0  0  0
  -30.5071  -16.0330   18.6925 H   0  0  0  0  0  0
  1 25  1  0  0  0
  1 30  2  0  0  0
  1 87  1  0  0  0
  2  3  1  0  0  0
  2 25  1  0  0  0
  2 88  1  0  0  0
  2 89  1  0  0  0
  3  4  1  0  0  0
  3 90  1  0  0  0
  3 91  1  0  0  0
  4  5  1  0  0  0
  4 92  1  0  0  0
  4 93  1  0  0  0
  5  6  1  0  0  0
  5 26  1  0  0  0
  5 94  1  0  0  0
  6 25  1  0  0  0
  6 95  1  0  0  0
  6 96  1  0  0  0
  7  8  2  0  0  0
  7 26  1  0  0  0
  7 29  1  0  0  0
  8  9  1  0  0  0
  8 22  1  0  0  0
  9 10  1  0  0  0
  9 27  2  0  0  0
 10 11  2  0  0  0
 10 15  1  0  0  0
 11 12  1  0  0  0
 11 97  1  0  0  0
 12 13  2  0  0  0
 12 98  1  0  0  0
 13 14  1  0  0  0
 13 31  1  0  0  0
 14 15  2  0  0  0
 14 99  1  0  0  0
 15100  1  0  0  0
 16 17  2  0  0  0
 16 21  1  0  0  0
 16 31  1  0  0  0
 17 18  1  0  0  0
 17101  1  0  0  0
 18 19  2  0  0  0
 18102  1  0  0  0
 19 20  1  0  0  0
 19 24  1  0  0  0
 20 21  2  0  0  0
 20103  1  0  0  0
 21 23  1  0  0  0
 22 28  1  0  0  0
 22 32  2  0  0  0
 26 27  1  0  0  0
 28104  1  0  0  0
 28105  1  0  0  0
 29106  1  0  0  0
 29107  1  0  0  0
 33 34  1  0  0  0
 33 66  1  0  0  0
 33 70  2  0  0  0
 34 36  1  0  0  0
 34 59  1  0  0  0
 34108  1  0  0  0
 35 44  2  0  0  0
 35 45  1  0  0  0
 35 68  1  0  0  0
 36 56  1  0  0  0
 36109  1  0  0  0
 37 39  1  0  0  0
 37 47  1  0  0  0
 37 66  1  0  0  0
 37110  1  0  0  0
 38 43  2  0  0  0
 38 46  1  0  0  0
 38 47  1  0  0  0
 39 64  1  0  0  0
 39 67  2  0  0  0
 40 52  1  0  0  0
 40 53  2  0  0  0
 40 58  1  0  0  0
 41111  1  0  0  0
 41112  1  0  0  0
 41113  1  0  0  0
 41 48  1  0  0  0
 42 43  1  0  0  0
 42 66  1  0  0  0
 42114  1  0  0  0
 42115  1  0  0  0
 43 44  1  0  0  0
 44116  1  0  0  0
 45 46  2  0  0  0
 45117  1  0  0  0
 46118  1  0  0  0
 47119  1  0  0  0
 47120  1  0  0  0
 48 56  1  0  0  0
 48 65  1  0  0  0
 48121  1  0  0  0
 49 50  1  0  0  0
 49 53  1  0  0  0
 49 64  1  0  0  0
 49122  1  0  0  0
 50 51  1  0  0  0
 50123  1  0  0  0
 50124  1  0  0  0
 51 52  1  0  0  0
 51125  1  0  0  0
 51126  1  0  0  0
 52127  1  0  0  0
 52128  1  0  0  0
 53 54  1  0  0  0
 54 55  2  0  0  0
 54129  1  0  0  0
 55 57  1  0  0  0
 55130  1  0  0  0
 56 69  2  0  0  0
 57 58  2  0  0  0
 57131  1  0  0  0
 58132  1  0  0  0
 59 60  1  0  0  0
 59 61  1  0  0  0
 59 62  1  0  0  0
 60133  1  0  0  0
 60134  1  0  0  0
 60135  1  0  0  0
 61136  1  0  0  0
 61137  1  0  0  0
 61138  1  0  0  0
 62139  1  0  0  0
 62140  1  0  0  0
 62141  1  0  0  0
 63 65  1  0  0  0
 63142  1  0  0  0
 63143  1  0  0  0
 63144  1  0  0  0
 64145  1  0  0  0
 65146  1  0  0  0
 68 85  1  0  0  0
 71 73  1  0  0  0
 71 75  1  0  0  0
 71147  1  0  0  0
 71148  1  0  0  0
 72 74  1  0  0  0
 72 75  1  0  0  0
 72149  1  0  0  0
 72150  1  0  0  0
 73 76  1  0  0  0
 73151  1  0  0  0
 73152  1  0  0  0
 74 76  1  0  0  0
 74153  1  0  0  0
 74154  1  0  0  0
 75 79  1  0  0  0
 75155  1  0  0  0
 76 87  1  0  0  0
 76156  1  0  0  0
 77157  1  0  0  0
 77158  1  0  0  0
 77159  1  0  0  0
 77 86  1  0  0  0
 78 86  1  0  0  0
 78160  1  0  0  0
 78161  1  0  0  0
 78162  1  0  0  0
 79 80  1  0  0  0
 79163  1  0  0  0
 79164  1  0  0  0
 80 81  1  0  0  0
 80165  1  0  0  0
 80166  1  0  0  0
 81 82  1  0  0  0
 81167  1  0  0  0
 81168  1  0  0  0
 82 83  1  0  0  0
 82169  1  0  0  0
 82170  1  0  0  0
 83 84  1  0  0  0
 83171  1  0  0  0
 83172  1  0  0  0
 84 85  1  0  0  0
 84173  1  0  0  0
 84174  1  0  0  0
 85175  1  0  0  0
 85176  1  0  0  0
 86 87  1  0  0  0
 86177  1  0  0  0
M  ISO  4   1 100  68 101  85 101  87 100
M  END
> <chiral flag>
0

> <version>
0

> <s_m_source_file>
/data/baiqing/PycharmProjects/Reinvent-master-3.2/result/LINK_invent/BTK/process_docking_weight1_custom_sum_contain_oxygen_bond_distance_aromatic_linkinvent_7_9_3/rearranged_h_0021.sdf

> <i_m_source_file_index>
15

> <r_mmod_Potential_Energy-OPLS-2005>
493.738861083984

> <r_mmod_Stretch_Energy-OPLS-2005>
69.7090911865234

> <r_mmod_Bend_Energy-OPLS-2005>
218.672714233398

> <r_mmod_Torsional_Energy-OPLS-2005>
391.917175292969

> <r_mmod_Improper_Torsional_Energy-OPLS-2005>
8.98371887207031

> <r_mmod_Van_der_Waal_Energy-OPLS-2005>
155.860076904297

> <r_mmod_Electrostatic_Energy-OPLS-2005>
-239.691558837891

> <r_mmod_Solvation_Energy-OPLS-2005>
-166.406753540039

> <b_mmod_Minimization_Converged-OPLS-2005>
0

> <r_mmod_RMS_Derivative-OPLS-2005>
15.3473672866821

$$$$
15
                    3D
 Structure written by MMmdl.
156164  0  0  1  0            999 V2000
  -30.4316  -15.3309   20.3155 C   0  0  0  0  0  0
  -30.4274  -12.8413   19.5330 C   0  0  0  0  0  0
  -29.5370  -12.6079   18.2862 C   0  0  0  0  0  0
  -28.0883  -12.3168   18.7144 C   0  0  0  0  0  0
  -27.6094  -13.2891   19.8221 C   0  0  2  0  0  0
  -28.6412  -13.5175   20.9495 C   0  0  0  0  0  0
  -25.2399  -13.8289   20.5766 C   0  0  0  0  0  0
  -24.1756  -13.0462   20.9242 C   0  0  0  0  0  0
  -24.6434  -11.6964   20.8767 C   0  0  0  0  0  0
  -23.9123  -10.4309   21.0428 C   0  0  0  0  0  0
  -24.3670   -9.4214   21.9201 C   0  0  0  0  0  0
  -23.6323   -8.2255   22.0777 C   0  0  0  0  0  0
  -22.4298   -8.0308   21.3570 C   0  0  0  0  0  0
  -21.9943   -9.0283   20.4669 C   0  0  0  0  0  0
  -22.7287  -10.2158   20.3076 C   0  0  0  0  0  0
  -21.6880   -6.0751   22.5267 C   0  0  0  0  0  0
  -21.4046   -6.5649   23.8199 C   0  0  0  0  0  0
  -21.3656   -5.6804   24.9145 C   0  0  0  0  0  0
  -21.6035   -4.3059   24.7204 C   0  0  0  0  0  0
  -21.8819   -3.8155   23.4318 C   0  0  0  0  0  0
  -21.9201   -4.6975   22.3383 C   0  0  0  0  0  0
  -22.7765  -13.5208   21.1846 C   0  0  0  0  0  0
  -22.1657   -4.2165   21.0958 F   0  0  0  0  0  0
  -21.5611   -3.4539   25.7708 F   0  0  0  0  0  0
  -29.8686  -14.0168   20.3080 N   0  0  0  0  0  0
  -26.2844  -12.9581   20.3263 N   0  0  0  0  0  0
  -25.9386  -11.6680   20.5766 N   0  0  0  0  0  0
  -22.0449  -12.8204   22.0422 N   0  0  0  0  0  0
  -25.3998  -15.2018   20.4185 N   0  0  0  0  0  0
  -31.6570  -15.2781   20.1360 O   0  0  0  0  0  0
  -21.6667   -6.8900   21.4235 O   0  0  0  0  0  0
  -22.3427  -14.5495   20.6648 O   0  0  0  0  0  0
  -24.6670  -31.8209   23.1656 C   0  0  0  0  0  0
  -25.9349  -32.4572   23.8126 C   0  0  1  0  0  0
  -27.2007  -26.8788   20.2106 C   0  0  0  0  0  0
  -25.6022  -33.8388   24.2065 N   0  0  0  0  0  0
  -23.4792  -30.4298   21.5208 C   0  0  2  0  0  0
  -24.9272  -28.7937   20.1305 C   0  0  0  0  0  0
  -22.7661  -29.4428   22.4815 C   0  0  0  0  0  0
  -18.0327  -28.1429   22.8462 C   0  0  0  0  0  0
  -24.1504  -36.7190   23.2638 C   0  0  0  0  0  0
  -26.0517  -30.6111   21.3978 C   0  0  0  0  0  0
  -26.1154  -29.1909   20.7581 C   0  0  0  0  0  0
  -27.2515  -28.2560   20.7629 C   0  0  0  0  0  0
  -25.9804  -26.6309   19.5505 C   0  0  0  0  0  0
  -24.8840  -27.5340   19.5106 C   0  0  0  0  0  0
  -23.7210  -29.7376   20.1528 C   0  0  0  0  0  0
  -25.4138  -36.2945   24.0289 C   0  0  1  0  0  0
  -20.5946  -28.3751   23.1218 C   0  0  2  0  0  0
  -20.6821  -26.9439   22.5414 C   0  0  0  0  0  0
  -19.5796  -26.6385   21.5231 C   0  0  0  0  0  0
  -18.1968  -26.7965   22.1619 C   0  0  0  0  0  0
  -19.1584  -28.8905   23.2823 C   0  0  0  0  0  0
  -18.9487  -30.1504   23.8858 C   0  0  0  0  0  0
  -17.6481  -30.6602   24.0550 C   0  0  0  0  0  0
  -25.9102  -34.9337   23.4997 C   0  0  0  0  0  0
  -16.5370  -29.9093   23.6351 C   0  0  0  0  0  0
  -16.7304  -28.6512   23.0356 C   0  0  0  0  0  0
  -26.4593  -31.6526   25.0652 C   0  0  0  0  0  0
  -25.3716  -31.3804   26.1317 C   0  0  0  0  0  0
  -27.0458  -30.2884   24.6371 C   0  0  0  0  0  0
  -27.6061  -32.4330   25.7486 C   0  0  0  0  0  0
  -27.5570  -37.1751   24.8459 C   0  0  0  0  0  0
  -21.4315  -29.3041   22.3559 N   0  0  0  0  0  0
  -26.4277  -37.3678   23.9406 N   0  0  0  0  0  0
  -24.7566  -30.9803   22.0840 N   0  0  0  0  0  0
  -23.4208  -28.8012   23.3056 O   0  0  0  0  0  0
  -28.2454  -25.8103   20.1361 O   0  0  0  0  0  0
  -26.5681  -34.8875   22.4568 O   0  0  0  0  0  0
  -23.5737  -32.1217   23.6713 O   0  0  0  0  0  0
  -31.1782  -20.0999   19.0586 C   0  0  0  0  0  0
  -30.3585  -21.1882   19.4418 C   0  0  0  0  0  0
  -30.9336  -18.7179   19.2983 C   0  0  0  0  0  0
  -29.1244  -21.0085   20.1052 C   0  0  0  0  0  0
  -29.8291  -18.2483   20.0835 C   0  0  0  0  0  0
  -28.9316  -19.4815   20.4272 C   0  0  0  0  0  0
  -30.8329  -22.5855   19.0584 C   0  0  0  0  0  0
  -31.9223  -17.7872   18.6100 C   0  0  0  0  0  0
  -26.7665  -22.1209   20.7589 C   0  0  0  0  0  0
  -28.3727  -24.2272   20.6518 C   0  0  0  0  0  0
  -28.1275  -22.4829   20.1574 C   0  0  1  0  0  0
  -29.6679  -16.6278   20.3686 N   0  0  0  0  0  0
  -27.4985  -19.0473   21.2930 Cl  0  0  0  0  0  0
  -31.4586  -13.0073   19.2167 H   0  0  0  0  0  0
  -30.4587  -11.9470   20.1579 H   0  0  0  0  0  0
  -29.9262  -11.7856   17.6826 H   0  0  0  0  0  0
  -29.5574  -13.4975   17.6532 H   0  0  0  0  0  0
  -28.0477  -11.2886   19.0769 H   0  0  0  0  0  0
  -27.4186  -12.3624   17.8556 H   0  0  0  0  0  0
  -27.5078  -14.2443   19.3082 H   0  0  0  0  0  0
  -28.8183  -12.6190   21.5421 H   0  0  0  0  0  0
  -28.2748  -14.2801   21.6385 H   0  0  0  0  0  0
  -25.2838   -9.5661   22.4748 H   0  0  0  0  0  0
  -24.0022   -7.4650   22.7513 H   0  0  0  0  0  0
  -21.0864   -8.8807   19.8988 H   0  0  0  0  0  0
  -22.3764  -10.9685   19.6158 H   0  0  0  0  0  0
  -21.2077   -7.6169   23.9700 H   0  0  0  0  0  0
  -21.1473   -6.0536   25.9053 H   0  0  0  0  0  0
  -22.0611   -2.7621   23.2811 H   0  0  0  0  0  0
  -22.4135  -11.9867   22.4751 H   0  0  0  0  0  0
  -21.1071  -13.1177   22.2711 H   0  0  0  0  0  0
  -24.6231  -15.8436   20.5333 H   0  0  0  0  0  0
  -26.2313  -15.6493   20.0561 H   0  0  0  0  0  0
  -26.7390  -32.5119   23.0800 H   0  0  0  0  0  0
  -25.0180  -33.9475   25.0238 H   0  0  0  0  0  0
  -22.7926  -31.2618   21.3472 H   0  0  0  0  0  0
  -23.3772  -35.9513   23.3253 H   0  0  0  0  0  0
  -24.3581  -36.8878   22.2055 H   0  0  0  0  0  0
  -23.7259  -37.6365   23.6721 H   0  0  0  0  0  0
  -26.2221  -31.3381   20.6035 H   0  0  0  0  0  0
  -26.9171  -30.6834   22.0451 H   0  0  0  0  0  0
  -28.1638  -28.5591   21.2547 H   0  0  0  0  0  0
  -25.8521  -25.6709   19.0667 H   0  0  0  0  0  0
  -23.9753  -27.2205   19.0182 H   0  0  0  0  0  0
  -23.8926  -30.5053   19.3985 H   0  0  0  0  0  0
  -22.8258  -29.2034   19.8258 H   0  0  0  0  0  0
  -25.1333  -36.1711   25.0774 H   0  0  0  0  0  0
  -21.0023  -28.3374   24.1351 H   0  0  0  0  0  0
  -20.5786  -26.2335   23.3631 H   0  0  0  0  0  0
  -21.6673  -26.7481   22.1173 H   0  0  0  0  0  0
  -19.6966  -25.6288   21.1287 H   0  0  0  0  0  0
  -19.6774  -27.3168   20.6752 H   0  0  0  0  0  0
  -17.4252  -26.6707   21.4016 H   0  0  0  0  0  0
  -18.0349  -26.0134   22.9040 H   0  0  0  0  0  0
  -19.7960  -30.7330   24.2217 H   0  0  0  0  0  0
  -17.5028  -31.6290   24.5142 H   0  0  0  0  0  0
  -15.5372  -30.2967   23.7711 H   0  0  0  0  0  0
  -15.8705  -28.0817   22.7104 H   0  0  0  0  0  0
  -24.5912  -30.7122   25.7666 H   0  0  0  0  0  0
  -24.8894  -32.3011   26.4592 H   0  0  0  0  0  0
  -25.7959  -30.9092   27.0185 H   0  0  0  0  0  0
  -26.3103  -29.6573   24.1363 H   0  0  0  0  0  0
  -27.3981  -29.7231   25.5005 H   0  0  0  0  0  0
  -27.9049  -30.4059   23.9759 H   0  0  0  0  0  0
  -27.2618  -33.3675   26.1923 H   0  0  0  0  0  0
  -28.3969  -32.6825   25.0402 H   0  0  0  0  0  0
  -28.0609  -31.8539   26.5531 H   0  0  0  0  0  0
  -28.2543  -38.0087   24.7492 H   0  0  0  0  0  0
  -28.1106  -36.2601   24.6285 H   0  0  0  0  0  0
  -27.2274  -37.1371   25.8859 H   0  0  0  0  0  0
  -20.9579  -29.8653   21.6619 H   0  0  0  0  0  0
  -26.0110  -38.2726   24.1438 H   0  0  0  0  0  0
  -32.0606  -20.3503   18.4869 H   0  0  0  0  0  0
  -31.7325  -22.5590   18.4454 H   0  0  0  0  0  0
  -31.0792  -23.1510   19.9559 H   0  0  0  0  0  0
  -30.0824  -23.1347   18.4892 H   0  0  0  0  0  0
  -32.4551  -18.2817   17.7925 H   0  0  0  0  0  0
  -31.4301  -16.9284   18.1563 H   0  0  0  0  0  0
  -32.6799  -17.4519   19.3165 H   0  0  0  0  0  0
  -26.3001  -21.2797   20.2439 H   0  0  0  0  0  0
  -26.0790  -22.9645   20.6971 H   0  0  0  0  0  0
  -26.8692  -21.8638   21.8121 H   0  0  0  0  0  0
  -29.4229  -24.2297   20.9385 H   0  0  0  0  0  0
  -27.8904  -24.2835   21.6267 H   0  0  0  0  0  0
  -27.9158  -22.5913   19.0924 H   0  0  0  0  0  0
  -28.7168  -16.4134   20.6303 H   0  0  0  0  0  0
  1 25  1  0  0  0
  1 30  2  0  0  0
  1 82  1  0  0  0
  2  3  1  0  0  0
  2 25  1  0  0  0
  2 84  1  0  0  0
  2 85  1  0  0  0
  3  4  1  0  0  0
  3 86  1  0  0  0
  3 87  1  0  0  0
  4  5  1  0  0  0
  4 88  1  0  0  0
  4 89  1  0  0  0
  5  6  1  0  0  0
  5 26  1  0  0  0
  5 90  1  0  0  0
  6 25  1  0  0  0
  6 91  1  0  0  0
  6 92  1  0  0  0
  7  8  2  0  0  0
  7 26  1  0  0  0
  7 29  1  0  0  0
  8  9  1  0  0  0
  8 22  1  0  0  0
  9 10  1  0  0  0
  9 27  2  0  0  0
 10 11  2  0  0  0
 10 15  1  0  0  0
 11 12  1  0  0  0
 11 93  1  0  0  0
 12 13  2  0  0  0
 12 94  1  0  0  0
 13 14  1  0  0  0
 13 31  1  0  0  0
 14 15  2  0  0  0
 14 95  1  0  0  0
 15 96  1  0  0  0
 16 17  2  0  0  0
 16 21  1  0  0  0
 16 31  1  0  0  0
 17 18  1  0  0  0
 17 97  1  0  0  0
 18 19  2  0  0  0
 18 98  1  0  0  0
 19 20  1  0  0  0
 19 24  1  0  0  0
 20 21  2  0  0  0
 20 99  1  0  0  0
 21 23  1  0  0  0
 22 28  1  0  0  0
 22 32  2  0  0  0
 26 27  1  0  0  0
 28100  1  0  0  0
 28101  1  0  0  0
 29102  1  0  0  0
 29103  1  0  0  0
 33 34  1  0  0  0
 33 66  1  0  0  0
 33 70  2  0  0  0
 34 36  1  0  0  0
 34 59  1  0  0  0
 34104  1  0  0  0
 35 44  2  0  0  0
 35 45  1  0  0  0
 35 68  1  0  0  0
 36 56  1  0  0  0
 36105  1  0  0  0
 37 39  1  0  0  0
 37 47  1  0  0  0
 37 66  1  0  0  0
 37106  1  0  0  0
 38 43  2  0  0  0
 38 46  1  0  0  0
 38 47  1  0  0  0
 39 64  1  0  0  0
 39 67  2  0  0  0
 40 52  1  0  0  0
 40 53  2  0  0  0
 40 58  1  0  0  0
 41107  1  0  0  0
 41108  1  0  0  0
 41109  1  0  0  0
 41 48  1  0  0  0
 42 43  1  0  0  0
 42 66  1  0  0  0
 42110  1  0  0  0
 42111  1  0  0  0
 43 44  1  0  0  0
 44112  1  0  0  0
 45 46  2  0  0  0
 45113  1  0  0  0
 46114  1  0  0  0
 47115  1  0  0  0
 47116  1  0  0  0
 48 56  1  0  0  0
 48 65  1  0  0  0
 48117  1  0  0  0
 49 50  1  0  0  0
 49 53  1  0  0  0
 49 64  1  0  0  0
 49118  1  0  0  0
 50 51  1  0  0  0
 50119  1  0  0  0
 50120  1  0  0  0
 51 52  1  0  0  0
 51121  1  0  0  0
 51122  1  0  0  0
 52123  1  0  0  0
 52124  1  0  0  0
 53 54  1  0  0  0
 54 55  2  0  0  0
 54125  1  0  0  0
 55 57  1  0  0  0
 55126  1  0  0  0
 56 69  2  0  0  0
 57 58  2  0  0  0
 57127  1  0  0  0
 58128  1  0  0  0
 59 60  1  0  0  0
 59 61  1  0  0  0
 59 62  1  0  0  0
 60129  1  0  0  0
 60130  1  0  0  0
 60131  1  0  0  0
 61132  1  0  0  0
 61133  1  0  0  0
 61134  1  0  0  0
 62135  1  0  0  0
 62136  1  0  0  0
 62137  1  0  0  0
 63 65  1  0  0  0
 63138  1  0  0  0
 63139  1  0  0  0
 63140  1  0  0  0
 64141  1  0  0  0
 65142  1  0  0  0
 68 80  1  0  0  0
 71 72  2  0  0  0
 71 73  1  0  0  0
 71143  1  0  0  0
 72 74  1  0  0  0
 72 77  1  0  0  0
 73 75  2  0  0  0
 73 78  1  0  0  0
 74 76  2  0  0  0
 74 81  1  0  0  0
 75 76  1  0  0  0
 75 82  1  0  0  0
 76 83  1  0  0  0
 77144  1  0  0  0
 77145  1  0  0  0
 77146  1  0  0  0
 78147  1  0  0  0
 78148  1  0  0  0
 78149  1  0  0  0
 79150  1  0  0  0
 79151  1  0  0  0
 79152  1  0  0  0
 79 81  1  0  0  0
 80 81  1  0  0  0
 80153  1  0  0  0
 80154  1  0  0  0
 81155  1  0  0  0
 82156  1  0  0  0
M  ISO  4   1 100  68 101  80 101  82 100
M  END
> <chiral flag>
0

> <version>
0

> <s_m_source_file>
/data/baiqing/PycharmProjects/Reinvent-master-3.2/result/LINK_invent/BTK/process_docking_weight1_custom_sum_contain_oxygen_bond_distance_aromatic_linkinvent_7_9_3/rearranged_h_0021.sdf

> <i_m_source_file_index>
16

> <r_mmod_Potential_Energy-OPLS-2005>
1518.12744140625

> <r_mmod_Stretch_Energy-OPLS-2005>
676.85400390625

> <r_mmod_Bend_Energy-OPLS-2005>
517.241088867188

> <r_mmod_Torsional_Energy-OPLS-2005>
255.854217529297

> <r_mmod_Improper_Torsional_Energy-OPLS-2005>
4.94503927230835

> <r_mmod_Van_der_Waal_Energy-OPLS-2005>
135.069381713867

> <r_mmod_Electrostatic_Energy-OPLS-2005>
-390.677886962891

> <r_mmod_Solvation_Energy-OPLS-2005>
-195.055160522461

> <b_mmod_Minimization_Converged-OPLS-2005>
0

> <r_mmod_RMS_Derivative-OPLS-2005>
4.51213788986206

$$$$
16
                    3D
 Structure written by MMmdl.
171180  0  0  1  0            999 V2000
  -30.6674  -14.4695   20.6475 C   0  0  0  0  0  0
  -30.4365  -12.3264   19.4113 C   0  0  0  0  0  0
  -29.5033  -12.5418   18.2016 C   0  0  0  0  0  0
  -28.0206  -12.3972   18.6017 C   0  0  0  0  0  0
  -27.6694  -13.1998   19.8820 C   0  0  2  0  0  0
  -28.7055  -12.9202   20.9910 C   0  0  0  0  0  0
  -25.2628  -13.8150   20.5638 C   0  0  0  0  0  0
  -24.1869  -13.0444   20.9140 C   0  0  0  0  0  0
  -24.6403  -11.6893   20.8696 C   0  0  0  0  0  0
  -23.9048  -10.4279   21.0387 C   0  0  0  0  0  0
  -24.3603   -9.4193   21.9173 C   0  0  0  0  0  0
  -23.6276   -8.2230   22.0735 C   0  0  0  0  0  0
  -22.4266   -8.0271   21.3527 C   0  0  0  0  0  0
  -21.9886   -9.0231   20.4629 C   0  0  0  0  0  0
  -22.7212  -10.2114   20.3045 C   0  0  0  0  0  0
  -21.6857   -6.0727   22.5269 C   0  0  0  0  0  0
  -21.4022   -6.5640   23.8199 C   0  0  0  0  0  0
  -21.3658   -5.6794   24.9166 C   0  0  0  0  0  0
  -21.6036   -4.3052   24.7217 C   0  0  0  0  0  0
  -21.8822   -3.8139   23.4342 C   0  0  0  0  0  0
  -21.9195   -4.6956   22.3401 C   0  0  0  0  0  0
  -22.7889  -13.5246   21.1817 C   0  0  0  0  0  0
  -22.1680   -4.2141   21.0973 F   0  0  0  0  0  0
  -21.5590   -3.4535   25.7732 F   0  0  0  0  0  0
  -30.0442  -13.2681   20.4714 N   0  0  0  0  0  0
  -26.3062  -12.9300   20.3347 N   0  0  0  0  0  0
  -25.9324  -11.6462   20.5707 N   0  0  0  0  0  0
  -22.0519  -12.8221   22.0351 N   0  0  0  0  0  0
  -25.4371  -15.1871   20.4024 N   0  0  0  0  0  0
  -31.7092  -14.7754   20.0528 O   0  0  0  0  0  0
  -21.6645   -6.8862   21.4225 O   0  0  0  0  0  0
  -22.3588  -14.5566   20.6687 O   0  0  0  0  0  0
  -24.6161  -31.8669   23.2104 C   0  0  0  0  0  0
  -25.9053  -32.4819   23.8390 C   0  0  1  0  0  0
  -27.2336  -27.4184   20.0857 C   0  0  0  0  0  0
  -25.5908  -33.8620   24.2331 N   0  0  0  0  0  0
  -23.4044  -30.4915   21.5516 C   0  0  2  0  0  0
  -24.8483  -28.9582   20.1146 C   0  0  0  0  0  0
  -22.7418  -29.4649   22.4982 C   0  0  0  0  0  0
  -18.0276  -28.1368   22.8482 C   0  0  0  0  0  0
  -24.1489  -36.7317   23.2631 C   0  0  0  0  0  0
  -25.9350  -30.8283   21.3645 C   0  0  0  0  0  0
  -26.0114  -29.4616   20.7093 C   0  0  0  0  0  0
  -27.2060  -28.7009   20.6898 C   0  0  0  0  0  0
  -26.0485  -26.9410   19.4793 C   0  0  0  0  0  0
  -24.8627  -27.6969   19.4973 C   0  0  0  0  0  0
  -23.6125  -29.8278   20.1651 C   0  0  0  0  0  0
  -25.4108  -36.3110   24.0333 C   0  0  1  0  0  0
  -20.5866  -28.3655   23.1308 C   0  0  2  0  0  0
  -20.6770  -26.9388   22.5419 C   0  0  0  0  0  0
  -19.5757  -26.6375   21.5208 C   0  0  0  0  0  0
  -18.1930  -26.7914   22.1606 C   0  0  0  0  0  0
  -19.1527  -28.8826   23.2893 C   0  0  0  0  0  0
  -18.9448  -30.1433   23.8908 C   0  0  0  0  0  0
  -17.6456  -30.6565   24.0564 C   0  0  0  0  0  0
  -25.9031  -34.9476   23.5134 C   0  0  0  0  0  0
  -16.5349  -29.9071   23.6318 C   0  0  0  0  0  0
  -16.7270  -28.6488   23.0331 C   0  0  0  0  0  0
  -26.4477  -31.6591   25.0715 C   0  0  0  0  0  0
  -25.3748  -31.3707   26.1471 C   0  0  0  0  0  0
  -27.0289  -30.3029   24.6085 C   0  0  0  0  0  0
  -27.6071  -32.4287   25.7465 C   0  0  0  0  0  0
  -27.5587  -37.1809   24.8455 C   0  0  0  0  0  0
  -21.4145  -29.3023   22.3717 N   0  0  0  0  0  0
  -26.4288  -37.3798   23.9409 N   0  0  0  0  0  0
  -24.6703  -31.0763   22.1003 N   0  0  0  0  0  0
  -23.4184  -28.8179   23.3013 O   0  0  0  0  0  0
  -28.4056  -26.6760   20.0992 O   0  0  0  0  0  0
  -26.5592  -34.8925   22.4687 O   0  0  0  0  0  0
  -23.5355  -32.1413   23.7499 O   0  0  0  0  0  0
  -28.8827  -19.2301   22.1121 C   0  0  0  0  0  0
  -28.3749  -18.2035   22.9240 C   0  0  0  0  0  0
  -28.8262  -16.8861   22.7082 C   0  0  0  0  0  0
  -29.7992  -18.9135   21.0920 C   0  0  0  0  0  0
  -29.7575  -16.6213   21.6707 C   0  0  0  0  0  0
  -28.4438  -23.1296   18.6133 C   0  0  0  0  0  0
  -29.2150  -23.0421   21.0137 C   0  0  0  0  0  0
  -28.5701  -24.6737   18.6421 C   0  0  0  0  0  0
  -29.3298  -24.5900   21.0093 C   0  0  0  0  0  0
  -29.3927  -22.3867   19.6121 C   0  0  1  0  0  0
  -28.3109  -25.2345   20.0530 C   0  0  1  0  0  0
  -27.3591  -18.5194   24.0084 C   0  0  0  0  0  0
  -31.3639  -19.6459   19.1629 C   0  0  0  0  0  0
  -28.5967  -20.2662   18.4553 C   0  0  0  0  0  0
  -30.3326  -20.0796   20.2293 C   0  0  1  0  0  0
  -30.2178  -17.6290   20.8678 N   0  0  0  0  0  0
  -30.0890  -15.2346   21.5887 N   0  0  0  0  0  0
  -29.1890  -20.8845   19.6723 N   0  3  1  0  0  0
  -28.2247  -15.6037   23.7129 Cl  0  0  0  0  0  0
  -31.4811  -12.4494   19.1205 H   0  0  0  0  0  0
  -30.3471  -11.3020   19.7740 H   0  0  0  0  0  0
  -29.7469  -11.8361   17.4070 H   0  0  0  0  0  0
  -29.6720  -13.5374   17.7871 H   0  0  0  0  0  0
  -27.8118  -11.3375   18.7528 H   0  0  0  0  0  0
  -27.3837  -12.7158   17.7751 H   0  0  0  0  0  0
  -27.7293  -14.2578   19.6277 H   0  0  0  0  0  0
  -28.6890  -11.8627   21.2602 H   0  0  0  0  0  0
  -28.4316  -13.4398   21.9078 H   0  0  0  0  0  0
  -25.2739   -9.5660   22.4758 H   0  0  0  0  0  0
  -23.9964   -7.4607   22.7455 H   0  0  0  0  0  0
  -21.0809   -8.8732   19.8941 H   0  0  0  0  0  0
  -22.3643  -10.9645   19.6152 H   0  0  0  0  0  0
  -21.2037   -7.6151   23.9705 H   0  0  0  0  0  0
  -21.1484   -6.0527   25.9072 H   0  0  0  0  0  0
  -22.0606   -2.7602   23.2836 H   0  0  0  0  0  0
  -22.4181  -11.9916   22.4764 H   0  0  0  0  0  0
  -21.1118  -13.1187   22.2548 H   0  0  0  0  0  0
  -24.6725  -15.8455   20.5091 H   0  0  0  0  0  0
  -26.2924  -15.6206   20.0789 H   0  0  0  0  0  0
  -26.7124  -32.5528   23.1151 H   0  0  0  0  0  0
  -25.0074  -33.9783   25.0491 H   0  0  0  0  0  0
  -22.6924  -31.3082   21.4153 H   0  0  0  0  0  0
  -23.3750  -35.9652   23.3291 H   0  0  0  0  0  0
  -24.3593  -36.8933   22.2048 H   0  0  0  0  0  0
  -23.7242  -37.6519   23.6648 H   0  0  0  0  0  0
  -26.0487  -31.5946   20.5964 H   0  0  0  0  0  0
  -26.8235  -30.8813   21.9821 H   0  0  0  0  0  0
  -28.1034  -29.0869   21.1519 H   0  0  0  0  0  0
  -26.0214  -25.9853   18.9769 H   0  0  0  0  0  0
  -23.9696  -27.3041   19.0304 H   0  0  0  0  0  0
  -23.7243  -30.6060   19.4087 H   0  0  0  0  0  0
  -22.7349  -29.2518   19.8660 H   0  0  0  0  0  0
  -25.1279  -36.1978   25.0823 H   0  0  0  0  0  0
  -20.9953  -28.3230   24.1431 H   0  0  0  0  0  0
  -20.5651  -26.2266   23.3604 H   0  0  0  0  0  0
  -21.6644  -26.7412   22.1236 H   0  0  0  0  0  0
  -19.6919  -25.6291   21.1222 H   0  0  0  0  0  0
  -19.6703  -27.3194   20.6747 H   0  0  0  0  0  0
  -17.4203  -26.6659   21.4006 H   0  0  0  0  0  0
  -18.0321  -26.0050   22.8989 H   0  0  0  0  0  0
  -19.7928  -30.7243   24.2276 H   0  0  0  0  0  0
  -17.5011  -31.6240   24.5164 H   0  0  0  0  0  0
  -15.5353  -30.2973   23.7632 H   0  0  0  0  0  0
  -15.8669  -28.0819   22.7024 H   0  0  0  0  0  0
  -24.5943  -30.7015   25.7835 H   0  0  0  0  0  0
  -24.8908  -32.2857   26.4887 H   0  0  0  0  0  0
  -25.8108  -30.8920   27.0246 H   0  0  0  0  0  0
  -26.2819  -29.6804   24.1140 H   0  0  0  0  0  0
  -27.4058  -29.7252   25.4533 H   0  0  0  0  0  0
  -27.8661  -30.4347   23.9228 H   0  0  0  0  0  0
  -27.2722  -33.3588   26.2063 H   0  0  0  0  0  0
  -28.3865  -32.6826   25.0271 H   0  0  0  0  0  0
  -28.0749  -31.8383   26.5353 H   0  0  0  0  0  0
  -28.2598  -38.0112   24.7510 H   0  0  0  0  0  0
  -28.1083  -36.2645   24.6255 H   0  0  0  0  0  0
  -27.2313  -37.1435   25.8858 H   0  0  0  0  0  0
  -20.9292  -29.8770   21.6975 H   0  0  0  0  0  0
  -26.0180  -38.2872   24.1419 H   0  0  0  0  0  0
  -28.5771  -20.2518   22.2938 H   0  0  0  0  0  0
  -28.6321  -22.8020   17.5903 H   0  0  0  0  0  0
  -27.4052  -22.8783   18.8315 H   0  0  0  0  0  0
  -28.2355  -22.7765   21.4141 H   0  0  0  0  0  0
  -29.9434  -22.6461   21.7202 H   0  0  0  0  0  0
  -27.8716  -25.1105   17.9283 H   0  0  0  0  0  0
  -29.5646  -24.9704   18.3058 H   0  0  0  0  0  0
  -30.3415  -24.8913   20.7336 H   0  0  0  0  0  0
  -29.1622  -24.9666   22.0192 H   0  0  0  0  0  0
  -30.4145  -22.5668   19.2714 H   0  0  0  0  0  0
  -27.3286  -24.9089   20.3989 H   0  0  0  0  0  0
  -27.0927  -19.5770   24.0134 H   0  0  0  0  0  0
  -27.7594  -18.2667   24.9905 H   0  0  0  0  0  0
  -26.4444  -17.9461   23.8508 H   0  0  0  0  0  0
  -32.2348  -19.1898   19.6333 H   0  0  0  0  0  0
  -31.7157  -20.4985   18.5839 H   0  0  0  0  0  0
  -30.9589  -18.9100   18.4680 H   0  0  0  0  0  0
  -27.5876  -20.6312   18.2679 H   0  0  0  0  0  0
  -28.5141  -19.1842   18.5636 H   0  0  0  0  0  0
  -29.2025  -20.4661   17.5710 H   0  0  0  0  0  0
  -30.8714  -20.7121   20.9358 H   0  0  0  0  0  0
  -29.4771  -14.6943   22.1810 H   0  0  0  0  0  0
  -28.4784  -20.7492   20.3771 H   0  0  0  0  0  0
  1 25  1  0  0  0
  1 30  2  0  0  0
  1 87  1  0  0  0
  2  3  1  0  0  0
  2 25  1  0  0  0
  2 90  1  0  0  0
  2 91  1  0  0  0
  3  4  1  0  0  0
  3 92  1  0  0  0
  3 93  1  0  0  0
  4  5  1  0  0  0
  4 94  1  0  0  0
  4 95  1  0  0  0
  5  6  1  0  0  0
  5 26  1  0  0  0
  5 96  1  0  0  0
  6 25  1  0  0  0
  6 97  1  0  0  0
  6 98  1  0  0  0
  7  8  2  0  0  0
  7 26  1  0  0  0
  7 29  1  0  0  0
  8  9  1  0  0  0
  8 22  1  0  0  0
  9 10  1  0  0  0
  9 27  2  0  0  0
 10 11  2  0  0  0
 10 15  1  0  0  0
 11 12  1  0  0  0
 11 99  1  0  0  0
 12 13  2  0  0  0
 12100  1  0  0  0
 13 14  1  0  0  0
 13 31  1  0  0  0
 14 15  2  0  0  0
 14101  1  0  0  0
 15102  1  0  0  0
 16 17  2  0  0  0
 16 21  1  0  0  0
 16 31  1  0  0  0
 17 18  1  0  0  0
 17103  1  0  0  0
 18 19  2  0  0  0
 18104  1  0  0  0
 19 20  1  0  0  0
 19 24  1  0  0  0
 20 21  2  0  0  0
 20105  1  0  0  0
 21 23  1  0  0  0
 22 28  1  0  0  0
 22 32  2  0  0  0
 26 27  1  0  0  0
 28106  1  0  0  0
 28107  1  0  0  0
 29108  1  0  0  0
 29109  1  0  0  0
 33 34  1  0  0  0
 33 66  1  0  0  0
 33 70  2  0  0  0
 34 36  1  0  0  0
 34 59  1  0  0  0
 34110  1  0  0  0
 35 44  2  0  0  0
 35 45  1  0  0  0
 35 68  1  0  0  0
 36 56  1  0  0  0
 36111  1  0  0  0
 37 39  1  0  0  0
 37 47  1  0  0  0
 37 66  1  0  0  0
 37112  1  0  0  0
 38 43  2  0  0  0
 38 46  1  0  0  0
 38 47  1  0  0  0
 39 64  1  0  0  0
 39 67  2  0  0  0
 40 52  1  0  0  0
 40 53  2  0  0  0
 40 58  1  0  0  0
 41113  1  0  0  0
 41114  1  0  0  0
 41115  1  0  0  0
 41 48  1  0  0  0
 42 43  1  0  0  0
 42 66  1  0  0  0
 42116  1  0  0  0
 42117  1  0  0  0
 43 44  1  0  0  0
 44118  1  0  0  0
 45 46  2  0  0  0
 45119  1  0  0  0
 46120  1  0  0  0
 47121  1  0  0  0
 47122  1  0  0  0
 48 56  1  0  0  0
 48 65  1  0  0  0
 48123  1  0  0  0
 49 50  1  0  0  0
 49 53  1  0  0  0
 49 64  1  0  0  0
 49124  1  0  0  0
 50 51  1  0  0  0
 50125  1  0  0  0
 50126  1  0  0  0
 51 52  1  0  0  0
 51127  1  0  0  0
 51128  1  0  0  0
 52129  1  0  0  0
 52130  1  0  0  0
 53 54  1  0  0  0
 54 55  2  0  0  0
 54131  1  0  0  0
 55 57  1  0  0  0
 55132  1  0  0  0
 56 69  2  0  0  0
 57 58  2  0  0  0
 57133  1  0  0  0
 58134  1  0  0  0
 59 60  1  0  0  0
 59 61  1  0  0  0
 59 62  1  0  0  0
 60135  1  0  0  0
 60136  1  0  0  0
 60137  1  0  0  0
 61138  1  0  0  0
 61139  1  0  0  0
 61140  1  0  0  0
 62141  1  0  0  0
 62142  1  0  0  0
 62143  1  0  0  0
 63 65  1  0  0  0
 63144  1  0  0  0
 63145  1  0  0  0
 63146  1  0  0  0
 64147  1  0  0  0
 65148  1  0  0  0
 68 81  1  0  0  0
 71 72  2  0  0  0
 71 74  1  0  0  0
 71149  1  0  0  0
 72 73  1  0  0  0
 72 82  1  0  0  0
 73 75  2  0  0  0
 73 89  1  0  0  0
 74 85  1  0  0  0
 74 86  2  0  0  0
 75 86  1  0  0  0
 75 87  1  0  0  0
 76 78  1  0  0  0
 76150  1  0  0  0
 76151  1  0  0  0
 76 80  1  0  0  0
 77 79  1  0  0  0
 77 80  1  0  0  0
 77152  1  0  0  0
 77153  1  0  0  0
 78 81  1  0  0  0
 78154  1  0  0  0
 78155  1  0  0  0
 79 81  1  0  0  0
 79156  1  0  0  0
 79157  1  0  0  0
 80 88  1  0  0  0
 80158  1  0  0  0
 81159  1  0  0  0
 82160  1  0  0  0
 82161  1  0  0  0
 82162  1  0  0  0
 83163  1  0  0  0
 83164  1  0  0  0
 83165  1  0  0  0
 83 85  1  0  0  0
 84166  1  0  0  0
 84167  1  0  0  0
 84168  1  0  0  0
 84 88  1  0  0  0
 85 88  1  0  0  0
 85169  1  0  0  0
 87170  1  0  0  0
 88171  1  0  0  0
M  CHG  1  88   1
M  ISO  4   1 100  68 101  81 101  87 100
M  END
> <chiral flag>
0

> <version>
0

> <s_m_source_file>
/data/baiqing/PycharmProjects/Reinvent-master-3.2/result/LINK_invent/BTK/process_docking_weight1_custom_sum_contain_oxygen_bond_distance_aromatic_linkinvent_7_9_3/rearranged_h_0021.sdf

> <i_m_source_file_index>
17

> <r_mmod_Potential_Energy-OPLS-2005>
-280.840728759766

> <r_mmod_Stretch_Energy-OPLS-2005>
50.4254455566406

> <r_mmod_Bend_Energy-OPLS-2005>
133.127563476562

> <r_mmod_Torsional_Energy-OPLS-2005>
247.573257446289

> <r_mmod_Improper_Torsional_Energy-OPLS-2005>
4.26616525650024

> <r_mmod_Van_der_Waal_Energy-OPLS-2005>
162.741500854492

> <r_mmod_Electrostatic_Energy-OPLS-2005>
-441.181732177734

> <r_mmod_Solvation_Energy-OPLS-2005>
-452.093383789062

> <b_mmod_Minimization_Converged-OPLS-2005>
0

> <r_mmod_RMS_Derivative-OPLS-2005>
2.26807832717896

$$$$
17
                    3D
 Structure written by MMmdl.
180188  0  0  1  0            999 V2000
  -30.6942  -14.3982   20.6845 C   0  0  0  0  0  0
  -30.4449  -12.3110   19.3701 C   0  0  0  0  0  0
  -29.4890  -12.5231   18.1776 C   0  0  0  0  0  0
  -28.0093  -12.3868   18.5968 C   0  0  0  0  0  0
  -27.6711  -13.1873   19.8810 C   0  0  2  0  0  0
  -28.7114  -12.8675   20.9739 C   0  0  0  0  0  0
  -25.2659  -13.8112   20.5652 C   0  0  0  0  0  0
  -24.1879  -13.0427   20.9146 C   0  0  0  0  0  0
  -24.6398  -11.6882   20.8720 C   0  0  0  0  0  0
  -23.9057  -10.4278   21.0407 C   0  0  0  0  0  0
  -24.3607   -9.4201   21.9190 C   0  0  0  0  0  0
  -23.6277   -8.2238   22.0769 C   0  0  0  0  0  0
  -22.4264   -8.0273   21.3554 C   0  0  0  0  0  0
  -21.9898   -9.0251   20.4651 C   0  0  0  0  0  0
  -22.7229  -10.2128   20.3055 C   0  0  0  0  0  0
  -21.6849   -6.0728   22.5272 C   0  0  0  0  0  0
  -21.4005   -6.5638   23.8204 C   0  0  0  0  0  0
  -21.3652   -5.6791   24.9166 C   0  0  0  0  0  0
  -21.6046   -4.3057   24.7218 C   0  0  0  0  0  0
  -21.8820   -3.8145   23.4345 C   0  0  0  0  0  0
  -21.9194   -4.6957   22.3397 C   0  0  0  0  0  0
  -22.7906  -13.5258   21.1797 C   0  0  0  0  0  0
  -22.1665   -4.2146   21.0974 F   0  0  0  0  0  0
  -21.5629   -3.4539   25.7734 F   0  0  0  0  0  0
  -30.0441  -13.2288   20.4452 N   0  0  0  0  0  0
  -26.3078  -12.9242   20.3368 N   0  0  0  0  0  0
  -25.9322  -11.6423   20.5748 N   0  0  0  0  0  0
  -22.0526  -12.8266   22.0344 N   0  0  0  0  0  0
  -25.4446  -15.1821   20.4041 N   0  0  0  0  0  0
  -31.7589  -14.7081   20.1392 O   0  0  0  0  0  0
  -21.6639   -6.8874   21.4239 O   0  0  0  0  0  0
  -22.3610  -14.5566   20.6640 O   0  0  0  0  0  0
  -24.6115  -31.8698   23.2143 C   0  0  0  0  0  0
  -25.9009  -32.4853   23.8427 C   0  0  1  0  0  0
  -27.2404  -27.4658   20.0980 C   0  0  0  0  0  0
  -25.5898  -33.8643   24.2378 N   0  0  0  0  0  0
  -23.3971  -30.4954   21.5524 C   0  0  2  0  0  0
  -24.8437  -28.9625   20.1165 C   0  0  0  0  0  0
  -22.7415  -29.4663   22.5011 C   0  0  0  0  0  0
  -18.0305  -28.1371   22.8515 C   0  0  0  0  0  0
  -24.1476  -36.7291   23.2646 C   0  0  0  0  0  0
  -25.9185  -30.8482   21.3576 C   0  0  0  0  0  0
  -25.9998  -29.4789   20.7166 C   0  0  0  0  0  0
  -27.1982  -28.7373   20.7107 C   0  0  0  0  0  0
  -26.0749  -26.9624   19.4824 C   0  0  0  0  0  0
  -24.8746  -27.6973   19.5009 C   0  0  0  0  0  0
  -23.6023  -29.8249   20.1677 C   0  0  0  0  0  0
  -25.4084  -36.3123   24.0379 C   0  0  1  0  0  0
  -20.5892  -28.3619   23.1357 C   0  0  2  0  0  0
  -20.6785  -26.9369   22.5397 C   0  0  0  0  0  0
  -19.5756  -26.6361   21.5217 C   0  0  0  0  0  0
  -18.1947  -26.7937   22.1637 C   0  0  0  0  0  0
  -19.1558  -28.8811   23.2960 C   0  0  0  0  0  0
  -18.9486  -30.1446   23.8919 C   0  0  0  0  0  0
  -17.6495  -30.6558   24.0589 C   0  0  0  0  0  0
  -25.9006  -34.9485   23.5160 C   0  0  0  0  0  0
  -16.5377  -29.9077   23.6338 C   0  0  0  0  0  0
  -16.7303  -28.6513   23.0335 C   0  0  0  0  0  0
  -26.4448  -31.6651   25.0737 C   0  0  0  0  0  0
  -25.3729  -31.3762   26.1511 C   0  0  0  0  0  0
  -27.0298  -30.3144   24.6011 C   0  0  0  0  0  0
  -27.6044  -32.4352   25.7502 C   0  0  0  0  0  0
  -27.5594  -37.1793   24.8472 C   0  0  0  0  0  0
  -21.4137  -29.3020   22.3771 N   0  0  0  0  0  0
  -26.4279  -37.3789   23.9456 N   0  0  0  0  0  0
  -24.6606  -31.0847   22.1017 N   0  0  0  0  0  0
  -23.4220  -28.8204   23.3014 O   0  0  0  0  0  0
  -28.3809  -26.6992   20.0414 O   0  0  0  0  0  0
  -26.5521  -34.8934   22.4694 O   0  0  0  0  0  0
  -23.5307  -32.1408   23.7543 O   0  0  0  0  0  0
  -30.7127  -18.8236   23.6058 C   0  0  0  0  0  0
  -29.5617  -18.0567   23.8446 C   0  0  0  0  0  0
  -31.4352  -17.2168   21.9146 C   0  0  0  0  0  0
  -31.6546  -18.4141   22.6357 C   0  0  0  0  0  0
  -29.3464  -16.8592   23.1379 C   0  0  0  0  0  0
  -30.2899  -16.4240   22.1714 C   0  0  0  0  0  0
  -28.0959  -16.0458   23.4400 C   0  0  0  0  0  0
  -34.8814  -16.8800   23.3693 C   0  0  0  0  0  0
  -35.1787  -20.0270   23.2978 C   0  0  0  0  0  0
  -34.1432  -17.8950   24.2584 C   0  0  0  0  0  0
  -30.5393  -22.9009   21.0663 C   0  0  0  0  0  0
  -30.2246  -24.3329   20.5951 C   0  0  0  0  0  0
  -31.6571  -22.2246   20.2512 C   0  0  0  0  0  0
  -29.3291  -25.0967   21.5875 C   0  0  0  0  0  0
  -31.9104  -20.7526   20.6423 C   0  0  0  0  0  0
  -29.1474  -26.5857   21.2393 C   0  0  0  0  0  0
  -32.9091  -19.2520   22.3895 C   0  0  2  0  0  0
  -33.8669  -19.2809   23.6169 C   0  0  2  0  0  0
  -30.0092  -15.1905   21.5277 N   0  0  0  0  0  0
  -32.5510  -20.6277   21.9709 N   0  3  0  0  0  0
  -31.4776  -12.4732   19.0536 H   0  0  0  0  0  0
  -30.4004  -11.2796   19.7204 H   0  0  0  0  0  0
  -29.7167  -11.8080   17.3852 H   0  0  0  0  0  0
  -29.6563  -13.5131   17.7496 H   0  0  0  0  0  0
  -27.8045  -11.3272   18.7568 H   0  0  0  0  0  0
  -27.3592  -12.7002   17.7791 H   0  0  0  0  0  0
  -27.7443  -14.2477   19.6404 H   0  0  0  0  0  0
  -28.6949  -11.7996   21.1991 H   0  0  0  0  0  0
  -28.4518  -13.3443   21.9192 H   0  0  0  0  0  0
  -25.2755   -9.5674   22.4763 H   0  0  0  0  0  0
  -23.9978   -7.4642   22.7499 H   0  0  0  0  0  0
  -21.0827   -8.8760   19.8966 H   0  0  0  0  0  0
  -22.3688  -10.9658   19.6157 H   0  0  0  0  0  0
  -21.1993   -7.6146   23.9700 H   0  0  0  0  0  0
  -21.1471   -6.0526   25.9070 H   0  0  0  0  0  0
  -22.0609   -2.7602   23.2838 H   0  0  0  0  0  0
  -22.4113  -11.9913   22.4722 H   0  0  0  0  0  0
  -21.1152  -13.1317   22.2529 H   0  0  0  0  0  0
  -24.6857  -15.8450   20.5154 H   0  0  0  0  0  0
  -26.2959  -15.6105   20.0622 H   0  0  0  0  0  0
  -26.7104  -32.5575   23.1214 H   0  0  0  0  0  0
  -25.0232  -33.9811   25.0654 H   0  0  0  0  0  0
  -22.6824  -31.3094   21.4140 H   0  0  0  0  0  0
  -23.3766  -35.9595   23.3241 H   0  0  0  0  0  0
  -24.3617  -36.8903   22.2077 H   0  0  0  0  0  0
  -23.7171  -37.6465   23.6646 H   0  0  0  0  0  0
  -26.0129  -31.6066   20.5792 H   0  0  0  0  0  0
  -26.8152  -30.9134   21.9620 H   0  0  0  0  0  0
  -28.0893  -29.1483   21.1649 H   0  0  0  0  0  0
  -26.0927  -25.9952   18.9997 H   0  0  0  0  0  0
  -23.9879  -27.2898   19.0368 H   0  0  0  0  0  0
  -23.7054  -30.5945   19.4028 H   0  0  0  0  0  0
  -22.7255  -29.2424   19.8815 H   0  0  0  0  0  0
  -25.1249  -36.1993   25.0868 H   0  0  0  0  0  0
  -21.0037  -28.3138   24.1467 H   0  0  0  0  0  0
  -20.5712  -26.2215   23.3556 H   0  0  0  0  0  0
  -21.6656  -26.7402   22.1177 H   0  0  0  0  0  0
  -19.6894  -25.6273   21.1230 H   0  0  0  0  0  0
  -19.6718  -27.3199   20.6783 H   0  0  0  0  0  0
  -17.4222  -26.6744   21.4021 H   0  0  0  0  0  0
  -18.0301  -26.0048   22.9003 H   0  0  0  0  0  0
  -19.7953  -30.7284   24.2236 H   0  0  0  0  0  0
  -17.5038  -31.6244   24.5179 H   0  0  0  0  0  0
  -15.5377  -30.2992   23.7621 H   0  0  0  0  0  0
  -15.8718  -28.0848   22.6989 H   0  0  0  0  0  0
  -24.5869  -30.7143   25.7859 H   0  0  0  0  0  0
  -24.8962  -32.2931   26.4984 H   0  0  0  0  0  0
  -25.8073  -30.8916   27.0263 H   0  0  0  0  0  0
  -26.2833  -29.6926   24.1039 H   0  0  0  0  0  0
  -27.4163  -29.7347   25.4397 H   0  0  0  0  0  0
  -27.8605  -30.4582   23.9095 H   0  0  0  0  0  0
  -27.2687  -33.3647   26.2113 H   0  0  0  0  0  0
  -28.3842  -32.6888   25.0317 H   0  0  0  0  0  0
  -28.0711  -31.8455   26.5393 H   0  0  0  0  0  0
  -28.2540  -38.0163   24.7590 H   0  0  0  0  0  0
  -28.1161  -36.2685   24.6173 H   0  0  0  0  0  0
  -27.2354  -37.1285   25.8887 H   0  0  0  0  0  0
  -20.9242  -29.8770   21.7049 H   0  0  0  0  0  0
  -26.0170  -38.2864   24.1484 H   0  0  0  0  0  0
  -30.8635  -19.7261   24.1814 H   0  0  0  0  0  0
  -28.8500  -18.3882   24.5884 H   0  0  0  0  0  0
  -32.1668  -16.9091   21.1816 H   0  0  0  0  0  0
  -27.5052  -16.5008   24.2362 H   0  0  0  0  0  0
  -28.3596  -15.0391   23.7653 H   0  0  0  0  0  0
  -27.4606  -15.9746   22.5562 H   0  0  0  0  0  0
  -34.9464  -15.9130   23.8712 H   0  0  0  0  0  0
  -35.9011  -17.2004   23.1529 H   0  0  0  0  0  0
  -34.3741  -16.7115   22.4190 H   0  0  0  0  0  0
  -35.8362  -20.0615   24.1673 H   0  0  0  0  0  0
  -34.9921  -21.0636   23.0110 H   0  0  0  0  0  0
  -35.7255  -19.5531   22.4808 H   0  0  0  0  0  0
  -34.7284  -18.0364   25.1679 H   0  0  0  0  0  0
  -33.2073  -17.4493   24.5991 H   0  0  0  0  0  0
  -29.6327  -22.2977   21.0121 H   0  0  0  0  0  0
  -30.8263  -22.9292   22.1177 H   0  0  0  0  0  0
  -29.7457  -24.2990   19.6152 H   0  0  0  0  0  0
  -31.1547  -24.8846   20.4584 H   0  0  0  0  0  0
  -32.5820  -22.7975   20.3405 H   0  0  0  0  0  0
  -31.3964  -22.2561   19.1931 H   0  0  0  0  0  0
  -29.7704  -25.0292   22.5830 H   0  0  0  0  0  0
  -28.3525  -24.6145   21.6581 H   0  0  0  0  0  0
  -32.5676  -20.2986   19.9000 H   0  0  0  0  0  0
  -30.9745  -20.1927   20.6198 H   0  0  0  0  0  0
  -30.1148  -27.0689   21.1001 H   0  0  0  0  0  0
  -28.6727  -27.0736   22.0928 H   0  0  0  0  0  0
  -33.4579  -18.7980   21.5632 H   0  0  0  0  0  0
  -33.3655  -19.8543   24.3996 H   0  0  0  0  0  0
  -29.1428  -14.7656   21.8171 H   0  0  0  0  0  0
  -31.9559  -21.0347   22.6715 H   0  0  0  0  0  0
  -33.4091  -21.1527   21.9508 H   0  0  0  0  0  0
  1 25  1  0  0  0
  1 30  2  0  0  0
  1 89  1  0  0  0
  2  3  1  0  0  0
  2 25  1  0  0  0
  2 91  1  0  0  0
  2 92  1  0  0  0
  3  4  1  0  0  0
  3 93  1  0  0  0
  3 94  1  0  0  0
  4  5  1  0  0  0
  4 95  1  0  0  0
  4 96  1  0  0  0
  5  6  1  0  0  0
  5 26  1  0  0  0
  5 97  1  0  0  0
  6 25  1  0  0  0
  6 98  1  0  0  0
  6 99  1  0  0  0
  7  8  2  0  0  0
  7 26  1  0  0  0
  7 29  1  0  0  0
  8  9  1  0  0  0
  8 22  1  0  0  0
  9 10  1  0  0  0
  9 27  2  0  0  0
 10 11  2  0  0  0
 10 15  1  0  0  0
 11 12  1  0  0  0
 11100  1  0  0  0
 12 13  2  0  0  0
 12101  1  0  0  0
 13 14  1  0  0  0
 13 31  1  0  0  0
 14 15  2  0  0  0
 14102  1  0  0  0
 15103  1  0  0  0
 16 17  2  0  0  0
 16 21  1  0  0  0
 16 31  1  0  0  0
 17 18  1  0  0  0
 17104  1  0  0  0
 18 19  2  0  0  0
 18105  1  0  0  0
 19 20  1  0  0  0
 19 24  1  0  0  0
 20 21  2  0  0  0
 20106  1  0  0  0
 21 23  1  0  0  0
 22 28  1  0  0  0
 22 32  2  0  0  0
 26 27  1  0  0  0
 28107  1  0  0  0
 28108  1  0  0  0
 29109  1  0  0  0
 29110  1  0  0  0
 33 34  1  0  0  0
 33 66  1  0  0  0
 33 70  2  0  0  0
 34 36  1  0  0  0
 34 59  1  0  0  0
 34111  1  0  0  0
 35 44  2  0  0  0
 35 45  1  0  0  0
 35 68  1  0  0  0
 36 56  1  0  0  0
 36112  1  0  0  0
 37 39  1  0  0  0
 37 47  1  0  0  0
 37 66  1  0  0  0
 37113  1  0  0  0
 38 43  2  0  0  0
 38 46  1  0  0  0
 38 47  1  0  0  0
 39 64  1  0  0  0
 39 67  2  0  0  0
 40 52  1  0  0  0
 40 53  2  0  0  0
 40 58  1  0  0  0
 41114  1  0  0  0
 41115  1  0  0  0
 41116  1  0  0  0
 41 48  1  0  0  0
 42 43  1  0  0  0
 42 66  1  0  0  0
 42117  1  0  0  0
 42118  1  0  0  0
 43 44  1  0  0  0
 44119  1  0  0  0
 45 46  2  0  0  0
 45120  1  0  0  0
 46121  1  0  0  0
 47122  1  0  0  0
 47123  1  0  0  0
 48 56  1  0  0  0
 48 65  1  0  0  0
 48124  1  0  0  0
 49 50  1  0  0  0
 49 53  1  0  0  0
 49 64  1  0  0  0
 49125  1  0  0  0
 50 51  1  0  0  0
 50126  1  0  0  0
 50127  1  0  0  0
 51 52  1  0  0  0
 51128  1  0  0  0
 51129  1  0  0  0
 52130  1  0  0  0
 52131  1  0  0  0
 53 54  1  0  0  0
 54 55  2  0  0  0
 54132  1  0  0  0
 55 57  1  0  0  0
 55133  1  0  0  0
 56 69  2  0  0  0
 57 58  2  0  0  0
 57134  1  0  0  0
 58135  1  0  0  0
 59 60  1  0  0  0
 59 61  1  0  0  0
 59 62  1  0  0  0
 60136  1  0  0  0
 60137  1  0  0  0
 60138  1  0  0  0
 61139  1  0  0  0
 61140  1  0  0  0
 61141  1  0  0  0
 62142  1  0  0  0
 62143  1  0  0  0
 62144  1  0  0  0
 63 65  1  0  0  0
 63145  1  0  0  0
 63146  1  0  0  0
 63147  1  0  0  0
 64148  1  0  0  0
 65149  1  0  0  0
 68 86  1  0  0  0
 71 72  2  0  0  0
 71 74  1  0  0  0
 71150  1  0  0  0
 72 75  1  0  0  0
 72151  1  0  0  0
 73 74  2  0  0  0
 73 76  1  0  0  0
 73152  1  0  0  0
 74 87  1  0  0  0
 75 76  2  0  0  0
 75 77  1  0  0  0
 76 89  1  0  0  0
 77153  1  0  0  0
 77154  1  0  0  0
 77155  1  0  0  0
 78 80  1  0  0  0
 78156  1  0  0  0
 78157  1  0  0  0
 78158  1  0  0  0
 79159  1  0  0  0
 79160  1  0  0  0
 79161  1  0  0  0
 79 88  1  0  0  0
 80 88  1  0  0  0
 80162  1  0  0  0
 80163  1  0  0  0
 81 82  1  0  0  0
 81 83  1  0  0  0
 81164  1  0  0  0
 81165  1  0  0  0
 82 84  1  0  0  0
 82166  1  0  0  0
 82167  1  0  0  0
 83 85  1  0  0  0
 83168  1  0  0  0
 83169  1  0  0  0
 84 86  1  0  0  0
 84170  1  0  0  0
 84171  1  0  0  0
 85 90  1  0  0  0
 85172  1  0  0  0
 85173  1  0  0  0
 86174  1  0  0  0
 86175  1  0  0  0
 87 88  1  0  0  0
 87 90  1  0  0  0
 87176  1  0  0  0
 88177  1  0  0  0
 89178  1  0  0  0
 90179  1  0  0  0
 90180  1  0  0  0
M  CHG  1  90   1
M  ISO  4   1 100  68 101  86 101  89 100
M  END
> <chiral flag>
0

> <version>
0

> <s_m_source_file>
/data/baiqing/PycharmProjects/Reinvent-master-3.2/result/LINK_invent/BTK/process_docking_weight1_custom_sum_contain_oxygen_bond_distance_aromatic_linkinvent_7_9_3/rearranged_h_0021.sdf

> <i_m_source_file_index>
18

> <r_mmod_Potential_Energy-OPLS-2005>
-209.814086914062

> <r_mmod_Stretch_Energy-OPLS-2005>
35.050121307373

> <r_mmod_Bend_Energy-OPLS-2005>
113.170684814453

> <r_mmod_Torsional_Energy-OPLS-2005>
231.435363769531

> <r_mmod_Improper_Torsional_Energy-OPLS-2005>
2.15045094490051

> <r_mmod_Van_der_Waal_Energy-OPLS-2005>
150.169296264648

> <r_mmod_Electrostatic_Energy-OPLS-2005>
-328.058563232422

> <r_mmod_Solvation_Energy-OPLS-2005>
-423.043609619141

> <b_mmod_Minimization_Converged-OPLS-2005>
0

> <r_mmod_RMS_Derivative-OPLS-2005>
3.69467067718506

$$$$
18
                    3D
 Structure written by MMmdl.
152160  0  0  1  0            999 V2000
  -30.7111  -14.6013   20.4727 C   0  0  0  0  0  0
  -30.4083  -12.3635   19.4583 C   0  0  0  0  0  0
  -29.4865  -12.4723   18.2272 C   0  0  0  0  0  0
  -28.0110  -12.3335   18.6475 C   0  0  0  0  0  0
  -27.6431  -13.2294   19.8588 C   0  0  2  0  0  0
  -28.6960  -13.1361   20.9859 C   0  0  0  0  0  0
  -25.2518  -13.8228   20.5735 C   0  0  0  0  0  0
  -24.1797  -13.0473   20.9232 C   0  0  0  0  0  0
  -24.6376  -11.6941   20.8799 C   0  0  0  0  0  0
  -23.9075  -10.4311   21.0419 C   0  0  0  0  0  0
  -24.3603   -9.4209   21.9188 C   0  0  0  0  0  0
  -23.6287   -8.2245   22.0747 C   0  0  0  0  0  0
  -22.4276   -8.0288   21.3545 C   0  0  0  0  0  0
  -21.9912   -9.0254   20.4632 C   0  0  0  0  0  0
  -22.7250  -10.2138   20.3054 C   0  0  0  0  0  0
  -21.6845   -6.0726   22.5286 C   0  0  0  0  0  0
  -21.3995   -6.5634   23.8216 C   0  0  0  0  0  0
  -21.3667   -5.6801   24.9185 C   0  0  0  0  0  0
  -21.6051   -4.3054   24.7234 C   0  0  0  0  0  0
  -21.8815   -3.8132   23.4352 C   0  0  0  0  0  0
  -21.9192   -4.6960   22.3405 C   0  0  0  0  0  0
  -22.7813  -13.5240   21.1885 C   0  0  0  0  0  0
  -22.1662   -4.2144   21.0984 F   0  0  0  0  0  0
  -21.5641   -3.4545   25.7738 F   0  0  0  0  0  0
  -30.0066  -13.4318   20.3930 N   0  0  0  0  0  0
  -26.2930  -12.9425   20.3387 N   0  0  0  0  0  0
  -25.9314  -11.6562   20.5846 N   0  0  0  0  0  0
  -22.0467  -12.8188   22.0422 N   0  0  0  0  0  0
  -25.4269  -15.1945   20.4191 N   0  0  0  0  0  0
  -31.8990  -14.6346   20.1486 O   0  0  0  0  0  0
  -21.6646   -6.8867   21.4247 O   0  0  0  0  0  0
  -22.3500  -14.5553   20.6758 O   0  0  0  0  0  0
  -24.6247  -31.8618   23.2070 C   0  0  0  0  0  0
  -25.9080  -32.4821   23.8392 C   0  0  1  0  0  0
  -27.2133  -27.3276   20.0958 C   0  0  0  0  0  0
  -25.5943  -33.8622   24.2334 N   0  0  0  0  0  0
  -23.4172  -30.4936   21.5495 C   0  0  2  0  0  0
  -24.8550  -28.9451   20.1129 C   0  0  0  0  0  0
  -22.7492  -29.4666   22.4946 C   0  0  0  0  0  0
  -18.0275  -28.1367   22.8508 C   0  0  0  0  0  0
  -24.1472  -36.7232   23.2663 C   0  0  0  0  0  0
  -25.9591  -30.7921   21.3752 C   0  0  0  0  0  0
  -26.0258  -29.4221   20.7121 C   0  0  0  0  0  0
  -27.2063  -28.6234   20.6977 C   0  0  0  0  0  0
  -26.0055  -26.8866   19.5031 C   0  0  0  0  0  0
  -24.8424  -27.6792   19.5098 C   0  0  0  0  0  0
  -23.6271  -29.8332   20.1609 C   0  0  0  0  0  0
  -25.4102  -36.3118   24.0390 C   0  0  1  0  0  0
  -20.5888  -28.3652   23.1287 C   0  0  2  0  0  0
  -20.6760  -26.9379   22.5414 C   0  0  0  0  0  0
  -19.5744  -26.6357   21.5215 C   0  0  0  0  0  0
  -18.1915  -26.7927   22.1601 C   0  0  0  0  0  0
  -19.1538  -28.8833   23.2900 C   0  0  0  0  0  0
  -18.9488  -30.1452   23.8898 C   0  0  0  0  0  0
  -17.6492  -30.6576   24.0582 C   0  0  0  0  0  0
  -25.9052  -34.9494   23.5159 C   0  0  0  0  0  0
  -16.5358  -29.9083   23.6358 C   0  0  0  0  0  0
  -16.7266  -28.6500   23.0390 C   0  0  0  0  0  0
  -26.4481  -31.6650   25.0768 C   0  0  0  0  0  0
  -25.3735  -31.3728   26.1525 C   0  0  0  0  0  0
  -27.0357  -30.3134   24.6155 C   0  0  0  0  0  0
  -27.6113  -32.4370   25.7456 C   0  0  0  0  0  0
  -27.5583  -37.1757   24.8488 C   0  0  0  0  0  0
  -21.4208  -29.3032   22.3692 N   0  0  0  0  0  0
  -26.4260  -37.3836   23.9504 N   0  0  0  0  0  0
  -24.6882  -31.0651   22.1004 N   0  0  0  0  0  0
  -23.4250  -28.8177   23.2980 O   0  0  0  0  0  0
  -28.3547  -26.5175   20.1405 O   0  0  0  0  0  0
  -26.5602  -34.8995   22.4695 O   0  0  0  0  0  0
  -23.5421  -32.1354   23.7439 O   0  0  0  0  0  0
  -28.8174  -20.1303   19.3517 C   0  0  0  0  0  0
  -29.1748  -18.7898   19.6672 C   0  0  0  0  0  0
  -29.3924  -21.2530   20.0202 C   0  0  0  0  0  0
  -30.1248  -18.5007   20.6774 C   0  0  0  0  0  0
  -30.2909  -20.9640   21.0900 C   0  0  0  0  0  0
  -30.6265  -19.6133   21.4283 C   0  0  0  0  0  0
  -28.6233  -23.9266   20.1893 C   0  0  0  0  0  0
  -29.2032  -22.6897   19.4025 C   0  0  0  0  0  0
  -30.7981  -17.0848   20.7913 C   0  0  0  0  0  0
  -28.4543  -25.2627   19.3695 C   0  0  0  0  0  0
  -30.0584  -15.7775   20.7279 N   0  0  0  0  0  0
  -28.2892  -23.8546   21.3785 O   0  0  0  0  0  0
  -31.0912  -22.2602   21.9271 Cl  0  0  0  0  0  0
  -31.7502  -19.3606   22.7313 Cl  0  0  0  0  0  0
  -31.4540  -12.4333   19.1533 H   0  0  0  0  0  0
  -30.3053  -11.3864   19.9343 H   0  0  0  0  0  0
  -29.7362  -11.7027   17.4946 H   0  0  0  0  0  0
  -29.6388  -13.4339   17.7335 H   0  0  0  0  0  0
  -27.8340  -11.2853   18.8904 H   0  0  0  0  0  0
  -27.3554  -12.5515   17.8042 H   0  0  0  0  0  0
  -27.6503  -14.2545   19.4865 H   0  0  0  0  0  0
  -28.7033  -12.1379   21.4231 H   0  0  0  0  0  0
  -28.4625  -13.8256   21.7977 H   0  0  0  0  0  0
  -25.2720   -9.5698   22.4801 H   0  0  0  0  0  0
  -23.9991   -7.4624   22.7462 H   0  0  0  0  0  0
  -21.0843   -8.8737   19.8937 H   0  0  0  0  0  0
  -22.3666  -10.9659   19.6163 H   0  0  0  0  0  0
  -21.1955   -7.6145   23.9712 H   0  0  0  0  0  0
  -21.1507   -6.0530   25.9089 H   0  0  0  0  0  0
  -22.0581   -2.7601   23.2856 H   0  0  0  0  0  0
  -22.4069  -11.9788   22.4688 H   0  0  0  0  0  0
  -21.1115  -13.1232   22.2746 H   0  0  0  0  0  0
  -24.6656  -15.8557   20.5341 H   0  0  0  0  0  0
  -26.2876  -15.6308   20.1112 H   0  0  0  0  0  0
  -26.7154  -32.5481   23.1158 H   0  0  0  0  0  0
  -25.0258  -33.9758   25.0595 H   0  0  0  0  0  0
  -22.7120  -31.3165   21.4144 H   0  0  0  0  0  0
  -23.3848  -35.9446   23.3291 H   0  0  0  0  0  0
  -24.3585  -36.8830   22.2085 H   0  0  0  0  0  0
  -23.7087  -37.6381   23.6660 H   0  0  0  0  0  0
  -26.0969  -31.5575   20.6096 H   0  0  0  0  0  0
  -26.8428  -30.8290   22.0023 H   0  0  0  0  0  0
  -28.1090  -28.9901   21.1677 H   0  0  0  0  0  0
  -25.8973  -25.9139   19.0570 H   0  0  0  0  0  0
  -23.9346  -27.2985   19.0601 H   0  0  0  0  0  0
  -23.7489  -30.6210   19.4140 H   0  0  0  0  0  0
  -22.7422  -29.2725   19.8532 H   0  0  0  0  0  0
  -25.1260  -36.1969   25.0881 H   0  0  0  0  0  0
  -20.9950  -28.3180   24.1411 H   0  0  0  0  0  0
  -20.5617  -26.2259   23.3614 H   0  0  0  0  0  0
  -21.6627  -26.7371   22.1221 H   0  0  0  0  0  0
  -19.6926  -25.6276   21.1228 H   0  0  0  0  0  0
  -19.6745  -27.3203   20.6788 H   0  0  0  0  0  0
  -17.4223  -26.6784   21.3960 H   0  0  0  0  0  0
  -18.0248  -26.0028   22.8925 H   0  0  0  0  0  0
  -19.7982  -30.7280   24.2253 H   0  0  0  0  0  0
  -17.5060  -31.6276   24.5163 H   0  0  0  0  0  0
  -15.5366  -30.3009   23.7728 H   0  0  0  0  0  0
  -15.8643  -28.0839   22.7091 H   0  0  0  0  0  0
  -24.5972  -30.6977   25.7890 H   0  0  0  0  0  0
  -24.8816  -32.2829   26.4960 H   0  0  0  0  0  0
  -25.8074  -30.8964   27.0314 H   0  0  0  0  0  0
  -26.2888  -29.6863   24.1278 H   0  0  0  0  0  0
  -27.4264  -29.7419   25.4579 H   0  0  0  0  0  0
  -27.8667  -30.4572   23.9252 H   0  0  0  0  0  0
  -27.2858  -33.3768   26.1922 H   0  0  0  0  0  0
  -28.3925  -32.6730   25.0214 H   0  0  0  0  0  0
  -28.0781  -31.8534   26.5414 H   0  0  0  0  0  0
  -28.2573  -38.0099   24.7649 H   0  0  0  0  0  0
  -28.1081  -36.2641   24.6099 H   0  0  0  0  0  0
  -27.2321  -37.1100   25.8888 H   0  0  0  0  0  0
  -20.9351  -29.8783   21.6963 H   0  0  0  0  0  0
  -26.0149  -38.2874   24.1622 H   0  0  0  0  0  0
  -28.1531  -20.2887   18.5088 H   0  0  0  0  0  0
  -28.7713  -17.9893   19.0550 H   0  0  0  0  0  0
  -28.5886  -22.5781   18.5031 H   0  0  0  0  0  0
  -30.1816  -23.0032   19.0221 H   0  0  0  0  0  0
  -31.4392  -17.0292   21.6680 H   0  0  0  0  0  0
  -31.5003  -17.0935   19.9567 H   0  0  0  0  0  0
  -27.6372  -25.1144   18.6731 H   0  0  0  0  0  0
  -29.3292  -25.3631   18.7286 H   0  0  0  0  0  0
  -29.0709  -15.7666   20.9268 H   0  0  0  0  0  0
  1 25  1  0  0  0
  1 30  2  0  0  0
  1 81  1  0  0  0
  2  3  1  0  0  0
  2 25  1  0  0  0
  2 85  1  0  0  0
  2 86  1  0  0  0
  3  4  1  0  0  0
  3 87  1  0  0  0
  3 88  1  0  0  0
  4  5  1  0  0  0
  4 89  1  0  0  0
  4 90  1  0  0  0
  5  6  1  0  0  0
  5 26  1  0  0  0
  5 91  1  0  0  0
  6 25  1  0  0  0
  6 92  1  0  0  0
  6 93  1  0  0  0
  7  8  2  0  0  0
  7 26  1  0  0  0
  7 29  1  0  0  0
  8  9  1  0  0  0
  8 22  1  0  0  0
  9 10  1  0  0  0
  9 27  2  0  0  0
 10 11  2  0  0  0
 10 15  1  0  0  0
 11 12  1  0  0  0
 11 94  1  0  0  0
 12 13  2  0  0  0
 12 95  1  0  0  0
 13 14  1  0  0  0
 13 31  1  0  0  0
 14 15  2  0  0  0
 14 96  1  0  0  0
 15 97  1  0  0  0
 16 17  2  0  0  0
 16 21  1  0  0  0
 16 31  1  0  0  0
 17 18  1  0  0  0
 17 98  1  0  0  0
 18 19  2  0  0  0
 18 99  1  0  0  0
 19 20  1  0  0  0
 19 24  1  0  0  0
 20 21  2  0  0  0
 20100  1  0  0  0
 21 23  1  0  0  0
 22 28  1  0  0  0
 22 32  2  0  0  0
 26 27  1  0  0  0
 28101  1  0  0  0
 28102  1  0  0  0
 29103  1  0  0  0
 29104  1  0  0  0
 33 34  1  0  0  0
 33 66  1  0  0  0
 33 70  2  0  0  0
 34 36  1  0  0  0
 34 59  1  0  0  0
 34105  1  0  0  0
 35 44  2  0  0  0
 35 45  1  0  0  0
 35 68  1  0  0  0
 36 56  1  0  0  0
 36106  1  0  0  0
 37 39  1  0  0  0
 37 47  1  0  0  0
 37 66  1  0  0  0
 37107  1  0  0  0
 38 43  2  0  0  0
 38 46  1  0  0  0
 38 47  1  0  0  0
 39 64  1  0  0  0
 39 67  2  0  0  0
 40 52  1  0  0  0
 40 53  2  0  0  0
 40 58  1  0  0  0
 41108  1  0  0  0
 41109  1  0  0  0
 41110  1  0  0  0
 41 48  1  0  0  0
 42 43  1  0  0  0
 42 66  1  0  0  0
 42111  1  0  0  0
 42112  1  0  0  0
 43 44  1  0  0  0
 44113  1  0  0  0
 45 46  2  0  0  0
 45114  1  0  0  0
 46115  1  0  0  0
 47116  1  0  0  0
 47117  1  0  0  0
 48 56  1  0  0  0
 48 65  1  0  0  0
 48118  1  0  0  0
 49 50  1  0  0  0
 49 53  1  0  0  0
 49 64  1  0  0  0
 49119  1  0  0  0
 50 51  1  0  0  0
 50120  1  0  0  0
 50121  1  0  0  0
 51 52  1  0  0  0
 51122  1  0  0  0
 51123  1  0  0  0
 52124  1  0  0  0
 52125  1  0  0  0
 53 54  1  0  0  0
 54 55  2  0  0  0
 54126  1  0  0  0
 55 57  1  0  0  0
 55127  1  0  0  0
 56 69  2  0  0  0
 57 58  2  0  0  0
 57128  1  0  0  0
 58129  1  0  0  0
 59 60  1  0  0  0
 59 61  1  0  0  0
 59 62  1  0  0  0
 60130  1  0  0  0
 60131  1  0  0  0
 60132  1  0  0  0
 61133  1  0  0  0
 61134  1  0  0  0
 61135  1  0  0  0
 62136  1  0  0  0
 62137  1  0  0  0
 62138  1  0  0  0
 63 65  1  0  0  0
 63139  1  0  0  0
 63140  1  0  0  0
 63141  1  0  0  0
 64142  1  0  0  0
 65143  1  0  0  0
 68 80  1  0  0  0
 71 72  2  0  0  0
 71 73  1  0  0  0
 71144  1  0  0  0
 72 74  1  0  0  0
 72145  1  0  0  0
 73 75  2  0  0  0
 73 78  1  0  0  0
 74 76  2  0  0  0
 74 79  1  0  0  0
 75 76  1  0  0  0
 75 83  1  0  0  0
 76 84  1  0  0  0
 77 78  1  0  0  0
 77 80  1  0  0  0
 77 82  2  0  0  0
 78146  1  0  0  0
 78147  1  0  0  0
 79 81  1  0  0  0
 79148  1  0  0  0
 79149  1  0  0  0
 80150  1  0  0  0
 80151  1  0  0  0
 81152  1  0  0  0
M  ISO  4   1 100  68 101  80 101  81 100
M  END
> <chiral flag>
0

> <version>
0

> <s_m_source_file>
/data/baiqing/PycharmProjects/Reinvent-master-3.2/result/LINK_invent/BTK/process_docking_weight1_custom_sum_contain_oxygen_bond_distance_aromatic_linkinvent_7_9_3/rearranged_h_0021.sdf

> <i_m_source_file_index>
19

> <r_mmod_Potential_Energy-OPLS-2005>
59.884105682373

> <r_mmod_Stretch_Energy-OPLS-2005>
76.5733947753906

> <r_mmod_Bend_Energy-OPLS-2005>
154.368804931641

> <r_mmod_Torsional_Energy-OPLS-2005>
209.394439697266

> <r_mmod_Improper_Torsional_Energy-OPLS-2005>
6.97041606903076

> <r_mmod_Van_der_Waal_Energy-OPLS-2005>
149.718673706055

> <r_mmod_Electrostatic_Energy-OPLS-2005>
-343.634490966797

> <r_mmod_Solvation_Energy-OPLS-2005>
-239.696578979492

> <b_mmod_Minimization_Converged-OPLS-2005>
0

> <r_mmod_RMS_Derivative-OPLS-2005>
6.51618576049805

$$$$
19
                    3D
 Structure written by MMmdl.
156164  0  0  1  0            999 V2000
  -30.5960  -14.6694   20.4984 C   0  0  0  0  0  0
  -30.4505  -12.4181   19.4405 C   0  0  0  0  0  0
  -29.5075  -12.5193   18.2214 C   0  0  0  0  0  0
  -28.0318  -12.3423   18.6361 C   0  0  0  0  0  0
  -27.6541  -13.1936   19.8760 C   0  0  2  0  0  0
  -28.7067  -13.0606   20.9979 C   0  0  0  0  0  0
  -25.2550  -13.8066   20.5691 C   0  0  0  0  0  0
  -24.1812  -13.0367   20.9220 C   0  0  0  0  0  0
  -24.6374  -11.6836   20.8779 C   0  0  0  0  0  0
  -23.9044  -10.4232   21.0437 C   0  0  0  0  0  0
  -24.3591   -9.4156   21.9222 C   0  0  0  0  0  0
  -23.6271   -8.2186   22.0768 C   0  0  0  0  0  0
  -22.4255   -8.0233   21.3551 C   0  0  0  0  0  0
  -21.9892   -9.0214   20.4656 C   0  0  0  0  0  0
  -22.7214  -10.2100   20.3081 C   0  0  0  0  0  0
  -21.6836   -6.0719   22.5297 C   0  0  0  0  0  0
  -21.3997   -6.5638   23.8222 C   0  0  0  0  0  0
  -21.3646   -5.6798   24.9192 C   0  0  0  0  0  0
  -21.6045   -4.3059   24.7258 C   0  0  0  0  0  0
  -21.8816   -3.8146   23.4375 C   0  0  0  0  0  0
  -21.9179   -4.6949   22.3423 C   0  0  0  0  0  0
  -22.7832  -13.5197   21.1863 C   0  0  0  0  0  0
  -22.1662   -4.2128   21.1003 F   0  0  0  0  0  0
  -21.5629   -3.4548   25.7771 F   0  0  0  0  0  0
  -30.0156  -13.4267   20.4282 N   0  0  0  0  0  0
  -26.2986  -12.9217   20.3400 N   0  0  0  0  0  0
  -25.9301  -11.6402   20.5824 N   0  0  0  0  0  0
  -22.0450  -12.8222   22.0431 N   0  0  0  0  0  0
  -25.4181  -15.1771   20.4029 N   0  0  0  0  0  0
  -31.7514  -14.8607   20.1058 O   0  0  0  0  0  0
  -21.6617   -6.8841   21.4244 O   0  0  0  0  0  0
  -22.3506  -14.5470   20.6640 O   0  0  0  0  0  0
  -24.6210  -31.8602   23.1968 C   0  0  0  0  0  0
  -25.9059  -32.4766   23.8302 C   0  0  1  0  0  0
  -27.2389  -27.3400   20.1200 C   0  0  0  0  0  0
  -25.5903  -33.8576   24.2268 N   0  0  0  0  0  0
  -23.4155  -30.4777   21.5366 C   0  0  2  0  0  0
  -24.8611  -28.9184   20.1189 C   0  0  0  0  0  0
  -22.7442  -29.4622   22.4911 C   0  0  0  0  0  0
  -18.0314  -28.1399   22.8519 C   0  0  0  0  0  0
  -24.1486  -36.7280   23.2629 C   0  0  0  0  0  0
  -25.9499  -30.7978   21.3596 C   0  0  0  0  0  0
  -26.0284  -29.4212   20.7115 C   0  0  0  0  0  0
  -27.2191  -28.6474   20.6951 C   0  0  0  0  0  0
  -26.0502  -26.8688   19.5265 C   0  0  0  0  0  0
  -24.8712  -27.6451   19.5227 C   0  0  0  0  0  0
  -23.6311  -29.7990   20.1563 C   0  0  0  0  0  0
  -25.4101  -36.3071   24.0336 C   0  0  1  0  0  0
  -20.5912  -28.3661   23.1322 C   0  0  2  0  0  0
  -20.6817  -26.9411   22.5423 C   0  0  0  0  0  0
  -19.5786  -26.6402   21.5240 C   0  0  0  0  0  0
  -18.1949  -26.7963   22.1638 C   0  0  0  0  0  0
  -19.1574  -28.8862   23.2929 C   0  0  0  0  0  0
  -18.9487  -30.1489   23.8909 C   0  0  0  0  0  0
  -17.6484  -30.6602   24.0592 C   0  0  0  0  0  0
  -25.9061  -34.9446   23.5110 C   0  0  0  0  0  0
  -16.5378  -29.9102   23.6346 C   0  0  0  0  0  0
  -16.7311  -28.6537   23.0354 C   0  0  0  0  0  0
  -26.4471  -31.6574   25.0644 C   0  0  0  0  0  0
  -25.3712  -31.3774   26.1374 C   0  0  0  0  0  0
  -27.0285  -30.2997   24.6071 C   0  0  0  0  0  0
  -27.6035  -32.4293   25.7431 C   0  0  0  0  0  0
  -27.5593  -37.1791   24.8467 C   0  0  0  0  0  0
  -21.4163  -29.3036   22.3682 N   0  0  0  0  0  0
  -26.4287  -37.3767   23.9420 N   0  0  0  0  0  0
  -24.6804  -31.0612   22.0878 N   0  0  0  0  0  0
  -23.4152  -28.8178   23.3003 O   0  0  0  0  0  0
  -28.4003  -26.5662   20.0843 O   0  0  0  0  0  0
  -26.5608  -34.8925   22.4665 O   0  0  0  0  0  0
  -23.5390  -32.1397   23.7326 O   0  0  0  0  0  0
  -30.3948  -18.0982   21.3997 C   0  0  0  0  0  0
  -28.4521  -19.0226   19.6289 C   0  0  0  0  0  0
  -30.0957  -19.5007   21.3208 C   0  0  0  0  0  0
  -29.0785  -19.9936   20.4483 C   0  0  0  0  0  0
  -29.7144  -17.1216   20.6150 C   0  0  0  0  0  0
  -28.7618  -17.6362   19.6943 C   0  0  0  0  0  0
  -30.8464  -20.4657   22.2237 C   0  0  0  0  0  0
  -28.5174  -21.4685   20.4606 C   0  0  0  0  0  0
  -29.3652  -22.6649   19.8767 C   0  0  0  0  0  0
  -28.6432  -24.0284   19.4595 C   0  0  0  0  0  0
  -28.3719  -25.1619   20.5285 C   0  0  0  0  0  0
  -29.7651  -15.6811   20.9033 N   0  0  0  0  0  0
  -27.9013  -16.5913   18.6246 Cl  0  0  0  0  0  0
  -31.4845  -12.5751   19.1258 H   0  0  0  0  0  0
  -30.4173  -11.4205   19.8800 H   0  0  0  0  0  0
  -29.7779  -11.7748   17.4710 H   0  0  0  0  0  0
  -29.6365  -13.4930   17.7448 H   0  0  0  0  0  0
  -27.8676  -11.2854   18.8489 H   0  0  0  0  0  0
  -27.3766  -12.5892   17.7995 H   0  0  0  0  0  0
  -27.6644  -14.2224   19.5462 H   0  0  0  0  0  0
  -28.7361  -12.0409   21.3829 H   0  0  0  0  0  0
  -28.4438  -13.6901   21.8500 H   0  0  0  0  0  0
  -25.2719   -9.5631   22.4828 H   0  0  0  0  0  0
  -23.9966   -7.4568   22.7488 H   0  0  0  0  0  0
  -21.0815   -8.8730   19.8967 H   0  0  0  0  0  0
  -22.3657  -10.9651   19.6205 H   0  0  0  0  0  0
  -21.1989   -7.6139   23.9722 H   0  0  0  0  0  0
  -21.1470   -6.0536   25.9098 H   0  0  0  0  0  0
  -22.0598   -2.7601   23.2894 H   0  0  0  0  0  0
  -22.4036  -11.9896   22.4869 H   0  0  0  0  0  0
  -21.1074  -13.1279   22.2616 H   0  0  0  0  0  0
  -24.6199  -15.8006   20.4495 H   0  0  0  0  0  0
  -26.2279  -15.6088   19.9746 H   0  0  0  0  0  0
  -26.7101  -32.5426   23.1039 H   0  0  0  0  0  0
  -25.0052  -33.9740   25.0409 H   0  0  0  0  0  0
  -22.7138  -31.2992   21.3899 H   0  0  0  0  0  0
  -23.3756  -35.9605   23.3274 H   0  0  0  0  0  0
  -24.3600  -36.8916   22.2052 H   0  0  0  0  0  0
  -23.7230  -37.6478   23.6657 H   0  0  0  0  0  0
  -26.0760  -31.5585   20.5846 H   0  0  0  0  0  0
  -26.8330  -30.8536   21.9827 H   0  0  0  0  0  0
  -28.1205  -29.0396   21.1467 H   0  0  0  0  0  0
  -26.0372  -25.8932   19.0575 H   0  0  0  0  0  0
  -23.9722  -27.2548   19.0633 H   0  0  0  0  0  0
  -23.7527  -30.5703   19.3944 H   0  0  0  0  0  0
  -22.7513  -29.2262   19.8567 H   0  0  0  0  0  0
  -25.1307  -36.1905   25.0834 H   0  0  0  0  0  0
  -21.0087  -28.3238   24.1411 H   0  0  0  0  0  0
  -20.5742  -26.2276   23.3606 H   0  0  0  0  0  0
  -21.6664  -26.7463   22.1199 H   0  0  0  0  0  0
  -19.6913  -25.6317   21.1263 H   0  0  0  0  0  0
  -19.6711  -27.3223   20.6775 H   0  0  0  0  0  0
  -17.4241  -26.6766   21.4006 H   0  0  0  0  0  0
  -18.0312  -26.0105   22.9046 H   0  0  0  0  0  0
  -19.7957  -30.7362   24.2198 H   0  0  0  0  0  0
  -17.5029  -31.6262   24.5219 H   0  0  0  0  0  0
  -15.5382  -30.3015   23.7647 H   0  0  0  0  0  0
  -15.8727  -28.0878   22.6995 H   0  0  0  0  0  0
  -24.5857  -30.7144   25.7723 H   0  0  0  0  0  0
  -24.8922  -32.2971   26.4730 H   0  0  0  0  0  0
  -25.8021  -30.8986   27.0178 H   0  0  0  0  0  0
  -26.2840  -29.6753   24.1098 H   0  0  0  0  0  0
  -27.4018  -29.7231   25.4560 H   0  0  0  0  0  0
  -27.8711  -30.4293   23.9260 H   0  0  0  0  0  0
  -27.2659  -33.3615   26.1964 H   0  0  0  0  0  0
  -28.3880  -32.6783   25.0282 H   0  0  0  0  0  0
  -28.0624  -31.8389   26.5391 H   0  0  0  0  0  0
  -28.2595  -38.0112   24.7555 H   0  0  0  0  0  0
  -28.1123  -36.2649   24.6245 H   0  0  0  0  0  0
  -27.2341  -37.1385   25.8883 H   0  0  0  0  0  0
  -20.9280  -29.8712   21.6894 H   0  0  0  0  0  0
  -26.0166  -38.2840   24.1434 H   0  0  0  0  0  0
  -31.1206  -17.7669   22.1296 H   0  0  0  0  0  0
  -27.6605  -19.3336   18.9620 H   0  0  0  0  0  0
  -31.6150  -19.9532   22.8030 H   0  0  0  0  0  0
  -30.1734  -20.9655   22.9241 H   0  0  0  0  0  0
  -31.3441  -21.2324   21.6306 H   0  0  0  0  0  0
  -28.2343  -21.7077   21.4847 H   0  0  0  0  0  0
  -27.5655  -21.4569   19.9227 H   0  0  0  0  0  0
  -29.8237  -22.2795   18.9647 H   0  0  0  0  0  0
  -30.2089  -22.8926   20.5317 H   0  0  0  0  0  0
  -27.7179  -23.8090   18.9263 H   0  0  0  0  0  0
  -29.2800  -24.4770   18.6944 H   0  0  0  0  0  0
  -29.1718  -25.0898   21.2675 H   0  0  0  0  0  0
  -27.4553  -24.9405   21.0776 H   0  0  0  0  0  0
  -28.8712  -15.3060   21.1772 H   0  0  0  0  0  0
  1 25  1  0  0  0
  1 30  2  0  0  0
  1 82  1  0  0  0
  2  3  1  0  0  0
  2 25  1  0  0  0
  2 84  1  0  0  0
  2 85  1  0  0  0
  3  4  1  0  0  0
  3 86  1  0  0  0
  3 87  1  0  0  0
  4  5  1  0  0  0
  4 88  1  0  0  0
  4 89  1  0  0  0
  5  6  1  0  0  0
  5 26  1  0  0  0
  5 90  1  0  0  0
  6 25  1  0  0  0
  6 91  1  0  0  0
  6 92  1  0  0  0
  7  8  2  0  0  0
  7 26  1  0  0  0
  7 29  1  0  0  0
  8  9  1  0  0  0
  8 22  1  0  0  0
  9 10  1  0  0  0
  9 27  2  0  0  0
 10 11  2  0  0  0
 10 15  1  0  0  0
 11 12  1  0  0  0
 11 93  1  0  0  0
 12 13  2  0  0  0
 12 94  1  0  0  0
 13 14  1  0  0  0
 13 31  1  0  0  0
 14 15  2  0  0  0
 14 95  1  0  0  0
 15 96  1  0  0  0
 16 17  2  0  0  0
 16 21  1  0  0  0
 16 31  1  0  0  0
 17 18  1  0  0  0
 17 97  1  0  0  0
 18 19  2  0  0  0
 18 98  1  0  0  0
 19 20  1  0  0  0
 19 24  1  0  0  0
 20 21  2  0  0  0
 20 99  1  0  0  0
 21 23  1  0  0  0
 22 28  1  0  0  0
 22 32  2  0  0  0
 26 27  1  0  0  0
 28100  1  0  0  0
 28101  1  0  0  0
 29102  1  0  0  0
 29103  1  0  0  0
 33 34  1  0  0  0
 33 66  1  0  0  0
 33 70  2  0  0  0
 34 36  1  0  0  0
 34 59  1  0  0  0
 34104  1  0  0  0
 35 44  2  0  0  0
 35 45  1  0  0  0
 35 68  1  0  0  0
 36 56  1  0  0  0
 36105  1  0  0  0
 37 39  1  0  0  0
 37 47  1  0  0  0
 37 66  1  0  0  0
 37106  1  0  0  0
 38 43  2  0  0  0
 38 46  1  0  0  0
 38 47  1  0  0  0
 39 64  1  0  0  0
 39 67  2  0  0  0
 40 52  1  0  0  0
 40 53  2  0  0  0
 40 58  1  0  0  0
 41107  1  0  0  0
 41108  1  0  0  0
 41109  1  0  0  0
 41 48  1  0  0  0
 42 43  1  0  0  0
 42 66  1  0  0  0
 42110  1  0  0  0
 42111  1  0  0  0
 43 44  1  0  0  0
 44112  1  0  0  0
 45 46  2  0  0  0
 45113  1  0  0  0
 46114  1  0  0  0
 47115  1  0  0  0
 47116  1  0  0  0
 48 56  1  0  0  0
 48 65  1  0  0  0
 48117  1  0  0  0
 49 50  1  0  0  0
 49 53  1  0  0  0
 49 64  1  0  0  0
 49118  1  0  0  0
 50 51  1  0  0  0
 50119  1  0  0  0
 50120  1  0  0  0
 51 52  1  0  0  0
 51121  1  0  0  0
 51122  1  0  0  0
 52123  1  0  0  0
 52124  1  0  0  0
 53 54  1  0  0  0
 54 55  2  0  0  0
 54125  1  0  0  0
 55 57  1  0  0  0
 55126  1  0  0  0
 56 69  2  0  0  0
 57 58  2  0  0  0
 57127  1  0  0  0
 58128  1  0  0  0
 59 60  1  0  0  0
 59 61  1  0  0  0
 59 62  1  0  0  0
 60129  1  0  0  0
 60130  1  0  0  0
 60131  1  0  0  0
 61132  1  0  0  0
 61133  1  0  0  0
 61134  1  0  0  0
 62135  1  0  0  0
 62136  1  0  0  0
 62137  1  0  0  0
 63 65  1  0  0  0
 63138  1  0  0  0
 63139  1  0  0  0
 63140  1  0  0  0
 64141  1  0  0  0
 65142  1  0  0  0
 68 81  1  0  0  0
 71 73  2  0  0  0
 71 75  1  0  0  0
 71143  1  0  0  0
 72 74  2  0  0  0
 72 76  1  0  0  0
 72144  1  0  0  0
 73 74  1  0  0  0
 73 77  1  0  0  0
 74 78  1  0  0  0
 75 76  2  0  0  0
 75 82  1  0  0  0
 76 83  1  0  0  0
 77145  1  0  0  0
 77146  1  0  0  0
 77147  1  0  0  0
 78 79  1  0  0  0
 78148  1  0  0  0
 78149  1  0  0  0
 79 80  1  0  0  0
 79150  1  0  0  0
 79151  1  0  0  0
 80 81  1  0  0  0
 80152  1  0  0  0
 80153  1  0  0  0
 81154  1  0  0  0
 81155  1  0  0  0
 82156  1  0  0  0
M  ISO  4   1 100  68 101  81 101  82 100
M  END
> <chiral flag>
0

> <version>
0

> <s_m_source_file>
/data/baiqing/PycharmProjects/Reinvent-master-3.2/result/LINK_invent/BTK/process_docking_weight1_custom_sum_contain_oxygen_bond_distance_aromatic_linkinvent_7_9_3/rearranged_h_0021.sdf

> <i_m_source_file_index>
20

> <r_mmod_Potential_Energy-OPLS-2005>
78.6617965698242

> <r_mmod_Stretch_Energy-OPLS-2005>
75.8920669555664

> <r_mmod_Bend_Energy-OPLS-2005>
143.195419311523

> <r_mmod_Torsional_Energy-OPLS-2005>
270.884826660156

> <r_mmod_Improper_Torsional_Energy-OPLS-2005>
7.61873912811279

> <r_mmod_Van_der_Waal_Energy-OPLS-2005>
131.118591308594

> <r_mmod_Electrostatic_Energy-OPLS-2005>
-401.028869628906

> <r_mmod_Solvation_Energy-OPLS-2005>
-195.592727661133

> <b_mmod_Minimization_Converged-OPLS-2005>
0

> <r_mmod_RMS_Derivative-OPLS-2005>
4.83004426956177

$$$$
20
                    3D
 Structure written by MMmdl.
166174  0  0  1  0            999 V2000
  -30.6723  -14.5071   20.5581 C   0  0  0  0  0  0
  -30.4299  -12.3208   19.4287 C   0  0  0  0  0  0
  -29.5001  -12.5056   18.2108 C   0  0  0  0  0  0
  -28.0202  -12.3597   18.6199 C   0  0  0  0  0  0
  -27.6570  -13.2035   19.8697 C   0  0  2  0  0  0
  -28.7002  -13.0010   20.9938 C   0  0  0  0  0  0
  -25.2575  -13.8152   20.5674 C   0  0  0  0  0  0
  -24.1825  -13.0437   20.9182 C   0  0  0  0  0  0
  -24.6369  -11.6900   20.8727 C   0  0  0  0  0  0
  -23.9026  -10.4291   21.0379 C   0  0  0  0  0  0
  -24.3591   -9.4218   21.9165 C   0  0  0  0  0  0
  -23.6290   -8.2242   22.0746 C   0  0  0  0  0  0
  -22.4275   -8.0258   21.3525 C   0  0  0  0  0  0
  -21.9888   -9.0223   20.4631 C   0  0  0  0  0  0
  -22.7197  -10.2123   20.3033 C   0  0  0  0  0  0
  -21.6855   -6.0714   22.5276 C   0  0  0  0  0  0
  -21.4015   -6.5621   23.8205 C   0  0  0  0  0  0
  -21.3670   -5.6774   24.9173 C   0  0  0  0  0  0
  -21.6051   -4.3044   24.7222 C   0  0  0  0  0  0
  -21.8820   -3.8125   23.4344 C   0  0  0  0  0  0
  -21.9196   -4.6935   22.3402 C   0  0  0  0  0  0
  -22.7853  -13.5233   21.1855 C   0  0  0  0  0  0
  -22.1656   -4.2119   21.0979 F   0  0  0  0  0  0
  -21.5641   -3.4535   25.7742 F   0  0  0  0  0  0
  -30.0279  -13.3119   20.4379 N   0  0  0  0  0  0
  -26.2994  -12.9309   20.3328 N   0  0  0  0  0  0
  -25.9297  -11.6474   20.5739 N   0  0  0  0  0  0
  -22.0486  -12.8244   22.0426 N   0  0  0  0  0  0
  -25.4299  -15.1872   20.4053 N   0  0  0  0  0  0
  -31.8262  -14.6871   20.1569 O   0  0  0  0  0  0
  -21.6645   -6.8854   21.4233 O   0  0  0  0  0  0
  -22.3537  -14.5527   20.6694 O   0  0  0  0  0  0
  -24.6169  -31.8650   23.2096 C   0  0  0  0  0  0
  -25.9046  -32.4796   23.8390 C   0  0  1  0  0  0
  -27.2253  -27.4015   20.0903 C   0  0  0  0  0  0
  -25.5889  -33.8600   24.2310 N   0  0  0  0  0  0
  -23.4039  -30.4907   21.5524 C   0  0  2  0  0  0
  -24.8451  -28.9544   20.1159 C   0  0  0  0  0  0
  -22.7424  -29.4631   22.4994 C   0  0  0  0  0  0
  -18.0262  -28.1375   22.8503 C   0  0  0  0  0  0
  -24.1478  -36.7315   23.2640 C   0  0  0  0  0  0
  -25.9386  -30.8204   21.3677 C   0  0  0  0  0  0
  -26.0097  -29.4548   20.7095 C   0  0  0  0  0  0
  -27.1994  -28.6869   20.6898 C   0  0  0  0  0  0
  -26.0286  -26.9155   19.5117 C   0  0  0  0  0  0
  -24.8510  -27.6857   19.5171 C   0  0  0  0  0  0
  -23.6113  -29.8278   20.1651 C   0  0  0  0  0  0
  -25.4098  -36.3094   24.0336 C   0  0  1  0  0  0
  -20.5863  -28.3649   23.1332 C   0  0  2  0  0  0
  -20.6749  -26.9383   22.5425 C   0  0  0  0  0  0
  -19.5718  -26.6375   21.5226 C   0  0  0  0  0  0
  -18.1902  -26.7917   22.1643 C   0  0  0  0  0  0
  -19.1518  -28.8826   23.2917 C   0  0  0  0  0  0
  -18.9437  -30.1439   23.8911 C   0  0  0  0  0  0
  -17.6439  -30.6577   24.0562 C   0  0  0  0  0  0
  -25.9033  -34.9461   23.5125 C   0  0  0  0  0  0
  -16.5332  -29.9073   23.6329 C   0  0  0  0  0  0
  -16.7253  -28.6496   23.0348 C   0  0  0  0  0  0
  -26.4466  -31.6593   25.0744 C   0  0  0  0  0  0
  -25.3725  -31.3727   26.1498 C   0  0  0  0  0  0
  -27.0266  -30.3001   24.6155 C   0  0  0  0  0  0
  -27.6029  -32.4326   25.7509 C   0  0  0  0  0  0
  -27.5577  -37.1804   24.8460 C   0  0  0  0  0  0
  -21.4150  -29.3017   22.3748 N   0  0  0  0  0  0
  -26.4281  -37.3784   23.9410 N   0  0  0  0  0  0
  -24.6719  -31.0743   22.1005 N   0  0  0  0  0  0
  -23.4191  -28.8171   23.3036 O   0  0  0  0  0  0
  -28.4158  -26.6884   20.1051 O   0  0  0  0  0  0
  -26.5614  -34.8917   22.4692 O   0  0  0  0  0  0
  -23.5356  -32.1424   23.7477 O   0  0  0  0  0  0
  -29.7310  -17.9688   20.4395 C   0  0  0  0  0  0
  -30.2324  -16.8825   21.2058 C   0  0  0  0  0  0
  -31.0003  -17.1854   22.3489 C   0  0  0  0  0  0
  -31.2347  -18.5417   22.6621 C   0  0  0  0  0  0
  -30.0319  -19.3039   20.8175 C   0  0  0  0  0  0
  -32.0383  -18.9142   23.8908 C   0  0  0  0  0  0
  -30.3648  -20.2665   16.2282 C   0  0  0  0  0  0
  -29.5857  -20.0639   17.5345 C   0  0  0  0  0  0
  -28.7536  -22.8065   19.8204 C   0  0  0  0  0  0
  -28.5930  -24.2033   20.4979 C   0  0  0  0  0  0
  -30.4246  -20.4287   18.7687 C   0  0  0  0  0  0
  -29.4425  -21.7062   20.6897 C   0  0  0  0  0  0
  -28.5364  -25.3859   19.4899 C   0  0  0  0  0  0
  -30.7658  -19.5715   21.9195 N   0  0  0  0  0  0
  -29.8690  -15.5314   20.9180 N   0  0  0  0  0  0
  -29.6457  -20.4045   20.0110 N   0  0  0  0  0  0
  -31.4736  -16.1972   23.1484 F   0  0  0  0  0  0
  -31.4736  -12.4307   19.1306 H   0  0  0  0  0  0
  -30.3391  -11.3100   19.8325 H   0  0  0  0  0  0
  -29.7505  -11.7828   17.4343 H   0  0  0  0  0  0
  -29.6634  -13.4900   17.7712 H   0  0  0  0  0  0
  -27.8374  -11.3035   18.8193 H   0  0  0  0  0  0
  -27.3700  -12.6254   17.7856 H   0  0  0  0  0  0
  -27.6921  -14.2483   19.5611 H   0  0  0  0  0  0
  -28.6834  -11.9690   21.3468 H   0  0  0  0  0  0
  -28.4594  -13.6130   21.8655 H   0  0  0  0  0  0
  -25.2728   -9.5720   22.4743 H   0  0  0  0  0  0
  -24.0000   -7.4643   22.7478 H   0  0  0  0  0  0
  -21.0802   -8.8721   19.8959 H   0  0  0  0  0  0
  -22.3608  -10.9652   19.6145 H   0  0  0  0  0  0
  -21.1998   -7.6133   23.9703 H   0  0  0  0  0  0
  -21.1501   -6.0510   25.9078 H   0  0  0  0  0  0
  -22.0593   -2.7587   23.2852 H   0  0  0  0  0  0
  -22.4068  -11.9889   22.4811 H   0  0  0  0  0  0
  -21.1102  -13.1286   22.2614 H   0  0  0  0  0  0
  -24.6634  -15.8420   20.5160 H   0  0  0  0  0  0
  -26.2701  -15.6241   20.0511 H   0  0  0  0  0  0
  -26.7119  -32.5475   23.1155 H   0  0  0  0  0  0
  -24.9986  -33.9757   25.0413 H   0  0  0  0  0  0
  -22.6938  -31.3090   21.4166 H   0  0  0  0  0  0
  -23.3729  -35.9658   23.3298 H   0  0  0  0  0  0
  -24.3581  -36.8943   22.2060 H   0  0  0  0  0  0
  -23.7244  -37.6522   23.6664 H   0  0  0  0  0  0
  -26.0651  -31.5891   20.6044 H   0  0  0  0  0  0
  -26.8219  -30.8624   21.9937 H   0  0  0  0  0  0
  -28.1009  -29.0779   21.1401 H   0  0  0  0  0  0
  -25.9539  -25.9405   19.0586 H   0  0  0  0  0  0
  -23.9516  -27.2910   19.0648 H   0  0  0  0  0  0
  -23.7261  -30.6062   19.4107 H   0  0  0  0  0  0
  -22.7324  -29.2554   19.8640 H   0  0  0  0  0  0
  -25.1274  -36.1964   25.0832 H   0  0  0  0  0  0
  -20.9954  -28.3194   24.1454 H   0  0  0  0  0  0
  -20.5658  -26.2242   23.3609 H   0  0  0  0  0  0
  -21.6613  -26.7425   22.1204 H   0  0  0  0  0  0
  -19.6875  -25.6290   21.1231 H   0  0  0  0  0  0
  -19.6663  -27.3202   20.6773 H   0  0  0  0  0  0
  -17.4180  -26.6682   21.4045 H   0  0  0  0  0  0
  -18.0300  -26.0057   22.9037 H   0  0  0  0  0  0
  -19.7909  -30.7262   24.2290 H   0  0  0  0  0  0
  -17.4980  -31.6259   24.5152 H   0  0  0  0  0  0
  -15.5326  -30.2972   23.7638 H   0  0  0  0  0  0
  -15.8660  -28.0814   22.7053 H   0  0  0  0  0  0
  -24.5869  -30.7108   25.7853 H   0  0  0  0  0  0
  -24.8956  -32.2899   26.4967 H   0  0  0  0  0  0
  -25.8075  -30.8882   27.0248 H   0  0  0  0  0  0
  -26.2803  -29.6811   24.1163 H   0  0  0  0  0  0
  -27.3939  -29.7219   25.4647 H   0  0  0  0  0  0
  -27.8703  -30.4285   23.9364 H   0  0  0  0  0  0
  -27.2613  -33.3610   26.2107 H   0  0  0  0  0  0
  -28.3823  -32.6918   25.0332 H   0  0  0  0  0  0
  -28.0705  -31.8443   26.5422 H   0  0  0  0  0  0
  -28.2584  -38.0109   24.7494 H   0  0  0  0  0  0
  -28.1077  -36.2638   24.6276 H   0  0  0  0  0  0
  -27.2305  -37.1450   25.8866 H   0  0  0  0  0  0
  -20.9306  -29.8760   21.6997 H   0  0  0  0  0  0
  -26.0170  -38.2863   24.1403 H   0  0  0  0  0  0
  -29.1273  -17.7756   19.5653 H   0  0  0  0  0  0
  -31.7098  -18.3303   24.7505 H   0  0  0  0  0  0
  -31.9298  -19.9697   24.1393 H   0  0  0  0  0  0
  -33.0961  -18.7101   23.7260 H   0  0  0  0  0  0
  -29.7366  -20.0633   15.3605 H   0  0  0  0  0  0
  -31.2290  -19.6036   16.1733 H   0  0  0  0  0  0
  -30.7260  -21.2921   16.1401 H   0  0  0  0  0  0
  -29.2573  -19.0266   17.5949 H   0  0  0  0  0  0
  -28.6820  -20.6710   17.5101 H   0  0  0  0  0  0
  -29.3272  -22.9513   18.9065 H   0  0  0  0  0  0
  -27.7723  -22.4568   19.4966 H   0  0  0  0  0  0
  -29.4303  -24.3746   21.1728 H   0  0  0  0  0  0
  -27.7002  -24.2047   21.1251 H   0  0  0  0  0  0
  -30.8593  -21.4194   18.6342 H   0  0  0  0  0  0
  -31.2850  -19.7589   18.8351 H   0  0  0  0  0  0
  -28.8540  -21.5378   21.5929 H   0  0  0  0  0  0
  -30.4146  -22.0730   21.0246 H   0  0  0  0  0  0
  -27.8117  -25.1899   18.7042 H   0  0  0  0  0  0
  -29.4875  -25.4075   18.9574 H   0  0  0  0  0  0
  -28.9016  -15.2922   21.0590 H   0  0  0  0  0  0
  1 25  1  0  0  0
  1 30  2  0  0  0
  1 85  1  0  0  0
  2  3  1  0  0  0
  2 25  1  0  0  0
  2 88  1  0  0  0
  2 89  1  0  0  0
  3  4  1  0  0  0
  3 90  1  0  0  0
  3 91  1  0  0  0
  4  5  1  0  0  0
  4 92  1  0  0  0
  4 93  1  0  0  0
  5  6  1  0  0  0
  5 26  1  0  0  0
  5 94  1  0  0  0
  6 25  1  0  0  0
  6 95  1  0  0  0
  6 96  1  0  0  0
  7  8  2  0  0  0
  7 26  1  0  0  0
  7 29  1  0  0  0
  8  9  1  0  0  0
  8 22  1  0  0  0
  9 10  1  0  0  0
  9 27  2  0  0  0
 10 11  2  0  0  0
 10 15  1  0  0  0
 11 12  1  0  0  0
 11 97  1  0  0  0
 12 13  2  0  0  0
 12 98  1  0  0  0
 13 14  1  0  0  0
 13 31  1  0  0  0
 14 15  2  0  0  0
 14 99  1  0  0  0
 15100  1  0  0  0
 16 17  2  0  0  0
 16 21  1  0  0  0
 16 31  1  0  0  0
 17 18  1  0  0  0
 17101  1  0  0  0
 18 19  2  0  0  0
 18102  1  0  0  0
 19 20  1  0  0  0
 19 24  1  0  0  0
 20 21  2  0  0  0
 20103  1  0  0  0
 21 23  1  0  0  0
 22 28  1  0  0  0
 22 32  2  0  0  0
 26 27  1  0  0  0
 28104  1  0  0  0
 28105  1  0  0  0
 29106  1  0  0  0
 29107  1  0  0  0
 33 34  1  0  0  0
 33 66  1  0  0  0
 33 70  2  0  0  0
 34 36  1  0  0  0
 34 59  1  0  0  0
 34108  1  0  0  0
 35 44  2  0  0  0
 35 45  1  0  0  0
 35 68  1  0  0  0
 36 56  1  0  0  0
 36109  1  0  0  0
 37 39  1  0  0  0
 37 47  1  0  0  0
 37 66  1  0  0  0
 37110  1  0  0  0
 38 43  2  0  0  0
 38 46  1  0  0  0
 38 47  1  0  0  0
 39 64  1  0  0  0
 39 67  2  0  0  0
 40 52  1  0  0  0
 40 53  2  0  0  0
 40 58  1  0  0  0
 41111  1  0  0  0
 41112  1  0  0  0
 41113  1  0  0  0
 41 48  1  0  0  0
 42 43  1  0  0  0
 42 66  1  0  0  0
 42114  1  0  0  0
 42115  1  0  0  0
 43 44  1  0  0  0
 44116  1  0  0  0
 45 46  2  0  0  0
 45117  1  0  0  0
 46118  1  0  0  0
 47119  1  0  0  0
 47120  1  0  0  0
 48 56  1  0  0  0
 48 65  1  0  0  0
 48121  1  0  0  0
 49 50  1  0  0  0
 49 53  1  0  0  0
 49 64  1  0  0  0
 49122  1  0  0  0
 50 51  1  0  0  0
 50123  1  0  0  0
 50124  1  0  0  0
 51 52  1  0  0  0
 51125  1  0  0  0
 51126  1  0  0  0
 52127  1  0  0  0
 52128  1  0  0  0
 53 54  1  0  0  0
 54 55  2  0  0  0
 54129  1  0  0  0
 55 57  1  0  0  0
 55130  1  0  0  0
 56 69  2  0  0  0
 57 58  2  0  0  0
 57131  1  0  0  0
 58132  1  0  0  0
 59 60  1  0  0  0
 59 61  1  0  0  0
 59 62  1  0  0  0
 60133  1  0  0  0
 60134  1  0  0  0
 60135  1  0  0  0
 61136  1  0  0  0
 61137  1  0  0  0
 61138  1  0  0  0
 62139  1  0  0  0
 62140  1  0  0  0
 62141  1  0  0  0
 63 65  1  0  0  0
 63142  1  0  0  0
 63143  1  0  0  0
 63144  1  0  0  0
 64145  1  0  0  0
 65146  1  0  0  0
 68 83  1  0  0  0
 71 72  2  0  0  0
 71 75  1  0  0  0
 71147  1  0  0  0
 72 73  1  0  0  0
 72 85  1  0  0  0
 73 74  2  0  0  0
 73 87  1  0  0  0
 74 76  1  0  0  0
 74 84  1  0  0  0
 75 84  2  0  0  0
 75 86  1  0  0  0
 76148  1  0  0  0
 76149  1  0  0  0
 76150  1  0  0  0
 77 78  1  0  0  0
 77151  1  0  0  0
 77152  1  0  0  0
 77153  1  0  0  0
 78 81  1  0  0  0
 78154  1  0  0  0
 78155  1  0  0  0
 79 80  1  0  0  0
 79 82  1  0  0  0
 79156  1  0  0  0
 79157  1  0  0  0
 80 83  1  0  0  0
 80158  1  0  0  0
 80159  1  0  0  0
 81 86  1  0  0  0
 81160  1  0  0  0
 81161  1  0  0  0
 82 86  1  0  0  0
 82162  1  0  0  0
 82163  1  0  0  0
 83164  1  0  0  0
 83165  1  0  0  0
 85166  1  0  0  0
M  ISO  4   1 100  68 101  83 101  85 100
M  END
> <chiral flag>
0

> <version>
0

> <s_m_source_file>
/data/baiqing/PycharmProjects/Reinvent-master-3.2/result/LINK_invent/BTK/process_docking_weight1_custom_sum_contain_oxygen_bond_distance_aromatic_linkinvent_7_9_3/rearranged_h_0021.sdf

> <i_m_source_file_index>
21

> <r_mmod_Potential_Energy-OPLS-2005>
-162.251922607422

> <r_mmod_Stretch_Energy-OPLS-2005>
44.2642440795898

> <r_mmod_Bend_Energy-OPLS-2005>
110.089256286621

> <r_mmod_Torsional_Energy-OPLS-2005>
247.533599853516

> <r_mmod_Improper_Torsional_Energy-OPLS-2005>
10.1304759979248

> <r_mmod_Van_der_Waal_Energy-OPLS-2005>
156.881912231445

> <r_mmod_Electrostatic_Energy-OPLS-2005>
-532.465087890625

> <r_mmod_Solvation_Energy-OPLS-2005>
-216.80110168457

> <b_mmod_Minimization_Converged-OPLS-2005>
0

> <r_mmod_RMS_Derivative-OPLS-2005>
2.67973256111145

$$$$
21
                    3D
 Structure written by MMmdl.
165173  0  0  1  0            999 V2000
  -30.6483  -14.4520   20.5729 C   0  0  0  0  0  0
  -30.4364  -12.2922   19.4030 C   0  0  0  0  0  0
  -29.4935  -12.5030   18.1962 C   0  0  0  0  0  0
  -28.0136  -12.3620   18.6093 C   0  0  0  0  0  0
  -27.6667  -13.1867   19.8778 C   0  0  2  0  0  0
  -28.7061  -12.9062   20.9858 C   0  0  0  0  0  0
  -25.2647  -13.8112   20.5717 C   0  0  0  0  0  0
  -24.1853  -13.0429   20.9171 C   0  0  0  0  0  0
  -24.6373  -11.6880   20.8728 C   0  0  0  0  0  0
  -23.9031  -10.4276   21.0404 C   0  0  0  0  0  0
  -24.3595   -9.4191   21.9174 C   0  0  0  0  0  0
  -23.6269   -8.2228   22.0757 C   0  0  0  0  0  0
  -22.4252   -8.0272   21.3549 C   0  0  0  0  0  0
  -21.9881   -9.0244   20.4649 C   0  0  0  0  0  0
  -22.7217  -10.2121   20.3050 C   0  0  0  0  0  0
  -21.6851   -6.0726   22.5285 C   0  0  0  0  0  0
  -21.4011   -6.5632   23.8218 C   0  0  0  0  0  0
  -21.3647   -5.6792   24.9178 C   0  0  0  0  0  0
  -21.6059   -4.3054   24.7240 C   0  0  0  0  0  0
  -21.8810   -3.8142   23.4355 C   0  0  0  0  0  0
  -21.9187   -4.6952   22.3414 C   0  0  0  0  0  0
  -22.7891  -13.5241   21.1847 C   0  0  0  0  0  0
  -22.1660   -4.2134   21.0990 F   0  0  0  0  0  0
  -21.5625   -3.4549   25.7747 F   0  0  0  0  0  0
  -30.0388  -13.2424   20.4507 N   0  0  0  0  0  0
  -26.3049  -12.9241   20.3355 N   0  0  0  0  0  0
  -25.9288  -11.6416   20.5721 N   0  0  0  0  0  0
  -22.0528  -12.8243   22.0398 N   0  0  0  0  0  0
  -25.4475  -15.1827   20.4278 N   0  0  0  0  0  0
  -31.7778  -14.6901   20.1323 O   0  0  0  0  0  0
  -21.6643   -6.8863   21.4239 O   0  0  0  0  0  0
  -22.3577  -14.5569   20.6708 O   0  0  0  0  0  0
  -24.6136  -31.8710   23.2166 C   0  0  0  0  0  0
  -25.9045  -32.4830   23.8430 C   0  0  1  0  0  0
  -27.2142  -27.4391   20.0899 C   0  0  0  0  0  0
  -25.5917  -33.8643   24.2338 N   0  0  0  0  0  0
  -23.3975  -30.4955   21.5618 C   0  0  2  0  0  0
  -24.8395  -28.9712   20.1180 C   0  0  0  0  0  0
  -22.7415  -29.4644   22.5082 C   0  0  0  0  0  0
  -18.0260  -28.1389   22.8507 C   0  0  0  0  0  0
  -24.1487  -36.7328   23.2639 C   0  0  0  0  0  0
  -25.9285  -30.8358   21.3715 C   0  0  0  0  0  0
  -26.0016  -29.4723   20.7182 C   0  0  0  0  0  0
  -27.1953  -28.7147   20.6983 C   0  0  0  0  0  0
  -26.0353  -26.9593   19.4778 C   0  0  0  0  0  0
  -24.8527  -27.7158   19.4918 C   0  0  0  0  0  0
  -23.6031  -29.8395   20.1718 C   0  0  0  0  0  0
  -25.4110  -36.3126   24.0331 C   0  0  1  0  0  0
  -20.5847  -28.3629   23.1402 C   0  0  2  0  0  0
  -20.6747  -26.9374   22.5462 C   0  0  0  0  0  0
  -19.5742  -26.6420   21.5232 C   0  0  0  0  0  0
  -18.1895  -26.7972   22.1582 C   0  0  0  0  0  0
  -19.1505  -28.8825   23.2967 C   0  0  0  0  0  0
  -18.9420  -30.1406   23.9034 C   0  0  0  0  0  0
  -17.6436  -30.6566   24.0617 C   0  0  0  0  0  0
  -25.9046  -34.9490   23.5131 C   0  0  0  0  0  0
  -16.5327  -29.9108   23.6312 C   0  0  0  0  0  0
  -16.7251  -28.6517   23.0344 C   0  0  0  0  0  0
  -26.4462  -31.6615   25.0767 C   0  0  0  0  0  0
  -25.3743  -31.3708   26.1529 C   0  0  0  0  0  0
  -27.0273  -30.3066   24.6113 C   0  0  0  0  0  0
  -27.6043  -32.4340   25.7525 C   0  0  0  0  0  0
  -27.5587  -37.1814   24.8461 C   0  0  0  0  0  0
  -21.4134  -29.3007   22.3849 N   0  0  0  0  0  0
  -26.4297  -37.3807   23.9405 N   0  0  0  0  0  0
  -24.6654  -31.0811   22.1079 N   0  0  0  0  0  0
  -23.4212  -28.8195   23.3102 O   0  0  0  0  0  0
  -28.3764  -26.6987   20.0733 O   0  0  0  0  0  0
  -26.5603  -34.8918   22.4692 O   0  0  0  0  0  0
  -23.5331  -32.1461   23.7565 O   0  0  0  0  0  0
  -29.4482  -18.7609   19.4071 C   0  0  0  0  0  0
  -28.3242  -18.7606   21.5509 C   0  0  0  0  0  0
  -28.6563  -19.4321   20.3590 C   0  0  0  0  0  0
  -29.8784  -17.4278   19.6058 C   0  0  0  0  0  0
  -28.7602  -17.4356   21.7809 C   0  0  0  0  0  0
  -29.5603  -16.7483   20.8240 C   0  0  0  0  0  0
  -30.5874  -16.7787   18.4283 C   0  0  0  0  0  0
  -28.2910  -16.7351   23.0508 C   0  0  0  0  0  0
  -26.4837  -23.7095   20.5991 C   0  0  0  0  0  0
  -28.0717  -20.8115   20.0401 C   0  0  0  0  0  0
  -28.8798  -23.1662   19.6595 C   0  0  0  0  0  0
  -28.3453  -25.4685   20.8140 C   0  0  0  0  0  0
  -27.8100  -24.2438   20.0165 C   0  0  2  0  0  0
  -29.8603  -15.3818   21.1466 N   0  0  0  0  0  0
  -28.9272  -21.9338   20.4925 N   0  3  0  0  0  0
  -31.4760  -12.4248   19.0975 H   0  0  0  0  0  0
  -30.3617  -11.2676   19.7728 H   0  0  0  0  0  0
  -29.7295  -11.7864   17.4095 H   0  0  0  0  0  0
  -29.6608  -13.4900   17.7636 H   0  0  0  0  0  0
  -27.8205  -11.3048   18.7937 H   0  0  0  0  0  0
  -27.3635  -12.6498   17.7831 H   0  0  0  0  0  0
  -27.7282  -14.2411   19.6068 H   0  0  0  0  0  0
  -28.6834  -11.8479   21.2559 H   0  0  0  0  0  0
  -28.4636  -13.4349   21.9085 H   0  0  0  0  0  0
  -25.2740   -9.5681   22.4749 H   0  0  0  0  0  0
  -23.9994   -7.4622   22.7477 H   0  0  0  0  0  0
  -21.0809   -8.8751   19.8964 H   0  0  0  0  0  0
  -22.3660  -10.9658   19.6161 H   0  0  0  0  0  0
  -21.2000   -7.6146   23.9710 H   0  0  0  0  0  0
  -21.1485   -6.0533   25.9081 H   0  0  0  0  0  0
  -22.0601   -2.7605   23.2876 H   0  0  0  0  0  0
  -22.4128  -11.9883   22.4756 H   0  0  0  0  0  0
  -21.1157  -13.1283   22.2623 H   0  0  0  0  0  0
  -24.7019  -15.8511   20.5827 H   0  0  0  0  0  0
  -26.3255  -15.6228   20.1783 H   0  0  0  0  0  0
  -26.7128  -32.5505   23.1195 H   0  0  0  0  0  0
  -25.0033  -33.9801   25.0461 H   0  0  0  0  0  0
  -22.6821  -31.3102   21.4348 H   0  0  0  0  0  0
  -23.3738  -35.9674   23.3308 H   0  0  0  0  0  0
  -24.3575  -36.8947   22.2054 H   0  0  0  0  0  0
  -23.7244  -37.6536   23.6654 H   0  0  0  0  0  0
  -26.0421  -31.5972   20.6001 H   0  0  0  0  0  0
  -26.8187  -30.8863   21.9884 H   0  0  0  0  0  0
  -28.0983  -29.0943   21.1553 H   0  0  0  0  0  0
  -25.9993  -26.0114   18.9661 H   0  0  0  0  0  0
  -23.9668  -27.3322   19.0042 H   0  0  0  0  0  0
  -23.7089  -30.6212   19.4203 H   0  0  0  0  0  0
  -22.7229  -29.2677   19.8727 H   0  0  0  0  0  0
  -25.1280  -36.1988   25.0820 H   0  0  0  0  0  0
  -20.9894  -28.3149   24.1544 H   0  0  0  0  0  0
  -20.5628  -26.2201   23.3607 H   0  0  0  0  0  0
  -21.6624  -26.7456   22.1264 H   0  0  0  0  0  0
  -19.6894  -25.6366   21.1195 H   0  0  0  0  0  0
  -19.6698  -27.3302   20.6812 H   0  0  0  0  0  0
  -17.4216  -26.6841   21.3908 H   0  0  0  0  0  0
  -18.0199  -26.0069   22.8914 H   0  0  0  0  0  0
  -19.7906  -30.7141   24.2535 H   0  0  0  0  0  0
  -17.4980  -31.6235   24.5247 H   0  0  0  0  0  0
  -15.5327  -30.3045   23.7593 H   0  0  0  0  0  0
  -15.8628  -28.0876   22.7038 H   0  0  0  0  0  0
  -24.5879  -30.7097   25.7861 H   0  0  0  0  0  0
  -24.8970  -32.2861   26.5044 H   0  0  0  0  0  0
  -25.8103  -30.8813   27.0248 H   0  0  0  0  0  0
  -26.2795  -29.6872   24.1142 H   0  0  0  0  0  0
  -27.4032  -29.7252   25.4538 H   0  0  0  0  0  0
  -27.8643  -30.4397   23.9257 H   0  0  0  0  0  0
  -27.2646  -33.3606   26.2157 H   0  0  0  0  0  0
  -28.3811  -32.6962   25.0340 H   0  0  0  0  0  0
  -28.0760  -31.8448   26.5394 H   0  0  0  0  0  0
  -28.2603  -38.0113   24.7506 H   0  0  0  0  0  0
  -28.1076  -36.2639   24.6273 H   0  0  0  0  0  0
  -27.2307  -37.1462   25.8868 H   0  0  0  0  0  0
  -20.9314  -29.8738   21.7068 H   0  0  0  0  0  0
  -26.0181  -38.2886   24.1406 H   0  0  0  0  0  0
  -29.6843  -19.2624   18.4783 H   0  0  0  0  0  0
  -27.6930  -19.2527   22.2783 H   0  0  0  0  0  0
  -30.4167  -17.3373   17.5095 H   0  0  0  0  0  0
  -30.2062  -15.7768   18.2441 H   0  0  0  0  0  0
  -31.6638  -16.7386   18.5920 H   0  0  0  0  0  0
  -27.6810  -17.3913   23.6745 H   0  0  0  0  0  0
  -29.1412  -16.3996   23.6468 H   0  0  0  0  0  0
  -27.6819  -15.8645   22.7968 H   0  0  0  0  0  0
  -26.6189  -23.1887   21.5466 H   0  0  0  0  0  0
  -25.9855  -23.0333   19.9041 H   0  0  0  0  0  0
  -25.7847  -24.5215   20.8012 H   0  0  0  0  0  0
  -27.0783  -20.9030   20.4820 H   0  0  0  0  0  0
  -27.9252  -20.8574   18.9585 H   0  0  0  0  0  0
  -29.8703  -23.6146   19.6910 H   0  0  0  0  0  0
  -28.7606  -22.8767   18.6131 H   0  0  0  0  0  0
  -27.7765  -25.6158   21.7354 H   0  0  0  0  0  0
  -29.3670  -25.2760   21.1450 H   0  0  0  0  0  0
  -27.5548  -24.6404   19.0347 H   0  0  0  0  0  0
  -29.1551  -14.9611   21.7300 H   0  0  0  0  0  0
  -29.8697  -21.5906   20.4171 H   0  0  0  0  0  0
  -28.7645  -22.1372   21.4633 H   0  0  0  0  0  0
  1 25  1  0  0  0
  1 30  2  0  0  0
  1 84  1  0  0  0
  2  3  1  0  0  0
  2 25  1  0  0  0
  2 86  1  0  0  0
  2 87  1  0  0  0
  3  4  1  0  0  0
  3 88  1  0  0  0
  3 89  1  0  0  0
  4  5  1  0  0  0
  4 90  1  0  0  0
  4 91  1  0  0  0
  5  6  1  0  0  0
  5 26  1  0  0  0
  5 92  1  0  0  0
  6 25  1  0  0  0
  6 93  1  0  0  0
  6 94  1  0  0  0
  7  8  2  0  0  0
  7 26  1  0  0  0
  7 29  1  0  0  0
  8  9  1  0  0  0
  8 22  1  0  0  0
  9 10  1  0  0  0
  9 27  2  0  0  0
 10 11  2  0  0  0
 10 15  1  0  0  0
 11 12  1  0  0  0
 11 95  1  0  0  0
 12 13  2  0  0  0
 12 96  1  0  0  0
 13 14  1  0  0  0
 13 31  1  0  0  0
 14 15  2  0  0  0
 14 97  1  0  0  0
 15 98  1  0  0  0
 16 17  2  0  0  0
 16 21  1  0  0  0
 16 31  1  0  0  0
 17 18  1  0  0  0
 17 99  1  0  0  0
 18 19  2  0  0  0
 18100  1  0  0  0
 19 20  1  0  0  0
 19 24  1  0  0  0
 20 21  2  0  0  0
 20101  1  0  0  0
 21 23  1  0  0  0
 22 28  1  0  0  0
 22 32  2  0  0  0
 26 27  1  0  0  0
 28102  1  0  0  0
 28103  1  0  0  0
 29104  1  0  0  0
 29105  1  0  0  0
 33 34  1  0  0  0
 33 66  1  0  0  0
 33 70  2  0  0  0
 34 36  1  0  0  0
 34 59  1  0  0  0
 34106  1  0  0  0
 35 44  2  0  0  0
 35 45  1  0  0  0
 35 68  1  0  0  0
 36 56  1  0  0  0
 36107  1  0  0  0
 37 39  1  0  0  0
 37 47  1  0  0  0
 37 66  1  0  0  0
 37108  1  0  0  0
 38 43  2  0  0  0
 38 46  1  0  0  0
 38 47  1  0  0  0
 39 64  1  0  0  0
 39 67  2  0  0  0
 40 52  1  0  0  0
 40 53  2  0  0  0
 40 58  1  0  0  0
 41109  1  0  0  0
 41110  1  0  0  0
 41111  1  0  0  0
 41 48  1  0  0  0
 42 43  1  0  0  0
 42 66  1  0  0  0
 42112  1  0  0  0
 42113  1  0  0  0
 43 44  1  0  0  0
 44114  1  0  0  0
 45 46  2  0  0  0
 45115  1  0  0  0
 46116  1  0  0  0
 47117  1  0  0  0
 47118  1  0  0  0
 48 56  1  0  0  0
 48 65  1  0  0  0
 48119  1  0  0  0
 49 50  1  0  0  0
 49 53  1  0  0  0
 49 64  1  0  0  0
 49120  1  0  0  0
 50 51  1  0  0  0
 50121  1  0  0  0
 50122  1  0  0  0
 51 52  1  0  0  0
 51123  1  0  0  0
 51124  1  0  0  0
 52125  1  0  0  0
 52126  1  0  0  0
 53 54  1  0  0  0
 54 55  2  0  0  0
 54127  1  0  0  0
 55 57  1  0  0  0
 55128  1  0  0  0
 56 69  2  0  0  0
 57 58  2  0  0  0
 57129  1  0  0  0
 58130  1  0  0  0
 59 60  1  0  0  0
 59 61  1  0  0  0
 59 62  1  0  0  0
 60131  1  0  0  0
 60132  1  0  0  0
 60133  1  0  0  0
 61134  1  0  0  0
 61135  1  0  0  0
 61136  1  0  0  0
 62137  1  0  0  0
 62138  1  0  0  0
 62139  1  0  0  0
 63 65  1  0  0  0
 63140  1  0  0  0
 63141  1  0  0  0
 63142  1  0  0  0
 64143  1  0  0  0
 65144  1  0  0  0
 68 82  1  0  0  0
 71 73  2  0  0  0
 71 74  1  0  0  0
 71145  1  0  0  0
 72 73  1  0  0  0
 72 75  2  0  0  0
 72146  1  0  0  0
 73 80  1  0  0  0
 74 76  2  0  0  0
 74 77  1  0  0  0
 75 76  1  0  0  0
 75 78  1  0  0  0
 76 84  1  0  0  0
 77147  1  0  0  0
 77148  1  0  0  0
 77149  1  0  0  0
 78150  1  0  0  0
 78151  1  0  0  0
 78152  1  0  0  0
 79153  1  0  0  0
 79154  1  0  0  0
 79155  1  0  0  0
 79 83  1  0  0  0
 80 85  1  0  0  0
 80156  1  0  0  0
 80157  1  0  0  0
 81 83  1  0  0  0
 81 85  1  0  0  0
 81158  1  0  0  0
 81159  1  0  0  0
 82 83  1  0  0  0
 82160  1  0  0  0
 82161  1  0  0  0
 83162  1  0  0  0
 84163  1  0  0  0
 85164  1  0  0  0
 85165  1  0  0  0
M  CHG  1  85   1
M  ISO  4   1 100  68 101  82 101  84 100
M  END
> <chiral flag>
0

> <version>
0

> <s_m_source_file>
/data/baiqing/PycharmProjects/Reinvent-master-3.2/result/LINK_invent/BTK/process_docking_weight1_custom_sum_contain_oxygen_bond_distance_aromatic_linkinvent_7_9_3/rearranged_h_0021.sdf

> <i_m_source_file_index>
22

> <r_mmod_Potential_Energy-OPLS-2005>
-198.797088623047

> <r_mmod_Stretch_Energy-OPLS-2005>
39.8850936889648

> <r_mmod_Bend_Energy-OPLS-2005>
125.565032958984

> <r_mmod_Torsional_Energy-OPLS-2005>
278.305603027344

> <r_mmod_Improper_Torsional_Energy-OPLS-2005>
4.66175413131714

> <r_mmod_Van_der_Waal_Energy-OPLS-2005>
156.928863525391

> <r_mmod_Electrostatic_Energy-OPLS-2005>
-357.414703369141

> <r_mmod_Solvation_Energy-OPLS-2005>
-459.642395019531

> <b_mmod_Minimization_Converged-OPLS-2005>
0

> <r_mmod_RMS_Derivative-OPLS-2005>
4.63300943374634

$$$$
22
                    3D
 Structure written by MMmdl.
165173  0  0  1  0            999 V2000
  -30.1575  -15.7550   19.9728 C   0  0  0  0  0  0
  -30.3992  -13.1542   19.4379 C   0  0  0  0  0  0
  -29.5282  -12.6166   18.2718 C   0  0  0  0  0  0
  -28.1304  -12.2383   18.7910 C   0  0  0  0  0  0
  -27.5760  -13.2954   19.7702 C   0  0  2  0  0  0
  -28.5964  -13.7366   20.8379 C   0  0  0  0  0  0
  -25.2348  -13.8246   20.5848 C   0  0  0  0  0  0
  -24.1717  -13.0425   20.9332 C   0  0  0  0  0  0
  -24.6385  -11.6923   20.8804 C   0  0  0  0  0  0
  -23.9069  -10.4288   21.0429 C   0  0  0  0  0  0
  -24.3604   -9.4217   21.9230 C   0  0  0  0  0  0
  -23.6285   -8.2242   22.0769 C   0  0  0  0  0  0
  -22.4283   -8.0275   21.3531 C   0  0  0  0  0  0
  -21.9914   -9.0262   20.4635 C   0  0  0  0  0  0
  -22.7239  -10.2150   20.3067 C   0  0  0  0  0  0
  -21.6876   -6.0711   22.5257 C   0  0  0  0  0  0
  -21.4042   -6.5629   23.8185 C   0  0  0  0  0  0
  -21.3658   -5.6788   24.9155 C   0  0  0  0  0  0
  -21.6039   -4.3049   24.7225 C   0  0  0  0  0  0
  -21.8825   -3.8132   23.4358 C   0  0  0  0  0  0
  -21.9210   -4.6933   22.3402 C   0  0  0  0  0  0
  -22.7743  -13.5197   21.1927 C   0  0  0  0  0  0
  -22.1666   -4.2104   21.0979 F   0  0  0  0  0  0
  -21.5616   -3.4540   25.7748 F   0  0  0  0  0  0
  -29.7102  -14.3587   20.0821 N   0  0  0  0  0  0
  -26.2736  -12.9543   20.3186 N   0  0  0  0  0  0
  -25.9314  -11.6630   20.5688 N   0  0  0  0  0  0
  -22.0361  -12.8197   22.0451 N   0  0  0  0  0  0
  -25.3971  -15.1973   20.4233 N   0  0  0  0  0  0
  -31.4070  -15.7075   19.9282 O   0  0  0  0  0  0
  -21.6654   -6.8868   21.4227 O   0  0  0  0  0  0
  -22.3447  -14.5493   20.6739 O   0  0  0  0  0  0
  -24.7053  -31.7602   23.0137 C   0  0  0  0  0  0
  -25.9455  -32.4280   23.7238 C   0  0  1  0  0  0
  -27.7220  -26.9197   20.6822 C   0  0  0  0  0  0
  -25.5675  -33.8065   24.1149 N   0  0  0  0  0  0
  -23.4901  -30.3129   21.3644 C   0  0  2  0  0  0
  -24.8873  -28.5833   19.6959 C   0  0  0  0  0  0
  -22.7147  -29.4694   22.4434 C   0  0  0  0  0  0
  -17.9986  -28.1587   22.8767 C   0  0  0  0  0  0
  -24.1452  -36.7123   23.2657 C   0  0  0  0  0  0
  -25.9786  -30.7846   20.8900 C   0  0  0  0  0  0
  -26.1958  -29.3720   20.0831 C   0  0  0  0  0  0
  -27.5106  -28.5080   20.3767 C   0  0  0  0  0  0
  -26.9063  -25.6492   20.4514 C   0  0  0  0  0  0
  -25.4261  -25.7131   20.0624 C   0  0  0  0  0  0
  -23.6414  -29.5432   19.9640 C   0  0  0  0  0  0
  -25.4139  -36.2809   24.0212 C   0  0  1  0  0  0
  -20.5609  -28.3997   23.1314 C   0  0  2  0  0  0
  -20.5963  -26.9338   22.6596 C   0  0  0  0  0  0
  -19.5110  -26.6268   21.6064 C   0  0  0  0  0  0
  -18.1381  -26.7950   22.2276 C   0  0  0  0  0  0
  -19.1309  -28.9142   23.2904 C   0  0  0  0  0  0
  -18.9307  -30.1743   23.8863 C   0  0  0  0  0  0
  -17.6327  -30.6876   24.0571 C   0  0  0  0  0  0
  -25.9151  -34.9268   23.4671 C   0  0  0  0  0  0
  -16.5174  -29.9368   23.6472 C   0  0  0  0  0  0
  -16.7015  -28.6728   23.0628 C   0  0  0  0  0  0
  -26.4765  -31.6980   25.0402 C   0  0  0  0  0  0
  -25.3798  -31.3960   26.0900 C   0  0  0  0  0  0
  -27.1908  -30.3802   24.7256 C   0  0  0  0  0  0
  -27.5662  -32.5506   25.7352 C   0  0  0  0  0  0
  -27.5553  -37.1664   24.8470 C   0  0  0  0  0  0
  -21.3924  -29.2777   22.2897 N   0  0  0  0  0  0
  -26.4226  -37.3651   23.9460 N   0  0  0  0  0  0
  -24.7570  -31.0008   21.8286 N   0  0  0  0  0  0
  -23.3005  -28.9564   23.4006 O   0  0  0  0  0  0
  -27.2971  -26.4308   21.9584 O   0  0  0  0  0  0
  -26.6054  -34.9027   22.4469 O   0  0  0  0  0  0
  -23.6198  -32.0144   23.5728 O   0  0  0  0  0  0
  -26.1321  -27.1283   18.6860 C   0  0  0  0  0  0
  -25.4957  -27.4346   21.3520 C   0  0  0  0  0  0
  -24.5045  -26.8149   18.2786 C   0  0  0  0  0  0
  -24.1265  -26.9568   21.4598 C   0  0  0  0  0  0
  -23.9324  -26.4843   16.9307 C   0  0  0  0  0  0
  -29.1879  -24.5140   17.5751 C   0  0  0  0  0  0
  -22.0647  -26.4533   19.4562 C   0  0  0  0  0  0
  -25.5392  -26.2094   22.4368 C   0  0  0  0  0  0
  -28.4398  -20.5941   19.2822 C   0  0  0  0  0  0
  -27.7835  -22.2742   18.3873 C   0  0  0  0  0  0
  -29.2901  -18.7958   19.0723 C   0  0  0  0  0  0
  -27.8803  -24.2712   18.3351 C   0  0  2  0  0  0
  -23.4346  -26.7595   19.7528 N   0  0  0  0  0  0
  -26.9251  -25.7788   17.9535 N   0  0  0  0  0  0
  -29.3234  -17.0859   19.7244 N   0  0  0  0  0  0
  -26.0158  -28.5940   22.7185 Cl  0  0  0  0  0  0
  -31.3697  -13.4476   19.0343 H   0  0  0  0  0  0
  -30.6066  -12.3624   20.1613 H   0  0  0  0  0  0
  -30.0104  -11.7481   17.8180 H   0  0  0  0  0  0
  -29.4484  -13.3731   17.4835 H   0  0  0  0  0  0
  -28.2356  -11.2956   19.3310 H   0  0  0  0  0  0
  -27.4382  -12.0579   17.9689 H   0  0  0  0  0  0
  -27.3992  -14.1688   19.1370 H   0  0  0  0  0  0
  -28.9201  -12.9191   21.4863 H   0  0  0  0  0  0
  -28.1437  -14.4875   21.4889 H   0  0  0  0  0  0
  -25.2736   -9.5703   22.4829 H   0  0  0  0  0  0
  -23.9964   -7.4642   22.7521 H   0  0  0  0  0  0
  -21.0830   -8.8827   19.8936 H   0  0  0  0  0  0
  -22.3721  -10.9711   19.6173 H   0  0  0  0  0  0
  -21.2052   -7.6139   23.9692 H   0  0  0  0  0  0
  -21.1460   -6.0511   25.9053 H   0  0  0  0  0  0
  -22.0605   -2.7585   23.2888 H   0  0  0  0  0  0
  -22.3987  -11.9894   22.4912 H   0  0  0  0  0  0
  -21.0947  -13.1210   22.2567 H   0  0  0  0  0  0
  -24.6312  -15.8516   20.5389 H   0  0  0  0  0  0
  -26.2364  -15.6386   20.0779 H   0  0  0  0  0  0
  -26.7663  -32.4781   23.0088 H   0  0  0  0  0  0
  -24.9544  -33.8902   24.9125 H   0  0  0  0  0  0
  -22.8139  -31.1410   21.1496 H   0  0  0  0  0  0
  -23.3817  -35.9348   23.3169 H   0  0  0  0  0  0
  -24.3506  -36.9004   22.2107 H   0  0  0  0  0  0
  -23.7088  -37.6178   23.6903 H   0  0  0  0  0  0
  -25.9506  -31.5764   20.1434 H   0  0  0  0  0  0
  -26.8982  -30.9583   21.4466 H   0  0  0  0  0  0
  -28.3308  -29.1060   20.7466 H   0  0  0  0  0  0
  -27.2063  -24.6785   20.8455 H   0  0  0  0  0  0
  -24.7730  -24.8419   20.0666 H   0  0  0  0  0  0
  -23.7360  -30.3119   19.1988 H   0  0  0  0  0  0
  -22.6904  -29.0847   19.7082 H   0  0  0  0  0  0
  -25.1366  -36.1471   25.0703 H   0  0  0  0  0  0
  -20.9750  -28.4113   24.1417 H   0  0  0  0  0  0
  -20.3741  -26.3024   23.5218 H   0  0  0  0  0  0
  -21.6040  -26.6386   22.3834 H   0  0  0  0  0  0
  -19.6104  -25.6133   21.2149 H   0  0  0  0  0  0
  -19.5810  -27.3173   20.7636 H   0  0  0  0  0  0
  -17.3613  -26.6514   21.4738 H   0  0  0  0  0  0
  -17.9783  -26.0287   22.9888 H   0  0  0  0  0  0
  -19.7820  -30.7549   24.2129 H   0  0  0  0  0  0
  -17.4921  -31.6587   24.5104 H   0  0  0  0  0  0
  -15.5186  -30.3308   23.7801 H   0  0  0  0  0  0
  -15.8377  -28.0981   22.7544 H   0  0  0  0  0  0
  -24.6281  -30.7042   25.7075 H   0  0  0  0  0  0
  -24.8615  -32.3009   26.4058 H   0  0  0  0  0  0
  -25.8054  -30.9349   26.9824 H   0  0  0  0  0  0
  -26.5278  -29.5398   24.9085 H   0  0  0  0  0  0
  -28.0361  -30.1827   25.3858 H   0  0  0  0  0  0
  -27.6036  -30.3755   23.7171 H   0  0  0  0  0  0
  -27.1823  -33.5080   26.0873 H   0  0  0  0  0  0
  -28.3957  -32.7596   25.0577 H   0  0  0  0  0  0
  -27.9782  -32.0521   26.6143 H   0  0  0  0  0  0
  -28.2498  -38.0038   24.7650 H   0  0  0  0  0  0
  -28.1119  -36.2575   24.6132 H   0  0  0  0  0  0
  -27.2300  -37.1095   25.8874 H   0  0  0  0  0  0
  -20.9338  -29.7338   21.5137 H   0  0  0  0  0  0
  -26.0049  -38.2682   24.1590 H   0  0  0  0  0  0
  -24.6817  -26.0369   16.2775 H   0  0  0  0  0  0
  -23.5594  -27.3766   16.4293 H   0  0  0  0  0  0
  -23.1127  -25.7719   17.0088 H   0  0  0  0  0  0
  -29.9509  -23.8037   17.8988 H   0  0  0  0  0  0
  -29.5873  -25.5083   17.7883 H   0  0  0  0  0  0
  -29.0688  -24.4144   16.4958 H   0  0  0  0  0  0
  -21.6609  -27.1550   18.7273 H   0  0  0  0  0  0
  -21.5160  -26.5144   20.3547 H   0  0  0  0  0  0
  -21.9770  -25.4381   19.0715 H   0  0  0  0  0  0
  -25.3809  -25.1258   22.4795 H   0  0  0  0  0  0
  -25.4102  -26.3703   23.5173 H   0  0  0  0  0  0
  -27.4937  -20.2759   19.7242 H   0  0  0  0  0  0
  -28.9678  -20.9692   20.1583 H   0  0  0  0  0  0
  -26.7281  -22.1807   18.6373 H   0  0  0  0  0  0
  -27.7880  -21.9922   17.3339 H   0  0  0  0  0  0
  -30.3532  -19.0472   19.1070 H   0  0  0  0  0  0
  -29.1197  -18.5910   18.0120 H   0  0  0  0  0  0
  -28.3501  -24.4038   19.2965 H   0  0  0  0  0  0
  -26.9246  -25.9192   16.9475 H   0  0  0  0  0  0
  -28.3610  -16.8063   19.8527 H   0  0  0  0  0  0
  1 25  1  0  0  0
  1 30  2  0  0  0
  1 85  1  0  0  0
  2  3  1  0  0  0
  2 25  1  0  0  0
  2 87  1  0  0  0
  2 88  1  0  0  0
  3  4  1  0  0  0
  3 89  1  0  0  0
  3 90  1  0  0  0
  4  5  1  0  0  0
  4 91  1  0  0  0
  4 92  1  0  0  0
  5  6  1  0  0  0
  5 26  1  0  0  0
  5 93  1  0  0  0
  6 25  1  0  0  0
  6 94  1  0  0  0
  6 95  1  0  0  0
  7  8  2  0  0  0
  7 26  1  0  0  0
  7 29  1  0  0  0
  8  9  1  0  0  0
  8 22  1  0  0  0
  9 10  1  0  0  0
  9 27  2  0  0  0
 10 11  2  0  0  0
 10 15  1  0  0  0
 11 12  1  0  0  0
 11 96  1  0  0  0
 12 13  2  0  0  0
 12 97  1  0  0  0
 13 14  1  0  0  0
 13 31  1  0  0  0
 14 15  2  0  0  0
 14 98  1  0  0  0
 15 99  1  0  0  0
 16 17  2  0  0  0
 16 21  1  0  0  0
 16 31  1  0  0  0
 17 18  1  0  0  0
 17100  1  0  0  0
 18 19  2  0  0  0
 18101  1  0  0  0
 19 20  1  0  0  0
 19 24  1  0  0  0
 20 21  2  0  0  0
 20102  1  0  0  0
 21 23  1  0  0  0
 22 28  1  0  0  0
 22 32  2  0  0  0
 26 27  1  0  0  0
 28103  1  0  0  0
 28104  1  0  0  0
 29105  1  0  0  0
 29106  1  0  0  0
 33 34  1  0  0  0
 33 66  1  0  0  0
 33 70  2  0  0  0
 34 36  1  0  0  0
 34 59  1  0  0  0
 34107  1  0  0  0
 35 44  2  0  0  0
 35 45  1  0  0  0
 35 68  1  0  0  0
 36 56  1  0  0  0
 36108  1  0  0  0
 37 39  1  0  0  0
 37 47  1  0  0  0
 37 66  1  0  0  0
 37109  1  0  0  0
 38 43  2  0  0  0
 38 46  1  0  0  0
 38 47  1  0  0  0
 39 64  1  0  0  0
 39 67  2  0  0  0
 40 52  1  0  0  0
 40 53  2  0  0  0
 40 58  1  0  0  0
 41110  1  0  0  0
 41111  1  0  0  0
 41112  1  0  0  0
 41 48  1  0  0  0
 42 43  1  0  0  0
 42 66  1  0  0  0
 42113  1  0  0  0
 42114  1  0  0  0
 43 44  1  0  0  0
 44115  1  0  0  0
 45 46  2  0  0  0
 45116  1  0  0  0
 46117  1  0  0  0
 47118  1  0  0  0
 47119  1  0  0  0
 48 56  1  0  0  0
 48 65  1  0  0  0
 48120  1  0  0  0
 49 50  1  0  0  0
 49 53  1  0  0  0
 49 64  1  0  0  0
 49121  1  0  0  0
 50 51  1  0  0  0
 50122  1  0  0  0
 50123  1  0  0  0
 51 52  1  0  0  0
 51124  1  0  0  0
 51125  1  0  0  0
 52126  1  0  0  0
 52127  1  0  0  0
 53 54  1  0  0  0
 54 55  2  0  0  0
 54128  1  0  0  0
 55 57  1  0  0  0
 55129  1  0  0  0
 56 69  2  0  0  0
 57 58  2  0  0  0
 57130  1  0  0  0
 58131  1  0  0  0
 59 60  1  0  0  0
 59 61  1  0  0  0
 59 62  1  0  0  0
 60132  1  0  0  0
 60133  1  0  0  0
 60134  1  0  0  0
 61135  1  0  0  0
 61136  1  0  0  0
 61137  1  0  0  0
 62138  1  0  0  0
 62139  1  0  0  0
 62140  1  0  0  0
 63 65  1  0  0  0
 63141  1  0  0  0
 63142  1  0  0  0
 63143  1  0  0  0
 64144  1  0  0  0
 65145  1  0  0  0
 68 78  1  0  0  0
 71 72  1  0  0  0
 71 73  2  0  0  0
 71 84  1  0  0  0
 72 74  2  0  0  0
 72 86  1  0  0  0
 73 75  1  0  0  0
 73 83  1  0  0  0
 74 78  1  0  0  0
 74 83  1  0  0  0
 75146  1  0  0  0
 75147  1  0  0  0
 75148  1  0  0  0
 76149  1  0  0  0
 76150  1  0  0  0
 76151  1  0  0  0
 76 82  1  0  0  0
 77 83  1  0  0  0
 77152  1  0  0  0
 77153  1  0  0  0
 77154  1  0  0  0
 78155  1  0  0  0
 78156  1  0  0  0
 79 80  1  0  0  0
 79 81  1  0  0  0
 79157  1  0  0  0
 79158  1  0  0  0
 80 82  1  0  0  0
 80159  1  0  0  0
 80160  1  0  0  0
 81 85  1  0  0  0
 81161  1  0  0  0
 81162  1  0  0  0
 82 84  1  0  0  0
 82163  1  0  0  0
 84164  1  0  0  0
 85165  1  0  0  0
M  ISO  4   1 100  68 101  78 101  85 100
M  END
> <chiral flag>
0

> <version>
0

> <s_m_source_file>
/data/baiqing/PycharmProjects/Reinvent-master-3.2/result/LINK_invent/BTK/process_docking_weight1_custom_sum_contain_oxygen_bond_distance_aromatic_linkinvent_7_9_3/rearranged_h_0021.sdf

> <i_m_source_file_index>
23

> <r_mmod_Potential_Energy-OPLS-2005>
20327.5625

> <r_mmod_Stretch_Energy-OPLS-2005>
11664.2431640625

> <r_mmod_Bend_Energy-OPLS-2005>
1695.34509277344

> <r_mmod_Torsional_Energy-OPLS-2005>
685.634338378906

> <r_mmod_Improper_Torsional_Energy-OPLS-2005>
115.793266296387

> <r_mmod_Van_der_Waal_Energy-OPLS-2005>
4485.8037109375

> <r_mmod_Electrostatic_Energy-OPLS-2005>
-392.596923828125

> <r_mmod_Solvation_Energy-OPLS-2005>
-222.186065673828

> <b_mmod_Minimization_Converged-OPLS-2005>
0

> <r_mmod_RMS_Derivative-OPLS-2005>
11.7087879180908

$$$$
23
                    3D
 Structure written by MMmdl.
153161  0  0  1  0            999 V2000
  -30.4328  -15.1901   20.3864 C   0  0  0  0  0  0
  -30.4494  -12.7538   19.5250 C   0  0  0  0  0  0
  -29.5411  -12.5714   18.2821 C   0  0  0  0  0  0
  -28.0821  -12.3092   18.7007 C   0  0  0  0  0  0
  -27.6208  -13.2654   19.8299 C   0  0  2  0  0  0
  -28.6557  -13.3849   20.9692 C   0  0  0  0  0  0
  -25.2421  -13.8226   20.5693 C   0  0  0  0  0  0
  -24.1762  -13.0432   20.9220 C   0  0  0  0  0  0
  -24.6404  -11.6924   20.8737 C   0  0  0  0  0  0
  -23.9092  -10.4291   21.0397 C   0  0  0  0  0  0
  -24.3637   -9.4209   21.9179 C   0  0  0  0  0  0
  -23.6302   -8.2244   22.0762 C   0  0  0  0  0  0
  -22.4284   -8.0278   21.3546 C   0  0  0  0  0  0
  -21.9918   -9.0257   20.4655 C   0  0  0  0  0  0
  -22.7255  -10.2133   20.3059 C   0  0  0  0  0  0
  -21.6859   -6.0733   22.5272 C   0  0  0  0  0  0
  -21.4015   -6.5636   23.8203 C   0  0  0  0  0  0
  -21.3663   -5.6790   24.9167 C   0  0  0  0  0  0
  -21.6047   -4.3051   24.7213 C   0  0  0  0  0  0
  -21.8817   -3.8141   23.4333 C   0  0  0  0  0  0
  -21.9192   -4.6960   22.3391 C   0  0  0  0  0  0
  -22.7781  -13.5200   21.1863 C   0  0  0  0  0  0
  -22.1660   -4.2146   21.0970 F   0  0  0  0  0  0
  -21.5636   -3.4537   25.7729 F   0  0  0  0  0  0
  -29.9014  -13.8769   20.3610 N   0  0  0  0  0  0
  -26.2850  -12.9486   20.3199 N   0  0  0  0  0  0
  -25.9343  -11.6602   20.5707 N   0  0  0  0  0  0
  -22.0428  -12.8217   22.0433 N   0  0  0  0  0  0
  -25.4044  -15.1958   20.4109 N   0  0  0  0  0  0
  -31.6441  -15.2485   20.1309 O   0  0  0  0  0  0
  -21.6642   -6.8878   21.4238 O   0  0  0  0  0  0
  -22.3466  -14.5489   20.6680 O   0  0  0  0  0  0
  -24.6575  -31.8293   23.1740 C   0  0  0  0  0  0
  -25.9278  -32.4620   23.8198 C   0  0  1  0  0  0
  -27.2233  -26.9825   20.1770 C   0  0  0  0  0  0
  -25.5966  -33.8434   24.2105 N   0  0  0  0  0  0
  -23.4704  -30.4409   21.5232 C   0  0  2  0  0  0
  -24.9235  -28.8366   20.1134 C   0  0  0  0  0  0
  -22.7644  -29.4462   22.4809 C   0  0  0  0  0  0
  -18.0316  -28.1408   22.8470 C   0  0  0  0  0  0
  -24.1499  -36.7220   23.2645 C   0  0  0  0  0  0
  -26.0358  -30.6538   21.3958 C   0  0  0  0  0  0
  -26.1064  -29.2487   20.7401 C   0  0  0  0  0  0
  -27.2529  -28.3424   20.7449 C   0  0  0  0  0  0
  -26.0093  -26.7055   19.5099 C   0  0  0  0  0  0
  -24.8968  -27.5841   19.4795 C   0  0  0  0  0  0
  -23.7070  -29.7577   20.1487 C   0  0  0  0  0  0
  -25.4137  -36.2985   24.0299 C   0  0  1  0  0  0
  -20.5939  -28.3749   23.1207 C   0  0  2  0  0  0
  -20.6800  -26.9438   22.5409 C   0  0  0  0  0  0
  -19.5774  -26.6381   21.5218 C   0  0  0  0  0  0
  -18.1953  -26.7941   22.1622 C   0  0  0  0  0  0
  -19.1577  -28.8901   23.2826 C   0  0  0  0  0  0
  -18.9481  -30.1492   23.8854 C   0  0  0  0  0  0
  -17.6476  -30.6599   24.0557 C   0  0  0  0  0  0
  -25.9095  -34.9368   23.5023 C   0  0  0  0  0  0
  -16.5369  -29.9084   23.6347 C   0  0  0  0  0  0
  -16.7297  -28.6508   23.0357 C   0  0  0  0  0  0
  -26.4546  -31.6545   25.0706 C   0  0  0  0  0  0
  -25.3685  -31.3775   26.1369 C   0  0  0  0  0  0
  -27.0430  -30.2919   24.6397 C   0  0  0  0  0  0
  -27.6051  -32.4340   25.7502 C   0  0  0  0  0  0
  -27.5575  -37.1767   24.8458 C   0  0  0  0  0  0
  -21.4319  -29.3042   22.3561 N   0  0  0  0  0  0
  -26.4284  -37.3717   23.9404 N   0  0  0  0  0  0
  -24.7422  -30.9999   22.0853 N   0  0  0  0  0  0
  -23.4214  -28.8034   23.3034 O   0  0  0  0  0  0
  -28.2526  -25.9214   20.2369 O   0  0  0  0  0  0
  -26.5704  -34.8889   22.4616 O   0  0  0  0  0  0
  -23.5657  -32.1239   23.6863 O   0  0  0  0  0  0
  -29.0331  -20.2737   19.2438 C   0  0  0  0  0  0
  -29.6447  -18.9186   21.5391 C   0  0  0  0  0  0
  -29.1085  -21.2146   20.3548 C   0  0  0  0  0  0
  -29.2322  -18.7977   19.2701 C   0  0  0  0  0  0
  -29.4404  -20.3906   21.5153 C   0  0  0  0  0  0
  -29.5913  -17.9826   20.4269 C   0  0  0  0  0  0
  -29.0233  -18.0540   17.9642 C   0  0  0  0  0  0
  -29.6282  -21.1130   22.8380 C   0  0  0  0  0  0
  -29.1541  -22.9540   20.2777 C   0  0  0  0  0  0
  -28.0165  -24.3082   20.1884 C   0  0  0  0  0  0
  -29.5861  -16.3811   20.5307 N   0  0  0  0  0  0
  -31.4708  -12.9585   19.2027 H   0  0  0  0  0  0
  -30.5051  -11.8321   20.1060 H   0  0  0  0  0  0
  -29.9096  -11.7553   17.6589 H   0  0  0  0  0  0
  -29.5849  -13.4709   17.6665 H   0  0  0  0  0  0
  -28.0192  -11.2770   19.0484 H   0  0  0  0  0  0
  -27.4186  -12.3820   17.8385 H   0  0  0  0  0  0
  -27.5543  -14.2470   19.3596 H   0  0  0  0  0  0
  -28.8012  -12.4299   21.4763 H   0  0  0  0  0  0
  -28.3080  -14.0872   21.7280 H   0  0  0  0  0  0
  -25.2786   -9.5689   22.4748 H   0  0  0  0  0  0
  -24.0011   -7.4645   22.7492 H   0  0  0  0  0  0
  -21.0841   -8.8776   19.8969 H   0  0  0  0  0  0
  -22.3705  -10.9671   19.6167 H   0  0  0  0  0  0
  -21.2014   -7.6145   23.9706 H   0  0  0  0  0  0
  -21.1490   -6.0519   25.9072 H   0  0  0  0  0  0
  -22.0599   -2.7604   23.2824 H   0  0  0  0  0  0
  -22.4050  -11.9910   22.4882 H   0  0  0  0  0  0
  -21.1040  -13.1255   22.2604 H   0  0  0  0  0  0
  -24.6271  -15.8394   20.5149 H   0  0  0  0  0  0
  -26.2359  -15.6378   20.0433 H   0  0  0  0  0  0
  -26.7343  -32.5181   23.0918 H   0  0  0  0  0  0
  -25.0063  -33.9531   25.0218 H   0  0  0  0  0  0
  -22.7807  -31.2708   21.3556 H   0  0  0  0  0  0
  -23.3772  -35.9537   23.3274 H   0  0  0  0  0  0
  -24.3577  -36.8904   22.2065 H   0  0  0  0  0  0
  -23.7244  -37.6398   23.6720 H   0  0  0  0  0  0
  -26.2088  -31.4002   20.6189 H   0  0  0  0  0  0
  -26.8981  -30.7110   22.0483 H   0  0  0  0  0  0
  -28.1528  -28.6568   21.2549 H   0  0  0  0  0  0
  -25.8896  -25.7488   19.0234 H   0  0  0  0  0  0
  -23.9961  -27.2639   18.9737 H   0  0  0  0  0  0
  -23.8562  -30.5264   19.3904 H   0  0  0  0  0  0
  -22.8188  -29.2073   19.8336 H   0  0  0  0  0  0
  -25.1337  -36.1789   25.0789 H   0  0  0  0  0  0
  -21.0020  -28.3349   24.1332 H   0  0  0  0  0  0
  -20.5698  -26.2358   23.3641 H   0  0  0  0  0  0
  -21.6662  -26.7431   22.1205 H   0  0  0  0  0  0
  -19.6938  -25.6277   21.1283 H   0  0  0  0  0  0
  -19.6720  -27.3160   20.6724 H   0  0  0  0  0  0
  -17.4229  -26.6680   21.4023 H   0  0  0  0  0  0
  -18.0346  -26.0097   22.9031 H   0  0  0  0  0  0
  -19.7956  -30.7322   24.2204 H   0  0  0  0  0  0
  -17.5025  -31.6272   24.5162 H   0  0  0  0  0  0
  -15.5365  -30.2966   23.7699 H   0  0  0  0  0  0
  -15.8694  -28.0811   22.7090 H   0  0  0  0  0  0
  -24.5845  -30.7166   25.7654 H   0  0  0  0  0  0
  -24.8901  -32.2974   26.4738 H   0  0  0  0  0  0
  -25.7913  -30.8951   27.0189 H   0  0  0  0  0  0
  -26.3072  -29.6612   24.1394 H   0  0  0  0  0  0
  -27.3969  -29.7270   25.5031 H   0  0  0  0  0  0
  -27.9018  -30.4114   23.9790 H   0  0  0  0  0  0
  -27.2617  -33.3654   26.2015 H   0  0  0  0  0  0
  -28.3887  -32.6885   25.0354 H   0  0  0  0  0  0
  -28.0693  -31.8520   26.5474 H   0  0  0  0  0  0
  -28.2570  -38.0087   24.7517 H   0  0  0  0  0  0
  -28.1099  -36.2614   24.6271 H   0  0  0  0  0  0
  -27.2295  -37.1388   25.8863 H   0  0  0  0  0  0
  -20.9561  -29.8724   21.6690 H   0  0  0  0  0  0
  -26.0139  -38.2780   24.1413 H   0  0  0  0  0  0
  -28.8227  -20.7154   18.2798 H   0  0  0  0  0  0
  -29.8519  -18.4783   22.5040 H   0  0  0  0  0  0
  -28.8828  -18.7342   17.1234 H   0  0  0  0  0  0
  -28.1408  -17.4171   18.0336 H   0  0  0  0  0  0
  -29.8845  -17.4222   17.7456 H   0  0  0  0  0  0
  -29.5703  -20.4289   23.6856 H   0  0  0  0  0  0
  -28.8614  -21.8746   22.9803 H   0  0  0  0  0  0
  -30.6037  -21.5997   22.8653 H   0  0  0  0  0  0
  -29.8077  -23.1214   19.4213 H   0  0  0  0  0  0
  -29.7892  -23.2226   21.1203 H   0  0  0  0  0  0
  -27.2935  -24.1296   20.9842 H   0  0  0  0  0  0
  -27.4592  -24.1393   19.2672 H   0  0  0  0  0  0
  -28.6565  -16.0555   20.7475 H   0  0  0  0  0  0
  1 25  1  0  0  0
  1 30  2  0  0  0
  1 81  1  0  0  0
  2  3  1  0  0  0
  2 25  1  0  0  0
  2 82  1  0  0  0
  2 83  1  0  0  0
  3  4  1  0  0  0
  3 84  1  0  0  0
  3 85  1  0  0  0
  4  5  1  0  0  0
  4 86  1  0  0  0
  4 87  1  0  0  0
  5  6  1  0  0  0
  5 26  1  0  0  0
  5 88  1  0  0  0
  6 25  1  0  0  0
  6 89  1  0  0  0
  6 90  1  0  0  0
  7  8  2  0  0  0
  7 26  1  0  0  0
  7 29  1  0  0  0
  8  9  1  0  0  0
  8 22  1  0  0  0
  9 10  1  0  0  0
  9 27  2  0  0  0
 10 11  2  0  0  0
 10 15  1  0  0  0
 11 12  1  0  0  0
 11 91  1  0  0  0
 12 13  2  0  0  0
 12 92  1  0  0  0
 13 14  1  0  0  0
 13 31  1  0  0  0
 14 15  2  0  0  0
 14 93  1  0  0  0
 15 94  1  0  0  0
 16 17  2  0  0  0
 16 21  1  0  0  0
 16 31  1  0  0  0
 17 18  1  0  0  0
 17 95  1  0  0  0
 18 19  2  0  0  0
 18 96  1  0  0  0
 19 20  1  0  0  0
 19 24  1  0  0  0
 20 21  2  0  0  0
 20 97  1  0  0  0
 21 23  1  0  0  0
 22 28  1  0  0  0
 22 32  2  0  0  0
 26 27  1  0  0  0
 28 98  1  0  0  0
 28 99  1  0  0  0
 29100  1  0  0  0
 29101  1  0  0  0
 33 34  1  0  0  0
 33 66  1  0  0  0
 33 70  2  0  0  0
 34 36  1  0  0  0
 34 59  1  0  0  0
 34102  1  0  0  0
 35 44  2  0  0  0
 35 45  1  0  0  0
 35 68  1  0  0  0
 36 56  1  0  0  0
 36103  1  0  0  0
 37 39  1  0  0  0
 37 47  1  0  0  0
 37 66  1  0  0  0
 37104  1  0  0  0
 38 43  2  0  0  0
 38 46  1  0  0  0
 38 47  1  0  0  0
 39 64  1  0  0  0
 39 67  2  0  0  0
 40 52  1  0  0  0
 40 53  2  0  0  0
 40 58  1  0  0  0
 41105  1  0  0  0
 41106  1  0  0  0
 41107  1  0  0  0
 41 48  1  0  0  0
 42 43  1  0  0  0
 42 66  1  0  0  0
 42108  1  0  0  0
 42109  1  0  0  0
 43 44  1  0  0  0
 44110  1  0  0  0
 45 46  2  0  0  0
 45111  1  0  0  0
 46112  1  0  0  0
 47113  1  0  0  0
 47114  1  0  0  0
 48 56  1  0  0  0
 48 65  1  0  0  0
 48115  1  0  0  0
 49 50  1  0  0  0
 49 53  1  0  0  0
 49 64  1  0  0  0
 49116  1  0  0  0
 50 51  1  0  0  0
 50117  1  0  0  0
 50118  1  0  0  0
 51 52  1  0  0  0
 51119  1  0  0  0
 51120  1  0  0  0
 52121  1  0  0  0
 52122  1  0  0  0
 53 54  1  0  0  0
 54 55  2  0  0  0
 54123  1  0  0  0
 55 57  1  0  0  0
 55124  1  0  0  0
 56 69  2  0  0  0
 57 58  2  0  0  0
 57125  1  0  0  0
 58126  1  0  0  0
 59 60  1  0  0  0
 59 61  1  0  0  0
 59 62  1  0  0  0
 60127  1  0  0  0
 60128  1  0  0  0
 60129  1  0  0  0
 61130  1  0  0  0
 61131  1  0  0  0
 61132  1  0  0  0
 62133  1  0  0  0
 62134  1  0  0  0
 62135  1  0  0  0
 63 65  1  0  0  0
 63136  1  0  0  0
 63137  1  0  0  0
 63138  1  0  0  0
 64139  1  0  0  0
 65140  1  0  0  0
 68 80  1  0  0  0
 71 73  2  0  0  0
 71 74  1  0  0  0
 71141  1  0  0  0
 72 75  2  0  0  0
 72 76  1  0  0  0
 72142  1  0  0  0
 73 75  1  0  0  0
 73 79  1  0  0  0
 74 76  2  0  0  0
 74 77  1  0  0  0
 75 78  1  0  0  0
 76 81  1  0  0  0
 77143  1  0  0  0
 77144  1  0  0  0
 77145  1  0  0  0
 78146  1  0  0  0
 78147  1  0  0  0
 78148  1  0  0  0
 79 80  1  0  0  0
 79149  1  0  0  0
 79150  1  0  0  0
 80151  1  0  0  0
 80152  1  0  0  0
 81153  1  0  0  0
M  ISO  4   1 100  68 101  80 101  81 100
M  END
> <chiral flag>
0

> <version>
0

> <s_m_source_file>
/data/baiqing/PycharmProjects/Reinvent-master-3.2/result/LINK_invent/BTK/process_docking_weight1_custom_sum_contain_oxygen_bond_distance_aromatic_linkinvent_7_9_3/rearranged_h_0021.sdf

> <i_m_source_file_index>
24

> <r_mmod_Potential_Energy-OPLS-2005>
1022.21630859375

> <r_mmod_Stretch_Energy-OPLS-2005>
453.116027832031

> <r_mmod_Bend_Energy-OPLS-2005>
393.631103515625

> <r_mmod_Torsional_Energy-OPLS-2005>
249.855331420898

> <r_mmod_Improper_Torsional_Energy-OPLS-2005>
8.14629745483398

> <r_mmod_Van_der_Waal_Energy-OPLS-2005>
126.317161560059

> <r_mmod_Electrostatic_Energy-OPLS-2005>
-379.470703125

> <r_mmod_Solvation_Energy-OPLS-2005>
-209.341781616211

> <b_mmod_Minimization_Converged-OPLS-2005>
0

> <r_mmod_RMS_Derivative-OPLS-2005>
1.38970375061035

$$$$
24
                    3D
 Structure written by MMmdl.
156164  0  0  1  0            999 V2000
  -30.6385  -14.6013   20.5260 C   0  0  0  0  0  0
  -30.4378  -12.3726   19.4491 C   0  0  0  0  0  0
  -29.5068  -12.5087   18.2235 C   0  0  0  0  0  0
  -28.0291  -12.3512   18.6345 C   0  0  0  0  0  0
  -27.6578  -13.2133   19.8705 C   0  0  2  0  0  0
  -28.7008  -13.0436   20.9987 C   0  0  0  0  0  0
  -25.2576  -13.8166   20.5683 C   0  0  0  0  0  0
  -24.1835  -13.0440   20.9187 C   0  0  0  0  0  0
  -24.6397  -11.6910   20.8739 C   0  0  0  0  0  0
  -23.9064  -10.4294   21.0406 C   0  0  0  0  0  0
  -24.3613   -9.4211   21.9184 C   0  0  0  0  0  0
  -23.6290   -8.2245   22.0755 C   0  0  0  0  0  0
  -22.4274   -8.0282   21.3544 C   0  0  0  0  0  0
  -21.9908   -9.0255   20.4647 C   0  0  0  0  0  0
  -22.7235  -10.2136   20.3056 C   0  0  0  0  0  0
  -21.6852   -6.0736   22.5278 C   0  0  0  0  0  0
  -21.4014   -6.5640   23.8212 C   0  0  0  0  0  0
  -21.3659   -5.6792   24.9173 C   0  0  0  0  0  0
  -21.6046   -4.3056   24.7224 C   0  0  0  0  0  0
  -21.8819   -3.8148   23.4346 C   0  0  0  0  0  0
  -21.9193   -4.6964   22.3402 C   0  0  0  0  0  0
  -22.7858  -13.5236   21.1849 C   0  0  0  0  0  0
  -22.1662   -4.2149   21.0980 F   0  0  0  0  0  0
  -21.5628   -3.4541   25.7739 F   0  0  0  0  0  0
  -30.0228  -13.3810   20.4434 N   0  0  0  0  0  0
  -26.3009  -12.9345   20.3344 N   0  0  0  0  0  0
  -25.9327  -11.6501   20.5765 N   0  0  0  0  0  0
  -22.0496  -12.8230   22.0404 N   0  0  0  0  0  0
  -25.4288  -15.1884   20.4083 N   0  0  0  0  0  0
  -31.7819  -14.7789   20.0955 O   0  0  0  0  0  0
  -21.6638   -6.8879   21.4241 O   0  0  0  0  0  0
  -22.3545  -14.5545   20.6701 O   0  0  0  0  0  0
  -24.6236  -31.8619   23.2052 C   0  0  0  0  0  0
  -25.9097  -32.4785   23.8366 C   0  0  1  0  0  0
  -27.2245  -27.3447   20.1105 C   0  0  0  0  0  0
  -25.5922  -33.8585   24.2293 N   0  0  0  0  0  0
  -23.4153  -30.4872   21.5474 C   0  0  2  0  0  0
  -24.8614  -28.9487   20.1103 C   0  0  0  0  0  0
  -22.7460  -29.4636   22.4949 C   0  0  0  0  0  0
  -18.0285  -28.1381   22.8491 C   0  0  0  0  0  0
  -24.1489  -36.7302   23.2636 C   0  0  0  0  0  0
  -25.9546  -30.8010   21.3730 C   0  0  0  0  0  0
  -26.0291  -29.4312   20.7143 C   0  0  0  0  0  0
  -27.2132  -28.6399   20.7069 C   0  0  0  0  0  0
  -26.0334  -26.9128   19.4794 C   0  0  0  0  0  0
  -24.8643  -27.6938   19.4851 C   0  0  0  0  0  0
  -23.6280  -29.8247   20.1615 C   0  0  0  0  0  0
  -25.4113  -36.3088   24.0330 C   0  0  1  0  0  0
  -20.5883  -28.3684   23.1295 C   0  0  2  0  0  0
  -20.6776  -26.9408   22.5415 C   0  0  0  0  0  0
  -19.5752  -26.6387   21.5215 C   0  0  0  0  0  0
  -18.1929  -26.7926   22.1624 C   0  0  0  0  0  0
  -19.1536  -28.8849   23.2888 C   0  0  0  0  0  0
  -18.9460  -30.1452   23.8901 C   0  0  0  0  0  0
  -17.6460  -30.6583   24.0565 C   0  0  0  0  0  0
  -25.9049  -34.9455   23.5114 C   0  0  0  0  0  0
  -16.5353  -29.9084   23.6328 C   0  0  0  0  0  0
  -16.7273  -28.6502   23.0350 C   0  0  0  0  0  0
  -26.4492  -31.6584   25.0726 C   0  0  0  0  0  0
  -25.3732  -31.3709   26.1456 C   0  0  0  0  0  0
  -27.0330  -30.3011   24.6162 C   0  0  0  0  0  0
  -27.6064  -32.4309   25.7489 C   0  0  0  0  0  0
  -27.5582  -37.1800   24.8461 C   0  0  0  0  0  0
  -21.4178  -29.3040   22.3691 N   0  0  0  0  0  0
  -26.4291  -37.3782   23.9408 N   0  0  0  0  0  0
  -24.6831  -31.0657   22.0990 N   0  0  0  0  0  0
  -23.4198  -28.8172   23.3013 O   0  0  0  0  0  0
  -28.3503  -26.5126   20.1667 O   0  0  0  0  0  0
  -26.5617  -34.8918   22.4679 O   0  0  0  0  0  0
  -23.5408  -32.1411   23.7398 O   0  0  0  0  0  0
  -29.1009  -19.3058   21.5886 C   0  0  0  0  0  0
  -30.8173  -17.7670   20.0034 C   0  0  0  0  0  0
  -29.0740  -17.8826   21.6678 C   0  0  0  0  0  0
  -29.9897  -19.9998   20.7323 C   0  0  0  0  0  0
  -29.9481  -17.0739   20.8861 C   0  0  0  0  0  0
  -30.8414  -19.1903   19.9243 C   0  0  0  0  0  0
  -28.1020  -17.2300   22.6369 C   0  0  0  0  0  0
  -30.1313  -21.5599   20.8245 C   0  0  0  0  0  0
  -29.0014  -22.5182   20.2806 C   0  0  0  0  0  0
  -29.2672  -24.0744   20.4722 C   0  0  0  0  0  0
  -28.1401  -25.0658   19.9892 C   0  0  0  0  0  0
  -29.8633  -15.6200   20.9999 N   0  0  0  0  0  0
  -31.9684  -19.9140   18.8311 Cl  0  0  0  0  0  0
  -31.4798  -12.4937   19.1474 H   0  0  0  0  0  0
  -30.3669  -11.3716   19.8768 H   0  0  0  0  0  0
  -29.7655  -11.7642   17.4695 H   0  0  0  0  0  0
  -29.6548  -13.4826   17.7545 H   0  0  0  0  0  0
  -27.8598  -11.2969   18.8564 H   0  0  0  0  0  0
  -27.3756  -12.5927   17.7953 H   0  0  0  0  0  0
  -27.6851  -14.2529   19.5440 H   0  0  0  0  0  0
  -28.7027  -12.0157   21.3641 H   0  0  0  0  0  0
  -28.4452  -13.6591   21.8623 H   0  0  0  0  0  0
  -25.2758   -9.5689   22.4759 H   0  0  0  0  0  0
  -24.0002   -7.4638   22.7474 H   0  0  0  0  0  0
  -21.0840   -8.8773   19.8951 H   0  0  0  0  0  0
  -22.3693  -10.9675   19.6166 H   0  0  0  0  0  0
  -21.2006   -7.6148   23.9715 H   0  0  0  0  0  0
  -21.1482   -6.0524   25.9076 H   0  0  0  0  0  0
  -22.0598   -2.7611   23.2846 H   0  0  0  0  0  0
  -22.4107  -11.9888   22.4788 H   0  0  0  0  0  0
  -21.1115  -13.1260   22.2610 H   0  0  0  0  0  0
  -24.6587  -15.8405   20.5088 H   0  0  0  0  0  0
  -26.2738  -15.6252   20.0628 H   0  0  0  0  0  0
  -26.7167  -32.5466   23.1119 H   0  0  0  0  0  0
  -25.0054  -33.9729   25.0428 H   0  0  0  0  0  0
  -22.7078  -31.3073   21.4069 H   0  0  0  0  0  0
  -23.3749  -35.9636   23.3294 H   0  0  0  0  0  0
  -24.3584  -36.8930   22.2053 H   0  0  0  0  0  0
  -23.7248  -37.6504   23.6663 H   0  0  0  0  0  0
  -26.0827  -31.5654   20.6052 H   0  0  0  0  0  0
  -26.8364  -30.8491   22.0002 H   0  0  0  0  0  0
  -28.1082  -29.0042   21.1920 H   0  0  0  0  0  0
  -25.9743  -25.9564   18.9821 H   0  0  0  0  0  0
  -23.9693  -27.3203   19.0065 H   0  0  0  0  0  0
  -23.7426  -30.6020   19.4047 H   0  0  0  0  0  0
  -22.7490  -29.2518   19.8615 H   0  0  0  0  0  0
  -25.1289  -36.1942   25.0821 H   0  0  0  0  0  0
  -20.9976  -28.3257   24.1417 H   0  0  0  0  0  0
  -20.5692  -26.2285   23.3609 H   0  0  0  0  0  0
  -21.6643  -26.7446   22.1202 H   0  0  0  0  0  0
  -19.6914  -25.6301   21.1239 H   0  0  0  0  0  0
  -19.6694  -27.3202   20.6751 H   0  0  0  0  0  0
  -17.4203  -26.6684   21.4020 H   0  0  0  0  0  0
  -18.0322  -26.0061   22.9012 H   0  0  0  0  0  0
  -19.7935  -30.7267   24.2275 H   0  0  0  0  0  0
  -17.5014  -31.6265   24.5163 H   0  0  0  0  0  0
  -15.5353  -30.2986   23.7648 H   0  0  0  0  0  0
  -15.8674  -28.0824   22.7061 H   0  0  0  0  0  0
  -24.5926  -30.7033   25.7790 H   0  0  0  0  0  0
  -24.8894  -32.2865   26.4871 H   0  0  0  0  0  0
  -25.8066  -30.8906   27.0238 H   0  0  0  0  0  0
  -26.2898  -29.6759   24.1203 H   0  0  0  0  0  0
  -27.4055  -29.7266   25.4654 H   0  0  0  0  0  0
  -27.8752  -30.4300   23.9361 H   0  0  0  0  0  0
  -27.2696  -33.3616   26.2066 H   0  0  0  0  0  0
  -28.3873  -32.6855   25.0310 H   0  0  0  0  0  0
  -28.0731  -31.8428   26.5402 H   0  0  0  0  0  0
  -28.2592  -38.0102   24.7517 H   0  0  0  0  0  0
  -28.1088  -36.2639   24.6276 H   0  0  0  0  0  0
  -27.2303  -37.1435   25.8863 H   0  0  0  0  0  0
  -20.9352  -29.8763   21.6903 H   0  0  0  0  0  0
  -26.0177  -38.2857   24.1414 H   0  0  0  0  0  0
  -28.4495  -19.8836   22.2298 H   0  0  0  0  0  0
  -31.4915  -17.2133   19.3673 H   0  0  0  0  0  0
  -27.5283  -17.9721   23.1928 H   0  0  0  0  0  0
  -28.6393  -16.6177   23.3617 H   0  0  0  0  0  0
  -27.3940  -16.5947   22.1049 H   0  0  0  0  0  0
  -31.0726  -21.8610   20.3679 H   0  0  0  0  0  0
  -30.2694  -21.7841   21.8828 H   0  0  0  0  0  0
  -28.0615  -22.2609   20.7697 H   0  0  0  0  0  0
  -28.8524  -22.3155   19.2196 H   0  0  0  0  0  0
  -30.1950  -24.3354   19.9626 H   0  0  0  0  0  0
  -29.4487  -24.2635   21.5306 H   0  0  0  0  0  0
  -27.2302  -24.7758   20.5176 H   0  0  0  0  0  0
  -27.9611  -24.8793   18.9297 H   0  0  0  0  0  0
  -29.0155  -15.2875   21.4314 H   0  0  0  0  0  0
  1 25  1  0  0  0
  1 30  2  0  0  0
  1 82  1  0  0  0
  2  3  1  0  0  0
  2 25  1  0  0  0
  2 84  1  0  0  0
  2 85  1  0  0  0
  3  4  1  0  0  0
  3 86  1  0  0  0
  3 87  1  0  0  0
  4  5  1  0  0  0
  4 88  1  0  0  0
  4 89  1  0  0  0
  5  6  1  0  0  0
  5 26  1  0  0  0
  5 90  1  0  0  0
  6 25  1  0  0  0
  6 91  1  0  0  0
  6 92  1  0  0  0
  7  8  2  0  0  0
  7 26  1  0  0  0
  7 29  1  0  0  0
  8  9  1  0  0  0
  8 22  1  0  0  0
  9 10  1  0  0  0
  9 27  2  0  0  0
 10 11  2  0  0  0
 10 15  1  0  0  0
 11 12  1  0  0  0
 11 93  1  0  0  0
 12 13  2  0  0  0
 12 94  1  0  0  0
 13 14  1  0  0  0
 13 31  1  0  0  0
 14 15  2  0  0  0
 14 95  1  0  0  0
 15 96  1  0  0  0
 16 17  2  0  0  0
 16 21  1  0  0  0
 16 31  1  0  0  0
 17 18  1  0  0  0
 17 97  1  0  0  0
 18 19  2  0  0  0
 18 98  1  0  0  0
 19 20  1  0  0  0
 19 24  1  0  0  0
 20 21  2  0  0  0
 20 99  1  0  0  0
 21 23  1  0  0  0
 22 28  1  0  0  0
 22 32  2  0  0  0
 26 27  1  0  0  0
 28100  1  0  0  0
 28101  1  0  0  0
 29102  1  0  0  0
 29103  1  0  0  0
 33 34  1  0  0  0
 33 66  1  0  0  0
 33 70  2  0  0  0
 34 36  1  0  0  0
 34 59  1  0  0  0
 34104  1  0  0  0
 35 44  2  0  0  0
 35 45  1  0  0  0
 35 68  1  0  0  0
 36 56  1  0  0  0
 36105  1  0  0  0
 37 39  1  0  0  0
 37 47  1  0  0  0
 37 66  1  0  0  0
 37106  1  0  0  0
 38 43  2  0  0  0
 38 46  1  0  0  0
 38 47  1  0  0  0
 39 64  1  0  0  0
 39 67  2  0  0  0
 40 52  1  0  0  0
 40 53  2  0  0  0
 40 58  1  0  0  0
 41107  1  0  0  0
 41108  1  0  0  0
 41109  1  0  0  0
 41 48  1  0  0  0
 42 43  1  0  0  0
 42 66  1  0  0  0
 42110  1  0  0  0
 42111  1  0  0  0
 43 44  1  0  0  0
 44112  1  0  0  0
 45 46  2  0  0  0
 45113  1  0  0  0
 46114  1  0  0  0
 47115  1  0  0  0
 47116  1  0  0  0
 48 56  1  0  0  0
 48 65  1  0  0  0
 48117  1  0  0  0
 49 50  1  0  0  0
 49 53  1  0  0  0
 49 64  1  0  0  0
 49118  1  0  0  0
 50 51  1  0  0  0
 50119  1  0  0  0
 50120  1  0  0  0
 51 52  1  0  0  0
 51121  1  0  0  0
 51122  1  0  0  0
 52123  1  0  0  0
 52124  1  0  0  0
 53 54  1  0  0  0
 54 55  2  0  0  0
 54125  1  0  0  0
 55 57  1  0  0  0
 55126  1  0  0  0
 56 69  2  0  0  0
 57 58  2  0  0  0
 57127  1  0  0  0
 58128  1  0  0  0
 59 60  1  0  0  0
 59 61  1  0  0  0
 59 62  1  0  0  0
 60129  1  0  0  0
 60130  1  0  0  0
 60131  1  0  0  0
 61132  1  0  0  0
 61133  1  0  0  0
 61134  1  0  0  0
 62135  1  0  0  0
 62136  1  0  0  0
 62137  1  0  0  0
 63 65  1  0  0  0
 63138  1  0  0  0
 63139  1  0  0  0
 63140  1  0  0  0
 64141  1  0  0  0
 65142  1  0  0  0
 68 81  1  0  0  0
 71 73  2  0  0  0
 71 74  1  0  0  0
 71143  1  0  0  0
 72 75  2  0  0  0
 72 76  1  0  0  0
 72144  1  0  0  0
 73 75  1  0  0  0
 73 77  1  0  0  0
 74 76  2  0  0  0
 74 78  1  0  0  0
 75 82  1  0  0  0
 76 83  1  0  0  0
 77145  1  0  0  0
 77146  1  0  0  0
 77147  1  0  0  0
 78 79  1  0  0  0
 78148  1  0  0  0
 78149  1  0  0  0
 79 80  1  0  0  0
 79150  1  0  0  0
 79151  1  0  0  0
 80 81  1  0  0  0
 80152  1  0  0  0
 80153  1  0  0  0
 81154  1  0  0  0
 81155  1  0  0  0
 82156  1  0  0  0
M  ISO  4   1 100  68 101  81 101  82 100
M  END
> <chiral flag>
0

> <version>
0

> <s_m_source_file>
/data/baiqing/PycharmProjects/Reinvent-master-3.2/result/LINK_invent/BTK/process_docking_weight1_custom_sum_contain_oxygen_bond_distance_aromatic_linkinvent_7_9_3/rearranged_h_0021.sdf

> <i_m_source_file_index>
25

> <r_mmod_Potential_Energy-OPLS-2005>
17.1213474273682

> <r_mmod_Stretch_Energy-OPLS-2005>
68.4365234375

> <r_mmod_Bend_Energy-OPLS-2005>
125.394889831543

> <r_mmod_Torsional_Energy-OPLS-2005>
209.363418579102

> <r_mmod_Improper_Torsional_Energy-OPLS-2005>
3.90439558029175

> <r_mmod_Van_der_Waal_Energy-OPLS-2005>
145.9453125

> <r_mmod_Electrostatic_Energy-OPLS-2005>
-372.164367675781

> <r_mmod_Solvation_Energy-OPLS-2005>
-201.175415039062

> <b_mmod_Minimization_Converged-OPLS-2005>
0

> <r_mmod_RMS_Derivative-OPLS-2005>
0.546240866184235

$$$$
25
                    3D
 Structure written by MMmdl.
156164  0  0  1  0            999 V2000
  -30.5337  -14.9487   20.4284 C   0  0  0  0  0  0
  -30.4380  -12.5902   19.4941 C   0  0  0  0  0  0
  -29.5206  -12.5317   18.2507 C   0  0  0  0  0  0
  -28.0510  -12.3255   18.6676 C   0  0  0  0  0  0
  -27.6273  -13.2512   19.8387 C   0  0  2  0  0  0
  -28.6698  -13.2737   20.9747 C   0  0  0  0  0  0
  -25.2430  -13.8206   20.5719 C   0  0  0  0  0  0
  -24.1766  -13.0411   20.9240 C   0  0  0  0  0  0
  -24.6398  -11.6906   20.8755 C   0  0  0  0  0  0
  -23.9092  -10.4279   21.0385 C   0  0  0  0  0  0
  -24.3637   -9.4190   21.9163 C   0  0  0  0  0  0
  -23.6304   -8.2237   22.0728 C   0  0  0  0  0  0
  -22.4284   -8.0283   21.3528 C   0  0  0  0  0  0
  -21.9923   -9.0252   20.4621 C   0  0  0  0  0  0
  -22.7254  -10.2134   20.3034 C   0  0  0  0  0  0
  -21.6856   -6.0735   22.5272 C   0  0  0  0  0  0
  -21.4016   -6.5628   23.8205 C   0  0  0  0  0  0
  -21.3670   -5.6775   24.9163 C   0  0  0  0  0  0
  -21.6050   -4.3042   24.7206 C   0  0  0  0  0  0
  -21.8826   -3.8138   23.4324 C   0  0  0  0  0  0
  -21.9195   -4.6963   22.3382 C   0  0  0  0  0  0
  -22.7785  -13.5165   21.1917 C   0  0  0  0  0  0
  -22.1662   -4.2152   21.0962 F   0  0  0  0  0  0
  -21.5640   -3.4523   25.7719 F   0  0  0  0  0  0
  -29.9405  -13.6889   20.3715 N   0  0  0  0  0  0
  -26.2868  -12.9460   20.3258 N   0  0  0  0  0  0
  -25.9332  -11.6573   20.5736 N   0  0  0  0  0  0
  -22.0469  -12.8133   22.0491 N   0  0  0  0  0  0
  -25.4027  -15.1944   20.4144 N   0  0  0  0  0  0
  -31.7442  -15.0121   20.1925 O   0  0  0  0  0  0
  -21.6630   -6.8892   21.4248 O   0  0  0  0  0  0
  -22.3453  -14.5462   20.6749 O   0  0  0  0  0  0
  -24.6440  -31.8422   23.1855 C   0  0  0  0  0  0
  -25.9213  -32.4679   23.8256 C   0  0  1  0  0  0
  -27.2186  -27.1248   20.1667 C   0  0  0  0  0  0
  -25.5951  -33.8491   24.2176 N   0  0  0  0  0  0
  -23.4489  -30.4591   21.5312 C   0  0  2  0  0  0
  -24.8978  -28.8748   20.1189 C   0  0  0  0  0  0
  -22.7564  -29.4552   22.4868 C   0  0  0  0  0  0
  -18.0312  -28.1407   22.8478 C   0  0  0  0  0  0
  -24.1493  -36.7255   23.2642 C   0  0  0  0  0  0
  -26.0046  -30.7125   21.3836 C   0  0  0  0  0  0
  -26.0754  -29.3198   20.7329 C   0  0  0  0  0  0
  -27.2393  -28.4635   20.7321 C   0  0  0  0  0  0
  -26.0149  -26.7721   19.5242 C   0  0  0  0  0  0
  -24.8798  -27.6139   19.4987 C   0  0  0  0  0  0
  -23.6757  -29.7805   20.1543 C   0  0  0  0  0  0
  -25.4126  -36.3031   24.0313 C   0  0  1  0  0  0
  -20.5915  -28.3743   23.1230 C   0  0  2  0  0  0
  -20.6811  -26.9445   22.5408 C   0  0  0  0  0  0
  -19.5784  -26.6391   21.5225 C   0  0  0  0  0  0
  -18.1955  -26.7945   22.1625 C   0  0  0  0  0  0
  -19.1562  -28.8895   23.2847 C   0  0  0  0  0  0
  -18.9480  -30.1487   23.8877 C   0  0  0  0  0  0
  -17.6478  -30.6600   24.0563 C   0  0  0  0  0  0
  -25.9078  -34.9403   23.5057 C   0  0  0  0  0  0
  -16.5370  -29.9093   23.6337 C   0  0  0  0  0  0
  -16.7298  -28.6513   23.0356 C   0  0  0  0  0  0
  -26.4526  -31.6561   25.0706 C   0  0  0  0  0  0
  -25.3708  -31.3754   26.1399 C   0  0  0  0  0  0
  -27.0385  -30.2953   24.6303 C   0  0  0  0  0  0
  -27.6046  -32.4336   25.7490 C   0  0  0  0  0  0
  -27.5582  -37.1783   24.8464 C   0  0  0  0  0  0
  -21.4261  -29.3052   22.3594 N   0  0  0  0  0  0
  -26.4295  -37.3743   23.9400 N   0  0  0  0  0  0
  -24.7194  -31.0272   22.0880 N   0  0  0  0  0  0
  -23.4195  -28.8121   23.3050 O   0  0  0  0  0  0
  -28.2941  -26.1664   20.1563 O   0  0  0  0  0  0
  -26.5671  -34.8898   22.4639 O   0  0  0  0  0  0
  -23.5554  -32.1304   23.7073 O   0  0  0  0  0  0
  -28.9513  -21.9227   19.5772 C   0  0  0  0  0  0
  -28.5333  -23.4143   19.6007 C   0  0  0  0  0  0
  -29.0882  -21.7777   18.2159 C   0  0  0  0  0  0
  -28.9591  -24.5398   21.8838 C   0  0  0  0  0  0
  -28.6826  -23.1094   16.0788 C   0  0  0  0  0  0
  -29.3626  -20.6354   20.5472 C   0  0  0  0  0  0
  -29.0962  -18.9753   20.2343 C   0  0  0  0  0  0
  -30.0998  -17.6780   20.6627 C   0  0  0  0  0  0
  -28.1537  -24.6662   20.5879 C   0  0  1  0  0  0
  -28.3793  -23.8686   18.3550 N   0  0  0  0  0  0
  -28.7189  -22.8891   17.5129 N   0  0  0  0  0  0
  -29.7487  -16.1332   20.5534 N   0  0  0  0  0  0
  -29.7103  -20.4299   17.3415 Cl  0  0  0  0  0  0
  -31.4729  -12.7465   19.1851 H   0  0  0  0  0  0
  -30.4295  -11.6365   20.0257 H   0  0  0  0  0  0
  -29.8389  -11.7326   17.5791 H   0  0  0  0  0  0
  -29.6118  -13.4617   17.6871 H   0  0  0  0  0  0
  -27.9409  -11.2839   18.9680 H   0  0  0  0  0  0
  -27.3887  -12.4672   17.8125 H   0  0  0  0  0  0
  -27.5899  -14.2562   19.4182 H   0  0  0  0  0  0
  -28.7591  -12.2959   21.4483 H   0  0  0  0  0  0
  -28.3739  -13.9706   21.7617 H   0  0  0  0  0  0
  -25.2792   -9.5660   22.4724 H   0  0  0  0  0  0
  -24.0036   -7.4610   22.7404 H   0  0  0  0  0  0
  -21.0872   -8.8721   19.8901 H   0  0  0  0  0  0
  -22.3698  -10.9653   19.6123 H   0  0  0  0  0  0
  -21.2008   -7.6132   23.9715 H   0  0  0  0  0  0
  -21.1498   -6.0496   25.9074 H   0  0  0  0  0  0
  -22.0613   -2.7599   23.2789 H   0  0  0  0  0  0
  -22.4131  -11.9829   22.4901 H   0  0  0  0  0  0
  -21.1049  -13.1067   22.2636 H   0  0  0  0  0  0
  -24.6227  -15.8340   20.5296 H   0  0  0  0  0  0
  -26.2327  -15.6447   20.0526 H   0  0  0  0  0  0
  -26.7274  -32.5281   23.0977 H   0  0  0  0  0  0
  -25.0063  -33.9603   25.0305 H   0  0  0  0  0  0
  -22.7532  -31.2846   21.3716 H   0  0  0  0  0  0
  -23.3761  -35.9581   23.3292 H   0  0  0  0  0  0
  -24.3582  -36.8903   22.2059 H   0  0  0  0  0  0
  -23.7242  -37.6445   23.6689 H   0  0  0  0  0  0
  -26.1601  -31.4644   20.6090 H   0  0  0  0  0  0
  -26.8732  -30.7647   22.0282 H   0  0  0  0  0  0
  -28.1444  -28.8083   21.2117 H   0  0  0  0  0  0
  -25.9462  -25.8067   19.0424 H   0  0  0  0  0  0
  -23.9805  -27.2674   19.0069 H   0  0  0  0  0  0
  -23.8126  -30.5481   19.3918 H   0  0  0  0  0  0
  -22.7913  -29.2183   19.8489 H   0  0  0  0  0  0
  -25.1318  -36.1855   25.0807 H   0  0  0  0  0  0
  -21.0012  -28.3343   24.1353 H   0  0  0  0  0  0
  -20.5728  -26.2360   23.3622 H   0  0  0  0  0  0
  -21.6672  -26.7471   22.1185 H   0  0  0  0  0  0
  -19.6948  -25.6294   21.1271 H   0  0  0  0  0  0
  -19.6722  -27.3188   20.6727 H   0  0  0  0  0  0
  -17.4230  -26.6694   21.4015 H   0  0  0  0  0  0
  -18.0353  -26.0095   22.9020 H   0  0  0  0  0  0
  -19.7955  -30.7312   24.2234 H   0  0  0  0  0  0
  -17.5028  -31.6277   24.5165 H   0  0  0  0  0  0
  -15.5368  -30.2984   23.7682 H   0  0  0  0  0  0
  -15.8696  -28.0821   22.7087 H   0  0  0  0  0  0
  -24.5888  -30.7105   25.7719 H   0  0  0  0  0  0
  -24.8899  -32.2935   26.4784 H   0  0  0  0  0  0
  -25.7985  -30.8948   27.0209 H   0  0  0  0  0  0
  -26.3001  -29.6669   24.1314 H   0  0  0  0  0  0
  -27.3989  -29.7264   25.4885 H   0  0  0  0  0  0
  -27.8911  -30.4176   23.9621 H   0  0  0  0  0  0
  -27.2630  -33.3651   26.2013 H   0  0  0  0  0  0
  -28.3877  -32.6878   25.0339 H   0  0  0  0  0  0
  -28.0689  -31.8509   26.5453 H   0  0  0  0  0  0
  -28.2587  -38.0093   24.7517 H   0  0  0  0  0  0
  -28.1091  -36.2623   24.6281 H   0  0  0  0  0  0
  -27.2302  -37.1417   25.8869 H   0  0  0  0  0  0
  -20.9496  -29.8698   21.6705 H   0  0  0  0  0  0
  -26.0161  -38.2811   24.1408 H   0  0  0  0  0  0
  -28.8130  -23.5604   22.3388 H   0  0  0  0  0  0
  -28.6614  -25.2936   22.6126 H   0  0  0  0  0  0
  -30.0247  -24.6598   21.6925 H   0  0  0  0  0  0
  -27.9777  -22.4142   15.6215 H   0  0  0  0  0  0
  -29.6717  -22.9349   15.6551 H   0  0  0  0  0  0
  -28.3722  -24.1289   15.8473 H   0  0  0  0  0  0
  -28.9709  -20.8177   21.5472 H   0  0  0  0  0  0
  -30.4408  -20.7052   20.6979 H   0  0  0  0  0  0
  -28.9303  -18.8430   19.1709 H   0  0  0  0  0  0
  -28.1134  -18.7610   20.6546 H   0  0  0  0  0  0
  -30.3481  -17.8241   21.7149 H   0  0  0  0  0  0
  -31.0481  -17.8185   20.1441 H   0  0  0  0  0  0
  -27.1068  -24.5371   20.8671 H   0  0  0  0  0  0
  -28.7649  -15.9371   20.6590 H   0  0  0  0  0  0
  1 25  1  0  0  0
  1 30  2  0  0  0
  1 82  1  0  0  0
  2  3  1  0  0  0
  2 25  1  0  0  0
  2 84  1  0  0  0
  2 85  1  0  0  0
  3  4  1  0  0  0
  3 86  1  0  0  0
  3 87  1  0  0  0
  4  5  1  0  0  0
  4 88  1  0  0  0
  4 89  1  0  0  0
  5  6  1  0  0  0
  5 26  1  0  0  0
  5 90  1  0  0  0
  6 25  1  0  0  0
  6 91  1  0  0  0
  6 92  1  0  0  0
  7  8  2  0  0  0
  7 26  1  0  0  0
  7 29  1  0  0  0
  8  9  1  0  0  0
  8 22  1  0  0  0
  9 10  1  0  0  0
  9 27  2  0  0  0
 10 11  2  0  0  0
 10 15  1  0  0  0
 11 12  1  0  0  0
 11 93  1  0  0  0
 12 13  2  0  0  0
 12 94  1  0  0  0
 13 14  1  0  0  0
 13 31  1  0  0  0
 14 15  2  0  0  0
 14 95  1  0  0  0
 15 96  1  0  0  0
 16 17  2  0  0  0
 16 21  1  0  0  0
 16 31  1  0  0  0
 17 18  1  0  0  0
 17 97  1  0  0  0
 18 19  2  0  0  0
 18 98  1  0  0  0
 19 20  1  0  0  0
 19 24  1  0  0  0
 20 21  2  0  0  0
 20 99  1  0  0  0
 21 23  1  0  0  0
 22 28  1  0  0  0
 22 32  2  0  0  0
 26 27  1  0  0  0
 28100  1  0  0  0
 28101  1  0  0  0
 29102  1  0  0  0
 29103  1  0  0  0
 33 34  1  0  0  0
 33 66  1  0  0  0
 33 70  2  0  0  0
 34 36  1  0  0  0
 34 59  1  0  0  0
 34104  1  0  0  0
 35 44  2  0  0  0
 35 45  1  0  0  0
 35 68  1  0  0  0
 36 56  1  0  0  0
 36105  1  0  0  0
 37 39  1  0  0  0
 37 47  1  0  0  0
 37 66  1  0  0  0
 37106  1  0  0  0
 38 43  2  0  0  0
 38 46  1  0  0  0
 38 47  1  0  0  0
 39 64  1  0  0  0
 39 67  2  0  0  0
 40 52  1  0  0  0
 40 53  2  0  0  0
 40 58  1  0  0  0
 41107  1  0  0  0
 41108  1  0  0  0
 41109  1  0  0  0
 41 48  1  0  0  0
 42 43  1  0  0  0
 42 66  1  0  0  0
 42110  1  0  0  0
 42111  1  0  0  0
 43 44  1  0  0  0
 44112  1  0  0  0
 45 46  2  0  0  0
 45113  1  0  0  0
 46114  1  0  0  0
 47115  1  0  0  0
 47116  1  0  0  0
 48 56  1  0  0  0
 48 65  1  0  0  0
 48117  1  0  0  0
 49 50  1  0  0  0
 49 53  1  0  0  0
 49 64  1  0  0  0
 49118  1  0  0  0
 50 51  1  0  0  0
 50119  1  0  0  0
 50120  1  0  0  0
 51 52  1  0  0  0
 51121  1  0  0  0
 51122  1  0  0  0
 52123  1  0  0  0
 52124  1  0  0  0
 53 54  1  0  0  0
 54 55  2  0  0  0
 54125  1  0  0  0
 55 57  1  0  0  0
 55126  1  0  0  0
 56 69  2  0  0  0
 57 58  2  0  0  0
 57127  1  0  0  0
 58128  1  0  0  0
 59 60  1  0  0  0
 59 61  1  0  0  0
 59 62  1  0  0  0
 60129  1  0  0  0
 60130  1  0  0  0
 60131  1  0  0  0
 61132  1  0  0  0
 61133  1  0  0  0
 61134  1  0  0  0
 62135  1  0  0  0
 62136  1  0  0  0
 62137  1  0  0  0
 63 65  1  0  0  0
 63138  1  0  0  0
 63139  1  0  0  0
 63140  1  0  0  0
 64141  1  0  0  0
 65142  1  0  0  0
 68 79  1  0  0  0
 71 72  1  0  0  0
 71 73  2  0  0  0
 71 76  1  0  0  0
 72 79  1  0  0  0
 72 80  2  0  0  0
 73 81  1  0  0  0
 73 83  1  0  0  0
 74143  1  0  0  0
 74144  1  0  0  0
 74145  1  0  0  0
 74 79  1  0  0  0
 75 81  1  0  0  0
 75146  1  0  0  0
 75147  1  0  0  0
 75148  1  0  0  0
 76 77  1  0  0  0
 76149  1  0  0  0
 76150  1  0  0  0
 77 78  1  0  0  0
 77151  1  0  0  0
 77152  1  0  0  0
 78 82  1  0  0  0
 78153  1  0  0  0
 78154  1  0  0  0
 79155  1  0  0  0
 80 81  1  0  0  0
 82156  1  0  0  0
M  ISO  4   1 100  68 101  79 101  82 100
M  END
> <chiral flag>
0

> <version>
0

> <s_m_source_file>
/data/baiqing/PycharmProjects/Reinvent-master-3.2/result/LINK_invent/BTK/process_docking_weight1_custom_sum_contain_oxygen_bond_distance_aromatic_linkinvent_7_9_3/rearranged_h_0021.sdf

> <i_m_source_file_index>
26

> <r_mmod_Potential_Energy-OPLS-2005>
557.373352050781

> <r_mmod_Stretch_Energy-OPLS-2005>
296.190582275391

> <r_mmod_Bend_Energy-OPLS-2005>
300.764526367188

> <r_mmod_Torsional_Energy-OPLS-2005>
228.761047363281

> <r_mmod_Improper_Torsional_Energy-OPLS-2005>
4.78750705718994

> <r_mmod_Van_der_Waal_Energy-OPLS-2005>
106.584129333496

> <r_mmod_Electrostatic_Energy-OPLS-2005>
-353.462524414062

> <r_mmod_Solvation_Energy-OPLS-2005>
-218.731018066406

> <b_mmod_Minimization_Converged-OPLS-2005>
0

> <r_mmod_RMS_Derivative-OPLS-2005>
2.37500715255737

$$$$
26
                    3D
 Structure written by MMmdl.
177185  0  0  1  0            999 V2000
  -30.7889  -14.3310   20.7169 C   0  0  0  0  0  0
  -30.4142  -12.2872   19.3858 C   0  0  0  0  0  0
  -29.4799  -12.5324   18.1877 C   0  0  0  0  0  0
  -28.0068  -12.3814   18.6079 C   0  0  0  0  0  0
  -27.6676  -13.2009   19.8799 C   0  0  2  0  0  0
  -28.7041  -12.9380   20.9940 C   0  0  0  0  0  0
  -25.2619  -13.8155   20.5669 C   0  0  0  0  0  0
  -24.1853  -13.0437   20.9155 C   0  0  0  0  0  0
  -24.6397  -11.6902   20.8723 C   0  0  0  0  0  0
  -23.9058  -10.4291   21.0398 C   0  0  0  0  0  0
  -24.3611   -9.4210   21.9181 C   0  0  0  0  0  0
  -23.6289   -8.2247   22.0757 C   0  0  0  0  0  0
  -22.4274   -8.0281   21.3546 C   0  0  0  0  0  0
  -21.9905   -9.0250   20.4648 C   0  0  0  0  0  0
  -22.7229  -10.2133   20.3050 C   0  0  0  0  0  0
  -21.6852   -6.0733   22.5277 C   0  0  0  0  0  0
  -21.4014   -6.5636   23.8210 C   0  0  0  0  0  0
  -21.3660   -5.6791   24.9175 C   0  0  0  0  0  0
  -21.6043   -4.3053   24.7229 C   0  0  0  0  0  0
  -21.8819   -3.8145   23.4349 C   0  0  0  0  0  0
  -21.9193   -4.6960   22.3405 C   0  0  0  0  0  0
  -22.7880  -13.5248   21.1823 C   0  0  0  0  0  0
  -22.1661   -4.2145   21.0983 F   0  0  0  0  0  0
  -21.5630   -3.4540   25.7744 F   0  0  0  0  0  0
  -30.0509  -13.2212   20.4607 N   0  0  0  0  0  0
  -26.3052  -12.9313   20.3377 N   0  0  0  0  0  0
  -25.9321  -11.6474   20.5752 N   0  0  0  0  0  0
  -22.0523  -12.8241   22.0386 N   0  0  0  0  0  0
  -25.4369  -15.1868   20.4090 N   0  0  0  0  0  0
  -31.7762  -14.6577   20.0493 O   0  0  0  0  0  0
  -21.6638   -6.8875   21.4240 O   0  0  0  0  0  0
  -22.3566  -14.5555   20.6679 O   0  0  0  0  0  0
  -24.6070  -31.8718   23.2144 C   0  0  0  0  0  0
  -25.8987  -32.4848   23.8427 C   0  0  1  0  0  0
  -27.2619  -27.4939   20.0862 C   0  0  0  0  0  0
  -25.5874  -33.8650   24.2360 N   0  0  0  0  0  0
  -23.3944  -30.4911   21.5520 C   0  0  2  0  0  0
  -24.8471  -28.9606   20.1170 C   0  0  0  0  0  0
  -22.7380  -29.4662   22.5022 C   0  0  0  0  0  0
  -18.0269  -28.1378   22.8500 C   0  0  0  0  0  0
  -24.1482  -36.7324   23.2631 C   0  0  0  0  0  0
  -25.9137  -30.8532   21.3612 C   0  0  0  0  0  0
  -25.9971  -29.4895   20.7142 C   0  0  0  0  0  0
  -27.2006  -28.7603   20.7108 C   0  0  0  0  0  0
  -26.0912  -26.9591   19.5112 C   0  0  0  0  0  0
  -24.8846  -27.6878   19.5181 C   0  0  0  0  0  0
  -23.6029  -29.8173   20.1675 C   0  0  0  0  0  0
  -25.4101  -36.3136   24.0342 C   0  0  1  0  0  0
  -20.5851  -28.3653   23.1338 C   0  0  2  0  0  0
  -20.6753  -26.9398   22.5424 C   0  0  0  0  0  0
  -19.5737  -26.6387   21.5219 C   0  0  0  0  0  0
  -18.1916  -26.7926   22.1628 C   0  0  0  0  0  0
  -19.1515  -28.8834   23.2915 C   0  0  0  0  0  0
  -18.9443  -30.1444   23.8921 C   0  0  0  0  0  0
  -17.6444  -30.6588   24.0572 C   0  0  0  0  0  0
  -25.9024  -34.9497   23.5152 C   0  0  0  0  0  0
  -16.5338  -29.9091   23.6322 C   0  0  0  0  0  0
  -16.7258  -28.6505   23.0351 C   0  0  0  0  0  0
  -26.4447  -31.6598   25.0723 C   0  0  0  0  0  0
  -25.3744  -31.3687   26.1490 C   0  0  0  0  0  0
  -27.0246  -30.3044   24.6041 C   0  0  0  0  0  0
  -27.6039  -32.4290   25.7480 C   0  0  0  0  0  0
  -27.5598  -37.1805   24.8461 C   0  0  0  0  0  0
  -21.4117  -29.3020   22.3749 N   0  0  0  0  0  0
  -26.4299  -37.3811   23.9422 N   0  0  0  0  0  0
  -24.6558  -31.0853   22.1025 N   0  0  0  0  0  0
  -23.4169  -28.8220   23.3061 O   0  0  0  0  0  0
  -28.4067  -26.7318   20.0410 O   0  0  0  0  0  0
  -26.5580  -34.8940   22.4709 O   0  0  0  0  0  0
  -23.5279  -32.1448   23.7573 O   0  0  0  0  0  0
  -30.9784  -18.6194   22.6203 C   0  0  0  0  0  0
  -30.3679  -17.4273   22.1415 C   0  0  0  0  0  0
  -32.2490  -18.5579   23.2573 C   0  0  0  0  0  0
  -32.2617  -16.1147   23.0064 C   0  0  0  0  0  0
  -31.0294  -16.1840   22.3078 C   0  0  0  0  0  0
  -32.8727  -17.3034   23.4659 C   0  0  0  0  0  0
  -28.9994  -17.4673   21.4559 C   0  0  0  0  0  0
  -32.9431  -19.8341   23.7363 C   0  0  0  0  0  0
  -32.9442  -14.7760   23.2802 C   0  0  0  0  0  0
  -30.2873  -19.9721   22.4332 C   0  0  0  0  0  0
  -30.6474  -20.6094   21.0805 C   0  0  0  0  0  0
  -30.2382  -22.0839   20.9784 C   0  0  0  0  0  0
  -30.4073  -22.6278   19.5527 C   0  0  0  0  0  0
  -30.3793  -24.1597   19.4949 C   0  0  0  0  0  0
  -30.4038  -24.6982   18.0524 C   0  0  0  0  0  0
  -30.9502  -26.1313   17.9132 C   0  0  0  0  0  0
  -29.9866  -27.2757   18.2817 C   0  0  0  0  0  0
  -29.6461  -27.3917   19.7764 C   0  0  0  0  0  0
  -30.4169  -15.0026   21.8167 N   0  0  0  0  0  0
  -34.3940  -17.2075   24.2956 Cl  0  0  0  0  0  0
  -31.4575  -12.3870   19.0804 H   0  0  0  0  0  0
  -30.3108  -11.2620   19.7442 H   0  0  0  0  0  0
  -29.7112  -11.8362   17.3805 H   0  0  0  0  0  0
  -29.6466  -13.5335   17.7870 H   0  0  0  0  0  0
  -27.8171  -11.3221   18.7874 H   0  0  0  0  0  0
  -27.3497  -12.6724   17.7877 H   0  0  0  0  0  0
  -27.7289  -14.2558   19.6113 H   0  0  0  0  0  0
  -28.6611  -11.8950   21.3106 H   0  0  0  0  0  0
  -28.4457  -13.5171   21.8806 H   0  0  0  0  0  0
  -25.2759   -9.5688   22.4750 H   0  0  0  0  0  0
  -23.9999   -7.4641   22.7480 H   0  0  0  0  0  0
  -21.0836   -8.8763   19.8957 H   0  0  0  0  0  0
  -22.3684  -10.9668   19.6156 H   0  0  0  0  0  0
  -21.2002   -7.6144   23.9713 H   0  0  0  0  0  0
  -21.1482   -6.0523   25.9077 H   0  0  0  0  0  0
  -22.0598   -2.7606   23.2854 H   0  0  0  0  0  0
  -22.4143  -11.9897   22.4756 H   0  0  0  0  0  0
  -21.1142  -13.1270   22.2597 H   0  0  0  0  0  0
  -24.6755  -15.8477   20.5184 H   0  0  0  0  0  0
  -26.2966  -15.6221   20.0986 H   0  0  0  0  0  0
  -26.7061  -32.5596   23.1206 H   0  0  0  0  0  0
  -25.0045  -33.9828   25.0516 H   0  0  0  0  0  0
  -22.6798  -31.3045   21.4113 H   0  0  0  0  0  0
  -23.3767  -35.9636   23.3287 H   0  0  0  0  0  0
  -24.3592  -36.8957   22.2052 H   0  0  0  0  0  0
  -23.7202  -37.6514   23.6640 H   0  0  0  0  0  0
  -26.0122  -31.6191   20.5908 H   0  0  0  0  0  0
  -26.8056  -30.9180   21.9728 H   0  0  0  0  0  0
  -28.0654  -29.1788   21.2036 H   0  0  0  0  0  0
  -26.1208  -25.9834   19.0469 H   0  0  0  0  0  0
  -23.9981  -27.2655   19.0645 H   0  0  0  0  0  0
  -23.7034  -30.5888   19.4037 H   0  0  0  0  0  0
  -22.7315  -29.2277   19.8767 H   0  0  0  0  0  0
  -25.1270  -36.2016   25.0834 H   0  0  0  0  0  0
  -20.9937  -28.3208   24.1459 H   0  0  0  0  0  0
  -20.5666  -26.2260   23.3606 H   0  0  0  0  0  0
  -21.6621  -26.7450   22.1210 H   0  0  0  0  0  0
  -19.6901  -25.6301   21.1241 H   0  0  0  0  0  0
  -19.6679  -27.3208   20.6760 H   0  0  0  0  0  0
  -17.4186  -26.6700   21.4023 H   0  0  0  0  0  0
  -18.0307  -26.0053   22.9008 H   0  0  0  0  0  0
  -19.7915  -30.7263   24.2294 H   0  0  0  0  0  0
  -17.4995  -31.6263   24.5183 H   0  0  0  0  0  0
  -15.5344  -30.3004   23.7614 H   0  0  0  0  0  0
  -15.8665  -28.0830   22.7055 H   0  0  0  0  0  0
  -24.5878  -30.7082   25.7822 H   0  0  0  0  0  0
  -24.8980  -32.2845   26.4995 H   0  0  0  0  0  0
  -25.8114  -30.8795   27.0207 H   0  0  0  0  0  0
  -26.2762  -29.6838   24.1090 H   0  0  0  0  0  0
  -27.4032  -29.7233   25.4464 H   0  0  0  0  0  0
  -27.8600  -30.4377   23.9164 H   0  0  0  0  0  0
  -27.2669  -33.3563   26.2126 H   0  0  0  0  0  0
  -28.3816  -32.6894   25.0287 H   0  0  0  0  0  0
  -28.0737  -31.8365   26.5344 H   0  0  0  0  0  0
  -28.2583  -38.0133   24.7562 H   0  0  0  0  0  0
  -28.1134  -36.2672   24.6216 H   0  0  0  0  0  0
  -27.2336  -37.1375   25.8869 H   0  0  0  0  0  0
  -20.9285  -29.8727   21.6955 H   0  0  0  0  0  0
  -26.0208  -38.2895   24.1448 H   0  0  0  0  0  0
  -28.8372  -18.3803   20.8889 H   0  0  0  0  0  0
  -28.2096  -17.3909   22.2029 H   0  0  0  0  0  0
  -28.8603  -16.6597   20.7387 H   0  0  0  0  0  0
  -32.7984  -20.6616   23.0434 H   0  0  0  0  0  0
  -34.0224  -19.7255   23.8267 H   0  0  0  0  0  0
  -32.5545  -20.1307   24.7107 H   0  0  0  0  0  0
  -32.2861  -13.9196   23.1470 H   0  0  0  0  0  0
  -33.2970  -14.7241   24.3098 H   0  0  0  0  0  0
  -33.8009  -14.6511   22.6184 H   0  0  0  0  0  0
  -30.5505  -20.6454   23.2480 H   0  0  0  0  0  0
  -29.2060  -19.8707   22.5287 H   0  0  0  0  0  0
  -30.1935  -20.0408   20.2699 H   0  0  0  0  0  0
  -31.7243  -20.5423   20.9212 H   0  0  0  0  0  0
  -30.8390  -22.6678   21.6778 H   0  0  0  0  0  0
  -29.1994  -22.2063   21.2878 H   0  0  0  0  0  0
  -29.6229  -22.2147   18.9163 H   0  0  0  0  0  0
  -31.3556  -22.2805   19.1400 H   0  0  0  0  0  0
  -31.2353  -24.5437   20.0519 H   0  0  0  0  0  0
  -29.4916  -24.5214   20.0110 H   0  0  0  0  0  0
  -29.4118  -24.6238   17.6052 H   0  0  0  0  0  0
  -31.0464  -24.0507   17.4538 H   0  0  0  0  0  0
  -31.8828  -26.2313   18.4706 H   0  0  0  0  0  0
  -31.2260  -26.2737   16.8676 H   0  0  0  0  0  0
  -29.0758  -27.2213   17.6841 H   0  0  0  0  0  0
  -30.4720  -28.2056   17.9792 H   0  0  0  0  0  0
  -29.6524  -28.4435   20.0513 H   0  0  0  0  0  0
  -30.4269  -26.9348   20.3849 H   0  0  0  0  0  0
  -29.5691  -14.6959   22.2683 H   0  0  0  0  0  0
  1 25  1  0  0  0
  1 30  2  0  0  0
  1 89  1  0  0  0
  2  3  1  0  0  0
  2 25  1  0  0  0
  2 91  1  0  0  0
  2 92  1  0  0  0
  3  4  1  0  0  0
  3 93  1  0  0  0
  3 94  1  0  0  0
  4  5  1  0  0  0
  4 95  1  0  0  0
  4 96  1  0  0  0
  5  6  1  0  0  0
  5 26  1  0  0  0
  5 97  1  0  0  0
  6 25  1  0  0  0
  6 98  1  0  0  0
  6 99  1  0  0  0
  7  8  2  0  0  0
  7 26  1  0  0  0
  7 29  1  0  0  0
  8  9  1  0  0  0
  8 22  1  0  0  0
  9 10  1  0  0  0
  9 27  2  0  0  0
 10 11  2  0  0  0
 10 15  1  0  0  0
 11 12  1  0  0  0
 11100  1  0  0  0
 12 13  2  0  0  0
 12101  1  0  0  0
 13 14  1  0  0  0
 13 31  1  0  0  0
 14 15  2  0  0  0
 14102  1  0  0  0
 15103  1  0  0  0
 16 17  2  0  0  0
 16 21  1  0  0  0
 16 31  1  0  0  0
 17 18  1  0  0  0
 17104  1  0  0  0
 18 19  2  0  0  0
 18105  1  0  0  0
 19 20  1  0  0  0
 19 24  1  0  0  0
 20 21  2  0  0  0
 20106  1  0  0  0
 21 23  1  0  0  0
 22 28  1  0  0  0
 22 32  2  0  0  0
 26 27  1  0  0  0
 28107  1  0  0  0
 28108  1  0  0  0
 29109  1  0  0  0
 29110  1  0  0  0
 33 34  1  0  0  0
 33 66  1  0  0  0
 33 70  2  0  0  0
 34 36  1  0  0  0
 34 59  1  0  0  0
 34111  1  0  0  0
 35 44  2  0  0  0
 35 45  1  0  0  0
 35 68  1  0  0  0
 36 56  1  0  0  0
 36112  1  0  0  0
 37 39  1  0  0  0
 37 47  1  0  0  0
 37 66  1  0  0  0
 37113  1  0  0  0
 38 43  2  0  0  0
 38 46  1  0  0  0
 38 47  1  0  0  0
 39 64  1  0  0  0
 39 67  2  0  0  0
 40 52  1  0  0  0
 40 53  2  0  0  0
 40 58  1  0  0  0
 41114  1  0  0  0
 41115  1  0  0  0
 41116  1  0  0  0
 41 48  1  0  0  0
 42 43  1  0  0  0
 42 66  1  0  0  0
 42117  1  0  0  0
 42118  1  0  0  0
 43 44  1  0  0  0
 44119  1  0  0  0
 45 46  2  0  0  0
 45120  1  0  0  0
 46121  1  0  0  0
 47122  1  0  0  0
 47123  1  0  0  0
 48 56  1  0  0  0
 48 65  1  0  0  0
 48124  1  0  0  0
 49 50  1  0  0  0
 49 53  1  0  0  0
 49 64  1  0  0  0
 49125  1  0  0  0
 50 51  1  0  0  0
 50126  1  0  0  0
 50127  1  0  0  0
 51 52  1  0  0  0
 51128  1  0  0  0
 51129  1  0  0  0
 52130  1  0  0  0
 52131  1  0  0  0
 53 54  1  0  0  0
 54 55  2  0  0  0
 54132  1  0  0  0
 55 57  1  0  0  0
 55133  1  0  0  0
 56 69  2  0  0  0
 57 58  2  0  0  0
 57134  1  0  0  0
 58135  1  0  0  0
 59 60  1  0  0  0
 59 61  1  0  0  0
 59 62  1  0  0  0
 60136  1  0  0  0
 60137  1  0  0  0
 60138  1  0  0  0
 61139  1  0  0  0
 61140  1  0  0  0
 61141  1  0  0  0
 62142  1  0  0  0
 62143  1  0  0  0
 62144  1  0  0  0
 63 65  1  0  0  0
 63145  1  0  0  0
 63146  1  0  0  0
 63147  1  0  0  0
 64148  1  0  0  0
 65149  1  0  0  0
 68 88  1  0  0  0
 71 72  2  0  0  0
 71 73  1  0  0  0
 71 80  1  0  0  0
 72 75  1  0  0  0
 72 77  1  0  0  0
 73 76  2  0  0  0
 73 78  1  0  0  0
 74 75  2  0  0  0
 74 76  1  0  0  0
 74 79  1  0  0  0
 75 89  1  0  0  0
 76 90  1  0  0  0
 77150  1  0  0  0
 77151  1  0  0  0
 77152  1  0  0  0
 78153  1  0  0  0
 78154  1  0  0  0
 78155  1  0  0  0
 79156  1  0  0  0
 79157  1  0  0  0
 79158  1  0  0  0
 80 81  1  0  0  0
 80159  1  0  0  0
 80160  1  0  0  0
 81 82  1  0  0  0
 81161  1  0  0  0
 81162  1  0  0  0
 82 83  1  0  0  0
 82163  1  0  0  0
 82164  1  0  0  0
 83 84  1  0  0  0
 83165  1  0  0  0
 83166  1  0  0  0
 84 85  1  0  0  0
 84167  1  0  0  0
 84168  1  0  0  0
 85 86  1  0  0  0
 85169  1  0  0  0
 85170  1  0  0  0
 86 87  1  0  0  0
 86171  1  0  0  0
 86172  1  0  0  0
 87 88  1  0  0  0
 87173  1  0  0  0
 87174  1  0  0  0
 88175  1  0  0  0
 88176  1  0  0  0
 89177  1  0  0  0
M  ISO  4   1 100  68 101  88 101  89 100
M  END
> <chiral flag>
0

> <version>
0

> <s_m_source_file>
/data/baiqing/PycharmProjects/Reinvent-master-3.2/result/LINK_invent/BTK/process_docking_weight1_custom_sum_contain_oxygen_bond_distance_aromatic_linkinvent_7_9_3/rearranged_h_0021.sdf

> <i_m_source_file_index>
27

> <r_mmod_Potential_Energy-OPLS-2005>
-13.8987112045288

> <r_mmod_Stretch_Energy-OPLS-2005>
36.0747680664062

> <r_mmod_Bend_Energy-OPLS-2005>
96.9200210571289

> <r_mmod_Torsional_Energy-OPLS-2005>
255.52571105957

> <r_mmod_Improper_Torsional_Energy-OPLS-2005>
2.32337999343872

> <r_mmod_Van_der_Waal_Energy-OPLS-2005>
172.494049072266

> <r_mmod_Electrostatic_Energy-OPLS-2005>
-391.903259277344

> <r_mmod_Solvation_Energy-OPLS-2005>
-191.171661376953

> <b_mmod_Minimization_Converged-OPLS-2005>
0

> <r_mmod_RMS_Derivative-OPLS-2005>
1.1152468919754

$$$$
27
                    3D
 Structure written by MMmdl.
156164  0  0  1  0            999 V2000
  -30.5032  -15.0019   20.4182 C   0  0  0  0  0  0
  -30.4470  -12.6311   19.4766 C   0  0  0  0  0  0
  -29.5190  -12.5230   18.2447 C   0  0  0  0  0  0
  -28.0547  -12.3003   18.6732 C   0  0  0  0  0  0
  -27.6223  -13.2447   19.8246 C   0  0  2  0  0  0
  -28.6700  -13.2969   20.9531 C   0  0  0  0  0  0
  -25.2449  -13.8206   20.5733 C   0  0  0  0  0  0
  -24.1763  -13.0431   20.9235 C   0  0  0  0  0  0
  -24.6374  -11.6914   20.8755 C   0  0  0  0  0  0
  -23.9061  -10.4289   21.0408 C   0  0  0  0  0  0
  -24.3615   -9.4207   21.9187 C   0  0  0  0  0  0
  -23.6289   -8.2245   22.0755 C   0  0  0  0  0  0
  -22.4272   -8.0279   21.3546 C   0  0  0  0  0  0
  -21.9904   -9.0250   20.4649 C   0  0  0  0  0  0
  -22.7232  -10.2130   20.3057 C   0  0  0  0  0  0
  -21.6854   -6.0732   22.5279 C   0  0  0  0  0  0
  -21.4017   -6.5635   23.8212 C   0  0  0  0  0  0
  -21.3660   -5.6790   24.9174 C   0  0  0  0  0  0
  -21.6044   -4.3053   24.7228 C   0  0  0  0  0  0
  -21.8817   -3.8143   23.4350 C   0  0  0  0  0  0
  -21.9190   -4.6958   22.3404 C   0  0  0  0  0  0
  -22.7786  -13.5207   21.1882 C   0  0  0  0  0  0
  -22.1657   -4.2142   21.0982 F   0  0  0  0  0  0
  -21.5627   -3.4534   25.7742 F   0  0  0  0  0  0
  -29.9264  -13.7340   20.3322 N   0  0  0  0  0  0
  -26.2855  -12.9424   20.3209 N   0  0  0  0  0  0
  -25.9302  -11.6560   20.5723 N   0  0  0  0  0  0
  -22.0426  -12.8211   22.0446 N   0  0  0  0  0  0
  -25.4110  -15.1941   20.4212 N   0  0  0  0  0  0
  -31.7289  -15.0653   20.2713 O   0  0  0  0  0  0
  -21.6641   -6.8874   21.4242 O   0  0  0  0  0  0
  -22.3473  -14.5505   20.6710 O   0  0  0  0  0  0
  -24.6455  -31.8406   23.1829 C   0  0  0  0  0  0
  -25.9210  -32.4681   23.8241 C   0  0  1  0  0  0
  -27.2214  -27.1002   20.1732 C   0  0  0  0  0  0
  -25.5942  -33.8489   24.2158 N   0  0  0  0  0  0
  -23.4513  -30.4558   21.5299 C   0  0  2  0  0  0
  -24.9009  -28.8629   20.1233 C   0  0  0  0  0  0
  -22.7573  -29.4533   22.4860 C   0  0  0  0  0  0
  -18.0304  -28.1396   22.8478 C   0  0  0  0  0  0
  -24.1489  -36.7253   23.2645 C   0  0  0  0  0  0
  -26.0080  -30.7041   21.3846 C   0  0  0  0  0  0
  -26.0801  -29.3066   20.7368 C   0  0  0  0  0  0
  -27.2438  -28.4447   20.7339 C   0  0  0  0  0  0
  -26.0132  -26.7519   19.5377 C   0  0  0  0  0  0
  -24.8810  -27.5992   19.5094 C   0  0  0  0  0  0
  -23.6810  -29.7731   20.1546 C   0  0  0  0  0  0
  -25.4125  -36.3026   24.0311 C   0  0  1  0  0  0
  -20.5919  -28.3726   23.1232 C   0  0  2  0  0  0
  -20.6789  -26.9427   22.5406 C   0  0  0  0  0  0
  -19.5763  -26.6380   21.5215 C   0  0  0  0  0  0
  -18.1943  -26.7933   22.1625 C   0  0  0  0  0  0
  -19.1562  -28.8879   23.2848 C   0  0  0  0  0  0
  -18.9479  -30.1475   23.8873 C   0  0  0  0  0  0
  -17.6475  -30.6593   24.0560 C   0  0  0  0  0  0
  -25.9075  -34.9404   23.5049 C   0  0  0  0  0  0
  -16.5365  -29.9087   23.6335 C   0  0  0  0  0  0
  -16.7290  -28.6505   23.0357 C   0  0  0  0  0  0
  -26.4522  -31.6569   25.0702 C   0  0  0  0  0  0
  -25.3693  -31.3778   26.1390 C   0  0  0  0  0  0
  -27.0398  -30.2962   24.6307 C   0  0  0  0  0  0
  -27.6035  -32.4354   25.7499 C   0  0  0  0  0  0
  -27.5577  -37.1784   24.8465 C   0  0  0  0  0  0
  -21.4263  -29.3048   22.3601 N   0  0  0  0  0  0
  -26.4288  -37.3742   23.9405 N   0  0  0  0  0  0
  -24.7218  -31.0228   22.0876 N   0  0  0  0  0  0
  -23.4200  -28.8096   23.3034 O   0  0  0  0  0  0
  -28.3086  -26.1501   20.1116 O   0  0  0  0  0  0
  -26.5676  -34.8912   22.4638 O   0  0  0  0  0  0
  -23.5566  -32.1302   23.7028 O   0  0  0  0  0  0
  -29.4891  -19.0714   22.8411 C   0  0  0  0  0  0
  -29.2763  -20.2674   22.1147 C   0  0  0  0  0  0
  -29.6898  -17.8007   22.2483 C   0  0  0  0  0  0
  -29.2550  -20.2805   20.6995 C   0  0  0  0  0  0
  -29.6776  -17.6289   20.8385 C   0  0  0  0  0  0
  -29.4464  -18.9138   20.0938 C   0  0  0  0  0  0
  -29.1103  -21.5584   22.9007 C   0  0  0  0  0  0
  -29.8607  -16.6147   23.1860 C   0  0  0  0  0  0
  -29.2413  -21.7846   19.9653 C   0  0  0  0  0  0
  -28.1717  -23.1221   20.0584 C   0  0  0  0  0  0
  -28.3484  -24.6942   20.7026 C   0  0  0  0  0  0
  -29.6814  -16.1714   20.3128 N   0  0  0  0  0  0
  -29.4165  -18.8007   18.3709 Cl  0  0  0  0  0  0
  -31.4707  -12.8232   19.1514 H   0  0  0  0  0  0
  -30.4771  -11.6913   20.0297 H   0  0  0  0  0  0
  -29.8464  -11.7103   17.5944 H   0  0  0  0  0  0
  -29.5911  -13.4367   17.6528 H   0  0  0  0  0  0
  -27.9629  -11.2633   18.9987 H   0  0  0  0  0  0
  -27.3876  -12.4103   17.8172 H   0  0  0  0  0  0
  -27.5730  -14.2385   19.3794 H   0  0  0  0  0  0
  -28.7817  -12.3276   21.4411 H   0  0  0  0  0  0
  -28.3597  -14.0015   21.7251 H   0  0  0  0  0  0
  -25.2755   -9.5685   22.4766 H   0  0  0  0  0  0
  -23.9993   -7.4637   22.7474 H   0  0  0  0  0  0
  -21.0834   -8.8769   19.8958 H   0  0  0  0  0  0
  -22.3685  -10.9669   19.6172 H   0  0  0  0  0  0
  -21.2015   -7.6144   23.9713 H   0  0  0  0  0  0
  -21.1483   -6.0522   25.9076 H   0  0  0  0  0  0
  -22.0595   -2.7604   23.2853 H   0  0  0  0  0  0
  -22.4036  -11.9889   22.4866 H   0  0  0  0  0  0
  -21.1039  -13.1238   22.2628 H   0  0  0  0  0  0
  -24.6442  -15.8441   20.5554 H   0  0  0  0  0  0
  -26.2595  -15.6480   20.1118 H   0  0  0  0  0  0
  -26.7278  -32.5283   23.0972 H   0  0  0  0  0  0
  -25.0038  -33.9598   25.0273 H   0  0  0  0  0  0
  -22.7559  -31.2821   21.3677 H   0  0  0  0  0  0
  -23.3757  -35.9579   23.3291 H   0  0  0  0  0  0
  -24.3566  -36.8903   22.2061 H   0  0  0  0  0  0
  -23.7242  -37.6442   23.6698 H   0  0  0  0  0  0
  -26.1641  -31.4515   20.6056 H   0  0  0  0  0  0
  -26.8783  -30.7614   22.0270 H   0  0  0  0  0  0
  -28.1540  -28.7919   21.2025 H   0  0  0  0  0  0
  -25.9409  -25.7848   19.0594 H   0  0  0  0  0  0
  -23.9804  -27.2530   19.0209 H   0  0  0  0  0  0
  -23.8253  -30.5412   19.3937 H   0  0  0  0  0  0
  -22.7942  -29.2169   19.8444 H   0  0  0  0  0  0
  -25.1318  -36.1846   25.0803 H   0  0  0  0  0  0
  -21.0013  -28.3319   24.1355 H   0  0  0  0  0  0
  -20.5678  -26.2341   23.3628 H   0  0  0  0  0  0
  -21.6656  -26.7429   22.1209 H   0  0  0  0  0  0
  -19.6923  -25.6284   21.1262 H   0  0  0  0  0  0
  -19.6698  -27.3177   20.6732 H   0  0  0  0  0  0
  -17.4213  -26.6679   21.4027 H   0  0  0  0  0  0
  -18.0344  -26.0082   22.9027 H   0  0  0  0  0  0
  -19.7956  -30.7298   24.2231 H   0  0  0  0  0  0
  -17.5029  -31.6269   24.5169 H   0  0  0  0  0  0
  -15.5366  -30.2981   23.7669 H   0  0  0  0  0  0
  -15.8692  -28.0814   22.7085 H   0  0  0  0  0  0
  -24.5864  -30.7139   25.7707 H   0  0  0  0  0  0
  -24.8894  -32.2968   26.4760 H   0  0  0  0  0  0
  -25.7955  -30.8976   27.0206 H   0  0  0  0  0  0
  -26.3021  -29.6675   24.1306 H   0  0  0  0  0  0
  -27.3992  -29.7279   25.4894 H   0  0  0  0  0  0
  -27.8931  -30.4198   23.9636 H   0  0  0  0  0  0
  -27.2608  -33.3671   26.2015 H   0  0  0  0  0  0
  -28.3879  -32.6893   25.0358 H   0  0  0  0  0  0
  -28.0672  -31.8528   26.5468 H   0  0  0  0  0  0
  -28.2587  -38.0088   24.7508 H   0  0  0  0  0  0
  -28.1077  -36.2614   24.6293 H   0  0  0  0  0  0
  -27.2290  -37.1433   25.8868 H   0  0  0  0  0  0
  -20.9482  -29.8743   21.6763 H   0  0  0  0  0  0
  -26.0148  -38.2807   24.1408 H   0  0  0  0  0  0
  -29.4964  -19.1324   23.9211 H   0  0  0  0  0  0
  -29.1488  -21.3857   23.9770 H   0  0  0  0  0  0
  -28.1487  -22.0220   22.6812 H   0  0  0  0  0  0
  -29.9014  -22.2671   22.6555 H   0  0  0  0  0  0
  -29.7959  -16.9117   24.2333 H   0  0  0  0  0  0
  -30.8346  -16.1469   23.0429 H   0  0  0  0  0  0
  -29.0831  -15.8705   23.0150 H   0  0  0  0  0  0
  -29.2655  -21.5372   18.9044 H   0  0  0  0  0  0
  -30.2385  -22.1891   20.1400 H   0  0  0  0  0  0
  -27.2326  -22.7284   20.4474 H   0  0  0  0  0  0
  -27.9195  -23.3220   19.0169 H   0  0  0  0  0  0
  -29.3187  -24.6663   21.1977 H   0  0  0  0  0  0
  -27.6514  -24.7354   21.5407 H   0  0  0  0  0  0
  -28.7717  -15.9147   19.9640 H   0  0  0  0  0  0
  1 25  1  0  0  0
  1 30  2  0  0  0
  1 82  1  0  0  0
  2  3  1  0  0  0
  2 25  1  0  0  0
  2 84  1  0  0  0
  2 85  1  0  0  0
  3  4  1  0  0  0
  3 86  1  0  0  0
  3 87  1  0  0  0
  4  5  1  0  0  0
  4 88  1  0  0  0
  4 89  1  0  0  0
  5  6  1  0  0  0
  5 26  1  0  0  0
  5 90  1  0  0  0
  6 25  1  0  0  0
  6 91  1  0  0  0
  6 92  1  0  0  0
  7  8  2  0  0  0
  7 26  1  0  0  0
  7 29  1  0  0  0
  8  9  1  0  0  0
  8 22  1  0  0  0
  9 10  1  0  0  0
  9 27  2  0  0  0
 10 11  2  0  0  0
 10 15  1  0  0  0
 11 12  1  0  0  0
 11 93  1  0  0  0
 12 13  2  0  0  0
 12 94  1  0  0  0
 13 14  1  0  0  0
 13 31  1  0  0  0
 14 15  2  0  0  0
 14 95  1  0  0  0
 15 96  1  0  0  0
 16 17  2  0  0  0
 16 21  1  0  0  0
 16 31  1  0  0  0
 17 18  1  0  0  0
 17 97  1  0  0  0
 18 19  2  0  0  0
 18 98  1  0  0  0
 19 20  1  0  0  0
 19 24  1  0  0  0
 20 21  2  0  0  0
 20 99  1  0  0  0
 21 23  1  0  0  0
 22 28  1  0  0  0
 22 32  2  0  0  0
 26 27  1  0  0  0
 28100  1  0  0  0
 28101  1  0  0  0
 29102  1  0  0  0
 29103  1  0  0  0
 33 34  1  0  0  0
 33 66  1  0  0  0
 33 70  2  0  0  0
 34 36  1  0  0  0
 34 59  1  0  0  0
 34104  1  0  0  0
 35 44  2  0  0  0
 35 45  1  0  0  0
 35 68  1  0  0  0
 36 56  1  0  0  0
 36105  1  0  0  0
 37 39  1  0  0  0
 37 47  1  0  0  0
 37 66  1  0  0  0
 37106  1  0  0  0
 38 43  2  0  0  0
 38 46  1  0  0  0
 38 47  1  0  0  0
 39 64  1  0  0  0
 39 67  2  0  0  0
 40 52  1  0  0  0
 40 53  2  0  0  0
 40 58  1  0  0  0
 41107  1  0  0  0
 41108  1  0  0  0
 41109  1  0  0  0
 41 48  1  0  0  0
 42 43  1  0  0  0
 42 66  1  0  0  0
 42110  1  0  0  0
 42111  1  0  0  0
 43 44  1  0  0  0
 44112  1  0  0  0
 45 46  2  0  0  0
 45113  1  0  0  0
 46114  1  0  0  0
 47115  1  0  0  0
 47116  1  0  0  0
 48 56  1  0  0  0
 48 65  1  0  0  0
 48117  1  0  0  0
 49 50  1  0  0  0
 49 53  1  0  0  0
 49 64  1  0  0  0
 49118  1  0  0  0
 50 51  1  0  0  0
 50119  1  0  0  0
 50120  1  0  0  0
 51 52  1  0  0  0
 51121  1  0  0  0
 51122  1  0  0  0
 52123  1  0  0  0
 52124  1  0  0  0
 53 54  1  0  0  0
 54 55  2  0  0  0
 54125  1  0  0  0
 55 57  1  0  0  0
 55126  1  0  0  0
 56 69  2  0  0  0
 57 58  2  0  0  0
 57127  1  0  0  0
 58128  1  0  0  0
 59 60  1  0  0  0
 59 61  1  0  0  0
 59 62  1  0  0  0
 60129  1  0  0  0
 60130  1  0  0  0
 60131  1  0  0  0
 61132  1  0  0  0
 61133  1  0  0  0
 61134  1  0  0  0
 62135  1  0  0  0
 62136  1  0  0  0
 62137  1  0  0  0
 63 65  1  0  0  0
 63138  1  0  0  0
 63139  1  0  0  0
 63140  1  0  0  0
 64141  1  0  0  0
 65142  1  0  0  0
 68 81  1  0  0  0
 71 72  2  0  0  0
 71 73  1  0  0  0
 71143  1  0  0  0
 72 74  1  0  0  0
 72 77  1  0  0  0
 73 75  2  0  0  0
 73 78  1  0  0  0
 74 76  2  0  0  0
 74 79  1  0  0  0
 75 76  1  0  0  0
 75 82  1  0  0  0
 76 83  1  0  0  0
 77144  1  0  0  0
 77145  1  0  0  0
 77146  1  0  0  0
 78147  1  0  0  0
 78148  1  0  0  0
 78149  1  0  0  0
 79 80  1  0  0  0
 79150  1  0  0  0
 79151  1  0  0  0
 80 81  1  0  0  0
 80152  1  0  0  0
 80153  1  0  0  0
 81154  1  0  0  0
 81155  1  0  0  0
 82156  1  0  0  0
M  ISO  4   1 100  68 101  81 101  82 100
M  END
> <chiral flag>
0

> <version>
0

> <s_m_source_file>
/data/baiqing/PycharmProjects/Reinvent-master-3.2/result/LINK_invent/BTK/process_docking_weight1_custom_sum_contain_oxygen_bond_distance_aromatic_linkinvent_7_9_3/rearranged_h_0021.sdf

> <i_m_source_file_index>
28

> <r_mmod_Potential_Energy-OPLS-2005>
697.443237304688

> <r_mmod_Stretch_Energy-OPLS-2005>
307.312713623047

> <r_mmod_Bend_Energy-OPLS-2005>
331.211090087891

> <r_mmod_Torsional_Energy-OPLS-2005>
293.1513671875

> <r_mmod_Improper_Torsional_Energy-OPLS-2005>
12.0516872406006

> <r_mmod_Van_der_Waal_Energy-OPLS-2005>
123.189224243164

> <r_mmod_Electrostatic_Energy-OPLS-2005>
-391.106689453125

> <r_mmod_Solvation_Energy-OPLS-2005>
-203.364364624023

> <b_mmod_Minimization_Converged-OPLS-2005>
0

> <r_mmod_RMS_Derivative-OPLS-2005>
0.897899985313416

$$$$
28
                    3D
 Structure written by MMmdl.
147155  0  0  1  0            999 V2000
  -30.3795  -15.4041   20.3537 C   0  0  0  0  0  0
  -30.4405  -12.9079   19.5398 C   0  0  0  0  0  0
  -29.5416  -12.6046   18.3115 C   0  0  0  0  0  0
  -28.1035  -12.2931   18.7516 C   0  0  0  0  0  0
  -27.6108  -13.2837   19.8317 C   0  0  2  0  0  0
  -28.6379  -13.5090   20.9639 C   0  0  0  0  0  0
  -25.2391  -13.8257   20.5777 C   0  0  0  0  0  0
  -24.1742  -13.0436   20.9268 C   0  0  0  0  0  0
  -24.6406  -11.6940   20.8792 C   0  0  0  0  0  0
  -23.9091  -10.4304   21.0418 C   0  0  0  0  0  0
  -24.3647   -9.4223   21.9200 C   0  0  0  0  0  0
  -23.6307   -8.2256   22.0753 C   0  0  0  0  0  0
  -22.4299   -8.0291   21.3540 C   0  0  0  0  0  0
  -21.9931   -9.0271   20.4650 C   0  0  0  0  0  0
  -22.7262  -10.2155   20.3070 C   0  0  0  0  0  0
  -21.6859   -6.0757   22.5281 C   0  0  0  0  0  0
  -21.4024   -6.5650   23.8216 C   0  0  0  0  0  0
  -21.3658   -5.6800   24.9179 C   0  0  0  0  0  0
  -21.6042   -4.3057   24.7224 C   0  0  0  0  0  0
  -21.8812   -3.8156   23.4342 C   0  0  0  0  0  0
  -21.9195   -4.6977   22.3399 C   0  0  0  0  0  0
  -22.7760  -13.5193   21.1896 C   0  0  0  0  0  0
  -22.1657   -4.2154   21.0981 F   0  0  0  0  0  0
  -21.5624   -3.4540   25.7740 F   0  0  0  0  0  0
  -29.8533  -14.0621   20.3344 N   0  0  0  0  0  0
  -26.2827  -12.9546   20.3285 N   0  0  0  0  0  0
  -25.9349  -11.6642   20.5763 N   0  0  0  0  0  0
  -22.0412  -12.8202   22.0476 N   0  0  0  0  0  0
  -25.3993  -15.1995   20.4212 N   0  0  0  0  0  0
  -31.5964  -15.3963   20.1096 O   0  0  0  0  0  0
  -21.6636   -6.8898   21.4242 O   0  0  0  0  0  0
  -22.3457  -14.5500   20.6731 O   0  0  0  0  0  0
  -24.6685  -31.8129   23.1623 C   0  0  0  0  0  0
  -25.9324  -32.4530   23.8116 C   0  0  1  0  0  0
  -27.2373  -26.8502   20.1988 C   0  0  0  0  0  0
  -25.5958  -33.8349   24.2020 N   0  0  0  0  0  0
  -23.4902  -30.4195   21.5107 C   0  0  2  0  0  0
  -24.9490  -28.7865   20.1125 C   0  0  0  0  0  0
  -22.7696  -29.4387   22.4733 C   0  0  0  0  0  0
  -18.0351  -28.1399   22.8479 C   0  0  0  0  0  0
  -24.1501  -36.7199   23.2652 C   0  0  0  0  0  0
  -26.0620  -30.5939   21.4060 C   0  0  0  0  0  0
  -26.1310  -29.1736   20.7553 C   0  0  0  0  0  0
  -27.2605  -28.2266   20.7755 C   0  0  0  0  0  0
  -26.0265  -26.6347   19.4983 C   0  0  0  0  0  0
  -24.9273  -27.5397   19.4629 C   0  0  0  0  0  0
  -23.7364  -29.7225   20.1416 C   0  0  0  0  0  0
  -25.4140  -36.2936   24.0294 C   0  0  1  0  0  0
  -20.5972  -28.3759   23.1171 C   0  0  2  0  0  0
  -20.6818  -26.9428   22.5411 C   0  0  0  0  0  0
  -19.5792  -26.6360   21.5224 C   0  0  0  0  0  0
  -18.1974  -26.7931   22.1635 C   0  0  0  0  0  0
  -19.1601  -28.8902   23.2812 C   0  0  0  0  0  0
  -18.9507  -30.1497   23.8843 C   0  0  0  0  0  0
  -17.6492  -30.6595   24.0548 C   0  0  0  0  0  0
  -25.9102  -34.9316   23.4991 C   0  0  0  0  0  0
  -16.5393  -29.9076   23.6331 C   0  0  0  0  0  0
  -16.7326  -28.6491   23.0363 C   0  0  0  0  0  0
  -26.4556  -31.6516   25.0683 C   0  0  0  0  0  0
  -25.3666  -31.3808   26.1333 C   0  0  0  0  0  0
  -27.0465  -30.2868   24.6495 C   0  0  0  0  0  0
  -27.6028  -32.4347   25.7498 C   0  0  0  0  0  0
  -27.5575  -37.1756   24.8467 C   0  0  0  0  0  0
  -21.4359  -29.3032   22.3489 N   0  0  0  0  0  0
  -26.4289  -37.3671   23.9400 N   0  0  0  0  0  0
  -24.7619  -30.9719   22.0794 N   0  0  0  0  0  0
  -23.4198  -28.7959   23.3004 O   0  0  0  0  0  0
  -28.2394  -25.7201   20.3210 O   0  0  0  0  0  0
  -26.5732  -34.8871   22.4603 O   0  0  0  0  0  0
  -23.5729  -32.1126   23.6671 O   0  0  0  0  0  0
  -28.7861  -19.3360   20.7664 C   0  0  0  0  0  0
  -29.1925  -20.7570   20.3015 C   0  0  0  0  0  0
  -29.6229  -18.2035   20.3305 C   0  0  0  0  0  0
  -31.6776  -18.5056   18.8574 C   0  0  0  0  0  0
  -28.8957  -22.5042   20.6874 C   0  0  0  0  0  0
  -28.1860  -24.0609   19.9721 C   0  0  0  0  0  0
  -30.2827  -20.3810   19.5873 N   0  0  0  0  0  0
  -30.5283  -18.9843   19.5972 N   0  0  0  0  0  0
  -29.5826  -16.6796   20.5115 N   0  0  0  0  0  0
  -31.4453  -13.1408   19.1872 H   0  0  0  0  0  0
  -30.5555  -12.0205   20.1638 H   0  0  0  0  0  0
  -29.9456  -11.7711   17.7345 H   0  0  0  0  0  0
  -29.5378  -13.4696   17.6475 H   0  0  0  0  0  0
  -28.1018  -11.2829   19.1626 H   0  0  0  0  0  0
  -27.4273  -12.2802   17.8971 H   0  0  0  0  0  0
  -27.5129  -14.2354   19.3075 H   0  0  0  0  0  0
  -28.8421  -12.5870   21.5115 H   0  0  0  0  0  0
  -28.2508  -14.2243   21.6933 H   0  0  0  0  0  0
  -25.2783   -9.5681   22.4802 H   0  0  0  0  0  0
  -23.9995   -7.4646   22.7496 H   0  0  0  0  0  0
  -21.0847   -8.8813   19.8976 H   0  0  0  0  0  0
  -22.3707  -10.9713   19.6202 H   0  0  0  0  0  0
  -21.2016   -7.6156   23.9725 H   0  0  0  0  0  0
  -21.1485   -6.0529   25.9083 H   0  0  0  0  0  0
  -22.0588   -2.7614   23.2849 H   0  0  0  0  0  0
  -22.4023  -11.9862   22.4871 H   0  0  0  0  0  0
  -21.1041  -13.1250   22.2709 H   0  0  0  0  0  0
  -24.6205  -15.8412   20.5257 H   0  0  0  0  0  0
  -26.2308  -15.6459   20.0577 H   0  0  0  0  0  0
  -26.7406  -32.5033   23.0831 H   0  0  0  0  0  0
  -25.0042  -33.9400   25.0134 H   0  0  0  0  0  0
  -22.8094  -31.2531   21.3284 H   0  0  0  0  0  0
  -23.3751  -35.9543   23.3286 H   0  0  0  0  0  0
  -24.3578  -36.8875   22.2072 H   0  0  0  0  0  0
  -23.7278  -37.6389   23.6730 H   0  0  0  0  0  0
  -26.2502  -31.3258   20.6194 H   0  0  0  0  0  0
  -26.9194  -30.6581   22.0640 H   0  0  0  0  0  0
  -28.1464  -28.5185   21.3215 H   0  0  0  0  0  0
  -25.8910  -25.6825   19.0055 H   0  0  0  0  0  0
  -24.0312  -27.2371   18.9391 H   0  0  0  0  0  0
  -23.8956  -30.4842   19.3778 H   0  0  0  0  0  0
  -22.8467  -29.1767   19.8238 H   0  0  0  0  0  0
  -25.1345  -36.1730   25.0786 H   0  0  0  0  0  0
  -21.0089  -28.3387   24.1280 H   0  0  0  0  0  0
  -20.5697  -26.2375   23.3660 H   0  0  0  0  0  0
  -21.6674  -26.7380   22.1214 H   0  0  0  0  0  0
  -19.6943  -25.6248   21.1300 H   0  0  0  0  0  0
  -19.6738  -27.3130   20.6718 H   0  0  0  0  0  0
  -17.4244  -26.6684   21.4040 H   0  0  0  0  0  0
  -18.0372  -26.0082   22.9041 H   0  0  0  0  0  0
  -19.7980  -30.7331   24.2174 H   0  0  0  0  0  0
  -17.5043  -31.6265   24.5171 H   0  0  0  0  0  0
  -15.5385  -30.2953   23.7677 H   0  0  0  0  0  0
  -15.8740  -28.0783   22.7099 H   0  0  0  0  0  0
  -24.5850  -30.7154   25.7651 H   0  0  0  0  0  0
  -24.8845  -32.3022   26.4609 H   0  0  0  0  0  0
  -25.7864  -30.9069   27.0216 H   0  0  0  0  0  0
  -26.3151  -29.6515   24.1488 H   0  0  0  0  0  0
  -27.3946  -29.7277   25.5194 H   0  0  0  0  0  0
  -27.9111  -30.4022   23.9955 H   0  0  0  0  0  0
  -27.2578  -33.3702   26.1923 H   0  0  0  0  0  0
  -28.3917  -32.6828   25.0382 H   0  0  0  0  0  0
  -28.0613  -31.8576   26.5544 H   0  0  0  0  0  0
  -28.2572  -38.0067   24.7470 H   0  0  0  0  0  0
  -28.1086  -36.2581   24.6337 H   0  0  0  0  0  0
  -27.2281  -37.1448   25.8869 H   0  0  0  0  0  0
  -20.9622  -29.8675   21.6574 H   0  0  0  0  0  0
  -26.0128  -38.2737   24.1369 H   0  0  0  0  0  0
  -27.9455  -19.1813   21.4273 H   0  0  0  0  0  0
  -32.3231  -17.9287   19.5183 H   0  0  0  0  0  0
  -32.2534  -19.3387   18.4520 H   0  0  0  0  0  0
  -31.3501  -17.8688   18.0354 H   0  0  0  0  0  0
  -29.9037  -22.8553   20.9111 H   0  0  0  0  0  0
  -28.4390  -22.4720   21.6757 H   0  0  0  0  0  0
  -27.1276  -23.8407   19.8403 H   0  0  0  0  0  0
  -28.5788  -24.0624   18.9546 H   0  0  0  0  0  0
  -28.6659  -16.4064   20.8269 H   0  0  0  0  0  0
  1 25  1  0  0  0
  1 30  2  0  0  0
  1 79  1  0  0  0
  2  3  1  0  0  0
  2 25  1  0  0  0
  2 80  1  0  0  0
  2 81  1  0  0  0
  3  4  1  0  0  0
  3 82  1  0  0  0
  3 83  1  0  0  0
  4  5  1  0  0  0
  4 84  1  0  0  0
  4 85  1  0  0  0
  5  6  1  0  0  0
  5 26  1  0  0  0
  5 86  1  0  0  0
  6 25  1  0  0  0
  6 87  1  0  0  0
  6 88  1  0  0  0
  7  8  2  0  0  0
  7 26  1  0  0  0
  7 29  1  0  0  0
  8  9  1  0  0  0
  8 22  1  0  0  0
  9 10  1  0  0  0
  9 27  2  0  0  0
 10 11  2  0  0  0
 10 15  1  0  0  0
 11 12  1  0  0  0
 11 89  1  0  0  0
 12 13  2  0  0  0
 12 90  1  0  0  0
 13 14  1  0  0  0
 13 31  1  0  0  0
 14 15  2  0  0  0
 14 91  1  0  0  0
 15 92  1  0  0  0
 16 17  2  0  0  0
 16 21  1  0  0  0
 16 31  1  0  0  0
 17 18  1  0  0  0
 17 93  1  0  0  0
 18 19  2  0  0  0
 18 94  1  0  0  0
 19 20  1  0  0  0
 19 24  1  0  0  0
 20 21  2  0  0  0
 20 95  1  0  0  0
 21 23  1  0  0  0
 22 28  1  0  0  0
 22 32  2  0  0  0
 26 27  1  0  0  0
 28 96  1  0  0  0
 28 97  1  0  0  0
 29 98  1  0  0  0
 29 99  1  0  0  0
 33 34  1  0  0  0
 33 66  1  0  0  0
 33 70  2  0  0  0
 34 36  1  0  0  0
 34 59  1  0  0  0
 34100  1  0  0  0
 35 44  2  0  0  0
 35 45  1  0  0  0
 35 68  1  0  0  0
 36 56  1  0  0  0
 36101  1  0  0  0
 37 39  1  0  0  0
 37 47  1  0  0  0
 37 66  1  0  0  0
 37102  1  0  0  0
 38 43  2  0  0  0
 38 46  1  0  0  0
 38 47  1  0  0  0
 39 64  1  0  0  0
 39 67  2  0  0  0
 40 52  1  0  0  0
 40 53  2  0  0  0
 40 58  1  0  0  0
 41103  1  0  0  0
 41104  1  0  0  0
 41105  1  0  0  0
 41 48  1  0  0  0
 42 43  1  0  0  0
 42 66  1  0  0  0
 42106  1  0  0  0
 42107  1  0  0  0
 43 44  1  0  0  0
 44108  1  0  0  0
 45 46  2  0  0  0
 45109  1  0  0  0
 46110  1  0  0  0
 47111  1  0  0  0
 47112  1  0  0  0
 48 56  1  0  0  0
 48 65  1  0  0  0
 48113  1  0  0  0
 49 50  1  0  0  0
 49 53  1  0  0  0
 49 64  1  0  0  0
 49114  1  0  0  0
 50 51  1  0  0  0
 50115  1  0  0  0
 50116  1  0  0  0
 51 52  1  0  0  0
 51117  1  0  0  0
 51118  1  0  0  0
 52119  1  0  0  0
 52120  1  0  0  0
 53 54  1  0  0  0
 54 55  2  0  0  0
 54121  1  0  0  0
 55 57  1  0  0  0
 55122  1  0  0  0
 56 69  2  0  0  0
 57 58  2  0  0  0
 57123  1  0  0  0
 58124  1  0  0  0
 59 60  1  0  0  0
 59 61  1  0  0  0
 59 62  1  0  0  0
 60125  1  0  0  0
 60126  1  0  0  0
 60127  1  0  0  0
 61128  1  0  0  0
 61129  1  0  0  0
 61130  1  0  0  0
 62131  1  0  0  0
 62132  1  0  0  0
 62133  1  0  0  0
 63 65  1  0  0  0
 63134  1  0  0  0
 63135  1  0  0  0
 63136  1  0  0  0
 64137  1  0  0  0
 65138  1  0  0  0
 68 76  1  0  0  0
 71 72  1  0  0  0
 71 73  2  0  0  0
 71139  1  0  0  0
 72 75  1  0  0  0
 72 77  2  0  0  0
 73 78  1  0  0  0
 73 79  1  0  0  0
 74 78  1  0  0  0
 74140  1  0  0  0
 74141  1  0  0  0
 74142  1  0  0  0
 75 76  1  0  0  0
 75143  1  0  0  0
 75144  1  0  0  0
 76145  1  0  0  0
 76146  1  0  0  0
 77 78  1  0  0  0
 79147  1  0  0  0
M  ISO  4   1 100  68 101  76 101  79 100
M  END
> <chiral flag>
0

> <version>
0

> <s_m_source_file>
/data/baiqing/PycharmProjects/Reinvent-master-3.2/result/LINK_invent/BTK/process_docking_weight1_custom_sum_contain_oxygen_bond_distance_aromatic_linkinvent_7_9_3/rearranged_h_0021.sdf

> <i_m_source_file_index>
29

> <r_mmod_Potential_Energy-OPLS-2005>
1503.92358398438

> <r_mmod_Stretch_Energy-OPLS-2005>
699.596557617188

> <r_mmod_Bend_Energy-OPLS-2005>
536.358581542969

> <r_mmod_Torsional_Energy-OPLS-2005>
204.954177856445

> <r_mmod_Improper_Torsional_Energy-OPLS-2005>
4.30648374557495

> <r_mmod_Van_der_Waal_Energy-OPLS-2005>
105.069267272949

> <r_mmod_Electrostatic_Energy-OPLS-2005>
-417.916259765625

> <r_mmod_Solvation_Energy-OPLS-2005>
-229.193450927734

> <b_mmod_Minimization_Converged-OPLS-2005>
0

> <r_mmod_RMS_Derivative-OPLS-2005>
2.82183909416199

$$$$
29
                    3D
 Structure written by MMmdl.
150158  0  0  1  0            999 V2000
  -30.4022  -15.3056   20.3561 C   0  0  0  0  0  0
  -30.4358  -12.8496   19.4768 C   0  0  0  0  0  0
  -29.5136  -12.5765   18.2623 C   0  0  0  0  0  0
  -28.0685  -12.2916   18.7105 C   0  0  0  0  0  0
  -27.6002  -13.2719   19.8123 C   0  0  2  0  0  0
  -28.6498  -13.4592   20.9261 C   0  0  0  0  0  0
  -25.2384  -13.8241   20.5840 C   0  0  0  0  0  0
  -24.1711  -13.0428   20.9305 C   0  0  0  0  0  0
  -24.6364  -11.6927   20.8808 C   0  0  0  0  0  0
  -23.9052  -10.4294   21.0432 C   0  0  0  0  0  0
  -24.3608   -9.4206   21.9205 C   0  0  0  0  0  0
  -23.6299   -8.2228   22.0745 C   0  0  0  0  0  0
  -22.4279   -8.0265   21.3533 C   0  0  0  0  0  0
  -21.9912   -9.0235   20.4634 C   0  0  0  0  0  0
  -22.7229  -10.2129   20.3068 C   0  0  0  0  0  0
  -21.6853   -6.0744   22.5276 C   0  0  0  0  0  0
  -21.4021   -6.5645   23.8215 C   0  0  0  0  0  0
  -21.3668   -5.6787   24.9167 C   0  0  0  0  0  0
  -21.6037   -4.3049   24.7209 C   0  0  0  0  0  0
  -21.8822   -3.8148   23.4325 C   0  0  0  0  0  0
  -21.9187   -4.6972   22.3386 C   0  0  0  0  0  0
  -22.7730  -13.5196   21.1899 C   0  0  0  0  0  0
  -22.1659   -4.2161   21.0967 F   0  0  0  0  0  0
  -21.5618   -3.4539   25.7727 F   0  0  0  0  0  0
  -29.8508  -13.9953   20.2594 N   0  0  0  0  0  0
  -26.2775  -12.9497   20.3259 N   0  0  0  0  0  0
  -25.9296  -11.6601   20.5748 N   0  0  0  0  0  0
  -22.0340  -12.8241   22.0470 N   0  0  0  0  0  0
  -25.4029  -15.1983   20.4388 N   0  0  0  0  0  0
  -31.6419  -15.2971   20.3022 O   0  0  0  0  0  0
  -21.6622   -6.8877   21.4236 O   0  0  0  0  0  0
  -22.3430  -14.5472   20.6673 O   0  0  0  0  0  0
  -24.6688  -31.8156   23.1625 C   0  0  0  0  0  0
  -25.9329  -32.4544   23.8119 C   0  0  1  0  0  0
  -27.2149  -26.8673   20.2029 C   0  0  0  0  0  0
  -25.5970  -33.8362   24.2029 N   0  0  0  0  0  0
  -23.4878  -30.4241   21.5139 C   0  0  2  0  0  0
  -24.9411  -28.7962   20.1183 C   0  0  0  0  0  0
  -22.7713  -29.4380   22.4751 C   0  0  0  0  0  0
  -18.0328  -28.1407   22.8491 C   0  0  0  0  0  0
  -24.1519  -36.7216   23.2640 C   0  0  0  0  0  0
  -26.0598  -30.6036   21.4034 C   0  0  0  0  0  0
  -26.1263  -29.1856   20.7540 C   0  0  0  0  0  0
  -27.2602  -28.2455   20.7644 C   0  0  0  0  0  0
  -25.9954  -26.6372   19.5268 C   0  0  0  0  0  0
  -24.9027  -27.5446   19.4832 C   0  0  0  0  0  0
  -23.7321  -29.7337   20.1434 C   0  0  0  0  0  0
  -25.4159  -36.2940   24.0285 C   0  0  1  0  0  0
  -20.5968  -28.3745   23.1208 C   0  0  2  0  0  0
  -20.6808  -26.9423   22.5430 C   0  0  0  0  0  0
  -19.5761  -26.6368   21.5263 C   0  0  0  0  0  0
  -18.1944  -26.7936   22.1655 C   0  0  0  0  0  0
  -19.1597  -28.8899   23.2819 C   0  0  0  0  0  0
  -18.9511  -30.1506   23.8835 C   0  0  0  0  0  0
  -17.6504  -30.6603   24.0563 C   0  0  0  0  0  0
  -25.9111  -34.9321   23.4971 C   0  0  0  0  0  0
  -16.5382  -29.9101   23.6357 C   0  0  0  0  0  0
  -16.7308  -28.6522   23.0374 C   0  0  0  0  0  0
  -26.4564  -31.6498   25.0661 C   0  0  0  0  0  0
  -25.3686  -31.3752   26.1307 C   0  0  0  0  0  0
  -27.0453  -30.2854   24.6425 C   0  0  0  0  0  0
  -27.6048  -32.4312   25.7466 C   0  0  0  0  0  0
  -27.5588  -37.1771   24.8458 C   0  0  0  0  0  0
  -21.4368  -29.3037   22.3548 N   0  0  0  0  0  0
  -26.4301  -37.3686   23.9381 N   0  0  0  0  0  0
  -24.7607  -30.9757   22.0812 N   0  0  0  0  0  0
  -23.4234  -28.7948   23.3004 O   0  0  0  0  0  0
  -28.2267  -25.7536   20.2053 O   0  0  0  0  0  0
  -26.5738  -34.8871   22.4579 O   0  0  0  0  0  0
  -23.5745  -32.1146   23.6685 O   0  0  0  0  0  0
  -28.7805  -20.7289   21.9609 C   0  0  0  0  0  0
  -28.9400  -19.4940   22.6565 C   0  0  0  0  0  0
  -28.9363  -20.8753   20.5680 C   0  0  0  0  0  0
  -29.4929  -18.1088   20.6449 C   0  0  0  0  0  0
  -29.3270  -18.2589   22.0468 C   0  0  0  0  0  0
  -29.2622  -19.4817   19.9492 C   0  0  0  0  0  0
  -28.6246  -19.4942   24.1436 C   0  0  0  0  0  0
  -28.8126  -22.5310   19.9420 C   0  0  0  0  0  0
  -28.0437  -24.1073   20.4838 C   0  0  0  0  0  0
  -29.6302  -16.5643   20.1323 N   0  0  0  0  0  0
  -29.5128  -16.8679   23.0732 Cl  0  0  0  0  0  0
  -29.3740  -19.4543   18.2276 Cl  0  0  0  0  0  0
  -31.4377  -13.0929   19.1193 H   0  0  0  0  0  0
  -30.5467  -11.9578   20.0948 H   0  0  0  0  0  0
  -29.8883  -11.7392   17.6757 H   0  0  0  0  0  0
  -29.5196  -13.4489   17.6074 H   0  0  0  0  0  0
  -28.0364  -11.2716   19.0951 H   0  0  0  0  0  0
  -27.3853  -12.3135   17.8597 H   0  0  0  0  0  0
  -27.4961  -14.2295   19.3022 H   0  0  0  0  0  0
  -28.8524  -12.5270   21.4557 H   0  0  0  0  0  0
  -28.2924  -14.1710   21.6716 H   0  0  0  0  0  0
  -25.2722   -9.5697   22.4826 H   0  0  0  0  0  0
  -23.9997   -7.4629   22.7479 H   0  0  0  0  0  0
  -21.0834   -8.8751   19.8966 H   0  0  0  0  0  0
  -22.3658  -10.9682   19.6210 H   0  0  0  0  0  0
  -21.2029   -7.6154   23.9735 H   0  0  0  0  0  0
  -21.1493   -6.0504   25.9079 H   0  0  0  0  0  0
  -22.0598   -2.7609   23.2805 H   0  0  0  0  0  0
  -22.3924  -11.9939   22.4949 H   0  0  0  0  0  0
  -21.0951  -13.1310   22.2599 H   0  0  0  0  0  0
  -24.6336  -15.8440   20.5769 H   0  0  0  0  0  0
  -26.2564  -15.6619   20.1605 H   0  0  0  0  0  0
  -26.7402  -32.5081   23.0836 H   0  0  0  0  0  0
  -25.0081  -33.9448   25.0154 H   0  0  0  0  0  0
  -22.8040  -31.2563   21.3347 H   0  0  0  0  0  0
  -23.3776  -35.9551   23.3269 H   0  0  0  0  0  0
  -24.3601  -36.8901   22.2063 H   0  0  0  0  0  0
  -23.7304  -37.6400   23.6732 H   0  0  0  0  0  0
  -26.2438  -31.3358   20.6170 H   0  0  0  0  0  0
  -26.9190  -30.6679   22.0584 H   0  0  0  0  0  0
  -28.1627  -28.5468   21.2795 H   0  0  0  0  0  0
  -25.8606  -25.6822   19.0370 H   0  0  0  0  0  0
  -24.0031  -27.2437   18.9633 H   0  0  0  0  0  0
  -23.9004  -30.4962   19.3826 H   0  0  0  0  0  0
  -22.8409  -29.1919   19.8204 H   0  0  0  0  0  0
  -25.1375  -36.1729   25.0786 H   0  0  0  0  0  0
  -21.0061  -28.3348   24.1328 H   0  0  0  0  0  0
  -20.5704  -26.2372   23.3678 H   0  0  0  0  0  0
  -21.6664  -26.7383   22.1231 H   0  0  0  0  0  0
  -19.6902  -25.6261   21.1346 H   0  0  0  0  0  0
  -19.6713  -27.3170   20.6791 H   0  0  0  0  0  0
  -17.4218  -26.6694   21.4043 H   0  0  0  0  0  0
  -18.0308  -26.0096   22.9068 H   0  0  0  0  0  0
  -19.7992  -30.7350   24.2146 H   0  0  0  0  0  0
  -17.5069  -31.6288   24.5155 H   0  0  0  0  0  0
  -15.5385  -30.2994   23.7719 H   0  0  0  0  0  0
  -15.8708  -28.0833   22.7101 H   0  0  0  0  0  0
  -24.5891  -30.7078   25.7606 H   0  0  0  0  0  0
  -24.8855  -32.2955   26.4591 H   0  0  0  0  0  0
  -25.7904  -30.8995   27.0168 H   0  0  0  0  0  0
  -26.3107  -29.6515   24.1445 H   0  0  0  0  0  0
  -27.3978  -29.7225   25.5076 H   0  0  0  0  0  0
  -27.9059  -30.4005   23.9839 H   0  0  0  0  0  0
  -27.2598  -33.3650   26.1915 H   0  0  0  0  0  0
  -28.3911  -32.6810   25.0330 H   0  0  0  0  0  0
  -28.0667  -31.8530   26.5475 H   0  0  0  0  0  0
  -28.2566  -38.0101   24.7501 H   0  0  0  0  0  0
  -28.1117  -36.2618   24.6291 H   0  0  0  0  0  0
  -27.2287  -37.1427   25.8853 H   0  0  0  0  0  0
  -20.9596  -29.8797   21.6768 H   0  0  0  0  0  0
  -26.0134  -38.2737   24.1362 H   0  0  0  0  0  0
  -28.5212  -21.6112   22.5293 H   0  0  0  0  0  0
  -27.9631  -18.6616   24.3884 H   0  0  0  0  0  0
  -28.1115  -20.4039   24.4544 H   0  0  0  0  0  0
  -29.5353  -19.4010   24.7351 H   0  0  0  0  0  0
  -28.4604  -22.3856   18.9206 H   0  0  0  0  0  0
  -29.8622  -22.7927   19.8107 H   0  0  0  0  0  0
  -28.2150  -24.0775   21.5599 H   0  0  0  0  0  0
  -26.9708  -23.9355   20.3927 H   0  0  0  0  0  0
  -28.7864  -16.3103   19.6451 H   0  0  0  0  0  0
  1 25  1  0  0  0
  1 30  2  0  0  0
  1 80  1  0  0  0
  2  3  1  0  0  0
  2 25  1  0  0  0
  2 83  1  0  0  0
  2 84  1  0  0  0
  3  4  1  0  0  0
  3 85  1  0  0  0
  3 86  1  0  0  0
  4  5  1  0  0  0
  4 87  1  0  0  0
  4 88  1  0  0  0
  5  6  1  0  0  0
  5 26  1  0  0  0
  5 89  1  0  0  0
  6 25  1  0  0  0
  6 90  1  0  0  0
  6 91  1  0  0  0
  7  8  2  0  0  0
  7 26  1  0  0  0
  7 29  1  0  0  0
  8  9  1  0  0  0
  8 22  1  0  0  0
  9 10  1  0  0  0
  9 27  2  0  0  0
 10 11  2  0  0  0
 10 15  1  0  0  0
 11 12  1  0  0  0
 11 92  1  0  0  0
 12 13  2  0  0  0
 12 93  1  0  0  0
 13 14  1  0  0  0
 13 31  1  0  0  0
 14 15  2  0  0  0
 14 94  1  0  0  0
 15 95  1  0  0  0
 16 17  2  0  0  0
 16 21  1  0  0  0
 16 31  1  0  0  0
 17 18  1  0  0  0
 17 96  1  0  0  0
 18 19  2  0  0  0
 18 97  1  0  0  0
 19 20  1  0  0  0
 19 24  1  0  0  0
 20 21  2  0  0  0
 20 98  1  0  0  0
 21 23  1  0  0  0
 22 28  1  0  0  0
 22 32  2  0  0  0
 26 27  1  0  0  0
 28 99  1  0  0  0
 28100  1  0  0  0
 29101  1  0  0  0
 29102  1  0  0  0
 33 34  1  0  0  0
 33 66  1  0  0  0
 33 70  2  0  0  0
 34 36  1  0  0  0
 34 59  1  0  0  0
 34103  1  0  0  0
 35 44  2  0  0  0
 35 45  1  0  0  0
 35 68  1  0  0  0
 36 56  1  0  0  0
 36104  1  0  0  0
 37 39  1  0  0  0
 37 47  1  0  0  0
 37 66  1  0  0  0
 37105  1  0  0  0
 38 43  2  0  0  0
 38 46  1  0  0  0
 38 47  1  0  0  0
 39 64  1  0  0  0
 39 67  2  0  0  0
 40 52  1  0  0  0
 40 53  2  0  0  0
 40 58  1  0  0  0
 41106  1  0  0  0
 41107  1  0  0  0
 41108  1  0  0  0
 41 48  1  0  0  0
 42 43  1  0  0  0
 42 66  1  0  0  0
 42109  1  0  0  0
 42110  1  0  0  0
 43 44  1  0  0  0
 44111  1  0  0  0
 45 46  2  0  0  0
 45112  1  0  0  0
 46113  1  0  0  0
 47114  1  0  0  0
 47115  1  0  0  0
 48 56  1  0  0  0
 48 65  1  0  0  0
 48116  1  0  0  0
 49 50  1  0  0  0
 49 53  1  0  0  0
 49 64  1  0  0  0
 49117  1  0  0  0
 50 51  1  0  0  0
 50118  1  0  0  0
 50119  1  0  0  0
 51 52  1  0  0  0
 51120  1  0  0  0
 51121  1  0  0  0
 52122  1  0  0  0
 52123  1  0  0  0
 53 54  1  0  0  0
 54 55  2  0  0  0
 54124  1  0  0  0
 55 57  1  0  0  0
 55125  1  0  0  0
 56 69  2  0  0  0
 57 58  2  0  0  0
 57126  1  0  0  0
 58127  1  0  0  0
 59 60  1  0  0  0
 59 61  1  0  0  0
 59 62  1  0  0  0
 60128  1  0  0  0
 60129  1  0  0  0
 60130  1  0  0  0
 61131  1  0  0  0
 61132  1  0  0  0
 61133  1  0  0  0
 62134  1  0  0  0
 62135  1  0  0  0
 62136  1  0  0  0
 63 65  1  0  0  0
 63137  1  0  0  0
 63138  1  0  0  0
 63139  1  0  0  0
 64140  1  0  0  0
 65141  1  0  0  0
 68 79  1  0  0  0
 71 72  2  0  0  0
 71 73  1  0  0  0
 71142  1  0  0  0
 72 75  1  0  0  0
 72 77  1  0  0  0
 73 76  2  0  0  0
 73 78  1  0  0  0
 74 75  2  0  0  0
 74 76  1  0  0  0
 74 80  1  0  0  0
 75 81  1  0  0  0
 76 82  1  0  0  0
 77143  1  0  0  0
 77144  1  0  0  0
 77145  1  0  0  0
 78 79  1  0  0  0
 78146  1  0  0  0
 78147  1  0  0  0
 79148  1  0  0  0
 79149  1  0  0  0
 80150  1  0  0  0
M  ISO  4   1 100  68 101  79 101  80 100
M  END
> <chiral flag>
0

> <version>
0

> <s_m_source_file>
/data/baiqing/PycharmProjects/Reinvent-master-3.2/result/LINK_invent/BTK/process_docking_weight1_custom_sum_contain_oxygen_bond_distance_aromatic_linkinvent_7_9_3/rearranged_h_0021.sdf

> <i_m_source_file_index>
30

> <r_mmod_Potential_Energy-OPLS-2005>
1416.94482421875

> <r_mmod_Stretch_Energy-OPLS-2005>
650.653991699219

> <r_mmod_Bend_Energy-OPLS-2005>
444.847717285156

> <r_mmod_Torsional_Energy-OPLS-2005>
272.241973876953

> <r_mmod_Improper_Torsional_Energy-OPLS-2005>
13.2380867004395

> <r_mmod_Van_der_Waal_Energy-OPLS-2005>
125.001205444336

> <r_mmod_Electrostatic_Energy-OPLS-2005>
-406.164001464844

> <r_mmod_Solvation_Energy-OPLS-2005>
-208.836944580078

> <b_mmod_Minimization_Converged-OPLS-2005>
0

> <r_mmod_RMS_Derivative-OPLS-2005>
3.28679037094116

$$$$
30
                    3D
 Structure written by MMmdl.
187196  0  0  1  0            999 V2000
  -30.7046  -14.4472   20.5505 C   0  0  0  0  0  0
  -30.4208  -12.2913   19.4075 C   0  0  0  0  0  0
  -29.4859  -12.5056   18.1987 C   0  0  0  0  0  0
  -28.0034  -12.3824   18.6123 C   0  0  0  0  0  0
  -27.6628  -13.1947   19.8924 C   0  0  2  0  0  0
  -28.7162  -12.9102   20.9917 C   0  0  0  0  0  0
  -25.2584  -13.8160   20.5712 C   0  0  0  0  0  0
  -24.1807  -13.0444   20.9164 C   0  0  0  0  0  0
  -24.6350  -11.6915   20.8731 C   0  0  0  0  0  0
  -23.9018  -10.4309   21.0391 C   0  0  0  0  0  0
  -24.3587   -9.4246   21.9169 C   0  0  0  0  0  0
  -23.6279   -8.2274   22.0732 C   0  0  0  0  0  0
  -22.4257   -8.0289   21.3532 C   0  0  0  0  0  0
  -21.9882   -9.0257   20.4627 C   0  0  0  0  0  0
  -22.7197  -10.2149   20.3043 C   0  0  0  0  0  0
  -21.6861   -6.0735   22.5268 C   0  0  0  0  0  0
  -21.4013   -6.5629   23.8210 C   0  0  0  0  0  0
  -21.3656   -5.6771   24.9161 C   0  0  0  0  0  0
  -21.6052   -4.3042   24.7214 C   0  0  0  0  0  0
  -21.8825   -3.8147   23.4337 C   0  0  0  0  0  0
  -21.9195   -4.6962   22.3396 C   0  0  0  0  0  0
  -22.7834  -13.5251   21.1819 C   0  0  0  0  0  0
  -22.1644   -4.2138   21.0973 F   0  0  0  0  0  0
  -21.5643   -3.4526   25.7735 F   0  0  0  0  0  0
  -30.0258  -13.2697   20.4341 N   0  0  0  0  0  0
  -26.3019  -12.9299   20.3491 N   0  0  0  0  0  0
  -25.9287  -11.6472   20.5849 N   0  0  0  0  0  0
  -22.0459  -12.8246   22.0371 N   0  0  0  0  0  0
  -25.4327  -15.1874   20.4125 N   0  0  0  0  0  0
  -31.8743  -14.5279   20.1627 O   0  0  0  0  0  0
  -21.6649   -6.8873   21.4222 O   0  0  0  0  0  0
  -22.3517  -14.5546   20.6670 O   0  0  0  0  0  0
  -24.6106  -31.8668   23.2121 C   0  0  0  0  0  0
  -25.9020  -32.4809   23.8405 C   0  0  1  0  0  0
  -27.2358  -27.4844   20.0814 C   0  0  0  0  0  0
  -25.5898  -33.8610   24.2343 N   0  0  0  0  0  0
  -23.3952  -30.4896   21.5510 C   0  0  2  0  0  0
  -24.8416  -28.9566   20.1179 C   0  0  0  0  0  0
  -22.7396  -29.4627   22.5005 C   0  0  0  0  0  0
  -18.0256  -28.1383   22.8472 C   0  0  0  0  0  0
  -24.1497  -36.7315   23.2640 C   0  0  0  0  0  0
  -25.9175  -30.8484   21.3581 C   0  0  0  0  0  0
  -25.9966  -29.4862   20.7051 C   0  0  0  0  0  0
  -27.2012  -28.7572   20.6818 C   0  0  0  0  0  0
  -26.0684  -26.9459   19.5076 C   0  0  0  0  0  0
  -24.8677  -27.6813   19.5231 C   0  0  0  0  0  0
  -23.6024  -29.8190   20.1661 C   0  0  0  0  0  0
  -25.4115  -36.3106   24.0345 C   0  0  1  0  0  0
  -20.5845  -28.3653   23.1342 C   0  0  2  0  0  0
  -20.6752  -26.9393   22.5426 C   0  0  0  0  0  0
  -19.5740  -26.6381   21.5211 C   0  0  0  0  0  0
  -18.1910  -26.7931   22.1613 C   0  0  0  0  0  0
  -19.1508  -28.8833   23.2897 C   0  0  0  0  0  0
  -18.9441  -30.1433   23.8923 C   0  0  0  0  0  0
  -17.6452  -30.6594   24.0559 C   0  0  0  0  0  0
  -25.9042  -34.9467   23.5143 C   0  0  0  0  0  0
  -16.5337  -29.9102   23.6318 C   0  0  0  0  0  0
  -16.7247  -28.6518   23.0335 C   0  0  0  0  0  0
  -26.4476  -31.6561   25.0707 C   0  0  0  0  0  0
  -25.3786  -31.3665   26.1497 C   0  0  0  0  0  0
  -27.0299  -30.3003   24.6042 C   0  0  0  0  0  0
  -27.6033  -32.4296   25.7477 C   0  0  0  0  0  0
  -27.5587  -37.1812   24.8466 C   0  0  0  0  0  0
  -21.4128  -29.3013   22.3755 N   0  0  0  0  0  0
  -26.4297  -37.3791   23.9418 N   0  0  0  0  0  0
  -24.6579  -31.0831   22.0990 N   0  0  0  0  0  0
  -23.4195  -28.8166   23.3013 O   0  0  0  0  0  0
  -28.4054  -26.7778   20.0200 O   0  0  0  0  0  0
  -26.5580  -34.8907   22.4691 O   0  0  0  0  0  0
  -23.5316  -32.1367   23.7568 O   0  0  0  0  0  0
  -31.0073  -18.7592   18.6866 C   0  0  0  0  0  0
  -31.1322  -17.7716   19.6823 C   0  0  0  0  0  0
  -32.8976  -19.1505   20.7263 C   0  0  0  0  0  0
  -32.7307  -20.1433   19.7181 C   0  0  0  0  0  0
  -31.7771  -19.9302   18.6955 C   0  0  0  0  0  0
  -32.0915  -17.9789   20.7220 C   0  0  0  0  0  0
  -27.8953  -19.1614   22.7655 C   0  0  0  0  0  0
  -29.2305  -18.5902   22.2883 C   0  0  0  0  0  0
  -27.3372  -17.7409   22.6588 C   0  0  0  0  0  0
  -28.4622  -17.4131   21.6604 C   0  0  0  0  0  0
  -33.9372  -19.3075   21.8415 C   0  0  0  0  0  0
  -30.2056  -16.5564   19.4786 C   0  0  0  0  0  0
  -33.5176  -21.4524   19.7559 C   0  0  0  0  0  0
  -29.0364  -15.9828   21.6685 C   0  0  0  0  0  0
  -31.1898  -25.5003   23.4158 C   0  0  0  0  0  0
  -31.6727  -24.7721   22.1515 C   0  0  0  0  0  0
  -29.6733  -25.7645   23.4623 C   0  0  0  0  0  0
  -33.1430  -24.3301   22.2622 C   0  0  0  0  0  0
  -29.1491  -26.6815   22.3438 C   0  0  0  0  0  0
  -33.6780  -23.5845   21.0275 C   0  0  0  0  0  0
  -28.6187  -25.9092   21.1205 C   0  0  0  0  0  0
  -29.9488  -15.5862   20.5628 N   0  0  0  0  0  0
  -32.9483  -22.3236   20.7993 N   0  3  0  0  0  0
  -31.4982  -21.0850   17.4384 Cl  0  0  0  0  0  0
  -32.3031  -16.8754   22.0427 Cl  0  0  0  0  0  0
  -31.4612  -12.3896   19.0935 H   0  0  0  0  0  0
  -30.3347  -11.2726   19.7898 H   0  0  0  0  0  0
  -29.7179  -11.7856   17.4112 H   0  0  0  0  0  0
  -29.6591  -13.4960   17.7726 H   0  0  0  0  0  0
  -27.7951  -11.3250   18.7833 H   0  0  0  0  0  0
  -27.3579  -12.6882   17.7870 H   0  0  0  0  0  0
  -27.7160  -14.2469   19.6173 H   0  0  0  0  0  0
  -28.7061  -11.8454   21.2284 H   0  0  0  0  0  0
  -28.5145  -13.3754   21.9529 H   0  0  0  0  0  0
  -25.2728   -9.5757   22.4746 H   0  0  0  0  0  0
  -24.0001   -7.4665   22.7445 H   0  0  0  0  0  0
  -21.0830   -8.8783   19.8926 H   0  0  0  0  0  0
  -22.3646  -10.9689   19.6174 H   0  0  0  0  0  0
  -21.1988   -7.6133   23.9716 H   0  0  0  0  0  0
  -21.1462   -6.0492   25.9061 H   0  0  0  0  0  0
  -22.0610   -2.7612   23.2839 H   0  0  0  0  0  0
  -22.4072  -11.9915   22.4788 H   0  0  0  0  0  0
  -21.1097  -13.1331   22.2581 H   0  0  0  0  0  0
  -24.6689  -15.8454   20.5250 H   0  0  0  0  0  0
  -26.3018  -15.6338   20.1494 H   0  0  0  0  0  0
  -26.7103  -32.5529   23.1181 H   0  0  0  0  0  0
  -25.0081  -33.9765   25.0511 H   0  0  0  0  0  0
  -22.6808  -31.3021   21.4129 H   0  0  0  0  0  0
  -23.3750  -35.9658   23.3307 H   0  0  0  0  0  0
  -24.3599  -36.8929   22.2057 H   0  0  0  0  0  0
  -23.7238  -37.6524   23.6644 H   0  0  0  0  0  0
  -26.0339  -31.6237   20.5985 H   0  0  0  0  0  0
  -26.8013  -30.8946   21.9798 H   0  0  0  0  0  0
  -28.1005  -29.1694   21.1170 H   0  0  0  0  0  0
  -26.0926  -25.9664   19.0509 H   0  0  0  0  0  0
  -23.9744  -27.2623   19.0807 H   0  0  0  0  0  0
  -23.7061  -30.5894   19.4020 H   0  0  0  0  0  0
  -22.7282  -29.2365   19.8730 H   0  0  0  0  0  0
  -25.1275  -36.1979   25.0830 H   0  0  0  0  0  0
  -20.9895  -28.3213   24.1482 H   0  0  0  0  0  0
  -20.5659  -26.2259   23.3611 H   0  0  0  0  0  0
  -21.6620  -26.7445   22.1209 H   0  0  0  0  0  0
  -19.6909  -25.6293   21.1232 H   0  0  0  0  0  0
  -19.6703  -27.3195   20.6750 H   0  0  0  0  0  0
  -17.4170  -26.6658   21.4016 H   0  0  0  0  0  0
  -18.0310  -26.0086   22.9025 H   0  0  0  0  0  0
  -19.7921  -30.7208   24.2333 H   0  0  0  0  0  0
  -17.5020  -31.6280   24.5143 H   0  0  0  0  0  0
  -15.5341  -30.3018   23.7643 H   0  0  0  0  0  0
  -15.8646  -28.0853   22.7059 H   0  0  0  0  0  0
  -24.5923  -30.7040   25.7865 H   0  0  0  0  0  0
  -24.9032  -32.2830   26.4989 H   0  0  0  0  0  0
  -25.8162  -30.8816   27.0239 H   0  0  0  0  0  0
  -26.2818  -29.6789   24.1111 H   0  0  0  0  0  0
  -27.4133  -29.7195   25.4443 H   0  0  0  0  0  0
  -27.8622  -30.4321   23.9132 H   0  0  0  0  0  0
  -27.2609  -33.3556   26.2098 H   0  0  0  0  0  0
  -28.3819  -32.6908   25.0305 H   0  0  0  0  0  0
  -28.0730  -31.8431   26.5378 H   0  0  0  0  0  0
  -28.2577  -38.0132   24.7500 H   0  0  0  0  0  0
  -28.1089  -36.2653   24.6278 H   0  0  0  0  0  0
  -27.2303  -37.1452   25.8865 H   0  0  0  0  0  0
  -20.9295  -29.8783   21.7015 H   0  0  0  0  0  0
  -26.0194  -38.2861   24.1448 H   0  0  0  0  0  0
  -30.2874  -18.6279   17.8913 H   0  0  0  0  0  0
  -27.4501  -19.8552   22.0486 H   0  0  0  0  0  0
  -27.9111  -19.5760   23.7744 H   0  0  0  0  0  0
  -29.8734  -18.2825   23.1142 H   0  0  0  0  0  0
  -29.7513  -19.2373   21.5826 H   0  0  0  0  0  0
  -26.3273  -17.6795   22.2483 H   0  0  0  0  0  0
  -27.4183  -17.1827   23.5934 H   0  0  0  0  0  0
  -28.0795  -17.6990   20.6804 H   0  0  0  0  0  0
  -34.5009  -20.2361   21.8268 H   0  0  0  0  0  0
  -34.6705  -18.5035   21.7738 H   0  0  0  0  0  0
  -33.4695  -19.2450   22.8246 H   0  0  0  0  0  0
  -30.6051  -16.0244   18.6106 H   0  0  0  0  0  0
  -29.2424  -16.8974   19.0993 H   0  0  0  0  0  0
  -33.4950  -21.9762   18.8016 H   0  0  0  0  0  0
  -34.5742  -21.2568   19.9330 H   0  0  0  0  0  0
  -28.1592  -15.3477   21.6581 H   0  0  0  0  0  0
  -29.5351  -15.7865   22.6185 H   0  0  0  0  0  0
  -31.7292  -26.4428   23.5226 H   0  0  0  0  0  0
  -31.4581  -24.9055   24.2912 H   0  0  0  0  0  0
  -31.5575  -25.4248   21.2844 H   0  0  0  0  0  0
  -31.0339  -23.9046   21.9844 H   0  0  0  0  0  0
  -29.4591  -26.2406   24.4197 H   0  0  0  0  0  0
  -29.1149  -24.8270   23.4745 H   0  0  0  0  0  0
  -33.2688  -23.7024   23.1452 H   0  0  0  0  0  0
  -33.7656  -25.2103   22.4275 H   0  0  0  0  0  0
  -29.9263  -27.3871   22.0435 H   0  0  0  0  0  0
  -28.3357  -27.2869   22.7478 H   0  0  0  0  0  0
  -34.7334  -23.3560   21.1872 H   0  0  0  0  0  0
  -33.6237  -24.2137   20.1366 H   0  0  0  0  0  0
  -27.7135  -25.3526   21.3724 H   0  0  0  0  0  0
  -29.3396  -25.1647   20.7892 H   0  0  0  0  0  0
  -32.9229  -21.8052   21.6618 H   0  0  0  0  0  0
  -32.0004  -22.5400   20.5398 H   0  0  0  0  0  0
  1 25  1  0  0  0
  1 30  2  0  0  0
  1 92  1  0  0  0
  2  3  1  0  0  0
  2 25  1  0  0  0
  2 96  1  0  0  0
  2 97  1  0  0  0
  3  4  1  0  0  0
  3 98  1  0  0  0
  3 99  1  0  0  0
  4  5  1  0  0  0
  4100  1  0  0  0
  4101  1  0  0  0
  5  6  1  0  0  0
  5 26  1  0  0  0
  5102  1  0  0  0
  6 25  1  0  0  0
  6103  1  0  0  0
  6104  1  0  0  0
  7  8  2  0  0  0
  7 26  1  0  0  0
  7 29  1  0  0  0
  8  9  1  0  0  0
  8 22  1  0  0  0
  9 10  1  0  0  0
  9 27  2  0  0  0
 10 11  2  0  0  0
 10 15  1  0  0  0
 11 12  1  0  0  0
 11105  1  0  0  0
 12 13  2  0  0  0
 12106  1  0  0  0
 13 14  1  0  0  0
 13 31  1  0  0  0
 14 15  2  0  0  0
 14107  1  0  0  0
 15108  1  0  0  0
 16 17  2  0  0  0
 16 21  1  0  0  0
 16 31  1  0  0  0
 17 18  1  0  0  0
 17109  1  0  0  0
 18 19  2  0  0  0
 18110  1  0  0  0
 19 20  1  0  0  0
 19 24  1  0  0  0
 20 21  2  0  0  0
 20111  1  0  0  0
 21 23  1  0  0  0
 22 28  1  0  0  0
 22 32  2  0  0  0
 26 27  1  0  0  0
 28112  1  0  0  0
 28113  1  0  0  0
 29114  1  0  0  0
 29115  1  0  0  0
 33 34  1  0  0  0
 33 66  1  0  0  0
 33 70  2  0  0  0
 34 36  1  0  0  0
 34 59  1  0  0  0
 34116  1  0  0  0
 35 44  2  0  0  0
 35 45  1  0  0  0
 35 68  1  0  0  0
 36 56  1  0  0  0
 36117  1  0  0  0
 37 39  1  0  0  0
 37 47  1  0  0  0
 37 66  1  0  0  0
 37118  1  0  0  0
 38 43  2  0  0  0
 38 46  1  0  0  0
 38 47  1  0  0  0
 39 64  1  0  0  0
 39 67  2  0  0  0
 40 52  1  0  0  0
 40 53  2  0  0  0
 40 58  1  0  0  0
 41119  1  0  0  0
 41120  1  0  0  0
 41121  1  0  0  0
 41 48  1  0  0  0
 42 43  1  0  0  0
 42 66  1  0  0  0
 42122  1  0  0  0
 42123  1  0  0  0
 43 44  1  0  0  0
 44124  1  0  0  0
 45 46  2  0  0  0
 45125  1  0  0  0
 46126  1  0  0  0
 47127  1  0  0  0
 47128  1  0  0  0
 48 56  1  0  0  0
 48 65  1  0  0  0
 48129  1  0  0  0
 49 50  1  0  0  0
 49 53  1  0  0  0
 49 64  1  0  0  0
 49130  1  0  0  0
 50 51  1  0  0  0
 50131  1  0  0  0
 50132  1  0  0  0
 51 52  1  0  0  0
 51133  1  0  0  0
 51134  1  0  0  0
 52135  1  0  0  0
 52136  1  0  0  0
 53 54  1  0  0  0
 54 55  2  0  0  0
 54137  1  0  0  0
 55 57  1  0  0  0
 55138  1  0  0  0
 56 69  2  0  0  0
 57 58  2  0  0  0
 57139  1  0  0  0
 58140  1  0  0  0
 59 60  1  0  0  0
 59 61  1  0  0  0
 59 62  1  0  0  0
 60141  1  0  0  0
 60142  1  0  0  0
 60143  1  0  0  0
 61144  1  0  0  0
 61145  1  0  0  0
 61146  1  0  0  0
 62147  1  0  0  0
 62148  1  0  0  0
 62149  1  0  0  0
 63 65  1  0  0  0
 63150  1  0  0  0
 63151  1  0  0  0
 63152  1  0  0  0
 64153  1  0  0  0
 65154  1  0  0  0
 68 91  1  0  0  0
 71 72  2  0  0  0
 71 75  1  0  0  0
 71155  1  0  0  0
 72 76  1  0  0  0
 72 82  1  0  0  0
 73 74  1  0  0  0
 73 76  2  0  0  0
 73 81  1  0  0  0
 74 75  2  0  0  0
 74 83  1  0  0  0
 75 94  1  0  0  0
 76 95  1  0  0  0
 77 78  1  0  0  0
 77 79  1  0  0  0
 77156  1  0  0  0
 77157  1  0  0  0
 78 80  1  0  0  0
 78158  1  0  0  0
 78159  1  0  0  0
 79 80  1  0  0  0
 79160  1  0  0  0
 79161  1  0  0  0
 80 84  1  0  0  0
 80162  1  0  0  0
 81163  1  0  0  0
 81164  1  0  0  0
 81165  1  0  0  0
 82 92  1  0  0  0
 82166  1  0  0  0
 82167  1  0  0  0
 83 93  1  0  0  0
 83168  1  0  0  0
 83169  1  0  0  0
 84 92  1  0  0  0
 84170  1  0  0  0
 84171  1  0  0  0
 85 86  1  0  0  0
 85 87  1  0  0  0
 85172  1  0  0  0
 85173  1  0  0  0
 86 88  1  0  0  0
 86174  1  0  0  0
 86175  1  0  0  0
 87 89  1  0  0  0
 87176  1  0  0  0
 87177  1  0  0  0
 88 90  1  0  0  0
 88178  1  0  0  0
 88179  1  0  0  0
 89 91  1  0  0  0
 89180  1  0  0  0
 89181  1  0  0  0
 90 93  1  0  0  0
 90182  1  0  0  0
 90183  1  0  0  0
 91184  1  0  0  0
 91185  1  0  0  0
 93186  1  0  0  0
 93187  1  0  0  0
M  CHG  1  93   1
M  ISO  4   1 100  68 101  91 101  92 100
M  END
> <chiral flag>
0

> <version>
0

> <s_m_source_file>
/data/baiqing/PycharmProjects/Reinvent-master-3.2/result/LINK_invent/BTK/process_docking_weight1_custom_sum_contain_oxygen_bond_distance_aromatic_linkinvent_7_9_3/rearranged_h_0021.sdf

> <i_m_source_file_index>
31

> <r_mmod_Potential_Energy-OPLS-2005>
48.7437934875488

> <r_mmod_Stretch_Energy-OPLS-2005>
42.4887313842773

> <r_mmod_Bend_Energy-OPLS-2005>
148.95979309082

> <r_mmod_Torsional_Energy-OPLS-2005>
337.902465820312

> <r_mmod_Improper_Torsional_Energy-OPLS-2005>
18.6018047332764

> <r_mmod_Van_der_Waal_Energy-OPLS-2005>
164.250259399414

> <r_mmod_Electrostatic_Energy-OPLS-2005>
-244.873519897461

> <r_mmod_Solvation_Energy-OPLS-2005>
-432.128753662109

> <b_mmod_Minimization_Converged-OPLS-2005>
0

> <r_mmod_RMS_Derivative-OPLS-2005>
2.93569374084473

$$$$
31
                    3D
 Structure written by MMmdl.
171179  0  0  1  0            999 V2000
  -30.6996  -14.4883   20.5255 C   0  0  0  0  0  0
  -30.4276  -12.3071   19.4177 C   0  0  0  0  0  0
  -29.4974  -12.4977   18.2024 C   0  0  0  0  0  0
  -28.0199  -12.3540   18.6197 C   0  0  0  0  0  0
  -27.6626  -13.2059   19.8680 C   0  0  2  0  0  0
  -28.7092  -13.0070   20.9899 C   0  0  0  0  0  0
  -25.2606  -13.8170   20.5677 C   0  0  0  0  0  0
  -24.1853  -13.0456   20.9182 C   0  0  0  0  0  0
  -24.6404  -11.6919   20.8730 C   0  0  0  0  0  0
  -23.9066  -10.4313   21.0410 C   0  0  0  0  0  0
  -24.3618   -9.4223   21.9181 C   0  0  0  0  0  0
  -23.6294   -8.2261   22.0755 C   0  0  0  0  0  0
  -22.4269   -8.0311   21.3560 C   0  0  0  0  0  0
  -21.9897   -9.0279   20.4652 C   0  0  0  0  0  0
  -22.7232  -10.2156   20.3056 C   0  0  0  0  0  0
  -21.6857   -6.0735   22.5278 C   0  0  0  0  0  0
  -21.4015   -6.5632   23.8212 C   0  0  0  0  0  0
  -21.3659   -5.6781   24.9174 C   0  0  0  0  0  0
  -21.6044   -4.3046   24.7220 C   0  0  0  0  0  0
  -21.8822   -3.8143   23.4340 C   0  0  0  0  0  0
  -21.9194   -4.6962   22.3395 C   0  0  0  0  0  0
  -22.7878  -13.5267   21.1847 C   0  0  0  0  0  0
  -22.1669   -4.2151   21.0974 F   0  0  0  0  0  0
  -21.5620   -3.4528   25.7732 F   0  0  0  0  0  0
  -30.0398  -13.3022   20.4289 N   0  0  0  0  0  0
  -26.3044  -12.9329   20.3349 N   0  0  0  0  0  0
  -25.9326  -11.6500   20.5755 N   0  0  0  0  0  0
  -22.0494  -12.8278   22.0405 N   0  0  0  0  0  0
  -25.4344  -15.1882   20.4065 N   0  0  0  0  0  0
  -31.8569  -14.6459   20.1328 O   0  0  0  0  0  0
  -21.6652   -6.8892   21.4248 O   0  0  0  0  0  0
  -22.3582  -14.5578   20.6696 O   0  0  0  0  0  0
  -24.6173  -31.8680   23.2098 C   0  0  0  0  0  0
  -25.9052  -32.4823   23.8404 C   0  0  1  0  0  0
  -27.2382  -27.4221   20.0900 C   0  0  0  0  0  0
  -25.5896  -33.8622   24.2337 N   0  0  0  0  0  0
  -23.4063  -30.4918   21.5514 C   0  0  2  0  0  0
  -24.8520  -28.9636   20.1146 C   0  0  0  0  0  0
  -22.7427  -29.4653   22.4986 C   0  0  0  0  0  0
  -18.0275  -28.1382   22.8488 C   0  0  0  0  0  0
  -24.1486  -36.7322   23.2637 C   0  0  0  0  0  0
  -25.9386  -30.8273   21.3683 C   0  0  0  0  0  0
  -26.0138  -29.4616   20.7168 C   0  0  0  0  0  0
  -27.2051  -28.6959   20.7089 C   0  0  0  0  0  0
  -26.0517  -26.9567   19.4663 C   0  0  0  0  0  0
  -24.8666  -27.7093   19.4895 C   0  0  0  0  0  0
  -23.6143  -29.8288   20.1652 C   0  0  0  0  0  0
  -25.4101  -36.3114   24.0344 C   0  0  1  0  0  0
  -20.5867  -28.3665   23.1308 C   0  0  2  0  0  0
  -20.6765  -26.9395   22.5416 C   0  0  0  0  0  0
  -19.5740  -26.6384   21.5213 C   0  0  0  0  0  0
  -18.1920  -26.7929   22.1623 C   0  0  0  0  0  0
  -19.1524  -28.8839   23.2900 C   0  0  0  0  0  0
  -18.9452  -30.1440   23.8916 C   0  0  0  0  0  0
  -17.6454  -30.6583   24.0567 C   0  0  0  0  0  0
  -25.9026  -34.9477   23.5140 C   0  0  0  0  0  0
  -16.5344  -29.9085   23.6325 C   0  0  0  0  0  0
  -16.7266  -28.6506   23.0343 C   0  0  0  0  0  0
  -26.4468  -31.6607   25.0740 C   0  0  0  0  0  0
  -25.3735  -31.3737   26.1500 C   0  0  0  0  0  0
  -27.0283  -30.3037   24.6132 C   0  0  0  0  0  0
  -27.6065  -32.4311   25.7482 C   0  0  0  0  0  0
  -27.5577  -37.1811   24.8466 C   0  0  0  0  0  0
  -21.4152  -29.3038   22.3726 N   0  0  0  0  0  0
  -26.4288  -37.3791   23.9405 N   0  0  0  0  0  0
  -24.6726  -31.0766   22.1011 N   0  0  0  0  0  0
  -23.4194  -28.8184   23.3025 O   0  0  0  0  0  0
  -28.4108  -26.6784   20.1266 O   0  0  0  0  0  0
  -26.5591  -34.8927   22.4700 O   0  0  0  0  0  0
  -23.5354  -32.1443   23.7466 O   0  0  0  0  0  0
  -30.6665  -19.0451   19.7634 C   0  0  0  0  0  0
  -30.3274  -19.7984   20.9061 C   0  0  0  0  0  0
  -30.5655  -17.6383   19.7356 C   0  0  0  0  0  0
  -29.9481  -19.1001   22.0865 C   0  0  0  0  0  0
  -29.9061  -17.6720   22.0941 C   0  0  0  0  0  0
  -30.1898  -16.9310   20.9124 C   0  0  0  0  0  0
  -29.3211  -22.9681   19.2649 C   0  0  0  0  0  0
  -30.8089  -16.9560   18.3978 C   0  0  0  0  0  0
  -29.5401  -19.9027   23.3233 C   0  0  0  0  0  0
  -29.5195  -16.9264   23.3727 C   0  0  0  0  0  0
  -28.6563  -23.0466   17.8981 C   0  0  0  0  0  0
  -29.5003  -24.2726   21.5174 C   0  0  0  0  0  0
  -30.8831  -24.9477   19.5473 C   0  0  0  0  0  0
  -30.3430  -21.3422   20.8093 C   0  0  0  0  0  0
  -28.3720  -25.3484   19.5733 C   0  0  0  0  0  0
  -29.5248  -24.3630   19.9758 C   0  0  0  0  0  0
  -29.6398  -21.7713   19.6102 N   0  0  0  0  0  0
  -29.9272  -15.5213   20.9176 N   0  0  0  0  0  0
  -31.4717  -12.3987   19.1148 H   0  0  0  0  0  0
  -30.3216  -11.3013   19.8249 H   0  0  0  0  0  0
  -29.7349  -11.7684   17.4266 H   0  0  0  0  0  0
  -29.6650  -13.4800   17.7567 H   0  0  0  0  0  0
  -27.8378  -11.2984   18.8280 H   0  0  0  0  0  0
  -27.3681  -12.6124   17.7855 H   0  0  0  0  0  0
  -27.6996  -14.2502   19.5565 H   0  0  0  0  0  0
  -28.6875  -11.9780   21.3534 H   0  0  0  0  0  0
  -28.4764  -13.6273   21.8565 H   0  0  0  0  0  0
  -25.2762   -9.5691   22.4757 H   0  0  0  0  0  0
  -24.0001   -7.4641   22.7459 H   0  0  0  0  0  0
  -21.0826   -8.8797   19.8956 H   0  0  0  0  0  0
  -22.3692  -10.9695   19.6167 H   0  0  0  0  0  0
  -21.2018   -7.6140   23.9714 H   0  0  0  0  0  0
  -21.1471   -6.0514   25.9075 H   0  0  0  0  0  0
  -22.0598   -2.7606   23.2840 H   0  0  0  0  0  0
  -22.4082  -11.9949   22.4829 H   0  0  0  0  0  0
  -21.1111  -13.1332   22.2592 H   0  0  0  0  0  0
  -24.6693  -15.8447   20.5141 H   0  0  0  0  0  0
  -26.2861  -15.6238   20.0751 H   0  0  0  0  0  0
  -26.7133  -32.5531   23.1180 H   0  0  0  0  0  0
  -25.0062  -33.9784   25.0488 H   0  0  0  0  0  0
  -22.6965  -31.3091   21.4123 H   0  0  0  0  0  0
  -23.3732  -35.9672   23.3330 H   0  0  0  0  0  0
  -24.3590  -36.8900   22.2048 H   0  0  0  0  0  0
  -23.7261  -37.6547   23.6625 H   0  0  0  0  0  0
  -26.0537  -31.5891   20.5959 H   0  0  0  0  0  0
  -26.8267  -30.8816   21.9867 H   0  0  0  0  0  0
  -28.0988  -29.0724   21.1869 H   0  0  0  0  0  0
  -25.9990  -26.0133   18.9451 H   0  0  0  0  0  0
  -23.9768  -27.3209   19.0140 H   0  0  0  0  0  0
  -23.7197  -30.6037   19.4048 H   0  0  0  0  0  0
  -22.7400  -29.2455   19.8697 H   0  0  0  0  0  0
  -25.1270  -36.2002   25.0837 H   0  0  0  0  0  0
  -20.9951  -28.3235   24.1428 H   0  0  0  0  0  0
  -20.5658  -26.2268   23.3605 H   0  0  0  0  0  0
  -21.6639  -26.7432   22.1212 H   0  0  0  0  0  0
  -19.6894  -25.6299   21.1230 H   0  0  0  0  0  0
  -19.6674  -27.3206   20.6753 H   0  0  0  0  0  0
  -17.4182  -26.6668   21.4036 H   0  0  0  0  0  0
  -18.0315  -26.0075   22.9022 H   0  0  0  0  0  0
  -19.7927  -30.7250   24.2298 H   0  0  0  0  0  0
  -17.5009  -31.6266   24.5161 H   0  0  0  0  0  0
  -15.5343  -30.2991   23.7641 H   0  0  0  0  0  0
  -15.8668  -28.0832   22.7042 H   0  0  0  0  0  0
  -24.5896  -30.7085   25.7862 H   0  0  0  0  0  0
  -24.8933  -32.2899   26.4946 H   0  0  0  0  0  0
  -25.8085  -30.8921   27.0266 H   0  0  0  0  0  0
  -26.2826  -29.6813   24.1167 H   0  0  0  0  0  0
  -27.4020  -29.7267   25.4604 H   0  0  0  0  0  0
  -27.8685  -30.4347   23.9308 H   0  0  0  0  0  0
  -27.2712  -33.3609   26.2094 H   0  0  0  0  0  0
  -28.3843  -32.6872   25.0272 H   0  0  0  0  0  0
  -28.0769  -31.8413   26.5363 H   0  0  0  0  0  0
  -28.2616  -38.0083   24.7480 H   0  0  0  0  0  0
  -28.1043  -36.2617   24.6318 H   0  0  0  0  0  0
  -27.2300  -37.1515   25.8870 H   0  0  0  0  0  0
  -20.9311  -29.8791   21.6978 H   0  0  0  0  0  0
  -26.0192  -38.2874   24.1383 H   0  0  0  0  0  0
  -30.9510  -19.5702   18.8610 H   0  0  0  0  0  0
  -30.6555  -17.6526   17.5724 H   0  0  0  0  0  0
  -30.1285  -16.1204   18.2376 H   0  0  0  0  0  0
  -31.8360  -16.5959   18.3390 H   0  0  0  0  0  0
  -28.6729  -20.5214   23.0884 H   0  0  0  0  0  0
  -30.3519  -20.5578   23.6395 H   0  0  0  0  0  0
  -29.2536  -19.3115   24.1882 H   0  0  0  0  0  0
  -30.0526  -17.3190   24.2373 H   0  0  0  0  0  0
  -29.7688  -15.8667   23.3527 H   0  0  0  0  0  0
  -28.4477  -17.0140   23.5504 H   0  0  0  0  0  0
  -29.0956  -23.8370   17.2902 H   0  0  0  0  0  0
  -27.5853  -23.2217   18.0052 H   0  0  0  0  0  0
  -28.7800  -22.1159   17.3436 H   0  0  0  0  0  0
  -30.4071  -23.8228   21.9186 H   0  0  0  0  0  0
  -28.6358  -23.7122   21.8743 H   0  0  0  0  0  0
  -29.4455  -25.2630   21.9694 H   0  0  0  0  0  0
  -31.7051  -24.2837   19.8186 H   0  0  0  0  0  0
  -31.0666  -25.9088   20.0286 H   0  0  0  0  0  0
  -30.9321  -25.1111   18.4708 H   0  0  0  0  0  0
  -31.3785  -21.6879   20.7904 H   0  0  0  0  0  0
  -29.8781  -21.7639   21.6908 H   0  0  0  0  0  0
  -27.4528  -24.8467   19.8762 H   0  0  0  0  0  0
  -28.3353  -25.5033   18.4952 H   0  0  0  0  0  0
  -29.0357  -15.2463   21.2987 H   0  0  0  0  0  0
  1 25  1  0  0  0
  1 30  2  0  0  0
  1 88  1  0  0  0
  2  3  1  0  0  0
  2 25  1  0  0  0
  2 89  1  0  0  0
  2 90  1  0  0  0
  3  4  1  0  0  0
  3 91  1  0  0  0
  3 92  1  0  0  0
  4  5  1  0  0  0
  4 93  1  0  0  0
  4 94  1  0  0  0
  5  6  1  0  0  0
  5 26  1  0  0  0
  5 95  1  0  0  0
  6 25  1  0  0  0
  6 96  1  0  0  0
  6 97  1  0  0  0
  7  8  2  0  0  0
  7 26  1  0  0  0
  7 29  1  0  0  0
  8  9  1  0  0  0
  8 22  1  0  0  0
  9 10  1  0  0  0
  9 27  2  0  0  0
 10 11  2  0  0  0
 10 15  1  0  0  0
 11 12  1  0  0  0
 11 98  1  0  0  0
 12 13  2  0  0  0
 12 99  1  0  0  0
 13 14  1  0  0  0
 13 31  1  0  0  0
 14 15  2  0  0  0
 14100  1  0  0  0
 15101  1  0  0  0
 16 17  2  0  0  0
 16 21  1  0  0  0
 16 31  1  0  0  0
 17 18  1  0  0  0
 17102  1  0  0  0
 18 19  2  0  0  0
 18103  1  0  0  0
 19 20  1  0  0  0
 19 24  1  0  0  0
 20 21  2  0  0  0
 20104  1  0  0  0
 21 23  1  0  0  0
 22 28  1  0  0  0
 22 32  2  0  0  0
 26 27  1  0  0  0
 28105  1  0  0  0
 28106  1  0  0  0
 29107  1  0  0  0
 29108  1  0  0  0
 33 34  1  0  0  0
 33 66  1  0  0  0
 33 70  2  0  0  0
 34 36  1  0  0  0
 34 59  1  0  0  0
 34109  1  0  0  0
 35 44  2  0  0  0
 35 45  1  0  0  0
 35 68  1  0  0  0
 36 56  1  0  0  0
 36110  1  0  0  0
 37 39  1  0  0  0
 37 47  1  0  0  0
 37 66  1  0  0  0
 37111  1  0  0  0
 38 43  2  0  0  0
 38 46  1  0  0  0
 38 47  1  0  0  0
 39 64  1  0  0  0
 39 67  2  0  0  0
 40 52  1  0  0  0
 40 53  2  0  0  0
 40 58  1  0  0  0
 41112  1  0  0  0
 41113  1  0  0  0
 41114  1  0  0  0
 41 48  1  0  0  0
 42 43  1  0  0  0
 42 66  1  0  0  0
 42115  1  0  0  0
 42116  1  0  0  0
 43 44  1  0  0  0
 44117  1  0  0  0
 45 46  2  0  0  0
 45118  1  0  0  0
 46119  1  0  0  0
 47120  1  0  0  0
 47121  1  0  0  0
 48 56  1  0  0  0
 48 65  1  0  0  0
 48122  1  0  0  0
 49 50  1  0  0  0
 49 53  1  0  0  0
 49 64  1  0  0  0
 49123  1  0  0  0
 50 51  1  0  0  0
 50124  1  0  0  0
 50125  1  0  0  0
 51 52  1  0  0  0
 51126  1  0  0  0
 51127  1  0  0  0
 52128  1  0  0  0
 52129  1  0  0  0
 53 54  1  0  0  0
 54 55  2  0  0  0
 54130  1  0  0  0
 55 57  1  0  0  0
 55131  1  0  0  0
 56 69  2  0  0  0
 57 58  2  0  0  0
 57132  1  0  0  0
 58133  1  0  0  0
 59 60  1  0  0  0
 59 61  1  0  0  0
 59 62  1  0  0  0
 60134  1  0  0  0
 60135  1  0  0  0
 60136  1  0  0  0
 61137  1  0  0  0
 61138  1  0  0  0
 61139  1  0  0  0
 62140  1  0  0  0
 62141  1  0  0  0
 62142  1  0  0  0
 63 65  1  0  0  0
 63143  1  0  0  0
 63144  1  0  0  0
 63145  1  0  0  0
 64146  1  0  0  0
 65147  1  0  0  0
 68 85  1  0  0  0
 71 72  2  0  0  0
 71 73  1  0  0  0
 71148  1  0  0  0
 72 74  1  0  0  0
 72 84  1  0  0  0
 73 76  2  0  0  0
 73 78  1  0  0  0
 74 75  2  0  0  0
 74 79  1  0  0  0
 75 76  1  0  0  0
 75 80  1  0  0  0
 76 88  1  0  0  0
 77 81  1  0  0  0
 77 86  1  0  0  0
 77 87  2  0  0  0
 78149  1  0  0  0
 78150  1  0  0  0
 78151  1  0  0  0
 79152  1  0  0  0
 79153  1  0  0  0
 79154  1  0  0  0
 80155  1  0  0  0
 80156  1  0  0  0
 80157  1  0  0  0
 81158  1  0  0  0
 81159  1  0  0  0
 81160  1  0  0  0
 82161  1  0  0  0
 82162  1  0  0  0
 82163  1  0  0  0
 82 86  1  0  0  0
 83 86  1  0  0  0
 83164  1  0  0  0
 83165  1  0  0  0
 83166  1  0  0  0
 84 87  1  0  0  0
 84167  1  0  0  0
 84168  1  0  0  0
 85 86  1  0  0  0
 85169  1  0  0  0
 85170  1  0  0  0
 88171  1  0  0  0
M  ISO  4   1 100  68 101  85 101  88 100
M  END
> <chiral flag>
0

> <version>
0

> <s_m_source_file>
/data/baiqing/PycharmProjects/Reinvent-master-3.2/result/LINK_invent/BTK/process_docking_weight1_custom_sum_contain_oxygen_bond_distance_aromatic_linkinvent_7_9_3/rearranged_h_0021.sdf

> <i_m_source_file_index>
32

> <r_mmod_Potential_Energy-OPLS-2005>
-10.2282094955444

> <r_mmod_Stretch_Energy-OPLS-2005>
52.2661094665527

> <r_mmod_Bend_Energy-OPLS-2005>
144.960021972656

> <r_mmod_Torsional_Energy-OPLS-2005>
234.693588256836

> <r_mmod_Improper_Torsional_Energy-OPLS-2005>
4.87400054931641

> <r_mmod_Van_der_Waal_Energy-OPLS-2005>
188.387176513672

> <r_mmod_Electrostatic_Energy-OPLS-2005>
-446.29931640625

> <r_mmod_Solvation_Energy-OPLS-2005>
-206.097702026367

> <b_mmod_Minimization_Converged-OPLS-2005>
0

> <r_mmod_RMS_Derivative-OPLS-2005>
2.27534413337708

$$$$
32
                    3D
 Structure written by MMmdl.
151159  0  0  1  0            999 V2000
  -30.4375  -15.2022   20.3661 C   0  0  0  0  0  0
  -30.4505  -12.7622   19.5093 C   0  0  0  0  0  0
  -29.5347  -12.5633   18.2751 C   0  0  0  0  0  0
  -28.0815  -12.2953   18.7078 C   0  0  0  0  0  0
  -27.6173  -13.2648   19.8239 C   0  0  2  0  0  0
  -28.6583  -13.4032   20.9552 C   0  0  0  0  0  0
  -25.2402  -13.8173   20.5767 C   0  0  0  0  0  0
  -24.1747  -13.0384   20.9260 C   0  0  0  0  0  0
  -24.6404  -11.6888   20.8757 C   0  0  0  0  0  0
  -23.9089  -10.4264   21.0401 C   0  0  0  0  0  0
  -24.3628   -9.4186   21.9187 C   0  0  0  0  0  0
  -23.6294   -8.2228   22.0757 C   0  0  0  0  0  0
  -22.4276   -8.0273   21.3547 C   0  0  0  0  0  0
  -21.9915   -9.0246   20.4646 C   0  0  0  0  0  0
  -22.7254  -10.2117   20.3056 C   0  0  0  0  0  0
  -21.6849   -6.0735   22.5280 C   0  0  0  0  0  0
  -21.4009   -6.5638   23.8212 C   0  0  0  0  0  0
  -21.3657   -5.6791   24.9174 C   0  0  0  0  0  0
  -21.6044   -4.3055   24.7225 C   0  0  0  0  0  0
  -21.8820   -3.8148   23.4347 C   0  0  0  0  0  0
  -21.9190   -4.6962   22.3403 C   0  0  0  0  0  0
  -22.7768  -13.5158   21.1906 C   0  0  0  0  0  0
  -22.1662   -4.2149   21.0981 F   0  0  0  0  0  0
  -21.5629   -3.4540   25.7740 F   0  0  0  0  0  0
  -29.8995  -13.8920   20.3326 N   0  0  0  0  0  0
  -26.2846  -12.9463   20.3224 N   0  0  0  0  0  0
  -25.9344  -11.6572   20.5718 N   0  0  0  0  0  0
  -22.0417  -12.8159   22.0461 N   0  0  0  0  0  0
  -25.3960  -15.1894   20.4274 N   0  0  0  0  0  0
  -31.6595  -15.2534   20.1688 O   0  0  0  0  0  0
  -21.6633   -6.8878   21.4244 O   0  0  0  0  0  0
  -22.3454  -14.5466   20.6743 O   0  0  0  0  0  0
  -24.6585  -31.8285   23.1745 C   0  0  0  0  0  0
  -25.9289  -32.4613   23.8185 C   0  0  1  0  0  0
  -27.2227  -26.9880   20.1711 C   0  0  0  0  0  0
  -25.5975  -33.8422   24.2100 N   0  0  0  0  0  0
  -23.4696  -30.4424   21.5225 C   0  0  2  0  0  0
  -24.9219  -28.8373   20.1106 C   0  0  0  0  0  0
  -22.7641  -29.4469   22.4795 C   0  0  0  0  0  0
  -18.0317  -28.1421   22.8451 C   0  0  0  0  0  0
  -24.1489  -36.7219   23.2648 C   0  0  0  0  0  0
  -26.0348  -30.6550   21.3925 C   0  0  0  0  0  0
  -26.1041  -29.2503   20.7369 C   0  0  0  0  0  0
  -27.2513  -28.3459   20.7423 C   0  0  0  0  0  0
  -26.0105  -26.7087   19.5029 C   0  0  0  0  0  0
  -24.8960  -27.5848   19.4743 C   0  0  0  0  0  0
  -23.7058  -29.7601   20.1466 C   0  0  0  0  0  0
  -25.4126  -36.2984   24.0312 C   0  0  1  0  0  0
  -20.5941  -28.3757   23.1199 C   0  0  2  0  0  0
  -20.6799  -26.9442   22.5405 C   0  0  0  0  0  0
  -19.5777  -26.6385   21.5212 C   0  0  0  0  0  0
  -18.1952  -26.7954   22.1612 C   0  0  0  0  0  0
  -19.1578  -28.8905   23.2813 C   0  0  0  0  0  0
  -18.9494  -30.1492   23.8857 C   0  0  0  0  0  0
  -17.6491  -30.6607   24.0559 C   0  0  0  0  0  0
  -25.9090  -34.9368   23.5023 C   0  0  0  0  0  0
  -16.5381  -29.9100   23.6345 C   0  0  0  0  0  0
  -16.7299  -28.6526   23.0345 C   0  0  0  0  0  0
  -26.4558  -31.6539   25.0690 C   0  0  0  0  0  0
  -25.3700  -31.3774   26.1356 C   0  0  0  0  0  0
  -27.0441  -30.2922   24.6363 C   0  0  0  0  0  0
  -27.6068  -32.4330   25.7486 C   0  0  0  0  0  0
  -27.5565  -37.1761   24.8467 C   0  0  0  0  0  0
  -21.4315  -29.3055   22.3548 N   0  0  0  0  0  0
  -26.4272  -37.3718   23.9418 N   0  0  0  0  0  0
  -24.7422  -30.9998   22.0849 N   0  0  0  0  0  0
  -23.4211  -28.8029   23.3011 O   0  0  0  0  0  0
  -28.2498  -25.9277   20.2469 O   0  0  0  0  0  0
  -26.5690  -34.8897   22.4611 O   0  0  0  0  0  0
  -23.5672  -32.1227   23.6875 O   0  0  0  0  0  0
  -28.1781  -20.2450   20.0209 C   0  0  0  0  0  0
  -30.5710  -18.9968   20.6145 C   0  0  0  0  0  0
  -29.1855  -21.2405   20.3284 C   0  0  0  0  0  0
  -29.5536  -18.0016   20.3349 C   0  0  0  0  0  0
  -30.4072  -20.4843   20.6122 C   0  0  0  0  0  0
  -28.3498  -18.7703   20.0223 C   0  0  0  0  0  0
  -32.7586  -20.7545   21.0939 C   0  0  0  0  0  0
  -29.1326  -22.9776   20.4281 C   0  0  0  0  0  0
  -28.0358  -24.3210   20.0856 C   0  0  0  0  0  0
  -29.5806  -16.3935   20.3986 N   0  0  0  0  0  0
  -31.4669  -21.3158   20.9102 O   0  0  0  0  0  0
  -26.9575  -17.8532   19.5867 Cl  0  0  0  0  0  0
  -31.4686  -12.9731   19.1781 H   0  0  0  0  0  0
  -30.5147  -11.8472   20.1002 H   0  0  0  0  0  0
  -29.9020  -11.7418   17.6586 H   0  0  0  0  0  0
  -29.5688  -13.4566   17.6491 H   0  0  0  0  0  0
  -28.0344  -11.2699   19.0771 H   0  0  0  0  0  0
  -27.4100  -12.3420   17.8500 H   0  0  0  0  0  0
  -27.5403  -14.2388   19.3394 H   0  0  0  0  0  0
  -28.8114  -12.4569   21.4755 H   0  0  0  0  0  0
  -28.3127  -14.1176   21.7041 H   0  0  0  0  0  0
  -25.2771   -9.5660   22.4766 H   0  0  0  0  0  0
  -23.9998   -7.4619   22.7482 H   0  0  0  0  0  0
  -21.0847   -8.8767   19.8952 H   0  0  0  0  0  0
  -22.3718  -10.9659   19.6168 H   0  0  0  0  0  0
  -21.1998   -7.6147   23.9715 H   0  0  0  0  0  0
  -21.1479   -6.0523   25.9077 H   0  0  0  0  0  0
  -22.0601   -2.7610   23.2847 H   0  0  0  0  0  0
  -22.4032  -11.9824   22.4858 H   0  0  0  0  0  0
  -21.1039  -13.1192   22.2671 H   0  0  0  0  0  0
  -24.6160  -15.8260   20.5452 H   0  0  0  0  0  0
  -26.2243  -15.6549   20.0814 H   0  0  0  0  0  0
  -26.7352  -32.5177   23.0897 H   0  0  0  0  0  0
  -25.0092  -33.9502   25.0230 H   0  0  0  0  0  0
  -22.7814  -31.2737   21.3548 H   0  0  0  0  0  0
  -23.3764  -35.9535   23.3282 H   0  0  0  0  0  0
  -24.3571  -36.8886   22.2067 H   0  0  0  0  0  0
  -23.7236  -37.6398   23.6715 H   0  0  0  0  0  0
  -26.2038  -31.3991   20.6131 H   0  0  0  0  0  0
  -26.9000  -30.7131   22.0406 H   0  0  0  0  0  0
  -28.1491  -28.6601   21.2556 H   0  0  0  0  0  0
  -25.8953  -25.7490   19.0198 H   0  0  0  0  0  0
  -23.9961  -27.2616   18.9691 H   0  0  0  0  0  0
  -23.8588  -30.5312   19.3908 H   0  0  0  0  0  0
  -22.8161  -29.2142   19.8274 H   0  0  0  0  0  0
  -25.1318  -36.1785   25.0803 H   0  0  0  0  0  0
  -21.0021  -28.3368   24.1326 H   0  0  0  0  0  0
  -20.5691  -26.2370   23.3639 H   0  0  0  0  0  0
  -21.6662  -26.7430   22.1208 H   0  0  0  0  0  0
  -19.6943  -25.6284   21.1275 H   0  0  0  0  0  0
  -19.6736  -27.3166   20.6723 H   0  0  0  0  0  0
  -17.4225  -26.6693   21.4011 H   0  0  0  0  0  0
  -18.0342  -26.0113   22.9027 H   0  0  0  0  0  0
  -19.7971  -30.7304   24.2218 H   0  0  0  0  0  0
  -17.5050  -31.6283   24.5169 H   0  0  0  0  0  0
  -15.5380  -30.2991   23.7699 H   0  0  0  0  0  0
  -15.8697  -28.0841   22.7078 H   0  0  0  0  0  0
  -24.5919  -30.7080   25.7674 H   0  0  0  0  0  0
  -24.8845  -32.2963   26.4650 H   0  0  0  0  0  0
  -25.7950  -30.9042   27.0218 H   0  0  0  0  0  0
  -26.3087  -29.6616   24.1360 H   0  0  0  0  0  0
  -27.4001  -29.7266   25.4984 H   0  0  0  0  0  0
  -27.9016  -30.4132   23.9742 H   0  0  0  0  0  0
  -27.2677  -33.3707   26.1904 H   0  0  0  0  0  0
  -28.3968  -32.6761   25.0365 H   0  0  0  0  0  0
  -28.0632  -31.8546   26.5530 H   0  0  0  0  0  0
  -28.2563  -38.0072   24.7511 H   0  0  0  0  0  0
  -28.1079  -36.2602   24.6295 H   0  0  0  0  0  0
  -27.2284  -37.1404   25.8869 H   0  0  0  0  0  0
  -20.9555  -29.8767   21.6700 H   0  0  0  0  0  0
  -26.0125  -38.2776   24.1436 H   0  0  0  0  0  0
  -27.1954  -20.6159   19.7693 H   0  0  0  0  0  0
  -31.5315  -18.5771   20.8681 H   0  0  0  0  0  0
  -33.4841  -21.5582   21.2184 H   0  0  0  0  0  0
  -33.0679  -20.1679   20.2275 H   0  0  0  0  0  0
  -32.7972  -20.1352   21.9910 H   0  0  0  0  0  0
  -30.0358  -23.2627   19.8882 H   0  0  0  0  0  0
  -29.3957  -23.1428   21.4729 H   0  0  0  0  0  0
  -27.1303  -24.1099   20.6550 H   0  0  0  0  0  0
  -27.7395  -24.1930   19.0445 H   0  0  0  0  0  0
  -28.6299  -16.0585   20.4267 H   0  0  0  0  0  0
  1 25  1  0  0  0
  1 30  2  0  0  0
  1 80  1  0  0  0
  2  3  1  0  0  0
  2 25  1  0  0  0
  2 83  1  0  0  0
  2 84  1  0  0  0
  3  4  1  0  0  0
  3 85  1  0  0  0
  3 86  1  0  0  0
  4  5  1  0  0  0
  4 87  1  0  0  0
  4 88  1  0  0  0
  5  6  1  0  0  0
  5 26  1  0  0  0
  5 89  1  0  0  0
  6 25  1  0  0  0
  6 90  1  0  0  0
  6 91  1  0  0  0
  7  8  2  0  0  0
  7 26  1  0  0  0
  7 29  1  0  0  0
  8  9  1  0  0  0
  8 22  1  0  0  0
  9 10  1  0  0  0
  9 27  2  0  0  0
 10 11  2  0  0  0
 10 15  1  0  0  0
 11 12  1  0  0  0
 11 92  1  0  0  0
 12 13  2  0  0  0
 12 93  1  0  0  0
 13 14  1  0  0  0
 13 31  1  0  0  0
 14 15  2  0  0  0
 14 94  1  0  0  0
 15 95  1  0  0  0
 16 17  2  0  0  0
 16 21  1  0  0  0
 16 31  1  0  0  0
 17 18  1  0  0  0
 17 96  1  0  0  0
 18 19  2  0  0  0
 18 97  1  0  0  0
 19 20  1  0  0  0
 19 24  1  0  0  0
 20 21  2  0  0  0
 20 98  1  0  0  0
 21 23  1  0  0  0
 22 28  1  0  0  0
 22 32  2  0  0  0
 26 27  1  0  0  0
 28 99  1  0  0  0
 28100  1  0  0  0
 29101  1  0  0  0
 29102  1  0  0  0
 33 34  1  0  0  0
 33 66  1  0  0  0
 33 70  2  0  0  0
 34 36  1  0  0  0
 34 59  1  0  0  0
 34103  1  0  0  0
 35 44  2  0  0  0
 35 45  1  0  0  0
 35 68  1  0  0  0
 36 56  1  0  0  0
 36104  1  0  0  0
 37 39  1  0  0  0
 37 47  1  0  0  0
 37 66  1  0  0  0
 37105  1  0  0  0
 38 43  2  0  0  0
 38 46  1  0  0  0
 38 47  1  0  0  0
 39 64  1  0  0  0
 39 67  2  0  0  0
 40 52  1  0  0  0
 40 53  2  0  0  0
 40 58  1  0  0  0
 41106  1  0  0  0
 41107  1  0  0  0
 41108  1  0  0  0
 41 48  1  0  0  0
 42 43  1  0  0  0
 42 66  1  0  0  0
 42109  1  0  0  0
 42110  1  0  0  0
 43 44  1  0  0  0
 44111  1  0  0  0
 45 46  2  0  0  0
 45112  1  0  0  0
 46113  1  0  0  0
 47114  1  0  0  0
 47115  1  0  0  0
 48 56  1  0  0  0
 48 65  1  0  0  0
 48116  1  0  0  0
 49 50  1  0  0  0
 49 53  1  0  0  0
 49 64  1  0  0  0
 49117  1  0  0  0
 50 51  1  0  0  0
 50118  1  0  0  0
 50119  1  0  0  0
 51 52  1  0  0  0
 51120  1  0  0  0
 51121  1  0  0  0
 52122  1  0  0  0
 52123  1  0  0  0
 53 54  1  0  0  0
 54 55  2  0  0  0
 54124  1  0  0  0
 55 57  1  0  0  0
 55125  1  0  0  0
 56 69  2  0  0  0
 57 58  2  0  0  0
 57126  1  0  0  0
 58127  1  0  0  0
 59 60  1  0  0  0
 59 61  1  0  0  0
 59 62  1  0  0  0
 60128  1  0  0  0
 60129  1  0  0  0
 60130  1  0  0  0
 61131  1  0  0  0
 61132  1  0  0  0
 61133  1  0  0  0
 62134  1  0  0  0
 62135  1  0  0  0
 62136  1  0  0  0
 63 65  1  0  0  0
 63137  1  0  0  0
 63138  1  0  0  0
 63139  1  0  0  0
 64140  1  0  0  0
 65141  1  0  0  0
 68 79  1  0  0  0
 71 73  2  0  0  0
 71 76  1  0  0  0
 71142  1  0  0  0
 72 74  1  0  0  0
 72 75  2  0  0  0
 72143  1  0  0  0
 73 75  1  0  0  0
 73 78  1  0  0  0
 74 76  2  0  0  0
 74 80  1  0  0  0
 75 81  1  0  0  0
 76 82  1  0  0  0
 77 81  1  0  0  0
 77144  1  0  0  0
 77145  1  0  0  0
 77146  1  0  0  0
 78 79  1  0  0  0
 78147  1  0  0  0
 78148  1  0  0  0
 79149  1  0  0  0
 79150  1  0  0  0
 80151  1  0  0  0
M  ISO  4   1 100  68 101  79 101  80 100
M  END
> <chiral flag>
0

> <version>
0

> <s_m_source_file>
/data/baiqing/PycharmProjects/Reinvent-master-3.2/result/LINK_invent/BTK/process_docking_weight1_custom_sum_contain_oxygen_bond_distance_aromatic_linkinvent_7_9_3/rearranged_h_0021.sdf

> <i_m_source_file_index>
33

> <r_mmod_Potential_Energy-OPLS-2005>
1007.26397705078

> <r_mmod_Stretch_Energy-OPLS-2005>
451.855163574219

> <r_mmod_Bend_Energy-OPLS-2005>
423.660675048828

> <r_mmod_Torsional_Energy-OPLS-2005>
214.870712280273

> <r_mmod_Improper_Torsional_Energy-OPLS-2005>
4.90803337097168

> <r_mmod_Van_der_Waal_Energy-OPLS-2005>
131.729843139648

> <r_mmod_Electrostatic_Energy-OPLS-2005>
-400.748809814453

> <r_mmod_Solvation_Energy-OPLS-2005>
-206.074340820312

> <b_mmod_Minimization_Converged-OPLS-2005>
0

> <r_mmod_RMS_Derivative-OPLS-2005>
1.12617468833923

$$$$
33
                    3D
 Structure written by MMmdl.
166174  0  0  1  0            999 V2000
  -30.8465  -14.5983   19.4718 C   0  0  0  0  0  0
  -31.3411  -12.3185   19.6542 C   0  0  0  0  0  0
  -30.6002  -12.0521   18.3945 C   0  0  0  0  0  0
  -29.2772  -12.0287   18.9519 C   0  0  0  0  0  0
  -28.4807  -13.2332   20.0195 C   0  0  2  0  0  0
  -29.5663  -13.1400   21.0961 C   0  0  0  0  0  0
  -24.6610  -14.1334   20.6142 C   0  0  0  0  0  0
  -23.7768  -13.2499   21.1679 C   0  0  0  0  0  0
  -24.2295  -11.9277   21.0413 C   0  0  0  0  0  0
  -23.6940  -10.5545   21.1360 C   0  0  0  0  0  0
  -24.2020   -9.5581   22.0086 C   0  0  0  0  0  0
  -23.5819   -8.2913   22.0992 C   0  0  0  0  0  0
  -22.4189   -8.0267   21.3403 C   0  0  0  0  0  0
  -21.9641   -8.9901   20.4262 C   0  0  0  0  0  0
  -22.6071  -10.2294   20.3074 C   0  0  0  0  0  0
  -21.6961   -6.0672   22.5234 C   0  0  0  0  0  0
  -21.4065   -6.5638   23.8142 C   0  0  0  0  0  0
  -21.3673   -5.6826   24.9135 C   0  0  0  0  0  0
  -21.6028   -4.3074   24.7241 C   0  0  0  0  0  0
  -21.8815   -3.8116   23.4392 C   0  0  0  0  0  0
  -21.9241   -4.6893   22.3425 C   0  0  0  0  0  0
  -22.3969  -13.6095   21.4007 C   0  0  0  0  0  0
  -22.1704   -4.2037   21.1020 F   0  0  0  0  0  0
  -21.5613   -3.4601   25.7786 F   0  0  0  0  0  0
  -30.7446  -13.4815   20.2734 N   0  0  0  0  0  0
  -25.6673  -13.3541   20.1177 N   0  0  0  0  0  0
  -24.7936  -12.2173   19.9699 N   0  0  0  0  0  0
  -21.7317  -12.8280   22.2280 N   0  0  0  0  0  0
  -24.6232  -15.5104   20.4569 N   0  0  0  0  0  0
  -31.8380  -15.2678   19.7082 O   0  0  0  0  0  0
  -21.6900   -6.8657   21.4078 O   0  0  0  0  0  0
  -21.9251  -14.5898   20.8338 O   0  0  0  0  0  0
  -24.6537  -31.8359   23.1830 C   0  0  0  0  0  0
  -25.9284  -32.4625   23.8230 C   0  0  1  0  0  0
  -27.0750  -26.9500   20.2347 C   0  0  0  0  0  0
  -25.6006  -33.8433   24.2128 N   0  0  0  0  0  0
  -23.4579  -30.4629   21.5301 C   0  0  2  0  0  0
  -24.8888  -28.8780   20.0945 C   0  0  0  0  0  0
  -22.7597  -29.4519   22.4773 C   0  0  0  0  0  0
  -18.0308  -28.1397   22.8461 C   0  0  0  0  0  0
  -24.1504  -36.7217   23.2645 C   0  0  0  0  0  0
  -26.0227  -30.6540   21.4093 C   0  0  0  0  0  0
  -26.0669  -29.2528   20.7521 C   0  0  0  0  0  0
  -27.1694  -28.3011   20.8064 C   0  0  0  0  0  0
  -25.9207  -26.7499   19.4586 C   0  0  0  0  0  0
  -24.8432  -27.6545   19.4163 C   0  0  0  0  0  0
  -23.6863  -29.8089   20.1417 C   0  0  0  0  0  0
  -25.4137  -36.2979   24.0308 C   0  0  1  0  0  0
  -20.5936  -28.3741   23.1195 C   0  0  2  0  0  0
  -20.6792  -26.9432   22.5399 C   0  0  0  0  0  0
  -19.5770  -26.6378   21.5201 C   0  0  0  0  0  0
  -18.1951  -26.7929   22.1613 C   0  0  0  0  0  0
  -19.1574  -28.8878   23.2823 C   0  0  0  0  0  0
  -18.9484  -30.1460   23.8874 C   0  0  0  0  0  0
  -17.6482  -30.6594   24.0548 C   0  0  0  0  0  0
  -25.9104  -34.9361   23.5032 C   0  0  0  0  0  0
  -16.5367  -29.9090   23.6335 C   0  0  0  0  0  0
  -16.7290  -28.6503   23.0365 C   0  0  0  0  0  0
  -26.4559  -31.6524   25.0719 C   0  0  0  0  0  0
  -25.3726  -31.3750   26.1411 C   0  0  0  0  0  0
  -27.0430  -30.2880   24.6422 C   0  0  0  0  0  0
  -27.6069  -32.4321   25.7512 C   0  0  0  0  0  0
  -27.5580  -37.1759   24.8468 C   0  0  0  0  0  0
  -21.4277  -29.3051   22.3532 N   0  0  0  0  0  0
  -26.4276  -37.3713   23.9417 N   0  0  0  0  0  0
  -24.7324  -31.0124   22.0928 N   0  0  0  0  0  0
  -23.4193  -28.8047   23.2947 O   0  0  0  0  0  0
  -27.9329  -25.7789   20.4391 O   0  0  0  0  0  0
  -26.5693  -34.8880   22.4619 O   0  0  0  0  0  0
  -23.5635  -32.1287   23.7001 O   0  0  0  0  0  0
  -27.0711  -14.9943   19.2392 C   0  0  0  0  0  0
  -27.1122  -13.5887   18.2529 C   0  0  0  0  0  0
  -26.9457  -11.8677   19.0107 C   0  0  0  0  0  0
  -27.1185  -13.3899   21.8720 C   0  0  0  0  0  0
  -27.1576  -15.0144   20.9804 C   0  0  0  0  0  0
  -27.0697  -11.7544   20.9220 C   0  0  0  0  0  0
  -27.4566  -17.8583   20.8463 C   0  0  0  0  0  0
  -26.7360  -10.6131   18.1642 C   0  0  0  0  0  0
  -27.1835  -13.3708   23.3811 C   0  0  0  0  0  0
  -28.5599  -14.2079   17.5646 C   0  0  0  0  0  0
  -27.4874  -19.4639   21.4672 C   0  0  0  0  0  0
  -27.4151  -21.0146   20.6040 C   0  0  0  0  0  0
  -27.7815  -22.6915   21.0592 C   0  0  0  0  0  0
  -27.4449  -24.2330   20.2586 C   0  0  0  0  0  0
  -27.2854  -16.5359   21.4912 N   0  0  0  0  0  0
  -29.9021  -14.8358   18.3535 N   0  0  0  0  0  0
  -27.6694  -17.8813   19.6365 O   0  0  0  0  0  0
  -27.3234  -10.2466   21.7178 Cl  0  0  0  0  0  0
  -32.3957  -12.5007   19.4417 H   0  0  0  0  0  0
  -31.3344  -11.4576   20.3274 H   0  0  0  0  0  0
  -30.8794  -11.0664   18.0162 H   0  0  0  0  0  0
  -30.8145  -12.7278   17.5673 H   0  0  0  0  0  0
  -29.2269  -11.0615   19.4672 H   0  0  0  0  0  0
  -28.8978  -11.8188   17.9502 H   0  0  0  0  0  0
  -28.8142  -14.1681   20.0947 H   0  0  0  0  0  0
  -29.6486  -12.1531   21.5554 H   0  0  0  0  0  0
  -29.5376  -13.8728   21.9108 H   0  0  0  0  0  0
  -25.0158   -9.7853   22.6754 H   0  0  0  0  0  0
  -23.9708   -7.5574   22.7899 H   0  0  0  0  0  0
  -21.0963   -8.7825   19.8162 H   0  0  0  0  0  0
  -22.2221  -10.9647   19.6134 H   0  0  0  0  0  0
  -21.2068   -7.6158   23.9601 H   0  0  0  0  0  0
  -21.1474   -6.0599   25.9023 H   0  0  0  0  0  0
  -22.0559   -2.7571   23.2923 H   0  0  0  0  0  0
  -22.1737  -12.0326   22.6622 H   0  0  0  0  0  0
  -20.7630  -13.0234   22.4381 H   0  0  0  0  0  0
  -23.8273  -16.0734   20.7264 H   0  0  0  0  0  0
  -25.3718  -16.0301   20.0159 H   0  0  0  0  0  0
  -26.7343  -32.5147   23.0928 H   0  0  0  0  0  0
  -25.0094  -33.9513   25.0239 H   0  0  0  0  0  0
  -22.7641  -31.2941   21.3808 H   0  0  0  0  0  0
  -23.3784  -35.9533   23.3257 H   0  0  0  0  0  0
  -24.3612  -36.8903   22.2075 H   0  0  0  0  0  0
  -23.7229  -37.6382   23.6720 H   0  0  0  0  0  0
  -26.2074  -31.3980   20.6333 H   0  0  0  0  0  0
  -26.8864  -30.6941   22.0613 H   0  0  0  0  0  0
  -28.0476  -28.5579   21.3818 H   0  0  0  0  0  0
  -25.7869  -25.8233   18.9224 H   0  0  0  0  0  0
  -23.9543  -27.3810   18.8629 H   0  0  0  0  0  0
  -23.8453  -30.5917   19.3984 H   0  0  0  0  0  0
  -22.7895  -29.2779   19.8163 H   0  0  0  0  0  0
  -25.1320  -36.1789   25.0793 H   0  0  0  0  0  0
  -21.0025  -28.3355   24.1312 H   0  0  0  0  0  0
  -20.5667  -26.2349   23.3624 H   0  0  0  0  0  0
  -21.6656  -26.7409   22.1201 H   0  0  0  0  0  0
  -19.6942  -25.6277   21.1250 H   0  0  0  0  0  0
  -19.6727  -27.3166   20.6711 H   0  0  0  0  0  0
  -17.4213  -26.6648   21.4025 H   0  0  0  0  0  0
  -18.0375  -26.0081   22.9022 H   0  0  0  0  0  0
  -19.7962  -30.7279   24.2247 H   0  0  0  0  0  0
  -17.5045  -31.6278   24.5151 H   0  0  0  0  0  0
  -15.5372  -30.2996   23.7687 H   0  0  0  0  0  0
  -15.8679  -28.0819   22.7119 H   0  0  0  0  0  0
  -24.5949  -30.7031   25.7762 H   0  0  0  0  0  0
  -24.8869  -32.2929   26.4719 H   0  0  0  0  0  0
  -25.8021  -30.9028   27.0256 H   0  0  0  0  0  0
  -26.3066  -29.6578   24.1421 H   0  0  0  0  0  0
  -27.3942  -29.7218   25.5060 H   0  0  0  0  0  0
  -27.9032  -30.4034   23.9830 H   0  0  0  0  0  0
  -27.2647  -33.3670   26.1955 H   0  0  0  0  0  0
  -28.3952  -32.6795   25.0393 H   0  0  0  0  0  0
  -28.0652  -31.8533   26.5537 H   0  0  0  0  0  0
  -28.2553  -38.0095   24.7548 H   0  0  0  0  0  0
  -28.1113  -36.2625   24.6245 H   0  0  0  0  0  0
  -27.2314  -37.1347   25.8871 H   0  0  0  0  0  0
  -20.9492  -29.8765   21.6721 H   0  0  0  0  0  0
  -26.0135  -38.2771   24.1438 H   0  0  0  0  0  0
  -27.1601  -15.9134   18.6918 H   0  0  0  0  0  0
  -26.9090  -10.8242   17.1087 H   0  0  0  0  0  0
  -25.7153  -10.2482   18.2790 H   0  0  0  0  0  0
  -27.4100   -9.8178   18.4794 H   0  0  0  0  0  0
  -27.3053  -14.3842   23.7642 H   0  0  0  0  0  0
  -28.0227  -12.7628   23.7205 H   0  0  0  0  0  0
  -26.2631  -12.9520   23.7887 H   0  0  0  0  0  0
  -28.2188  -15.0430   16.9536 H   0  0  0  0  0  0
  -28.8933  -13.5403   16.7709 H   0  0  0  0  0  0
  -28.4150  -19.4914   22.0388 H   0  0  0  0  0  0
  -26.7043  -19.4910   22.2251 H   0  0  0  0  0  0
  -26.3920  -21.0573   20.2291 H   0  0  0  0  0  0
  -28.0020  -20.8441   19.7018 H   0  0  0  0  0  0
  -28.8556  -22.6988   21.2435 H   0  0  0  0  0  0
  -27.3503  -22.8084   22.0545 H   0  0  0  0  0  0
  -26.3577  -24.2782   20.3086 H   0  0  0  0  0  0
  -27.6563  -24.0414   19.2061 H   0  0  0  0  0  0
  -27.1907  -16.6224   22.4953 H   0  0  0  0  0  0
  -30.1821  -15.6880   17.8903 H   0  0  0  0  0  0
  1 25  1  0  0  0
  1 30  2  0  0  0
  1 86  1  0  0  0
  2  3  1  0  0  0
  2 25  1  0  0  0
  2 89  1  0  0  0
  2 90  1  0  0  0
  3  4  1  0  0  0
  3 91  1  0  0  0
  3 92  1  0  0  0
  4  5  1  0  0  0
  4 93  1  0  0  0
  4 94  1  0  0  0
  5  6  1  0  0  0
  5 26  1  0  0  0
  5 95  1  0  0  0
  6 25  1  0  0  0
  6 96  1  0  0  0
  6 97  1  0  0  0
  7  8  2  0  0  0
  7 26  1  0  0  0
  7 29  1  0  0  0
  8  9  1  0  0  0
  8 22  1  0  0  0
  9 10  1  0  0  0
  9 27  2  0  0  0
 10 11  2  0  0  0
 10 15  1  0  0  0
 11 12  1  0  0  0
 11 98  1  0  0  0
 12 13  2  0  0  0
 12 99  1  0  0  0
 13 14  1  0  0  0
 13 31  1  0  0  0
 14 15  2  0  0  0
 14100  1  0  0  0
 15101  1  0  0  0
 16 17  2  0  0  0
 16 21  1  0  0  0
 16 31  1  0  0  0
 17 18  1  0  0  0
 17102  1  0  0  0
 18 19  2  0  0  0
 18103  1  0  0  0
 19 20  1  0  0  0
 19 24  1  0  0  0
 20 21  2  0  0  0
 20104  1  0  0  0
 21 23  1  0  0  0
 22 28  1  0  0  0
 22 32  2  0  0  0
 26 27  1  0  0  0
 28105  1  0  0  0
 28106  1  0  0  0
 29107  1  0  0  0
 29108  1  0  0  0
 33 34  1  0  0  0
 33 66  1  0  0  0
 33 70  2  0  0  0
 34 36  1  0  0  0
 34 59  1  0  0  0
 34109  1  0  0  0
 35 44  2  0  0  0
 35 45  1  0  0  0
 35 68  1  0  0  0
 36 56  1  0  0  0
 36110  1  0  0  0
 37 39  1  0  0  0
 37 47  1  0  0  0
 37 66  1  0  0  0
 37111  1  0  0  0
 38 43  2  0  0  0
 38 46  1  0  0  0
 38 47  1  0  0  0
 39 64  1  0  0  0
 39 67  2  0  0  0
 40 52  1  0  0  0
 40 53  2  0  0  0
 40 58  1  0  0  0
 41112  1  0  0  0
 41113  1  0  0  0
 41114  1  0  0  0
 41 48  1  0  0  0
 42 43  1  0  0  0
 42 66  1  0  0  0
 42115  1  0  0  0
 42116  1  0  0  0
 43 44  1  0  0  0
 44117  1  0  0  0
 45 46  2  0  0  0
 45118  1  0  0  0
 46119  1  0  0  0
 47120  1  0  0  0
 47121  1  0  0  0
 48 56  1  0  0  0
 48 65  1  0  0  0
 48122  1  0  0  0
 49 50  1  0  0  0
 49 53  1  0  0  0
 49 64  1  0  0  0
 49123  1  0  0  0
 50 51  1  0  0  0
 50124  1  0  0  0
 50125  1  0  0  0
 51 52  1  0  0  0
 51126  1  0  0  0
 51127  1  0  0  0
 52128  1  0  0  0
 52129  1  0  0  0
 53 54  1  0  0  0
 54 55  2  0  0  0
 54130  1  0  0  0
 55 57  1  0  0  0
 55131  1  0  0  0
 56 69  2  0  0  0
 57 58  2  0  0  0
 57132  1  0  0  0
 58133  1  0  0  0
 59 60  1  0  0  0
 59 61  1  0  0  0
 59 62  1  0  0  0
 60134  1  0  0  0
 60135  1  0  0  0
 60136  1  0  0  0
 61137  1  0  0  0
 61138  1  0  0  0
 61139  1  0  0  0
 62140  1  0  0  0
 62141  1  0  0  0
 62142  1  0  0  0
 63 65  1  0  0  0
 63143  1  0  0  0
 63144  1  0  0  0
 63145  1  0  0  0
 64146  1  0  0  0
 65147  1  0  0  0
 68 84  1  0  0  0
 71 72  2  0  0  0
 71 75  1  0  0  0
 71148  1  0  0  0
 72 73  1  0  0  0
 72 80  1  0  0  0
 73 76  2  0  0  0
 73 78  1  0  0  0
 74 75  2  0  0  0
 74 76  1  0  0  0
 74 79  1  0  0  0
 75 85  1  0  0  0
 76 88  1  0  0  0
 77 81  1  0  0  0
 77 85  1  0  0  0
 77 87  2  0  0  0
 78149  1  0  0  0
 78150  1  0  0  0
 78151  1  0  0  0
 79152  1  0  0  0
 79153  1  0  0  0
 79154  1  0  0  0
 80 86  1  0  0  0
 80155  1  0  0  0
 80156  1  0  0  0
 81 82  1  0  0  0
 81157  1  0  0  0
 81158  1  0  0  0
 82 83  1  0  0  0
 82159  1  0  0  0
 82160  1  0  0  0
 83 84  1  0  0  0
 83161  1  0  0  0
 83162  1  0  0  0
 84163  1  0  0  0
 84164  1  0  0  0
 85165  1  0  0  0
 86166  1  0  0  0
M  ISO  4   1 100  68 101  84 101  86 100
M  END
> <chiral flag>
0

> <version>
0

> <s_m_source_file>
/data/baiqing/PycharmProjects/Reinvent-master-3.2/result/LINK_invent/BTK/process_docking_weight1_custom_sum_contain_oxygen_bond_distance_aromatic_linkinvent_7_9_3/rearranged_h_0021.sdf

> <i_m_source_file_index>
34

> <r_mmod_Potential_Energy-OPLS-2005>
11110.345703125

> <r_mmod_Stretch_Energy-OPLS-2005>
5642.14208984375

> <r_mmod_Bend_Energy-OPLS-2005>
893.677734375

> <r_mmod_Torsional_Energy-OPLS-2005>
565.132507324219

> <r_mmod_Improper_Torsional_Energy-OPLS-2005>
45.8088722229004

> <r_mmod_Van_der_Waal_Energy-OPLS-2005>
3065.90258789062

> <r_mmod_Electrostatic_Energy-OPLS-2005>
-442.333221435547

> <r_mmod_Solvation_Energy-OPLS-2005>
-231.104766845703

> <b_mmod_Minimization_Converged-OPLS-2005>
0

> <r_mmod_RMS_Derivative-OPLS-2005>
3.7376184463501

$$$$
34
                    3D
 Structure written by MMmdl.
165173  0  0  1  0            999 V2000
  -30.5533  -14.9638   20.3940 C   0  0  0  0  0  0
  -30.4341  -12.5971   19.4983 C   0  0  0  0  0  0
  -29.5186  -12.5264   18.2554 C   0  0  0  0  0  0
  -28.0532  -12.3121   18.6761 C   0  0  0  0  0  0
  -27.6256  -13.2531   19.8327 C   0  0  2  0  0  0
  -28.6680  -13.3033   20.9685 C   0  0  0  0  0  0
  -25.2443  -13.8229   20.5710 C   0  0  0  0  0  0
  -24.1770  -13.0444   20.9233 C   0  0  0  0  0  0
  -24.6397  -11.6931   20.8759 C   0  0  0  0  0  0
  -23.9086  -10.4295   21.0410 C   0  0  0  0  0  0
  -24.3632   -9.4207   21.9187 C   0  0  0  0  0  0
  -23.6300   -8.2245   22.0756 C   0  0  0  0  0  0
  -22.4282   -8.0284   21.3546 C   0  0  0  0  0  0
  -21.9924   -9.0259   20.4647 C   0  0  0  0  0  0
  -22.7259  -10.2136   20.3057 C   0  0  0  0  0  0
  -21.6855   -6.0735   22.5275 C   0  0  0  0  0  0
  -21.4018   -6.5640   23.8209 C   0  0  0  0  0  0
  -21.3660   -5.6793   24.9172 C   0  0  0  0  0  0
  -21.6042   -4.3054   24.7223 C   0  0  0  0  0  0
  -21.8821   -3.8146   23.4344 C   0  0  0  0  0  0
  -21.9195   -4.6963   22.3399 C   0  0  0  0  0  0
  -22.7789  -13.5206   21.1888 C   0  0  0  0  0  0
  -22.1662   -4.2147   21.0976 F   0  0  0  0  0  0
  -21.5629   -3.4537   25.7738 F   0  0  0  0  0  0
  -29.9409  -13.7101   20.3610 N   0  0  0  0  0  0
  -26.2867  -12.9470   20.3228 N   0  0  0  0  0  0
  -25.9327  -11.6595   20.5737 N   0  0  0  0  0  0
  -22.0445  -12.8183   22.0440 N   0  0  0  0  0  0
  -25.4101  -15.1958   20.4122 N   0  0  0  0  0  0
  -31.7755  -14.9652   20.2247 O   0  0  0  0  0  0
  -21.6644   -6.8880   21.4240 O   0  0  0  0  0  0
  -22.3466  -14.5507   20.6732 O   0  0  0  0  0  0
  -24.6450  -31.8429   23.1874 C   0  0  0  0  0  0
  -25.9212  -32.4690   23.8273 C   0  0  1  0  0  0
  -27.2129  -27.1155   20.1627 C   0  0  0  0  0  0
  -25.5954  -33.8498   24.2191 N   0  0  0  0  0  0
  -23.4496  -30.4611   21.5342 C   0  0  2  0  0  0
  -24.8985  -28.8840   20.1141 C   0  0  0  0  0  0
  -22.7581  -29.4531   22.4867 C   0  0  0  0  0  0
  -18.0306  -28.1382   22.8472 C   0  0  0  0  0  0
  -24.1493  -36.7251   23.2643 C   0  0  0  0  0  0
  -26.0067  -30.7100   21.3894 C   0  0  0  0  0  0
  -26.0768  -29.3183   20.7345 C   0  0  0  0  0  0
  -27.2364  -28.4514   20.7395 C   0  0  0  0  0  0
  -26.0117  -26.7927   19.4939 C   0  0  0  0  0  0
  -24.8799  -27.6355   19.4765 C   0  0  0  0  0  0
  -23.6772  -29.7903   20.1539 C   0  0  0  0  0  0
  -25.4122  -36.3030   24.0320 C   0  0  1  0  0  0
  -20.5919  -28.3707   23.1229 C   0  0  2  0  0  0
  -20.6788  -26.9409   22.5399 C   0  0  0  0  0  0
  -19.5763  -26.6372   21.5204 C   0  0  0  0  0  0
  -18.1943  -26.7922   22.1618 C   0  0  0  0  0  0
  -19.1565  -28.8865   23.2839 C   0  0  0  0  0  0
  -18.9482  -30.1463   23.8859 C   0  0  0  0  0  0
  -17.6480  -30.6581   24.0550 C   0  0  0  0  0  0
  -25.9077  -34.9405   23.5067 C   0  0  0  0  0  0
  -16.5369  -29.9071   23.6334 C   0  0  0  0  0  0
  -16.7294  -28.6492   23.0352 C   0  0  0  0  0  0
  -26.4528  -31.6562   25.0722 C   0  0  0  0  0  0
  -25.3707  -31.3746   26.1413 C   0  0  0  0  0  0
  -27.0402  -30.2962   24.6308 C   0  0  0  0  0  0
  -27.6054  -32.4331   25.7506 C   0  0  0  0  0  0
  -27.5576  -37.1780   24.8464 C   0  0  0  0  0  0
  -21.4270  -29.3039   22.3615 N   0  0  0  0  0  0
  -26.4284  -37.3745   23.9414 N   0  0  0  0  0  0
  -24.7204  -31.0266   22.0917 N   0  0  0  0  0  0
  -23.4221  -28.8080   23.3018 O   0  0  0  0  0  0
  -28.2628  -26.1209   20.2032 O   0  0  0  0  0  0
  -26.5668  -34.8905   22.4651 O   0  0  0  0  0  0
  -23.5566  -32.1314   23.7083 O   0  0  0  0  0  0
  -30.5017  -20.4538   19.2665 C   0  0  0  0  0  0
  -29.4476  -20.2650   20.1664 C   0  0  0  0  0  0
  -31.2617  -19.4037   18.6840 C   0  0  0  0  0  0
  -29.2585  -18.8402   20.5699 C   0  0  0  0  0  0
  -30.9341  -18.0292   18.9864 C   0  0  0  0  0  0
  -30.0182  -17.6696   20.0364 C   0  0  0  0  0  0
  -28.1845  -18.5363   21.5985 C   0  0  0  0  0  0
  -31.4723  -16.9250   18.0799 C   0  0  0  0  0  0
  -33.7430  -19.0617   17.9636 C   0  0  0  0  0  0
  -32.7977  -21.3237   17.7922 C   0  0  0  0  0  0
  -28.6116  -21.6330   20.5999 C   0  0  0  0  0  0
  -28.9516  -23.2402   20.1501 C   0  0  0  0  0  0
  -27.9708  -24.5960   20.4346 C   0  0  0  0  0  0
  -32.4193  -19.8233   17.7170 C   0  0  0  0  0  0
  -29.7889  -16.1787   20.4299 N   0  0  0  0  0  0
  -31.9205  -19.5891   16.0162 Cl  0  0  0  0  0  0
  -31.4679  -12.7482   19.1841 H   0  0  0  0  0  0
  -30.4242  -11.6521   20.0432 H   0  0  0  0  0  0
  -29.8399  -11.7222   17.5922 H   0  0  0  0  0  0
  -29.6051  -13.4509   17.6821 H   0  0  0  0  0  0
  -27.9541  -11.2732   18.9926 H   0  0  0  0  0  0
  -27.3889  -12.4336   17.8195 H   0  0  0  0  0  0
  -27.5825  -14.2503   19.3938 H   0  0  0  0  0  0
  -28.7571  -12.3368   21.4666 H   0  0  0  0  0  0
  -28.3663  -14.0207   21.7330 H   0  0  0  0  0  0
  -25.2775   -9.5678   22.4762 H   0  0  0  0  0  0
  -24.0004   -7.4636   22.7478 H   0  0  0  0  0  0
  -21.0856   -8.8783   19.8950 H   0  0  0  0  0  0
  -22.3721  -10.9676   19.6164 H   0  0  0  0  0  0
  -21.2011   -7.6150   23.9712 H   0  0  0  0  0  0
  -21.1480   -6.0522   25.9074 H   0  0  0  0  0  0
  -22.0599   -2.7609   23.2844 H   0  0  0  0  0  0
  -22.4079  -11.9846   22.4819 H   0  0  0  0  0  0
  -21.1058  -13.1190   22.2652 H   0  0  0  0  0  0
  -24.6367  -15.8431   20.5161 H   0  0  0  0  0  0
  -26.2434  -15.6337   20.0426 H   0  0  0  0  0  0
  -26.7279  -32.5292   23.1000 H   0  0  0  0  0  0
  -25.0067  -33.9611   25.0316 H   0  0  0  0  0  0
  -22.7525  -31.2869   21.3791 H   0  0  0  0  0  0
  -23.3765  -35.9571   23.3286 H   0  0  0  0  0  0
  -24.3575  -36.8904   22.2060 H   0  0  0  0  0  0
  -23.7236  -37.6438   23.6693 H   0  0  0  0  0  0
  -26.1630  -31.4614   20.6139 H   0  0  0  0  0  0
  -26.8768  -30.7626   22.0316 H   0  0  0  0  0  0
  -28.1348  -28.7799   21.2429 H   0  0  0  0  0  0
  -25.9176  -25.8497   18.9774 H   0  0  0  0  0  0
  -23.9842  -27.3014   18.9705 H   0  0  0  0  0  0
  -23.8170  -30.5650   19.3989 H   0  0  0  0  0  0
  -22.7908  -29.2346   19.8426 H   0  0  0  0  0  0
  -25.1306  -36.1856   25.0812 H   0  0  0  0  0  0
  -21.0001  -28.3294   24.1353 H   0  0  0  0  0  0
  -20.5674  -26.2321   23.3621 H   0  0  0  0  0  0
  -21.6655  -26.7409   22.1198 H   0  0  0  0  0  0
  -19.6924  -25.6279   21.1241 H   0  0  0  0  0  0
  -19.6696  -27.3180   20.6729 H   0  0  0  0  0  0
  -17.4212  -26.6661   21.4023 H   0  0  0  0  0  0
  -18.0336  -26.0069   22.9018 H   0  0  0  0  0  0
  -19.7965  -30.7278   24.2215 H   0  0  0  0  0  0
  -17.5039  -31.6258   24.5158 H   0  0  0  0  0  0
  -15.5369  -30.2957   23.7684 H   0  0  0  0  0  0
  -15.8693  -28.0801   22.7077 H   0  0  0  0  0  0
  -24.5899  -30.7080   25.7732 H   0  0  0  0  0  0
  -24.8875  -32.2922   26.4778 H   0  0  0  0  0  0
  -25.7984  -30.8961   27.0233 H   0  0  0  0  0  0
  -26.3031  -29.6673   24.1303 H   0  0  0  0  0  0
  -27.4009  -29.7265   25.4882 H   0  0  0  0  0  0
  -27.8938  -30.4205   23.9639 H   0  0  0  0  0  0
  -27.2655  -33.3664   26.2005 H   0  0  0  0  0  0
  -28.3902  -32.6837   25.0358 H   0  0  0  0  0  0
  -28.0680  -31.8505   26.5482 H   0  0  0  0  0  0
  -28.2571  -38.0098   24.7527 H   0  0  0  0  0  0
  -28.1094  -36.2625   24.6270 H   0  0  0  0  0  0
  -27.2294  -37.1398   25.8868 H   0  0  0  0  0  0
  -20.9490  -29.8768   21.6803 H   0  0  0  0  0  0
  -26.0150  -38.2813   24.1427 H   0  0  0  0  0  0
  -30.6901  -21.4785   19.0018 H   0  0  0  0  0  0
  -27.7945  -19.4383   22.0677 H   0  0  0  0  0  0
  -28.5857  -17.9031   22.3904 H   0  0  0  0  0  0
  -27.3497  -18.0130   21.1319 H   0  0  0  0  0  0
  -31.6600  -17.2612   17.0665 H   0  0  0  0  0  0
  -30.7449  -16.1257   17.9524 H   0  0  0  0  0  0
  -32.3986  -16.5061   18.4666 H   0  0  0  0  0  0
  -34.0320  -19.1073   19.0140 H   0  0  0  0  0  0
  -34.5613  -19.4923   17.3863 H   0  0  0  0  0  0
  -33.7207  -18.0195   17.6665 H   0  0  0  0  0  0
  -33.0692  -21.6215   18.8060 H   0  0  0  0  0  0
  -31.9953  -21.9730   17.4416 H   0  0  0  0  0  0
  -33.6511  -21.5532   17.1533 H   0  0  0  0  0  0
  -28.5771  -21.6251   21.6894 H   0  0  0  0  0  0
  -27.5838  -21.4399   20.2919 H   0  0  0  0  0  0
  -29.1116  -23.2274   19.0722 H   0  0  0  0  0  0
  -29.9302  -23.4728   20.5703 H   0  0  0  0  0  0
  -27.7125  -24.5454   21.4929 H   0  0  0  0  0  0
  -27.0379  -24.3552   19.9308 H   0  0  0  0  0  0
  -28.8429  -15.9964   20.7274 H   0  0  0  0  0  0
  1 25  1  0  0  0
  1 30  2  0  0  0
  1 85  1  0  0  0
  2  3  1  0  0  0
  2 25  1  0  0  0
  2 87  1  0  0  0
  2 88  1  0  0  0
  3  4  1  0  0  0
  3 89  1  0  0  0
  3 90  1  0  0  0
  4  5  1  0  0  0
  4 91  1  0  0  0
  4 92  1  0  0  0
  5  6  1  0  0  0
  5 26  1  0  0  0
  5 93  1  0  0  0
  6 25  1  0  0  0
  6 94  1  0  0  0
  6 95  1  0  0  0
  7  8  2  0  0  0
  7 26  1  0  0  0
  7 29  1  0  0  0
  8  9  1  0  0  0
  8 22  1  0  0  0
  9 10  1  0  0  0
  9 27  2  0  0  0
 10 11  2  0  0  0
 10 15  1  0  0  0
 11 12  1  0  0  0
 11 96  1  0  0  0
 12 13  2  0  0  0
 12 97  1  0  0  0
 13 14  1  0  0  0
 13 31  1  0  0  0
 14 15  2  0  0  0
 14 98  1  0  0  0
 15 99  1  0  0  0
 16 17  2  0  0  0
 16 21  1  0  0  0
 16 31  1  0  0  0
 17 18  1  0  0  0
 17100  1  0  0  0
 18 19  2  0  0  0
 18101  1  0  0  0
 19 20  1  0  0  0
 19 24  1  0  0  0
 20 21  2  0  0  0
 20102  1  0  0  0
 21 23  1  0  0  0
 22 28  1  0  0  0
 22 32  2  0  0  0
 26 27  1  0  0  0
 28103  1  0  0  0
 28104  1  0  0  0
 29105  1  0  0  0
 29106  1  0  0  0
 33 34  1  0  0  0
 33 66  1  0  0  0
 33 70  2  0  0  0
 34 36  1  0  0  0
 34 59  1  0  0  0
 34107  1  0  0  0
 35 44  2  0  0  0
 35 45  1  0  0  0
 35 68  1  0  0  0
 36 56  1  0  0  0
 36108  1  0  0  0
 37 39  1  0  0  0
 37 47  1  0  0  0
 37 66  1  0  0  0
 37109  1  0  0  0
 38 43  2  0  0  0
 38 46  1  0  0  0
 38 47  1  0  0  0
 39 64  1  0  0  0
 39 67  2  0  0  0
 40 52  1  0  0  0
 40 53  2  0  0  0
 40 58  1  0  0  0
 41110  1  0  0  0
 41111  1  0  0  0
 41112  1  0  0  0
 41 48  1  0  0  0
 42 43  1  0  0  0
 42 66  1  0  0  0
 42113  1  0  0  0
 42114  1  0  0  0
 43 44  1  0  0  0
 44115  1  0  0  0
 45 46  2  0  0  0
 45116  1  0  0  0
 46117  1  0  0  0
 47118  1  0  0  0
 47119  1  0  0  0
 48 56  1  0  0  0
 48 65  1  0  0  0
 48120  1  0  0  0
 49 50  1  0  0  0
 49 53  1  0  0  0
 49 64  1  0  0  0
 49121  1  0  0  0
 50 51  1  0  0  0
 50122  1  0  0  0
 50123  1  0  0  0
 51 52  1  0  0  0
 51124  1  0  0  0
 51125  1  0  0  0
 52126  1  0  0  0
 52127  1  0  0  0
 53 54  1  0  0  0
 54 55  2  0  0  0
 54128  1  0  0  0
 55 57  1  0  0  0
 55129  1  0  0  0
 56 69  2  0  0  0
 57 58  2  0  0  0
 57130  1  0  0  0
 58131  1  0  0  0
 59 60  1  0  0  0
 59 61  1  0  0  0
 59 62  1  0  0  0
 60132  1  0  0  0
 60133  1  0  0  0
 60134  1  0  0  0
 61135  1  0  0  0
 61136  1  0  0  0
 61137  1  0  0  0
 62138  1  0  0  0
 62139  1  0  0  0
 62140  1  0  0  0
 63 65  1  0  0  0
 63141  1  0  0  0
 63142  1  0  0  0
 63143  1  0  0  0
 64144  1  0  0  0
 65145  1  0  0  0
 68 83  1  0  0  0
 71 72  2  0  0  0
 71 73  1  0  0  0
 71146  1  0  0  0
 72 74  1  0  0  0
 72 81  1  0  0  0
 73 75  2  0  0  0
 73 84  1  0  0  0
 74 76  2  0  0  0
 74 77  1  0  0  0
 75 76  1  0  0  0
 75 78  1  0  0  0
 76 85  1  0  0  0
 77147  1  0  0  0
 77148  1  0  0  0
 77149  1  0  0  0
 78150  1  0  0  0
 78151  1  0  0  0
 78152  1  0  0  0
 79153  1  0  0  0
 79154  1  0  0  0
 79155  1  0  0  0
 79 84  1  0  0  0
 80 84  1  0  0  0
 80156  1  0  0  0
 80157  1  0  0  0
 80158  1  0  0  0
 81 82  1  0  0  0
 81159  1  0  0  0
 81160  1  0  0  0
 82 83  1  0  0  0
 82161  1  0  0  0
 82162  1  0  0  0
 83163  1  0  0  0
 83164  1  0  0  0
 84 86  1  0  0  0
 85165  1  0  0  0
M  ISO  4   1 100  68 101  83 101  85 100
M  END
> <chiral flag>
0

> <version>
0

> <s_m_source_file>
/data/baiqing/PycharmProjects/Reinvent-master-3.2/result/LINK_invent/BTK/process_docking_weight1_custom_sum_contain_oxygen_bond_distance_aromatic_linkinvent_7_9_3/rearranged_h_0021.sdf

> <i_m_source_file_index>
35

> <r_mmod_Potential_Energy-OPLS-2005>
572.01220703125

> <r_mmod_Stretch_Energy-OPLS-2005>
298.888824462891

> <r_mmod_Bend_Energy-OPLS-2005>
266.124542236328

> <r_mmod_Torsional_Energy-OPLS-2005>
253.804718017578

> <r_mmod_Improper_Torsional_Energy-OPLS-2005>
4.66912889480591

> <r_mmod_Van_der_Waal_Energy-OPLS-2005>
157.534378051758

> <r_mmod_Electrostatic_Energy-OPLS-2005>
-418.808837890625

> <r_mmod_Solvation_Energy-OPLS-2005>
-196.939895629883

> <b_mmod_Minimization_Converged-OPLS-2005>
0

> <r_mmod_RMS_Derivative-OPLS-2005>
0.669748842716217

$$$$
36
                    3D
 Structure written by MMmdl.
153162  0  0  1  0            999 V2000
  -30.4218  -15.2597   20.3816 C   0  0  0  0  0  0
  -30.4463  -12.8044   19.5229 C   0  0  0  0  0  0
  -29.5382  -12.5766   18.2872 C   0  0  0  0  0  0
  -28.0865  -12.2981   18.7153 C   0  0  0  0  0  0
  -27.6151  -13.2701   19.8246 C   0  0  2  0  0  0
  -28.6495  -13.4304   20.9591 C   0  0  0  0  0  0
  -25.2405  -13.8236   20.5729 C   0  0  0  0  0  0
  -24.1755  -13.0436   20.9259 C   0  0  0  0  0  0
  -24.6405  -11.6932   20.8765 C   0  0  0  0  0  0
  -23.9097  -10.4293   21.0411 C   0  0  0  0  0  0
  -24.3637   -9.4203   21.9187 C   0  0  0  0  0  0
  -23.6300   -8.2244   22.0758 C   0  0  0  0  0  0
  -22.4286   -8.0287   21.3545 C   0  0  0  0  0  0
  -21.9928   -9.0264   20.4646 C   0  0  0  0  0  0
  -22.7270  -10.2135   20.3055 C   0  0  0  0  0  0
  -21.6857   -6.0737   22.5279 C   0  0  0  0  0  0
  -21.4015   -6.5639   23.8213 C   0  0  0  0  0  0
  -21.3656   -5.6791   24.9173 C   0  0  0  0  0  0
  -21.6047   -4.3054   24.7223 C   0  0  0  0  0  0
  -21.8817   -3.8147   23.4346 C   0  0  0  0  0  0
  -21.9191   -4.6963   22.3401 C   0  0  0  0  0  0
  -22.7771  -13.5195   21.1897 C   0  0  0  0  0  0
  -22.1663   -4.2149   21.0980 F   0  0  0  0  0  0
  -21.5626   -3.4538   25.7737 F   0  0  0  0  0  0
  -29.8834  -13.9417   20.3382 N   0  0  0  0  0  0
  -26.2833  -12.9504   20.3210 N   0  0  0  0  0  0
  -25.9341  -11.6616   20.5725 N   0  0  0  0  0  0
  -22.0418  -12.8185   22.0449 N   0  0  0  0  0  0
  -25.4027  -15.1971   20.4121 N   0  0  0  0  0  0
  -31.6444  -15.2850   20.1687 O   0  0  0  0  0  0
  -21.6644   -6.8887   21.4245 O   0  0  0  0  0  0
  -22.3457  -14.5500   20.6735 O   0  0  0  0  0  0
  -24.6629  -31.8243   23.1733 C   0  0  0  0  0  0
  -25.9317  -32.4588   23.8188 C   0  0  1  0  0  0
  -27.2066  -26.9139   20.2004 C   0  0  0  0  0  0
  -25.5990  -33.8407   24.2079 N   0  0  0  0  0  0
  -23.4771  -30.4375   21.5229 C   0  0  2  0  0  0
  -24.9303  -28.8254   20.1195 C   0  0  0  0  0  0
  -22.7667  -29.4438   22.4789 C   0  0  0  0  0  0
  -18.0318  -28.1414   22.8452 C   0  0  0  0  0  0
  -24.1495  -36.7209   23.2645 C   0  0  0  0  0  0
  -26.0481  -30.6241   21.4114 C   0  0  0  0  0  0
  -26.1120  -29.2104   20.7651 C   0  0  0  0  0  0
  -27.2451  -28.2758   20.7841 C   0  0  0  0  0  0
  -26.0167  -26.7141   19.4638 C   0  0  0  0  0  0
  -24.9086  -27.5964   19.4465 C   0  0  0  0  0  0
  -23.7191  -29.7559   20.1488 C   0  0  0  0  0  0
  -25.4133  -36.2963   24.0296 C   0  0  1  0  0  0
  -20.5944  -28.3750   23.1186 C   0  0  2  0  0  0
  -20.6800  -26.9432   22.5397 C   0  0  0  0  0  0
  -19.5777  -26.6375   21.5210 C   0  0  0  0  0  0
  -18.1956  -26.7945   22.1614 C   0  0  0  0  0  0
  -19.1580  -28.8904   23.2806 C   0  0  0  0  0  0
  -18.9498  -30.1495   23.8839 C   0  0  0  0  0  0
  -17.6493  -30.6601   24.0553 C   0  0  0  0  0  0
  -25.9103  -34.9347   23.5005 C   0  0  0  0  0  0
  -16.5379  -29.9090   23.6351 C   0  0  0  0  0  0
  -16.7303  -28.6519   23.0352 C   0  0  0  0  0  0
  -26.4563  -31.6534   25.0718 C   0  0  0  0  0  0
  -25.3677  -31.3802   26.1365 C   0  0  0  0  0  0
  -27.0462  -30.2892   24.6467 C   0  0  0  0  0  0
  -27.6053  -32.4350   25.7513 C   0  0  0  0  0  0
  -27.5565  -37.1761   24.8464 C   0  0  0  0  0  0
  -21.4335  -29.3044   22.3540 N   0  0  0  0  0  0
  -26.4276  -37.3698   23.9408 N   0  0  0  0  0  0
  -24.7504  -30.9893   22.0890 N   0  0  0  0  0  0
  -23.4217  -28.7993   23.3017 O   0  0  0  0  0  0
  -28.2227  -25.8143   20.1705 O   0  0  0  0  0  0
  -26.5705  -34.8879   22.4596 O   0  0  0  0  0  0
  -23.5694  -32.1233   23.6810 O   0  0  0  0  0  0
  -29.1775  -20.9870   20.2998 C   0  0  0  0  0  0
  -30.4602  -20.4235   20.4970 C   0  0  0  0  0  0
  -29.6155  -18.1015   20.4124 C   0  0  0  0  0  0
  -27.3793  -22.7869   19.2266 C   0  0  0  0  0  0
  -26.7931  -23.5863   20.4029 C   0  0  0  0  0  0
  -28.7106  -22.6592   19.9805 C   0  0  1  0  0  0
  -28.1676  -24.2257   20.6873 C   0  0  1  0  0  0
  -31.6990  -21.2563   20.6211 C   0  0  0  0  0  0
  -28.5503  -24.3886   22.1676 C   0  0  0  0  0  0
  -30.6714  -18.9579   20.5413 N   0  0  0  0  0  0
  -29.5862  -16.4820   20.4552 N   0  0  0  0  0  0
  -27.7796  -25.2968   22.7684 F   0  0  0  0  0  0
  -29.8254  -24.7668   22.2637 F   0  0  0  0  0  0
  -28.4100  -23.2321   22.8178 F   0  0  0  0  0  0
  -28.2094  -19.3765   20.2417 S   0  0  0  0  0  0
  -31.4623  -13.0197   19.1888 H   0  0  0  0  0  0
  -30.5224  -11.8962   20.1227 H   0  0  0  0  0  0
  -29.9175  -11.7516   17.6826 H   0  0  0  0  0  0
  -29.5655  -13.4620   17.6500 H   0  0  0  0  0  0
  -28.0443  -11.2735   19.0870 H   0  0  0  0  0  0
  -27.4174  -12.3395   17.8549 H   0  0  0  0  0  0
  -27.5352  -14.2393   19.3312 H   0  0  0  0  0  0
  -28.8161  -12.4889   21.4846 H   0  0  0  0  0  0
  -28.2895  -14.1414   21.7047 H   0  0  0  0  0  0
  -25.2777   -9.5673   22.4770 H   0  0  0  0  0  0
  -23.9999   -7.4639   22.7486 H   0  0  0  0  0  0
  -21.0856   -8.8793   19.8955 H   0  0  0  0  0  0
  -22.3735  -10.9677   19.6166 H   0  0  0  0  0  0
  -21.2013   -7.6147   23.9718 H   0  0  0  0  0  0
  -21.1479   -6.0519   25.9075 H   0  0  0  0  0  0
  -22.0599   -2.7610   23.2846 H   0  0  0  0  0  0
  -22.4038  -11.9850   22.4841 H   0  0  0  0  0  0
  -21.1033  -13.1204   22.2644 H   0  0  0  0  0  0
  -24.6232  -15.8387   20.5097 H   0  0  0  0  0  0
  -26.2216  -15.6333   20.0111 H   0  0  0  0  0  0
  -26.7384  -32.5114   23.0899 H   0  0  0  0  0  0
  -25.0105  -33.9497   25.0206 H   0  0  0  0  0  0
  -22.7906  -31.2694   21.3521 H   0  0  0  0  0  0
  -23.3763  -35.9535   23.3277 H   0  0  0  0  0  0
  -24.3570  -36.8884   22.2067 H   0  0  0  0  0  0
  -23.7255  -37.6388   23.6723 H   0  0  0  0  0  0
  -26.2288  -31.3601   20.6268 H   0  0  0  0  0  0
  -26.9099  -30.6835   22.0640 H   0  0  0  0  0  0
  -28.1426  -28.5747   21.3066 H   0  0  0  0  0  0
  -25.9196  -25.8200   18.8678 H   0  0  0  0  0  0
  -24.0268  -27.3101   18.8897 H   0  0  0  0  0  0
  -23.8787  -30.5266   19.3937 H   0  0  0  0  0  0
  -22.8292  -29.2126   19.8261 H   0  0  0  0  0  0
  -25.1332  -36.1755   25.0787 H   0  0  0  0  0  0
  -21.0022  -28.3355   24.1315 H   0  0  0  0  0  0
  -20.5694  -26.2368   23.3635 H   0  0  0  0  0  0
  -21.6666  -26.7419   22.1195 H   0  0  0  0  0  0
  -19.6949  -25.6273   21.1277 H   0  0  0  0  0  0
  -19.6732  -27.3154   20.6714 H   0  0  0  0  0  0
  -17.4229  -26.6679   21.4015 H   0  0  0  0  0  0
  -18.0352  -26.0103   22.9025 H   0  0  0  0  0  0
  -19.7976  -30.7322   24.2185 H   0  0  0  0  0  0
  -17.5047  -31.6275   24.5168 H   0  0  0  0  0  0
  -15.5383  -30.2978   23.7707 H   0  0  0  0  0  0
  -15.8698  -28.0828   22.7093 H   0  0  0  0  0  0
  -24.5883  -30.7128   25.7667 H   0  0  0  0  0  0
  -24.8849  -32.3016   26.4633 H   0  0  0  0  0  0
  -25.7891  -30.9073   27.0244 H   0  0  0  0  0  0
  -26.3141  -29.6558   24.1448 H   0  0  0  0  0  0
  -27.3954  -29.7268   25.5133 H   0  0  0  0  0  0
  -27.9091  -30.4060   23.9908 H   0  0  0  0  0  0
  -27.2629  -33.3712   26.1930 H   0  0  0  0  0  0
  -28.3938  -32.6807   25.0390 H   0  0  0  0  0  0
  -28.0632  -31.8590   26.5563 H   0  0  0  0  0  0
  -28.2550  -38.0080   24.7497 H   0  0  0  0  0  0
  -28.1087  -36.2604   24.6300 H   0  0  0  0  0  0
  -27.2282  -37.1407   25.8865 H   0  0  0  0  0  0
  -20.9594  -29.8754   21.6679 H   0  0  0  0  0  0
  -26.0118  -38.2750   24.1427 H   0  0  0  0  0  0
  -27.4635  -23.3794   18.3131 H   0  0  0  0  0  0
  -26.8653  -21.8446   19.0353 H   0  0  0  0  0  0
  -26.4857  -22.9193   21.2103 H   0  0  0  0  0  0
  -25.9609  -24.2367   20.1696 H   0  0  0  0  0  0
  -29.5032  -22.9862   19.3066 H   0  0  0  0  0  0
  -31.4671  -22.2956   20.8554 H   0  0  0  0  0  0
  -32.2717  -21.2494   19.6934 H   0  0  0  0  0  0
  -32.3498  -20.8853   21.4142 H   0  0  0  0  0  0
  -28.6297  -16.1752   20.5318 H   0  0  0  0  0  0
  1 25  1  0  0  0
  1 30  2  0  0  0
  1 81  1  0  0  0
  2  3  1  0  0  0
  2 25  1  0  0  0
  2 86  1  0  0  0
  2 87  1  0  0  0
  3  4  1  0  0  0
  3 88  1  0  0  0
  3 89  1  0  0  0
  4  5  1  0  0  0
  4 90  1  0  0  0
  4 91  1  0  0  0
  5  6  1  0  0  0
  5 26  1  0  0  0
  5 92  1  0  0  0
  6 25  1  0  0  0
  6 93  1  0  0  0
  6 94  1  0  0  0
  7  8  2  0  0  0
  7 26  1  0  0  0
  7 29  1  0  0  0
  8  9  1  0  0  0
  8 22  1  0  0  0
  9 10  1  0  0  0
  9 27  2  0  0  0
 10 11  2  0  0  0
 10 15  1  0  0  0
 11 12  1  0  0  0
 11 95  1  0  0  0
 12 13  2  0  0  0
 12 96  1  0  0  0
 13 14  1  0  0  0
 13 31  1  0  0  0
 14 15  2  0  0  0
 14 97  1  0  0  0
 15 98  1  0  0  0
 16 17  2  0  0  0
 16 21  1  0  0  0
 16 31  1  0  0  0
 17 18  1  0  0  0
 17 99  1  0  0  0
 18 19  2  0  0  0
 18100  1  0  0  0
 19 20  1  0  0  0
 19 24  1  0  0  0
 20 21  2  0  0  0
 20101  1  0  0  0
 21 23  1  0  0  0
 22 28  1  0  0  0
 22 32  2  0  0  0
 26 27  1  0  0  0
 28102  1  0  0  0
 28103  1  0  0  0
 29104  1  0  0  0
 29105  1  0  0  0
 33 34  1  0  0  0
 33 66  1  0  0  0
 33 70  2  0  0  0
 34 36  1  0  0  0
 34 59  1  0  0  0
 34106  1  0  0  0
 35 44  2  0  0  0
 35 45  1  0  0  0
 35 68  1  0  0  0
 36 56  1  0  0  0
 36107  1  0  0  0
 37 39  1  0  0  0
 37 47  1  0  0  0
 37 66  1  0  0  0
 37108  1  0  0  0
 38 43  2  0  0  0
 38 46  1  0  0  0
 38 47  1  0  0  0
 39 64  1  0  0  0
 39 67  2  0  0  0
 40 52  1  0  0  0
 40 53  2  0  0  0
 40 58  1  0  0  0
 41109  1  0  0  0
 41110  1  0  0  0
 41111  1  0  0  0
 41 48  1  0  0  0
 42 43  1  0  0  0
 42 66  1  0  0  0
 42112  1  0  0  0
 42113  1  0  0  0
 43 44  1  0  0  0
 44114  1  0  0  0
 45 46  2  0  0  0
 45115  1  0  0  0
 46116  1  0  0  0
 47117  1  0  0  0
 47118  1  0  0  0
 48 56  1  0  0  0
 48 65  1  0  0  0
 48119  1  0  0  0
 49 50  1  0  0  0
 49 53  1  0  0  0
 49 64  1  0  0  0
 49120  1  0  0  0
 50 51  1  0  0  0
 50121  1  0  0  0
 50122  1  0  0  0
 51 52  1  0  0  0
 51123  1  0  0  0
 51124  1  0  0  0
 52125  1  0  0  0
 52126  1  0  0  0
 53 54  1  0  0  0
 54 55  2  0  0  0
 54127  1  0  0  0
 55 57  1  0  0  0
 55128  1  0  0  0
 56 69  2  0  0  0
 57 58  2  0  0  0
 57129  1  0  0  0
 58130  1  0  0  0
 59 60  1  0  0  0
 59 61  1  0  0  0
 59 62  1  0  0  0
 60131  1  0  0  0
 60132  1  0  0  0
 60133  1  0  0  0
 61134  1  0  0  0
 61135  1  0  0  0
 61136  1  0  0  0
 62137  1  0  0  0
 62138  1  0  0  0
 62139  1  0  0  0
 63 65  1  0  0  0
 63140  1  0  0  0
 63141  1  0  0  0
 63142  1  0  0  0
 64143  1  0  0  0
 65144  1  0  0  0
 68 77  1  0  0  0
 71 72  2  0  0  0
 71 85  1  0  0  0
 71 76  1  0  0  0
 72 78  1  0  0  0
 72 80  1  0  0  0
 73 80  2  0  0  0
 73 81  1  0  0  0
 73 85  1  0  0  0
 74 75  1  0  0  0
 74 76  1  0  0  0
 74145  1  0  0  0
 74146  1  0  0  0
 75 77  1  0  0  0
 75147  1  0  0  0
 75148  1  0  0  0
 76 77  1  0  0  0
 76149  1  0  0  0
 77 79  1  0  0  0
 78150  1  0  0  0
 78151  1  0  0  0
 78152  1  0  0  0
 79 82  1  0  0  0
 79 83  1  0  0  0
 79 84  1  0  0  0
 81153  1  0  0  0
M  ISO  4   1 100  68 101  77 101  81 100
M  END
> <chiral flag>
0

> <version>
0

> <s_m_source_file>
/data/baiqing/PycharmProjects/Reinvent-master-3.2/result/LINK_invent/BTK/process_docking_weight1_custom_sum_contain_oxygen_bond_distance_aromatic_linkinvent_7_9_3/rearranged_h_0021.sdf

> <i_m_source_file_index>
36

> <r_mmod_Potential_Energy-OPLS-2005>
1276.99658203125

> <r_mmod_Stretch_Energy-OPLS-2005>
559.180358886719

> <r_mmod_Bend_Energy-OPLS-2005>
479.774932861328

> <r_mmod_Torsional_Energy-OPLS-2005>
226.585754394531

> <r_mmod_Improper_Torsional_Energy-OPLS-2005>
5.94272232055664

> <r_mmod_Van_der_Waal_Energy-OPLS-2005>
104.784721374512

> <r_mmod_Electrostatic_Energy-OPLS-2005>
-335.650543212891

> <r_mmod_Solvation_Energy-OPLS-2005>
-219.434097290039

> <b_mmod_Minimization_Converged-OPLS-2005>
0

> <r_mmod_RMS_Derivative-OPLS-2005>
0.905793845653534

$$$$
37
                    3D
 Structure written by MMmdl.
159167  0  0  1  0            999 V2000
  -30.4685  -15.1851   20.3413 C   0  0  0  0  0  0
  -30.4510  -12.7479   19.5065 C   0  0  0  0  0  0
  -29.5336  -12.5638   18.2723 C   0  0  0  0  0  0
  -28.0764  -12.3091   18.6981 C   0  0  0  0  0  0
  -27.6216  -13.2697   19.8257 C   0  0  2  0  0  0
  -28.6674  -13.4053   20.9549 C   0  0  0  0  0  0
  -25.2448  -13.8255   20.5766 C   0  0  0  0  0  0
  -24.1788  -13.0452   20.9281 C   0  0  0  0  0  0
  -24.6418  -11.6946   20.8755 C   0  0  0  0  0  0
  -23.9108  -10.4303   21.0373 C   0  0  0  0  0  0
  -24.3638   -9.4222   21.9160 C   0  0  0  0  0  0
  -23.6314   -8.2254   22.0750 C   0  0  0  0  0  0
  -22.4301   -8.0281   21.3538 C   0  0  0  0  0  0
  -21.9933   -9.0264   20.4643 C   0  0  0  0  0  0
  -22.7269  -10.2146   20.3041 C   0  0  0  0  0  0
  -21.6875   -6.0731   22.5258 C   0  0  0  0  0  0
  -21.4021   -6.5629   23.8190 C   0  0  0  0  0  0
  -21.3677   -5.6785   24.9156 C   0  0  0  0  0  0
  -21.6053   -4.3047   24.7204 C   0  0  0  0  0  0
  -21.8828   -3.8138   23.4323 C   0  0  0  0  0  0
  -21.9202   -4.6959   22.3382 C   0  0  0  0  0  0
  -22.7785  -13.5190   21.1910 C   0  0  0  0  0  0
  -22.1649   -4.2141   21.0961 F   0  0  0  0  0  0
  -21.5654   -3.4529   25.7716 F   0  0  0  0  0  0
  -29.9162  -13.8805   20.3324 N   0  0  0  0  0  0
  -26.2876  -12.9518   20.3224 N   0  0  0  0  0  0
  -25.9356  -11.6627   20.5715 N   0  0  0  0  0  0
  -22.0434  -12.8180   22.0464 N   0  0  0  0  0  0
  -25.4098  -15.1986   20.4176 N   0  0  0  0  0  0
  -31.6826  -15.2218   20.1052 O   0  0  0  0  0  0
  -21.6664   -6.8879   21.4229 O   0  0  0  0  0  0
  -22.3457  -14.5477   20.6742 O   0  0  0  0  0  0
  -24.6606  -31.8259   23.1716 C   0  0  0  0  0  0
  -25.9292  -32.4609   23.8190 C   0  0  1  0  0  0
  -27.2418  -26.9872   20.1598 C   0  0  0  0  0  0
  -25.5963  -33.8428   24.2087 N   0  0  0  0  0  0
  -23.4754  -30.4353   21.5197 C   0  0  2  0  0  0
  -24.9312  -28.8333   20.1060 C   0  0  0  0  0  0
  -22.7659  -29.4451   22.4804 C   0  0  0  0  0  0
  -18.0312  -28.1396   22.8466 C   0  0  0  0  0  0
  -24.1489  -36.7222   23.2645 C   0  0  0  0  0  0
  -26.0416  -30.6522   21.3923 C   0  0  0  0  0  0
  -26.1136  -29.2480   20.7316 C   0  0  0  0  0  0
  -27.2657  -28.3483   20.7272 C   0  0  0  0  0  0
  -26.0269  -26.7052   19.4972 C   0  0  0  0  0  0
  -24.9127  -27.5820   19.4641 C   0  0  0  0  0  0
  -23.7105  -29.7501   20.1458 C   0  0  0  0  0  0
  -25.4130  -36.2983   24.0306 C   0  0  1  0  0  0
  -20.5934  -28.3740   23.1200 C   0  0  2  0  0  0
  -20.6790  -26.9430   22.5405 C   0  0  0  0  0  0
  -19.5773  -26.6374   21.5209 C   0  0  0  0  0  0
  -18.1954  -26.7933   22.1611 C   0  0  0  0  0  0
  -19.1573  -28.8896   23.2818 C   0  0  0  0  0  0
  -18.9479  -30.1482   23.8855 C   0  0  0  0  0  0
  -17.6477  -30.6597   24.0546 C   0  0  0  0  0  0
  -25.9100  -34.9362   23.5022 C   0  0  0  0  0  0
  -16.5365  -29.9085   23.6335 C   0  0  0  0  0  0
  -16.7295  -28.6496   23.0369 C   0  0  0  0  0  0
  -26.4555  -31.6548   25.0715 C   0  0  0  0  0  0
  -25.3692  -31.3769   26.1378 C   0  0  0  0  0  0
  -27.0439  -30.2908   24.6441 C   0  0  0  0  0  0
  -27.6051  -32.4361   25.7515 C   0  0  0  0  0  0
  -27.5580  -37.1760   24.8459 C   0  0  0  0  0  0
  -21.4328  -29.3026   22.3550 N   0  0  0  0  0  0
  -26.4273  -37.3725   23.9420 N   0  0  0  0  0  0
  -24.7468  -30.9966   22.0818 N   0  0  0  0  0  0
  -23.4217  -28.8023   23.3047 O   0  0  0  0  0  0
  -28.2784  -25.9313   20.2369 O   0  0  0  0  0  0
  -26.5717  -34.8893   22.4618 O   0  0  0  0  0  0
  -23.5680  -32.1195   23.6826 O   0  0  0  0  0  0
  -30.1972  -20.4238   19.5433 C   0  0  0  0  0  0
  -28.3556  -20.2579   20.9699 C   0  0  0  0  0  0
  -29.1744  -21.2180   20.2477 C   0  0  0  0  0  0
  -30.3930  -18.9363   19.5976 C   0  0  0  0  0  0
  -28.5398  -18.7792   21.0108 C   0  0  0  0  0  0
  -29.5853  -17.9897   20.3587 C   0  0  0  0  0  0
  -31.1764  -21.2267   18.6892 C   0  0  0  0  0  0
  -27.2023  -20.8538   21.7726 C   0  0  0  0  0  0
  -31.5380  -18.3048   18.8072 C   0  0  0  0  0  0
  -27.5379  -17.9936   21.8541 C   0  0  0  0  0  0
  -29.1512  -22.9571   20.4414 C   0  0  0  0  0  0
  -28.1147  -24.3263   19.9891 C   0  0  0  0  0  0
  -29.6307  -16.3833   20.4525 N   0  0  0  0  0  0
  -31.4689  -12.9487   19.1684 H   0  0  0  0  0  0
  -30.5117  -11.8334   20.0973 H   0  0  0  0  0  0
  -29.8958  -11.7389   17.6572 H   0  0  0  0  0  0
  -29.5793  -13.4585   17.6488 H   0  0  0  0  0  0
  -28.0103  -11.2775   19.0434 H   0  0  0  0  0  0
  -27.4081  -12.3902   17.8390 H   0  0  0  0  0  0
  -27.5489  -14.2485   19.3490 H   0  0  0  0  0  0
  -28.8101  -12.4617   21.4834 H   0  0  0  0  0  0
  -28.3288  -14.1303   21.6972 H   0  0  0  0  0  0
  -25.2776   -9.5720   22.4734 H   0  0  0  0  0  0
  -24.0027   -7.4654   22.7473 H   0  0  0  0  0  0
  -21.0861   -8.8791   19.8943 H   0  0  0  0  0  0
  -22.3708  -10.9686   19.6150 H   0  0  0  0  0  0
  -21.1994   -7.6134   23.9694 H   0  0  0  0  0  0
  -21.1498   -6.0503   25.9063 H   0  0  0  0  0  0
  -22.0595   -2.7602   23.2816 H   0  0  0  0  0  0
  -22.4059  -11.9855   22.4876 H   0  0  0  0  0  0
  -21.1027  -13.1183   22.2605 H   0  0  0  0  0  0
  -24.6495  -15.8552   20.5511 H   0  0  0  0  0  0
  -26.2378  -15.6308   20.0314 H   0  0  0  0  0  0
  -26.7382  -32.5149   23.0928 H   0  0  0  0  0  0
  -25.0036  -33.9523   25.0189 H   0  0  0  0  0  0
  -22.7851  -31.2641   21.3499 H   0  0  0  0  0  0
  -23.3776  -35.9530   23.3256 H   0  0  0  0  0  0
  -24.3571  -36.8921   22.2070 H   0  0  0  0  0  0
  -23.7220  -37.6384   23.6735 H   0  0  0  0  0  0
  -26.2188  -31.4018   20.6203 H   0  0  0  0  0  0
  -26.9025  -30.7001   22.0476 H   0  0  0  0  0  0
  -28.1693  -28.6713   21.2213 H   0  0  0  0  0  0
  -25.9130  -25.7448   19.0145 H   0  0  0  0  0  0
  -24.0222  -27.2610   18.9410 H   0  0  0  0  0  0
  -23.8460  -30.5178   19.3825 H   0  0  0  0  0  0
  -22.8260  -29.1908   19.8393 H   0  0  0  0  0  0
  -25.1326  -36.1768   25.0800 H   0  0  0  0  0  0
  -21.0010  -28.3327   24.1326 H   0  0  0  0  0  0
  -20.5652  -26.2364   23.3636 H   0  0  0  0  0  0
  -21.6658  -26.7421   22.1211 H   0  0  0  0  0  0
  -19.6940  -25.6272   21.1277 H   0  0  0  0  0  0
  -19.6710  -27.3148   20.6711 H   0  0  0  0  0  0
  -17.4222  -26.6668   21.4012 H   0  0  0  0  0  0
  -18.0354  -26.0085   22.9016 H   0  0  0  0  0  0
  -19.7955  -30.7306   24.2206 H   0  0  0  0  0  0
  -17.5029  -31.6271   24.5153 H   0  0  0  0  0  0
  -15.5360  -30.2972   23.7706 H   0  0  0  0  0  0
  -15.8682  -28.0800   22.7127 H   0  0  0  0  0  0
  -24.5887  -30.7116   25.7673 H   0  0  0  0  0  0
  -24.8871  -32.2955   26.4730 H   0  0  0  0  0  0
  -25.7941  -30.8970   27.0203 H   0  0  0  0  0  0
  -26.3088  -29.6596   24.1441 H   0  0  0  0  0  0
  -27.3939  -29.7274   25.5102 H   0  0  0  0  0  0
  -27.9051  -30.4078   23.9863 H   0  0  0  0  0  0
  -27.2613  -33.3685   26.2009 H   0  0  0  0  0  0
  -28.3907  -32.6898   25.0385 H   0  0  0  0  0  0
  -28.0685  -31.8552   26.5497 H   0  0  0  0  0  0
  -28.2557  -38.0093   24.7555 H   0  0  0  0  0  0
  -28.1108  -36.2628   24.6214 H   0  0  0  0  0  0
  -27.2309  -37.1321   25.8859 H   0  0  0  0  0  0
  -20.9576  -29.8707   21.6675 H   0  0  0  0  0  0
  -26.0114  -38.2781   24.1434 H   0  0  0  0  0  0
  -30.8351  -22.2371   18.4884 H   0  0  0  0  0  0
  -31.3034  -20.8076   17.6932 H   0  0  0  0  0  0
  -32.1478  -21.2766   19.1830 H   0  0  0  0  0  0
  -27.1753  -21.9401   21.7288 H   0  0  0  0  0  0
  -27.2652  -20.5849   22.8276 H   0  0  0  0  0  0
  -26.2437  -20.5089   21.3829 H   0  0  0  0  0  0
  -31.7667  -18.7974   17.8663 H   0  0  0  0  0  0
  -31.3040  -17.2794   18.5263 H   0  0  0  0  0  0
  -32.4459  -18.2857   19.4103 H   0  0  0  0  0  0
  -27.6369  -18.2682   22.9036 H   0  0  0  0  0  0
  -27.6522  -16.9137   21.8052 H   0  0  0  0  0  0
  -26.5188  -18.2077   21.5351 H   0  0  0  0  0  0
  -30.1446  -23.2862   20.1520 H   0  0  0  0  0  0
  -29.2193  -23.0509   21.5245 H   0  0  0  0  0  0
  -27.1338  -24.0860   20.3949 H   0  0  0  0  0  0
  -27.9845  -24.2460   18.9095 H   0  0  0  0  0  0
  -28.7178  -16.0422   20.7051 H   0  0  0  0  0  0
  1 25  1  0  0  0
  1 30  2  0  0  0
  1 83  1  0  0  0
  2  3  1  0  0  0
  2 25  1  0  0  0
  2 84  1  0  0  0
  2 85  1  0  0  0
  3  4  1  0  0  0
  3 86  1  0  0  0
  3 87  1  0  0  0
  4  5  1  0  0  0
  4 88  1  0  0  0
  4 89  1  0  0  0
  5  6  1  0  0  0
  5 26  1  0  0  0
  5 90  1  0  0  0
  6 25  1  0  0  0
  6 91  1  0  0  0
  6 92  1  0  0  0
  7  8  2  0  0  0
  7 26  1  0  0  0
  7 29  1  0  0  0
  8  9  1  0  0  0
  8 22  1  0  0  0
  9 10  1  0  0  0
  9 27  2  0  0  0
 10 11  2  0  0  0
 10 15  1  0  0  0
 11 12  1  0  0  0
 11 93  1  0  0  0
 12 13  2  0  0  0
 12 94  1  0  0  0
 13 14  1  0  0  0
 13 31  1  0  0  0
 14 15  2  0  0  0
 14 95  1  0  0  0
 15 96  1  0  0  0
 16 17  2  0  0  0
 16 21  1  0  0  0
 16 31  1  0  0  0
 17 18  1  0  0  0
 17 97  1  0  0  0
 18 19  2  0  0  0
 18 98  1  0  0  0
 19 20  1  0  0  0
 19 24  1  0  0  0
 20 21  2  0  0  0
 20 99  1  0  0  0
 21 23  1  0  0  0
 22 28  1  0  0  0
 22 32  2  0  0  0
 26 27  1  0  0  0
 28100  1  0  0  0
 28101  1  0  0  0
 29102  1  0  0  0
 29103  1  0  0  0
 33 34  1  0  0  0
 33 66  1  0  0  0
 33 70  2  0  0  0
 34 36  1  0  0  0
 34 59  1  0  0  0
 34104  1  0  0  0
 35 44  2  0  0  0
 35 45  1  0  0  0
 35 68  1  0  0  0
 36 56  1  0  0  0
 36105  1  0  0  0
 37 39  1  0  0  0
 37 47  1  0  0  0
 37 66  1  0  0  0
 37106  1  0  0  0
 38 43  2  0  0  0
 38 46  1  0  0  0
 38 47  1  0  0  0
 39 64  1  0  0  0
 39 67  2  0  0  0
 40 52  1  0  0  0
 40 53  2  0  0  0
 40 58  1  0  0  0
 41107  1  0  0  0
 41108  1  0  0  0
 41109  1  0  0  0
 41 48  1  0  0  0
 42 43  1  0  0  0
 42 66  1  0  0  0
 42110  1  0  0  0
 42111  1  0  0  0
 43 44  1  0  0  0
 44112  1  0  0  0
 45 46  2  0  0  0
 45113  1  0  0  0
 46114  1  0  0  0
 47115  1  0  0  0
 47116  1  0  0  0
 48 56  1  0  0  0
 48 65  1  0  0  0
 48117  1  0  0  0
 49 50  1  0  0  0
 49 53  1  0  0  0
 49 64  1  0  0  0
 49118  1  0  0  0
 50 51  1  0  0  0
 50119  1  0  0  0
 50120  1  0  0  0
 51 52  1  0  0  0
 51121  1  0  0  0
 51122  1  0  0  0
 52123  1  0  0  0
 52124  1  0  0  0
 53 54  1  0  0  0
 54 55  2  0  0  0
 54125  1  0  0  0
 55 57  1  0  0  0
 55126  1  0  0  0
 56 69  2  0  0  0
 57 58  2  0  0  0
 57127  1  0  0  0
 58128  1  0  0  0
 59 60  1  0  0  0
 59 61  1  0  0  0
 59 62  1  0  0  0
 60129  1  0  0  0
 60130  1  0  0  0
 60131  1  0  0  0
 61132  1  0  0  0
 61133  1  0  0  0
 61134  1  0  0  0
 62135  1  0  0  0
 62136  1  0  0  0
 62137  1  0  0  0
 63 65  1  0  0  0
 63138  1  0  0  0
 63139  1  0  0  0
 63140  1  0  0  0
 64141  1  0  0  0
 65142  1  0  0  0
 68 82  1  0  0  0
 71 73  2  0  0  0
 71 74  1  0  0  0
 71 77  1  0  0  0
 72 73  1  0  0  0
 72 75  2  0  0  0
 72 78  1  0  0  0
 73 81  1  0  0  0
 74 76  2  0  0  0
 74 79  1  0  0  0
 75 76  1  0  0  0
 75 80  1  0  0  0
 76 83  1  0  0  0
 77143  1  0  0  0
 77144  1  0  0  0
 77145  1  0  0  0
 78146  1  0  0  0
 78147  1  0  0  0
 78148  1  0  0  0
 79149  1  0  0  0
 79150  1  0  0  0
 79151  1  0  0  0
 80152  1  0  0  0
 80153  1  0  0  0
 80154  1  0  0  0
 81 82  1  0  0  0
 81155  1  0  0  0
 81156  1  0  0  0
 82157  1  0  0  0
 82158  1  0  0  0
 83159  1  0  0  0
M  ISO  4   1 100  68 101  82 101  83 100
M  END
> <chiral flag>
0

> <version>
0

> <s_m_source_file>
/data/baiqing/PycharmProjects/Reinvent-master-3.2/result/LINK_invent/BTK/process_docking_weight1_custom_sum_contain_oxygen_bond_distance_aromatic_linkinvent_7_9_3/rearranged_h_0021.sdf

> <i_m_source_file_index>
37

> <r_mmod_Potential_Energy-OPLS-2005>
1003.29949951172

> <r_mmod_Stretch_Energy-OPLS-2005>
476.992401123047

> <r_mmod_Bend_Energy-OPLS-2005>
408.97509765625

> <r_mmod_Torsional_Energy-OPLS-2005>
221.726745605469

> <r_mmod_Improper_Torsional_Energy-OPLS-2005>
5.61864042282104

> <r_mmod_Van_der_Waal_Energy-OPLS-2005>
143.560684204102

> <r_mmod_Electrostatic_Energy-OPLS-2005>
-421.317932128906

> <r_mmod_Solvation_Energy-OPLS-2005>
-206.803894042969

> <b_mmod_Minimization_Converged-OPLS-2005>
0

> <r_mmod_RMS_Derivative-OPLS-2005>
3.06085157394409

$$$$
38
                    3D
 Structure written by MMmdl.
180188  0  0  1  0            999 V2000
  -29.5301  -15.5211   20.6913 C   0  0  0  0  0  0
  -30.3166  -13.1199   19.6819 C   0  0  0  0  0  0
  -29.5342  -12.7022   18.3939 C   0  0  0  0  0  0
  -28.0883  -12.2849   18.7314 C   0  0  0  0  0  0
  -27.5143  -13.2134   19.8227 C   0  0  2  0  0  0
  -28.4149  -13.2916   21.0483 C   0  0  0  0  0  0
  -25.1893  -13.8025   20.5526 C   0  0  0  0  0  0
  -24.1354  -13.0294   20.9323 C   0  0  0  0  0  0
  -24.5957  -11.6765   20.8814 C   0  0  0  0  0  0
  -23.8779  -10.4175   21.0511 C   0  0  0  0  0  0
  -24.3456   -9.4109   21.9237 C   0  0  0  0  0  0
  -23.6188   -8.2122   22.0753 C   0  0  0  0  0  0
  -22.4173   -8.0176   21.3550 C   0  0  0  0  0  0
  -21.9767   -9.0117   20.4650 C   0  0  0  0  0  0
  -22.7021  -10.2017   20.3090 C   0  0  0  0  0  0
  -21.6809   -6.0662   22.5287 C   0  0  0  0  0  0
  -21.3980   -6.5589   23.8215 C   0  0  0  0  0  0
  -21.3652   -5.6757   24.9190 C   0  0  0  0  0  0
  -21.6042   -4.3018   24.7256 C   0  0  0  0  0  0
  -21.8819   -3.8096   23.4386 C   0  0  0  0  0  0
  -21.9171   -4.6898   22.3428 C   0  0  0  0  0  0
  -22.7473  -13.5160   21.2081 C   0  0  0  0  0  0
  -22.1651   -4.2091   21.1008 F   0  0  0  0  0  0
  -21.5643   -3.4506   25.7774 F   0  0  0  0  0  0
  -29.4860  -14.0874   20.5439 N   0  0  0  0  0  0
  -26.1967  -12.9061   20.2650 N   0  0  0  0  0  0
  -25.8733  -11.6272   20.5450 N   0  0  0  0  0  0
  -22.0123  -12.8177   22.0634 N   0  0  0  0  0  0
  -25.3646  -15.1773   20.3974 N   0  0  0  0  0  0
  -30.7336  -15.8140   20.4268 O   0  0  0  0  0  0
  -21.6571   -6.8773   21.4237 O   0  0  0  0  0  0
  -22.3244  -14.5509   20.6923 O   0  0  0  0  0  0
  -24.7085  -31.9913   23.1313 C   0  0  0  0  0  0
  -25.9763  -32.5380   23.8399 C   0  0  1  0  0  0
  -27.1218  -27.4433   20.3032 C   0  0  0  0  0  0
  -25.6558  -33.8989   24.2605 N   0  0  0  0  0  0
  -23.5825  -30.6497   21.4196 C   0  0  2  0  0  0
  -24.9512  -29.1271   19.9481 C   0  0  0  0  0  0
  -23.3024  -29.4633   22.2867 C   0  0  0  0  0  0
  -17.9048  -27.4657   23.3081 C   0  0  0  0  0  0
  -24.1510  -36.7420   23.2603 C   0  0  0  0  0  0
  -26.0616  -30.9567   21.2881 C   0  0  0  0  0  0
  -26.0908  -29.5907   20.6205 C   0  0  0  0  0  0
  -27.2116  -28.7684   20.7468 C   0  0  0  0  0  0
  -26.0339  -26.9925   19.5339 C   0  0  0  0  0  0
  -24.9166  -27.8364   19.3749 C   0  0  0  0  0  0
  -23.7798  -30.0827   19.9732 C   0  0  0  0  0  0
  -25.4110  -36.3295   24.0368 C   0  0  1  0  0  0
  -21.7852  -27.6751   22.5957 C   0  0  2  0  0  0
  -21.3243  -26.6206   21.0758 C   0  0  0  0  0  0
  -19.5312  -26.0115   20.8277 C   0  0  0  0  0  0
  -18.0435  -26.3422   21.9448 C   0  0  0  0  0  0
  -19.1710  -28.0381   24.1068 C   0  0  0  0  0  0
  -18.6927  -29.2919   24.7808 C   0  0  0  0  0  0
  -17.6180  -30.1364   24.4018 C   0  0  0  0  0  0
  -25.9157  -34.9765   23.5163 C   0  0  0  0  0  0
  -16.6140  -29.6182   23.5992 C   0  0  0  0  0  0
  -16.7401  -28.2940   23.1420 C   0  0  0  0  0  0
  -26.4655  -31.6805   25.0648 C   0  0  0  0  0  0
  -25.3725  -31.3871   26.1152 C   0  0  0  0  0  0
  -27.0480  -30.3452   24.5575 C   0  0  0  0  0  0
  -27.6123  -32.4182   25.7937 C   0  0  0  0  0  0
  -27.5618  -37.1921   24.8447 C   0  0  0  0  0  0
  -22.4119  -28.6894   21.8019 N   0  0  0  0  0  0
  -26.4264  -37.3980   23.9497 N   0  0  0  0  0  0
  -24.8002  -31.2552   21.9873 N   0  0  0  0  0  0
  -23.8599  -29.1906   23.3312 O   0  0  0  0  0  0
  -27.8253  -26.5127   20.9854 O   0  0  0  0  0  0
  -26.5391  -34.9188   22.4524 O   0  0  0  0  0  0
  -23.6144  -32.2787   23.6268 O   0  0  0  0  0  0
  -20.3217  -29.5600   22.7566 C   0  0  0  0  0  0
  -21.5647  -27.9339   24.9625 C   0  0  0  0  0  0
  -20.2242  -26.2219   23.1458 C   0  0  0  0  0  0
  -19.7539  -28.1473   21.9785 C   0  0  0  0  0  0
  -21.2040  -29.3749   24.1973 C   0  0  0  0  0  0
  -20.9706  -26.4947   24.5490 C   0  0  0  0  0  0
  -20.0613  -30.9269   22.1440 C   0  0  0  0  0  0
  -24.2325  -25.7161   26.3037 C   0  0  0  0  0  0
  -23.2473  -28.5121   26.7150 C   0  0  0  0  0  0
  -24.9690  -20.9311   21.9626 C   0  0  0  0  0  0
  -25.8062  -19.1178   21.6217 C   0  0  0  0  0  0
  -23.2448  -21.9578   22.2315 C   0  0  0  0  0  0
  -25.7732  -26.6309   22.8853 C   0  0  0  0  0  0
  -25.3647  -26.9724   24.4242 C   0  0  0  0  0  0
  -27.5423  -18.1371   21.2924 C   0  0  0  0  0  0
  -22.4112  -23.7527   22.6617 C   0  0  0  0  0  0
  -27.3303  -26.4465   22.4202 C   0  0  0  0  0  0
  -23.9124  -26.6348   25.0957 C   0  0  2  0  0  0
  -28.2683  -16.4697   21.0058 N   0  0  0  0  0  0
  -22.9066  -27.7341   25.5330 N   0  0  0  0  0  0
  -20.8606  -24.7227   22.7122 O   0  0  0  0  0  0
  -19.1978  -28.3974   20.7514 F   0  0  0  0  0  0
  -21.6180  -30.8302   25.0359 Cl  0  0  0  0  0  0
  -21.1626  -25.1174   25.5794 Cl  0  0  0  0  0  0
  -31.2632  -13.5840   19.4011 H   0  0  0  0  0  0
  -30.5943  -12.2404   20.2645 H   0  0  0  0  0  0
  -30.0587  -11.9025   17.8703 H   0  0  0  0  0  0
  -29.5075  -13.5530   17.7110 H   0  0  0  0  0  0
  -28.1063  -11.2603   19.1034 H   0  0  0  0  0  0
  -27.4602  -12.2859   17.8393 H   0  0  0  0  0  0
  -27.4360  -14.1883   19.3372 H   0  0  0  0  0  0
  -28.7232  -12.3106   21.4152 H   0  0  0  0  0  0
  -27.9287  -13.7948   21.8857 H   0  0  0  0  0  0
  -25.2594   -9.5615   22.4811 H   0  0  0  0  0  0
  -23.9927   -7.4481   22.7420 H   0  0  0  0  0  0
  -21.0721   -8.8576   19.8934 H   0  0  0  0  0  0
  -22.3464  -10.9566   19.6209 H   0  0  0  0  0  0
  -21.1953   -7.6091   23.9712 H   0  0  0  0  0  0
  -21.1500   -6.0492   25.9100 H   0  0  0  0  0  0
  -22.0618   -2.7558   23.2898 H   0  0  0  0  0  0
  -22.3700  -11.9809   22.5017 H   0  0  0  0  0  0
  -21.0750  -13.1252   22.2858 H   0  0  0  0  0  0
  -24.5128  -15.7294   20.4242 H   0  0  0  0  0  0
  -25.9964  -15.5210   19.6857 H   0  0  0  0  0  0
  -26.8130  -32.6167   23.1512 H   0  0  0  0  0  0
  -25.1111  -34.0008   25.1033 H   0  0  0  0  0  0
  -22.7492  -31.3529   21.4304 H   0  0  0  0  0  0
  -23.3819  -35.9699   23.3160 H   0  0  0  0  0  0
  -24.3686  -36.9083   22.2047 H   0  0  0  0  0  0
  -23.7160  -37.6575   23.6612 H   0  0  0  0  0  0
  -26.2282  -31.7203   20.5262 H   0  0  0  0  0  0
  -26.9302  -30.9863   21.9355 H   0  0  0  0  0  0
  -28.0533  -29.0807   21.3528 H   0  0  0  0  0  0
  -25.9770  -25.9603   19.2221 H   0  0  0  0  0  0
  -24.0390  -27.4774   18.8594 H   0  0  0  0  0  0
  -24.0102  -30.9067   19.2961 H   0  0  0  0  0  0
  -22.8855  -29.6285   19.5456 H   0  0  0  0  0  0
  -25.1248  -36.2149   25.0843 H   0  0  0  0  0  0
  -22.6270  -27.0931   22.9649 H   0  0  0  0  0  0
  -22.0289  -25.8125   20.9205 H   0  0  0  0  0  0
  -21.5287  -27.1969   20.1727 H   0  0  0  0  0  0
  -19.5683  -24.9291   20.6891 H   0  0  0  0  0  0
  -19.2369  -26.3073   19.8198 H   0  0  0  0  0  0
  -17.2202  -26.5598   21.2643 H   0  0  0  0  0  0
  -17.7611  -25.3757   22.3636 H   0  0  0  0  0  0
  -19.3017  -29.7419   25.5502 H   0  0  0  0  0  0
  -17.5024  -31.1136   24.8505 H   0  0  0  0  0  0
  -15.7355  -30.2034   23.3644 H   0  0  0  0  0  0
  -15.9473  -27.9323   22.5004 H   0  0  0  0  0  0
  -24.5250  -30.8532   25.6890 H   0  0  0  0  0  0
  -24.9898  -32.3078   26.5571 H   0  0  0  0  0  0
  -25.7619  -30.7744   26.9296 H   0  0  0  0  0  0
  -26.3424  -29.8134   23.9253 H   0  0  0  0  0  0
  -27.3230  -29.6817   25.3769 H   0  0  0  0  0  0
  -27.9412  -30.5100   23.9545 H   0  0  0  0  0  0
  -27.2615  -33.3107   26.3131 H   0  0  0  0  0  0
  -28.4029  -32.7286   25.1098 H   0  0  0  0  0  0
  -28.0710  -31.7810   26.5512 H   0  0  0  0  0  0
  -28.2496  -38.0341   24.7635 H   0  0  0  0  0  0
  -28.1243  -36.2889   24.6056 H   0  0  0  0  0  0
  -27.2394  -37.1310   25.8845 H   0  0  0  0  0  0
  -22.0090  -28.9188   20.9041 H   0  0  0  0  0  0
  -26.0153  -38.3025   24.1606 H   0  0  0  0  0  0
  -20.2995  -30.9220   21.0810 H   0  0  0  0  0  0
  -20.6649  -31.6993   22.6213 H   0  0  0  0  0  0
  -19.0139  -31.2018   22.2505 H   0  0  0  0  0  0
  -24.6797  -24.7790   25.9650 H   0  0  0  0  0  0
  -23.3681  -25.4454   26.9054 H   0  0  0  0  0  0
  -24.9446  -26.1807   26.9881 H   0  0  0  0  0  0
  -23.1600  -27.8927   27.6079 H   0  0  0  0  0  0
  -22.6078  -29.3769   26.8707 H   0  0  0  0  0  0
  -24.2801  -28.8501   26.6509 H   0  0  0  0  0  0
  -25.4094  -21.5019   21.1445 H   0  0  0  0  0  0
  -25.5406  -21.2568   22.8339 H   0  0  0  0  0  0
  -25.2070  -18.7639   20.7839 H   0  0  0  0  0  0
  -25.4163  -18.5470   22.4651 H   0  0  0  0  0  0
  -22.7738  -21.3491   23.0035 H   0  0  0  0  0  0
  -22.6922  -21.6817   21.3339 H   0  0  0  0  0  0
  -25.3400  -27.4279   22.2912 H   0  0  0  0  0  0
  -25.2406  -25.7325   22.5809 H   0  0  0  0  0  0
  -25.6063  -28.0001   24.6617 H   0  0  0  0  0  0
  -26.1204  -26.4368   25.0004 H   0  0  0  0  0  0
  -28.1366  -18.4475   22.1516 H   0  0  0  0  0  0
  -27.9826  -18.7066   20.4732 H   0  0  0  0  0  0
  -23.0704  -24.4200   22.1107 H   0  0  0  0  0  0
  -22.7555  -23.8915   23.6841 H   0  0  0  0  0  0
  -27.6419  -25.4697   22.7965 H   0  0  0  0  0  0
  -27.9325  -27.1482   22.9965 H   0  0  0  0  0  0
  -23.4297  -25.9619   24.3948 H   0  0  0  0  0  0
  -27.4912  -15.8250   21.0875 H   0  0  0  0  0  0
  1 25  1  0  0  0
  1 30  2  0  0  0
  1 89  1  0  0  0
  2  3  1  0  0  0
  2 25  1  0  0  0
  2 95  1  0  0  0
  2 96  1  0  0  0
  3  4  1  0  0  0
  3 97  1  0  0  0
  3 98  1  0  0  0
  4  5  1  0  0  0
  4 99  1  0  0  0
  4100  1  0  0  0
  5  6  1  0  0  0
  5 26  1  0  0  0
  5101  1  0  0  0
  6 25  1  0  0  0
  6102  1  0  0  0
  6103  1  0  0  0
  7  8  2  0  0  0
  7 26  1  0  0  0
  7 29  1  0  0  0
  8  9  1  0  0  0
  8 22  1  0  0  0
  9 10  1  0  0  0
  9 27  2  0  0  0
 10 11  2  0  0  0
 10 15  1  0  0  0
 11 12  1  0  0  0
 11104  1  0  0  0
 12 13  2  0  0  0
 12105  1  0  0  0
 13 14  1  0  0  0
 13 31  1  0  0  0
 14 15  2  0  0  0
 14106  1  0  0  0
 15107  1  0  0  0
 16 17  2  0  0  0
 16 21  1  0  0  0
 16 31  1  0  0  0
 17 18  1  0  0  0
 17108  1  0  0  0
 18 19  2  0  0  0
 18109  1  0  0  0
 19 20  1  0  0  0
 19 24  1  0  0  0
 20 21  2  0  0  0
 20110  1  0  0  0
 21 23  1  0  0  0
 22 28  1  0  0  0
 22 32  2  0  0  0
 26 27  1  0  0  0
 28111  1  0  0  0
 28112  1  0  0  0
 29113  1  0  0  0
 29114  1  0  0  0
 33 34  1  0  0  0
 33 66  1  0  0  0
 33 70  2  0  0  0
 34 36  1  0  0  0
 34 59  1  0  0  0
 34115  1  0  0  0
 35 44  2  0  0  0
 35 45  1  0  0  0
 35 68  1  0  0  0
 36 56  1  0  0  0
 36116  1  0  0  0
 37 39  1  0  0  0
 37 47  1  0  0  0
 37 66  1  0  0  0
 37117  1  0  0  0
 38 43  2  0  0  0
 38 46  1  0  0  0
 38 47  1  0  0  0
 39 64  1  0  0  0
 39 67  2  0  0  0
 40 52  1  0  0  0
 40 53  2  0  0  0
 40 58  1  0  0  0
 41118  1  0  0  0
 41119  1  0  0  0
 41120  1  0  0  0
 41 48  1  0  0  0
 42 43  1  0  0  0
 42 66  1  0  0  0
 42121  1  0  0  0
 42122  1  0  0  0
 43 44  1  0  0  0
 44123  1  0  0  0
 45 46  2  0  0  0
 45124  1  0  0  0
 46125  1  0  0  0
 47126  1  0  0  0
 47127  1  0  0  0
 48 56  1  0  0  0
 48 65  1  0  0  0
 48128  1  0  0  0
 49 50  1  0  0  0
 49 53  1  0  0  0
 49 64  1  0  0  0
 49129  1  0  0  0
 50 51  1  0  0  0
 50130  1  0  0  0
 50131  1  0  0  0
 51 52  1  0  0  0
 51132  1  0  0  0
 51133  1  0  0  0
 52134  1  0  0  0
 52135  1  0  0  0
 53 54  1  0  0  0
 54 55  2  0  0  0
 54136  1  0  0  0
 55 57  1  0  0  0
 55137  1  0  0  0
 56 69  2  0  0  0
 57 58  2  0  0  0
 57138  1  0  0  0
 58139  1  0  0  0
 59 60  1  0  0  0
 59 61  1  0  0  0
 59 62  1  0  0  0
 60140  1  0  0  0
 60141  1  0  0  0
 60142  1  0  0  0
 61143  1  0  0  0
 61144  1  0  0  0
 61145  1  0  0  0
 62146  1  0  0  0
 62147  1  0  0  0
 62148  1  0  0  0
 63 65  1  0  0  0
 63149  1  0  0  0
 63150  1  0  0  0
 63151  1  0  0  0
 64152  1  0  0  0
 65153  1  0  0  0
 68 87  1  0  0  0
 71 74  2  0  0  0
 71 75  1  0  0  0
 71 77  1  0  0  0
 72 75  2  0  0  0
 72 76  1  0  0  0
 72 90  1  0  0  0
 73 74  1  0  0  0
 73 76  2  0  0  0
 73 91  1  0  0  0
 74 92  1  0  0  0
 75 93  1  0  0  0
 76 94  1  0  0  0
 77154  1  0  0  0
 77155  1  0  0  0
 77156  1  0  0  0
 78157  1  0  0  0
 78158  1  0  0  0
 78159  1  0  0  0
 78 88  1  0  0  0
 79 90  1  0  0  0
 79160  1  0  0  0
 79161  1  0  0  0
 79162  1  0  0  0
 80 81  1  0  0  0
 80 82  1  0  0  0
 80163  1  0  0  0
 80164  1  0  0  0
 81 85  1  0  0  0
 81165  1  0  0  0
 81166  1  0  0  0
 82 86  1  0  0  0
 82167  1  0  0  0
 82168  1  0  0  0
 83 84  1  0  0  0
 83 87  1  0  0  0
 83169  1  0  0  0
 83170  1  0  0  0
 84 88  1  0  0  0
 84171  1  0  0  0
 84172  1  0  0  0
 85 89  1  0  0  0
 85173  1  0  0  0
 85174  1  0  0  0
 86 91  1  0  0  0
 86175  1  0  0  0
 86176  1  0  0  0
 87177  1  0  0  0
 87178  1  0  0  0
 88 90  1  0  0  0
 88179  1  0  0  0
 89180  1  0  0  0
M  ISO  4   1 100  68 101  87 101  89 100
M  END
> <chiral flag>
0

> <version>
0

> <s_m_source_file>
/data/baiqing/PycharmProjects/Reinvent-master-3.2/result/LINK_invent/BTK/process_docking_weight1_custom_sum_contain_oxygen_bond_distance_aromatic_linkinvent_7_9_3/rearranged_h_0021.sdf

> <i_m_source_file_index>
38

> <r_mmod_Potential_Energy-OPLS-2005>
14870.0615234375

> <r_mmod_Stretch_Energy-OPLS-2005>
8099.52880859375

> <r_mmod_Bend_Energy-OPLS-2005>
1217.93774414062

> <r_mmod_Torsional_Energy-OPLS-2005>
577.043884277344

> <r_mmod_Improper_Torsional_Energy-OPLS-2005>
61.0138359069824

> <r_mmod_Van_der_Waal_Energy-OPLS-2005>
3188.11743164062

> <r_mmod_Electrostatic_Energy-OPLS-2005>
-328.872375488281

> <r_mmod_Solvation_Energy-OPLS-2005>
-187.444351196289

> <b_mmod_Minimization_Converged-OPLS-2005>
0

> <r_mmod_RMS_Derivative-OPLS-2005>
7.85157918930054

$$$$
39
                    3D
 Structure written by MMmdl.
184193  0  0  1  0            999 V2000
  -30.7851  -14.3432   20.7048 C   0  0  0  0  0  0
  -30.4104  -12.2928   19.3856 C   0  0  0  0  0  0
  -29.4775  -12.5314   18.1863 C   0  0  0  0  0  0
  -28.0026  -12.3865   18.6055 C   0  0  0  0  0  0
  -27.6625  -13.2062   19.8773 C   0  0  2  0  0  0
  -28.6995  -12.9479   20.9899 C   0  0  0  0  0  0
  -25.2589  -13.8162   20.5673 C   0  0  0  0  0  0
  -24.1832  -13.0435   20.9159 C   0  0  0  0  0  0
  -24.6382  -11.6904   20.8720 C   0  0  0  0  0  0
  -23.9058  -10.4287   21.0396 C   0  0  0  0  0  0
  -24.3609   -9.4215   21.9183 C   0  0  0  0  0  0
  -23.6281   -8.2252   22.0759 C   0  0  0  0  0  0
  -22.4272   -8.0281   21.3545 C   0  0  0  0  0  0
  -21.9906   -9.0252   20.4639 C   0  0  0  0  0  0
  -22.7235  -10.2132   20.3044 C   0  0  0  0  0  0
  -21.6847   -6.0734   22.5283 C   0  0  0  0  0  0
  -21.4002   -6.5639   23.8213 C   0  0  0  0  0  0
  -21.3659   -5.6794   24.9177 C   0  0  0  0  0  0
  -21.6054   -4.3059   24.7221 C   0  0  0  0  0  0
  -21.8823   -3.8141   23.4350 C   0  0  0  0  0  0
  -21.9189   -4.6955   22.3403 C   0  0  0  0  0  0
  -22.7860  -13.5243   21.1835 C   0  0  0  0  0  0
  -22.1662   -4.2143   21.0979 F   0  0  0  0  0  0
  -21.5635   -3.4543   25.7734 F   0  0  0  0  0  0
  -30.0441  -13.2349   20.4524 N   0  0  0  0  0  0
  -26.3020  -12.9331   20.3369 N   0  0  0  0  0  0
  -25.9306  -11.6490   20.5747 N   0  0  0  0  0  0
  -22.0503  -12.8218   22.0384 N   0  0  0  0  0  0
  -25.4327  -15.1877   20.4104 N   0  0  0  0  0  0
  -31.7990  -14.6431   20.0652 O   0  0  0  0  0  0
  -21.6643   -6.8879   21.4242 O   0  0  0  0  0  0
  -22.3536  -14.5542   20.6688 O   0  0  0  0  0  0
  -24.6129  -31.8682   23.2144 C   0  0  0  0  0  0
  -25.9013  -32.4813   23.8434 C   0  0  1  0  0  0
  -27.2418  -27.4574   20.0398 C   0  0  0  0  0  0
  -25.5858  -33.8606   24.2353 N   0  0  0  0  0  0
  -23.4008  -30.4969   21.5525 C   0  0  2  0  0  0
  -24.8425  -28.9595   20.1259 C   0  0  0  0  0  0
  -22.7380  -29.4690   22.4966 C   0  0  0  0  0  0
  -18.0283  -28.1377   22.8463 C   0  0  0  0  0  0
  -24.1464  -36.7322   23.2653 C   0  0  0  0  0  0
  -25.9319  -30.8296   21.3727 C   0  0  0  0  0  0
  -26.0044  -29.4651   20.7198 C   0  0  0  0  0  0
  -27.2030  -28.7146   20.6854 C   0  0  0  0  0  0
  -26.0433  -26.9475   19.4857 C   0  0  0  0  0  0
  -24.8535  -27.6938   19.5194 C   0  0  0  0  0  0
  -23.6085  -29.8297   20.1694 C   0  0  0  0  0  0
  -25.4080  -36.3098   24.0347 C   0  0  1  0  0  0
  -20.5851  -28.3675   23.1281 C   0  0  2  0  0  0
  -20.6744  -26.9405   22.5390 C   0  0  0  0  0  0
  -19.5739  -26.6381   21.5167 C   0  0  0  0  0  0
  -18.1927  -26.7919   22.1599 C   0  0  0  0  0  0
  -19.1524  -28.8841   23.2887 C   0  0  0  0  0  0
  -18.9451  -30.1431   23.8910 C   0  0  0  0  0  0
  -17.6470  -30.6583   24.0560 C   0  0  0  0  0  0
  -25.8990  -34.9466   23.5152 C   0  0  0  0  0  0
  -16.5348  -29.9095   23.6341 C   0  0  0  0  0  0
  -16.7266  -28.6508   23.0339 C   0  0  0  0  0  0
  -26.4426  -31.6595   25.0767 C   0  0  0  0  0  0
  -25.3700  -31.3611   26.1503 C   0  0  0  0  0  0
  -27.0356  -30.3084   24.6164 C   0  0  0  0  0  0
  -27.5993  -32.4327   25.7536 C   0  0  0  0  0  0
  -27.5556  -37.1811   24.8473 C   0  0  0  0  0  0
  -21.4099  -29.3072   22.3708 N   0  0  0  0  0  0
  -26.4274  -37.3776   23.9414 N   0  0  0  0  0  0
  -24.6672  -31.0784   22.1053 N   0  0  0  0  0  0
  -23.4155  -28.8189   23.2982 O   0  0  0  0  0  0
  -28.4455  -26.7793   19.9521 O   0  0  0  0  0  0
  -26.5551  -34.8906   22.4717 O   0  0  0  0  0  0
  -23.5308  -32.1422   23.7534 O   0  0  0  0  0  0
  -32.1130  -17.8863   20.9552 C   0  0  0  0  0  0
  -32.1144  -19.1956   20.4443 C   0  0  0  0  0  0
  -31.0950  -17.4607   21.8322 C   0  0  0  0  0  0
  -31.0945  -20.1025   20.8008 C   0  0  0  0  0  0
  -30.0394  -18.3471   22.1566 C   0  0  0  0  0  0
  -30.0368  -19.6669   21.6398 C   0  0  0  0  0  0
  -28.4000  -24.4332   19.2141 C   0  0  0  0  0  0
  -30.0574  -26.0542   18.2589 C   0  0  0  0  0  0
  -28.5888  -23.5172   17.9859 C   0  0  0  0  0  0
  -30.2808  -25.1119   17.0472 C   0  0  0  0  0  0
  -28.6395  -25.9021   18.8286 C   0  0  2  0  0  0
  -30.0014  -23.5818   17.2932 C   0  0  1  0  0  0
  -32.5554  -22.9883   17.8302 C   0  0  0  0  0  0
  -28.7126  -23.1790   15.0196 C   0  0  0  0  0  0
  -29.8589  -21.2622   16.0434 C   0  0  0  0  0  0
  -31.1669  -23.0699   14.9564 C   0  0  0  0  0  0
  -31.1945  -16.0696   22.4475 C   0  0  0  0  0  0
  -31.2127  -21.5474   20.3256 C   0  0  0  0  0  0
  -31.0882  -23.0380   18.3212 C   0  0  2  0  0  0
  -29.9490  -22.7981   15.8816 C   0  0  0  0  0  0
  -30.4001  -15.0475   21.7745 N   0  0  0  0  0  0
  -30.7054  -21.7471   18.9514 N   0  3  0  0  0  0
  -28.7606  -17.8278   23.2055 Cl  0  0  0  0  0  0
  -28.7500  -20.7510   22.0563 Cl  0  0  0  0  0  0
  -31.4521  -12.3953   19.0771 H   0  0  0  0  0  0
  -30.3096  -11.2695   19.7495 H   0  0  0  0  0  0
  -29.7071  -11.8319   17.3819 H   0  0  0  0  0  0
  -29.6481  -13.5301   17.7823 H   0  0  0  0  0  0
  -27.8058  -11.3274   18.7807 H   0  0  0  0  0  0
  -27.3490  -12.6847   17.7842 H   0  0  0  0  0  0
  -27.7211  -14.2611   19.6063 H   0  0  0  0  0  0
  -28.6589  -11.9051   21.3079 H   0  0  0  0  0  0
  -28.4441  -13.5285   21.8756 H   0  0  0  0  0  0
  -25.2750   -9.5699   22.4768 H   0  0  0  0  0  0
  -23.9989   -7.4650   22.7486 H   0  0  0  0  0  0
  -21.0848   -8.8771   19.8933 H   0  0  0  0  0  0
  -22.3699  -10.9672   19.6149 H   0  0  0  0  0  0
  -21.1991   -7.6145   23.9710 H   0  0  0  0  0  0
  -21.1478   -6.0527   25.9087 H   0  0  0  0  0  0
  -22.0599   -2.7601   23.2850 H   0  0  0  0  0  0
  -22.4118  -11.9872   22.4753 H   0  0  0  0  0  0
  -21.1122  -13.1240   22.2594 H   0  0  0  0  0  0
  -24.6728  -15.8507   20.5253 H   0  0  0  0  0  0
  -26.3020  -15.6261   20.1287 H   0  0  0  0  0  0
  -26.7071  -32.5503   23.1180 H   0  0  0  0  0  0
  -24.9959  -33.9759   25.0471 H   0  0  0  0  0  0
  -22.6952  -31.3190   21.4125 H   0  0  0  0  0  0
  -23.3702  -35.9684   23.3328 H   0  0  0  0  0  0
  -24.3516  -36.8928   22.2056 H   0  0  0  0  0  0
  -23.7254  -37.6546   23.6668 H   0  0  0  0  0  0
  -26.0473  -31.5966   20.6051 H   0  0  0  0  0  0
  -26.8185  -30.8790   21.9929 H   0  0  0  0  0  0
  -28.1076  -29.1078   21.1255 H   0  0  0  0  0  0
  -26.0083  -25.9840   19.0025 H   0  0  0  0  0  0
  -23.9588  -27.2952   19.0632 H   0  0  0  0  0  0
  -23.7220  -30.6016   19.4085 H   0  0  0  0  0  0
  -22.7303  -29.2562   19.8672 H   0  0  0  0  0  0
  -25.1261  -36.1963   25.0846 H   0  0  0  0  0  0
  -20.9967  -28.3238   24.1388 H   0  0  0  0  0  0
  -20.5553  -26.2296   23.3577 H   0  0  0  0  0  0
  -21.6626  -26.7393   22.1231 H   0  0  0  0  0  0
  -19.6885  -25.6286   21.1210 H   0  0  0  0  0  0
  -19.6668  -27.3164   20.6670 H   0  0  0  0  0  0
  -17.4171  -26.6655   21.4026 H   0  0  0  0  0  0
  -18.0345  -26.0063   22.8999 H   0  0  0  0  0  0
  -19.7941  -30.7235   24.2268 H   0  0  0  0  0  0
  -17.5047  -31.6243   24.5176 H   0  0  0  0  0  0
  -15.5362  -30.3001   23.7656 H   0  0  0  0  0  0
  -15.8663  -28.0841   22.7040 H   0  0  0  0  0  0
  -24.5997  -30.6799   25.7840 H   0  0  0  0  0  0
  -24.8702  -32.2691   26.4896 H   0  0  0  0  0  0
  -25.8087  -30.8877   27.0305 H   0  0  0  0  0  0
  -26.2943  -29.6722   24.1309 H   0  0  0  0  0  0
  -27.4261  -29.7410   25.4626 H   0  0  0  0  0  0
  -27.8693  -30.4448   23.9274 H   0  0  0  0  0  0
  -27.2644  -33.3674   26.2046 H   0  0  0  0  0  0
  -28.3846  -32.6788   25.0379 H   0  0  0  0  0  0
  -28.0620  -31.8493   26.5502 H   0  0  0  0  0  0
  -28.2579  -38.0102   24.7500 H   0  0  0  0  0  0
  -28.1055  -36.2628   24.6357 H   0  0  0  0  0  0
  -27.2252  -37.1497   25.8869 H   0  0  0  0  0  0
  -20.9218  -29.8883   21.7027 H   0  0  0  0  0  0
  -26.0168  -38.2852   24.1446 H   0  0  0  0  0  0
  -32.9196  -17.2142   20.6932 H   0  0  0  0  0  0
  -32.9267  -19.5086   19.8016 H   0  0  0  0  0  0
  -29.0506  -24.1429   20.0379 H   0  0  0  0  0  0
  -27.3852  -24.3095   19.5897 H   0  0  0  0  0  0
  -30.2020  -27.0864   17.9367 H   0  0  0  0  0  0
  -30.8037  -25.8943   19.0352 H   0  0  0  0  0  0
  -27.8164  -23.8430   17.2935 H   0  0  0  0  0  0
  -28.3142  -22.4963   18.2483 H   0  0  0  0  0  0
  -31.2890  -25.2822   16.6763 H   0  0  0  0  0  0
  -29.6380  -25.4796   16.2529 H   0  0  0  0  0  0
  -27.9718  -26.1711   18.0083 H   0  0  0  0  0  0
  -32.8174  -23.8302   17.1926 H   0  0  0  0  0  0
  -32.7758  -22.0743   17.2830 H   0  0  0  0  0  0
  -33.2543  -23.0247   18.6646 H   0  0  0  0  0  0
  -27.7771  -22.8150   15.4422 H   0  0  0  0  0  0
  -28.7641  -22.7251   14.0283 H   0  0  0  0  0  0
  -28.6133  -24.2504   14.8552 H   0  0  0  0  0  0
  -29.0060  -20.9563   16.6493 H   0  0  0  0  0  0
  -30.7594  -20.8273   16.4742 H   0  0  0  0  0  0
  -29.7329  -20.7724   15.0761 H   0  0  0  0  0  0
  -31.3301  -24.1311   14.7715 H   0  0  0  0  0  0
  -31.0202  -22.6206   13.9737 H   0  0  0  0  0  0
  -32.0981  -22.6394   15.3116 H   0  0  0  0  0  0
  -30.8946  -16.1099   23.4954 H   0  0  0  0  0  0
  -32.2417  -15.7575   22.4690 H   0  0  0  0  0  0
  -32.2672  -21.8187   20.3723 H   0  0  0  0  0  0
  -30.7107  -22.2313   21.0113 H   0  0  0  0  0  0
  -31.1056  -23.7487   19.1464 H   0  0  0  0  0  0
  -29.5573  -14.7417   22.2380 H   0  0  0  0  0  0
  -29.6987  -21.7135   18.9929 H   0  0  0  0  0  0
  -31.0113  -20.9891   18.3616 H   0  0  0  0  0  0
  1 25  1  0  0  0
  1 30  2  0  0  0
  1 91  1  0  0  0
  2  3  1  0  0  0
  2 25  1  0  0  0
  2 95  1  0  0  0
  2 96  1  0  0  0
  3  4  1  0  0  0
  3 97  1  0  0  0
  3 98  1  0  0  0
  4  5  1  0  0  0
  4 99  1  0  0  0
  4100  1  0  0  0
  5  6  1  0  0  0
  5 26  1  0  0  0
  5101  1  0  0  0
  6 25  1  0  0  0
  6102  1  0  0  0
  6103  1  0  0  0
  7  8  2  0  0  0
  7 26  1  0  0  0
  7 29  1  0  0  0
  8  9  1  0  0  0
  8 22  1  0  0  0
  9 10  1  0  0  0
  9 27  2  0  0  0
 10 11  2  0  0  0
 10 15  1  0  0  0
 11 12  1  0  0  0
 11104  1  0  0  0
 12 13  2  0  0  0
 12105  1  0  0  0
 13 14  1  0  0  0
 13 31  1  0  0  0
 14 15  2  0  0  0
 14106  1  0  0  0
 15107  1  0  0  0
 16 17  2  0  0  0
 16 21  1  0  0  0
 16 31  1  0  0  0
 17 18  1  0  0  0
 17108  1  0  0  0
 18 19  2  0  0  0
 18109  1  0  0  0
 19 20  1  0  0  0
 19 24  1  0  0  0
 20 21  2  0  0  0
 20110  1  0  0  0
 21 23  1  0  0  0
 22 28  1  0  0  0
 22 32  2  0  0  0
 26 27  1  0  0  0
 28111  1  0  0  0
 28112  1  0  0  0
 29113  1  0  0  0
 29114  1  0  0  0
 33 34  1  0  0  0
 33 66  1  0  0  0
 33 70  2  0  0  0
 34 36  1  0  0  0
 34 59  1  0  0  0
 34115  1  0  0  0
 35 44  2  0  0  0
 35 45  1  0  0  0
 35 68  1  0  0  0
 36 56  1  0  0  0
 36116  1  0  0  0
 37 39  1  0  0  0
 37 47  1  0  0  0
 37 66  1  0  0  0
 37117  1  0  0  0
 38 43  2  0  0  0
 38 46  1  0  0  0
 38 47  1  0  0  0
 39 64  1  0  0  0
 39 67  2  0  0  0
 40 52  1  0  0  0
 40 53  2  0  0  0
 40 58  1  0  0  0
 41118  1  0  0  0
 41119  1  0  0  0
 41120  1  0  0  0
 41 48  1  0  0  0
 42 43  1  0  0  0
 42 66  1  0  0  0
 42121  1  0  0  0
 42122  1  0  0  0
 43 44  1  0  0  0
 44123  1  0  0  0
 45 46  2  0  0  0
 45124  1  0  0  0
 46125  1  0  0  0
 47126  1  0  0  0
 47127  1  0  0  0
 48 56  1  0  0  0
 48 65  1  0  0  0
 48128  1  0  0  0
 49 50  1  0  0  0
 49 53  1  0  0  0
 49 64  1  0  0  0
 49129  1  0  0  0
 50 51  1  0  0  0
 50130  1  0  0  0
 50131  1  0  0  0
 51 52  1  0  0  0
 51132  1  0  0  0
 51133  1  0  0  0
 52134  1  0  0  0
 52135  1  0  0  0
 53 54  1  0  0  0
 54 55  2  0  0  0
 54136  1  0  0  0
 55 57  1  0  0  0
 55137  1  0  0  0
 56 69  2  0  0  0
 57 58  2  0  0  0
 57138  1  0  0  0
 58139  1  0  0  0
 59 60  1  0  0  0
 59 61  1  0  0  0
 59 62  1  0  0  0
 60140  1  0  0  0
 60141  1  0  0  0
 60142  1  0  0  0
 61143  1  0  0  0
 61144  1  0  0  0
 61145  1  0  0  0
 62146  1  0  0  0
 62147  1  0  0  0
 62148  1  0  0  0
 63 65  1  0  0  0
 63149  1  0  0  0
 63150  1  0  0  0
 63151  1  0  0  0
 64152  1  0  0  0
 65153  1  0  0  0
 68 81  1  0  0  0
 71 72  2  0  0  0
 71 73  1  0  0  0
 71154  1  0  0  0
 72 74  1  0  0  0
 72155  1  0  0  0
 73 75  2  0  0  0
 73 87  1  0  0  0
 74 76  2  0  0  0
 74 88  1  0  0  0
 75 76  1  0  0  0
 75 93  1  0  0  0
 76 94  1  0  0  0
 77 79  1  0  0  0
 77 81  1  0  0  0
 77156  1  0  0  0
 77157  1  0  0  0
 78 80  1  0  0  0
 78 81  1  0  0  0
 78158  1  0  0  0
 78159  1  0  0  0
 79160  1  0  0  0
 79161  1  0  0  0
 79 82  1  0  0  0
 80 82  1  0  0  0
 80162  1  0  0  0
 80163  1  0  0  0
 81164  1  0  0  0
 82 89  1  0  0  0
 82 90  1  0  0  0
 83165  1  0  0  0
 83166  1  0  0  0
 83167  1  0  0  0
 83 89  1  0  0  0
 84168  1  0  0  0
 84169  1  0  0  0
 84170  1  0  0  0
 84 90  1  0  0  0
 85 90  1  0  0  0
 85171  1  0  0  0
 85172  1  0  0  0
 85173  1  0  0  0
 86 90  1  0  0  0
 86174  1  0  0  0
 86175  1  0  0  0
 86176  1  0  0  0
 87 91  1  0  0  0
 87177  1  0  0  0
 87178  1  0  0  0
 88 92  1  0  0  0
 88179  1  0  0  0
 88180  1  0  0  0
 89 92  1  0  0  0
 89181  1  0  0  0
 91182  1  0  0  0
 92183  1  0  0  0
 92184  1  0  0  0
M  CHG  1  92   1
M  ISO  4   1 100  68 101  81 101  91 100
M  END
> <chiral flag>
0

> <version>
0

> <s_m_source_file>
/data/baiqing/PycharmProjects/Reinvent-master-3.2/result/LINK_invent/BTK/process_docking_weight1_custom_sum_contain_oxygen_bond_distance_aromatic_linkinvent_7_9_3/rearranged_h_0021.sdf

> <i_m_source_file_index>
39

> <r_mmod_Potential_Energy-OPLS-2005>
-131.104187011719

> <r_mmod_Stretch_Energy-OPLS-2005>
54.3149108886719

> <r_mmod_Bend_Energy-OPLS-2005>
128.922897338867

> <r_mmod_Torsional_Energy-OPLS-2005>
267.140594482422

> <r_mmod_Improper_Torsional_Energy-OPLS-2005>
2.5885066986084

> <r_mmod_Van_der_Waal_Energy-OPLS-2005>
183.819183349609

> <r_mmod_Electrostatic_Energy-OPLS-2005>
-349.117523193359

> <r_mmod_Solvation_Energy-OPLS-2005>
-427.589996337891

> <b_mmod_Minimization_Converged-OPLS-2005>
0

> <r_mmod_RMS_Derivative-OPLS-2005>
3.46106386184692

$$$$
40
                    3D
 Structure written by MMmdl.
181189  0  0  1  0            999 V2000
  -30.6788  -14.4355   20.6250 C   0  0  0  0  0  0
  -30.4388  -12.3056   19.4136 C   0  0  0  0  0  0
  -29.4903  -12.5185   18.2138 C   0  0  0  0  0  0
  -28.0127  -12.3736   18.6261 C   0  0  0  0  0  0
  -27.6708  -13.1921   19.8965 C   0  0  2  0  0  0
  -28.7111  -12.9115   21.0071 C   0  0  0  0  0  0
  -25.2627  -13.8129   20.5767 C   0  0  0  0  0  0
  -24.1849  -13.0438   20.9256 C   0  0  0  0  0  0
  -24.6384  -11.6885   20.8793 C   0  0  0  0  0  0
  -23.9047  -10.4255   21.0419 C   0  0  0  0  0  0
  -24.3584   -9.4170   21.9196 C   0  0  0  0  0  0
  -23.6266   -8.2207   22.0761 C   0  0  0  0  0  0
  -22.4253   -8.0256   21.3559 C   0  0  0  0  0  0
  -21.9877   -9.0242   20.4670 C   0  0  0  0  0  0
  -22.7203  -10.2120   20.3081 C   0  0  0  0  0  0
  -21.6840   -6.0726   22.5301 C   0  0  0  0  0  0
  -21.4014   -6.5638   23.8236 C   0  0  0  0  0  0
  -21.3669   -5.6791   24.9201 C   0  0  0  0  0  0
  -21.6027   -4.3058   24.7246 C   0  0  0  0  0  0
  -21.8812   -3.8155   23.4359 C   0  0  0  0  0  0
  -21.9184   -4.6959   22.3413 C   0  0  0  0  0  0
  -22.7865  -13.5282   21.1859 C   0  0  0  0  0  0
  -22.1652   -4.2169   21.0976 F   0  0  0  0  0  0
  -21.5607   -3.4507   25.7739 F   0  0  0  0  0  0
  -30.0544  -13.2388   20.4815 N   0  0  0  0  0  0
  -26.3065  -12.9280   20.3509 N   0  0  0  0  0  0
  -25.9308  -11.6445   20.5845 N   0  0  0  0  0  0
  -22.0451  -12.8332   22.0421 N   0  0  0  0  0  0
  -25.4328  -15.1848   20.4094 N   0  0  0  0  0  0
  -31.7260  -14.7383   20.0415 O   0  0  0  0  0  0
  -21.6625   -6.8852   21.4250 O   0  0  0  0  0  0
  -22.3559  -14.5572   20.6660 O   0  0  0  0  0  0
  -24.6126  -31.8686   23.2120 C   0  0  0  0  0  0
  -25.9028  -32.4830   23.8400 C   0  0  1  0  0  0
  -27.2449  -27.4525   20.0803 C   0  0  0  0  0  0
  -25.5887  -33.8623   24.2337 N   0  0  0  0  0  0
  -23.3987  -30.4917   21.5534 C   0  0  2  0  0  0
  -24.8426  -28.9587   20.1171 C   0  0  0  0  0  0
  -22.7396  -29.4660   22.5017 C   0  0  0  0  0  0
  -18.0268  -28.1377   22.8500 C   0  0  0  0  0  0
  -24.1490  -36.7333   23.2634 C   0  0  0  0  0  0
  -25.9233  -30.8382   21.3629 C   0  0  0  0  0  0
  -25.9990  -29.4720   20.7137 C   0  0  0  0  0  0
  -27.1936  -28.7249   20.6967 C   0  0  0  0  0  0
  -26.0625  -26.9459   19.4885 C   0  0  0  0  0  0
  -24.8685  -27.6929   19.5071 C   0  0  0  0  0  0
  -23.6041  -29.8227   20.1674 C   0  0  0  0  0  0
  -25.4103  -36.3121   24.0346 C   0  0  1  0  0  0
  -20.5855  -28.3654   23.1340 C   0  0  2  0  0  0
  -20.6757  -26.9393   22.5430 C   0  0  0  0  0  0
  -19.5738  -26.6389   21.5223 C   0  0  0  0  0  0
  -18.1919  -26.7919   22.1641 C   0  0  0  0  0  0
  -19.1517  -28.8834   23.2912 C   0  0  0  0  0  0
  -18.9442  -30.1443   23.8913 C   0  0  0  0  0  0
  -17.6446  -30.6589   24.0568 C   0  0  0  0  0  0
  -25.9029  -34.9487   23.5124 C   0  0  0  0  0  0
  -16.5337  -29.9095   23.6322 C   0  0  0  0  0  0
  -16.7258  -28.6512   23.0341 C   0  0  0  0  0  0
  -26.4461  -31.6614   25.0724 C   0  0  0  0  0  0
  -25.3745  -31.3728   26.1493 C   0  0  0  0  0  0
  -27.0295  -30.3064   24.6087 C   0  0  0  0  0  0
  -27.6048  -32.4337   25.7462 C   0  0  0  0  0  0
  -27.5592  -37.1803   24.8443 C   0  0  0  0  0  0
  -21.4137  -29.3030   22.3761 N   0  0  0  0  0  0
  -26.4287  -37.3807   23.9419 N   0  0  0  0  0  0
  -24.6631  -31.0811   22.1016 N   0  0  0  0  0  0
  -23.4187  -28.8197   23.3054 O   0  0  0  0  0  0
  -28.4678  -26.8113   20.0989 O   0  0  0  0  0  0
  -26.5585  -34.8932   22.4701 O   0  0  0  0  0  0
  -23.5321  -32.1420   23.7535 O   0  0  0  0  0  0
  -30.5578  -22.0361   22.1631 C   0  0  0  0  0  0
  -30.2310  -21.1322   23.2235 C   0  0  0  0  0  0
  -29.3200  -22.4310   21.7228 C   0  0  0  0  0  0
  -29.1980  -24.5843   20.7289 C   0  0  0  0  0  0
  -31.1449  -20.3087   24.0866 C   0  0  0  0  0  0
  -26.2525  -20.6682   21.8839 C   0  0  0  0  0  0
  -29.7257  -25.6559   18.4659 C   0  0  0  0  0  0
  -28.3854  -22.5873   19.5122 C   0  0  0  0  0  0
  -31.9446  -22.4384   21.7008 C   0  0  0  0  0  0
  -32.4147  -21.7710   20.3946 C   0  0  0  0  0  0
  -32.2922  -20.2343   20.3633 C   0  0  0  0  0  0
  -31.1635  -19.7755   19.4273 C   0  0  0  0  0  0
  -30.8285  -18.2731   19.4884 C   0  0  0  0  0  0
  -30.4336  -17.7913   20.8985 C   0  0  0  0  0  0
  -26.9026  -21.9333   22.4585 C   0  0  0  0  0  0
  -29.4676  -16.5903   20.9081 C   0  0  0  0  0  0
  -28.6804  -25.4910   19.5799 C   0  0  2  0  0  0
  -28.9232  -21.0294   23.4272 N   0  0  0  0  0  0
  -28.3503  -21.8248   22.5012 N   0  0  0  0  0  0
  -29.9992  -15.3095   21.3798 N   0  0  0  0  0  0
  -29.0294  -23.2364   20.6626 N   0  0  0  0  0  0
  -29.7498  -25.1281   21.6943 O   0  0  0  0  0  0
  -31.4749  -12.4451   19.0981 H   0  0  0  0  0  0
  -30.3791  -11.2818   19.7839 H   0  0  0  0  0  0
  -29.7202  -11.7989   17.4283 H   0  0  0  0  0  0
  -29.6505  -13.5123   17.7926 H   0  0  0  0  0  0
  -27.8194  -11.3147   18.8047 H   0  0  0  0  0  0
  -27.3637  -12.6662   17.8004 H   0  0  0  0  0  0
  -27.7318  -14.2462   19.6313 H   0  0  0  0  0  0
  -28.6919  -11.8591   21.2916 H   0  0  0  0  0  0
  -28.4536  -13.4474   21.9205 H   0  0  0  0  0  0
  -25.2696   -9.5622   22.4807 H   0  0  0  0  0  0
  -23.9962   -7.4573   22.7472 H   0  0  0  0  0  0
  -21.0804   -8.8783   19.8974 H   0  0  0  0  0  0
  -22.3673  -10.9680   19.6227 H   0  0  0  0  0  0
  -21.2034   -7.6149   23.9765 H   0  0  0  0  0  0
  -21.1503   -6.0512   25.9119 H   0  0  0  0  0  0
  -22.0585   -2.7622   23.2865 H   0  0  0  0  0  0
  -22.4007  -12.0055   22.4930 H   0  0  0  0  0  0
  -21.1069  -13.1427   22.2539 H   0  0  0  0  0  0
  -24.6659  -15.8366   20.5361 H   0  0  0  0  0  0
  -26.2794  -15.6268   20.0769 H   0  0  0  0  0  0
  -26.7091  -32.5535   23.1161 H   0  0  0  0  0  0
  -25.0066  -33.9775   25.0491 H   0  0  0  0  0  0
  -22.6862  -31.3077   21.4169 H   0  0  0  0  0  0
  -23.3738  -35.9682   23.3305 H   0  0  0  0  0  0
  -24.3579  -36.8921   22.2043 H   0  0  0  0  0  0
  -23.7250  -37.6556   23.6619 H   0  0  0  0  0  0
  -26.0306  -31.6030   20.5925 H   0  0  0  0  0  0
  -26.8138  -30.8922   21.9775 H   0  0  0  0  0  0
  -28.0884  -29.1239   21.1539 H   0  0  0  0  0  0
  -26.0185  -25.9899   18.9926 H   0  0  0  0  0  0
  -23.9784  -27.2931   19.0418 H   0  0  0  0  0  0
  -23.7103  -30.5966   19.4071 H   0  0  0  0  0  0
  -22.7292  -29.2404   19.8729 H   0  0  0  0  0  0
  -25.1284  -36.1986   25.0838 H   0  0  0  0  0  0
  -20.9939  -28.3208   24.1465 H   0  0  0  0  0  0
  -20.5684  -26.2255   23.3616 H   0  0  0  0  0  0
  -21.6623  -26.7453   22.1208 H   0  0  0  0  0  0
  -19.6900  -25.6306   21.1237 H   0  0  0  0  0  0
  -19.6687  -27.3215   20.6765 H   0  0  0  0  0  0
  -17.4193  -26.6669   21.4034 H   0  0  0  0  0  0
  -18.0326  -26.0057   22.9039 H   0  0  0  0  0  0
  -19.7915  -30.7255   24.2291 H   0  0  0  0  0  0
  -17.4998  -31.6264   24.5185 H   0  0  0  0  0  0
  -15.5334  -30.3002   23.7639 H   0  0  0  0  0  0
  -15.8657  -28.0839   22.7042 H   0  0  0  0  0  0
  -24.5887  -30.7101   25.7841 H   0  0  0  0  0  0
  -24.8976  -32.2895   26.4975 H   0  0  0  0  0  0
  -25.8114  -30.8871   27.0228 H   0  0  0  0  0  0
  -26.2836  -29.6822   24.1153 H   0  0  0  0  0  0
  -27.4086  -29.7298   25.4531 H   0  0  0  0  0  0
  -27.8656  -30.4394   23.9219 H   0  0  0  0  0  0
  -27.2662  -33.3600   26.2114 H   0  0  0  0  0  0
  -28.3806  -32.6962   25.0259 H   0  0  0  0  0  0
  -28.0784  -31.8428   26.5309 H   0  0  0  0  0  0
  -28.2579  -38.0133   24.7564 H   0  0  0  0  0  0
  -28.1127  -36.2678   24.6182 H   0  0  0  0  0  0
  -27.2326  -37.1341   25.8844 H   0  0  0  0  0  0
  -20.9300  -29.8742   21.6964 H   0  0  0  0  0  0
  -26.0189  -38.2881   24.1459 H   0  0  0  0  0  0
  -32.1681  -20.6794   24.0732 H   0  0  0  0  0  0
  -31.1646  -19.2741   23.7459 H   0  0  0  0  0  0
  -30.8159  -20.3042   25.1254 H   0  0  0  0  0  0
  -25.1672  -20.7681   21.8518 H   0  0  0  0  0  0
  -26.4913  -19.7943   22.4908 H   0  0  0  0  0  0
  -26.5968  -20.4714   20.8690 H   0  0  0  0  0  0
  -30.0083  -24.6993   18.0283 H   0  0  0  0  0  0
  -30.6331  -26.1308   18.8380 H   0  0  0  0  0  0
  -29.3321  -26.2806   17.6632 H   0  0  0  0  0  0
  -28.3109  -21.5088   19.6535 H   0  0  0  0  0  0
  -28.9577  -22.7456   18.5980 H   0  0  0  0  0  0
  -27.3656  -22.9436   19.3646 H   0  0  0  0  0  0
  -32.6777  -22.2095   22.4736 H   0  0  0  0  0  0
  -32.0042  -23.5210   21.5877 H   0  0  0  0  0  0
  -33.4571  -22.0467   20.2318 H   0  0  0  0  0  0
  -31.8734  -22.2079   19.5545 H   0  0  0  0  0  0
  -32.1342  -19.8528   21.3714 H   0  0  0  0  0  0
  -33.2343  -19.7922   20.0349 H   0  0  0  0  0  0
  -31.4244  -20.0426   18.4016 H   0  0  0  0  0  0
  -30.2634  -20.3424   19.6610 H   0  0  0  0  0  0
  -31.6459  -17.6691   19.0936 H   0  0  0  0  0  0
  -29.9898  -18.1214   18.8091 H   0  0  0  0  0  0
  -29.9145  -18.6225   21.3827 H   0  0  0  0  0  0
  -31.3188  -17.5978   21.5046 H   0  0  0  0  0  0
  -26.5399  -22.1166   23.4710 H   0  0  0  0  0  0
  -26.6235  -22.8074   21.8707 H   0  0  0  0  0  0
  -28.9904  -16.4531   19.9367 H   0  0  0  0  0  0
  -28.6509  -16.8271   21.5948 H   0  0  0  0  0  0
  -27.7872  -25.0606   19.1485 H   0  0  0  0  0  0
  -29.3570  -14.8412   22.0030 H   0  0  0  0  0  0
  1 25  1  0  0  0
  1 30  2  0  0  0
  1 90  1  0  0  0
  2  3  1  0  0  0
  2 25  1  0  0  0
  2 93  1  0  0  0
  2 94  1  0  0  0
  3  4  1  0  0  0
  3 95  1  0  0  0
  3 96  1  0  0  0
  4  5  1  0  0  0
  4 97  1  0  0  0
  4 98  1  0  0  0
  5  6  1  0  0  0
  5 26  1  0  0  0
  5 99  1  0  0  0
  6 25  1  0  0  0
  6100  1  0  0  0
  6101  1  0  0  0
  7  8  2  0  0  0
  7 26  1  0  0  0
  7 29  1  0  0  0
  8  9  1  0  0  0
  8 22  1  0  0  0
  9 10  1  0  0  0
  9 27  2  0  0  0
 10 11  2  0  0  0
 10 15  1  0  0  0
 11 12  1  0  0  0
 11102  1  0  0  0
 12 13  2  0  0  0
 12103  1  0  0  0
 13 14  1  0  0  0
 13 31  1  0  0  0
 14 15  2  0  0  0
 14104  1  0  0  0
 15105  1  0  0  0
 16 17  2  0  0  0
 16 21  1  0  0  0
 16 31  1  0  0  0
 17 18  1  0  0  0
 17106  1  0  0  0
 18 19  2  0  0  0
 18107  1  0  0  0
 19 20  1  0  0  0
 19 24  1  0  0  0
 20 21  2  0  0  0
 20108  1  0  0  0
 21 23  1  0  0  0
 22 28  1  0  0  0
 22 32  2  0  0  0
 26 27  1  0  0  0
 28109  1  0  0  0
 28110  1  0  0  0
 29111  1  0  0  0
 29112  1  0  0  0
 33 34  1  0  0  0
 33 66  1  0  0  0
 33 70  2  0  0  0
 34 36  1  0  0  0
 34 59  1  0  0  0
 34113  1  0  0  0
 35 44  2  0  0  0
 35 45  1  0  0  0
 35 68  1  0  0  0
 36 56  1  0  0  0
 36114  1  0  0  0
 37 39  1  0  0  0
 37 47  1  0  0  0
 37 66  1  0  0  0
 37115  1  0  0  0
 38 43  2  0  0  0
 38 46  1  0  0  0
 38 47  1  0  0  0
 39 64  1  0  0  0
 39 67  2  0  0  0
 40 52  1  0  0  0
 40 53  2  0  0  0
 40 58  1  0  0  0
 41116  1  0  0  0
 41117  1  0  0  0
 41118  1  0  0  0
 41 48  1  0  0  0
 42 43  1  0  0  0
 42 66  1  0  0  0
 42119  1  0  0  0
 42120  1  0  0  0
 43 44  1  0  0  0
 44121  1  0  0  0
 45 46  2  0  0  0
 45122  1  0  0  0
 46123  1  0  0  0
 47124  1  0  0  0
 47125  1  0  0  0
 48 56  1  0  0  0
 48 65  1  0  0  0
 48126  1  0  0  0
 49 50  1  0  0  0
 49 53  1  0  0  0
 49 64  1  0  0  0
 49127  1  0  0  0
 50 51  1  0  0  0
 50128  1  0  0  0
 50129  1  0  0  0
 51 52  1  0  0  0
 51130  1  0  0  0
 51131  1  0  0  0
 52132  1  0  0  0
 52133  1  0  0  0
 53 54  1  0  0  0
 54 55  2  0  0  0
 54134  1  0  0  0
 55 57  1  0  0  0
 55135  1  0  0  0
 56 69  2  0  0  0
 57 58  2  0  0  0
 57136  1  0  0  0
 58137  1  0  0  0
 59 60  1  0  0  0
 59 61  1  0  0  0
 59 62  1  0  0  0
 60138  1  0  0  0
 60139  1  0  0  0
 60140  1  0  0  0
 61141  1  0  0  0
 61142  1  0  0  0
 61143  1  0  0  0
 62144  1  0  0  0
 62145  1  0  0  0
 62146  1  0  0  0
 63 65  1  0  0  0
 63147  1  0  0  0
 63148  1  0  0  0
 63149  1  0  0  0
 64150  1  0  0  0
 65151  1  0  0  0
 68 87  1  0  0  0
 71 72  1  0  0  0
 71 73  2  0  0  0
 71 79  1  0  0  0
 72 75  1  0  0  0
 72 88  2  0  0  0
 73 89  1  0  0  0
 73 91  1  0  0  0
 74 87  1  0  0  0
 74 91  1  0  0  0
 74 92  2  0  0  0
 75152  1  0  0  0
 75153  1  0  0  0
 75154  1  0  0  0
 76 85  1  0  0  0
 76155  1  0  0  0
 76156  1  0  0  0
 76157  1  0  0  0
 77158  1  0  0  0
 77159  1  0  0  0
 77160  1  0  0  0
 77 87  1  0  0  0
 78 91  1  0  0  0
 78161  1  0  0  0
 78162  1  0  0  0
 78163  1  0  0  0
 79 80  1  0  0  0
 79164  1  0  0  0
 79165  1  0  0  0
 80 81  1  0  0  0
 80166  1  0  0  0
 80167  1  0  0  0
 81 82  1  0  0  0
 81168  1  0  0  0
 81169  1  0  0  0
 82 83  1  0  0  0
 82170  1  0  0  0
 82171  1  0  0  0
 83 84  1  0  0  0
 83172  1  0  0  0
 83173  1  0  0  0
 84 86  1  0  0  0
 84174  1  0  0  0
 84175  1  0  0  0
 85 89  1  0  0  0
 85176  1  0  0  0
 85177  1  0  0  0
 86 90  1  0  0  0
 86178  1  0  0  0
 86179  1  0  0  0
 87180  1  0  0  0
 88 89  1  0  0  0
 90181  1  0  0  0
M  ISO  4   1 100  68 101  87 101  90 100
M  END
> <chiral flag>
0

> <version>
0

> <s_m_source_file>
/data/baiqing/PycharmProjects/Reinvent-master-3.2/result/LINK_invent/BTK/process_docking_weight1_custom_sum_contain_oxygen_bond_distance_aromatic_linkinvent_7_9_3/rearranged_h_0021.sdf

> <i_m_source_file_index>
40

> <r_mmod_Potential_Energy-OPLS-2005>
27.6896648406982

> <r_mmod_Stretch_Energy-OPLS-2005>
36.4180641174316

> <r_mmod_Bend_Energy-OPLS-2005>
133.517105102539

> <r_mmod_Torsional_Energy-OPLS-2005>
326.933532714844

> <r_mmod_Improper_Torsional_Energy-OPLS-2005>
6.6840615272522

> <r_mmod_Van_der_Waal_Energy-OPLS-2005>
117.314666748047

> <r_mmod_Electrostatic_Energy-OPLS-2005>
-367.689453125

> <r_mmod_Solvation_Energy-OPLS-2005>
-237.166595458984

> <b_mmod_Minimization_Converged-OPLS-2005>
0

> <r_mmod_RMS_Derivative-OPLS-2005>
4.49021005630493

$$$$
41
                    3D
 Structure written by MMmdl.
179189  0  0  1  0            999 V2000
  -30.6006  -14.9329   20.4859 C   0  0  0  0  0  0
  -30.4277  -12.5795   19.5307 C   0  0  0  0  0  0
  -29.5188  -12.5427   18.2813 C   0  0  0  0  0  0
  -28.0530  -12.3278   18.6900 C   0  0  0  0  0  0
  -27.6345  -13.2553   19.8609 C   0  0  2  0  0  0
  -28.6744  -13.2791   21.0073 C   0  0  0  0  0  0
  -25.2328  -13.8106   20.5441 C   0  0  0  0  0  0
  -24.1690  -13.0377   20.9115 C   0  0  0  0  0  0
  -24.6368  -11.6893   20.8767 C   0  0  0  0  0  0
  -23.9056  -10.4274   21.0417 C   0  0  0  0  0  0
  -24.3603   -9.4188   21.9188 C   0  0  0  0  0  0
  -23.6274   -8.2229   22.0747 C   0  0  0  0  0  0
  -22.4262   -8.0275   21.3536 C   0  0  0  0  0  0
  -21.9900   -9.0241   20.4629 C   0  0  0  0  0  0
  -22.7232  -10.2119   20.3047 C   0  0  0  0  0  0
  -21.6846   -6.0728   22.5280 C   0  0  0  0  0  0
  -21.4000   -6.5634   23.8216 C   0  0  0  0  0  0
  -21.3655   -5.6786   24.9174 C   0  0  0  0  0  0
  -21.6049   -4.3049   24.7223 C   0  0  0  0  0  0
  -21.8819   -3.8144   23.4345 C   0  0  0  0  0  0
  -21.9182   -4.6962   22.3399 C   0  0  0  0  0  0
  -22.7737  -13.5180   21.1822 C   0  0  0  0  0  0
  -22.1657   -4.2148   21.0978 F   0  0  0  0  0  0
  -21.5629   -3.4533   25.7735 F   0  0  0  0  0  0
  -29.9633  -13.6840   20.4310 N   0  0  0  0  0  0
  -26.2901  -12.9436   20.3377 N   0  0  0  0  0  0
  -25.9349  -11.6564   20.5926 N   0  0  0  0  0  0
  -22.0414  -12.8178   22.0421 N   0  0  0  0  0  0
  -25.3835  -15.1727   20.3412 N   0  0  0  0  0  0
  -31.7109  -14.9594   19.9459 O   0  0  0  0  0  0
  -21.6623   -6.8871   21.4244 O   0  0  0  0  0  0
  -22.3420  -14.5508   20.6733 O   0  0  0  0  0  0
  -24.6447  -31.8401   23.1870 C   0  0  0  0  0  0
  -25.9210  -32.4665   23.8238 C   0  0  1  0  0  0
  -27.2250  -27.1352   20.1554 C   0  0  0  0  0  0
  -25.5961  -33.8470   24.2174 N   0  0  0  0  0  0
  -23.4480  -30.4640   21.5273 C   0  0  2  0  0  0
  -24.9015  -28.8903   20.1041 C   0  0  0  0  0  0
  -22.7567  -29.4546   22.4785 C   0  0  0  0  0  0
  -18.0317  -28.1413   22.8455 C   0  0  0  0  0  0
  -24.1511  -36.7244   23.2652 C   0  0  0  0  0  0
  -26.0047  -30.7129   21.3875 C   0  0  0  0  0  0
  -26.0732  -29.3248   20.7305 C   0  0  0  0  0  0
  -27.2318  -28.4634   20.7440 C   0  0  0  0  0  0
  -26.0323  -26.8100   19.4665 C   0  0  0  0  0  0
  -24.8936  -27.6454   19.4549 C   0  0  0  0  0  0
  -23.6794  -29.7948   20.1460 C   0  0  0  0  0  0
  -25.4121  -36.2993   24.0339 C   0  0  1  0  0  0
  -20.5943  -28.3732   23.1203 C   0  0  2  0  0  0
  -20.6813  -26.9427   22.5393 C   0  0  0  0  0  0
  -19.5796  -26.6367   21.5212 C   0  0  0  0  0  0
  -18.1965  -26.7950   22.1601 C   0  0  0  0  0  0
  -19.1580  -28.8886   23.2837 C   0  0  0  0  0  0
  -18.9509  -30.1483   23.8861 C   0  0  0  0  0  0
  -17.6514  -30.6595   24.0576 C   0  0  0  0  0  0
  -25.9057  -34.9369   23.5040 C   0  0  0  0  0  0
  -16.5403  -29.9093   23.6339 C   0  0  0  0  0  0
  -16.7307  -28.6531   23.0309 C   0  0  0  0  0  0
  -26.4529  -31.6539   25.0693 C   0  0  0  0  0  0
  -25.3710  -31.3751   26.1398 C   0  0  0  0  0  0
  -27.0385  -30.2917   24.6279 C   0  0  0  0  0  0
  -27.6069  -32.4311   25.7463 C   0  0  0  0  0  0
  -27.5576  -37.1766   24.8462 C   0  0  0  0  0  0
  -21.4267  -29.3069   22.3572 N   0  0  0  0  0  0
  -26.4271  -37.3717   23.9422 N   0  0  0  0  0  0
  -24.7188  -31.0269   22.0883 N   0  0  0  0  0  0
  -23.4216  -28.8073   23.2927 O   0  0  0  0  0  0
  -28.2860  -26.1608   20.2702 O   0  0  0  0  0  0
  -26.5653  -34.8878   22.4630 O   0  0  0  0  0  0
  -23.5565  -32.1274   23.7057 O   0  0  0  0  0  0
  -26.9525  -18.5188   21.3580 C   0  0  0  0  0  0
  -28.6287  -20.2139   20.5656 C   0  0  0  0  0  0
  -29.2393  -17.6411   20.8910 C   0  0  0  0  0  0
  -27.3101  -19.8677   21.0080 C   0  0  0  0  0  0
  -27.8964  -17.4681   21.2667 C   0  0  0  0  0  0
  -29.5706  -19.0512   20.5275 C   0  0  0  0  0  0
  -25.5948  -18.5558   21.8180 C   0  0  0  0  0  0
  -25.6387  -24.3097   24.4982 C   0  0  0  0  0  0
  -27.0378  -24.2153   23.9401 C   0  0  1  0  0  0
  -25.8450  -23.8506   23.0746 C   0  0  1  0  0  0
  -24.7792  -17.4697   22.4490 C   0  0  0  0  0  0
  -27.8412  -25.4823   23.7341 C   0  0  0  0  0  0
  -31.4647  -16.8864   21.9808 C   0  0  0  0  0  0
  -24.5773  -22.3514   20.3891 C   0  0  0  0  0  0
  -28.9097  -21.7333   19.9453 C   0  0  0  0  0  0
  -25.5328  -22.4009   22.7532 C   0  0  0  0  0  0
  -28.8656  -23.2897   20.6293 C   0  0  0  0  0  0
  -28.1358  -24.6471   19.9222 C   0  0  0  0  0  0
  -30.1966  -16.3401   21.2905 C   0  0  2  0  0  0
  -25.7729  -21.9755   21.2851 C   0  0  1  0  0  0
  -25.0946  -19.7499   21.6909 N   0  0  0  0  0  0
  -26.0969  -20.5531   21.2484 N   0  0  0  0  0  0
  -27.5002  -16.2326   21.6421 F   0  0  0  0  0  0
  -30.8386  -19.3123   20.1340 F   0  0  0  0  0  0
  -31.4682  -12.6922   19.2222 H   0  0  0  0  0  0
  -30.3968  -11.6260   20.0592 H   0  0  0  0  0  0
  -29.8406  -11.7531   17.6001 H   0  0  0  0  0  0
  -29.6132  -13.4830   17.7370 H   0  0  0  0  0  0
  -27.9407  -11.2853   18.9865 H   0  0  0  0  0  0
  -27.3941  -12.4738   17.8335 H   0  0  0  0  0  0
  -27.6012  -14.2614   19.4404 H   0  0  0  0  0  0
  -28.7507  -12.3015   21.4840 H   0  0  0  0  0  0
  -28.3691  -13.9729   21.7890 H   0  0  0  0  0  0
  -25.2745   -9.5676   22.4765 H   0  0  0  0  0  0
  -23.9984   -7.4614   22.7467 H   0  0  0  0  0  0
  -21.0833   -8.8752   19.8922 H   0  0  0  0  0  0
  -22.3690  -10.9649   19.6154 H   0  0  0  0  0  0
  -21.1988   -7.6144   23.9721 H   0  0  0  0  0  0
  -21.1475   -6.0511   25.9078 H   0  0  0  0  0  0
  -22.0594   -2.7604   23.2840 H   0  0  0  0  0  0
  -22.4032  -11.9826   22.4781 H   0  0  0  0  0  0
  -21.1059  -13.1221   22.2681 H   0  0  0  0  0  0
  -24.6218  -15.8209   20.4914 H   0  0  0  0  0  0
  -26.2966  -15.6131   20.3574 H   0  0  0  0  0  0
  -26.7279  -32.5268   23.0959 H   0  0  0  0  0  0
  -25.0130  -33.9598   25.0342 H   0  0  0  0  0  0
  -22.7537  -31.2921   21.3682 H   0  0  0  0  0  0
  -23.3761  -35.9593   23.3254 H   0  0  0  0  0  0
  -24.3600  -36.8889   22.2071 H   0  0  0  0  0  0
  -23.7264  -37.6433   23.6709 H   0  0  0  0  0  0
  -26.1654  -31.4641   20.6139 H   0  0  0  0  0  0
  -26.8750  -30.7612   22.0292 H   0  0  0  0  0  0
  -28.1176  -28.7878   21.2685 H   0  0  0  0  0  0
  -25.9455  -25.8723   18.9390 H   0  0  0  0  0  0
  -24.0024  -27.3140   18.9408 H   0  0  0  0  0  0
  -23.8242  -30.5714   19.3929 H   0  0  0  0  0  0
  -22.7957  -29.2378   19.8297 H   0  0  0  0  0  0
  -25.1295  -36.1805   25.0832 H   0  0  0  0  0  0
  -21.0065  -28.3331   24.1306 H   0  0  0  0  0  0
  -20.5692  -26.2351   23.3609 H   0  0  0  0  0  0
  -21.6668  -26.7400   22.1199 H   0  0  0  0  0  0
  -19.6960  -25.6259   21.1247 H   0  0  0  0  0  0
  -19.6751  -27.3172   20.6741 H   0  0  0  0  0  0
  -17.4236  -26.6702   21.3997 H   0  0  0  0  0  0
  -18.0354  -26.0104   22.9003 H   0  0  0  0  0  0
  -19.8000  -30.7321   24.2172 H   0  0  0  0  0  0
  -17.5068  -31.6250   24.5202 H   0  0  0  0  0  0
  -15.5398  -30.2994   23.7682 H   0  0  0  0  0  0
  -15.8708  -28.0872   22.6990 H   0  0  0  0  0  0
  -24.5918  -30.7074   25.7708 H   0  0  0  0  0  0
  -24.8915  -32.2969   26.4716 H   0  0  0  0  0  0
  -25.7997  -30.8981   27.0226 H   0  0  0  0  0  0
  -26.3010  -29.6622   24.1305 H   0  0  0  0  0  0
  -27.4012  -29.7221   25.4840 H   0  0  0  0  0  0
  -27.8893  -30.4109   23.9577 H   0  0  0  0  0  0
  -27.2671  -33.3658   26.1926 H   0  0  0  0  0  0
  -28.3927  -32.6760   25.0310 H   0  0  0  0  0  0
  -28.0686  -31.8502   26.5455 H   0  0  0  0  0  0
  -28.2533  -38.0121   24.7488 H   0  0  0  0  0  0
  -28.1108  -36.2614   24.6257 H   0  0  0  0  0  0
  -27.2302  -37.1367   25.8875 H   0  0  0  0  0  0
  -20.9458  -29.8801   21.6782 H   0  0  0  0  0  0
  -26.0108  -38.2775   24.1439 H   0  0  0  0  0  0
  -25.1968  -25.2967   24.6387 H   0  0  0  0  0  0
  -25.3411  -23.5602   25.2304 H   0  0  0  0  0  0
  -27.6427  -23.3800   24.2969 H   0  0  0  0  0  0
  -25.5483  -24.5663   22.3076 H   0  0  0  0  0  0
  -25.3835  -16.5998   22.7032 H   0  0  0  0  0  0
  -23.9676  -17.1490   21.7967 H   0  0  0  0  0  0
  -24.3320  -17.8123   23.3815 H   0  0  0  0  0  0
  -27.2367  -26.2666   23.2749 H   0  0  0  0  0  0
  -28.7068  -25.2902   23.0973 H   0  0  0  0  0  0
  -28.2009  -25.8523   24.6959 H   0  0  0  0  0  0
  -31.1966  -17.4865   22.8512 H   0  0  0  0  0  0
  -32.0525  -17.5098   21.3081 H   0  0  0  0  0  0
  -32.1147  -16.0861   22.3352 H   0  0  0  0  0  0
  -24.4595  -23.4342   20.3399 H   0  0  0  0  0  0
  -23.6406  -21.9424   20.7650 H   0  0  0  0  0  0
  -24.7102  -21.9903   19.3696 H   0  0  0  0  0  0
  -28.2259  -21.7828   19.0981 H   0  0  0  0  0  0
  -29.8863  -21.6536   19.4661 H   0  0  0  0  0  0
  -24.4967  -22.2003   23.0301 H   0  0  0  0  0  0
  -26.1352  -21.7779   23.4169 H   0  0  0  0  0  0
  -29.9097  -23.5614   20.7909 H   0  0  0  0  0  0
  -28.4871  -23.2063   21.6463 H   0  0  0  0  0  0
  -27.0729  -24.4243   19.9592 H   0  0  0  0  0  0
  -28.3908  -24.5976   18.8627 H   0  0  0  0  0  0
  -29.6800  -15.8972   22.1407 H   0  0  0  0  0  0
  -26.6145  -22.4995   20.8885 H   0  0  0  0  0  0
  1 25  1  0  0  0
  1 30  2  0  0  0
  1 89  1  0  0  0
  2  3  1  0  0  0
  2 25  1  0  0  0
  2 95  1  0  0  0
  2 96  1  0  0  0
  3  4  1  0  0  0
  3 97  1  0  0  0
  3 98  1  0  0  0
  4  5  1  0  0  0
  4 99  1  0  0  0
  4100  1  0  0  0
  5  6  1  0  0  0
  5 26  1  0  0  0
  5101  1  0  0  0
  6 25  1  0  0  0
  6102  1  0  0  0
  6103  1  0  0  0
  7  8  2  0  0  0
  7 26  1  0  0  0
  7 29  1  0  0  0
  8  9  1  0  0  0
  8 22  1  0  0  0
  9 10  1  0  0  0
  9 27  2  0  0  0
 10 11  2  0  0  0
 10 15  1  0  0  0
 11 12  1  0  0  0
 11104  1  0  0  0
 12 13  2  0  0  0
 12105  1  0  0  0
 13 14  1  0  0  0
 13 31  1  0  0  0
 14 15  2  0  0  0
 14106  1  0  0  0
 15107  1  0  0  0
 16 17  2  0  0  0
 16 21  1  0  0  0
 16 31  1  0  0  0
 17 18  1  0  0  0
 17108  1  0  0  0
 18 19  2  0  0  0
 18109  1  0  0  0
 19 20  1  0  0  0
 19 24  1  0  0  0
 20 21  2  0  0  0
 20110  1  0  0  0
 21 23  1  0  0  0
 22 28  1  0  0  0
 22 32  2  0  0  0
 26 27  1  0  0  0
 28111  1  0  0  0
 28112  1  0  0  0
 29113  1  0  0  0
 29114  1  0  0  0
 33 34  1  0  0  0
 33 66  1  0  0  0
 33 70  2  0  0  0
 34 36  1  0  0  0
 34 59  1  0  0  0
 34115  1  0  0  0
 35 44  2  0  0  0
 35 45  1  0  0  0
 35 68  1  0  0  0
 36 56  1  0  0  0
 36116  1  0  0  0
 37 39  1  0  0  0
 37 47  1  0  0  0
 37 66  1  0  0  0
 37117  1  0  0  0
 38 43  2  0  0  0
 38 46  1  0  0  0
 38 47  1  0  0  0
 39 64  1  0  0  0
 39 67  2  0  0  0
 40 52  1  0  0  0
 40 53  2  0  0  0
 40 58  1  0  0  0
 41118  1  0  0  0
 41119  1  0  0  0
 41120  1  0  0  0
 41 48  1  0  0  0
 42 43  1  0  0  0
 42 66  1  0  0  0
 42121  1  0  0  0
 42122  1  0  0  0
 43 44  1  0  0  0
 44123  1  0  0  0
 45 46  2  0  0  0
 45124  1  0  0  0
 46125  1  0  0  0
 47126  1  0  0  0
 47127  1  0  0  0
 48 56  1  0  0  0
 48 65  1  0  0  0
 48128  1  0  0  0
 49 50  1  0  0  0
 49 53  1  0  0  0
 49 64  1  0  0  0
 49129  1  0  0  0
 50 51  1  0  0  0
 50130  1  0  0  0
 50131  1  0  0  0
 51 52  1  0  0  0
 51132  1  0  0  0
 51133  1  0  0  0
 52134  1  0  0  0
 52135  1  0  0  0
 53 54  1  0  0  0
 54 55  2  0  0  0
 54136  1  0  0  0
 55 57  1  0  0  0
 55137  1  0  0  0
 56 69  2  0  0  0
 57 58  2  0  0  0
 57138  1  0  0  0
 58139  1  0  0  0
 59 60  1  0  0  0
 59 61  1  0  0  0
 59 62  1  0  0  0
 60140  1  0  0  0
 60141  1  0  0  0
 60142  1  0  0  0
 61143  1  0  0  0
 61144  1  0  0  0
 61145  1  0  0  0
 62146  1  0  0  0
 62147  1  0  0  0
 62148  1  0  0  0
 63 65  1  0  0  0
 63149  1  0  0  0
 63150  1  0  0  0
 63151  1  0  0  0
 64152  1  0  0  0
 65153  1  0  0  0
 68 88  1  0  0  0
 71 74  1  0  0  0
 71 75  2  0  0  0
 71 77  1  0  0  0
 72 74  2  0  0  0
 72 76  1  0  0  0
 72 85  1  0  0  0
 73 75  1  0  0  0
 73 76  2  0  0  0
 73 89  1  0  0  0
 74 92  1  0  0  0
 75 93  1  0  0  0
 76 94  1  0  0  0
 77 81  1  0  0  0
 77 91  2  0  0  0
 78 79  1  0  0  0
 78 80  1  0  0  0
 78154  1  0  0  0
 78155  1  0  0  0
 79 80  1  0  0  0
 79 82  1  0  0  0
 79156  1  0  0  0
 80 86  1  0  0  0
 80157  1  0  0  0
 81158  1  0  0  0
 81159  1  0  0  0
 81160  1  0  0  0
 82161  1  0  0  0
 82162  1  0  0  0
 82163  1  0  0  0
 83164  1  0  0  0
 83165  1  0  0  0
 83166  1  0  0  0
 83 89  1  0  0  0
 84167  1  0  0  0
 84168  1  0  0  0
 84169  1  0  0  0
 84 90  1  0  0  0
 85 87  1  0  0  0
 85170  1  0  0  0
 85171  1  0  0  0
 86 90  1  0  0  0
 86172  1  0  0  0
 86173  1  0  0  0
 87 88  1  0  0  0
 87174  1  0  0  0
 87175  1  0  0  0
 88176  1  0  0  0
 88177  1  0  0  0
 89178  1  0  0  0
 90 92  1  0  0  0
 90179  1  0  0  0
 91 92  1  0  0  0
M  ISO  4   1 100  68 101  88 101  89 100
M  END
> <chiral flag>
0

> <version>
0

> <s_m_source_file>
/data/baiqing/PycharmProjects/Reinvent-master-3.2/result/LINK_invent/BTK/process_docking_weight1_custom_sum_contain_oxygen_bond_distance_aromatic_linkinvent_7_9_3/rearranged_h_0021.sdf

> <i_m_source_file_index>
41

> <r_mmod_Potential_Energy-OPLS-2005>
715.158569335938

> <r_mmod_Stretch_Energy-OPLS-2005>
295.628784179688

> <r_mmod_Bend_Energy-OPLS-2005>
347.316375732422

> <r_mmod_Torsional_Energy-OPLS-2005>
280.807525634766

> <r_mmod_Improper_Torsional_Energy-OPLS-2005>
9.21696090698242

> <r_mmod_Van_der_Waal_Energy-OPLS-2005>
119.806671142578

> <r_mmod_Electrostatic_Energy-OPLS-2005>
-346.777313232422

> <r_mmod_Solvation_Energy-OPLS-2005>
-176.037506103516

> <b_mmod_Minimization_Converged-OPLS-2005>
0

> <r_mmod_RMS_Derivative-OPLS-2005>
3.81423902511597

$$$$
42
                    3D
 Structure written by MMmdl.
150158  0  0  1  0            999 V2000
  -30.5082  -15.0011   20.3252 C   0  0  0  0  0  0
  -30.4356  -12.6030   19.4837 C   0  0  0  0  0  0
  -29.5161  -12.5596   18.2379 C   0  0  0  0  0  0
  -28.0448  -12.3454   18.6569 C   0  0  0  0  0  0
  -27.6305  -13.2564   19.8425 C   0  0  2  0  0  0
  -28.6862  -13.2838   20.9695 C   0  0  0  0  0  0
  -25.2469  -13.8239   20.5792 C   0  0  0  0  0  0
  -24.1805  -13.0463   20.9309 C   0  0  0  0  0  0
  -24.6436  -11.6950   20.8786 C   0  0  0  0  0  0
  -23.9067  -10.4335   21.0405 C   0  0  0  0  0  0
  -24.3584   -9.4233   21.9209 C   0  0  0  0  0  0
  -23.6282   -8.2252   22.0750 C   0  0  0  0  0  0
  -22.4268   -8.0290   21.3535 C   0  0  0  0  0  0
  -21.9891   -9.0262   20.4663 C   0  0  0  0  0  0
  -22.7219  -10.2149   20.3089 C   0  0  0  0  0  0
  -21.6836   -6.0754   22.5280 C   0  0  0  0  0  0
  -21.4031   -6.5646   23.8212 C   0  0  0  0  0  0
  -21.3664   -5.6796   24.9186 C   0  0  0  0  0  0
  -21.6028   -4.3046   24.7199 C   0  0  0  0  0  0
  -21.8790   -3.8156   23.4319 C   0  0  0  0  0  0
  -21.9194   -4.6994   22.3398 C   0  0  0  0  0  0
  -22.7810  -13.5205   21.1937 C   0  0  0  0  0  0
  -22.1658   -4.2186   21.0965 F   0  0  0  0  0  0
  -21.5621   -3.4514   25.7704 F   0  0  0  0  0  0
  -29.9494  -13.7177   20.3548 N   0  0  0  0  0  0
  -26.2913  -12.9502   20.3304 N   0  0  0  0  0  0
  -25.9375  -11.6615   20.5766 N   0  0  0  0  0  0
  -22.0398  -12.8222   22.0443 N   0  0  0  0  0  0
  -25.4123  -15.1996   20.4208 N   0  0  0  0  0  0
  -31.7147  -15.0754   20.0717 O   0  0  0  0  0  0
  -21.6603   -6.8899   21.4243 O   0  0  0  0  0  0
  -22.3506  -14.5531   20.6841 O   0  0  0  0  0  0
  -24.6546  -31.8316   23.1794 C   0  0  0  0  0  0
  -25.9294  -32.4612   23.8176 C   0  0  1  0  0  0
  -27.2241  -27.0723   20.1309 C   0  0  0  0  0  0
  -25.6003  -33.8425   24.2091 N   0  0  0  0  0  0
  -23.4614  -30.4569   21.5219 C   0  0  2  0  0  0
  -24.9117  -28.8702   20.1083 C   0  0  0  0  0  0
  -22.7597  -29.4518   22.4722 C   0  0  0  0  0  0
  -18.0320  -28.1412   22.8460 C   0  0  0  0  0  0
  -24.1504  -36.7210   23.2637 C   0  0  0  0  0  0
  -26.0279  -30.6864   21.3922 C   0  0  0  0  0  0
  -26.0985  -29.2945   20.7257 C   0  0  0  0  0  0
  -27.2560  -28.4151   20.7147 C   0  0  0  0  0  0
  -26.0108  -26.7735   19.4741 C   0  0  0  0  0  0
  -24.8850  -27.6225   19.4705 C   0  0  0  0  0  0
  -23.6971  -29.7862   20.1429 C   0  0  0  0  0  0
  -25.4139  -36.2947   24.0280 C   0  0  1  0  0  0
  -20.5944  -28.3749   23.1162 C   0  0  2  0  0  0
  -20.6782  -26.9427   22.5363 C   0  0  0  0  0  0
  -19.5751  -26.6383   21.5173 C   0  0  0  0  0  0
  -18.1951  -26.7945   22.1607 C   0  0  0  0  0  0
  -19.1582  -28.8891   23.2814 C   0  0  0  0  0  0
  -18.9501  -30.1485   23.8844 C   0  0  0  0  0  0
  -17.6484  -30.6593   24.0572 C   0  0  0  0  0  0
  -25.9101  -34.9347   23.4985 C   0  0  0  0  0  0
  -16.5383  -29.9101   23.6342 C   0  0  0  0  0  0
  -16.7292  -28.6533   23.0351 C   0  0  0  0  0  0
  -26.4564  -31.6530   25.0663 C   0  0  0  0  0  0
  -25.3726  -31.3813   26.1349 C   0  0  0  0  0  0
  -27.0465  -30.2892   24.6400 C   0  0  0  0  0  0
  -27.6068  -32.4321   25.7477 C   0  0  0  0  0  0
  -27.5558  -37.1753   24.8453 C   0  0  0  0  0  0
  -21.4277  -29.3075   22.3508 N   0  0  0  0  0  0
  -26.4269  -37.3691   23.9395 N   0  0  0  0  0  0
  -24.7344  -31.0160   22.0829 N   0  0  0  0  0  0
  -23.4188  -28.8034   23.2890 O   0  0  0  0  0  0
  -28.2513  -26.0355   20.1709 O   0  0  0  0  0  0
  -26.5684  -34.8874   22.4560 O   0  0  0  0  0  0
  -23.5648  -32.1193   23.6989 O   0  0  0  0  0  0
  -29.0044  -18.6590   20.6720 C   0  0  0  0  0  0
  -29.1949  -19.9564   19.9642 C   0  0  0  0  0  0
  -29.7300  -17.5819   20.1043 C   0  0  0  0  0  0
  -31.2598  -17.7402   18.0205 C   0  0  0  0  0  0
  -28.3883  -21.4332   19.9949 C   0  0  0  0  0  0
  -28.9233  -23.0656   20.1094 C   0  0  0  0  0  0
  -27.9412  -24.4839   19.9893 C   0  0  0  0  0  0
  -30.0385  -19.6142   18.9693 N   0  0  0  0  0  0
  -30.3678  -18.2546   19.0485 N   0  0  0  0  0  0
  -29.6754  -16.1600   20.4201 N   0  0  0  0  0  0
  -27.9335  -18.4611   22.0082 Cl  0  0  0  0  0  0
  -31.4760  -12.7379   19.1903 H   0  0  0  0  0  0
  -30.4027  -11.6469   20.0061 H   0  0  0  0  0  0
  -29.8297  -11.7776   17.5430 H   0  0  0  0  0  0
  -29.6016  -13.5026   17.6931 H   0  0  0  0  0  0
  -27.9123  -11.2967   18.9234 H   0  0  0  0  0  0
  -27.3806  -12.5240   17.8088 H   0  0  0  0  0  0
  -27.5850  -14.2623   19.4283 H   0  0  0  0  0  0
  -28.7936  -12.2939   21.4188 H   0  0  0  0  0  0
  -28.3821  -13.9598   21.7692 H   0  0  0  0  0  0
  -25.2689   -9.5672   22.4827 H   0  0  0  0  0  0
  -23.9978   -7.4581   22.7427 H   0  0  0  0  0  0
  -21.0827   -8.8766   19.8932 H   0  0  0  0  0  0
  -22.3667  -10.9686   19.6204 H   0  0  0  0  0  0
  -21.2044   -7.6164   23.9720 H   0  0  0  0  0  0
  -21.1524   -6.0543   25.9079 H   0  0  0  0  0  0
  -22.0582   -2.7623   23.2808 H   0  0  0  0  0  0
  -22.3908  -11.9818   22.4785 H   0  0  0  0  0  0
  -21.1007  -13.1276   22.2581 H   0  0  0  0  0  0
  -24.6502  -15.8523   20.5732 H   0  0  0  0  0  0
  -26.2175  -15.6180   19.9741 H   0  0  0  0  0  0
  -26.7375  -32.5196   23.0916 H   0  0  0  0  0  0
  -25.0188  -33.9516   25.0254 H   0  0  0  0  0  0
  -22.7706  -31.2871   21.3567 H   0  0  0  0  0  0
  -23.3749  -35.9565   23.3279 H   0  0  0  0  0  0
  -24.3580  -36.8862   22.2051 H   0  0  0  0  0  0
  -23.7303  -37.6403   23.6718 H   0  0  0  0  0  0
  -26.2217  -31.4419   20.6285 H   0  0  0  0  0  0
  -26.8860  -30.7121   22.0533 H   0  0  0  0  0  0
  -28.1684  -28.7397   21.1988 H   0  0  0  0  0  0
  -25.8957  -25.8306   18.9626 H   0  0  0  0  0  0
  -23.9886  -27.2872   18.9677 H   0  0  0  0  0  0
  -23.8581  -30.5600   19.3909 H   0  0  0  0  0  0
  -22.8078  -29.2446   19.8158 H   0  0  0  0  0  0
  -25.1360  -36.1706   25.0776 H   0  0  0  0  0  0
  -21.0096  -28.3384   24.1252 H   0  0  0  0  0  0
  -20.5644  -26.2366   23.3608 H   0  0  0  0  0  0
  -21.6660  -26.7383   22.1181 H   0  0  0  0  0  0
  -19.6903  -25.6288   21.1218 H   0  0  0  0  0  0
  -19.6707  -27.3190   20.6699 H   0  0  0  0  0  0
  -17.4203  -26.6677   21.4036 H   0  0  0  0  0  0
  -18.0381  -26.0111   22.9027 H   0  0  0  0  0  0
  -19.7983  -30.7324   24.2191 H   0  0  0  0  0  0
  -17.5052  -31.6259   24.5192 H   0  0  0  0  0  0
  -15.5400  -30.2991   23.7684 H   0  0  0  0  0  0
  -15.8695  -28.0843   22.7072 H   0  0  0  0  0  0
  -24.5898  -30.7171   25.7671 H   0  0  0  0  0  0
  -24.8957  -32.3058   26.4636 H   0  0  0  0  0  0
  -25.7974  -30.9054   27.0200 H   0  0  0  0  0  0
  -26.3126  -29.6541   24.1441 H   0  0  0  0  0  0
  -27.4019  -29.7295   25.5057 H   0  0  0  0  0  0
  -27.9053  -30.4032   23.9793 H   0  0  0  0  0  0
  -27.2630  -33.3650   26.1982 H   0  0  0  0  0  0
  -28.3955  -32.6842   25.0365 H   0  0  0  0  0  0
  -28.0679  -31.8489   26.5466 H   0  0  0  0  0  0
  -28.2551  -38.0061   24.7495 H   0  0  0  0  0  0
  -28.1064  -36.2584   24.6301 H   0  0  0  0  0  0
  -27.2263  -37.1427   25.8848 H   0  0  0  0  0  0
  -20.9458  -29.8811   21.6730 H   0  0  0  0  0  0
  -26.0082  -38.2719   24.1452 H   0  0  0  0  0  0
  -32.2787  -18.0611   18.2403 H   0  0  0  0  0  0
  -30.9874  -18.1440   17.0426 H   0  0  0  0  0  0
  -31.2337  -16.6518   17.9733 H   0  0  0  0  0  0
  -27.6400  -21.3263   20.7795 H   0  0  0  0  0  0
  -27.7790  -21.4307   19.0923 H   0  0  0  0  0  0
  -29.6904  -23.1711   19.3411 H   0  0  0  0  0  0
  -29.4631  -23.1392   21.0491 H   0  0  0  0  0  0
  -27.1035  -24.3013   20.6625 H   0  0  0  0  0  0
  -27.5166  -24.4052   18.9899 H   0  0  0  0  0  0
  -28.7629  -15.8924   20.7460 H   0  0  0  0  0  0
  1 25  1  0  0  0
  1 30  2  0  0  0
  1 80  1  0  0  0
  2  3  1  0  0  0
  2 25  1  0  0  0
  2 82  1  0  0  0
  2 83  1  0  0  0
  3  4  1  0  0  0
  3 84  1  0  0  0
  3 85  1  0  0  0
  4  5  1  0  0  0
  4 86  1  0  0  0
  4 87  1  0  0  0
  5  6  1  0  0  0
  5 26  1  0  0  0
  5 88  1  0  0  0
  6 25  1  0  0  0
  6 89  1  0  0  0
  6 90  1  0  0  0
  7  8  2  0  0  0
  7 26  1  0  0  0
  7 29  1  0  0  0
  8  9  1  0  0  0
  8 22  1  0  0  0
  9 10  1  0  0  0
  9 27  2  0  0  0
 10 11  2  0  0  0
 10 15  1  0  0  0
 11 12  1  0  0  0
 11 91  1  0  0  0
 12 13  2  0  0  0
 12 92  1  0  0  0
 13 14  1  0  0  0
 13 31  1  0  0  0
 14 15  2  0  0  0
 14 93  1  0  0  0
 15 94  1  0  0  0
 16 17  2  0  0  0
 16 21  1  0  0  0
 16 31  1  0  0  0
 17 18  1  0  0  0
 17 95  1  0  0  0
 18 19  2  0  0  0
 18 96  1  0  0  0
 19 20  1  0  0  0
 19 24  1  0  0  0
 20 21  2  0  0  0
 20 97  1  0  0  0
 21 23  1  0  0  0
 22 28  1  0  0  0
 22 32  2  0  0  0
 26 27  1  0  0  0
 28 98  1  0  0  0
 28 99  1  0  0  0
 29100  1  0  0  0
 29101  1  0  0  0
 33 34  1  0  0  0
 33 66  1  0  0  0
 33 70  2  0  0  0
 34 36  1  0  0  0
 34 59  1  0  0  0
 34102  1  0  0  0
 35 44  2  0  0  0
 35 45  1  0  0  0
 35 68  1  0  0  0
 36 56  1  0  0  0
 36103  1  0  0  0
 37 39  1  0  0  0
 37 47  1  0  0  0
 37 66  1  0  0  0
 37104  1  0  0  0
 38 43  2  0  0  0
 38 46  1  0  0  0
 38 47  1  0  0  0
 39 64  1  0  0  0
 39 67  2  0  0  0
 40 52  1  0  0  0
 40 53  2  0  0  0
 40 58  1  0  0  0
 41105  1  0  0  0
 41106  1  0  0  0
 41107  1  0  0  0
 41 48  1  0  0  0
 42 43  1  0  0  0
 42 66  1  0  0  0
 42108  1  0  0  0
 42109  1  0  0  0
 43 44  1  0  0  0
 44110  1  0  0  0
 45 46  2  0  0  0
 45111  1  0  0  0
 46112  1  0  0  0
 47113  1  0  0  0
 47114  1  0  0  0
 48 56  1  0  0  0
 48 65  1  0  0  0
 48115  1  0  0  0
 49 50  1  0  0  0
 49 53  1  0  0  0
 49 64  1  0  0  0
 49116  1  0  0  0
 50 51  1  0  0  0
 50117  1  0  0  0
 50118  1  0  0  0
 51 52  1  0  0  0
 51119  1  0  0  0
 51120  1  0  0  0
 52121  1  0  0  0
 52122  1  0  0  0
 53 54  1  0  0  0
 54 55  2  0  0  0
 54123  1  0  0  0
 55 57  1  0  0  0
 55124  1  0  0  0
 56 69  2  0  0  0
 57 58  2  0  0  0
 57125  1  0  0  0
 58126  1  0  0  0
 59 60  1  0  0  0
 59 61  1  0  0  0
 59 62  1  0  0  0
 60127  1  0  0  0
 60128  1  0  0  0
 60129  1  0  0  0
 61130  1  0  0  0
 61131  1  0  0  0
 61132  1  0  0  0
 62133  1  0  0  0
 62134  1  0  0  0
 62135  1  0  0  0
 63 65  1  0  0  0
 63136  1  0  0  0
 63137  1  0  0  0
 63138  1  0  0  0
 64139  1  0  0  0
 65140  1  0  0  0
 68 77  1  0  0  0
 71 72  1  0  0  0
 71 73  2  0  0  0
 71 81  1  0  0  0
 72 75  1  0  0  0
 72 78  2  0  0  0
 73 79  1  0  0  0
 73 80  1  0  0  0
 74 79  1  0  0  0
 74141  1  0  0  0
 74142  1  0  0  0
 74143  1  0  0  0
 75 76  1  0  0  0
 75144  1  0  0  0
 75145  1  0  0  0
 76 77  1  0  0  0
 76146  1  0  0  0
 76147  1  0  0  0
 77148  1  0  0  0
 77149  1  0  0  0
 78 79  1  0  0  0
 80150  1  0  0  0
M  ISO  4   1 100  68 101  77 101  80 100
M  END
> <chiral flag>
0

> <version>
0

> <s_m_source_file>
/data/baiqing/PycharmProjects/Reinvent-master-3.2/result/LINK_invent/BTK/process_docking_weight1_custom_sum_contain_oxygen_bond_distance_aromatic_linkinvent_7_9_3/rearranged_h_0021.sdf

> <i_m_source_file_index>
42

> <r_mmod_Potential_Energy-OPLS-2005>
553.151916503906

> <r_mmod_Stretch_Energy-OPLS-2005>
315.729095458984

> <r_mmod_Bend_Energy-OPLS-2005>
328.188079833984

> <r_mmod_Torsional_Energy-OPLS-2005>
215.01789855957

> <r_mmod_Improper_Torsional_Energy-OPLS-2005>
6.50119400024414

> <r_mmod_Van_der_Waal_Energy-OPLS-2005>
104.037933349609

> <r_mmod_Electrostatic_Energy-OPLS-2005>
-443.423522949219

> <r_mmod_Solvation_Energy-OPLS-2005>
-217.179916381836

> <b_mmod_Minimization_Converged-OPLS-2005>
0

> <r_mmod_RMS_Derivative-OPLS-2005>
6.72823619842529

$$$$
43
                    3D
 Structure written by MMmdl.
167175  0  0  1  0            999 V2000
  -30.7085  -14.4819   20.5308 C   0  0  0  0  0  0
  -30.4173  -12.3024   19.4265 C   0  0  0  0  0  0
  -29.4927  -12.4887   18.2065 C   0  0  0  0  0  0
  -28.0106  -12.3676   18.6158 C   0  0  0  0  0  0
  -27.6552  -13.2036   19.8755 C   0  0  2  0  0  0
  -28.7037  -13.0174   20.9944 C   0  0  0  0  0  0
  -25.2568  -13.8149   20.5695 C   0  0  0  0  0  0
  -24.1815  -13.0431   20.9189 C   0  0  0  0  0  0
  -24.6371  -11.6900   20.8761 C   0  0  0  0  0  0
  -23.9040  -10.4290   21.0429 C   0  0  0  0  0  0
  -24.3595   -9.4206   21.9204 C   0  0  0  0  0  0
  -23.6268   -8.2241   22.0766 C   0  0  0  0  0  0
  -22.4255   -8.0279   21.3543 C   0  0  0  0  0  0
  -21.9896   -9.0253   20.4642 C   0  0  0  0  0  0
  -22.7222  -10.2135   20.3064 C   0  0  0  0  0  0
  -21.6845   -6.0732   22.5280 C   0  0  0  0  0  0
  -21.4009   -6.5638   23.8215 C   0  0  0  0  0  0
  -21.3666   -5.6786   24.9172 C   0  0  0  0  0  0
  -21.6049   -4.3048   24.7218 C   0  0  0  0  0  0
  -21.8825   -3.8139   23.4341 C   0  0  0  0  0  0
  -21.9191   -4.6957   22.3401 C   0  0  0  0  0  0
  -22.7840  -13.5241   21.1852 C   0  0  0  0  0  0
  -22.1663   -4.2149   21.0973 F   0  0  0  0  0  0
  -21.5636   -3.4532   25.7727 F   0  0  0  0  0  0
  -30.0293  -13.3091   20.4245 N   0  0  0  0  0  0
  -26.2993  -12.9300   20.3386 N   0  0  0  0  0  0
  -25.9293  -11.6474   20.5788 N   0  0  0  0  0  0
  -22.0472  -12.8232   22.0397 N   0  0  0  0  0  0
  -25.4277  -15.1872   20.4104 N   0  0  0  0  0  0
  -31.8735  -14.6188   20.1555 O   0  0  0  0  0  0
  -21.6623   -6.8874   21.4238 O   0  0  0  0  0  0
  -22.3540  -14.5559   20.6713 O   0  0  0  0  0  0
  -24.6149  -31.8689   23.2113 C   0  0  0  0  0  0
  -25.9051  -32.4823   23.8402 C   0  0  1  0  0  0
  -27.2266  -27.4289   20.1001 C   0  0  0  0  0  0
  -25.5903  -33.8622   24.2326 N   0  0  0  0  0  0
  -23.4019  -30.4942   21.5512 C   0  0  2  0  0  0
  -24.8468  -28.9622   20.1145 C   0  0  0  0  0  0
  -22.7402  -29.4676   22.4983 C   0  0  0  0  0  0
  -18.0271  -28.1387   22.8500 C   0  0  0  0  0  0
  -24.1486  -36.7321   23.2637 C   0  0  0  0  0  0
  -25.9327  -30.8324   21.3657 C   0  0  0  0  0  0
  -26.0084  -29.4678   20.7119 C   0  0  0  0  0  0
  -27.2028  -28.7099   20.7000 C   0  0  0  0  0  0
  -26.0504  -26.9502   19.4795 C   0  0  0  0  0  0
  -24.8627  -27.7023   19.4953 C   0  0  0  0  0  0
  -23.6095  -29.8283   20.1656 C   0  0  0  0  0  0
  -25.4108  -36.3111   24.0333 C   0  0  1  0  0  0
  -20.5863  -28.3682   23.1320 C   0  0  2  0  0  0
  -20.6761  -26.9414   22.5417 C   0  0  0  0  0  0
  -19.5736  -26.6395   21.5220 C   0  0  0  0  0  0
  -18.1914  -26.7934   22.1630 C   0  0  0  0  0  0
  -19.1520  -28.8848   23.2907 C   0  0  0  0  0  0
  -18.9447  -30.1456   23.8917 C   0  0  0  0  0  0
  -17.6451  -30.6596   24.0574 C   0  0  0  0  0  0
  -25.9041  -34.9477   23.5127 C   0  0  0  0  0  0
  -16.5340  -29.9101   23.6333 C   0  0  0  0  0  0
  -16.7258  -28.6517   23.0356 C   0  0  0  0  0  0
  -26.4476  -31.6604   25.0731 C   0  0  0  0  0  0
  -25.3735  -31.3680   26.1461 C   0  0  0  0  0  0
  -27.0345  -30.3056   24.6126 C   0  0  0  0  0  0
  -27.6040  -32.4327   25.7509 C   0  0  0  0  0  0
  -27.5582  -37.1813   24.8462 C   0  0  0  0  0  0
  -21.4131  -29.3050   22.3720 N   0  0  0  0  0  0
  -26.4294  -37.3798   23.9406 N   0  0  0  0  0  0
  -24.6682  -31.0795   22.1009 N   0  0  0  0  0  0
  -23.4175  -28.8216   23.3022 O   0  0  0  0  0  0
  -28.3825  -26.6745   20.1060 O   0  0  0  0  0  0
  -26.5605  -34.8925   22.4689 O   0  0  0  0  0  0
  -23.5345  -32.1440   23.7512 O   0  0  0  0  0  0
  -30.2187  -19.4388   20.3651 C   0  0  0  0  0  0
  -30.0102  -18.0667   19.9917 C   0  0  0  0  0  0
  -29.8377  -20.5077   19.4966 C   0  0  0  0  0  0
  -29.4688  -17.8048   18.6940 C   0  0  0  0  0  0
  -29.1384  -20.2148   18.3004 C   0  0  0  0  0  0
  -28.9713  -18.8686   17.8964 C   0  0  0  0  0  0
  -30.9142  -19.8015   21.6821 C   0  0  0  0  0  0
  -29.4646  -16.4053   18.0901 C   0  0  0  0  0  0
  -27.2166  -21.3467   17.3561 C   0  0  0  0  0  0
  -30.2417  -21.9754   19.7746 C   0  0  0  0  0  0
  -30.4487  -16.9466   20.9884 C   0  0  0  0  0  0
  -29.1162  -22.8971   20.3050 C   0  0  0  0  0  0
  -29.3713  -24.4046   20.0398 C   0  0  0  0  0  0
  -28.2326  -25.3108   20.5475 C   0  0  0  0  0  0
  -28.6680  -21.2725   17.4984 N   0  0  0  0  0  0
  -29.9656  -15.5559   20.8620 N   0  0  0  0  0  0
  -28.2090  -18.5331   16.3675 Cl  0  0  0  0  0  0
  -31.4624  -12.3907   19.1252 H   0  0  0  0  0  0
  -30.3095  -11.3001   19.8452 H   0  0  0  0  0  0
  -29.7265  -11.7486   17.4395 H   0  0  0  0  0  0
  -29.6709  -13.4631   17.7514 H   0  0  0  0  0  0
  -27.8040  -11.3132   18.8011 H   0  0  0  0  0  0
  -27.3686  -12.6593   17.7822 H   0  0  0  0  0  0
  -27.6807  -14.2467   19.5778 H   0  0  0  0  0  0
  -28.6808  -11.9946   21.3740 H   0  0  0  0  0  0
  -28.4769  -13.6554   21.8500 H   0  0  0  0  0  0
  -25.2744   -9.5675   22.4783 H   0  0  0  0  0  0
  -23.9980   -7.4629   22.7485 H   0  0  0  0  0  0
  -21.0841   -8.8765   19.8929 H   0  0  0  0  0  0
  -22.3692  -10.9676   19.6165 H   0  0  0  0  0  0
  -21.2007   -7.6152   23.9709 H   0  0  0  0  0  0
  -21.1487   -6.0517   25.9070 H   0  0  0  0  0  0
  -22.0605   -2.7606   23.2826 H   0  0  0  0  0  0
  -22.4066  -11.9859   22.4741 H   0  0  0  0  0  0
  -21.1092  -13.1256   22.2621 H   0  0  0  0  0  0
  -24.6587  -15.8391   20.5232 H   0  0  0  0  0  0
  -26.2770  -15.6310   20.0855 H   0  0  0  0  0  0
  -26.7124  -32.5536   23.1170 H   0  0  0  0  0  0
  -25.0025  -33.9781   25.0453 H   0  0  0  0  0  0
  -22.6902  -31.3113   21.4135 H   0  0  0  0  0  0
  -23.3762  -35.9642   23.3278 H   0  0  0  0  0  0
  -24.3576  -36.8975   22.2061 H   0  0  0  0  0  0
  -23.7232  -37.6506   23.6685 H   0  0  0  0  0  0
  -26.0466  -31.5989   20.5982 H   0  0  0  0  0  0
  -26.8205  -30.8838   21.9844 H   0  0  0  0  0  0
  -28.0980  -29.0943   21.1682 H   0  0  0  0  0  0
  -26.0388  -25.9980   18.9686 H   0  0  0  0  0  0
  -23.9724  -27.3101   19.0216 H   0  0  0  0  0  0
  -23.7152  -30.6037   19.4058 H   0  0  0  0  0  0
  -22.7336  -29.2469   19.8724 H   0  0  0  0  0  0
  -25.1289  -36.1966   25.0830 H   0  0  0  0  0  0
  -20.9960  -28.3252   24.1439 H   0  0  0  0  0  0
  -20.5681  -26.2285   23.3603 H   0  0  0  0  0  0
  -21.6629  -26.7462   22.1204 H   0  0  0  0  0  0
  -19.6895  -25.6312   21.1234 H   0  0  0  0  0  0
  -19.6674  -27.3216   20.6754 H   0  0  0  0  0  0
  -17.4188  -26.6704   21.4026 H   0  0  0  0  0  0
  -18.0300  -26.0068   22.9017 H   0  0  0  0  0  0
  -19.7924  -30.7265   24.2291 H   0  0  0  0  0  0
  -17.5012  -31.6277   24.5179 H   0  0  0  0  0  0
  -15.5345  -30.3014   23.7641 H   0  0  0  0  0  0
  -15.8657  -28.0840   22.7064 H   0  0  0  0  0  0
  -24.5904  -30.7048   25.7769 H   0  0  0  0  0  0
  -24.8925  -32.2824   26.4946 H   0  0  0  0  0  0
  -25.8073  -30.8800   27.0197 H   0  0  0  0  0  0
  -26.2914  -29.6779   24.1197 H   0  0  0  0  0  0
  -27.4143  -29.7328   25.4597 H   0  0  0  0  0  0
  -27.8725  -30.4393   23.9282 H   0  0  0  0  0  0
  -27.2659  -33.3629   26.2095 H   0  0  0  0  0  0
  -28.3854  -32.6884   25.0339 H   0  0  0  0  0  0
  -28.0705  -31.8442   26.5423 H   0  0  0  0  0  0
  -28.2579  -38.0131   24.7545 H   0  0  0  0  0  0
  -28.1101  -36.2663   24.6257 H   0  0  0  0  0  0
  -27.2293  -37.1418   25.8861 H   0  0  0  0  0  0
  -20.9281  -29.8776   21.6955 H   0  0  0  0  0  0
  -26.0180  -38.2872   24.1429 H   0  0  0  0  0  0
  -30.8583  -19.0521   22.4657 H   0  0  0  0  0  0
  -30.4714  -20.6951   22.1220 H   0  0  0  0  0  0
  -31.9708  -20.0028   21.5021 H   0  0  0  0  0  0
  -30.4178  -15.9158   18.2687 H   0  0  0  0  0  0
  -29.3641  -16.3833   17.0076 H   0  0  0  0  0  0
  -28.6524  -15.8151   18.4991 H   0  0  0  0  0  0
  -26.8630  -22.3465   17.6126 H   0  0  0  0  0  0
  -26.6955  -20.6351   17.9999 H   0  0  0  0  0  0
  -26.9232  -21.1478   16.3245 H   0  0  0  0  0  0
  -30.6220  -22.3845   18.8370 H   0  0  0  0  0  0
  -31.1095  -22.0397   20.4300 H   0  0  0  0  0  0
  -30.0652  -17.2137   21.9708 H   0  0  0  0  0  0
  -31.5363  -16.9706   21.0747 H   0  0  0  0  0  0
  -28.9625  -22.7140   21.3685 H   0  0  0  0  0  0
  -28.1755  -22.6323   19.8226 H   0  0  0  0  0  0
  -29.4832  -24.5603   18.9661 H   0  0  0  0  0  0
  -30.3125  -24.7125   20.4956 H   0  0  0  0  0  0
  -28.2167  -25.3012   21.6382 H   0  0  0  0  0  0
  -27.2918  -24.8613   20.2362 H   0  0  0  0  0  0
  -29.0631  -22.1664   17.7695 H   0  0  0  0  0  0
  -29.0037  -15.3832   21.1083 H   0  0  0  0  0  0
  1 25  1  0  0  0
  1 30  2  0  0  0
  1 86  1  0  0  0
  2  3  1  0  0  0
  2 25  1  0  0  0
  2 88  1  0  0  0
  2 89  1  0  0  0
  3  4  1  0  0  0
  3 90  1  0  0  0
  3 91  1  0  0  0
  4  5  1  0  0  0
  4 92  1  0  0  0
  4 93  1  0  0  0
  5  6  1  0  0  0
  5 26  1  0  0  0
  5 94  1  0  0  0
  6 25  1  0  0  0
  6 95  1  0  0  0
  6 96  1  0  0  0
  7  8  2  0  0  0
  7 26  1  0  0  0
  7 29  1  0  0  0
  8  9  1  0  0  0
  8 22  1  0  0  0
  9 10  1  0  0  0
  9 27  2  0  0  0
 10 11  2  0  0  0
 10 15  1  0  0  0
 11 12  1  0  0  0
 11 97  1  0  0  0
 12 13  2  0  0  0
 12 98  1  0  0  0
 13 14  1  0  0  0
 13 31  1  0  0  0
 14 15  2  0  0  0
 14 99  1  0  0  0
 15100  1  0  0  0
 16 17  2  0  0  0
 16 21  1  0  0  0
 16 31  1  0  0  0
 17 18  1  0  0  0
 17101  1  0  0  0
 18 19  2  0  0  0
 18102  1  0  0  0
 19 20  1  0  0  0
 19 24  1  0  0  0
 20 21  2  0  0  0
 20103  1  0  0  0
 21 23  1  0  0  0
 22 28  1  0  0  0
 22 32  2  0  0  0
 26 27  1  0  0  0
 28104  1  0  0  0
 28105  1  0  0  0
 29106  1  0  0  0
 29107  1  0  0  0
 33 34  1  0  0  0
 33 66  1  0  0  0
 33 70  2  0  0  0
 34 36  1  0  0  0
 34 59  1  0  0  0
 34108  1  0  0  0
 35 44  2  0  0  0
 35 45  1  0  0  0
 35 68  1  0  0  0
 36 56  1  0  0  0
 36109  1  0  0  0
 37 39  1  0  0  0
 37 47  1  0  0  0
 37 66  1  0  0  0
 37110  1  0  0  0
 38 43  2  0  0  0
 38 46  1  0  0  0
 38 47  1  0  0  0
 39 64  1  0  0  0
 39 67  2  0  0  0
 40 52  1  0  0  0
 40 53  2  0  0  0
 40 58  1  0  0  0
 41111  1  0  0  0
 41112  1  0  0  0
 41113  1  0  0  0
 41 48  1  0  0  0
 42 43  1  0  0  0
 42 66  1  0  0  0
 42114  1  0  0  0
 42115  1  0  0  0
 43 44  1  0  0  0
 44116  1  0  0  0
 45 46  2  0  0  0
 45117  1  0  0  0
 46118  1  0  0  0
 47119  1  0  0  0
 47120  1  0  0  0
 48 56  1  0  0  0
 48 65  1  0  0  0
 48121  1  0  0  0
 49 50  1  0  0  0
 49 53  1  0  0  0
 49 64  1  0  0  0
 49122  1  0  0  0
 50 51  1  0  0  0
 50123  1  0  0  0
 50124  1  0  0  0
 51 52  1  0  0  0
 51125  1  0  0  0
 51126  1  0  0  0
 52127  1  0  0  0
 52128  1  0  0  0
 53 54  1  0  0  0
 54 55  2  0  0  0
 54129  1  0  0  0
 55 57  1  0  0  0
 55130  1  0  0  0
 56 69  2  0  0  0
 57 58  2  0  0  0
 57131  1  0  0  0
 58132  1  0  0  0
 59 60  1  0  0  0
 59 61  1  0  0  0
 59 62  1  0  0  0
 60133  1  0  0  0
 60134  1  0  0  0
 60135  1  0  0  0
 61136  1  0  0  0
 61137  1  0  0  0
 61138  1  0  0  0
 62139  1  0  0  0
 62140  1  0  0  0
 62141  1  0  0  0
 63 65  1  0  0  0
 63142  1  0  0  0
 63143  1  0  0  0
 63144  1  0  0  0
 64145  1  0  0  0
 65146  1  0  0  0
 68 84  1  0  0  0
 71 72  2  0  0  0
 71 73  1  0  0  0
 71 77  1  0  0  0
 72 74  1  0  0  0
 72 81  1  0  0  0
 73 75  2  0  0  0
 73 80  1  0  0  0
 74 76  2  0  0  0
 74 78  1  0  0  0
 75 76  1  0  0  0
 75 85  1  0  0  0
 76 87  1  0  0  0
 77147  1  0  0  0
 77148  1  0  0  0
 77149  1  0  0  0
 78150  1  0  0  0
 78151  1  0  0  0
 78152  1  0  0  0
 79 85  1  0  0  0
 79153  1  0  0  0
 79154  1  0  0  0
 79155  1  0  0  0
 80 82  1  0  0  0
 80156  1  0  0  0
 80157  1  0  0  0
 81 86  1  0  0  0
 81158  1  0  0  0
 81159  1  0  0  0
 82 83  1  0  0  0
 82160  1  0  0  0
 82161  1  0  0  0
 83 84  1  0  0  0
 83162  1  0  0  0
 83163  1  0  0  0
 84164  1  0  0  0
 84165  1  0  0  0
 85166  1  0  0  0
 86167  1  0  0  0
M  ISO  4   1 100  68 101  84 101  86 100
M  END
> <chiral flag>
0

> <version>
0

> <s_m_source_file>
/data/baiqing/PycharmProjects/Reinvent-master-3.2/result/LINK_invent/BTK/process_docking_weight1_custom_sum_contain_oxygen_bond_distance_aromatic_linkinvent_7_9_3/rearranged_h_0021.sdf

> <i_m_source_file_index>
43

> <r_mmod_Potential_Energy-OPLS-2005>
6.2228217124939

> <r_mmod_Stretch_Energy-OPLS-2005>
48.814453125

> <r_mmod_Bend_Energy-OPLS-2005>
110.709739685059

> <r_mmod_Torsional_Energy-OPLS-2005>
230.081588745117

> <r_mmod_Improper_Torsional_Energy-OPLS-2005>
10.4219751358032

> <r_mmod_Van_der_Waal_Energy-OPLS-2005>
179.669342041016

> <r_mmod_Electrostatic_Energy-OPLS-2005>
-373.332061767578

> <r_mmod_Solvation_Energy-OPLS-2005>
-216.711486816406

> <b_mmod_Minimization_Converged-OPLS-2005>
0

> <r_mmod_RMS_Derivative-OPLS-2005>
1.55488061904907

$$$$
44
                    3D
 Structure written by MMmdl.
159167  0  0  1  0            999 V2000
  -30.6635  -14.5513   20.4354 C   0  0  0  0  0  0
  -30.4262  -12.3137   19.4450 C   0  0  0  0  0  0
  -29.4911  -12.4227   18.2196 C   0  0  0  0  0  0
  -28.0125  -12.3200   18.6373 C   0  0  0  0  0  0
  -27.6525  -13.2079   19.8602 C   0  0  2  0  0  0
  -28.7006  -13.0627   20.9858 C   0  0  0  0  0  0
  -25.2568  -13.8196   20.5683 C   0  0  0  0  0  0
  -24.1822  -13.0470   20.9196 C   0  0  0  0  0  0
  -24.6376  -11.6928   20.8762 C   0  0  0  0  0  0
  -23.9041  -10.4316   21.0412 C   0  0  0  0  0  0
  -24.3605   -9.4240   21.9186 C   0  0  0  0  0  0
  -23.6296   -8.2267   22.0751 C   0  0  0  0  0  0
  -22.4283   -8.0291   21.3539 C   0  0  0  0  0  0
  -21.9905   -9.0267   20.4648 C   0  0  0  0  0  0
  -22.7215  -10.2159   20.3058 C   0  0  0  0  0  0
  -21.6873   -6.0729   22.5274 C   0  0  0  0  0  0
  -21.4027   -6.5631   23.8206 C   0  0  0  0  0  0
  -21.3652   -5.6785   24.9169 C   0  0  0  0  0  0
  -21.6039   -4.3049   24.7218 C   0  0  0  0  0  0
  -21.8827   -3.8139   23.4341 C   0  0  0  0  0  0
  -21.9212   -4.6956   22.3399 C   0  0  0  0  0  0
  -22.7843  -13.5273   21.1862 C   0  0  0  0  0  0
  -22.1674   -4.2135   21.0974 F   0  0  0  0  0  0
  -21.5625   -3.4537   25.7732 F   0  0  0  0  0  0
  -30.0232  -13.3486   20.4111 N   0  0  0  0  0  0
  -26.2986  -12.9353   20.3345 N   0  0  0  0  0  0
  -25.9307  -11.6515   20.5806 N   0  0  0  0  0  0
  -22.0479  -12.8255   22.0406 N   0  0  0  0  0  0
  -25.4313  -15.1911   20.4031 N   0  0  0  0  0  0
  -31.8516  -14.6776   20.1325 O   0  0  0  0  0  0
  -21.6665   -6.8878   21.4236 O   0  0  0  0  0  0
  -22.3529  -14.5576   20.6697 O   0  0  0  0  0  0
  -24.6147  -31.8659   23.2100 C   0  0  0  0  0  0
  -25.9037  -32.4811   23.8386 C   0  0  1  0  0  0
  -27.2380  -27.4408   20.1160 C   0  0  0  0  0  0
  -25.5892  -33.8618   24.2309 N   0  0  0  0  0  0
  -23.4023  -30.4902   21.5476 C   0  0  2  0  0  0
  -24.8514  -28.9522   20.1185 C   0  0  0  0  0  0
  -22.7396  -29.4668   22.4989 C   0  0  0  0  0  0
  -18.0268  -28.1401   22.8492 C   0  0  0  0  0  0
  -24.1482  -36.7336   23.2638 C   0  0  0  0  0  0
  -25.9280  -30.8379   21.3599 C   0  0  0  0  0  0
  -26.0089  -29.4712   20.7118 C   0  0  0  0  0  0
  -27.2092  -28.7256   20.7002 C   0  0  0  0  0  0
  -26.0646  -26.9232   19.5276 C   0  0  0  0  0  0
  -24.8739  -27.6767   19.5219 C   0  0  0  0  0  0
  -23.6115  -29.8181   20.1643 C   0  0  0  0  0  0
  -25.4103  -36.3113   24.0324 C   0  0  1  0  0  0
  -20.5857  -28.3689   23.1318 C   0  0  2  0  0  0
  -20.6764  -26.9429   22.5420 C   0  0  0  0  0  0
  -19.5745  -26.6402   21.5217 C   0  0  0  0  0  0
  -18.1923  -26.7947   22.1620 C   0  0  0  0  0  0
  -19.1516  -28.8862   23.2912 C   0  0  0  0  0  0
  -18.9442  -30.1469   23.8920 C   0  0  0  0  0  0
  -17.6446  -30.6609   24.0582 C   0  0  0  0  0  0
  -25.9018  -34.9471   23.5103 C   0  0  0  0  0  0
  -16.5341  -29.9112   23.6336 C   0  0  0  0  0  0
  -16.7257  -28.6532   23.0351 C   0  0  0  0  0  0
  -26.4471  -31.6622   25.0739 C   0  0  0  0  0  0
  -25.3759  -31.3744   26.1506 C   0  0  0  0  0  0
  -27.0325  -30.3060   24.6167 C   0  0  0  0  0  0
  -27.6010  -32.4398   25.7505 C   0  0  0  0  0  0
  -27.5583  -37.1819   24.8459 C   0  0  0  0  0  0
  -21.4127  -29.3053   22.3723 N   0  0  0  0  0  0
  -26.4294  -37.3797   23.9402 N   0  0  0  0  0  0
  -24.6661  -31.0781   22.0988 N   0  0  0  0  0  0
  -23.4162  -28.8208   23.3035 O   0  0  0  0  0  0
  -28.4044  -26.7120   20.0900 O   0  0  0  0  0  0
  -26.5596  -34.8929   22.4672 O   0  0  0  0  0  0
  -23.5344  -32.1409   23.7504 O   0  0  0  0  0  0
  -30.3538  -19.5531   18.8751 C   0  0  0  0  0  0
  -30.5338  -18.4108   18.0827 C   0  0  0  0  0  0
  -29.9702  -19.4289   20.2267 C   0  0  0  0  0  0
  -30.0493  -16.9442   19.9946 C   0  0  0  0  0  0
  -30.3695  -17.1217   18.6144 C   0  0  0  0  0  0
  -29.8227  -18.1166   20.7818 C   0  0  0  0  0  0
  -30.7171  -23.6277   19.9963 C   0  0  0  0  0  0
  -29.8203  -20.7265   21.0495 C   0  0  0  0  0  0
  -28.2811  -24.2408   20.4370 C   0  0  0  0  0  0
  -28.4944  -25.6535   21.0549 C   0  0  0  0  0  0
  -29.4217  -23.2126   20.7293 C   0  0  1  0  0  0
  -29.8652  -15.6348   20.5805 N   0  0  0  0  0  0
  -29.0498  -21.8095   20.3657 N   0  3  0  0  0  0
  -30.5150  -15.8219   17.4868 Cl  0  0  0  0  0  0
  -29.3862  -17.9254   22.4465 Cl  0  0  0  0  0  0
  -31.4664  -12.4203   19.1320 H   0  0  0  0  0  0
  -30.3465  -11.3254   19.9008 H   0  0  0  0  0  0
  -29.7237  -11.6305   17.5082 H   0  0  0  0  0  0
  -29.6584  -13.3528   17.6855 H   0  0  0  0  0  0
  -27.8259  -11.2736   18.8760 H   0  0  0  0  0  0
  -27.3647  -12.5592   17.7926 H   0  0  0  0  0  0
  -27.6747  -14.2399   19.5118 H   0  0  0  0  0  0
  -28.6875  -12.0526   21.3952 H   0  0  0  0  0  0
  -28.4688  -13.7307   21.8172 H   0  0  0  0  0  0
  -25.2749   -9.5736   22.4756 H   0  0  0  0  0  0
  -24.0025   -7.4663   22.7462 H   0  0  0  0  0  0
  -21.0843   -8.8762   19.8958 H   0  0  0  0  0  0
  -22.3647  -10.9695   19.6170 H   0  0  0  0  0  0
  -21.2005   -7.6140   23.9692 H   0  0  0  0  0  0
  -21.1470   -6.0519   25.9064 H   0  0  0  0  0  0
  -22.0612   -2.7595   23.2846 H   0  0  0  0  0  0
  -22.4087  -11.9932   22.4825 H   0  0  0  0  0  0
  -21.1090  -13.1258   22.2584 H   0  0  0  0  0  0
  -24.6649  -15.8488   20.4973 H   0  0  0  0  0  0
  -26.2760  -15.6231   20.0525 H   0  0  0  0  0  0
  -26.7114  -32.5534   23.1154 H   0  0  0  0  0  0
  -25.0082  -33.9776   25.0480 H   0  0  0  0  0  0
  -22.6929  -31.3086   21.4079 H   0  0  0  0  0  0
  -23.3734  -35.9684   23.3301 H   0  0  0  0  0  0
  -24.3581  -36.8969   22.2056 H   0  0  0  0  0  0
  -23.7250  -37.6538   23.6672 H   0  0  0  0  0  0
  -26.0408  -31.6039   20.5918 H   0  0  0  0  0  0
  -26.8128  -30.8906   21.9821 H   0  0  0  0  0  0
  -28.1084  -29.1268   21.1475 H   0  0  0  0  0  0
  -26.0751  -25.9420   19.0761 H   0  0  0  0  0  0
  -23.9824  -27.2717   19.0644 H   0  0  0  0  0  0
  -23.7175  -30.5901   19.4020 H   0  0  0  0  0  0
  -22.7364  -29.2370   19.8669 H   0  0  0  0  0  0
  -25.1282  -36.1959   25.0821 H   0  0  0  0  0  0
  -20.9953  -28.3251   24.1438 H   0  0  0  0  0  0
  -20.5689  -26.2296   23.3610 H   0  0  0  0  0  0
  -21.6634  -26.7503   22.1198 H   0  0  0  0  0  0
  -19.6908  -25.6308   21.1264 H   0  0  0  0  0  0
  -19.6677  -27.3196   20.6739 H   0  0  0  0  0  0
  -17.4197  -26.6710   21.4019 H   0  0  0  0  0  0
  -18.0324  -26.0077   22.9002 H   0  0  0  0  0  0
  -19.7922  -30.7292   24.2281 H   0  0  0  0  0  0
  -17.5004  -31.6281   24.5197 H   0  0  0  0  0  0
  -15.5343  -30.3031   23.7654 H   0  0  0  0  0  0
  -15.8653  -28.0871   22.7050 H   0  0  0  0  0  0
  -24.5853  -30.7181   25.7845 H   0  0  0  0  0  0
  -24.9061  -32.2926   26.5046 H   0  0  0  0  0  0
  -25.8113  -30.8822   27.0211 H   0  0  0  0  0  0
  -26.2876  -29.6786   24.1258 H   0  0  0  0  0  0
  -27.4099  -29.7341   25.4654 H   0  0  0  0  0  0
  -27.8707  -30.4351   23.9320 H   0  0  0  0  0  0
  -27.2547  -33.3644   26.2139 H   0  0  0  0  0  0
  -28.3772  -32.7078   25.0330 H   0  0  0  0  0  0
  -28.0750  -31.8543   26.5389 H   0  0  0  0  0  0
  -28.2588  -38.0128   24.7504 H   0  0  0  0  0  0
  -28.1087  -36.2651   24.6267 H   0  0  0  0  0  0
  -27.2313  -37.1458   25.8869 H   0  0  0  0  0  0
  -20.9296  -29.8770   21.6930 H   0  0  0  0  0  0
  -26.0172  -38.2876   24.1412 H   0  0  0  0  0  0
  -30.5197  -20.5243   18.4284 H   0  0  0  0  0  0
  -30.7964  -18.5220   17.0400 H   0  0  0  0  0  0
  -30.5773  -23.6336   18.9152 H   0  0  0  0  0  0
  -31.5484  -22.9584   20.2159 H   0  0  0  0  0  0
  -31.0388  -24.6301   20.2792 H   0  0  0  0  0  0
  -30.8310  -21.0710   21.2708 H   0  0  0  0  0  0
  -29.3480  -20.5424   22.0131 H   0  0  0  0  0  0
  -28.1318  -24.3349   19.3601 H   0  0  0  0  0  0
  -27.3375  -23.8598   20.8277 H   0  0  0  0  0  0
  -29.4818  -25.7231   21.5136 H   0  0  0  0  0  0
  -27.7995  -25.8085   21.8828 H   0  0  0  0  0  0
  -29.6053  -23.2316   21.8058 H   0  0  0  0  0  0
  -28.9712  -15.4739   21.0165 H   0  0  0  0  0  0
  -28.0769  -21.6582   20.5829 H   0  0  0  0  0  0
  -29.1532  -21.7006   19.3706 H   0  0  0  0  0  0
  1 25  1  0  0  0
  1 30  2  0  0  0
  1 82  1  0  0  0
  2  3  1  0  0  0
  2 25  1  0  0  0
  2 86  1  0  0  0
  2 87  1  0  0  0
  3  4  1  0  0  0
  3 88  1  0  0  0
  3 89  1  0  0  0
  4  5  1  0  0  0
  4 90  1  0  0  0
  4 91  1  0  0  0
  5  6  1  0  0  0
  5 26  1  0  0  0
  5 92  1  0  0  0
  6 25  1  0  0  0
  6 93  1  0  0  0
  6 94  1  0  0  0
  7  8  2  0  0  0
  7 26  1  0  0  0
  7 29  1  0  0  0
  8  9  1  0  0  0
  8 22  1  0  0  0
  9 10  1  0  0  0
  9 27  2  0  0  0
 10 11  2  0  0  0
 10 15  1  0  0  0
 11 12  1  0  0  0
 11 95  1  0  0  0
 12 13  2  0  0  0
 12 96  1  0  0  0
 13 14  1  0  0  0
 13 31  1  0  0  0
 14 15  2  0  0  0
 14 97  1  0  0  0
 15 98  1  0  0  0
 16 17  2  0  0  0
 16 21  1  0  0  0
 16 31  1  0  0  0
 17 18  1  0  0  0
 17 99  1  0  0  0
 18 19  2  0  0  0
 18100  1  0  0  0
 19 20  1  0  0  0
 19 24  1  0  0  0
 20 21  2  0  0  0
 20101  1  0  0  0
 21 23  1  0  0  0
 22 28  1  0  0  0
 22 32  2  0  0  0
 26 27  1  0  0  0
 28102  1  0  0  0
 28103  1  0  0  0
 29104  1  0  0  0
 29105  1  0  0  0
 33 34  1  0  0  0
 33 66  1  0  0  0
 33 70  2  0  0  0
 34 36  1  0  0  0
 34 59  1  0  0  0
 34106  1  0  0  0
 35 44  2  0  0  0
 35 45  1  0  0  0
 35 68  1  0  0  0
 36 56  1  0  0  0
 36107  1  0  0  0
 37 39  1  0  0  0
 37 47  1  0  0  0
 37 66  1  0  0  0
 37108  1  0  0  0
 38 43  2  0  0  0
 38 46  1  0  0  0
 38 47  1  0  0  0
 39 64  1  0  0  0
 39 67  2  0  0  0
 40 52  1  0  0  0
 40 53  2  0  0  0
 40 58  1  0  0  0
 41109  1  0  0  0
 41110  1  0  0  0
 41111  1  0  0  0
 41 48  1  0  0  0
 42 43  1  0  0  0
 42 66  1  0  0  0
 42112  1  0  0  0
 42113  1  0  0  0
 43 44  1  0  0  0
 44114  1  0  0  0
 45 46  2  0  0  0
 45115  1  0  0  0
 46116  1  0  0  0
 47117  1  0  0  0
 47118  1  0  0  0
 48 56  1  0  0  0
 48 65  1  0  0  0
 48119  1  0  0  0
 49 50  1  0  0  0
 49 53  1  0  0  0
 49 64  1  0  0  0
 49120  1  0  0  0
 50 51  1  0  0  0
 50121  1  0  0  0
 50122  1  0  0  0
 51 52  1  0  0  0
 51123  1  0  0  0
 51124  1  0  0  0
 52125  1  0  0  0
 52126  1  0  0  0
 53 54  1  0  0  0
 54 55  2  0  0  0
 54127  1  0  0  0
 55 57  1  0  0  0
 55128  1  0  0  0
 56 69  2  0  0  0
 57 58  2  0  0  0
 57129  1  0  0  0
 58130  1  0  0  0
 59 60  1  0  0  0
 59 61  1  0  0  0
 59 62  1  0  0  0
 60131  1  0  0  0
 60132  1  0  0  0
 60133  1  0  0  0
 61134  1  0  0  0
 61135  1  0  0  0
 61136  1  0  0  0
 62137  1  0  0  0
 62138  1  0  0  0
 62139  1  0  0  0
 63 65  1  0  0  0
 63140  1  0  0  0
 63141  1  0  0  0
 63142  1  0  0  0
 64143  1  0  0  0
 65144  1  0  0  0
 68 80  1  0  0  0
 71 72  2  0  0  0
 71 73  1  0  0  0
 71145  1  0  0  0
 72 75  1  0  0  0
 72146  1  0  0  0
 73 76  2  0  0  0
 73 78  1  0  0  0
 74 75  2  0  0  0
 74 76  1  0  0  0
 74 82  1  0  0  0
 75 84  1  0  0  0
 76 85  1  0  0  0
 77147  1  0  0  0
 77148  1  0  0  0
 77149  1  0  0  0
 77 81  1  0  0  0
 78 83  1  0  0  0
 78150  1  0  0  0
 78151  1  0  0  0
 79 80  1  0  0  0
 79 81  1  0  0  0
 79152  1  0  0  0
 79153  1  0  0  0
 80154  1  0  0  0
 80155  1  0  0  0
 81 83  1  0  0  0
 81156  1  0  0  0
 82157  1  0  0  0
 83158  1  0  0  0
 83159  1  0  0  0
M  CHG  1  83   1
M  ISO  4   1 100  68 101  80 101  82 100
M  END
> <chiral flag>
0

> <version>
0

> <s_m_source_file>
/data/baiqing/PycharmProjects/Reinvent-master-3.2/result/LINK_invent/BTK/process_docking_weight1_custom_sum_contain_oxygen_bond_distance_aromatic_linkinvent_7_9_3/rearranged_h_0021.sdf

> <i_m_source_file_index>
44

> <r_mmod_Potential_Energy-OPLS-2005>
-218.259887695312

> <r_mmod_Stretch_Energy-OPLS-2005>
45.2889175415039

> <r_mmod_Bend_Energy-OPLS-2005>
97.3353424072266

> <r_mmod_Torsional_Energy-OPLS-2005>
284.207885742188

> <r_mmod_Improper_Torsional_Energy-OPLS-2005>
6.16872453689575

> <r_mmod_Van_der_Waal_Energy-OPLS-2005>
147.039199829102

> <r_mmod_Electrostatic_Energy-OPLS-2005>
-333.095642089844

> <r_mmod_Solvation_Energy-OPLS-2005>
-489.903961181641

> <b_mmod_Minimization_Converged-OPLS-2005>
0

> <r_mmod_RMS_Derivative-OPLS-2005>
2.79134130477905

$$$$
45
                    3D
 Structure written by MMmdl.
153161  0  0  1  0            999 V2000
  -30.4341  -15.1853   20.3803 C   0  0  0  0  0  0
  -30.4494  -12.7500   19.5132 C   0  0  0  0  0  0
  -29.5348  -12.5653   18.2760 C   0  0  0  0  0  0
  -28.0778  -12.3040   18.7013 C   0  0  0  0  0  0
  -27.6188  -13.2639   19.8274 C   0  0  2  0  0  0
  -28.6580  -13.3849   20.9618 C   0  0  0  0  0  0
  -25.2416  -13.8222   20.5730 C   0  0  0  0  0  0
  -24.1758  -13.0426   20.9248 C   0  0  0  0  0  0
  -24.6401  -11.6921   20.8757 C   0  0  0  0  0  0
  -23.9090  -10.4287   21.0405 C   0  0  0  0  0  0
  -24.3634   -9.4201   21.9184 C   0  0  0  0  0  0
  -23.6300   -8.2241   22.0755 C   0  0  0  0  0  0
  -22.4282   -8.0281   21.3544 C   0  0  0  0  0  0
  -21.9923   -9.0256   20.4646 C   0  0  0  0  0  0
  -22.7259  -10.2131   20.3055 C   0  0  0  0  0  0
  -21.6855   -6.0736   22.5278 C   0  0  0  0  0  0
  -21.4016   -6.5640   23.8212 C   0  0  0  0  0  0
  -21.3660   -5.6792   24.9174 C   0  0  0  0  0  0
  -21.6044   -4.3055   24.7224 C   0  0  0  0  0  0
  -21.8819   -3.8147   23.4346 C   0  0  0  0  0  0
  -21.9193   -4.6963   22.3402 C   0  0  0  0  0  0
  -22.7777  -13.5189   21.1897 C   0  0  0  0  0  0
  -22.1661   -4.2149   21.0979 F   0  0  0  0  0  0
  -21.5628   -3.4539   25.7737 F   0  0  0  0  0  0
  -29.9007  -13.8745   20.3447 N   0  0  0  0  0  0
  -26.2846  -12.9482   20.3218 N   0  0  0  0  0  0
  -25.9336  -11.6598   20.5721 N   0  0  0  0  0  0
  -22.0432  -12.8175   22.0452 N   0  0  0  0  0  0
  -25.4032  -15.1955   20.4158 N   0  0  0  0  0  0
  -31.6535  -15.2428   20.1687 O   0  0  0  0  0  0
  -21.6642   -6.8881   21.4241 O   0  0  0  0  0  0
  -22.3458  -14.5492   20.6738 O   0  0  0  0  0  0
  -24.6583  -31.8285   23.1742 C   0  0  0  0  0  0
  -25.9285  -32.4614   23.8191 C   0  0  1  0  0  0
  -27.2207  -26.9774   20.1807 C   0  0  0  0  0  0
  -25.5970  -33.8426   24.2100 N   0  0  0  0  0  0
  -23.4705  -30.4413   21.5231 C   0  0  2  0  0  0
  -24.9227  -28.8349   20.1160 C   0  0  0  0  0  0
  -22.7643  -29.4467   22.4806 C   0  0  0  0  0  0
  -18.0319  -28.1406   22.8470 C   0  0  0  0  0  0
  -24.1493  -36.7219   23.2647 C   0  0  0  0  0  0
  -26.0366  -30.6519   21.3961 C   0  0  0  0  0  0
  -26.1061  -29.2457   20.7423 C   0  0  0  0  0  0
  -27.2525  -28.3386   20.7471 C   0  0  0  0  0  0
  -26.0066  -26.7045   19.5123 C   0  0  0  0  0  0
  -24.8951  -27.5831   19.4815 C   0  0  0  0  0  0
  -23.7073  -29.7578   20.1490 C   0  0  0  0  0  0
  -25.4133  -36.2983   24.0302 C   0  0  1  0  0  0
  -20.5940  -28.3746   23.1201 C   0  0  2  0  0  0
  -20.6797  -26.9433   22.5403 C   0  0  0  0  0  0
  -19.5770  -26.6379   21.5215 C   0  0  0  0  0  0
  -18.1953  -26.7940   22.1624 C   0  0  0  0  0  0
  -19.1578  -28.8897   23.2824 C   0  0  0  0  0  0
  -18.9490  -30.1488   23.8857 C   0  0  0  0  0  0
  -17.6483  -30.6597   24.0557 C   0  0  0  0  0  0
  -25.9094  -34.9364   23.5021 C   0  0  0  0  0  0
  -16.5374  -29.9085   23.6341 C   0  0  0  0  0  0
  -16.7301  -28.6505   23.0361 C   0  0  0  0  0  0
  -26.4552  -31.6542   25.0701 C   0  0  0  0  0  0
  -25.3690  -31.3777   26.1364 C   0  0  0  0  0  0
  -27.0444  -30.2917   24.6397 C   0  0  0  0  0  0
  -27.6049  -32.4343   25.7503 C   0  0  0  0  0  0
  -27.5571  -37.1768   24.8467 C   0  0  0  0  0  0
  -21.4318  -29.3045   22.3555 N   0  0  0  0  0  0
  -26.4283  -37.3713   23.9405 N   0  0  0  0  0  0
  -24.7428  -30.9995   22.0852 N   0  0  0  0  0  0
  -23.4212  -28.8036   23.3031 O   0  0  0  0  0  0
  -28.2523  -25.9160   20.2212 O   0  0  0  0  0  0
  -26.5701  -34.8891   22.4614 O   0  0  0  0  0  0
  -23.5664  -32.1232   23.6866 O   0  0  0  0  0  0
  -28.4981  -20.2139   19.4494 C   0  0  0  0  0  0
  -29.1224  -21.2017   20.3095 C   0  0  0  0  0  0
  -28.6729  -18.7406   19.4730 C   0  0  0  0  0  0
  -29.9797  -20.4263   21.2173 C   0  0  0  0  0  0
  -29.5543  -17.9709   20.3459 C   0  0  0  0  0  0
  -30.1867  -18.9416   21.2258 C   0  0  0  0  0  0
  -27.8517  -17.9484   18.4709 C   0  0  0  0  0  0
  -30.7507  -21.2383   22.2518 C   0  0  0  0  0  0
  -29.1278  -22.9346   20.1010 C   0  0  0  0  0  0
  -28.0182  -24.3010   20.3071 C   0  0  0  0  0  0
  -29.5684  -16.3671   20.4232 N   0  0  0  0  0  0
  -31.2601  -18.2572   22.3997 Cl  0  0  0  0  0  0
  -31.4688  -12.9591   19.1856 H   0  0  0  0  0  0
  -30.5084  -11.8290   20.0954 H   0  0  0  0  0  0
  -29.8972  -11.7462   17.6534 H   0  0  0  0  0  0
  -29.5774  -13.4630   17.6573 H   0  0  0  0  0  0
  -28.0181  -11.2734   19.0534 H   0  0  0  0  0  0
  -27.4099  -12.3726   17.8418 H   0  0  0  0  0  0
  -27.5487  -14.2430   19.3524 H   0  0  0  0  0  0
  -28.8062  -12.4312   21.4705 H   0  0  0  0  0  0
  -28.3154  -14.0910   21.7202 H   0  0  0  0  0  0
  -25.2776   -9.5675   22.4764 H   0  0  0  0  0  0
  -24.0004   -7.4633   22.7478 H   0  0  0  0  0  0
  -21.0852   -8.8781   19.8953 H   0  0  0  0  0  0
  -22.3718  -10.9672   19.6167 H   0  0  0  0  0  0
  -21.2009   -7.6148   23.9715 H   0  0  0  0  0  0
  -21.1482   -6.0523   25.9077 H   0  0  0  0  0  0
  -22.0597   -2.7609   23.2846 H   0  0  0  0  0  0
  -22.4062  -11.9844   22.4844 H   0  0  0  0  0  0
  -21.1046  -13.1188   22.2659 H   0  0  0  0  0  0
  -24.6266  -15.8384   20.5276 H   0  0  0  0  0  0
  -26.2337  -15.6401   20.0525 H   0  0  0  0  0  0
  -26.7355  -32.5170   23.0911 H   0  0  0  0  0  0
  -25.0068  -33.9512   25.0216 H   0  0  0  0  0  0
  -22.7812  -31.2714   21.3549 H   0  0  0  0  0  0
  -23.3762  -35.9543   23.3290 H   0  0  0  0  0  0
  -24.3569  -36.8881   22.2064 H   0  0  0  0  0  0
  -23.7245  -37.6402   23.6711 H   0  0  0  0  0  0
  -26.2096  -31.3953   20.6168 H   0  0  0  0  0  0
  -26.8995  -30.7089   22.0478 H   0  0  0  0  0  0
  -28.1535  -28.6546   21.2540 H   0  0  0  0  0  0
  -25.8875  -25.7525   19.0173 H   0  0  0  0  0  0
  -23.9955  -27.2633   18.9735 H   0  0  0  0  0  0
  -23.8600  -30.5262   19.3903 H   0  0  0  0  0  0
  -22.8180  -29.2096   19.8330 H   0  0  0  0  0  0
  -25.1330  -36.1787   25.0794 H   0  0  0  0  0  0
  -21.0028  -28.3350   24.1324 H   0  0  0  0  0  0
  -20.5681  -26.2364   23.3638 H   0  0  0  0  0  0
  -21.6661  -26.7417   22.1207 H   0  0  0  0  0  0
  -19.6930  -25.6279   21.1271 H   0  0  0  0  0  0
  -19.6707  -27.3166   20.6726 H   0  0  0  0  0  0
  -17.4221  -26.6683   21.4029 H   0  0  0  0  0  0
  -18.0350  -26.0093   22.9031 H   0  0  0  0  0  0
  -19.7965  -30.7316   24.2208 H   0  0  0  0  0  0
  -17.5034  -31.6272   24.5167 H   0  0  0  0  0  0
  -15.5372  -30.2973   23.7688 H   0  0  0  0  0  0
  -15.8702  -28.0809   22.7099 H   0  0  0  0  0  0
  -24.5888  -30.7109   25.7676 H   0  0  0  0  0  0
  -24.8860  -32.2972   26.4679 H   0  0  0  0  0  0
  -25.7932  -30.9019   27.0215 H   0  0  0  0  0  0
  -26.3102  -29.6601   24.1385 H   0  0  0  0  0  0
  -27.3978  -29.7269   25.5035 H   0  0  0  0  0  0
  -27.9040  -30.4113   23.9800 H   0  0  0  0  0  0
  -27.2620  -33.3681   26.1973 H   0  0  0  0  0  0
  -28.3917  -32.6846   25.0375 H   0  0  0  0  0  0
  -28.0655  -31.8543   26.5510 H   0  0  0  0  0  0
  -28.2577  -38.0074   24.7505 H   0  0  0  0  0  0
  -28.1077  -36.2599   24.6308 H   0  0  0  0  0  0
  -27.2284  -37.1427   25.8869 H   0  0  0  0  0  0
  -20.9564  -29.8733   21.6688 H   0  0  0  0  0  0
  -26.0135  -38.2774   24.1406 H   0  0  0  0  0  0
  -27.8430  -20.6134   18.6872 H   0  0  0  0  0  0
  -27.4635  -18.5843   17.6749 H   0  0  0  0  0  0
  -27.0040  -17.4758   18.9666 H   0  0  0  0  0  0
  -28.4541  -17.1700   18.0016 H   0  0  0  0  0  0
  -30.2356  -22.1639   22.5039 H   0  0  0  0  0  0
  -31.7447  -21.4846   21.8782 H   0  0  0  0  0  0
  -30.8601  -20.7089   23.1971 H   0  0  0  0  0  0
  -29.4233  -23.0221   19.0555 H   0  0  0  0  0  0
  -30.0260  -23.2630   20.6197 H   0  0  0  0  0  0
  -27.5938  -24.1676   21.3022 H   0  0  0  0  0  0
  -27.1895  -24.0864   19.6344 H   0  0  0  0  0  0
  -28.6218  -16.0248   20.4473 H   0  0  0  0  0  0
  1 25  1  0  0  0
  1 30  2  0  0  0
  1 81  1  0  0  0
  2  3  1  0  0  0
  2 25  1  0  0  0
  2 83  1  0  0  0
  2 84  1  0  0  0
  3  4  1  0  0  0
  3 85  1  0  0  0
  3 86  1  0  0  0
  4  5  1  0  0  0
  4 87  1  0  0  0
  4 88  1  0  0  0
  5  6  1  0  0  0
  5 26  1  0  0  0
  5 89  1  0  0  0
  6 25  1  0  0  0
  6 90  1  0  0  0
  6 91  1  0  0  0
  7  8  2  0  0  0
  7 26  1  0  0  0
  7 29  1  0  0  0
  8  9  1  0  0  0
  8 22  1  0  0  0
  9 10  1  0  0  0
  9 27  2  0  0  0
 10 11  2  0  0  0
 10 15  1  0  0  0
 11 12  1  0  0  0
 11 92  1  0  0  0
 12 13  2  0  0  0
 12 93  1  0  0  0
 13 14  1  0  0  0
 13 31  1  0  0  0
 14 15  2  0  0  0
 14 94  1  0  0  0
 15 95  1  0  0  0
 16 17  2  0  0  0
 16 21  1  0  0  0
 16 31  1  0  0  0
 17 18  1  0  0  0
 17 96  1  0  0  0
 18 19  2  0  0  0
 18 97  1  0  0  0
 19 20  1  0  0  0
 19 24  1  0  0  0
 20 21  2  0  0  0
 20 98  1  0  0  0
 21 23  1  0  0  0
 22 28  1  0  0  0
 22 32  2  0  0  0
 26 27  1  0  0  0
 28 99  1  0  0  0
 28100  1  0  0  0
 29101  1  0  0  0
 29102  1  0  0  0
 33 34  1  0  0  0
 33 66  1  0  0  0
 33 70  2  0  0  0
 34 36  1  0  0  0
 34 59  1  0  0  0
 34103  1  0  0  0
 35 44  2  0  0  0
 35 45  1  0  0  0
 35 68  1  0  0  0
 36 56  1  0  0  0
 36104  1  0  0  0
 37 39  1  0  0  0
 37 47  1  0  0  0
 37 66  1  0  0  0
 37105  1  0  0  0
 38 43  2  0  0  0
 38 46  1  0  0  0
 38 47  1  0  0  0
 39 64  1  0  0  0
 39 67  2  0  0  0
 40 52  1  0  0  0
 40 53  2  0  0  0
 40 58  1  0  0  0
 41106  1  0  0  0
 41107  1  0  0  0
 41108  1  0  0  0
 41 48  1  0  0  0
 42 43  1  0  0  0
 42 66  1  0  0  0
 42109  1  0  0  0
 42110  1  0  0  0
 43 44  1  0  0  0
 44111  1  0  0  0
 45 46  2  0  0  0
 45112  1  0  0  0
 46113  1  0  0  0
 47114  1  0  0  0
 47115  1  0  0  0
 48 56  1  0  0  0
 48 65  1  0  0  0
 48116  1  0  0  0
 49 50  1  0  0  0
 49 53  1  0  0  0
 49 64  1  0  0  0
 49117  1  0  0  0
 50 51  1  0  0  0
 50118  1  0  0  0
 50119  1  0  0  0
 51 52  1  0  0  0
 51120  1  0  0  0
 51121  1  0  0  0
 52122  1  0  0  0
 52123  1  0  0  0
 53 54  1  0  0  0
 54 55  2  0  0  0
 54124  1  0  0  0
 55 57  1  0  0  0
 55125  1  0  0  0
 56 69  2  0  0  0
 57 58  2  0  0  0
 57126  1  0  0  0
 58127  1  0  0  0
 59 60  1  0  0  0
 59 61  1  0  0  0
 59 62  1  0  0  0
 60128  1  0  0  0
 60129  1  0  0  0
 60130  1  0  0  0
 61131  1  0  0  0
 61132  1  0  0  0
 61133  1  0  0  0
 62134  1  0  0  0
 62135  1  0  0  0
 62136  1  0  0  0
 63 65  1  0  0  0
 63137  1  0  0  0
 63138  1  0  0  0
 63139  1  0  0  0
 64140  1  0  0  0
 65141  1  0  0  0
 68 80  1  0  0  0
 71 72  2  0  0  0
 71 73  1  0  0  0
 71142  1  0  0  0
 72 74  1  0  0  0
 72 79  1  0  0  0
 73 75  2  0  0  0
 73 77  1  0  0  0
 74 76  2  0  0  0
 74 78  1  0  0  0
 75 76  1  0  0  0
 75 81  1  0  0  0
 76 82  1  0  0  0
 77143  1  0  0  0
 77144  1  0  0  0
 77145  1  0  0  0
 78146  1  0  0  0
 78147  1  0  0  0
 78148  1  0  0  0
 79 80  1  0  0  0
 79149  1  0  0  0
 79150  1  0  0  0
 80151  1  0  0  0
 80152  1  0  0  0
 81153  1  0  0  0
M  ISO  4   1 100  68 101  80 101  81 100
M  END
> <chiral flag>
0

> <version>
0

> <s_m_source_file>
/data/baiqing/PycharmProjects/Reinvent-master-3.2/result/LINK_invent/BTK/process_docking_weight1_custom_sum_contain_oxygen_bond_distance_aromatic_linkinvent_7_9_3/rearranged_h_0021.sdf

> <i_m_source_file_index>
45

> <r_mmod_Potential_Energy-OPLS-2005>
1026.69421386719

> <r_mmod_Stretch_Energy-OPLS-2005>
460.666442871094

> <r_mmod_Bend_Energy-OPLS-2005>
396.178161621094

> <r_mmod_Torsional_Energy-OPLS-2005>
243.48095703125

> <r_mmod_Improper_Torsional_Energy-OPLS-2005>
8.42487049102783

> <r_mmod_Van_der_Waal_Energy-OPLS-2005>
129.281860351562

> <r_mmod_Electrostatic_Energy-OPLS-2005>
-379.339630126953

> <r_mmod_Solvation_Energy-OPLS-2005>
-212.029739379883

> <b_mmod_Minimization_Converged-OPLS-2005>
0

> <r_mmod_RMS_Derivative-OPLS-2005>
0.119696602225304

$$$$
46
                    3D
 Structure written by MMmdl.
156164  0  0  1  0            999 V2000
  -30.4427  -15.1922   20.3814 C   0  0  0  0  0  0
  -30.4506  -12.7548   19.5258 C   0  0  0  0  0  0
  -29.5425  -12.5728   18.2847 C   0  0  0  0  0  0
  -28.0846  -12.3078   18.7050 C   0  0  0  0  0  0
  -27.6188  -13.2666   19.8299 C   0  0  2  0  0  0
  -28.6550  -13.3970   20.9664 C   0  0  0  0  0  0
  -25.2364  -13.8158   20.5701 C   0  0  0  0  0  0
  -24.1728  -13.0377   20.9261 C   0  0  0  0  0  0
  -24.6400  -11.6887   20.8753 C   0  0  0  0  0  0
  -23.9097  -10.4265   21.0401 C   0  0  0  0  0  0
  -24.3641   -9.4185   21.9176 C   0  0  0  0  0  0
  -23.6312   -8.2230   22.0746 C   0  0  0  0  0  0
  -22.4285   -8.0286   21.3548 C   0  0  0  0  0  0
  -21.9921   -9.0260   20.4649 C   0  0  0  0  0  0
  -22.7262  -10.2130   20.3056 C   0  0  0  0  0  0
  -21.6860   -6.0742   22.5277 C   0  0  0  0  0  0
  -21.4028   -6.5644   23.8212 C   0  0  0  0  0  0
  -21.3653   -5.6786   24.9171 C   0  0  0  0  0  0
  -21.6049   -4.3049   24.7217 C   0  0  0  0  0  0
  -21.8824   -3.8148   23.4332 C   0  0  0  0  0  0
  -21.9192   -4.6971   22.3393 C   0  0  0  0  0  0
  -22.7750  -13.5161   21.1894 C   0  0  0  0  0  0
  -22.1656   -4.2159   21.0967 F   0  0  0  0  0  0
  -21.5604   -3.4537   25.7725 F   0  0  0  0  0  0
  -29.9012  -13.8831   20.3538 N   0  0  0  0  0  0
  -26.2834  -12.9464   20.3212 N   0  0  0  0  0  0
  -25.9351  -11.6579   20.5736 N   0  0  0  0  0  0
  -22.0394  -12.8187   22.0474 N   0  0  0  0  0  0
  -25.3883  -15.1858   20.4037 N   0  0  0  0  0  0
  -31.6577  -15.2264   20.1402 O   0  0  0  0  0  0
  -21.6638   -6.8890   21.4249 O   0  0  0  0  0  0
  -22.3454  -14.5471   20.6726 O   0  0  0  0  0  0
  -24.6571  -31.8291   23.1761 C   0  0  0  0  0  0
  -25.9290  -32.4607   23.8185 C   0  0  1  0  0  0
  -27.2166  -26.9942   20.1726 C   0  0  0  0  0  0
  -25.5985  -33.8418   24.2091 N   0  0  0  0  0  0
  -23.4664  -30.4450   21.5235 C   0  0  2  0  0  0
  -24.9188  -28.8435   20.1083 C   0  0  0  0  0  0
  -22.7638  -29.4469   22.4800 C   0  0  0  0  0  0
  -18.0306  -28.1389   22.8468 C   0  0  0  0  0  0
  -24.1498  -36.7222   23.2644 C   0  0  0  0  0  0
  -26.0325  -30.6575   21.3974 C   0  0  0  0  0  0
  -26.1008  -29.2554   20.7363 C   0  0  0  0  0  0
  -27.2479  -28.3519   20.7419 C   0  0  0  0  0  0
  -26.0077  -26.7154   19.4995 C   0  0  0  0  0  0
  -24.8948  -27.5936   19.4676 C   0  0  0  0  0  0
  -23.7012  -29.7653   20.1469 C   0  0  0  0  0  0
  -25.4136  -36.2978   24.0292 C   0  0  1  0  0  0
  -20.5937  -28.3732   23.1205 C   0  0  2  0  0  0
  -20.6796  -26.9419   22.5406 C   0  0  0  0  0  0
  -19.5767  -26.6364   21.5221 C   0  0  0  0  0  0
  -18.1943  -26.7923   22.1621 C   0  0  0  0  0  0
  -19.1567  -28.8877   23.2820 C   0  0  0  0  0  0
  -18.9484  -30.1475   23.8845 C   0  0  0  0  0  0
  -17.6477  -30.6587   24.0549 C   0  0  0  0  0  0
  -25.9099  -34.9363   23.5009 C   0  0  0  0  0  0
  -16.5369  -29.9076   23.6340 C   0  0  0  0  0  0
  -16.7287  -28.6493   23.0361 C   0  0  0  0  0  0
  -26.4556  -31.6538   25.0697 C   0  0  0  0  0  0
  -25.3700  -31.3807   26.1366 C   0  0  0  0  0  0
  -27.0453  -30.2898   24.6443 C   0  0  0  0  0  0
  -27.6020  -32.4363   25.7520 C   0  0  0  0  0  0
  -27.5569  -37.1771   24.8451 C   0  0  0  0  0  0
  -21.4312  -29.3032   22.3561 N   0  0  0  0  0  0
  -26.4279  -37.3713   23.9396 N   0  0  0  0  0  0
  -24.7384  -31.0031   22.0852 N   0  0  0  0  0  0
  -23.4229  -28.8041   23.3009 O   0  0  0  0  0  0
  -28.2391  -25.9317   20.2578 O   0  0  0  0  0  0
  -26.5691  -34.8892   22.4599 O   0  0  0  0  0  0
  -23.5661  -32.1218   23.6925 O   0  0  0  0  0  0
  -28.1512  -20.2460   20.2790 C   0  0  0  0  0  0
  -29.1875  -21.2527   20.3645 C   0  0  0  0  0  0
  -28.3243  -18.7719   20.2858 C   0  0  0  0  0  0
  -30.4455  -20.4967   20.4631 C   0  0  0  0  0  0
  -30.6258  -19.0079   20.5210 C   0  0  0  0  0  0
  -29.5685  -18.0075   20.4122 C   0  0  0  0  0  0
  -27.0468  -17.9679   20.1569 C   0  0  0  0  0  0
  -31.6917  -21.3777   20.5267 C   0  0  0  0  0  0
  -32.0251  -18.4581   20.7645 C   0  0  0  0  0  0
  -29.0909  -22.9905   20.5064 C   0  0  0  0  0  0
  -28.0272  -24.3291   20.0678 C   0  0  0  0  0  0
  -29.5986  -16.3941   20.4807 N   0  0  0  0  0  0
  -31.4741  -12.9524   19.2016 H   0  0  0  0  0  0
  -30.5015  -11.8372   20.1121 H   0  0  0  0  0  0
  -29.9115  -11.7550   17.6646 H   0  0  0  0  0  0
  -29.5891  -13.4725   17.6680 H   0  0  0  0  0  0
  -28.0205  -11.2766   19.0550 H   0  0  0  0  0  0
  -27.4230  -12.3785   17.8413 H   0  0  0  0  0  0
  -27.5481  -14.2464   19.3569 H   0  0  0  0  0  0
  -28.8005  -12.4508   21.4890 H   0  0  0  0  0  0
  -28.3076  -14.1121   21.7144 H   0  0  0  0  0  0
  -25.2801   -9.5671   22.4745 H   0  0  0  0  0  0
  -24.0021   -7.4628   22.7472 H   0  0  0  0  0  0
  -21.0833   -8.8805   19.8975 H   0  0  0  0  0  0
  -22.3721  -10.9677   19.6168 H   0  0  0  0  0  0
  -21.2044   -7.6155   23.9727 H   0  0  0  0  0  0
  -21.1459   -6.0505   25.9067 H   0  0  0  0  0  0
  -22.0609   -2.7617   23.2823 H   0  0  0  0  0  0
  -22.4024  -11.9890   22.4928 H   0  0  0  0  0  0
  -21.1015  -13.1222   22.2659 H   0  0  0  0  0  0
  -24.5986  -15.8156   20.4988 H   0  0  0  0  0  0
  -26.1996  -15.6211   19.9914 H   0  0  0  0  0  0
  -26.7354  -32.5163   23.0894 H   0  0  0  0  0  0
  -25.0095  -33.9501   25.0213 H   0  0  0  0  0  0
  -22.7737  -31.2741   21.3615 H   0  0  0  0  0  0
  -23.3765  -35.9547   23.3274 H   0  0  0  0  0  0
  -24.3569  -36.8901   22.2065 H   0  0  0  0  0  0
  -23.7259  -37.6402   23.6720 H   0  0  0  0  0  0
  -26.2166  -31.4090   20.6290 H   0  0  0  0  0  0
  -26.8910  -30.7015   22.0553 H   0  0  0  0  0  0
  -28.1476  -28.6685   21.2513 H   0  0  0  0  0  0
  -25.8919  -25.7569   19.0147 H   0  0  0  0  0  0
  -23.9976  -27.2765   18.9534 H   0  0  0  0  0  0
  -23.8493  -30.5376   19.3913 H   0  0  0  0  0  0
  -22.8103  -29.2202   19.8315 H   0  0  0  0  0  0
  -25.1346  -36.1769   25.0782 H   0  0  0  0  0  0
  -21.0013  -28.3341   24.1332 H   0  0  0  0  0  0
  -20.5693  -26.2351   23.3640 H   0  0  0  0  0  0
  -21.6662  -26.7411   22.1206 H   0  0  0  0  0  0
  -19.6933  -25.6267   21.1269 H   0  0  0  0  0  0
  -19.6709  -27.3160   20.6740 H   0  0  0  0  0  0
  -17.4225  -26.6662   21.4009 H   0  0  0  0  0  0
  -18.0327  -26.0066   22.9017 H   0  0  0  0  0  0
  -19.7964  -30.7301   24.2191 H   0  0  0  0  0  0
  -17.5034  -31.6261   24.5168 H   0  0  0  0  0  0
  -15.5372  -30.2966   23.7691 H   0  0  0  0  0  0
  -15.8682  -28.0802   22.7107 H   0  0  0  0  0  0
  -24.5851  -30.7184   25.7695 H   0  0  0  0  0  0
  -24.8933  -32.3030   26.4692 H   0  0  0  0  0  0
  -25.7937  -30.9029   27.0208 H   0  0  0  0  0  0
  -26.3122  -29.6566   24.1431 H   0  0  0  0  0  0
  -27.3942  -29.7272   25.5116 H   0  0  0  0  0  0
  -27.9083  -30.4045   23.9881 H   0  0  0  0  0  0
  -27.2519  -33.3662   26.2018 H   0  0  0  0  0  0
  -28.3885  -32.6942   25.0416 H   0  0  0  0  0  0
  -28.0635  -31.8566   26.5524 H   0  0  0  0  0  0
  -28.2569  -38.0085   24.7505 H   0  0  0  0  0  0
  -28.1086  -36.2612   24.6275 H   0  0  0  0  0  0
  -27.2277  -37.1411   25.8851 H   0  0  0  0  0  0
  -20.9551  -29.8722   21.6697 H   0  0  0  0  0  0
  -26.0127  -38.2769   24.1410 H   0  0  0  0  0  0
  -27.1385  -20.6223   20.2178 H   0  0  0  0  0  0
  -26.1877  -18.6026   19.9395 H   0  0  0  0  0  0
  -26.8391  -17.4368   21.0853 H   0  0  0  0  0  0
  -27.1374  -17.2476   19.3428 H   0  0  0  0  0  0
  -31.6998  -22.0810   19.6951 H   0  0  0  0  0  0
  -32.6371  -20.8519   20.4379 H   0  0  0  0  0  0
  -31.7051  -21.9423   21.4603 H   0  0  0  0  0  0
  -32.5540  -19.0212   21.5328 H   0  0  0  0  0  0
  -32.6135  -18.4656   19.8466 H   0  0  0  0  0  0
  -32.0001  -17.4441   21.1483 H   0  0  0  0  0  0
  -30.0230  -23.3395   20.0719 H   0  0  0  0  0  0
  -29.2352  -23.1326   21.5774 H   0  0  0  0  0  0
  -27.0662  -24.1114   20.5344 H   0  0  0  0  0  0
  -27.8422  -24.2151   18.9991 H   0  0  0  0  0  0
  -28.6582  -16.0525   20.5988 H   0  0  0  0  0  0
  1 25  1  0  0  0
  1 30  2  0  0  0
  1 82  1  0  0  0
  2  3  1  0  0  0
  2 25  1  0  0  0
  2 83  1  0  0  0
  2 84  1  0  0  0
  3  4  1  0  0  0
  3 85  1  0  0  0
  3 86  1  0  0  0
  4  5  1  0  0  0
  4 87  1  0  0  0
  4 88  1  0  0  0
  5  6  1  0  0  0
  5 26  1  0  0  0
  5 89  1  0  0  0
  6 25  1  0  0  0
  6 90  1  0  0  0
  6 91  1  0  0  0
  7  8  2  0  0  0
  7 26  1  0  0  0
  7 29  1  0  0  0
  8  9  1  0  0  0
  8 22  1  0  0  0
  9 10  1  0  0  0
  9 27  2  0  0  0
 10 11  2  0  0  0
 10 15  1  0  0  0
 11 12  1  0  0  0
 11 92  1  0  0  0
 12 13  2  0  0  0
 12 93  1  0  0  0
 13 14  1  0  0  0
 13 31  1  0  0  0
 14 15  2  0  0  0
 14 94  1  0  0  0
 15 95  1  0  0  0
 16 17  2  0  0  0
 16 21  1  0  0  0
 16 31  1  0  0  0
 17 18  1  0  0  0
 17 96  1  0  0  0
 18 19  2  0  0  0
 18 97  1  0  0  0
 19 20  1  0  0  0
 19 24  1  0  0  0
 20 21  2  0  0  0
 20 98  1  0  0  0
 21 23  1  0  0  0
 22 28  1  0  0  0
 22 32  2  0  0  0
 26 27  1  0  0  0
 28 99  1  0  0  0
 28100  1  0  0  0
 29101  1  0  0  0
 29102  1  0  0  0
 33 34  1  0  0  0
 33 66  1  0  0  0
 33 70  2  0  0  0
 34 36  1  0  0  0
 34 59  1  0  0  0
 34103  1  0  0  0
 35 44  2  0  0  0
 35 45  1  0  0  0
 35 68  1  0  0  0
 36 56  1  0  0  0
 36104  1  0  0  0
 37 39  1  0  0  0
 37 47  1  0  0  0
 37 66  1  0  0  0
 37105  1  0  0  0
 38 43  2  0  0  0
 38 46  1  0  0  0
 38 47  1  0  0  0
 39 64  1  0  0  0
 39 67  2  0  0  0
 40 52  1  0  0  0
 40 53  2  0  0  0
 40 58  1  0  0  0
 41106  1  0  0  0
 41107  1  0  0  0
 41108  1  0  0  0
 41 48  1  0  0  0
 42 43  1  0  0  0
 42 66  1  0  0  0
 42109  1  0  0  0
 42110  1  0  0  0
 43 44  1  0  0  0
 44111  1  0  0  0
 45 46  2  0  0  0
 45112  1  0  0  0
 46113  1  0  0  0
 47114  1  0  0  0
 47115  1  0  0  0
 48 56  1  0  0  0
 48 65  1  0  0  0
 48116  1  0  0  0
 49 50  1  0  0  0
 49 53  1  0  0  0
 49 64  1  0  0  0
 49117  1  0  0  0
 50 51  1  0  0  0
 50118  1  0  0  0
 50119  1  0  0  0
 51 52  1  0  0  0
 51120  1  0  0  0
 51121  1  0  0  0
 52122  1  0  0  0
 52123  1  0  0  0
 53 54  1  0  0  0
 54 55  2  0  0  0
 54124  1  0  0  0
 55 57  1  0  0  0
 55125  1  0  0  0
 56 69  2  0  0  0
 57 58  2  0  0  0
 57126  1  0  0  0
 58127  1  0  0  0
 59 60  1  0  0  0
 59 61  1  0  0  0
 59 62  1  0  0  0
 60128  1  0  0  0
 60129  1  0  0  0
 60130  1  0  0  0
 61131  1  0  0  0
 61132  1  0  0  0
 61133  1  0  0  0
 62134  1  0  0  0
 62135  1  0  0  0
 62136  1  0  0  0
 63 65  1  0  0  0
 63137  1  0  0  0
 63138  1  0  0  0
 63139  1  0  0  0
 64140  1  0  0  0
 65141  1  0  0  0
 68 81  1  0  0  0
 71 72  2  0  0  0
 71 73  1  0  0  0
 71142  1  0  0  0
 72 74  1  0  0  0
 72 80  1  0  0  0
 73 76  2  0  0  0
 73 77  1  0  0  0
 74 75  2  0  0  0
 74 78  1  0  0  0
 75 76  1  0  0  0
 75 79  1  0  0  0
 76 82  1  0  0  0
 77143  1  0  0  0
 77144  1  0  0  0
 77145  1  0  0  0
 78146  1  0  0  0
 78147  1  0  0  0
 78148  1  0  0  0
 79149  1  0  0  0
 79150  1  0  0  0
 79151  1  0  0  0
 80 81  1  0  0  0
 80152  1  0  0  0
 80153  1  0  0  0
 81154  1  0  0  0
 81155  1  0  0  0
 82156  1  0  0  0
M  ISO  4   1 100  68 101  81 101  82 100
M  END
> <chiral flag>
0

> <version>
0

> <s_m_source_file>
/data/baiqing/PycharmProjects/Reinvent-master-3.2/result/LINK_invent/BTK/process_docking_weight1_custom_sum_contain_oxygen_bond_distance_aromatic_linkinvent_7_9_3/rearranged_h_0021.sdf

> <i_m_source_file_index>
46

> <r_mmod_Potential_Energy-OPLS-2005>
1007.50598144531

> <r_mmod_Stretch_Energy-OPLS-2005>
463.875854492188

> <r_mmod_Bend_Energy-OPLS-2005>
419.287811279297

> <r_mmod_Torsional_Energy-OPLS-2005>
214.226593017578

> <r_mmod_Improper_Torsional_Energy-OPLS-2005>
5.25356197357178

> <r_mmod_Van_der_Waal_Energy-OPLS-2005>
141.023696899414

> <r_mmod_Electrostatic_Energy-OPLS-2005>
-406.997863769531

> <r_mmod_Solvation_Energy-OPLS-2005>
-204.781936645508

> <b_mmod_Minimization_Converged-OPLS-2005>
0

> <r_mmod_RMS_Derivative-OPLS-2005>
2.17233681678772

$$$$
47
                    3D
 Structure written by MMmdl.
174183  0  0  1  0            999 V2000
  -30.7048  -14.4860   20.4200 C   0  0  0  0  0  0
  -30.4276  -12.2515   19.4507 C   0  0  0  0  0  0
  -29.5070  -12.3697   18.2157 C   0  0  0  0  0  0
  -28.0076  -12.3412   18.6058 C   0  0  0  0  0  0
  -27.6495  -13.1748   19.8692 C   0  0  2  0  0  0
  -28.7115  -12.9816   20.9740 C   0  0  0  0  0  0
  -25.2550  -13.8008   20.5670 C   0  0  0  0  0  0
  -24.1794  -13.0379   20.9152 C   0  0  0  0  0  0
  -24.6329  -11.6835   20.8764 C   0  0  0  0  0  0
  -23.8985  -10.4275   21.0461 C   0  0  0  0  0  0
  -24.3558   -9.4189   21.9225 C   0  0  0  0  0  0
  -23.6257   -8.2216   22.0774 C   0  0  0  0  0  0
  -22.4250   -8.0255   21.3553 C   0  0  0  0  0  0
  -21.9863   -9.0231   20.4661 C   0  0  0  0  0  0
  -22.7172  -10.2123   20.3089 C   0  0  0  0  0  0
  -21.6852   -6.0728   22.5274 C   0  0  0  0  0  0
  -21.4026   -6.5638   23.8204 C   0  0  0  0  0  0
  -21.3639   -5.6783   24.9159 C   0  0  0  0  0  0
  -21.6025   -4.3039   24.7214 C   0  0  0  0  0  0
  -21.8822   -3.8149   23.4341 C   0  0  0  0  0  0
  -21.9203   -4.6966   22.3402 C   0  0  0  0  0  0
  -22.7832  -13.5221   21.1802 C   0  0  0  0  0  0
  -22.1667   -4.2158   21.0981 F   0  0  0  0  0  0
  -21.5620   -3.4517   25.7727 F   0  0  0  0  0  0
  -30.0342  -13.2948   20.4111 N   0  0  0  0  0  0
  -26.2972  -12.9122   20.3404 N   0  0  0  0  0  0
  -25.9245  -11.6334   20.5820 N   0  0  0  0  0  0
  -22.0473  -12.8277   22.0370 N   0  0  0  0  0  0
  -25.4219  -15.1748   20.4083 N   0  0  0  0  0  0
  -31.9109  -14.5223   20.1731 O   0  0  0  0  0  0
  -21.6623   -6.8861   21.4235 O   0  0  0  0  0  0
  -22.3550  -14.5548   20.6630 O   0  0  0  0  0  0
  -24.6129  -31.8672   23.2118 C   0  0  0  0  0  0
  -25.9018  -32.4821   23.8439 C   0  0  1  0  0  0
  -27.2684  -27.4521   20.0987 C   0  0  0  0  0  0
  -25.5899  -33.8625   24.2378 N   0  0  0  0  0  0
  -23.4085  -30.4855   21.5440 C   0  0  2  0  0  0
  -24.8653  -28.9424   20.1326 C   0  0  0  0  0  0
  -22.7437  -29.4630   22.4948 C   0  0  0  0  0  0
  -18.0276  -28.1378   22.8488 C   0  0  0  0  0  0
  -24.1485  -36.7295   23.2639 C   0  0  0  0  0  0
  -25.9362  -30.8317   21.3761 C   0  0  0  0  0  0
  -26.0183  -29.4645   20.7290 C   0  0  0  0  0  0
  -27.2163  -28.7198   20.7192 C   0  0  0  0  0  0
  -26.0885  -26.9325   19.5168 C   0  0  0  0  0  0
  -24.8914  -27.6727   19.5304 C   0  0  0  0  0  0
  -23.6335  -29.8104   20.1636 C   0  0  0  0  0  0
  -25.4107  -36.3105   24.0349 C   0  0  1  0  0  0
  -20.5870  -28.3672   23.1309 C   0  0  2  0  0  0
  -20.6760  -26.9408   22.5404 C   0  0  0  0  0  0
  -19.5730  -26.6394   21.5203 C   0  0  0  0  0  0
  -18.1920  -26.7923   22.1624 C   0  0  0  0  0  0
  -19.1529  -28.8844   23.2893 C   0  0  0  0  0  0
  -18.9451  -30.1441   23.8920 C   0  0  0  0  0  0
  -17.6451  -30.6580   24.0574 C   0  0  0  0  0  0
  -25.9028  -34.9470   23.5160 C   0  0  0  0  0  0
  -16.5352  -29.9084   23.6323 C   0  0  0  0  0  0
  -16.7271  -28.6497   23.0354 C   0  0  0  0  0  0
  -26.4481  -31.6602   25.0765 C   0  0  0  0  0  0
  -25.3776  -31.3699   26.1534 C   0  0  0  0  0  0
  -27.0336  -30.3042   24.6172 C   0  0  0  0  0  0
  -27.6075  -32.4314   25.7507 C   0  0  0  0  0  0
  -27.5581  -37.1810   24.8473 C   0  0  0  0  0  0
  -21.4160  -29.3043   22.3722 N   0  0  0  0  0  0
  -26.4297  -37.3787   23.9419 N   0  0  0  0  0  0
  -24.6678  -31.0787   22.1005 N   0  0  0  0  0  0
  -23.4206  -28.8148   23.2973 O   0  0  0  0  0  0
  -28.4670  -26.7705   20.1258 O   0  0  0  0  0  0
  -26.5567  -34.8913   22.4700 O   0  0  0  0  0  0
  -23.5308  -32.1398   23.7509 O   0  0  0  0  0  0
  -28.0717  -19.2958   17.9177 C   0  0  0  0  0  0
  -28.3696  -20.5924   18.3651 C   0  0  0  0  0  0
  -28.6591  -18.3978   18.7434 C   0  0  0  0  0  0
  -29.1014  -20.4538   19.5244 C   0  0  0  0  0  0
  -28.3359  -16.9502   18.6670 C   0  0  0  0  0  0
  -29.4658  -15.9855   18.8763 C   0  0  0  0  0  0
  -30.9717  -17.0417   20.4858 C   0  0  0  0  0  0
  -30.5159  -18.5427   20.5904 C   0  0  1  0  0  0
  -29.9617  -15.8707   20.3385 C   0  0  1  0  0  0
  -27.8673  -21.8025   17.6276 C   0  0  0  0  0  0
  -31.8567  -19.3210   20.5305 C   0  0  0  0  0  0
  -28.9096  -16.0399   21.4653 C   0  0  0  0  0  0
  -29.4775  -21.5280   20.5333 C   0  0  0  0  0  0
  -29.1597  -24.4270   19.8080 C   0  0  0  0  0  0
  -28.0188  -23.6828   20.5521 C   0  0  0  0  0  0
  -28.7566  -25.7631   19.1542 C   0  0  0  0  0  0
  -29.4992  -19.0906   19.6297 N   0  0  0  0  0  0
  -28.3320  -22.3141   21.0628 N   0  3  0  0  0  0
  -31.4751  -12.3149   19.1489 H   0  0  0  0  0  0
  -30.3214  -11.2638   19.9064 H   0  0  0  0  0  0
  -29.7053  -11.5322   17.5449 H   0  0  0  0  0  0
  -29.7545  -13.2550   17.6337 H   0  0  0  0  0  0
  -27.7414  -11.2955   18.7676 H   0  0  0  0  0  0
  -27.3971  -12.6670   17.7654 H   0  0  0  0  0  0
  -27.6321  -14.2102   19.5689 H   0  0  0  0  0  0
  -28.6967  -11.9396   21.2984 H   0  0  0  0  0  0
  -28.4952  -13.5358   21.8836 H   0  0  0  0  0  0
  -25.2719   -9.5656   22.4764 H   0  0  0  0  0  0
  -23.9983   -7.4605   22.7479 H   0  0  0  0  0  0
  -21.0798   -8.8723   19.8967 H   0  0  0  0  0  0
  -22.3644  -10.9646   19.6170 H   0  0  0  0  0  0
  -21.2028   -7.6150   23.9698 H   0  0  0  0  0  0
  -21.1449   -6.0525   25.9054 H   0  0  0  0  0  0
  -22.0635   -2.7621   23.2831 H   0  0  0  0  0  0
  -22.4067  -11.9915   22.4731 H   0  0  0  0  0  0
  -21.1099  -13.1331   22.2570 H   0  0  0  0  0  0
  -24.6575  -15.8268   20.5396 H   0  0  0  0  0  0
  -26.2845  -15.6237   20.1390 H   0  0  0  0  0  0
  -26.7101  -32.5578   23.1228 H   0  0  0  0  0  0
  -25.0146  -33.9796   25.0586 H   0  0  0  0  0  0
  -22.6957  -31.2975   21.3898 H   0  0  0  0  0  0
  -23.3750  -35.9623   23.3320 H   0  0  0  0  0  0
  -24.3573  -36.8879   22.2047 H   0  0  0  0  0  0
  -23.7239  -37.6508   23.6632 H   0  0  0  0  0  0
  -26.0653  -31.5973   20.6105 H   0  0  0  0  0  0
  -26.8155  -30.8811   22.0070 H   0  0  0  0  0  0
  -28.1097  -29.1204   21.1781 H   0  0  0  0  0  0
  -26.0740  -25.9545   19.0627 H   0  0  0  0  0  0
  -23.9991  -27.2612   19.0805 H   0  0  0  0  0  0
  -23.7857  -30.5796   19.4060 H   0  0  0  0  0  0
  -22.7655  -29.2340   19.8398 H   0  0  0  0  0  0
  -25.1282  -36.1963   25.0840 H   0  0  0  0  0  0
  -20.9958  -28.3224   24.1430 H   0  0  0  0  0  0
  -20.5658  -26.2277   23.3588 H   0  0  0  0  0  0
  -21.6626  -26.7435   22.1196 H   0  0  0  0  0  0
  -19.6889  -25.6311   21.1208 H   0  0  0  0  0  0
  -19.6662  -27.3224   20.6744 H   0  0  0  0  0  0
  -17.4184  -26.6688   21.4031 H   0  0  0  0  0  0
  -18.0321  -26.0057   22.9009 H   0  0  0  0  0  0
  -19.7932  -30.7246   24.2308 H   0  0  0  0  0  0
  -17.5014  -31.6254   24.5184 H   0  0  0  0  0  0
  -15.5354  -30.3001   23.7615 H   0  0  0  0  0  0
  -15.8675  -28.0819   22.7066 H   0  0  0  0  0  0
  -24.5945  -30.7042   25.7889 H   0  0  0  0  0  0
  -24.8990  -32.2855   26.5019 H   0  0  0  0  0  0
  -25.8165  -30.8858   27.0272 H   0  0  0  0  0  0
  -26.2899  -29.6773   24.1245 H   0  0  0  0  0  0
  -27.4114  -29.7304   25.4649 H   0  0  0  0  0  0
  -27.8732  -30.4359   23.9343 H   0  0  0  0  0  0
  -27.2721  -33.3604   26.2126 H   0  0  0  0  0  0
  -28.3865  -32.6877   25.0316 H   0  0  0  0  0  0
  -28.0776  -31.8418   26.5389 H   0  0  0  0  0  0
  -28.2606  -38.0096   24.7509 H   0  0  0  0  0  0
  -28.1067  -36.2632   24.6313 H   0  0  0  0  0  0
  -27.2302  -37.1481   25.8875 H   0  0  0  0  0  0
  -20.9316  -29.8865   21.7037 H   0  0  0  0  0  0
  -26.0180  -38.2862   24.1409 H   0  0  0  0  0  0
  -27.4294  -19.0423   17.0863 H   0  0  0  0  0  0
  -27.9348  -16.7478   17.6721 H   0  0  0  0  0  0
  -27.5039  -16.7288   19.3275 H   0  0  0  0  0  0
  -29.1148  -15.0410   18.4901 H   0  0  0  0  0  0
  -30.2731  -16.2273   18.1841 H   0  0  0  0  0  0
  -31.5864  -16.8295   21.3645 H   0  0  0  0  0  0
  -31.6801  -16.9690   19.6587 H   0  0  0  0  0  0
  -30.0994  -18.6922   21.5864 H   0  0  0  0  0  0
  -28.4297  -21.9137   16.7019 H   0  0  0  0  0  0
  -27.9701  -22.7191   18.1769 H   0  0  0  0  0  0
  -26.8108  -21.6972   17.3735 H   0  0  0  0  0  0
  -32.4537  -19.0291   19.6645 H   0  0  0  0  0  0
  -32.4585  -19.1004   21.4140 H   0  0  0  0  0  0
  -31.7654  -20.4008   20.4813 H   0  0  0  0  0  0
  -29.2991  -15.6924   22.4230 H   0  0  0  0  0  0
  -27.9780  -15.5230   21.2746 H   0  0  0  0  0  0
  -28.6117  -17.0740   21.6120 H   0  0  0  0  0  0
  -30.3049  -22.1412   20.1821 H   0  0  0  0  0  0
  -29.8483  -21.0482   21.4358 H   0  0  0  0  0  0
  -29.5592  -23.8208   18.9970 H   0  0  0  0  0  0
  -30.0061  -24.5727   20.4766 H   0  0  0  0  0  0
  -27.1136  -23.6361   19.9438 H   0  0  0  0  0  0
  -27.7220  -24.2787   21.4164 H   0  0  0  0  0  0
  -29.6299  -26.1156   18.6055 H   0  0  0  0  0  0
  -27.9932  -25.6210   18.3907 H   0  0  0  0  0  0
  -28.5181  -22.4105   22.0481 H   0  0  0  0  0  0
  -27.5042  -21.7456   20.9871 H   0  0  0  0  0  0
  1 25  1  0  0  0
  1 30  2  0  0  0
  1 79  1  0  0  0
  2  3  1  0  0  0
  2 25  1  0  0  0
  2 89  1  0  0  0
  2 90  1  0  0  0
  3  4  1  0  0  0
  3 91  1  0  0  0
  3 92  1  0  0  0
  4  5  1  0  0  0
  4 93  1  0  0  0
  4 94  1  0  0  0
  5  6  1  0  0  0
  5 26  1  0  0  0
  5 95  1  0  0  0
  6 25  1  0  0  0
  6 96  1  0  0  0
  6 97  1  0  0  0
  7  8  2  0  0  0
  7 26  1  0  0  0
  7 29  1  0  0  0
  8  9  1  0  0  0
  8 22  1  0  0  0
  9 10  1  0  0  0
  9 27  2  0  0  0
 10 11  2  0  0  0
 10 15  1  0  0  0
 11 12  1  0  0  0
 11 98  1  0  0  0
 12 13  2  0  0  0
 12 99  1  0  0  0
 13 14  1  0  0  0
 13 31  1  0  0  0
 14 15  2  0  0  0
 14100  1  0  0  0
 15101  1  0  0  0
 16 17  2  0  0  0
 16 21  1  0  0  0
 16 31  1  0  0  0
 17 18  1  0  0  0
 17102  1  0  0  0
 18 19  2  0  0  0
 18103  1  0  0  0
 19 20  1  0  0  0
 19 24  1  0  0  0
 20 21  2  0  0  0
 20104  1  0  0  0
 21 23  1  0  0  0
 22 28  1  0  0  0
 22 32  2  0  0  0
 26 27  1  0  0  0
 28105  1  0  0  0
 28106  1  0  0  0
 29107  1  0  0  0
 29108  1  0  0  0
 33 34  1  0  0  0
 33 66  1  0  0  0
 33 70  2  0  0  0
 34 36  1  0  0  0
 34 59  1  0  0  0
 34109  1  0  0  0
 35 44  2  0  0  0
 35 45  1  0  0  0
 35 68  1  0  0  0
 36 56  1  0  0  0
 36110  1  0  0  0
 37 39  1  0  0  0
 37 47  1  0  0  0
 37 66  1  0  0  0
 37111  1  0  0  0
 38 43  2  0  0  0
 38 46  1  0  0  0
 38 47  1  0  0  0
 39 64  1  0  0  0
 39 67  2  0  0  0
 40 52  1  0  0  0
 40 53  2  0  0  0
 40 58  1  0  0  0
 41112  1  0  0  0
 41113  1  0  0  0
 41114  1  0  0  0
 41 48  1  0  0  0
 42 43  1  0  0  0
 42 66  1  0  0  0
 42115  1  0  0  0
 42116  1  0  0  0
 43 44  1  0  0  0
 44117  1  0  0  0
 45 46  2  0  0  0
 45118  1  0  0  0
 46119  1  0  0  0
 47120  1  0  0  0
 47121  1  0  0  0
 48 56  1  0  0  0
 48 65  1  0  0  0
 48122  1  0  0  0
 49 50  1  0  0  0
 49 53  1  0  0  0
 49 64  1  0  0  0
 49123  1  0  0  0
 50 51  1  0  0  0
 50124  1  0  0  0
 50125  1  0  0  0
 51 52  1  0  0  0
 51126  1  0  0  0
 51127  1  0  0  0
 52128  1  0  0  0
 52129  1  0  0  0
 53 54  1  0  0  0
 54 55  2  0  0  0
 54130  1  0  0  0
 55 57  1  0  0  0
 55131  1  0  0  0
 56 69  2  0  0  0
 57 58  2  0  0  0
 57132  1  0  0  0
 58133  1  0  0  0
 59 60  1  0  0  0
 59 61  1  0  0  0
 59 62  1  0  0  0
 60134  1  0  0  0
 60135  1  0  0  0
 60136  1  0  0  0
 61137  1  0  0  0
 61138  1  0  0  0
 61139  1  0  0  0
 62140  1  0  0  0
 62141  1  0  0  0
 62142  1  0  0  0
 63 65  1  0  0  0
 63143  1  0  0  0
 63144  1  0  0  0
 63145  1  0  0  0
 64146  1  0  0  0
 65147  1  0  0  0
 68 86  1  0  0  0
 71 72  1  0  0  0
 71 73  2  0  0  0
 71148  1  0  0  0
 72 74  2  0  0  0
 72 80  1  0  0  0
 73 75  1  0  0  0
 73 87  1  0  0  0
 74 83  1  0  0  0
 74 87  1  0  0  0
 75 76  1  0  0  0
 75149  1  0  0  0
 75150  1  0  0  0
 76 79  1  0  0  0
 76151  1  0  0  0
 76152  1  0  0  0
 77 78  1  0  0  0
 77 79  1  0  0  0
 77153  1  0  0  0
 77154  1  0  0  0
 78 81  1  0  0  0
 78 87  1  0  0  0
 78155  1  0  0  0
 79 82  1  0  0  0
 80156  1  0  0  0
 80157  1  0  0  0
 80158  1  0  0  0
 81159  1  0  0  0
 81160  1  0  0  0
 81161  1  0  0  0
 82162  1  0  0  0
 82163  1  0  0  0
 82164  1  0  0  0
 83 88  1  0  0  0
 83165  1  0  0  0
 83166  1  0  0  0
 84 85  1  0  0  0
 84 86  1  0  0  0
 84167  1  0  0  0
 84168  1  0  0  0
 85 88  1  0  0  0
 85169  1  0  0  0
 85170  1  0  0  0
 86171  1  0  0  0
 86172  1  0  0  0
 88173  1  0  0  0
 88174  1  0  0  0
M  CHG  1  88   1
M  ISO  4   1 100  68 101  79 100  86 101
M  END
> <chiral flag>
0

> <version>
0

> <s_m_source_file>
/data/baiqing/PycharmProjects/Reinvent-master-3.2/result/LINK_invent/BTK/process_docking_weight1_custom_sum_contain_oxygen_bond_distance_aromatic_linkinvent_7_9_3/rearranged_h_0021.sdf

> <i_m_source_file_index>
47

> <r_mmod_Potential_Energy-OPLS-2005>
14.6692390441895

> <r_mmod_Stretch_Energy-OPLS-2005>
54.2303352355957

> <r_mmod_Bend_Energy-OPLS-2005>
197.780395507812

> <r_mmod_Torsional_Energy-OPLS-2005>
294.268249511719

> <r_mmod_Improper_Torsional_Energy-OPLS-2005>
9.70595455169678

> <r_mmod_Van_der_Waal_Energy-OPLS-2005>
165.106246948242

> <r_mmod_Electrostatic_Energy-OPLS-2005>
-305.369049072266

> <r_mmod_Solvation_Energy-OPLS-2005>
-428.058563232422

> <b_mmod_Minimization_Converged-OPLS-2005>
0

> <r_mmod_RMS_Derivative-OPLS-2005>
5.22230434417725

$$$$
48
                    3D
 Structure written by MMmdl.
159167  0  0  1  0            999 V2000
  -30.6003  -14.8731   20.5116 C   0  0  0  0  0  0
  -30.4278  -12.5557   19.5086 C   0  0  0  0  0  0
  -29.5143  -12.5242   18.2644 C   0  0  0  0  0  0
  -28.0520  -12.3055   18.6854 C   0  0  0  0  0  0
  -27.6304  -13.2404   19.8454 C   0  0  2  0  0  0
  -28.6632  -13.2540   20.9931 C   0  0  0  0  0  0
  -25.2404  -13.8149   20.5548 C   0  0  0  0  0  0
  -24.1720  -13.0404   20.9129 C   0  0  0  0  0  0
  -24.6356  -11.6898   20.8725 C   0  0  0  0  0  0
  -23.9042  -10.4293   21.0397 C   0  0  0  0  0  0
  -24.3598   -9.4226   21.9175 C   0  0  0  0  0  0
  -23.6293   -8.2241   22.0737 C   0  0  0  0  0  0
  -22.4277   -8.0268   21.3525 C   0  0  0  0  0  0
  -21.9888   -9.0251   20.4624 C   0  0  0  0  0  0
  -22.7204  -10.2137   20.3049 C   0  0  0  0  0  0
  -21.6849   -6.0735   22.5274 C   0  0  0  0  0  0
  -21.4023   -6.5630   23.8213 C   0  0  0  0  0  0
  -21.3673   -5.6778   24.9185 C   0  0  0  0  0  0
  -21.6064   -4.3039   24.7231 C   0  0  0  0  0  0
  -21.8828   -3.8137   23.4339 C   0  0  0  0  0  0
  -21.9200   -4.6962   22.3399 C   0  0  0  0  0  0
  -22.7781  -13.5223   21.1812 C   0  0  0  0  0  0
  -22.1663   -4.2150   21.0972 F   0  0  0  0  0  0
  -21.5631   -3.4509   25.7735 F   0  0  0  0  0  0
  -29.9591  -13.6407   20.4205 N   0  0  0  0  0  0
  -26.2853  -12.9401   20.3235 N   0  0  0  0  0  0
  -25.9295  -11.6530   20.5733 N   0  0  0  0  0  0
  -22.0440  -12.8308   22.0449 N   0  0  0  0  0  0
  -25.3968  -15.1846   20.3799 N   0  0  0  0  0  0
  -31.7381  -14.9466   20.0353 O   0  0  0  0  0  0
  -21.6641   -6.8869   21.4222 O   0  0  0  0  0  0
  -22.3483  -14.5537   20.6644 O   0  0  0  0  0  0
  -24.6379  -31.8495   23.1964 C   0  0  0  0  0  0
  -25.9195  -32.4709   23.8299 C   0  0  1  0  0  0
  -27.2073  -27.1781   20.1425 C   0  0  0  0  0  0
  -25.5961  -33.8510   24.2223 N   0  0  0  0  0  0
  -23.4391  -30.4704   21.5403 C   0  0  2  0  0  0
  -24.8879  -28.9117   20.1067 C   0  0  0  0  0  0
  -22.7570  -29.4537   22.4897 C   0  0  0  0  0  0
  -18.0301  -28.1397   22.8484 C   0  0  0  0  0  0
  -24.1490  -36.7270   23.2636 C   0  0  0  0  0  0
  -25.9925  -30.7355   21.3900 C   0  0  0  0  0  0
  -26.0617  -29.3521   20.7280 C   0  0  0  0  0  0
  -27.2242  -28.4999   20.7307 C   0  0  0  0  0  0
  -26.0106  -26.8366   19.4708 C   0  0  0  0  0  0
  -24.8745  -27.6688   19.4571 C   0  0  0  0  0  0
  -23.6649  -29.8090   20.1550 C   0  0  0  0  0  0
  -25.4113  -36.3048   24.0323 C   0  0  1  0  0  0
  -20.5909  -28.3685   23.1307 C   0  0  2  0  0  0
  -20.6787  -26.9375   22.5480 C   0  0  0  0  0  0
  -19.5763  -26.6343   21.5274 C   0  0  0  0  0  0
  -18.1938  -26.7933   22.1632 C   0  0  0  0  0  0
  -19.1557  -28.8849   23.2890 C   0  0  0  0  0  0
  -18.9466  -30.1454   23.8887 C   0  0  0  0  0  0
  -17.6462  -30.6579   24.0575 C   0  0  0  0  0  0
  -25.9062  -34.9412   23.5076 C   0  0  0  0  0  0
  -16.5357  -29.9075   23.6337 C   0  0  0  0  0  0
  -16.7288  -28.6513   23.0342 C   0  0  0  0  0  0
  -26.4525  -31.6556   25.0711 C   0  0  0  0  0  0
  -25.3741  -31.3763   26.1440 C   0  0  0  0  0  0
  -27.0358  -30.2948   24.6265 C   0  0  0  0  0  0
  -27.6059  -32.4323   25.7496 C   0  0  0  0  0  0
  -27.5575  -37.1795   24.8461 C   0  0  0  0  0  0
  -21.4256  -29.3035   22.3691 N   0  0  0  0  0  0
  -26.4276  -37.3754   23.9416 N   0  0  0  0  0  0
  -24.7092  -31.0402   22.0966 N   0  0  0  0  0  0
  -23.4269  -28.8058   23.2983 O   0  0  0  0  0  0
  -28.2550  -26.2032   20.2303 O   0  0  0  0  0  0
  -26.5630  -34.8903   22.4637 O   0  0  0  0  0  0
  -23.5515  -32.1330   23.7244 O   0  0  0  0  0  0
  -29.9789  -19.7993   20.0246 C   0  0  0  0  0  0
  -28.7412  -20.3416   20.5022 C   0  0  0  0  0  0
  -30.3970  -18.4102   20.1676 C   0  0  0  0  0  0
  -27.9321  -19.3171   21.1240 C   0  0  0  0  0  0
  -29.6060  -17.3936   20.8222 C   0  0  0  0  0  0
  -28.3707  -17.9382   21.3175 C   0  0  0  0  0  0
  -31.7701  -18.0524   19.6360 C   0  0  0  0  0  0
  -26.5203  -19.7066   21.5651 C   0  0  0  0  0  0
  -30.3966  -15.8717   22.6337 C   0  0  0  0  0  0
  -28.1662  -21.8599   20.1962 C   0  0  0  0  0  0
  -28.8321  -23.3632   20.4241 C   0  0  0  0  0  0
  -27.9214  -24.7091   20.0648 C   0  0  0  0  0  0
  -30.0380  -15.9706   21.2101 N   0  0  0  0  0  0
  -27.3676  -16.8659   22.2428 Cl  0  0  0  0  0  0
  -31.4669  -12.6818   19.2021 H   0  0  0  0  0  0
  -30.3932  -11.5992   20.0302 H   0  0  0  0  0  0
  -29.8302  -11.7279   17.5890 H   0  0  0  0  0  0
  -29.6057  -13.4562   17.7071 H   0  0  0  0  0  0
  -27.9607  -11.2655   19.0030 H   0  0  0  0  0  0
  -27.3793  -12.4188   17.8344 H   0  0  0  0  0  0
  -27.6056  -14.2457   19.4232 H   0  0  0  0  0  0
  -28.7258  -12.2856   21.4860 H   0  0  0  0  0  0
  -28.3436  -13.9626   21.7560 H   0  0  0  0  0  0
  -25.2727   -9.5749   22.4773 H   0  0  0  0  0  0
  -24.0021   -7.4668   22.7482 H   0  0  0  0  0  0
  -21.0804   -8.8797   19.8952 H   0  0  0  0  0  0
  -22.3639  -10.9716   19.6192 H   0  0  0  0  0  0
  -21.2014   -7.6127   23.9716 H   0  0  0  0  0  0
  -21.1462   -6.0498   25.9092 H   0  0  0  0  0  0
  -22.0580   -2.7589   23.2849 H   0  0  0  0  0  0
  -22.4028  -12.0004   22.4912 H   0  0  0  0  0  0
  -21.1053  -13.1354   22.2591 H   0  0  0  0  0  0
  -24.6359  -15.8376   20.5293 H   0  0  0  0  0  0
  -26.2829  -15.6379   20.2046 H   0  0  0  0  0  0
  -26.7241  -32.5325   23.1010 H   0  0  0  0  0  0
  -25.0087  -33.9608   25.0360 H   0  0  0  0  0  0
  -22.7343  -31.2919   21.3973 H   0  0  0  0  0  0
  -23.3746  -35.9604   23.3260 H   0  0  0  0  0  0
  -24.3571  -36.8926   22.2055 H   0  0  0  0  0  0
  -23.7240  -37.6458   23.6680 H   0  0  0  0  0  0
  -26.1410  -31.4914   20.6178 H   0  0  0  0  0  0
  -26.8659  -30.7797   22.0276 H   0  0  0  0  0  0
  -28.1186  -28.8299   21.2404 H   0  0  0  0  0  0
  -25.9140  -25.8924   18.9577 H   0  0  0  0  0  0
  -23.9821  -27.3332   18.9461 H   0  0  0  0  0  0
  -23.7986  -30.5872   19.4033 H   0  0  0  0  0  0
  -22.7830  -29.2483   19.8454 H   0  0  0  0  0  0
  -25.1302  -36.1858   25.0810 H   0  0  0  0  0  0
  -20.9982  -28.3252   24.1451 H   0  0  0  0  0  0
  -20.5670  -26.2281   23.3703 H   0  0  0  0  0  0
  -21.6669  -26.7363   22.1281 H   0  0  0  0  0  0
  -19.6895  -25.6249   21.1332 H   0  0  0  0  0  0
  -19.6736  -27.3116   20.6785 H   0  0  0  0  0  0
  -17.4233  -26.6727   21.4012 H   0  0  0  0  0  0
  -18.0252  -26.0081   22.9008 H   0  0  0  0  0  0
  -19.7944  -30.7286   24.2264 H   0  0  0  0  0  0
  -17.5019  -31.6254   24.5202 H   0  0  0  0  0  0
  -15.5362  -30.2966   23.7693 H   0  0  0  0  0  0
  -15.8704  -28.0847   22.7038 H   0  0  0  0  0  0
  -24.5939  -30.7075   25.7805 H   0  0  0  0  0  0
  -24.8916  -32.2946   26.4809 H   0  0  0  0  0  0
  -25.8059  -30.9014   27.0252 H   0  0  0  0  0  0
  -26.2947  -29.6713   24.1264 H   0  0  0  0  0  0
  -27.3938  -29.7229   25.4828 H   0  0  0  0  0  0
  -27.8873  -30.4161   23.9561 H   0  0  0  0  0  0
  -27.2639  -33.3630   26.2035 H   0  0  0  0  0  0
  -28.3888  -32.6875   25.0345 H   0  0  0  0  0  0
  -28.0680  -31.8463   26.5455 H   0  0  0  0  0  0
  -28.2602  -38.0096   24.7513 H   0  0  0  0  0  0
  -28.1060  -36.2624   24.6259 H   0  0  0  0  0  0
  -27.2291  -37.1405   25.8865 H   0  0  0  0  0  0
  -20.9425  -29.8834   21.6960 H   0  0  0  0  0  0
  -26.0144  -38.2811   24.1439 H   0  0  0  0  0  0
  -30.6359  -20.4833   19.5056 H   0  0  0  0  0  0
  -32.2259  -18.8825   19.0978 H   0  0  0  0  0  0
  -31.7092  -17.2221   18.9348 H   0  0  0  0  0  0
  -32.4303  -17.7785   20.4609 H   0  0  0  0  0  0
  -25.9937  -20.1820   20.7376 H   0  0  0  0  0  0
  -26.5611  -20.4072   22.4008 H   0  0  0  0  0  0
  -25.8764  -18.8772   21.8580 H   0  0  0  0  0  0
  -30.1113  -16.7611   23.1982 H   0  0  0  0  0  0
  -31.4764  -15.7594   22.7639 H   0  0  0  0  0  0
  -29.9074  -15.0229   23.1100 H   0  0  0  0  0  0
  -27.2396  -21.9601   20.7587 H   0  0  0  0  0  0
  -27.8324  -21.8236   19.1585 H   0  0  0  0  0  0
  -29.7586  -23.4153   19.8514 H   0  0  0  0  0  0
  -29.1310  -23.4495   21.4691 H   0  0  0  0  0  0
  -26.9864  -24.5642   20.6060 H   0  0  0  0  0  0
  -27.6722  -24.5893   19.0103 H   0  0  0  0  0  0
  1 25  1  0  0  0
  1 30  2  0  0  0
  1 83  1  0  0  0
  2  3  1  0  0  0
  2 25  1  0  0  0
  2 85  1  0  0  0
  2 86  1  0  0  0
  3  4  1  0  0  0
  3 87  1  0  0  0
  3 88  1  0  0  0
  4  5  1  0  0  0
  4 89  1  0  0  0
  4 90  1  0  0  0
  5  6  1  0  0  0
  5 26  1  0  0  0
  5 91  1  0  0  0
  6 25  1  0  0  0
  6 92  1  0  0  0
  6 93  1  0  0  0
  7  8  2  0  0  0
  7 26  1  0  0  0
  7 29  1  0  0  0
  8  9  1  0  0  0
  8 22  1  0  0  0
  9 10  1  0  0  0
  9 27  2  0  0  0
 10 11  2  0  0  0
 10 15  1  0  0  0
 11 12  1  0  0  0
 11 94  1  0  0  0
 12 13  2  0  0  0
 12 95  1  0  0  0
 13 14  1  0  0  0
 13 31  1  0  0  0
 14 15  2  0  0  0
 14 96  1  0  0  0
 15 97  1  0  0  0
 16 17  2  0  0  0
 16 21  1  0  0  0
 16 31  1  0  0  0
 17 18  1  0  0  0
 17 98  1  0  0  0
 18 19  2  0  0  0
 18 99  1  0  0  0
 19 20  1  0  0  0
 19 24  1  0  0  0
 20 21  2  0  0  0
 20100  1  0  0  0
 21 23  1  0  0  0
 22 28  1  0  0  0
 22 32  2  0  0  0
 26 27  1  0  0  0
 28101  1  0  0  0
 28102  1  0  0  0
 29103  1  0  0  0
 29104  1  0  0  0
 33 34  1  0  0  0
 33 66  1  0  0  0
 33 70  2  0  0  0
 34 36  1  0  0  0
 34 59  1  0  0  0
 34105  1  0  0  0
 35 44  2  0  0  0
 35 45  1  0  0  0
 35 68  1  0  0  0
 36 56  1  0  0  0
 36106  1  0  0  0
 37 39  1  0  0  0
 37 47  1  0  0  0
 37 66  1  0  0  0
 37107  1  0  0  0
 38 43  2  0  0  0
 38 46  1  0  0  0
 38 47  1  0  0  0
 39 64  1  0  0  0
 39 67  2  0  0  0
 40 52  1  0  0  0
 40 53  2  0  0  0
 40 58  1  0  0  0
 41108  1  0  0  0
 41109  1  0  0  0
 41110  1  0  0  0
 41 48  1  0  0  0
 42 43  1  0  0  0
 42 66  1  0  0  0
 42111  1  0  0  0
 42112  1  0  0  0
 43 44  1  0  0  0
 44113  1  0  0  0
 45 46  2  0  0  0
 45114  1  0  0  0
 46115  1  0  0  0
 47116  1  0  0  0
 47117  1  0  0  0
 48 56  1  0  0  0
 48 65  1  0  0  0
 48118  1  0  0  0
 49 50  1  0  0  0
 49 53  1  0  0  0
 49 64  1  0  0  0
 49119  1  0  0  0
 50 51  1  0  0  0
 50120  1  0  0  0
 50121  1  0  0  0
 51 52  1  0  0  0
 51122  1  0  0  0
 51123  1  0  0  0
 52124  1  0  0  0
 52125  1  0  0  0
 53 54  1  0  0  0
 54 55  2  0  0  0
 54126  1  0  0  0
 55 57  1  0  0  0
 55127  1  0  0  0
 56 69  2  0  0  0
 57 58  2  0  0  0
 57128  1  0  0  0
 58129  1  0  0  0
 59 60  1  0  0  0
 59 61  1  0  0  0
 59 62  1  0  0  0
 60130  1  0  0  0
 60131  1  0  0  0
 60132  1  0  0  0
 61133  1  0  0  0
 61134  1  0  0  0
 61135  1  0  0  0
 62136  1  0  0  0
 62137  1  0  0  0
 62138  1  0  0  0
 63 65  1  0  0  0
 63139  1  0  0  0
 63140  1  0  0  0
 63141  1  0  0  0
 64142  1  0  0  0
 65143  1  0  0  0
 68 82  1  0  0  0
 71 72  2  0  0  0
 71 73  1  0  0  0
 71144  1  0  0  0
 72 74  1  0  0  0
 72 80  1  0  0  0
 73 75  2  0  0  0
 73 77  1  0  0  0
 74 76  2  0  0  0
 74 78  1  0  0  0
 75 76  1  0  0  0
 75 83  1  0  0  0
 76 84  1  0  0  0
 77145  1  0  0  0
 77146  1  0  0  0
 77147  1  0  0  0
 78148  1  0  0  0
 78149  1  0  0  0
 78150  1  0  0  0
 79 83  1  0  0  0
 79151  1  0  0  0
 79152  1  0  0  0
 79153  1  0  0  0
 80 81  1  0  0  0
 80154  1  0  0  0
 80155  1  0  0  0
 81 82  1  0  0  0
 81156  1  0  0  0
 81157  1  0  0  0
 82158  1  0  0  0
 82159  1  0  0  0
M  ISO  4   1 100  68 101  82 101  83 100
M  END
> <chiral flag>
0

> <version>
0

> <s_m_source_file>
/data/baiqing/PycharmProjects/Reinvent-master-3.2/result/LINK_invent/BTK/process_docking_weight1_custom_sum_contain_oxygen_bond_distance_aromatic_linkinvent_7_9_3/rearranged_h_0021.sdf

> <i_m_source_file_index>
48

> <r_mmod_Potential_Energy-OPLS-2005>
591.700500488281

> <r_mmod_Stretch_Energy-OPLS-2005>
213.190170288086

> <r_mmod_Bend_Energy-OPLS-2005>
258.086364746094

> <r_mmod_Torsional_Energy-OPLS-2005>
306.678070068359

> <r_mmod_Improper_Torsional_Energy-OPLS-2005>
6.40564584732056

> <r_mmod_Van_der_Waal_Energy-OPLS-2005>
148.970932006836

> <r_mmod_Electrostatic_Energy-OPLS-2005>
-317.916564941406

> <r_mmod_Solvation_Energy-OPLS-2005>
-176.049362182617

> <b_mmod_Minimization_Converged-OPLS-2005>
0

> <r_mmod_RMS_Derivative-OPLS-2005>
4.19816827774048

$$$$
49
                    3D
 Structure written by MMmdl.
156164  0  0  1  0            999 V2000
  -30.4587  -15.1976   20.3493 C   0  0  0  0  0  0
  -30.4378  -12.7455   19.5404 C   0  0  0  0  0  0
  -29.5381  -12.5645   18.2915 C   0  0  0  0  0  0
  -28.0801  -12.3021   18.7077 C   0  0  0  0  0  0
  -27.6149  -13.2713   19.8222 C   0  0  2  0  0  0
  -28.6446  -13.4198   20.9606 C   0  0  0  0  0  0
  -25.2414  -13.8249   20.5737 C   0  0  0  0  0  0
  -24.1750  -13.0450   20.9237 C   0  0  0  0  0  0
  -24.6386  -11.6941   20.8748 C   0  0  0  0  0  0
  -23.9070  -10.4305   21.0403 C   0  0  0  0  0  0
  -24.3622   -9.4223   21.9182 C   0  0  0  0  0  0
  -23.6302   -8.2254   22.0754 C   0  0  0  0  0  0
  -22.4284   -8.0282   21.3545 C   0  0  0  0  0  0
  -21.9914   -9.0256   20.4652 C   0  0  0  0  0  0
  -22.7237  -10.2136   20.3061 C   0  0  0  0  0  0
  -21.6857   -6.0736   22.5282 C   0  0  0  0  0  0
  -21.4013   -6.5639   23.8217 C   0  0  0  0  0  0
  -21.3662   -5.6788   24.9178 C   0  0  0  0  0  0
  -21.6048   -4.3052   24.7221 C   0  0  0  0  0  0
  -21.8816   -3.8148   23.4340 C   0  0  0  0  0  0
  -21.9192   -4.6963   22.3397 C   0  0  0  0  0  0
  -22.7770  -13.5219   21.1889 C   0  0  0  0  0  0
  -22.1665   -4.2147   21.0975 F   0  0  0  0  0  0
  -21.5623   -3.4535   25.7734 F   0  0  0  0  0  0
  -29.9007  -13.8913   20.3587 N   0  0  0  0  0  0
  -26.2829  -12.9513   20.3188 N   0  0  0  0  0  0
  -25.9324  -11.6623   20.5689 N   0  0  0  0  0  0
  -22.0422  -12.8214   22.0455 N   0  0  0  0  0  0
  -25.4085  -15.1981   20.4198 N   0  0  0  0  0  0
  -31.6714  -15.1873   20.0983 O   0  0  0  0  0  0
  -21.6644   -6.8882   21.4250 O   0  0  0  0  0  0
  -22.3448  -14.5524   20.6736 O   0  0  0  0  0  0
  -24.6618  -31.8280   23.1756 C   0  0  0  0  0  0
  -25.9315  -32.4608   23.8204 C   0  0  1  0  0  0
  -27.2121  -26.9639   20.1674 C   0  0  0  0  0  0
  -25.6000  -33.8419   24.2113 N   0  0  0  0  0  0
  -23.4735  -30.4449   21.5240 C   0  0  2  0  0  0
  -24.9240  -28.8428   20.1109 C   0  0  0  0  0  0
  -22.7658  -29.4480   22.4780 C   0  0  0  0  0  0
  -18.0324  -28.1409   22.8461 C   0  0  0  0  0  0
  -24.1492  -36.7205   23.2638 C   0  0  0  0  0  0
  -26.0427  -30.6446   21.4024 C   0  0  0  0  0  0
  -26.1103  -29.2401   20.7413 C   0  0  0  0  0  0
  -27.2512  -28.3220   20.7467 C   0  0  0  0  0  0
  -25.9973  -26.7171   19.4867 C   0  0  0  0  0  0
  -24.8914  -27.5996   19.4643 C   0  0  0  0  0  0
  -23.7111  -29.7690   20.1475 C   0  0  0  0  0  0
  -25.4129  -36.2974   24.0306 C   0  0  1  0  0  0
  -20.5948  -28.3761   23.1179 C   0  0  2  0  0  0
  -20.6805  -26.9445   22.5391 C   0  0  0  0  0  0
  -19.5781  -26.6381   21.5204 C   0  0  0  0  0  0
  -18.1965  -26.7940   22.1616 C   0  0  0  0  0  0
  -19.1583  -28.8902   23.2808 C   0  0  0  0  0  0
  -18.9497  -30.1491   23.8848 C   0  0  0  0  0  0
  -17.6491  -30.6596   24.0554 C   0  0  0  0  0  0
  -25.9102  -34.9357   23.5025 C   0  0  0  0  0  0
  -16.5382  -29.9086   23.6335 C   0  0  0  0  0  0
  -16.7307  -28.6504   23.0357 C   0  0  0  0  0  0
  -26.4576  -31.6530   25.0713 C   0  0  0  0  0  0
  -25.3717  -31.3773   26.1383 C   0  0  0  0  0  0
  -27.0459  -30.2890   24.6432 C   0  0  0  0  0  0
  -27.6078  -32.4331   25.7513 C   0  0  0  0  0  0
  -27.5586  -37.1739   24.8452 C   0  0  0  0  0  0
  -21.4328  -29.3057   22.3528 N   0  0  0  0  0  0
  -26.4264  -37.3722   23.9439 N   0  0  0  0  0  0
  -24.7467  -30.9981   22.0877 N   0  0  0  0  0  0
  -23.4219  -28.8038   23.3007 O   0  0  0  0  0  0
  -28.1990  -25.8548   20.2400 O   0  0  0  0  0  0
  -26.5692  -34.8891   22.4609 O   0  0  0  0  0  0
  -23.5694  -32.1237   23.6870 O   0  0  0  0  0  0
  -28.5660  -21.8123   21.3095 C   0  0  0  0  0  0
  -29.3925  -19.5564   20.2142 C   0  0  0  0  0  0
  -28.9433  -20.3708   21.3384 C   0  0  0  0  0  0
  -28.5654  -22.7283   20.1743 C   0  0  0  0  0  0
  -29.4105  -20.4745   19.0724 C   0  0  0  0  0  0
  -28.9987  -21.9125   19.0470 C   0  0  0  0  0  0
  -29.9712  -17.9636   20.1905 C   0  0  0  0  0  0
  -29.6254  -16.5737   20.4859 C   0  0  0  0  0  0
  -28.8863  -19.6668   22.6802 C   0  0  0  0  0  0
  -29.9031  -19.8632   17.7640 C   0  0  0  0  0  0
  -27.9197  -22.2011   16.9700 C   0  0  0  0  0  0
  -27.7910  -24.2854   20.0716 C   0  0  0  0  0  0
  -28.9869  -22.5697   17.8405 O   0  0  0  0  0  0
  -31.4665  -12.9176   19.2223 H   0  0  0  0  0  0
  -30.4669  -11.8285   20.1314 H   0  0  0  0  0  0
  -29.9084  -11.7468   17.6720 H   0  0  0  0  0  0
  -29.5857  -13.4637   17.6757 H   0  0  0  0  0  0
  -28.0230  -11.2751   19.0697 H   0  0  0  0  0  0
  -27.4160  -12.3590   17.8442 H   0  0  0  0  0  0
  -27.5427  -14.2447   19.3365 H   0  0  0  0  0  0
  -28.7830  -12.4818   21.5004 H   0  0  0  0  0  0
  -28.2922  -14.1459   21.6943 H   0  0  0  0  0  0
  -25.2758   -9.5704   22.4759 H   0  0  0  0  0  0
  -24.0012   -7.4645   22.7470 H   0  0  0  0  0  0
  -21.0841   -8.8774   19.8962 H   0  0  0  0  0  0
  -22.3689  -10.9673   19.6173 H   0  0  0  0  0  0
  -21.2015   -7.6149   23.9721 H   0  0  0  0  0  0
  -21.1488   -6.0517   25.9080 H   0  0  0  0  0  0
  -22.0596   -2.7610   23.2833 H   0  0  0  0  0  0
  -22.4045  -11.9870   22.4832 H   0  0  0  0  0  0
  -21.1055  -13.1256   22.2685 H   0  0  0  0  0  0
  -24.6418  -15.8511   20.5363 H   0  0  0  0  0  0
  -26.2580  -15.6405   20.0929 H   0  0  0  0  0  0
  -26.7387  -32.5149   23.0921 H   0  0  0  0  0  0
  -25.0122  -33.9509   25.0247 H   0  0  0  0  0  0
  -22.7853  -31.2763   21.3597 H   0  0  0  0  0  0
  -23.3790  -35.9495   23.3222 H   0  0  0  0  0  0
  -24.3592  -36.8924   22.2070 H   0  0  0  0  0  0
  -23.7200  -37.6354   23.6733 H   0  0  0  0  0  0
  -26.2257  -31.3911   20.6281 H   0  0  0  0  0  0
  -26.9026  -30.6937   22.0586 H   0  0  0  0  0  0
  -28.1491  -28.6223   21.2686 H   0  0  0  0  0  0
  -25.8538  -25.7756   18.9813 H   0  0  0  0  0  0
  -23.9918  -27.2886   18.9504 H   0  0  0  0  0  0
  -23.8698  -30.5433   19.3962 H   0  0  0  0  0  0
  -22.8192  -29.2293   19.8237 H   0  0  0  0  0  0
  -25.1314  -36.1764   25.0792 H   0  0  0  0  0  0
  -21.0043  -28.3375   24.1300 H   0  0  0  0  0  0
  -20.5695  -26.2382   23.3632 H   0  0  0  0  0  0
  -21.6669  -26.7428   22.1196 H   0  0  0  0  0  0
  -19.6944  -25.6280   21.1268 H   0  0  0  0  0  0
  -19.6715  -27.3157   20.6708 H   0  0  0  0  0  0
  -17.4230  -26.6668   21.4027 H   0  0  0  0  0  0
  -18.0372  -26.0097   22.9029 H   0  0  0  0  0  0
  -19.7976  -30.7309   24.2202 H   0  0  0  0  0  0
  -17.5048  -31.6271   24.5171 H   0  0  0  0  0  0
  -15.5380  -30.2973   23.7692 H   0  0  0  0  0  0
  -15.8709  -28.0809   22.7099 H   0  0  0  0  0  0
  -24.5874  -30.7161   25.7691 H   0  0  0  0  0  0
  -24.8940  -32.2969   26.4759 H   0  0  0  0  0  0
  -25.7955  -30.8954   27.0200 H   0  0  0  0  0  0
  -26.3111  -29.6573   24.1428 H   0  0  0  0  0  0
  -27.3977  -29.7257   25.5086 H   0  0  0  0  0  0
  -27.9066  -30.4074   23.9849 H   0  0  0  0  0  0
  -27.2645  -33.3652   26.2017 H   0  0  0  0  0  0
  -28.3921  -32.6867   25.0368 H   0  0  0  0  0  0
  -28.0710  -31.8507   26.5488 H   0  0  0  0  0  0
  -28.2520  -38.0120   24.7612 H   0  0  0  0  0  0
  -28.1163  -36.2654   24.6122 H   0  0  0  0  0  0
  -27.2324  -37.1194   25.8853 H   0  0  0  0  0  0
  -20.9575  -29.8746   21.6655 H   0  0  0  0  0  0
  -26.0108  -38.2762   24.1517 H   0  0  0  0  0  0
  -28.2083  -22.2368   22.2377 H   0  0  0  0  0  0
  -30.9939  -17.9904   19.8416 H   0  0  0  0  0  0
  -28.6195  -16.4376   20.8522 H   0  0  0  0  0  0
  -28.5633  -20.3321   23.4804 H   0  0  0  0  0  0
  -29.8722  -19.2822   22.9438 H   0  0  0  0  0  0
  -28.1947  -18.8256   22.6386 H   0  0  0  0  0  0
  -30.7750  -19.2291   17.9207 H   0  0  0  0  0  0
  -30.2087  -20.6152   17.0379 H   0  0  0  0  0  0
  -29.1158  -19.2560   17.3161 H   0  0  0  0  0  0
  -27.3974  -23.0964   16.6317 H   0  0  0  0  0  0
  -27.1841  -21.5444   17.4384 H   0  0  0  0  0  0
  -28.3099  -21.6968   16.0856 H   0  0  0  0  0  0
  -26.9295  -24.1745   20.7311 H   0  0  0  0  0  0
  -27.3630  -24.2472   19.0720 H   0  0  0  0  0  0
  1 25  1  0  0  0
  1 30  2  0  0  0
  1 78  1  0  0  0
  2  3  1  0  0  0
  2 25  1  0  0  0
  2 84  1  0  0  0
  2 85  1  0  0  0
  3  4  1  0  0  0
  3 86  1  0  0  0
  3 87  1  0  0  0
  4  5  1  0  0  0
  4 88  1  0  0  0
  4 89  1  0  0  0
  5  6  1  0  0  0
  5 26  1  0  0  0
  5 90  1  0  0  0
  6 25  1  0  0  0
  6 91  1  0  0  0
  6 92  1  0  0  0
  7  8  2  0  0  0
  7 26  1  0  0  0
  7 29  1  0  0  0
  8  9  1  0  0  0
  8 22  1  0  0  0
  9 10  1  0  0  0
  9 27  2  0  0  0
 10 11  2  0  0  0
 10 15  1  0  0  0
 11 12  1  0  0  0
 11 93  1  0  0  0
 12 13  2  0  0  0
 12 94  1  0  0  0
 13 14  1  0  0  0
 13 31  1  0  0  0
 14 15  2  0  0  0
 14 95  1  0  0  0
 15 96  1  0  0  0
 16 17  2  0  0  0
 16 21  1  0  0  0
 16 31  1  0  0  0
 17 18  1  0  0  0
 17 97  1  0  0  0
 18 19  2  0  0  0
 18 98  1  0  0  0
 19 20  1  0  0  0
 19 24  1  0  0  0
 20 21  2  0  0  0
 20 99  1  0  0  0
 21 23  1  0  0  0
 22 28  1  0  0  0
 22 32  2  0  0  0
 26 27  1  0  0  0
 28100  1  0  0  0
 28101  1  0  0  0
 29102  1  0  0  0
 29103  1  0  0  0
 33 34  1  0  0  0
 33 66  1  0  0  0
 33 70  2  0  0  0
 34 36  1  0  0  0
 34 59  1  0  0  0
 34104  1  0  0  0
 35 44  2  0  0  0
 35 45  1  0  0  0
 35 68  1  0  0  0
 36 56  1  0  0  0
 36105  1  0  0  0
 37 39  1  0  0  0
 37 47  1  0  0  0
 37 66  1  0  0  0
 37106  1  0  0  0
 38 43  2  0  0  0
 38 46  1  0  0  0
 38 47  1  0  0  0
 39 64  1  0  0  0
 39 67  2  0  0  0
 40 52  1  0  0  0
 40 53  2  0  0  0
 40 58  1  0  0  0
 41107  1  0  0  0
 41108  1  0  0  0
 41109  1  0  0  0
 41 48  1  0  0  0
 42 43  1  0  0  0
 42 66  1  0  0  0
 42110  1  0  0  0
 42111  1  0  0  0
 43 44  1  0  0  0
 44112  1  0  0  0
 45 46  2  0  0  0
 45113  1  0  0  0
 46114  1  0  0  0
 47115  1  0  0  0
 47116  1  0  0  0
 48 56  1  0  0  0
 48 65  1  0  0  0
 48117  1  0  0  0
 49 50  1  0  0  0
 49 53  1  0  0  0
 49 64  1  0  0  0
 49118  1  0  0  0
 50 51  1  0  0  0
 50119  1  0  0  0
 50120  1  0  0  0
 51 52  1  0  0  0
 51121  1  0  0  0
 51122  1  0  0  0
 52123  1  0  0  0
 52124  1  0  0  0
 53 54  1  0  0  0
 54 55  2  0  0  0
 54125  1  0  0  0
 55 57  1  0  0  0
 55126  1  0  0  0
 56 69  2  0  0  0
 57 58  2  0  0  0
 57127  1  0  0  0
 58128  1  0  0  0
 59 60  1  0  0  0
 59 61  1  0  0  0
 59 62  1  0  0  0
 60129  1  0  0  0
 60130  1  0  0  0
 60131  1  0  0  0
 61132  1  0  0  0
 61133  1  0  0  0
 61134  1  0  0  0
 62135  1  0  0  0
 62136  1  0  0  0
 62137  1  0  0  0
 63 65  1  0  0  0
 63138  1  0  0  0
 63139  1  0  0  0
 63140  1  0  0  0
 64141  1  0  0  0
 65142  1  0  0  0
 68 82  1  0  0  0
 71 73  2  0  0  0
 71 74  1  0  0  0
 71143  1  0  0  0
 72 73  1  0  0  0
 72 75  2  0  0  0
 72 77  1  0  0  0
 73 79  1  0  0  0
 74 76  2  0  0  0
 74 82  1  0  0  0
 75 76  1  0  0  0
 75 80  1  0  0  0
 76 83  1  0  0  0
 77 78  2  0  0  0
 77144  1  0  0  0
 78145  1  0  0  0
 79146  1  0  0  0
 79147  1  0  0  0
 79148  1  0  0  0
 80149  1  0  0  0
 80150  1  0  0  0
 80151  1  0  0  0
 81 83  1  0  0  0
 81152  1  0  0  0
 81153  1  0  0  0
 81154  1  0  0  0
 82155  1  0  0  0
 82156  1  0  0  0
M  ISO  4   1 100  68 101  78 100  82 101
M  END
> <chiral flag>
0

> <version>
0

> <s_m_source_file>
/data/baiqing/PycharmProjects/Reinvent-master-3.2/result/LINK_invent/BTK/process_docking_weight1_custom_sum_contain_oxygen_bond_distance_aromatic_linkinvent_7_9_3/rearranged_h_0021.sdf

> <i_m_source_file_index>
49

> <r_mmod_Potential_Energy-OPLS-2005>
1105.79040527344

> <r_mmod_Stretch_Energy-OPLS-2005>
460.528381347656

> <r_mmod_Bend_Energy-OPLS-2005>
388.533020019531

> <r_mmod_Torsional_Energy-OPLS-2005>
254.287231445312

> <r_mmod_Improper_Torsional_Energy-OPLS-2005>
7.38713312149048

> <r_mmod_Van_der_Waal_Energy-OPLS-2005>
136.873062133789

> <r_mmod_Electrostatic_Energy-OPLS-2005>
-338.833831787109

> <r_mmod_Solvation_Energy-OPLS-2005>
-200.518341064453

> <b_mmod_Minimization_Converged-OPLS-2005>
0

> <r_mmod_RMS_Derivative-OPLS-2005>
1.60825765132904

$$$$
50
                    3D
 Structure written by MMmdl.
180188  0  0  1  0            999 V2000
  -30.4548  -15.1933   20.3418 C   0  0  0  0  0  0
  -30.4247  -12.7518   19.5178 C   0  0  0  0  0  0
  -29.5296  -12.5433   18.2769 C   0  0  0  0  0  0
  -28.0799  -12.2638   18.7099 C   0  0  0  0  0  0
  -27.6005  -13.2565   19.7992 C   0  0  2  0  0  0
  -28.6258  -13.4485   20.9326 C   0  0  0  0  0  0
  -25.2370  -13.8175   20.5636 C   0  0  0  0  0  0
  -24.1707  -13.0419   20.9259 C   0  0  0  0  0  0
  -24.6365  -11.6926   20.8767 C   0  0  0  0  0  0
  -23.9041  -10.4303   21.0442 C   0  0  0  0  0  0
  -24.3604   -9.4206   21.9215 C   0  0  0  0  0  0
  -23.6293   -8.2228   22.0768 C   0  0  0  0  0  0
  -22.4261   -8.0277   21.3570 C   0  0  0  0  0  0
  -21.9890   -9.0236   20.4652 C   0  0  0  0  0  0
  -22.7211  -10.2137   20.3095 C   0  0  0  0  0  0
  -21.6839   -6.0748   22.5298 C   0  0  0  0  0  0
  -21.3997   -6.5652   23.8229 C   0  0  0  0  0  0
  -21.3673   -5.6797   24.9186 C   0  0  0  0  0  0
  -21.6031   -4.3062   24.7215 C   0  0  0  0  0  0
  -21.8815   -3.8161   23.4332 C   0  0  0  0  0  0
  -21.9190   -4.6990   22.3397 C   0  0  0  0  0  0
  -22.7757  -13.5231   21.1918 C   0  0  0  0  0  0
  -22.1662   -4.2167   21.0976 F   0  0  0  0  0  0
  -21.5618   -3.4546   25.7728 F   0  0  0  0  0  0
  -29.8686  -13.9083   20.2965 N   0  0  0  0  0  0
  -26.2734  -12.9405   20.3053 N   0  0  0  0  0  0
  -25.9276  -11.6545   20.5658 N   0  0  0  0  0  0
  -22.0408  -12.8209   22.0470 N   0  0  0  0  0  0
  -25.3989  -15.1845   20.3924 N   0  0  0  0  0  0
  -31.6885  -15.1667   20.2269 O   0  0  0  0  0  0
  -21.6643   -6.8873   21.4255 O   0  0  0  0  0  0
  -22.3431  -14.5552   20.6794 O   0  0  0  0  0  0
  -24.6609  -31.8306   23.1705 C   0  0  0  0  0  0
  -25.9325  -32.4620   23.8135 C   0  0  1  0  0  0
  -27.1872  -26.9772   20.1331 C   0  0  0  0  0  0
  -25.6007  -33.8431   24.2064 N   0  0  0  0  0  0
  -23.4617  -30.4512   21.5254 C   0  0  2  0  0  0
  -24.9017  -28.8515   20.0937 C   0  0  0  0  0  0
  -22.7610  -29.4526   22.4799 C   0  0  0  0  0  0
  -18.0366  -28.1419   22.8450 C   0  0  0  0  0  0
  -24.1507  -36.7245   23.2630 C   0  0  0  0  0  0
  -26.0284  -30.6518   21.3821 C   0  0  0  0  0  0
  -26.0861  -29.2472   20.7256 C   0  0  0  0  0  0
  -27.2225  -28.3282   20.7271 C   0  0  0  0  0  0
  -25.9787  -26.7285   19.4462 C   0  0  0  0  0  0
  -24.8696  -27.6116   19.4376 C   0  0  0  0  0  0
  -23.6862  -29.7786   20.1442 C   0  0  0  0  0  0
  -25.4135  -36.2991   24.0299 C   0  0  1  0  0  0
  -20.5957  -28.3802   23.1242 C   0  0  2  0  0  0
  -20.6878  -26.9486   22.5452 C   0  0  0  0  0  0
  -19.5914  -26.6425   21.5215 C   0  0  0  0  0  0
  -18.2066  -26.7957   22.1595 C   0  0  0  0  0  0
  -19.1596  -28.8933   23.2836 C   0  0  0  0  0  0
  -18.9493  -30.1517   23.8884 C   0  0  0  0  0  0
  -17.6478  -30.6617   24.0534 C   0  0  0  0  0  0
  -25.9114  -34.9387   23.4993 C   0  0  0  0  0  0
  -16.5375  -29.9099   23.6302 C   0  0  0  0  0  0
  -16.7326  -28.6515   23.0319 C   0  0  0  0  0  0
  -26.4601  -31.6516   25.0624 C   0  0  0  0  0  0
  -25.3768  -31.3756   26.1295 C   0  0  0  0  0  0
  -27.0434  -30.2886   24.6255 C   0  0  0  0  0  0
  -27.6106  -32.4271   25.7454 C   0  0  0  0  0  0
  -27.5574  -37.1775   24.8457 C   0  0  0  0  0  0
  -21.4297  -29.3105   22.3574 N   0  0  0  0  0  0
  -26.4280  -37.3721   23.9409 N   0  0  0  0  0  0
  -24.7404  -31.0008   22.0812 N   0  0  0  0  0  0
  -23.4209  -28.8076   23.2989 O   0  0  0  0  0  0
  -28.1960  -25.8969   20.2393 O   0  0  0  0  0  0
  -26.5693  -34.8927   22.4578 O   0  0  0  0  0  0
  -23.5695  -32.1275   23.6836 O   0  0  0  0  0  0
  -28.3392  -17.7983   22.5909 C   0  0  0  0  0  0
  -29.7740  -18.1470   22.1131 C   0  0  0  0  0  0
  -27.5310  -19.4315   20.8334 C   0  0  0  0  0  0
  -27.2585  -18.1021   21.5335 C   0  0  2  0  0  0
  -28.8696  -19.4685   20.0710 C   0  0  1  0  0  0
  -29.9146  -18.0895   20.5708 C   0  0  1  0  0  0
  -32.0096  -19.6681   20.7205 C   0  0  0  0  0  0
  -21.1460  -19.0936   25.9664 C   0  0  0  0  0  0
  -25.8196  -17.9871   22.0521 C   0  0  0  0  0  0
  -29.0894  -21.2204   19.7527 C   0  0  0  0  0  0
  -31.3604  -18.4152   20.1084 C   0  0  0  0  0  0
  -21.7182  -19.1223   24.5511 C   0  0  0  0  0  0
  -25.3200  -19.0663   23.0234 C   0  0  0  0  0  0
  -28.5306  -22.7555   20.4614 C   0  0  0  0  0  0
  -23.2411  -19.3046   24.5434 C   0  0  0  0  0  0
  -23.8021  -18.9152   23.1776 C   0  0  0  0  0  0
  -28.1229  -24.3385   19.7548 C   0  0  0  0  0  0
  -29.6938  -16.4583   20.3108 N   0  0  0  0  0  0
  -31.4506  -12.9429   19.1967 H   0  0  0  0  0  0
  -30.4640  -11.8512   20.1299 H   0  0  0  0  0  0
  -29.9106  -11.7264   17.6611 H   0  0  0  0  0  0
  -29.5597  -13.4363   17.6500 H   0  0  0  0  0  0
  -28.0468  -11.2458   19.1028 H   0  0  0  0  0  0
  -27.4112  -12.2762   17.8471 H   0  0  0  0  0  0
  -27.5117  -14.2122   19.2822 H   0  0  0  0  0  0
  -28.7643  -12.5363   21.5155 H   0  0  0  0  0  0
  -28.2555  -14.2097   21.6234 H   0  0  0  0  0  0
  -25.2750   -9.5657   22.4800 H   0  0  0  0  0  0
  -24.0017   -7.4593   22.7456 H   0  0  0  0  0  0
  -21.0837   -8.8721   19.8919 H   0  0  0  0  0  0
  -22.3658  -10.9677   19.6211 H   0  0  0  0  0  0
  -21.1981   -7.6155   23.9730 H   0  0  0  0  0  0
  -21.1508   -6.0529   25.9088 H   0  0  0  0  0  0
  -22.0585   -2.7620   23.2823 H   0  0  0  0  0  0
  -22.4039  -11.9878   22.4839 H   0  0  0  0  0  0
  -21.1048  -13.1247   22.2729 H   0  0  0  0  0  0
  -24.6336  -15.8350   20.5217 H   0  0  0  0  0  0
  -26.2177  -15.6110   19.9840 H   0  0  0  0  0  0
  -26.7361  -32.5175   23.0807 H   0  0  0  0  0  0
  -25.0157  -33.9501   25.0210 H   0  0  0  0  0  0
  -22.7716  -31.2857   21.3721 H   0  0  0  0  0  0
  -23.3766  -35.9576   23.3250 H   0  0  0  0  0  0
  -24.3583  -36.8927   22.2051 H   0  0  0  0  0  0
  -23.7277  -37.6440   23.6703 H   0  0  0  0  0  0
  -26.1855  -31.3903   20.5932 H   0  0  0  0  0  0
  -26.8980  -30.7097   22.0225 H   0  0  0  0  0  0
  -28.1214  -28.6260   21.2450 H   0  0  0  0  0  0
  -25.8364  -25.7952   18.9240 H   0  0  0  0  0  0
  -23.9681  -27.3148   18.9172 H   0  0  0  0  0  0
  -23.8333  -30.5598   19.3980 H   0  0  0  0  0  0
  -22.7885  -29.2470   19.8258 H   0  0  0  0  0  0
  -25.1317  -36.1782   25.0788 H   0  0  0  0  0  0
  -21.0057  -28.3499   24.1351 H   0  0  0  0  0  0
  -20.5770  -26.2409   23.3708 H   0  0  0  0  0  0
  -21.6780  -26.7570   22.1272 H   0  0  0  0  0  0
  -19.7123  -25.6334   21.1254 H   0  0  0  0  0  0
  -19.6914  -27.3260   20.6748 H   0  0  0  0  0  0
  -17.4330  -26.6661   21.4007 H   0  0  0  0  0  0
  -18.0515  -26.0113   22.9027 H   0  0  0  0  0  0
  -19.7942  -30.7370   24.2267 H   0  0  0  0  0  0
  -17.5017  -31.6301   24.5119 H   0  0  0  0  0  0
  -15.5372  -30.2990   23.7616 H   0  0  0  0  0  0
  -15.8740  -28.0806   22.7040 H   0  0  0  0  0  0
  -24.5970  -30.7059   25.7628 H   0  0  0  0  0  0
  -24.8945  -32.2964   26.4601 H   0  0  0  0  0  0
  -25.8057  -30.9031   27.0132 H   0  0  0  0  0  0
  -26.3035  -29.6590   24.1286 H   0  0  0  0  0  0
  -27.4024  -29.7205   25.4839 H   0  0  0  0  0  0
  -27.8968  -30.4046   23.9566 H   0  0  0  0  0  0
  -27.2691  -33.3593   26.1954 H   0  0  0  0  0  0
  -28.4015  -32.6758   25.0371 H   0  0  0  0  0  0
  -28.0657  -31.8421   26.5450 H   0  0  0  0  0  0
  -28.2559  -38.0098   24.7486 H   0  0  0  0  0  0
  -28.1093  -36.2614   24.6281 H   0  0  0  0  0  0
  -27.2281  -37.1424   25.8856 H   0  0  0  0  0  0
  -20.9521  -29.8816   21.6726 H   0  0  0  0  0  0
  -26.0129  -38.2778   24.1412 H   0  0  0  0  0  0
  -28.1267  -18.3479   23.5080 H   0  0  0  0  0  0
  -28.2709  -16.7415   22.8521 H   0  0  0  0  0  0
  -30.5006  -17.4960   22.5999 H   0  0  0  0  0  0
  -29.9907  -19.1539   22.4666 H   0  0  0  0  0  0
  -27.5462  -20.2181   21.5853 H   0  0  0  0  0  0
  -26.7134  -19.6812   20.1548 H   0  0  0  0  0  0
  -27.3196  -17.3298   20.7688 H   0  0  0  0  0  0
  -28.6348  -19.1137   19.0631 H   0  0  0  0  0  0
  -32.6864  -20.1458   20.0136 H   0  0  0  0  0  0
  -31.2899  -20.4129   21.0460 H   0  0  0  0  0  0
  -32.5949  -19.4075   21.6012 H   0  0  0  0  0  0
  -20.0573  -19.0589   25.9408 H   0  0  0  0  0  0
  -21.4576  -19.9704   26.5338 H   0  0  0  0  0  0
  -21.4842  -18.2024   26.4958 H   0  0  0  0  0  0
  -25.6918  -17.0145   22.5274 H   0  0  0  0  0  0
  -25.1577  -17.9808   21.1836 H   0  0  0  0  0  0
  -28.6199  -21.2970   18.7702 H   0  0  0  0  0  0
  -30.1335  -21.3679   19.4854 H   0  0  0  0  0  0
  -32.0400  -17.5971   20.3344 H   0  0  0  0  0  0
  -31.3647  -18.4995   19.0196 H   0  0  0  0  0  0
  -21.2550  -19.9149   23.9596 H   0  0  0  0  0  0
  -21.4520  -18.1862   24.0578 H   0  0  0  0  0  0
  -25.5362  -20.0687   22.6525 H   0  0  0  0  0  0
  -25.8284  -18.9821   23.9841 H   0  0  0  0  0  0
  -29.2573  -22.9793   21.2401 H   0  0  0  0  0  0
  -27.6348  -22.4921   21.0262 H   0  0  0  0  0  0
  -23.6944  -18.6717   25.3074 H   0  0  0  0  0  0
  -23.5002  -20.3339   24.7958 H   0  0  0  0  0  0
  -23.5225  -17.8742   22.9995 H   0  0  0  0  0  0
  -23.3076  -19.4883   22.3929 H   0  0  0  0  0  0
  -27.0944  -24.1912   19.4308 H   0  0  0  0  0  0
  -28.6706  -24.3637   18.8132 H   0  0  0  0  0  0
  -28.7100  -16.2548   20.2148 H   0  0  0  0  0  0
  1 25  1  0  0  0
  1 30  2  0  0  0
  1 88  1  0  0  0
  2  3  1  0  0  0
  2 25  1  0  0  0
  2 89  1  0  0  0
  2 90  1  0  0  0
  3  4  1  0  0  0
  3 91  1  0  0  0
  3 92  1  0  0  0
  4  5  1  0  0  0
  4 93  1  0  0  0
  4 94  1  0  0  0
  5  6  1  0  0  0
  5 26  1  0  0  0
  5 95  1  0  0  0
  6 25  1  0  0  0
  6 96  1  0  0  0
  6 97  1  0  0  0
  7  8  2  0  0  0
  7 26  1  0  0  0
  7 29  1  0  0  0
  8  9  1  0  0  0
  8 22  1  0  0  0
  9 10  1  0  0  0
  9 27  2  0  0  0
 10 11  2  0  0  0
 10 15  1  0  0  0
 11 12  1  0  0  0
 11 98  1  0  0  0
 12 13  2  0  0  0
 12 99  1  0  0  0
 13 14  1  0  0  0
 13 31  1  0  0  0
 14 15  2  0  0  0
 14100  1  0  0  0
 15101  1  0  0  0
 16 17  2  0  0  0
 16 21  1  0  0  0
 16 31  1  0  0  0
 17 18  1  0  0  0
 17102  1  0  0  0
 18 19  2  0  0  0
 18103  1  0  0  0
 19 20  1  0  0  0
 19 24  1  0  0  0
 20 21  2  0  0  0
 20104  1  0  0  0
 21 23  1  0  0  0
 22 28  1  0  0  0
 22 32  2  0  0  0
 26 27  1  0  0  0
 28105  1  0  0  0
 28106  1  0  0  0
 29107  1  0  0  0
 29108  1  0  0  0
 33 34  1  0  0  0
 33 66  1  0  0  0
 33 70  2  0  0  0
 34 36  1  0  0  0
 34 59  1  0  0  0
 34109  1  0  0  0
 35 44  2  0  0  0
 35 45  1  0  0  0
 35 68  1  0  0  0
 36 56  1  0  0  0
 36110  1  0  0  0
 37 39  1  0  0  0
 37 47  1  0  0  0
 37 66  1  0  0  0
 37111  1  0  0  0
 38 43  2  0  0  0
 38 46  1  0  0  0
 38 47  1  0  0  0
 39 64  1  0  0  0
 39 67  2  0  0  0
 40 52  1  0  0  0
 40 53  2  0  0  0
 40 58  1  0  0  0
 41112  1  0  0  0
 41113  1  0  0  0
 41114  1  0  0  0
 41 48  1  0  0  0
 42 43  1  0  0  0
 42 66  1  0  0  0
 42115  1  0  0  0
 42116  1  0  0  0
 43 44  1  0  0  0
 44117  1  0  0  0
 45 46  2  0  0  0
 45118  1  0  0  0
 46119  1  0  0  0
 47120  1  0  0  0
 47121  1  0  0  0
 48 56  1  0  0  0
 48 65  1  0  0  0
 48122  1  0  0  0
 49 50  1  0  0  0
 49 53  1  0  0  0
 49 64  1  0  0  0
 49123  1  0  0  0
 50 51  1  0  0  0
 50124  1  0  0  0
 50125  1  0  0  0
 51 52  1  0  0  0
 51126  1  0  0  0
 51127  1  0  0  0
 52128  1  0  0  0
 52129  1  0  0  0
 53 54  1  0  0  0
 54 55  2  0  0  0
 54130  1  0  0  0
 55 57  1  0  0  0
 55131  1  0  0  0
 56 69  2  0  0  0
 57 58  2  0  0  0
 57132  1  0  0  0
 58133  1  0  0  0
 59 60  1  0  0  0
 59 61  1  0  0  0
 59 62  1  0  0  0
 60134  1  0  0  0
 60135  1  0  0  0
 60136  1  0  0  0
 61137  1  0  0  0
 61138  1  0  0  0
 61139  1  0  0  0
 62140  1  0  0  0
 62141  1  0  0  0
 62142  1  0  0  0
 63 65  1  0  0  0
 63143  1  0  0  0
 63144  1  0  0  0
 63145  1  0  0  0
 64146  1  0  0  0
 65147  1  0  0  0
 68 87  1  0  0  0
 71 72  1  0  0  0
 71 74  1  0  0  0
 71148  1  0  0  0
 71149  1  0  0  0
 72 76  1  0  0  0
 72150  1  0  0  0
 72151  1  0  0  0
 73 74  1  0  0  0
 73 75  1  0  0  0
 73152  1  0  0  0
 73153  1  0  0  0
 74 79  1  0  0  0
 74154  1  0  0  0
 75 76  1  0  0  0
 75 80  1  0  0  0
 75155  1  0  0  0
 76 81  1  0  0  0
 76 88  1  0  0  0
 77 81  1  0  0  0
 77156  1  0  0  0
 77157  1  0  0  0
 77158  1  0  0  0
 78 82  1  0  0  0
 78159  1  0  0  0
 78160  1  0  0  0
 78161  1  0  0  0
 79 83  1  0  0  0
 79162  1  0  0  0
 79163  1  0  0  0
 80 84  1  0  0  0
 80164  1  0  0  0
 80165  1  0  0  0
 81166  1  0  0  0
 81167  1  0  0  0
 82 85  1  0  0  0
 82168  1  0  0  0
 82169  1  0  0  0
 83 86  1  0  0  0
 83170  1  0  0  0
 83171  1  0  0  0
 84 87  1  0  0  0
 84172  1  0  0  0
 84173  1  0  0  0
 85 86  1  0  0  0
 85174  1  0  0  0
 85175  1  0  0  0
 86176  1  0  0  0
 86177  1  0  0  0
 87178  1  0  0  0
 87179  1  0  0  0
 88180  1  0  0  0
M  ISO  4   1 100  68 101  87 101  88 100
M  END
> <chiral flag>
0

> <version>
0

> <s_m_source_file>
/data/baiqing/PycharmProjects/Reinvent-master-3.2/result/LINK_invent/BTK/process_docking_weight1_custom_sum_contain_oxygen_bond_distance_aromatic_linkinvent_7_9_3/rearranged_h_0021.sdf

> <i_m_source_file_index>
50

> <r_mmod_Potential_Energy-OPLS-2005>
1316.38244628906

> <r_mmod_Stretch_Energy-OPLS-2005>
576.473876953125

> <r_mmod_Bend_Energy-OPLS-2005>
485.066833496094

> <r_mmod_Torsional_Energy-OPLS-2005>
302.243988037109

> <r_mmod_Improper_Torsional_Energy-OPLS-2005>
4.64211225509644

> <r_mmod_Van_der_Waal_Energy-OPLS-2005>
119.902557373047

> <r_mmod_Electrostatic_Energy-OPLS-2005>
-383.947631835938

> <r_mmod_Solvation_Energy-OPLS-2005>
-183.110305786133

> <b_mmod_Minimization_Converged-OPLS-2005>
0

> <r_mmod_RMS_Derivative-OPLS-2005>
5.40012454986572

$$$$
51
                    3D
 Structure written by MMmdl.
171179  0  0  1  0            999 V2000
  -30.8012  -14.3047   20.7497 C   0  0  0  0  0  0
  -30.4162  -12.2884   19.3764 C   0  0  0  0  0  0
  -29.4777  -12.5435   18.1849 C   0  0  0  0  0  0
  -28.0057  -12.3888   18.6083 C   0  0  0  0  0  0
  -27.6691  -13.2017   19.8842 C   0  0  2  0  0  0
  -28.7046  -12.9302   20.9952 C   0  0  0  0  0  0
  -25.2636  -13.8168   20.5669 C   0  0  0  0  0  0
  -24.1863  -13.0445   20.9152 C   0  0  0  0  0  0
  -24.6408  -11.6909   20.8721 C   0  0  0  0  0  0
  -23.9066  -10.4294   21.0400 C   0  0  0  0  0  0
  -24.3622   -9.4207   21.9182 C   0  0  0  0  0  0
  -23.6290   -8.2249   22.0761 C   0  0  0  0  0  0
  -22.4276   -8.0288   21.3544 C   0  0  0  0  0  0
  -21.9910   -9.0262   20.4654 C   0  0  0  0  0  0
  -22.7243  -10.2136   20.3053 C   0  0  0  0  0  0
  -21.6854   -6.0740   22.5282 C   0  0  0  0  0  0
  -21.4012   -6.5640   23.8216 C   0  0  0  0  0  0
  -21.3657   -5.6796   24.9176 C   0  0  0  0  0  0
  -21.6045   -4.3059   24.7226 C   0  0  0  0  0  0
  -21.8818   -3.8146   23.4349 C   0  0  0  0  0  0
  -21.9193   -4.6965   22.3401 C   0  0  0  0  0  0
  -22.7894  -13.5256   21.1809 C   0  0  0  0  0  0
  -22.1664   -4.2148   21.0977 F   0  0  0  0  0  0
  -21.5627   -3.4537   25.7736 F   0  0  0  0  0  0
  -30.0550  -13.2079   20.4646 N   0  0  0  0  0  0
  -26.3065  -12.9319   20.3402 N   0  0  0  0  0  0
  -25.9333  -11.6480   20.5763 N   0  0  0  0  0  0
  -22.0528  -12.8251   22.0368 N   0  0  0  0  0  0
  -25.4374  -15.1874   20.4066 N   0  0  0  0  0  0
  -31.7582  -14.6817   20.0677 O   0  0  0  0  0  0
  -21.6642   -6.8885   21.4247 O   0  0  0  0  0  0
  -22.3579  -14.5574   20.6679 O   0  0  0  0  0  0
  -24.6197  -31.8694   23.2072 C   0  0  0  0  0  0
  -25.9096  -32.4845   23.8343 C   0  0  1  0  0  0
  -27.2304  -27.4447   20.0717 C   0  0  0  0  0  0
  -25.5977  -33.8625   24.2316 N   0  0  0  0  0  0
  -23.4041  -30.4982   21.5480 C   0  0  2  0  0  0
  -24.8448  -28.9719   20.1110 C   0  0  0  0  0  0
  -22.7434  -29.4682   22.4937 C   0  0  0  0  0  0
  -18.0286  -28.1390   22.8518 C   0  0  0  0  0  0
  -24.1479  -36.7307   23.2611 C   0  0  0  0  0  0
  -25.9354  -30.8337   21.3638 C   0  0  0  0  0  0
  -26.0043  -29.4672   20.7176 C   0  0  0  0  0  0
  -27.1929  -28.7043   20.7121 C   0  0  0  0  0  0
  -26.0505  -26.9824   19.4383 C   0  0  0  0  0  0
  -24.8596  -27.7214   19.4791 C   0  0  0  0  0  0
  -23.6103  -29.8368   20.1611 C   0  0  0  0  0  0
  -25.4106  -36.3126   24.0333 C   0  0  1  0  0  0
  -20.5890  -28.3687   23.1317 C   0  0  2  0  0  0
  -20.6802  -26.9421   22.5425 C   0  0  0  0  0  0
  -19.5754  -26.6402   21.5248 C   0  0  0  0  0  0
  -18.1928  -26.7943   22.1646 C   0  0  0  0  0  0
  -19.1539  -28.8849   23.2924 C   0  0  0  0  0  0
  -18.9470  -30.1463   23.8931 C   0  0  0  0  0  0
  -17.6471  -30.6602   24.0586 C   0  0  0  0  0  0
  -25.9055  -34.9499   23.5116 C   0  0  0  0  0  0
  -16.5363  -29.9108   23.6329 C   0  0  0  0  0  0
  -16.7281  -28.6523   23.0357 C   0  0  0  0  0  0
  -26.4491  -31.6598   25.0658 C   0  0  0  0  0  0
  -25.3716  -31.3756   26.1380 C   0  0  0  0  0  0
  -27.0294  -30.3043   24.6004 C   0  0  0  0  0  0
  -27.6091  -32.4262   25.7446 C   0  0  0  0  0  0
  -27.5575  -37.1805   24.8465 C   0  0  0  0  0  0
  -21.4159  -29.3038   22.3700 N   0  0  0  0  0  0
  -26.4292  -37.3819   23.9410 N   0  0  0  0  0  0
  -24.6706  -31.0809   22.0967 N   0  0  0  0  0  0
  -23.4225  -28.8206   23.2944 O   0  0  0  0  0  0
  -28.4087  -26.7206   20.1147 O   0  0  0  0  0  0
  -26.5587  -34.8968   22.4663 O   0  0  0  0  0  0
  -23.5397  -32.1419   23.7500 O   0  0  0  0  0  0
  -26.0059  -23.3179   20.9683 C   0  0  0  0  0  0
  -27.0506  -24.2427   20.7907 C   0  0  0  0  0  0
  -25.5889  -22.4935   19.9010 C   0  0  0  0  0  0
  -27.6666  -24.3854   19.5304 C   0  0  0  0  0  0
  -26.2974  -22.5385   18.6761 C   0  0  0  0  0  0
  -27.3350  -23.4844   18.4893 C   0  0  0  0  0  0
  -24.3258  -21.6479   20.0554 C   0  0  0  0  0  0
  -28.5900  -25.5763   19.2662 C   0  0  0  0  0  0
  -28.7194  -18.8061   21.1809 C   0  0  0  0  0  0
  -29.1236  -17.5245   21.9201 C   0  0  0  0  0  0
  -27.2057  -18.9262   20.9592 C   0  0  0  0  0  0
  -30.6531  -17.3609   21.9475 C   0  0  0  0  0  0
  -26.5204  -19.8912   21.9432 C   0  0  0  0  0  0
  -31.1362  -16.0290   22.5443 C   0  0  0  0  0  0
  -24.9911  -19.9344   21.7708 C   0  0  0  0  0  0
  -30.4888  -14.8810   21.9170 N   0  0  0  0  0  0
  -24.5644  -20.2289   20.3838 N   0  3  0  0  0  0
  -25.8667  -21.4665   17.3857 Cl  0  0  0  0  0  0
  -28.1410  -23.5840   16.9569 Cl  0  0  0  0  0  0
  -31.4572  -12.4010   19.0677 H   0  0  0  0  0  0
  -30.3182  -11.2569   19.7203 H   0  0  0  0  0  0
  -29.7052  -11.8559   17.3697 H   0  0  0  0  0  0
  -29.6442  -13.5488   17.7930 H   0  0  0  0  0  0
  -27.8178  -11.3293   18.7841 H   0  0  0  0  0  0
  -27.3456  -12.6822   17.7908 H   0  0  0  0  0  0
  -27.7349  -14.2575   19.6224 H   0  0  0  0  0  0
  -28.6565  -11.8877   21.3141 H   0  0  0  0  0  0
  -28.4424  -13.5132   21.8779 H   0  0  0  0  0  0
  -25.2777   -9.5678   22.4745 H   0  0  0  0  0  0
  -23.9999   -7.4645   22.7487 H   0  0  0  0  0  0
  -21.0840   -8.8781   19.8966 H   0  0  0  0  0  0
  -22.3710  -10.9669   19.6153 H   0  0  0  0  0  0
  -21.2006   -7.6145   23.9715 H   0  0  0  0  0  0
  -21.1482   -6.0522   25.9076 H   0  0  0  0  0  0
  -22.0600   -2.7605   23.2845 H   0  0  0  0  0  0
  -22.4121  -11.9879   22.4707 H   0  0  0  0  0  0
  -21.1157  -13.1300   22.2601 H   0  0  0  0  0  0
  -24.6720  -15.8435   20.5101 H   0  0  0  0  0  0
  -26.2977  -15.6174   20.0922 H   0  0  0  0  0  0
  -26.7174  -32.5561   23.1112 H   0  0  0  0  0  0
  -25.0282  -33.9737   25.0573 H   0  0  0  0  0  0
  -22.6948  -31.3176   21.4115 H   0  0  0  0  0  0
  -23.3776  -35.9605   23.3308 H   0  0  0  0  0  0
  -24.3553  -36.8875   22.2014 H   0  0  0  0  0  0
  -23.7218  -37.6517   23.6600 H   0  0  0  0  0  0
  -26.0514  -31.5891   20.5841 H   0  0  0  0  0  0
  -26.8250  -30.8828   21.9800 H   0  0  0  0  0  0
  -28.0845  -29.0826   21.1921 H   0  0  0  0  0  0
  -26.0005  -26.0512   18.9049 H   0  0  0  0  0  0
  -23.9703  -27.3300   19.0036 H   0  0  0  0  0  0
  -23.7245  -30.6088   19.3995 H   0  0  0  0  0  0
  -22.7359  -29.2555   19.8660 H   0  0  0  0  0  0
  -25.1288  -36.1987   25.0834 H   0  0  0  0  0  0
  -20.9994  -28.3269   24.1429 H   0  0  0  0  0  0
  -20.5765  -26.2271   23.3599 H   0  0  0  0  0  0
  -21.6662  -26.7481   22.1171 H   0  0  0  0  0  0
  -19.6889  -25.6327   21.1229 H   0  0  0  0  0  0
  -19.6700  -27.3252   20.6818 H   0  0  0  0  0  0
  -17.4211  -26.6744   21.4023 H   0  0  0  0  0  0
  -18.0298  -26.0065   22.9022 H   0  0  0  0  0  0
  -19.7953  -30.7287   24.2289 H   0  0  0  0  0  0
  -17.5034  -31.6277   24.5200 H   0  0  0  0  0  0
  -15.5370  -30.3045   23.7609 H   0  0  0  0  0  0
  -15.8684  -28.0864   22.7042 H   0  0  0  0  0  0
  -24.5881  -30.7124   25.7717 H   0  0  0  0  0  0
  -24.8911  -32.2936   26.4774 H   0  0  0  0  0  0
  -25.7998  -30.8947   27.0180 H   0  0  0  0  0  0
  -26.2849  -29.6891   24.0932 H   0  0  0  0  0  0
  -27.3971  -29.7199   25.4450 H   0  0  0  0  0  0
  -27.8737  -30.4405   23.9233 H   0  0  0  0  0  0
  -27.2751  -33.3562   26.2071 H   0  0  0  0  0  0
  -28.3906  -32.6792   25.0265 H   0  0  0  0  0  0
  -28.0743  -31.8307   26.5312 H   0  0  0  0  0  0
  -28.2649  -38.0051   24.7543 H   0  0  0  0  0  0
  -28.1019  -36.2610   24.6293 H   0  0  0  0  0  0
  -27.2273  -37.1464   25.8854 H   0  0  0  0  0  0
  -20.9298  -29.8786   21.6958 H   0  0  0  0  0  0
  -26.0200  -38.2908   24.1425 H   0  0  0  0  0  0
  -25.4885  -23.2880   21.9159 H   0  0  0  0  0  0
  -27.3087  -24.9124   21.5976 H   0  0  0  0  0  0
  -23.7505  -21.6928   19.1301 H   0  0  0  0  0  0
  -23.6745  -22.0948   20.8058 H   0  0  0  0  0  0
  -28.4811  -25.9141   18.2360 H   0  0  0  0  0  0
  -29.6164  -25.2308   19.3798 H   0  0  0  0  0  0
  -29.2034  -18.8047   20.2034 H   0  0  0  0  0  0
  -29.1091  -19.6838   21.7000 H   0  0  0  0  0  0
  -28.6701  -16.6717   21.4121 H   0  0  0  0  0  0
  -28.7230  -17.5287   22.9353 H   0  0  0  0  0  0
  -26.7373  -17.9406   21.0100 H   0  0  0  0  0  0
  -27.0469  -19.2808   19.9400 H   0  0  0  0  0  0
  -31.0963  -18.1870   22.5069 H   0  0  0  0  0  0
  -31.0450  -17.4456   20.9335 H   0  0  0  0  0  0
  -26.9405  -20.8906   21.8360 H   0  0  0  0  0  0
  -26.7414  -19.5850   22.9682 H   0  0  0  0  0  0
  -30.9105  -16.0020   23.6110 H   0  0  0  0  0  0
  -32.2207  -15.9457   22.4595 H   0  0  0  0  0  0
  -24.5425  -20.6410   22.4709 H   0  0  0  0  0  0
  -24.5903  -18.9566   22.0332 H   0  0  0  0  0  0
  -29.7249  -14.4609   22.4243 H   0  0  0  0  0  0
  -25.2038  -19.8139   19.7271 H   0  0  0  0  0  0
  -23.6758  -19.7684   20.2543 H   0  0  0  0  0  0
  1 25  1  0  0  0
  1 30  2  0  0  0
  1 86  1  0  0  0
  2  3  1  0  0  0
  2 25  1  0  0  0
  2 90  1  0  0  0
  2 91  1  0  0  0
  3  4  1  0  0  0
  3 92  1  0  0  0
  3 93  1  0  0  0
  4  5  1  0  0  0
  4 94  1  0  0  0
  4 95  1  0  0  0
  5  6  1  0  0  0
  5 26  1  0  0  0
  5 96  1  0  0  0
  6 25  1  0  0  0
  6 97  1  0  0  0
  6 98  1  0  0  0
  7  8  2  0  0  0
  7 26  1  0  0  0
  7 29  1  0  0  0
  8  9  1  0  0  0
  8 22  1  0  0  0
  9 10  1  0  0  0
  9 27  2  0  0  0
 10 11  2  0  0  0
 10 15  1  0  0  0
 11 12  1  0  0  0
 11 99  1  0  0  0
 12 13  2  0  0  0
 12100  1  0  0  0
 13 14  1  0  0  0
 13 31  1  0  0  0
 14 15  2  0  0  0
 14101  1  0  0  0
 15102  1  0  0  0
 16 17  2  0  0  0
 16 21  1  0  0  0
 16 31  1  0  0  0
 17 18  1  0  0  0
 17103  1  0  0  0
 18 19  2  0  0  0
 18104  1  0  0  0
 19 20  1  0  0  0
 19 24  1  0  0  0
 20 21  2  0  0  0
 20105  1  0  0  0
 21 23  1  0  0  0
 22 28  1  0  0  0
 22 32  2  0  0  0
 26 27  1  0  0  0
 28106  1  0  0  0
 28107  1  0  0  0
 29108  1  0  0  0
 29109  1  0  0  0
 33 34  1  0  0  0
 33 66  1  0  0  0
 33 70  2  0  0  0
 34 36  1  0  0  0
 34 59  1  0  0  0
 34110  1  0  0  0
 35 44  2  0  0  0
 35 45  1  0  0  0
 35 68  1  0  0  0
 36 56  1  0  0  0
 36111  1  0  0  0
 37 39  1  0  0  0
 37 47  1  0  0  0
 37 66  1  0  0  0
 37112  1  0  0  0
 38 43  2  0  0  0
 38 46  1  0  0  0
 38 47  1  0  0  0
 39 64  1  0  0  0
 39 67  2  0  0  0
 40 52  1  0  0  0
 40 53  2  0  0  0
 40 58  1  0  0  0
 41113  1  0  0  0
 41114  1  0  0  0
 41115  1  0  0  0
 41 48  1  0  0  0
 42 43  1  0  0  0
 42 66  1  0  0  0
 42116  1  0  0  0
 42117  1  0  0  0
 43 44  1  0  0  0
 44118  1  0  0  0
 45 46  2  0  0  0
 45119  1  0  0  0
 46120  1  0  0  0
 47121  1  0  0  0
 47122  1  0  0  0
 48 56  1  0  0  0
 48 65  1  0  0  0
 48123  1  0  0  0
 49 50  1  0  0  0
 49 53  1  0  0  0
 49 64  1  0  0  0
 49124  1  0  0  0
 50 51  1  0  0  0
 50125  1  0  0  0
 50126  1  0  0  0
 51 52  1  0  0  0
 51127  1  0  0  0
 51128  1  0  0  0
 52129  1  0  0  0
 52130  1  0  0  0
 53 54  1  0  0  0
 54 55  2  0  0  0
 54131  1  0  0  0
 55 57  1  0  0  0
 55132  1  0  0  0
 56 69  2  0  0  0
 57 58  2  0  0  0
 57133  1  0  0  0
 58134  1  0  0  0
 59 60  1  0  0  0
 59 61  1  0  0  0
 59 62  1  0  0  0
 60135  1  0  0  0
 60136  1  0  0  0
 60137  1  0  0  0
 61138  1  0  0  0
 61139  1  0  0  0
 61140  1  0  0  0
 62141  1  0  0  0
 62142  1  0  0  0
 62143  1  0  0  0
 63 65  1  0  0  0
 63144  1  0  0  0
 63145  1  0  0  0
 63146  1  0  0  0
 64147  1  0  0  0
 65148  1  0  0  0
 68 78  1  0  0  0
 71 72  2  0  0  0
 71 73  1  0  0  0
 71149  1  0  0  0
 72 74  1  0  0  0
 72150  1  0  0  0
 73 75  2  0  0  0
 73 77  1  0  0  0
 74 76  2  0  0  0
 74 78  1  0  0  0
 75 76  1  0  0  0
 75 88  1  0  0  0
 76 89  1  0  0  0
 77 87  1  0  0  0
 77151  1  0  0  0
 77152  1  0  0  0
 78153  1  0  0  0
 78154  1  0  0  0
 79 80  1  0  0  0
 79 81  1  0  0  0
 79155  1  0  0  0
 79156  1  0  0  0
 80 82  1  0  0  0
 80157  1  0  0  0
 80158  1  0  0  0
 81 83  1  0  0  0
 81159  1  0  0  0
 81160  1  0  0  0
 82 84  1  0  0  0
 82161  1  0  0  0
 82162  1  0  0  0
 83 85  1  0  0  0
 83163  1  0  0  0
 83164  1  0  0  0
 84 86  1  0  0  0
 84165  1  0  0  0
 84166  1  0  0  0
 85 87  1  0  0  0
 85167  1  0  0  0
 85168  1  0  0  0
 86169  1  0  0  0
 87170  1  0  0  0
 87171  1  0  0  0
M  CHG  1  87   1
M  ISO  4   1 100  68 101  78 101  86 100
M  END
> <chiral flag>
0

> <version>
0

> <s_m_source_file>
/data/baiqing/PycharmProjects/Reinvent-master-3.2/result/LINK_invent/BTK/process_docking_weight1_custom_sum_contain_oxygen_bond_distance_aromatic_linkinvent_7_9_3/rearranged_h_0021.sdf

> <i_m_source_file_index>
51

> <r_mmod_Potential_Energy-OPLS-2005>
-232.811920166016

> <r_mmod_Stretch_Energy-OPLS-2005>
34.0863609313965

> <r_mmod_Bend_Energy-OPLS-2005>
99.9648361206055

> <r_mmod_Torsional_Energy-OPLS-2005>
219.513442993164

> <r_mmod_Improper_Torsional_Energy-OPLS-2005>
3.20976758003235

> <r_mmod_Van_der_Waal_Energy-OPLS-2005>
154.413711547852

> <r_mmod_Electrostatic_Energy-OPLS-2005>
-282.570556640625

> <r_mmod_Solvation_Energy-OPLS-2005>
-472.019958496094

> <b_mmod_Minimization_Converged-OPLS-2005>
0

> <r_mmod_RMS_Derivative-OPLS-2005>
3.27430820465088

$$$$
52
                    3D
 Structure written by MMmdl.
157165  0  0  1  0            999 V2000
  -30.3630  -15.3905   20.3486 C   0  0  0  0  0  0
  -30.4447  -12.8912   19.5447 C   0  0  0  0  0  0
  -29.5514  -12.6057   18.3070 C   0  0  0  0  0  0
  -28.0986  -12.3132   18.7212 C   0  0  0  0  0  0
  -27.6099  -13.2839   19.8236 C   0  0  2  0  0  0
  -28.6372  -13.4899   20.9596 C   0  0  0  0  0  0
  -25.2370  -13.8237   20.5801 C   0  0  0  0  0  0
  -24.1723  -13.0397   20.9249 C   0  0  0  0  0  0
  -24.6401  -11.6909   20.8731 C   0  0  0  0  0  0
  -23.9099  -10.4269   21.0389 C   0  0  0  0  0  0
  -24.3636   -9.4187   21.9180 C   0  0  0  0  0  0
  -23.6287   -8.2236   22.0760 C   0  0  0  0  0  0
  -22.4269   -8.0286   21.3546 C   0  0  0  0  0  0
  -21.9914   -9.0258   20.4642 C   0  0  0  0  0  0
  -22.7263  -10.2122   20.3041 C   0  0  0  0  0  0
  -21.6853   -6.0732   22.5279 C   0  0  0  0  0  0
  -21.4034   -6.5634   23.8216 C   0  0  0  0  0  0
  -21.3668   -5.6783   24.9175 C   0  0  0  0  0  0
  -21.6043   -4.3045   24.7226 C   0  0  0  0  0  0
  -21.8809   -3.8140   23.4344 C   0  0  0  0  0  0
  -21.9194   -4.6961   22.3405 C   0  0  0  0  0  0
  -22.7746  -13.5168   21.1892 C   0  0  0  0  0  0
  -22.1659   -4.2142   21.0985 F   0  0  0  0  0  0
  -21.5617   -3.4530   25.7741 F   0  0  0  0  0  0
  -29.8597  -14.0427   20.3453 N   0  0  0  0  0  0
  -26.2803  -12.9539   20.3205 N   0  0  0  0  0  0
  -25.9336  -11.6630   20.5660 N   0  0  0  0  0  0
  -22.0384  -12.8165   22.0443 N   0  0  0  0  0  0
  -25.3971  -15.1981   20.4435 N   0  0  0  0  0  0
  -31.5718  -15.4147   20.0629 O   0  0  0  0  0  0
  -21.6630   -6.8881   21.4246 O   0  0  0  0  0  0
  -22.3434  -14.5471   20.6732 O   0  0  0  0  0  0
  -24.6709  -31.8154   23.1638 C   0  0  0  0  0  0
  -25.9344  -32.4547   23.8142 C   0  0  1  0  0  0
  -27.2105  -26.8424   20.2017 C   0  0  0  0  0  0
  -25.5977  -33.8368   24.2034 N   0  0  0  0  0  0
  -23.4890  -30.4224   21.5162 C   0  0  2  0  0  0
  -24.9403  -28.7902   20.1148 C   0  0  0  0  0  0
  -22.7703  -29.4398   22.4782 C   0  0  0  0  0  0
  -18.0344  -28.1407   22.8450 C   0  0  0  0  0  0
  -24.1487  -36.7186   23.2647 C   0  0  0  0  0  0
  -26.0624  -30.5923   21.4051 C   0  0  0  0  0  0
  -26.1265  -29.1731   20.7520 C   0  0  0  0  0  0
  -27.2549  -28.2231   20.7644 C   0  0  0  0  0  0
  -25.9950  -26.6291   19.5117 C   0  0  0  0  0  0
  -24.9055  -27.5416   19.4703 C   0  0  0  0  0  0
  -23.7305  -29.7296   20.1464 C   0  0  0  0  0  0
  -25.4130  -36.2949   24.0296 C   0  0  1  0  0  0
  -20.5964  -28.3762   23.1172 C   0  0  2  0  0  0
  -20.6813  -26.9433   22.5393 C   0  0  0  0  0  0
  -19.5792  -26.6364   21.5204 C   0  0  0  0  0  0
  -18.1982  -26.7930   22.1618 C   0  0  0  0  0  0
  -19.1602  -28.8909   23.2791 C   0  0  0  0  0  0
  -18.9506  -30.1499   23.8821 C   0  0  0  0  0  0
  -17.6495  -30.6584   24.0561 C   0  0  0  0  0  0
  -25.9103  -34.9335   23.4997 C   0  0  0  0  0  0
  -16.5387  -29.9067   23.6351 C   0  0  0  0  0  0
  -16.7322  -28.6501   23.0346 C   0  0  0  0  0  0
  -26.4562  -31.6532   25.0709 C   0  0  0  0  0  0
  -25.3677  -31.3794   26.1363 C   0  0  0  0  0  0
  -27.0467  -30.2889   24.6495 C   0  0  0  0  0  0
  -27.6040  -32.4374   25.7511 C   0  0  0  0  0  0
  -27.5567  -37.1748   24.8466 C   0  0  0  0  0  0
  -21.4373  -29.3033   22.3517 N   0  0  0  0  0  0
  -26.4271  -37.3690   23.9412 N   0  0  0  0  0  0
  -24.7636  -30.9719   22.0821 N   0  0  0  0  0  0
  -23.4207  -28.7983   23.3072 O   0  0  0  0  0  0
  -28.2007  -25.7030   20.2842 O   0  0  0  0  0  0
  -26.5724  -34.8893   22.4602 O   0  0  0  0  0  0
  -23.5761  -32.1169   23.6664 O   0  0  0  0  0  0
  -28.9200  -20.7176   20.2276 C   0  0  0  0  0  0
  -29.7033  -19.4561   20.7003 C   0  0  0  0  0  0
  -27.9992  -19.9862   19.4867 C   0  0  0  0  0  0
  -29.3124  -18.1140   20.2500 C   0  0  0  0  0  0
  -26.8567  -20.6027   18.7309 C   0  0  0  0  0  0
  -27.5883  -17.6202   17.2456 C   0  0  0  0  0  0
  -30.2817  -22.8724   19.5367 C   0  0  0  0  0  0
  -27.3378  -17.6158   18.7584 C   0  0  0  0  0  0
  -27.9823  -24.0289   20.1662 C   0  0  0  0  0  0
  -29.0497  -22.5290   20.3816 C   0  0  1  0  0  0
  -28.2085  -18.5478   19.4767 N   0  0  0  0  0  0
  -29.5470  -16.6348   20.5943 N   0  0  0  0  0  0
  -31.0262  -19.6364   21.7909 Cl  0  0  0  0  0  0
  -31.4557  -13.1212   19.2047 H   0  0  0  0  0  0
  -30.5494  -11.9985   20.1632 H   0  0  0  0  0  0
  -29.9543  -11.7738   17.7271 H   0  0  0  0  0  0
  -29.5724  -13.4745   17.6475 H   0  0  0  0  0  0
  -28.0564  -11.2884   19.0896 H   0  0  0  0  0  0
  -27.4409  -12.3541   17.8515 H   0  0  0  0  0  0
  -27.5149  -14.2413   19.3137 H   0  0  0  0  0  0
  -28.8299  -12.5617   21.4998 H   0  0  0  0  0  0
  -28.2491  -14.1956   21.6937 H   0  0  0  0  0  0
  -25.2779   -9.5654   22.4762 H   0  0  0  0  0  0
  -23.9980   -7.4631   22.7494 H   0  0  0  0  0  0
  -21.0837   -8.8783   19.8959 H   0  0  0  0  0  0
  -22.3727  -10.9657   19.6149 H   0  0  0  0  0  0
  -21.2050   -7.6143   23.9734 H   0  0  0  0  0  0
  -21.1500   -6.0504   25.9081 H   0  0  0  0  0  0
  -22.0585   -2.7601   23.2839 H   0  0  0  0  0  0
  -22.3961  -11.9816   22.4836 H   0  0  0  0  0  0
  -21.1008  -13.1225   22.2630 H   0  0  0  0  0  0
  -24.6367  -15.8436   20.6267 H   0  0  0  0  0  0
  -26.2519  -15.6551   20.1678 H   0  0  0  0  0  0
  -26.7428  -32.5058   23.0872 H   0  0  0  0  0  0
  -25.0100  -33.9434   25.0172 H   0  0  0  0  0  0
  -22.8069  -31.2554   21.3385 H   0  0  0  0  0  0
  -23.3773  -35.9494   23.3278 H   0  0  0  0  0  0
  -24.3561  -36.8868   22.2066 H   0  0  0  0  0  0
  -23.7219  -37.6352   23.6732 H   0  0  0  0  0  0
  -26.2480  -31.3245   20.6176 H   0  0  0  0  0  0
  -26.9209  -30.6522   22.0619 H   0  0  0  0  0  0
  -28.1550  -28.5136   21.2869 H   0  0  0  0  0  0
  -25.8510  -25.6752   19.0238 H   0  0  0  0  0  0
  -24.0059  -27.2390   18.9517 H   0  0  0  0  0  0
  -23.8931  -30.4931   19.3846 H   0  0  0  0  0  0
  -22.8367  -29.1872   19.8325 H   0  0  0  0  0  0
  -25.1334  -36.1746   25.0785 H   0  0  0  0  0  0
  -21.0045  -28.3371   24.1300 H   0  0  0  0  0  0
  -20.5685  -26.2380   23.3643 H   0  0  0  0  0  0
  -21.6686  -26.7405   22.1215 H   0  0  0  0  0  0
  -19.6955  -25.6263   21.1269 H   0  0  0  0  0  0
  -19.6737  -27.3144   20.6711 H   0  0  0  0  0  0
  -17.4243  -26.6678   21.4024 H   0  0  0  0  0  0
  -18.0381  -26.0087   22.9032 H   0  0  0  0  0  0
  -19.7985  -30.7347   24.2141 H   0  0  0  0  0  0
  -17.5048  -31.6253   24.5187 H   0  0  0  0  0  0
  -15.5387  -30.2936   23.7716 H   0  0  0  0  0  0
  -15.8733  -28.0806   22.7071 H   0  0  0  0  0  0
  -24.5876  -30.7118   25.7683 H   0  0  0  0  0  0
  -24.8838  -32.2989   26.4671 H   0  0  0  0  0  0
  -25.7903  -30.9049   27.0231 H   0  0  0  0  0  0
  -26.3151  -29.6549   24.1465 H   0  0  0  0  0  0
  -27.3927  -29.7275   25.5185 H   0  0  0  0  0  0
  -27.9131  -30.4054   23.9979 H   0  0  0  0  0  0
  -27.2599  -33.3737   26.1929 H   0  0  0  0  0  0
  -28.3925  -32.6839   25.0385 H   0  0  0  0  0  0
  -28.0637  -31.8611   26.5550 H   0  0  0  0  0  0
  -28.2563  -38.0063   24.7527 H   0  0  0  0  0  0
  -28.1081  -36.2589   24.6288 H   0  0  0  0  0  0
  -27.2286  -37.1400   25.8868 H   0  0  0  0  0  0
  -20.9645  -29.8683   21.6608 H   0  0  0  0  0  0
  -26.0118  -38.2748   24.1424 H   0  0  0  0  0  0
  -26.5680  -21.5556   19.1740 H   0  0  0  0  0  0
  -25.9623  -19.9829   18.7347 H   0  0  0  0  0  0
  -27.1356  -20.7960   17.6953 H   0  0  0  0  0  0
  -26.9722  -16.8691   16.7500 H   0  0  0  0  0  0
  -28.6294  -17.3914   17.0203 H   0  0  0  0  0  0
  -27.3463  -18.5819   16.7969 H   0  0  0  0  0  0
  -31.1604  -22.3185   19.8668 H   0  0  0  0  0  0
  -30.5220  -23.9355   19.5814 H   0  0  0  0  0  0
  -30.1008  -22.6176   18.4929 H   0  0  0  0  0  0
  -27.4969  -16.6054   19.1245 H   0  0  0  0  0  0
  -26.2952  -17.8374   18.9862 H   0  0  0  0  0  0
  -27.1329  -23.8501   20.8268 H   0  0  0  0  0  0
  -27.5585  -23.9100   19.1685 H   0  0  0  0  0  0
  -29.3638  -22.6251   21.4222 H   0  0  0  0  0  0
  -28.6788  -16.2714   20.9551 H   0  0  0  0  0  0
  1 25  1  0  0  0
  1 30  2  0  0  0
  1 82  1  0  0  0
  2  3  1  0  0  0
  2 25  1  0  0  0
  2 84  1  0  0  0
  2 85  1  0  0  0
  3  4  1  0  0  0
  3 86  1  0  0  0
  3 87  1  0  0  0
  4  5  1  0  0  0
  4 88  1  0  0  0
  4 89  1  0  0  0
  5  6  1  0  0  0
  5 26  1  0  0  0
  5 90  1  0  0  0
  6 25  1  0  0  0
  6 91  1  0  0  0
  6 92  1  0  0  0
  7  8  2  0  0  0
  7 26  1  0  0  0
  7 29  1  0  0  0
  8  9  1  0  0  0
  8 22  1  0  0  0
  9 10  1  0  0  0
  9 27  2  0  0  0
 10 11  2  0  0  0
 10 15  1  0  0  0
 11 12  1  0  0  0
 11 93  1  0  0  0
 12 13  2  0  0  0
 12 94  1  0  0  0
 13 14  1  0  0  0
 13 31  1  0  0  0
 14 15  2  0  0  0
 14 95  1  0  0  0
 15 96  1  0  0  0
 16 17  2  0  0  0
 16 21  1  0  0  0
 16 31  1  0  0  0
 17 18  1  0  0  0
 17 97  1  0  0  0
 18 19  2  0  0  0
 18 98  1  0  0  0
 19 20  1  0  0  0
 19 24  1  0  0  0
 20 21  2  0  0  0
 20 99  1  0  0  0
 21 23  1  0  0  0
 22 28  1  0  0  0
 22 32  2  0  0  0
 26 27  1  0  0  0
 28100  1  0  0  0
 28101  1  0  0  0
 29102  1  0  0  0
 29103  1  0  0  0
 33 34  1  0  0  0
 33 66  1  0  0  0
 33 70  2  0  0  0
 34 36  1  0  0  0
 34 59  1  0  0  0
 34104  1  0  0  0
 35 44  2  0  0  0
 35 45  1  0  0  0
 35 68  1  0  0  0
 36 56  1  0  0  0
 36105  1  0  0  0
 37 39  1  0  0  0
 37 47  1  0  0  0
 37 66  1  0  0  0
 37106  1  0  0  0
 38 43  2  0  0  0
 38 46  1  0  0  0
 38 47  1  0  0  0
 39 64  1  0  0  0
 39 67  2  0  0  0
 40 52  1  0  0  0
 40 53  2  0  0  0
 40 58  1  0  0  0
 41107  1  0  0  0
 41108  1  0  0  0
 41109  1  0  0  0
 41 48  1  0  0  0
 42 43  1  0  0  0
 42 66  1  0  0  0
 42110  1  0  0  0
 42111  1  0  0  0
 43 44  1  0  0  0
 44112  1  0  0  0
 45 46  2  0  0  0
 45113  1  0  0  0
 46114  1  0  0  0
 47115  1  0  0  0
 47116  1  0  0  0
 48 56  1  0  0  0
 48 65  1  0  0  0
 48117  1  0  0  0
 49 50  1  0  0  0
 49 53  1  0  0  0
 49 64  1  0  0  0
 49118  1  0  0  0
 50 51  1  0  0  0
 50119  1  0  0  0
 50120  1  0  0  0
 51 52  1  0  0  0
 51121  1  0  0  0
 51122  1  0  0  0
 52123  1  0  0  0
 52124  1  0  0  0
 53 54  1  0  0  0
 54 55  2  0  0  0
 54125  1  0  0  0
 55 57  1  0  0  0
 55126  1  0  0  0
 56 69  2  0  0  0
 57 58  2  0  0  0
 57127  1  0  0  0
 58128  1  0  0  0
 59 60  1  0  0  0
 59 61  1  0  0  0
 59 62  1  0  0  0
 60129  1  0  0  0
 60130  1  0  0  0
 60131  1  0  0  0
 61132  1  0  0  0
 61133  1  0  0  0
 61134  1  0  0  0
 62135  1  0  0  0
 62136  1  0  0  0
 62137  1  0  0  0
 63 65  1  0  0  0
 63138  1  0  0  0
 63139  1  0  0  0
 63140  1  0  0  0
 64141  1  0  0  0
 65142  1  0  0  0
 68 79  1  0  0  0
 71 72  1  0  0  0
 71 73  2  0  0  0
 71 80  1  0  0  0
 72 74  2  0  0  0
 72 83  1  0  0  0
 73 75  1  0  0  0
 73 81  1  0  0  0
 74 81  1  0  0  0
 74 82  1  0  0  0
 75143  1  0  0  0
 75144  1  0  0  0
 75145  1  0  0  0
 76 78  1  0  0  0
 76146  1  0  0  0
 76147  1  0  0  0
 76148  1  0  0  0
 77149  1  0  0  0
 77150  1  0  0  0
 77151  1  0  0  0
 77 80  1  0  0  0
 78 81  1  0  0  0
 78152  1  0  0  0
 78153  1  0  0  0
 79 80  1  0  0  0
 79154  1  0  0  0
 79155  1  0  0  0
 80156  1  0  0  0
 82157  1  0  0  0
M  ISO  4   1 100  68 101  79 101  82 100
M  END
> <chiral flag>
0

> <version>
0

> <s_m_source_file>
/data/baiqing/PycharmProjects/Reinvent-master-3.2/result/LINK_invent/BTK/process_docking_weight1_custom_sum_contain_oxygen_bond_distance_aromatic_linkinvent_7_9_3/rearranged_h_0021.sdf

> <i_m_source_file_index>
52

> <r_mmod_Potential_Energy-OPLS-2005>
1589.16076660156

> <r_mmod_Stretch_Energy-OPLS-2005>
693.389831542969

> <r_mmod_Bend_Energy-OPLS-2005>
520.377380371094

> <r_mmod_Torsional_Energy-OPLS-2005>
263.315612792969

> <r_mmod_Improper_Torsional_Energy-OPLS-2005>
6.72183418273926

> <r_mmod_Van_der_Waal_Energy-OPLS-2005>
95.0740127563477

> <r_mmod_Electrostatic_Energy-OPLS-2005>
-369.072326660156

> <r_mmod_Solvation_Energy-OPLS-2005>
-218.972930908203

> <b_mmod_Minimization_Converged-OPLS-2005>
0

> <r_mmod_RMS_Derivative-OPLS-2005>
2.33138203620911

$$$$
53
                    3D
 Structure written by MMmdl.
179187  0  0  1  0            999 V2000
  -30.8329  -14.2299   20.7977 C   0  0  0  0  0  0
  -30.4192  -12.2825   19.3437 C   0  0  0  0  0  0
  -29.4719  -12.5373   18.1609 C   0  0  0  0  0  0
  -28.0026  -12.3856   18.5951 C   0  0  0  0  0  0
  -27.6720  -13.2009   19.8717 C   0  0  2  0  0  0
  -28.7079  -12.9159   20.9782 C   0  0  0  0  0  0
  -25.2643  -13.8144   20.5657 C   0  0  0  0  0  0
  -24.1890  -13.0424   20.9168 C   0  0  0  0  0  0
  -24.6442  -11.6891   20.8739 C   0  0  0  0  0  0
  -23.9127  -10.4261   21.0427 C   0  0  0  0  0  0
  -24.3675   -9.4156   21.9190 C   0  0  0  0  0  0
  -23.6316   -8.2213   22.0753 C   0  0  0  0  0  0
  -22.4280   -8.0285   21.3561 C   0  0  0  0  0  0
  -21.9952   -9.0263   20.4655 C   0  0  0  0  0  0
  -22.7312  -10.2118   20.3063 C   0  0  0  0  0  0
  -21.6860   -6.0740   22.5271 C   0  0  0  0  0  0
  -21.4024   -6.5643   23.8202 C   0  0  0  0  0  0
  -21.3652   -5.6792   24.9166 C   0  0  0  0  0  0
  -21.6033   -4.3051   24.7216 C   0  0  0  0  0  0
  -21.8836   -3.8146   23.4337 C   0  0  0  0  0  0
  -21.9190   -4.6966   22.3393 C   0  0  0  0  0  0
  -22.7887  -13.5199   21.1822 C   0  0  0  0  0  0
  -22.1643   -4.2151   21.0974 F   0  0  0  0  0  0
  -21.5619   -3.4533   25.7728 F   0  0  0  0  0  0
  -30.0651  -13.1749   20.4531 N   0  0  0  0  0  0
  -26.3099  -12.9326   20.3364 N   0  0  0  0  0  0
  -25.9362  -11.6486   20.5765 N   0  0  0  0  0  0
  -22.0545  -12.8188   22.0397 N   0  0  0  0  0  0
  -25.4334  -15.1865   20.4026 N   0  0  0  0  0  0
  -31.7239  -14.7125   20.0893 O   0  0  0  0  0  0
  -21.6642   -6.8886   21.4238 O   0  0  0  0  0  0
  -22.3532  -14.5481   20.6632 O   0  0  0  0  0  0
  -24.6097  -31.8720   23.2177 C   0  0  0  0  0  0
  -25.9029  -32.4832   23.8425 C   0  0  1  0  0  0
  -27.2244  -27.4626   20.0807 C   0  0  0  0  0  0
  -25.5948  -33.8651   24.2350 N   0  0  0  0  0  0
  -23.3942  -30.5004   21.5553 C   0  0  2  0  0  0
  -24.8336  -28.9730   20.1107 C   0  0  0  0  0  0
  -22.7360  -29.4693   22.5004 C   0  0  0  0  0  0
  -18.0267  -28.1386   22.8484 C   0  0  0  0  0  0
  -24.1501  -36.7354   23.2625 C   0  0  0  0  0  0
  -25.9196  -30.8385   21.3694 C   0  0  0  0  0  0
  -25.9896  -29.4751   20.7205 C   0  0  0  0  0  0
  -27.1794  -28.7191   20.7179 C   0  0  0  0  0  0
  -26.0473  -26.9727   19.4615 C   0  0  0  0  0  0
  -24.8567  -27.7194   19.4810 C   0  0  0  0  0  0
  -23.5996  -29.8419   20.1644 C   0  0  0  0  0  0
  -25.4106  -36.3115   24.0317 C   0  0  1  0  0  0
  -20.5836  -28.3666   23.1358 C   0  0  2  0  0  0
  -20.6765  -26.9422   22.5408 C   0  0  0  0  0  0
  -19.5752  -26.6397   21.5201 C   0  0  0  0  0  0
  -18.1924  -26.7934   22.1592 C   0  0  0  0  0  0
  -19.1501  -28.8826   23.2937 C   0  0  0  0  0  0
  -18.9429  -30.1431   23.8939 C   0  0  0  0  0  0
  -17.6432  -30.6589   24.0562 C   0  0  0  0  0  0
  -25.9033  -34.9476   23.5109 C   0  0  0  0  0  0
  -16.5335  -29.9084   23.6327 C   0  0  0  0  0  0
  -16.7247  -28.6512   23.0334 C   0  0  0  0  0  0
  -26.4442  -31.6616   25.0759 C   0  0  0  0  0  0
  -25.3718  -31.3735   26.1524 C   0  0  0  0  0  0
  -27.0274  -30.3062   24.6128 C   0  0  0  0  0  0
  -27.6027  -32.4335   25.7516 C   0  0  0  0  0  0
  -27.5581  -37.1817   24.8452 C   0  0  0  0  0  0
  -21.4086  -29.3070   22.3767 N   0  0  0  0  0  0
  -26.4282  -37.3797   23.9399 N   0  0  0  0  0  0
  -24.6588  -31.0851   22.1064 N   0  0  0  0  0  0
  -23.4144  -28.8208   23.3010 O   0  0  0  0  0  0
  -28.4218  -26.7769   20.0858 O   0  0  0  0  0  0
  -26.5561  -34.8933   22.4650 O   0  0  0  0  0  0
  -23.5311  -32.1453   23.7614 O   0  0  0  0  0  0
  -27.7547  -20.8852   20.6200 C   0  0  0  0  0  0
  -28.6123  -19.9535   21.2324 C   0  0  0  0  0  0
  -29.9237  -19.8268   19.1662 C   0  0  0  0  0  0
  -27.9789  -21.3148   19.2973 C   0  0  0  0  0  0
  -29.7010  -19.4352   20.5021 C   0  0  0  0  0  0
  -29.0644  -20.7699   18.5568 C   0  0  0  0  0  0
  -31.0751  -19.2186   18.3831 C   0  0  0  0  0  0
  -29.9902  -19.4684   25.9538 C   0  0  0  0  0  0
  -25.9888  -21.6568   17.9945 C   0  0  0  0  0  0
  -28.3377  -19.4805   22.6544 C   0  0  0  0  0  0
  -30.1325  -16.5143   23.4220 C   0  0  0  0  0  0
  -30.6497  -17.6202   24.3527 C   0  0  0  0  0  0
  -28.0350  -24.3856   19.6032 C   0  0  0  0  0  0
  -31.2591  -15.6817   22.8023 C   0  0  0  0  0  0
  -27.5980  -23.5527   18.3903 C   0  0  0  0  0  0
  -28.6038  -25.7371   19.1324 C   0  0  0  0  0  0
  -29.6079  -18.7143   24.6718 C   0  0  2  0  0  0
  -30.6583  -14.5774   22.0779 N   0  0  0  0  0  0
  -27.0684  -22.2475   18.7751 N   0  0  0  0  0  0
  -29.5115  -19.6574   23.5344 N   0  3  0  0  0  0
  -30.5445  -18.5631   21.1014 F   0  0  0  0  0  0
  -29.3378  -21.2017   16.8979 Cl  0  0  0  0  0  0
  -31.4562  -12.4145   19.0256 H   0  0  0  0  0  0
  -30.3349  -11.2450   19.6718 H   0  0  0  0  0  0
  -29.6981  -11.8389   17.3534 H   0  0  0  0  0  0
  -29.6368  -13.5370   17.7538 H   0  0  0  0  0  0
  -27.8177  -11.3260   18.7747 H   0  0  0  0  0  0
  -27.3411  -12.6773   17.7787 H   0  0  0  0  0  0
  -27.7435  -14.2587   19.6179 H   0  0  0  0  0  0
  -28.6484  -11.8721   21.2890 H   0  0  0  0  0  0
  -28.4503  -13.5076   21.8583 H   0  0  0  0  0  0
  -25.2833   -9.5576   22.4762 H   0  0  0  0  0  0
  -24.0002   -7.4593   22.7456 H   0  0  0  0  0  0
  -21.0880   -8.8809   19.8969 H   0  0  0  0  0  0
  -22.3804  -10.9668   19.6166 H   0  0  0  0  0  0
  -21.2040   -7.6157   23.9709 H   0  0  0  0  0  0
  -21.1459   -6.0523   25.9069 H   0  0  0  0  0  0
  -22.0635   -2.7614   23.2837 H   0  0  0  0  0  0
  -22.4185  -11.9892   22.4862 H   0  0  0  0  0  0
  -21.1141  -13.1169   22.2568 H   0  0  0  0  0  0
  -24.6658  -15.8408   20.5095 H   0  0  0  0  0  0
  -26.2926  -15.6273   20.0957 H   0  0  0  0  0  0
  -26.7103  -32.5496   23.1189 H   0  0  0  0  0  0
  -25.0196  -33.9850   25.0557 H   0  0  0  0  0  0
  -22.6847  -31.3184   21.4232 H   0  0  0  0  0  0
  -23.3739  -35.9716   23.3277 H   0  0  0  0  0  0
  -24.3599  -36.8978   22.2042 H   0  0  0  0  0  0
  -23.7288  -37.6568   23.6660 H   0  0  0  0  0  0
  -26.0301  -31.6022   20.5977 H   0  0  0  0  0  0
  -26.8114  -30.8890   21.9839 H   0  0  0  0  0  0
  -28.0730  -29.1036   21.1891 H   0  0  0  0  0  0
  -26.0222  -26.0245   18.9476 H   0  0  0  0  0  0
  -23.9718  -27.3326   18.9922 H   0  0  0  0  0  0
  -23.7166  -30.6239   19.4125 H   0  0  0  0  0  0
  -22.7174  -29.2735   19.8620 H   0  0  0  0  0  0
  -25.1288  -36.1943   25.0804 H   0  0  0  0  0  0
  -20.9926  -28.3194   24.1483 H   0  0  0  0  0  0
  -20.5677  -26.2272   23.3564 H   0  0  0  0  0  0
  -21.6648  -26.7512   22.1203 H   0  0  0  0  0  0
  -19.6948  -25.6309   21.1239 H   0  0  0  0  0  0
  -19.6709  -27.3193   20.6719 H   0  0  0  0  0  0
  -17.4204  -26.6682   21.3990 H   0  0  0  0  0  0
  -18.0357  -26.0068   22.8977 H   0  0  0  0  0  0
  -19.7899  -30.7250   24.2338 H   0  0  0  0  0  0
  -17.4983  -31.6271   24.5149 H   0  0  0  0  0  0
  -15.5327  -30.2986   23.7665 H   0  0  0  0  0  0
  -15.8653  -28.0849   22.7034 H   0  0  0  0  0  0
  -24.5887  -30.7075   25.7902 H   0  0  0  0  0  0
  -24.8918  -32.2894   26.4985 H   0  0  0  0  0  0
  -25.8065  -30.8911   27.0280 H   0  0  0  0  0  0
  -26.2821  -29.6837   24.1159 H   0  0  0  0  0  0
  -27.4030  -29.7292   25.4586 H   0  0  0  0  0  0
  -27.8674  -30.4438   23.9310 H   0  0  0  0  0  0
  -27.2657  -33.3622   26.2138 H   0  0  0  0  0  0
  -28.3805  -32.6885   25.0317 H   0  0  0  0  0  0
  -28.0721  -31.8421   26.5380 H   0  0  0  0  0  0
  -28.2568  -38.0138   24.7500 H   0  0  0  0  0  0
  -28.1079  -36.2652   24.6244 H   0  0  0  0  0  0
  -27.2317  -37.1477   25.8861 H   0  0  0  0  0  0
  -20.9194  -29.8817   21.7045 H   0  0  0  0  0  0
  -26.0152  -38.2876   24.1361 H   0  0  0  0  0  0
  -26.9081  -21.2716   21.1686 H   0  0  0  0  0  0
  -31.5578  -18.4052   18.9251 H   0  0  0  0  0  0
  -31.8279  -19.9767   18.1693 H   0  0  0  0  0  0
  -30.7153  -18.8105   17.4379 H   0  0  0  0  0  0
  -30.0547  -18.7814   26.7995 H   0  0  0  0  0  0
  -29.2379  -20.2145   26.2127 H   0  0  0  0  0  0
  -30.9518  -19.9738   25.8602 H   0  0  0  0  0  0
  -25.7859  -20.6323   18.3076 H   0  0  0  0  0  0
  -26.2062  -21.6475   16.9267 H   0  0  0  0  0  0
  -25.0742  -22.2321   18.1452 H   0  0  0  0  0  0
  -28.0170  -18.4416   22.6023 H   0  0  0  0  0  0
  -27.5034  -20.0281   23.0929 H   0  0  0  0  0  0
  -29.5572  -16.9295   22.5984 H   0  0  0  0  0  0
  -29.4360  -15.8771   23.9691 H   0  0  0  0  0  0
  -31.5450  -18.0751   23.9257 H   0  0  0  0  0  0
  -30.9839  -17.1473   25.2758 H   0  0  0  0  0  0
  -28.7914  -23.8620   20.1934 H   0  0  0  0  0  0
  -27.1828  -24.5212   20.2698 H   0  0  0  0  0  0
  -31.9227  -15.2932   23.5751 H   0  0  0  0  0  0
  -31.8656  -16.3044   22.1413 H   0  0  0  0  0  0
  -28.4402  -23.4638   17.7056 H   0  0  0  0  0  0
  -26.8301  -24.0983   17.8357 H   0  0  0  0  0  0
  -28.1864  -26.0397   18.1688 H   0  0  0  0  0  0
  -29.6714  -25.6177   18.9552 H   0  0  0  0  0  0
  -28.6361  -18.2493   24.8556 H   0  0  0  0  0  0
  -29.9920  -14.0082   22.5824 H   0  0  0  0  0  0
  -29.4991  -20.6027   23.8794 H   0  0  0  0  0  0
  -30.3411  -19.5424   22.9725 H   0  0  0  0  0  0
  1 25  1  0  0  0
  1 30  2  0  0  0
  1 88  1  0  0  0
  2  3  1  0  0  0
  2 25  1  0  0  0
  2 93  1  0  0  0
  2 94  1  0  0  0
  3  4  1  0  0  0
  3 95  1  0  0  0
  3 96  1  0  0  0
  4  5  1  0  0  0
  4 97  1  0  0  0
  4 98  1  0  0  0
  5  6  1  0  0  0
  5 26  1  0  0  0
  5 99  1  0  0  0
  6 25  1  0  0  0
  6100  1  0  0  0
  6101  1  0  0  0
  7  8  2  0  0  0
  7 26  1  0  0  0
  7 29  1  0  0  0
  8  9  1  0  0  0
  8 22  1  0  0  0
  9 10  1  0  0  0
  9 27  2  0  0  0
 10 11  2  0  0  0
 10 15  1  0  0  0
 11 12  1  0  0  0
 11102  1  0  0  0
 12 13  2  0  0  0
 12103  1  0  0  0
 13 14  1  0  0  0
 13 31  1  0  0  0
 14 15  2  0  0  0
 14104  1  0  0  0
 15105  1  0  0  0
 16 17  2  0  0  0
 16 21  1  0  0  0
 16 31  1  0  0  0
 17 18  1  0  0  0
 17106  1  0  0  0
 18 19  2  0  0  0
 18107  1  0  0  0
 19 20  1  0  0  0
 19 24  1  0  0  0
 20 21  2  0  0  0
 20108  1  0  0  0
 21 23  1  0  0  0
 22 28  1  0  0  0
 22 32  2  0  0  0
 26 27  1  0  0  0
 28109  1  0  0  0
 28110  1  0  0  0
 29111  1  0  0  0
 29112  1  0  0  0
 33 34  1  0  0  0
 33 66  1  0  0  0
 33 70  2  0  0  0
 34 36  1  0  0  0
 34 59  1  0  0  0
 34113  1  0  0  0
 35 44  2  0  0  0
 35 45  1  0  0  0
 35 68  1  0  0  0
 36 56  1  0  0  0
 36114  1  0  0  0
 37 39  1  0  0  0
 37 47  1  0  0  0
 37 66  1  0  0  0
 37115  1  0  0  0
 38 43  2  0  0  0
 38 46  1  0  0  0
 38 47  1  0  0  0
 39 64  1  0  0  0
 39 67  2  0  0  0
 40 52  1  0  0  0
 40 53  2  0  0  0
 40 58  1  0  0  0
 41116  1  0  0  0
 41117  1  0  0  0
 41118  1  0  0  0
 41 48  1  0  0  0
 42 43  1  0  0  0
 42 66  1  0  0  0
 42119  1  0  0  0
 42120  1  0  0  0
 43 44  1  0  0  0
 44121  1  0  0  0
 45 46  2  0  0  0
 45122  1  0  0  0
 46123  1  0  0  0
 47124  1  0  0  0
 47125  1  0  0  0
 48 56  1  0  0  0
 48 65  1  0  0  0
 48126  1  0  0  0
 49 50  1  0  0  0
 49 53  1  0  0  0
 49 64  1  0  0  0
 49127  1  0  0  0
 50 51  1  0  0  0
 50128  1  0  0  0
 50129  1  0  0  0
 51 52  1  0  0  0
 51130  1  0  0  0
 51131  1  0  0  0
 52132  1  0  0  0
 52133  1  0  0  0
 53 54  1  0  0  0
 54 55  2  0  0  0
 54134  1  0  0  0
 55 57  1  0  0  0
 55135  1  0  0  0
 56 69  2  0  0  0
 57 58  2  0  0  0
 57136  1  0  0  0
 58137  1  0  0  0
 59 60  1  0  0  0
 59 61  1  0  0  0
 59 62  1  0  0  0
 60138  1  0  0  0
 60139  1  0  0  0
 60140  1  0  0  0
 61141  1  0  0  0
 61142  1  0  0  0
 61143  1  0  0  0
 62144  1  0  0  0
 62145  1  0  0  0
 62146  1  0  0  0
 63 65  1  0  0  0
 63147  1  0  0  0
 63148  1  0  0  0
 63149  1  0  0  0
 64150  1  0  0  0
 65151  1  0  0  0
 68 86  1  0  0  0
 71 72  2  0  0  0
 71 74  1  0  0  0
 71152  1  0  0  0
 72 75  1  0  0  0
 72 80  1  0  0  0
 73 75  2  0  0  0
 73 76  1  0  0  0
 73 77  1  0  0  0
 74 76  2  0  0  0
 74 89  1  0  0  0
 75 91  1  0  0  0
 76 92  1  0  0  0
 77153  1  0  0  0
 77154  1  0  0  0
 77155  1  0  0  0
 78156  1  0  0  0
 78157  1  0  0  0
 78158  1  0  0  0
 78 87  1  0  0  0
 79 89  1  0  0  0
 79159  1  0  0  0
 79160  1  0  0  0
 79161  1  0  0  0
 80 90  1  0  0  0
 80162  1  0  0  0
 80163  1  0  0  0
 81 82  1  0  0  0
 81 84  1  0  0  0
 81164  1  0  0  0
 81165  1  0  0  0
 82 87  1  0  0  0
 82166  1  0  0  0
 82167  1  0  0  0
 83 85  1  0  0  0
 83 86  1  0  0  0
 83168  1  0  0  0
 83169  1  0  0  0
 84 88  1  0  0  0
 84170  1  0  0  0
 84171  1  0  0  0
 85 89  1  0  0  0
 85172  1  0  0  0
 85173  1  0  0  0
 86174  1  0  0  0
 86175  1  0  0  0
 87 90  1  0  0  0
 87176  1  0  0  0
 88177  1  0  0  0
 90178  1  0  0  0
 90179  1  0  0  0
M  CHG  1  90   1
M  ISO  4   1 100  68 101  86 101  88 100
M  END
> <chiral flag>
0

> <version>
0

> <s_m_source_file>
/data/baiqing/PycharmProjects/Reinvent-master-3.2/result/LINK_invent/BTK/process_docking_weight1_custom_sum_contain_oxygen_bond_distance_aromatic_linkinvent_7_9_3/rearranged_h_0021.sdf

> <i_m_source_file_index>
53

> <r_mmod_Potential_Energy-OPLS-2005>
-226.778121948242

> <r_mmod_Stretch_Energy-OPLS-2005>
32.2722091674805

> <r_mmod_Bend_Energy-OPLS-2005>
102.173309326172

> <r_mmod_Torsional_Energy-OPLS-2005>
239.940704345703

> <r_mmod_Improper_Torsional_Energy-OPLS-2005>
6.26679944992065

> <r_mmod_Van_der_Waal_Energy-OPLS-2005>
157.941268920898

> <r_mmod_Electrostatic_Energy-OPLS-2005>
-313.125549316406

> <r_mmod_Solvation_Energy-OPLS-2005>
-465.475219726562

> <b_mmod_Minimization_Converged-OPLS-2005>
0

> <r_mmod_RMS_Derivative-OPLS-2005>
4.32981157302856

$$$$
54
                    3D
 Structure written by MMmdl.
189197  0  0  1  0            999 V2000
  -30.7904  -13.6061   21.2904 C   0  0  0  0  0  0
  -30.7592  -12.3947   18.3753 C   0  0  0  0  0  0
  -29.2934  -11.7158   17.7676 C   0  0  0  0  0  0
  -27.7841  -12.1444   18.4310 C   0  0  0  0  0  0
  -27.5124  -13.2452   19.7220 C   0  0  2  0  0  0
  -28.7447  -14.0722   20.6173 C   0  0  0  0  0  0
  -25.2215  -13.8324   20.6289 C   0  0  0  0  0  0
  -24.1576  -13.0465   20.9675 C   0  0  0  0  0  0
  -24.6298  -11.6955   20.9242 C   0  0  0  0  0  0
  -23.9042  -10.4280   21.0634 C   0  0  0  0  0  0
  -24.3619   -9.4114   21.9325 C   0  0  0  0  0  0
  -23.6281   -8.2163   22.0778 C   0  0  0  0  0  0
  -22.4261   -8.0283   21.3552 C   0  0  0  0  0  0
  -21.9954   -9.0256   20.4667 C   0  0  0  0  0  0
  -22.7271  -10.2142   20.3160 C   0  0  0  0  0  0
  -21.6838   -6.0722   22.5246 C   0  0  0  0  0  0
  -21.3979   -6.5611   23.8188 C   0  0  0  0  0  0
  -21.3655   -5.6777   24.9169 C   0  0  0  0  0  0
  -21.6064   -4.3039   24.7222 C   0  0  0  0  0  0
  -21.8804   -3.8115   23.4342 C   0  0  0  0  0  0
  -21.9167   -4.6945   22.3388 C   0  0  0  0  0  0
  -22.7561  -13.5189   21.2064 C   0  0  0  0  0  0
  -22.1646   -4.2111   21.0989 F   0  0  0  0  0  0
  -21.5643   -3.4528   25.7751 F   0  0  0  0  0  0
  -30.4402  -13.7311   20.1564 N   0  0  0  0  0  0
  -26.2679  -12.9583   20.3947 N   0  0  0  0  0  0
  -25.9237  -11.6710   20.6360 N   0  0  0  0  0  0
  -22.0087  -12.8186   22.0508 N   0  0  0  0  0  0
  -25.3805  -15.2072   20.4526 N   0  0  0  0  0  0
  -31.5705  -14.4582   21.6865 O   0  0  0  0  0  0
  -21.6611   -6.8872   21.4219 O   0  0  0  0  0  0
  -22.3308  -14.5436   20.6756 O   0  0  0  0  0  0
  -24.6179  -31.8682   23.2120 C   0  0  0  0  0  0
  -25.9065  -32.4828   23.8414 C   0  0  1  0  0  0
  -27.2320  -27.4130   20.0889 C   0  0  0  0  0  0
  -25.5906  -33.8628   24.2333 N   0  0  0  0  0  0
  -23.4048  -30.4956   21.5517 C   0  0  2  0  0  0
  -24.8494  -28.9670   20.1154 C   0  0  0  0  0  0
  -22.7422  -29.4671   22.4977 C   0  0  0  0  0  0
  -18.0283  -28.1375   22.8493 C   0  0  0  0  0  0
  -24.1487  -36.7314   23.2634 C   0  0  0  0  0  0
  -25.9387  -30.8309   21.3678 C   0  0  0  0  0  0
  -26.0159  -29.4672   20.7080 C   0  0  0  0  0  0
  -27.2098  -28.7016   20.6851 C   0  0  0  0  0  0
  -26.0335  -26.9381   19.4980 C   0  0  0  0  0  0
  -24.8542  -27.7025   19.5093 C   0  0  0  0  0  0
  -23.6133  -29.8359   20.1653 C   0  0  0  0  0  0
  -25.4109  -36.3118   24.0340 C   0  0  1  0  0  0
  -20.5870  -28.3672   23.1307 C   0  0  2  0  0  0
  -20.6771  -26.9407   22.5413 C   0  0  0  0  0  0
  -19.5750  -26.6386   21.5211 C   0  0  0  0  0  0
  -18.1930  -26.7922   22.1621 C   0  0  0  0  0  0
  -19.1530  -28.8844   23.2894 C   0  0  0  0  0  0
  -18.9454  -30.1445   23.8913 C   0  0  0  0  0  0
  -17.6456  -30.6580   24.0570 C   0  0  0  0  0  0
  -25.9042  -34.9484   23.5135 C   0  0  0  0  0  0
  -16.5349  -29.9087   23.6319 C   0  0  0  0  0  0
  -16.7271  -28.6500   23.0348 C   0  0  0  0  0  0
  -26.4478  -31.6602   25.0740 C   0  0  0  0  0  0
  -25.3738  -31.3720   26.1482 C   0  0  0  0  0  0
  -27.0300  -30.3039   24.6126 C   0  0  0  0  0  0
  -27.6058  -32.4317   25.7491 C   0  0  0  0  0  0
  -27.5592  -37.1801   24.8460 C   0  0  0  0  0  0
  -21.4146  -29.3044   22.3715 N   0  0  0  0  0  0
  -26.4296  -37.3804   23.9418 N   0  0  0  0  0  0
  -24.6719  -31.0794   22.1015 N   0  0  0  0  0  0
  -23.4197  -28.8211   23.3017 O   0  0  0  0  0  0
  -28.3976  -26.6533   20.1027 O   0  0  0  0  0  0
  -26.5600  -34.8928   22.4695 O   0  0  0  0  0  0
  -23.5362  -32.1441   23.7488 O   0  0  0  0  0  0
  -29.3522  -14.1095   18.2808 C   0  0  0  0  0  0
  -32.6221  -13.9404   18.8653 C   0  0  0  0  0  0
  -29.6008  -11.8287   20.2034 C   0  0  1  0  0  0
  -31.1167  -14.8662   18.1749 C   0  0  1  0  0  0
  -32.7791  -12.3227   19.8315 C   0  0  0  0  0  0
  -31.3723  -11.1692   20.3730 C   0  0  0  0  0  0
  -33.7626  -11.4337   18.9963 C   0  0  0  0  0  0
  -33.7679  -12.5802   21.0249 C   0  0  0  0  0  0
  -31.7985  -10.5457   21.7850 C   0  0  0  0  0  0
  -31.3550   -9.7679   19.6331 C   0  0  0  0  0  0
  -33.1433  -17.7321   16.8900 C   0  0  0  0  0  0
  -30.5051  -21.9098   19.6738 C   0  0  0  0  0  0
  -30.1620  -20.5506   18.9954 C   0  0  0  0  0  0
  -29.2937  -22.8918   19.6623 C   0  0  0  0  0  0
  -31.3061  -19.5051   18.8720 C   0  0  0  0  0  0
  -29.5440  -24.3828   20.0401 C   0  0  0  0  0  0
  -30.8931  -18.2549   18.0356 C   0  0  0  0  0  0
  -28.2514  -25.2347   19.8897 C   0  0  0  0  0  0
  -32.0021  -17.1957   17.7613 C   0  0  1  0  0  0
  -30.1409  -12.4265   21.5657 N   0  0  0  0  0  0
  -31.4243  -15.9286   17.1786 N   0  3  0  0  0  0
  -31.0991  -12.7780   17.4040 H   0  0  0  0  0  0
  -31.4732  -11.6431   18.1424 H   0  0  0  0  0  0
  -29.3643  -10.6272   17.7750 H   0  0  0  0  0  0
  -29.2338  -11.8973   16.6841 H   0  0  0  0  0  0
  -27.2796  -11.2038   18.6244 H   0  0  0  0  0  0
  -27.1999  -12.5331   17.5920 H   0  0  0  0  0  0
  -27.1144  -14.0634   19.1200 H   0  0  0  0  0  0
  -28.4225  -13.9893   21.6698 H   0  0  0  0  0  0
  -28.5839  -15.1557   20.5211 H   0  0  0  0  0  0
  -25.2721   -9.5539   22.4987 H   0  0  0  0  0  0
  -23.9927   -7.4514   22.7449 H   0  0  0  0  0  0
  -21.0915   -8.8852   19.8945 H   0  0  0  0  0  0
  -22.3780  -10.9786   19.6337 H   0  0  0  0  0  0
  -21.1971   -7.6115   23.9693 H   0  0  0  0  0  0
  -21.1505   -6.0513   25.9081 H   0  0  0  0  0  0
  -22.0606   -2.7582   23.2859 H   0  0  0  0  0  0
  -22.3572  -11.9934   22.5129 H   0  0  0  0  0  0
  -21.0654  -13.1190   22.2482 H   0  0  0  0  0  0
  -24.6072  -15.8596   20.5541 H   0  0  0  0  0  0
  -26.2449  -15.6696   20.2065 H   0  0  0  0  0  0
  -26.7133  -32.5534   23.1170 H   0  0  0  0  0  0
  -25.0059  -33.9789   25.0480 H   0  0  0  0  0  0
  -22.6949  -31.3144   21.4164 H   0  0  0  0  0  0
  -23.3760  -35.9632   23.3279 H   0  0  0  0  0  0
  -24.3596  -36.8947   22.2053 H   0  0  0  0  0  0
  -23.7223  -37.6507   23.6661 H   0  0  0  0  0  0
  -26.0598  -31.6016   20.6048 H   0  0  0  0  0  0
  -26.8238  -30.8761   21.9903 H   0  0  0  0  0  0
  -28.1099  -29.0901   21.1408 H   0  0  0  0  0  0
  -25.9706  -25.9723   19.0211 H   0  0  0  0  0  0
  -23.9563  -27.3107   19.0507 H   0  0  0  0  0  0
  -23.7240  -30.6137   19.4096 H   0  0  0  0  0  0
  -22.7358  -29.2594   19.8670 H   0  0  0  0  0  0
  -25.1278  -36.1978   25.0835 H   0  0  0  0  0  0
  -20.9972  -28.3241   24.1421 H   0  0  0  0  0  0
  -20.5672  -26.2282   23.3602 H   0  0  0  0  0  0
  -21.6641  -26.7444   22.1206 H   0  0  0  0  0  0
  -19.6910  -25.6303   21.1230 H   0  0  0  0  0  0
  -19.6685  -27.3204   20.6746 H   0  0  0  0  0  0
  -17.4195  -26.6670   21.4026 H   0  0  0  0  0  0
  -18.0333  -26.0063   22.9018 H   0  0  0  0  0  0
  -19.7933  -30.7253   24.2291 H   0  0  0  0  0  0
  -17.5015  -31.6262   24.5166 H   0  0  0  0  0  0
  -15.5350  -30.2994   23.7640 H   0  0  0  0  0  0
  -15.8667  -28.0826   22.7053 H   0  0  0  0  0  0
  -24.5910  -30.7063   25.7824 H   0  0  0  0  0  0
  -24.8923  -32.2875   26.4926 H   0  0  0  0  0  0
  -25.8081  -30.8896   27.0242 H   0  0  0  0  0  0
  -26.2846  -29.6808   24.1166 H   0  0  0  0  0  0
  -27.4042  -29.7274   25.4592 H   0  0  0  0  0  0
  -27.8696  -30.4347   23.9299 H   0  0  0  0  0  0
  -27.2688  -33.3607   26.2098 H   0  0  0  0  0  0
  -28.3843  -32.6891   25.0302 H   0  0  0  0  0  0
  -28.0747  -31.8425   26.5374 H   0  0  0  0  0  0
  -28.2587  -38.0120   24.7551 H   0  0  0  0  0  0
  -28.1108  -36.2656   24.6224 H   0  0  0  0  0  0
  -27.2319  -37.1378   25.8864 H   0  0  0  0  0  0
  -20.9308  -29.8775   21.6938 H   0  0  0  0  0  0
  -26.0182  -38.2874   24.1447 H   0  0  0  0  0  0
  -28.7587  -15.0109   18.4726 H   0  0  0  0  0  0
  -29.0431  -13.9553   17.2375 H   0  0  0  0  0  0
  -33.1221  -14.6835   19.4895 H   0  0  0  0  0  0
  -33.3054  -13.8224   18.0221 H   0  0  0  0  0  0
  -28.8085  -11.0891   20.3653 H   0  0  0  0  0  0
  -30.9413  -15.5847   18.9700 H   0  0  0  0  0  0
  -33.4463  -11.1910   17.9780 H   0  0  0  0  0  0
  -33.9524  -10.4787   19.4996 H   0  0  0  0  0  0
  -34.7371  -11.9190   18.8878 H   0  0  0  0  0  0
  -33.3335  -12.9656   21.9416 H   0  0  0  0  0  0
  -34.5419  -13.2891   20.7233 H   0  0  0  0  0  0
  -34.2895  -11.6742   21.3440 H   0  0  0  0  0  0
  -32.0468  -11.2661   22.5666 H   0  0  0  0  0  0
  -32.6811   -9.9062   21.7233 H   0  0  0  0  0  0
  -31.0069   -9.9220   22.1963 H   0  0  0  0  0  0
  -31.2497   -9.7351   18.5557 H   0  0  0  0  0  0
  -30.5140   -9.1700   19.9920 H   0  0  0  0  0  0
  -32.2375   -9.1550   19.8081 H   0  0  0  0  0  0
  -33.6210  -18.5936   17.3549 H   0  0  0  0  0  0
  -32.7920  -18.0408   15.9080 H   0  0  0  0  0  0
  -33.9264  -16.9876   16.7589 H   0  0  0  0  0  0
  -31.3498  -22.3654   19.1579 H   0  0  0  0  0  0
  -30.8331  -21.7427   20.6998 H   0  0  0  0  0  0
  -29.7988  -20.7623   17.9898 H   0  0  0  0  0  0
  -29.3220  -20.0946   19.5223 H   0  0  0  0  0  0
  -28.5193  -22.4892   20.3180 H   0  0  0  0  0  0
  -28.8643  -22.8772   18.6608 H   0  0  0  0  0  0
  -31.6195  -19.1855   19.8688 H   0  0  0  0  0  0
  -32.1733  -19.9837   18.4170 H   0  0  0  0  0  0
  -30.3147  -24.7964   19.3880 H   0  0  0  0  0  0
  -29.9249  -24.4597   21.0588 H   0  0  0  0  0  0
  -30.4907  -18.5858   17.0793 H   0  0  0  0  0  0
  -30.0602  -17.7760   18.5491 H   0  0  0  0  0  0
  -27.4995  -24.8496   20.5850 H   0  0  0  0  0  0
  -27.8763  -25.0622   18.8804 H   0  0  0  0  0  0
  -32.4768  -16.9573   18.7150 H   0  0  0  0  0  0
  -30.2289  -11.8775   22.4151 H   0  0  0  0  0  0
  -30.5990  -16.1638   16.6594 H   0  0  0  0  0  0
  -32.0824  -15.5591   16.5065 H   0  0  0  0  0  0
  1 25  1  0  0  0
  1 30  2  0  0  0
  1 90  1  0  0  0
  2  3  1  0  0  0
  2 25  1  0  0  0
  2 92  1  0  0  0
  2 93  1  0  0  0
  3  4  1  0  0  0
  3 94  1  0  0  0
  3 95  1  0  0  0
  4  5  1  0  0  0
  4 96  1  0  0  0
  4 97  1  0  0  0
  5  6  1  0  0  0
  5 26  1  0  0  0
  5 98  1  0  0  0
  6 25  1  0  0  0
  6 99  1  0  0  0
  6100  1  0  0  0
  7  8  2  0  0  0
  7 26  1  0  0  0
  7 29  1  0  0  0
  8  9  1  0  0  0
  8 22  1  0  0  0
  9 10  1  0  0  0
  9 27  2  0  0  0
 10 11  2  0  0  0
 10 15  1  0  0  0
 11 12  1  0  0  0
 11101  1  0  0  0
 12 13  2  0  0  0
 12102  1  0  0  0
 13 14  1  0  0  0
 13 31  1  0  0  0
 14 15  2  0  0  0
 14103  1  0  0  0
 15104  1  0  0  0
 16 17  2  0  0  0
 16 21  1  0  0  0
 16 31  1  0  0  0
 17 18  1  0  0  0
 17105  1  0  0  0
 18 19  2  0  0  0
 18106  1  0  0  0
 19 20  1  0  0  0
 19 24  1  0  0  0
 20 21  2  0  0  0
 20107  1  0  0  0
 21 23  1  0  0  0
 22 28  1  0  0  0
 22 32  2  0  0  0
 26 27  1  0  0  0
 28108  1  0  0  0
 28109  1  0  0  0
 29110  1  0  0  0
 29111  1  0  0  0
 33 34  1  0  0  0
 33 66  1  0  0  0
 33 70  2  0  0  0
 34 36  1  0  0  0
 34 59  1  0  0  0
 34112  1  0  0  0
 35 44  2  0  0  0
 35 45  1  0  0  0
 35 68  1  0  0  0
 36 56  1  0  0  0
 36113  1  0  0  0
 37 39  1  0  0  0
 37 47  1  0  0  0
 37 66  1  0  0  0
 37114  1  0  0  0
 38 43  2  0  0  0
 38 46  1  0  0  0
 38 47  1  0  0  0
 39 64  1  0  0  0
 39 67  2  0  0  0
 40 52  1  0  0  0
 40 53  2  0  0  0
 40 58  1  0  0  0
 41115  1  0  0  0
 41116  1  0  0  0
 41117  1  0  0  0
 41 48  1  0  0  0
 42 43  1  0  0  0
 42 66  1  0  0  0
 42118  1  0  0  0
 42119  1  0  0  0
 43 44  1  0  0  0
 44120  1  0  0  0
 45 46  2  0  0  0
 45121  1  0  0  0
 46122  1  0  0  0
 47123  1  0  0  0
 47124  1  0  0  0
 48 56  1  0  0  0
 48 65  1  0  0  0
 48125  1  0  0  0
 49 50  1  0  0  0
 49 53  1  0  0  0
 49 64  1  0  0  0
 49126  1  0  0  0
 50 51  1  0  0  0
 50127  1  0  0  0
 50128  1  0  0  0
 51 52  1  0  0  0
 51129  1  0  0  0
 51130  1  0  0  0
 52131  1  0  0  0
 52132  1  0  0  0
 53 54  1  0  0  0
 54 55  2  0  0  0
 54133  1  0  0  0
 55 57  1  0  0  0
 55134  1  0  0  0
 56 69  2  0  0  0
 57 58  2  0  0  0
 57135  1  0  0  0
 58136  1  0  0  0
 59 60  1  0  0  0
 59 61  1  0  0  0
 59 62  1  0  0  0
 60137  1  0  0  0
 60138  1  0  0  0
 60139  1  0  0  0
 61140  1  0  0  0
 61141  1  0  0  0
 61142  1  0  0  0
 62143  1  0  0  0
 62144  1  0  0  0
 62145  1  0  0  0
 63 65  1  0  0  0
 63146  1  0  0  0
 63147  1  0  0  0
 63148  1  0  0  0
 64149  1  0  0  0
 65150  1  0  0  0
 68 88  1  0  0  0
 71 73  1  0  0  0
 71 74  1  0  0  0
 71151  1  0  0  0
 71152  1  0  0  0
 72 74  1  0  0  0
 72 75  1  0  0  0
 72153  1  0  0  0
 72154  1  0  0  0
 73 76  1  0  0  0
 73 90  1  0  0  0
 73155  1  0  0  0
 74 91  1  0  0  0
 74156  1  0  0  0
 75 76  1  0  0  0
 75 77  1  0  0  0
 75 78  1  0  0  0
 76 79  1  0  0  0
 76 80  1  0  0  0
 77157  1  0  0  0
 77158  1  0  0  0
 77159  1  0  0  0
 78160  1  0  0  0
 78161  1  0  0  0
 78162  1  0  0  0
 79163  1  0  0  0
 79164  1  0  0  0
 79165  1  0  0  0
 80166  1  0  0  0
 80167  1  0  0  0
 80168  1  0  0  0
 81169  1  0  0  0
 81170  1  0  0  0
 81171  1  0  0  0
 81 89  1  0  0  0
 82 83  1  0  0  0
 82 84  1  0  0  0
 82172  1  0  0  0
 82173  1  0  0  0
 83 85  1  0  0  0
 83174  1  0  0  0
 83175  1  0  0  0
 84 86  1  0  0  0
 84176  1  0  0  0
 84177  1  0  0  0
 85 87  1  0  0  0
 85178  1  0  0  0
 85179  1  0  0  0
 86 88  1  0  0  0
 86180  1  0  0  0
 86181  1  0  0  0
 87 89  1  0  0  0
 87182  1  0  0  0
 87183  1  0  0  0
 88184  1  0  0  0
 88185  1  0  0  0
 89 91  1  0  0  0
 89186  1  0  0  0
 90187  1  0  0  0
 91188  1  0  0  0
 91189  1  0  0  0
M  CHG  1  91   1
M  ISO  4   1 100  68 101  88 101  90 100
M  END
> <chiral flag>
0

> <version>
0

> <s_m_source_file>
/data/baiqing/PycharmProjects/Reinvent-master-3.2/result/LINK_invent/BTK/process_docking_weight1_custom_sum_contain_oxygen_bond_distance_aromatic_linkinvent_7_9_3/rearranged_h_0021.sdf

> <i_m_source_file_index>
54

> <r_mmod_Potential_Energy-OPLS-2005>
8198.0517578125

> <r_mmod_Stretch_Energy-OPLS-2005>
4537.05029296875

> <r_mmod_Bend_Energy-OPLS-2005>
744.68408203125

> <r_mmod_Torsional_Energy-OPLS-2005>
454.146087646484

> <r_mmod_Improper_Torsional_Energy-OPLS-2005>
9.20004367828369

> <r_mmod_Van_der_Waal_Energy-OPLS-2005>
2385.5048828125

> <r_mmod_Electrostatic_Energy-OPLS-2005>
-326.724700927734

> <r_mmod_Solvation_Energy-OPLS-2005>
-406.735229492188

> <b_mmod_Minimization_Converged-OPLS-2005>
0

> <r_mmod_RMS_Derivative-OPLS-2005>
14.5988550186157

$$$$
55
                    3D
 Structure written by MMmdl.
156164  0  0  1  0            999 V2000
  -30.5994  -14.6731   20.4918 C   0  0  0  0  0  0
  -30.4414  -12.4102   19.4558 C   0  0  0  0  0  0
  -29.5095  -12.5102   18.2263 C   0  0  0  0  0  0
  -28.0324  -12.3433   18.6388 C   0  0  0  0  0  0
  -27.6507  -13.2167   19.8635 C   0  0  2  0  0  0
  -28.6967  -13.0748   20.9924 C   0  0  0  0  0  0
  -25.2487  -13.8125   20.5574 C   0  0  0  0  0  0
  -24.1785  -13.0403   20.9162 C   0  0  0  0  0  0
  -24.6384  -11.6887   20.8752 C   0  0  0  0  0  0
  -23.9058  -10.4276   21.0422 C   0  0  0  0  0  0
  -24.3609   -9.4191   21.9197 C   0  0  0  0  0  0
  -23.6287   -8.2224   22.0758 C   0  0  0  0  0  0
  -22.4268   -8.0266   21.3547 C   0  0  0  0  0  0
  -21.9907   -9.0239   20.4647 C   0  0  0  0  0  0
  -22.7234  -10.2120   20.3068 C   0  0  0  0  0  0
  -21.6840   -6.0730   22.5280 C   0  0  0  0  0  0
  -21.4003   -6.5637   23.8214 C   0  0  0  0  0  0
  -21.3665   -5.6791   24.9178 C   0  0  0  0  0  0
  -21.6045   -4.3055   24.7225 C   0  0  0  0  0  0
  -21.8818   -3.8146   23.4348 C   0  0  0  0  0  0
  -21.9190   -4.6961   22.3405 C   0  0  0  0  0  0
  -22.7815  -13.5205   21.1855 C   0  0  0  0  0  0
  -22.1657   -4.2148   21.0982 F   0  0  0  0  0  0
  -21.5640   -3.4540   25.7742 F   0  0  0  0  0  0
  -30.0087  -13.4347   20.4292 N   0  0  0  0  0  0
  -26.2964  -12.9334   20.3319 N   0  0  0  0  0  0
  -25.9321  -11.6491   20.5796 N   0  0  0  0  0  0
  -22.0468  -12.8202   22.0427 N   0  0  0  0  0  0
  -25.4075  -15.1813   20.3789 N   0  0  0  0  0  0
  -31.7662  -14.8249   20.1277 O   0  0  0  0  0  0
  -21.6629   -6.8866   21.4239 O   0  0  0  0  0  0
  -22.3492  -14.5518   20.6722 O   0  0  0  0  0  0
  -24.6259  -31.8577   23.1984 C   0  0  0  0  0  0
  -25.9104  -32.4765   23.8324 C   0  0  1  0  0  0
  -27.2337  -27.3115   20.1318 C   0  0  0  0  0  0
  -25.5920  -33.8565   24.2265 N   0  0  0  0  0  0
  -23.4201  -30.4776   21.5416 C   0  0  2  0  0  0
  -24.8681  -28.9162   20.1222 C   0  0  0  0  0  0
  -22.7469  -29.4610   22.4934 C   0  0  0  0  0  0
  -18.0292  -28.1378   22.8479 C   0  0  0  0  0  0
  -24.1495  -36.7280   23.2644 C   0  0  0  0  0  0
  -25.9591  -30.7872   21.3672 C   0  0  0  0  0  0
  -26.0350  -29.4090   20.7194 C   0  0  0  0  0  0
  -27.2226  -28.6205   20.7055 C   0  0  0  0  0  0
  -26.0437  -26.8558   19.5302 C   0  0  0  0  0  0
  -24.8736  -27.6453   19.5197 C   0  0  0  0  0  0
  -23.6368  -29.7990   20.1617 C   0  0  0  0  0  0
  -25.4111  -36.3065   24.0338 C   0  0  1  0  0  0
  -20.5890  -28.3668   23.1289 C   0  0  2  0  0  0
  -20.6779  -26.9392   22.5410 C   0  0  0  0  0  0
  -19.5763  -26.6375   21.5207 C   0  0  0  0  0  0
  -18.1940  -26.7922   22.1617 C   0  0  0  0  0  0
  -19.1544  -28.8839   23.2879 C   0  0  0  0  0  0
  -18.9467  -30.1445   23.8886 C   0  0  0  0  0  0
  -17.6467  -30.6575   24.0554 C   0  0  0  0  0  0
  -25.9046  -34.9441   23.5102 C   0  0  0  0  0  0
  -16.5361  -29.9069   23.6335 C   0  0  0  0  0  0
  -16.7277  -28.6498   23.0341 C   0  0  0  0  0  0
  -26.4493  -31.6581   25.0699 C   0  0  0  0  0  0
  -25.3729  -31.3725   26.1431 C   0  0  0  0  0  0
  -27.0338  -30.3013   24.6129 C   0  0  0  0  0  0
  -27.6052  -32.4316   25.7469 C   0  0  0  0  0  0
  -27.5578  -37.1792   24.8468 C   0  0  0  0  0  0
  -21.4184  -29.3029   22.3683 N   0  0  0  0  0  0
  -26.4287  -37.3758   23.9415 N   0  0  0  0  0  0
  -24.6874  -31.0582   22.0932 N   0  0  0  0  0  0
  -23.4197  -28.8156   23.3012 O   0  0  0  0  0  0
  -28.3945  -26.5336   20.0596 O   0  0  0  0  0  0
  -26.5608  -34.8912   22.4663 O   0  0  0  0  0  0
  -23.5424  -32.1374   23.7319 O   0  0  0  0  0  0
  -30.2957  -19.5161   20.1320 C   0  0  0  0  0  0
  -29.1676  -20.1067   20.7703 C   0  0  0  0  0  0
  -28.2669  -19.1728   21.3701 C   0  0  0  0  0  0
  -29.6860  -17.1747   20.7701 C   0  0  0  0  0  0
  -30.5449  -18.1029   20.0978 C   0  0  0  0  0  0
  -28.5560  -17.7650   21.4086 C   0  0  0  0  0  0
  -26.9820  -19.6864   22.0164 C   0  0  0  0  0  0
  -29.0136  -21.6846   20.9620 C   0  0  0  0  0  0
  -27.9806  -23.8769   19.8362 C   0  0  0  0  0  0
  -28.4900  -25.1645   20.6259 C   0  0  0  0  0  0
  -29.7641  -15.6976   20.8648 N   0  0  0  0  0  0
  -28.8307  -22.5980   19.7700 N   0  3  0  0  0  0
  -31.9308  -17.5972   19.2029 Cl  0  0  0  0  0  0
  -27.5163  -16.7086   22.3120 Cl  0  0  0  0  0  0
  -31.4819  -12.5419   19.1540 H   0  0  0  0  0  0
  -30.3841  -11.4157   19.9013 H   0  0  0  0  0  0
  -29.7777  -11.7531   17.4878 H   0  0  0  0  0  0
  -29.6476  -13.4756   17.7369 H   0  0  0  0  0  0
  -27.8745  -11.2898   18.8737 H   0  0  0  0  0  0
  -27.3769  -12.5663   17.7958 H   0  0  0  0  0  0
  -27.6664  -14.2515   19.5211 H   0  0  0  0  0  0
  -28.7172  -12.0501   21.3659 H   0  0  0  0  0  0
  -28.4353  -13.6954   21.8508 H   0  0  0  0  0  0
  -25.2749   -9.5668   22.4779 H   0  0  0  0  0  0
  -23.9997   -7.4608   22.7471 H   0  0  0  0  0  0
  -21.0845   -8.8750   19.8945 H   0  0  0  0  0  0
  -22.3687  -10.9661   19.6183 H   0  0  0  0  0  0
  -21.1979   -7.6142   23.9714 H   0  0  0  0  0  0
  -21.1495   -6.0524   25.9082 H   0  0  0  0  0  0
  -22.0594   -2.7607   23.2847 H   0  0  0  0  0  0
  -22.4086  -11.9865   22.4815 H   0  0  0  0  0  0
  -21.1093  -13.1237   22.2657 H   0  0  0  0  0  0
  -24.6444  -15.8331   20.5170 H   0  0  0  0  0  0
  -26.2745  -15.6346   20.1246 H   0  0  0  0  0  0
  -26.7159  -32.5431   23.1061 H   0  0  0  0  0  0
  -25.0105  -33.9704   25.0438 H   0  0  0  0  0  0
  -22.7139  -31.2969   21.3899 H   0  0  0  0  0  0
  -23.3761  -35.9610   23.3301 H   0  0  0  0  0  0
  -24.3592  -36.8897   22.2058 H   0  0  0  0  0  0
  -23.7253  -37.6488   23.6661 H   0  0  0  0  0  0
  -26.0864  -31.5454   20.5935 H   0  0  0  0  0  0
  -26.8417  -30.8418   21.9925 H   0  0  0  0  0  0
  -28.1291  -29.0080   21.1492 H   0  0  0  0  0  0
  -26.0192  -25.8872   19.0515 H   0  0  0  0  0  0
  -23.9786  -27.2622   19.0503 H   0  0  0  0  0  0
  -23.7566  -30.5684   19.3983 H   0  0  0  0  0  0
  -22.7581  -29.2245   19.8626 H   0  0  0  0  0  0
  -25.1296  -36.1915   25.0834 H   0  0  0  0  0  0
  -20.9978  -28.3237   24.1409 H   0  0  0  0  0  0
  -20.5678  -26.2266   23.3601 H   0  0  0  0  0  0
  -21.6647  -26.7419   22.1202 H   0  0  0  0  0  0
  -19.6924  -25.6286   21.1234 H   0  0  0  0  0  0
  -19.6718  -27.3184   20.6739 H   0  0  0  0  0  0
  -17.4210  -26.6673   21.4018 H   0  0  0  0  0  0
  -18.0337  -26.0058   22.9007 H   0  0  0  0  0  0
  -19.7948  -30.7269   24.2243 H   0  0  0  0  0  0
  -17.5024  -31.6258   24.5153 H   0  0  0  0  0  0
  -15.5361  -30.2965   23.7664 H   0  0  0  0  0  0
  -15.8684  -28.0818   22.7043 H   0  0  0  0  0  0
  -24.5893  -30.7080   25.7766 H   0  0  0  0  0  0
  -24.8928  -32.2899   26.4857 H   0  0  0  0  0  0
  -25.8055  -30.8908   27.0207 H   0  0  0  0  0  0
  -26.2900  -29.6757   24.1173 H   0  0  0  0  0  0
  -27.4091  -29.7273   25.4612 H   0  0  0  0  0  0
  -27.8743  -30.4337   23.9310 H   0  0  0  0  0  0
  -27.2667  -33.3623   26.2035 H   0  0  0  0  0  0
  -28.3865  -32.6861   25.0298 H   0  0  0  0  0  0
  -28.0704  -31.8444   26.5394 H   0  0  0  0  0  0
  -28.2588  -38.0096   24.7499 H   0  0  0  0  0  0
  -28.1086  -36.2623   24.6309 H   0  0  0  0  0  0
  -27.2297  -37.1449   25.8872 H   0  0  0  0  0  0
  -20.9350  -29.8737   21.6886 H   0  0  0  0  0  0
  -26.0177  -38.2840   24.1402 H   0  0  0  0  0  0
  -31.0190  -20.1640   19.6573 H   0  0  0  0  0  0
  -27.1805  -20.0723   23.0162 H   0  0  0  0  0  0
  -26.2093  -18.9237   22.0980 H   0  0  0  0  0  0
  -26.5321  -20.4784   21.4176 H   0  0  0  0  0  0
  -29.9098  -22.0252   21.4809 H   0  0  0  0  0  0
  -28.2135  -21.9046   21.6654 H   0  0  0  0  0  0
  -27.8534  -24.1851   18.7986 H   0  0  0  0  0  0
  -26.9781  -23.6209   20.1794 H   0  0  0  0  0  0
  -29.5562  -25.0253   20.8026 H   0  0  0  0  0  0
  -28.0472  -25.1679   21.6227 H   0  0  0  0  0  0
  -28.9122  -15.3236   21.2556 H   0  0  0  0  0  0
  -28.4005  -22.0228   19.0640 H   0  0  0  0  0  0
  -29.7454  -22.8279   19.4150 H   0  0  0  0  0  0
  1 25  1  0  0  0
  1 30  2  0  0  0
  1 81  1  0  0  0
  2  3  1  0  0  0
  2 25  1  0  0  0
  2 85  1  0  0  0
  2 86  1  0  0  0
  3  4  1  0  0  0
  3 87  1  0  0  0
  3 88  1  0  0  0
  4  5  1  0  0  0
  4 89  1  0  0  0
  4 90  1  0  0  0
  5  6  1  0  0  0
  5 26  1  0  0  0
  5 91  1  0  0  0
  6 25  1  0  0  0
  6 92  1  0  0  0
  6 93  1  0  0  0
  7  8  2  0  0  0
  7 26  1  0  0  0
  7 29  1  0  0  0
  8  9  1  0  0  0
  8 22  1  0  0  0
  9 10  1  0  0  0
  9 27  2  0  0  0
 10 11  2  0  0  0
 10 15  1  0  0  0
 11 12  1  0  0  0
 11 94  1  0  0  0
 12 13  2  0  0  0
 12 95  1  0  0  0
 13 14  1  0  0  0
 13 31  1  0  0  0
 14 15  2  0  0  0
 14 96  1  0  0  0
 15 97  1  0  0  0
 16 17  2  0  0  0
 16 21  1  0  0  0
 16 31  1  0  0  0
 17 18  1  0  0  0
 17 98  1  0  0  0
 18 19  2  0  0  0
 18 99  1  0  0  0
 19 20  1  0  0  0
 19 24  1  0  0  0
 20 21  2  0  0  0
 20100  1  0  0  0
 21 23  1  0  0  0
 22 28  1  0  0  0
 22 32  2  0  0  0
 26 27  1  0  0  0
 28101  1  0  0  0
 28102  1  0  0  0
 29103  1  0  0  0
 29104  1  0  0  0
 33 34  1  0  0  0
 33 66  1  0  0  0
 33 70  2  0  0  0
 34 36  1  0  0  0
 34 59  1  0  0  0
 34105  1  0  0  0
 35 44  2  0  0  0
 35 45  1  0  0  0
 35 68  1  0  0  0
 36 56  1  0  0  0
 36106  1  0  0  0
 37 39  1  0  0  0
 37 47  1  0  0  0
 37 66  1  0  0  0
 37107  1  0  0  0
 38 43  2  0  0  0
 38 46  1  0  0  0
 38 47  1  0  0  0
 39 64  1  0  0  0
 39 67  2  0  0  0
 40 52  1  0  0  0
 40 53  2  0  0  0
 40 58  1  0  0  0
 41108  1  0  0  0
 41109  1  0  0  0
 41110  1  0  0  0
 41 48  1  0  0  0
 42 43  1  0  0  0
 42 66  1  0  0  0
 42111  1  0  0  0
 42112  1  0  0  0
 43 44  1  0  0  0
 44113  1  0  0  0
 45 46  2  0  0  0
 45114  1  0  0  0
 46115  1  0  0  0
 47116  1  0  0  0
 47117  1  0  0  0
 48 56  1  0  0  0
 48 65  1  0  0  0
 48118  1  0  0  0
 49 50  1  0  0  0
 49 53  1  0  0  0
 49 64  1  0  0  0
 49119  1  0  0  0
 50 51  1  0  0  0
 50120  1  0  0  0
 50121  1  0  0  0
 51 52  1  0  0  0
 51122  1  0  0  0
 51123  1  0  0  0
 52124  1  0  0  0
 52125  1  0  0  0
 53 54  1  0  0  0
 54 55  2  0  0  0
 54126  1  0  0  0
 55 57  1  0  0  0
 55127  1  0  0  0
 56 69  2  0  0  0
 57 58  2  0  0  0
 57128  1  0  0  0
 58129  1  0  0  0
 59 60  1  0  0  0
 59 61  1  0  0  0
 59 62  1  0  0  0
 60130  1  0  0  0
 60131  1  0  0  0
 60132  1  0  0  0
 61133  1  0  0  0
 61134  1  0  0  0
 61135  1  0  0  0
 62136  1  0  0  0
 62137  1  0  0  0
 62138  1  0  0  0
 63 65  1  0  0  0
 63139  1  0  0  0
 63140  1  0  0  0
 63141  1  0  0  0
 64142  1  0  0  0
 65143  1  0  0  0
 68 80  1  0  0  0
 71 72  2  0  0  0
 71 75  1  0  0  0
 71144  1  0  0  0
 72 73  1  0  0  0
 72 78  1  0  0  0
 73 76  2  0  0  0
 73 77  1  0  0  0
 74 75  2  0  0  0
 74 76  1  0  0  0
 74 81  1  0  0  0
 75 83  1  0  0  0
 76 84  1  0  0  0
 77145  1  0  0  0
 77146  1  0  0  0
 77147  1  0  0  0
 78 82  1  0  0  0
 78148  1  0  0  0
 78149  1  0  0  0
 79 80  1  0  0  0
 79 82  1  0  0  0
 79150  1  0  0  0
 79151  1  0  0  0
 80152  1  0  0  0
 80153  1  0  0  0
 81154  1  0  0  0
 82155  1  0  0  0
 82156  1  0  0  0
M  CHG  1  82   1
M  ISO  4   1 100  68 101  80 101  81 100
M  END
> <chiral flag>
0

> <version>
0

> <s_m_source_file>
/data/baiqing/PycharmProjects/Reinvent-master-3.2/result/LINK_invent/BTK/process_docking_weight1_custom_sum_contain_oxygen_bond_distance_aromatic_linkinvent_7_9_3/rearranged_h_0021.sdf

> <i_m_source_file_index>
55

> <r_mmod_Potential_Energy-OPLS-2005>
-76.9418411254883

> <r_mmod_Stretch_Energy-OPLS-2005>
93.2000350952148

> <r_mmod_Bend_Energy-OPLS-2005>
198.346664428711

> <r_mmod_Torsional_Energy-OPLS-2005>
239.175338745117

> <r_mmod_Improper_Torsional_Energy-OPLS-2005>
3.92041635513306

> <r_mmod_Van_der_Waal_Energy-OPLS-2005>
141.983428955078

> <r_mmod_Electrostatic_Energy-OPLS-2005>
-317.837097167969

> <r_mmod_Solvation_Energy-OPLS-2005>
-485.891052246094

> <b_mmod_Minimization_Converged-OPLS-2005>
0

> <r_mmod_RMS_Derivative-OPLS-2005>
1.29909002780914

$$$$
56
                    3D
 Structure written by MMmdl.
172181  0  0  1  0            999 V2000
  -30.5915  -15.0518   20.2934 C   0  0  0  0  0  0
  -30.4279  -12.6666   19.4424 C   0  0  0  0  0  0
  -29.4961  -12.4686   18.2272 C   0  0  0  0  0  0
  -28.0526  -12.2131   18.6925 C   0  0  0  0  0  0
  -27.6063  -13.2089   19.7852 C   0  0  2  0  0  0
  -28.6620  -13.4211   20.8892 C   0  0  0  0  0  0
  -25.2496  -13.8062   20.5749 C   0  0  0  0  0  0
  -24.1779  -13.0408   20.9296 C   0  0  0  0  0  0
  -24.6338  -11.6833   20.8783 C   0  0  0  0  0  0
  -23.9033  -10.4239   21.0414 C   0  0  0  0  0  0
  -24.3595   -9.4160   21.9203 C   0  0  0  0  0  0
  -23.6278   -8.2203   22.0759 C   0  0  0  0  0  0
  -22.4248   -8.0258   21.3557 C   0  0  0  0  0  0
  -21.9899   -9.0210   20.4651 C   0  0  0  0  0  0
  -22.7212  -10.2098   20.3063 C   0  0  0  0  0  0
  -21.6828   -6.0702   22.5290 C   0  0  0  0  0  0
  -21.4003   -6.5610   23.8220 C   0  0  0  0  0  0
  -21.3676   -5.6761   24.9178 C   0  0  0  0  0  0
  -21.6084   -4.3038   24.7242 C   0  0  0  0  0  0
  -21.8812   -3.8130   23.4351 C   0  0  0  0  0  0
  -21.9192   -4.6934   22.3401 C   0  0  0  0  0  0
  -22.7806  -13.5201   21.1947 C   0  0  0  0  0  0
  -22.1637   -4.2110   21.0985 F   0  0  0  0  0  0
  -21.5670   -3.4530   25.7770 F   0  0  0  0  0  0
  -29.9138  -13.8244   20.2318 N   0  0  0  0  0  0
  -26.2832  -12.9203   20.3159 N   0  0  0  0  0  0
  -25.9238  -11.6378   20.5725 N   0  0  0  0  0  0
  -22.0477  -12.8137   22.0481 N   0  0  0  0  0  0
  -25.4281  -15.1786   20.4175 N   0  0  0  0  0  0
  -31.8080  -14.8912   20.4409 O   0  0  0  0  0  0
  -21.6626   -6.8852   21.4259 O   0  0  0  0  0  0
  -22.3470  -14.5495   20.6788 O   0  0  0  0  0  0
  -24.6416  -31.8449   23.1872 C   0  0  0  0  0  0
  -25.9189  -32.4683   23.8300 C   0  0  1  0  0  0
  -27.2288  -27.1651   20.1266 C   0  0  0  0  0  0
  -25.5966  -33.8489   24.2228 N   0  0  0  0  0  0
  -23.4455  -30.4594   21.5315 C   0  0  2  0  0  0
  -24.8955  -28.8891   20.1036 C   0  0  0  0  0  0
  -22.7559  -29.4527   22.4848 C   0  0  0  0  0  0
  -18.0355  -28.1392   22.8450 C   0  0  0  0  0  0
  -24.1500  -36.7249   23.2640 C   0  0  0  0  0  0
  -25.9984  -30.7122   21.3941 C   0  0  0  0  0  0
  -26.0648  -29.3306   20.7310 C   0  0  0  0  0  0
  -27.2248  -28.4757   20.7427 C   0  0  0  0  0  0
  -26.0420  -26.8199   19.4471 C   0  0  0  0  0  0
  -24.8924  -27.6433   19.4517 C   0  0  0  0  0  0
  -23.6709  -29.7864   20.1498 C   0  0  0  0  0  0
  -25.4129  -36.3048   24.0328 C   0  0  1  0  0  0
  -20.5949  -28.3725   23.1221 C   0  0  2  0  0  0
  -20.6879  -26.9455   22.5351 C   0  0  0  0  0  0
  -19.5838  -26.6410   21.5161 C   0  0  0  0  0  0
  -18.1993  -26.7952   22.1565 C   0  0  0  0  0  0
  -19.1595  -28.8871   23.2813 C   0  0  0  0  0  0
  -18.9486  -30.1440   23.8885 C   0  0  0  0  0  0
  -17.6515  -30.6578   24.0557 C   0  0  0  0  0  0
  -25.9077  -34.9409   23.5079 C   0  0  0  0  0  0
  -16.5399  -29.9089   23.6307 C   0  0  0  0  0  0
  -16.7328  -28.6499   23.0341 C   0  0  0  0  0  0
  -26.4521  -31.6549   25.0750 C   0  0  0  0  0  0
  -25.3703  -31.3705   26.1437 C   0  0  0  0  0  0
  -27.0421  -30.2967   24.6363 C   0  0  0  0  0  0
  -27.6069  -32.4333   25.7503 C   0  0  0  0  0  0
  -27.5587  -37.1790   24.8471 C   0  0  0  0  0  0
  -21.4250  -29.3088   22.3627 N   0  0  0  0  0  0
  -26.4313  -37.3743   23.9404 N   0  0  0  0  0  0
  -24.7137  -31.0335   22.0897 N   0  0  0  0  0  0
  -23.4202  -28.8031   23.2977 O   0  0  0  0  0  0
  -28.2931  -26.2150   20.2749 O   0  0  0  0  0  0
  -26.5661  -34.8886   22.4666 O   0  0  0  0  0  0
  -23.5531  -32.1322   23.7083 O   0  0  0  0  0  0
  -29.4342  -22.2484   20.0080 C   0  0  0  0  0  0
  -28.4231  -23.3375   19.9386 C   0  0  0  0  0  0
  -28.8750  -20.9417   20.0452 C   0  0  0  0  0  0
  -27.2602  -22.6289   20.1209 C   0  0  0  0  0  0
  -29.7085  -18.0094   20.5685 C   0  0  0  0  0  0
  -28.8118  -17.8971   17.8622 C   0  0  0  0  0  0
  -29.4360  -19.4206   19.6809 C   0  0  1  0  0  0
  -30.1482  -16.6141   19.7193 C   0  0  1  0  0  0
  -29.0420  -16.5721   18.6326 C   0  0  0  0  0  0
  -25.8688  -23.1853   20.0804 C   0  0  0  0  0  0
  -31.4716  -17.0655   19.0123 C   0  0  0  0  0  0
  -31.4880  -22.7500   21.3658 C   0  0  0  0  0  0
  -25.6502  -19.9095   19.2102 C   0  0  0  0  0  0
  -30.9229  -22.4994   19.9588 C   0  0  0  0  0  0
  -28.5147  -24.9262   19.4719 C   0  0  0  0  0  0
  -26.4706  -20.2411   20.4683 C   0  0  0  0  0  0
  -27.5116  -21.2387   20.2392 N   0  0  0  0  0  0
  -28.4888  -18.9965   18.7035 O   0  0  0  0  0  0
  -29.3072  -15.6417   17.7191 F   0  0  0  0  0  0
  -27.8824  -16.2910   19.2145 F   0  0  0  0  0  0
  -31.4380  -12.8449   19.0756 H   0  0  0  0  0  0
  -30.4728  -11.7642   20.0547 H   0  0  0  0  0  0
  -29.8501  -11.6423   17.6120 H   0  0  0  0  0  0
  -29.5237  -13.3377   17.5751 H   0  0  0  0  0  0
  -28.0133  -11.1953   19.0832 H   0  0  0  0  0  0
  -27.3658  -12.2433   17.8454 H   0  0  0  0  0  0
  -27.4999  -14.1276   19.2269 H   0  0  0  0  0  0
  -28.8030  -12.5214   21.4894 H   0  0  0  0  0  0
  -28.3275  -14.2035   21.5696 H   0  0  0  0  0  0
  -25.2751   -9.5596   22.4739 H   0  0  0  0  0  0
  -24.0011   -7.4574   22.7437 H   0  0  0  0  0  0
  -21.0849   -8.8697   19.8911 H   0  0  0  0  0  0
  -22.3698  -10.9622   19.6131 H   0  0  0  0  0  0
  -21.1937   -7.6116   23.9709 H   0  0  0  0  0  0
  -21.1535   -6.0495   25.9082 H   0  0  0  0  0  0
  -22.0575   -2.7591   23.2862 H   0  0  0  0  0  0
  -22.4068  -11.9796   22.4865 H   0  0  0  0  0  0
  -21.1105  -13.1128   22.2746 H   0  0  0  0  0  0
  -24.6750  -15.8435   20.5268 H   0  0  0  0  0  0
  -26.2740  -15.5929   20.0476 H   0  0  0  0  0  0
  -26.7240  -32.5282   23.0998 H   0  0  0  0  0  0
  -25.0083  -33.9589   25.0374 H   0  0  0  0  0  0
  -22.7538  -31.2892   21.3771 H   0  0  0  0  0  0
  -23.3771  -35.9571   23.3291 H   0  0  0  0  0  0
  -24.3572  -36.8890   22.2049 H   0  0  0  0  0  0
  -23.7231  -37.6443   23.6665 H   0  0  0  0  0  0
  -26.1858  -31.4686   20.6313 H   0  0  0  0  0  0
  -26.8547  -30.7394   22.0508 H   0  0  0  0  0  0
  -28.1085  -28.7919   21.2789 H   0  0  0  0  0  0
  -25.9722  -25.8707   18.9403 H   0  0  0  0  0  0
  -23.9888  -27.3071   18.9549 H   0  0  0  0  0  0
  -23.8073  -30.5632   19.3977 H   0  0  0  0  0  0
  -22.7900  -29.2231   19.8379 H   0  0  0  0  0  0
  -25.1309  -36.1881   25.0825 H   0  0  0  0  0  0
  -20.9995  -28.3309   24.1370 H   0  0  0  0  0  0
  -20.5803  -26.2301   23.3517 H   0  0  0  0  0  0
  -21.6760  -26.7545   22.1157 H   0  0  0  0  0  0
  -19.7054  -25.6341   21.1172 H   0  0  0  0  0  0
  -19.6748  -27.3214   20.6684 H   0  0  0  0  0  0
  -17.4269  -26.6714   21.3969 H   0  0  0  0  0  0
  -18.0323  -26.0126   22.8948 H   0  0  0  0  0  0
  -19.7952  -30.7265   24.2248 H   0  0  0  0  0  0
  -17.5033  -31.6227   24.5211 H   0  0  0  0  0  0
  -15.5397  -30.2974   23.7621 H   0  0  0  0  0  0
  -15.8704  -28.0827   22.7099 H   0  0  0  0  0  0
  -24.5907  -30.7033   25.7726 H   0  0  0  0  0  0
  -24.8837  -32.2856   26.4839 H   0  0  0  0  0  0
  -25.7970  -30.8892   27.0249 H   0  0  0  0  0  0
  -26.3052  -29.6650   24.1366 H   0  0  0  0  0  0
  -27.4043  -29.7305   25.4956 H   0  0  0  0  0  0
  -27.8967  -30.4237   23.9702 H   0  0  0  0  0  0
  -27.2703  -33.3659   26.2044 H   0  0  0  0  0  0
  -28.3862  -32.6850   25.0297 H   0  0  0  0  0  0
  -28.0771  -31.8501   26.5433 H   0  0  0  0  0  0
  -28.2627  -38.0074   24.7538 H   0  0  0  0  0  0
  -28.1090  -36.2615   24.6299 H   0  0  0  0  0  0
  -27.2322  -37.1436   25.8884 H   0  0  0  0  0  0
  -20.9442  -29.8804   21.6822 H   0  0  0  0  0  0
  -26.0193  -38.2842   24.1358 H   0  0  0  0  0  0
  -28.7905  -17.7844   21.1092 H   0  0  0  0  0  0
  -30.4514  -18.2132   21.3429 H   0  0  0  0  0  0
  -29.6397  -18.1647   17.2070 H   0  0  0  0  0  0
  -27.9550  -17.7598   17.1969 H   0  0  0  0  0  0
  -30.3650  -19.6106   19.1473 H   0  0  0  0  0  0
  -25.8368  -24.1884   20.5046 H   0  0  0  0  0  0
  -25.1641  -22.5908   20.6571 H   0  0  0  0  0  0
  -25.5135  -23.2399   19.0486 H   0  0  0  0  0  0
  -32.2215  -17.3332   19.7531 H   0  0  0  0  0  0
  -31.8993  -16.2829   18.3863 H   0  0  0  0  0  0
  -31.3886  -17.9277   18.3587 H   0  0  0  0  0  0
  -31.1299  -23.6959   21.7708 H   0  0  0  0  0  0
  -31.1979  -21.9659   22.0698 H   0  0  0  0  0  0
  -32.5781  -22.7793   21.3414 H   0  0  0  0  0  0
  -24.9350  -20.6895   18.9510 H   0  0  0  0  0  0
  -25.0922  -18.9833   19.3591 H   0  0  0  0  0  0
  -26.2862  -19.7563   18.3414 H   0  0  0  0  0  0
  -31.1524  -23.3427   19.3056 H   0  0  0  0  0  0
  -31.4174  -21.6325   19.5265 H   0  0  0  0  0  0
  -27.9375  -24.9969   18.5494 H   0  0  0  0  0  0
  -29.5422  -25.0440   19.1331 H   0  0  0  0  0  0
  -26.9414  -19.3379   20.8605 H   0  0  0  0  0  0
  -25.8121  -20.5993   21.2651 H   0  0  0  0  0  0
  1 25  1  0  0  0
  1 30  2  0  0  0
  1 78  1  0  0  0
  2  3  1  0  0  0
  2 25  1  0  0  0
  2 91  1  0  0  0
  2 92  1  0  0  0
  3  4  1  0  0  0
  3 93  1  0  0  0
  3 94  1  0  0  0
  4  5  1  0  0  0
  4 95  1  0  0  0
  4 96  1  0  0  0
  5  6  1  0  0  0
  5 26  1  0  0  0
  5 97  1  0  0  0
  6 25  1  0  0  0
  6 98  1  0  0  0
  6 99  1  0  0  0
  7  8  2  0  0  0
  7 26  1  0  0  0
  7 29  1  0  0  0
  8  9  1  0  0  0
  8 22  1  0  0  0
  9 10  1  0  0  0
  9 27  2  0  0  0
 10 11  2  0  0  0
 10 15  1  0  0  0
 11 12  1  0  0  0
 11100  1  0  0  0
 12 13  2  0  0  0
 12101  1  0  0  0
 13 14  1  0  0  0
 13 31  1  0  0  0
 14 15  2  0  0  0
 14102  1  0  0  0
 15103  1  0  0  0
 16 17  2  0  0  0
 16 21  1  0  0  0
 16 31  1  0  0  0
 17 18  1  0  0  0
 17104  1  0  0  0
 18 19  2  0  0  0
 18105  1  0  0  0
 19 20  1  0  0  0
 19 24  1  0  0  0
 20 21  2  0  0  0
 20106  1  0  0  0
 21 23  1  0  0  0
 22 28  1  0  0  0
 22 32  2  0  0  0
 26 27  1  0  0  0
 28107  1  0  0  0
 28108  1  0  0  0
 29109  1  0  0  0
 29110  1  0  0  0
 33 34  1  0  0  0
 33 66  1  0  0  0
 33 70  2  0  0  0
 34 36  1  0  0  0
 34 59  1  0  0  0
 34111  1  0  0  0
 35 44  2  0  0  0
 35 45  1  0  0  0
 35 68  1  0  0  0
 36 56  1  0  0  0
 36112  1  0  0  0
 37 39  1  0  0  0
 37 47  1  0  0  0
 37 66  1  0  0  0
 37113  1  0  0  0
 38 43  2  0  0  0
 38 46  1  0  0  0
 38 47  1  0  0  0
 39 64  1  0  0  0
 39 67  2  0  0  0
 40 52  1  0  0  0
 40 53  2  0  0  0
 40 58  1  0  0  0
 41114  1  0  0  0
 41115  1  0  0  0
 41116  1  0  0  0
 41 48  1  0  0  0
 42 43  1  0  0  0
 42 66  1  0  0  0
 42117  1  0  0  0
 42118  1  0  0  0
 43 44  1  0  0  0
 44119  1  0  0  0
 45 46  2  0  0  0
 45120  1  0  0  0
 46121  1  0  0  0
 47122  1  0  0  0
 47123  1  0  0  0
 48 56  1  0  0  0
 48 65  1  0  0  0
 48124  1  0  0  0
 49 50  1  0  0  0
 49 53  1  0  0  0
 49 64  1  0  0  0
 49125  1  0  0  0
 50 51  1  0  0  0
 50126  1  0  0  0
 50127  1  0  0  0
 51 52  1  0  0  0
 51128  1  0  0  0
 51129  1  0  0  0
 52130  1  0  0  0
 52131  1  0  0  0
 53 54  1  0  0  0
 54 55  2  0  0  0
 54132  1  0  0  0
 55 57  1  0  0  0
 55133  1  0  0  0
 56 69  2  0  0  0
 57 58  2  0  0  0
 57134  1  0  0  0
 58135  1  0  0  0
 59 60  1  0  0  0
 59 61  1  0  0  0
 59 62  1  0  0  0
 60136  1  0  0  0
 60137  1  0  0  0
 60138  1  0  0  0
 61139  1  0  0  0
 61140  1  0  0  0
 61141  1  0  0  0
 62142  1  0  0  0
 62143  1  0  0  0
 62144  1  0  0  0
 63 65  1  0  0  0
 63145  1  0  0  0
 63146  1  0  0  0
 63147  1  0  0  0
 64148  1  0  0  0
 65149  1  0  0  0
 68 85  1  0  0  0
 71 72  1  0  0  0
 71 73  2  0  0  0
 71 84  1  0  0  0
 72 74  2  0  0  0
 72 85  1  0  0  0
 73 87  1  0  0  0
 73 77  1  0  0  0
 74 80  1  0  0  0
 74 87  1  0  0  0
 75 77  1  0  0  0
 75 78  1  0  0  0
 75150  1  0  0  0
 75151  1  0  0  0
 76 79  1  0  0  0
 76 88  1  0  0  0
 76152  1  0  0  0
 76153  1  0  0  0
 77 88  1  0  0  0
 77154  1  0  0  0
 78 79  1  0  0  0
 78 81  1  0  0  0
 79 89  1  0  0  0
 79 90  1  0  0  0
 80155  1  0  0  0
 80156  1  0  0  0
 80157  1  0  0  0
 81158  1  0  0  0
 81159  1  0  0  0
 81160  1  0  0  0
 82 84  1  0  0  0
 82161  1  0  0  0
 82162  1  0  0  0
 82163  1  0  0  0
 83 86  1  0  0  0
 83164  1  0  0  0
 83165  1  0  0  0
 83166  1  0  0  0
 84167  1  0  0  0
 84168  1  0  0  0
 85169  1  0  0  0
 85170  1  0  0  0
 86 87  1  0  0  0
 86171  1  0  0  0
 86172  1  0  0  0
M  ISO  4   1 100  68 101  78 100  85 101
M  END
> <chiral flag>
0

> <version>
0

> <s_m_source_file>
/data/baiqing/PycharmProjects/Reinvent-master-3.2/result/LINK_invent/BTK/process_docking_weight1_custom_sum_contain_oxygen_bond_distance_aromatic_linkinvent_7_9_3/rearranged_h_0021.sdf

> <i_m_source_file_index>
56

> <r_mmod_Potential_Energy-OPLS-2005>
783.780700683594

> <r_mmod_Stretch_Energy-OPLS-2005>
280.0810546875

> <r_mmod_Bend_Energy-OPLS-2005>
351.575927734375

> <r_mmod_Torsional_Energy-OPLS-2005>
286.362640380859

> <r_mmod_Improper_Torsional_Energy-OPLS-2005>
19.3079051971436

> <r_mmod_Van_der_Waal_Energy-OPLS-2005>
130.761932373047

> <r_mmod_Electrostatic_Energy-OPLS-2005>
-350.14990234375

> <r_mmod_Solvation_Energy-OPLS-2005>
-187.167144775391

> <b_mmod_Minimization_Converged-OPLS-2005>
0

> <r_mmod_RMS_Derivative-OPLS-2005>
7.06151962280273

$$$$
57
                    3D
 Structure written by MMmdl.
156164  0  0  1  0            999 V2000
  -30.5070  -14.8663   20.5010 C   0  0  0  0  0  0
  -30.4534  -12.5366   19.5144 C   0  0  0  0  0  0
  -29.5364  -12.5268   18.2667 C   0  0  0  0  0  0
  -28.0548  -12.3444   18.6568 C   0  0  0  0  0  0
  -27.6402  -13.2380   19.8570 C   0  0  2  0  0  0
  -28.6738  -13.1679   21.0012 C   0  0  0  0  0  0
  -25.2461  -13.8191   20.5744 C   0  0  0  0  0  0
  -24.1761  -13.0418   20.9230 C   0  0  0  0  0  0
  -24.6373  -11.6904   20.8693 C   0  0  0  0  0  0
  -23.9058  -10.4282   21.0360 C   0  0  0  0  0  0
  -24.3604   -9.4207   21.9168 C   0  0  0  0  0  0
  -23.6286   -8.2229   22.0727 C   0  0  0  0  0  0
  -22.4256   -8.0271   21.3531 C   0  0  0  0  0  0
  -21.9877   -9.0264   20.4649 C   0  0  0  0  0  0
  -22.7206  -10.2145   20.3034 C   0  0  0  0  0  0
  -21.6846   -6.0708   22.5283 C   0  0  0  0  0  0
  -21.4032   -6.5615   23.8224 C   0  0  0  0  0  0
  -21.3669   -5.6769   24.9184 C   0  0  0  0  0  0
  -21.6060   -4.3040   24.7225 C   0  0  0  0  0  0
  -21.8819   -3.8128   23.4343 C   0  0  0  0  0  0
  -21.9184   -4.6937   22.3393 C   0  0  0  0  0  0
  -22.7790  -13.5221   21.1898 C   0  0  0  0  0  0
  -22.1660   -4.2120   21.0967 F   0  0  0  0  0  0
  -21.5610   -3.4528   25.7739 F   0  0  0  0  0  0
  -29.9670  -13.5891   20.4428 N   0  0  0  0  0  0
  -26.2899  -12.9435   20.3251 N   0  0  0  0  0  0
  -25.9301  -11.6559   20.5657 N   0  0  0  0  0  0
  -22.0450  -12.8221   22.0463 N   0  0  0  0  0  0
  -25.4112  -15.1919   20.4283 N   0  0  0  0  0  0
  -31.6740  -15.0342   20.1278 O   0  0  0  0  0  0
  -21.6627   -6.8858   21.4249 O   0  0  0  0  0  0
  -22.3478  -14.5531   20.6746 O   0  0  0  0  0  0
  -24.6385  -31.8497   23.1909 C   0  0  0  0  0  0
  -25.9156  -32.4725   23.8296 C   0  0  1  0  0  0
  -27.2079  -27.1828   20.1797 C   0  0  0  0  0  0
  -25.5900  -33.8532   24.2200 N   0  0  0  0  0  0
  -23.4399  -30.4734   21.5365 C   0  0  2  0  0  0
  -24.8879  -28.9018   20.1142 C   0  0  0  0  0  0
  -22.7523  -29.4590   22.4857 C   0  0  0  0  0  0
  -18.0323  -28.1399   22.8497 C   0  0  0  0  0  0
  -24.1493  -36.7281   23.2654 C   0  0  0  0  0  0
  -25.9941  -30.7387   21.3854 C   0  0  0  0  0  0
  -26.0613  -29.3543   20.7298 C   0  0  0  0  0  0
  -27.2298  -28.5108   20.7410 C   0  0  0  0  0  0
  -26.0154  -26.8110   19.5282 C   0  0  0  0  0  0
  -24.8721  -27.6414   19.4943 C   0  0  0  0  0  0
  -23.6640  -29.8027   20.1564 C   0  0  0  0  0  0
  -25.4109  -36.3043   24.0330 C   0  0  1  0  0  0
  -20.5930  -28.3708   23.1246 C   0  0  2  0  0  0
  -20.6796  -26.9403   22.5434 C   0  0  0  0  0  0
  -19.5765  -26.6365   21.5240 C   0  0  0  0  0  0
  -18.1942  -26.7943   22.1641 C   0  0  0  0  0  0
  -19.1578  -28.8874   23.2876 C   0  0  0  0  0  0
  -18.9482  -30.1474   23.8901 C   0  0  0  0  0  0
  -17.6475  -30.6594   24.0568 C   0  0  0  0  0  0
  -25.9061  -34.9418   23.5082 C   0  0  0  0  0  0
  -16.5370  -29.9091   23.6342 C   0  0  0  0  0  0
  -16.7304  -28.6516   23.0353 C   0  0  0  0  0  0
  -26.4450  -31.6604   25.0749 C   0  0  0  0  0  0
  -25.3636  -31.3825   26.1473 C   0  0  0  0  0  0
  -27.0318  -30.3004   24.6340 C   0  0  0  0  0  0
  -27.5970  -32.4397   25.7524 C   0  0  0  0  0  0
  -27.5575  -37.1785   24.8446 C   0  0  0  0  0  0
  -21.4234  -29.3048   22.3600 N   0  0  0  0  0  0
  -26.4267  -37.3748   23.9422 N   0  0  0  0  0  0
  -24.7102  -31.0399   22.0931 N   0  0  0  0  0  0
  -23.4174  -28.8136   23.2995 O   0  0  0  0  0  0
  -28.2724  -26.2293   20.2121 O   0  0  0  0  0  0
  -26.5666  -34.8902   22.4672 O   0  0  0  0  0  0
  -23.5504  -32.1347   23.7149 O   0  0  0  0  0  0
  -30.4148  -18.4242   20.2916 C   0  0  0  0  0  0
  -30.1526  -19.8600   20.3530 C   0  0  0  0  0  0
  -28.9642  -20.4433   20.9394 C   0  0  0  0  0  0
  -28.0766  -19.4238   21.4530 C   0  0  0  0  0  0
  -29.5388  -17.4263   20.8299 C   0  0  0  0  0  0
  -28.3637  -18.0061   21.3944 C   0  0  0  0  0  0
  -31.2253  -20.7929   19.8158 C   0  0  0  0  0  0
  -26.7724  -19.8324   22.1428 C   0  0  0  0  0  0
  -28.7123  -22.0438   21.2528 C   0  0  0  0  0  0
  -28.6417  -23.3603   20.2495 C   0  0  0  0  0  0
  -28.0506  -24.8228   20.7934 C   0  0  0  0  0  0
  -29.6461  -15.9118   20.8706 N   0  0  0  0  0  0
  -27.4690  -17.1364   21.9297 F   0  0  0  0  0  0
  -31.4940  -12.6982   19.2301 H   0  0  0  0  0  0
  -30.4378  -11.5665   20.0130 H   0  0  0  0  0  0
  -29.8447  -11.7298   17.5883 H   0  0  0  0  0  0
  -29.6613  -13.4550   17.7086 H   0  0  0  0  0  0
  -27.8999  -11.2945   18.9120 H   0  0  0  0  0  0
  -27.4147  -12.5465   17.7985 H   0  0  0  0  0  0
  -27.6347  -14.2609   19.4810 H   0  0  0  0  0  0
  -28.7357  -12.1526   21.3966 H   0  0  0  0  0  0
  -28.3811  -13.7982   21.8426 H   0  0  0  0  0  0
  -25.2757   -9.5697   22.4736 H   0  0  0  0  0  0
  -24.0007   -7.4614   22.7426 H   0  0  0  0  0  0
  -21.0791   -8.8777   19.8965 H   0  0  0  0  0  0
  -22.3641  -10.9681   19.6134 H   0  0  0  0  0  0
  -21.2044   -7.6128   23.9724 H   0  0  0  0  0  0
  -21.1496   -6.0493   25.9090 H   0  0  0  0  0  0
  -22.0579   -2.7587   23.2847 H   0  0  0  0  0  0
  -22.4081  -11.9941   22.4940 H   0  0  0  0  0  0
  -21.1088  -13.1256   22.2671 H   0  0  0  0  0  0
  -24.6580  -15.8407   20.6244 H   0  0  0  0  0  0
  -26.2728  -15.6599   20.1836 H   0  0  0  0  0  0
  -26.7238  -32.5331   23.1051 H   0  0  0  0  0  0
  -24.9929  -33.9639   25.0265 H   0  0  0  0  0  0
  -22.7411  -31.3012   21.3843 H   0  0  0  0  0  0
  -23.3733  -35.9638   23.3295 H   0  0  0  0  0  0
  -24.3588  -36.8923   22.2071 H   0  0  0  0  0  0
  -23.7251  -37.6477   23.6703 H   0  0  0  0  0  0
  -26.1585  -31.4943   20.6156 H   0  0  0  0  0  0
  -26.8619  -30.7791   22.0335 H   0  0  0  0  0  0
  -28.1294  -28.8560   21.2313 H   0  0  0  0  0  0
  -25.9570  -25.8381   19.0578 H   0  0  0  0  0  0
  -23.9754  -27.2842   19.0061 H   0  0  0  0  0  0
  -23.8009  -30.5791   19.4035 H   0  0  0  0  0  0
  -22.7769  -29.2499   19.8451 H   0  0  0  0  0  0
  -25.1294  -36.1873   25.0817 H   0  0  0  0  0  0
  -21.0080  -28.3342   24.1342 H   0  0  0  0  0  0
  -20.5663  -26.2337   23.3666 H   0  0  0  0  0  0
  -21.6658  -26.7397   22.1236 H   0  0  0  0  0  0
  -19.6901  -25.6261   21.1301 H   0  0  0  0  0  0
  -19.6699  -27.3154   20.6743 H   0  0  0  0  0  0
  -17.4212  -26.6724   21.4037 H   0  0  0  0  0  0
  -18.0299  -26.0086   22.9029 H   0  0  0  0  0  0
  -19.7948  -30.7303   24.2248 H   0  0  0  0  0  0
  -17.5023  -31.6263   24.5172 H   0  0  0  0  0  0
  -15.5364  -30.2983   23.7648 H   0  0  0  0  0  0
  -15.8713  -28.0826   22.7053 H   0  0  0  0  0  0
  -24.5728  -30.7284   25.7786 H   0  0  0  0  0  0
  -24.8929  -32.3042   26.4927 H   0  0  0  0  0  0
  -25.7909  -30.8936   27.0245 H   0  0  0  0  0  0
  -26.2968  -29.6761   24.1274 H   0  0  0  0  0  0
  -27.3823  -29.7277   25.4925 H   0  0  0  0  0  0
  -27.8898  -30.4227   23.9740 H   0  0  0  0  0  0
  -27.2519  -33.3666   26.2131 H   0  0  0  0  0  0
  -28.3751  -32.7057   25.0358 H   0  0  0  0  0  0
  -28.0702  -31.8547   26.5423 H   0  0  0  0  0  0
  -28.2581  -38.0088   24.7491 H   0  0  0  0  0  0
  -28.1077  -36.2622   24.6260 H   0  0  0  0  0  0
  -27.2325  -37.1433   25.8853 H   0  0  0  0  0  0
  -20.9410  -29.8740   21.6784 H   0  0  0  0  0  0
  -26.0139  -38.2828   24.1396 H   0  0  0  0  0  0
  -31.3310  -18.0855   19.8281 H   0  0  0  0  0  0
  -32.0021  -20.2335   19.2891 H   0  0  0  0  0  0
  -31.7007  -21.3302   20.6346 H   0  0  0  0  0  0
  -30.8182  -21.5266   19.1204 H   0  0  0  0  0  0
  -26.9596  -20.4587   23.0175 H   0  0  0  0  0  0
  -26.1948  -18.9813   22.5064 H   0  0  0  0  0  0
  -26.1348  -20.3803   21.4495 H   0  0  0  0  0  0
  -29.4596  -22.2829   22.0092 H   0  0  0  0  0  0
  -27.7848  -22.1177   21.8133 H   0  0  0  0  0  0
  -28.0372  -23.0736   19.3903 H   0  0  0  0  0  0
  -29.6457  -23.5379   19.8593 H   0  0  0  0  0  0
  -28.4210  -24.9214   21.8163 H   0  0  0  0  0  0
  -26.9776  -24.6833   20.9348 H   0  0  0  0  0  0
  -28.7947  -15.5264   21.2522 H   0  0  0  0  0  0
  1 25  1  0  0  0
  1 30  2  0  0  0
  1 82  1  0  0  0
  2  3  1  0  0  0
  2 25  1  0  0  0
  2 84  1  0  0  0
  2 85  1  0  0  0
  3  4  1  0  0  0
  3 86  1  0  0  0
  3 87  1  0  0  0
  4  5  1  0  0  0
  4 88  1  0  0  0
  4 89  1  0  0  0
  5  6  1  0  0  0
  5 26  1  0  0  0
  5 90  1  0  0  0
  6 25  1  0  0  0
  6 91  1  0  0  0
  6 92  1  0  0  0
  7  8  2  0  0  0
  7 26  1  0  0  0
  7 29  1  0  0  0
  8  9  1  0  0  0
  8 22  1  0  0  0
  9 10  1  0  0  0
  9 27  2  0  0  0
 10 11  2  0  0  0
 10 15  1  0  0  0
 11 12  1  0  0  0
 11 93  1  0  0  0
 12 13  2  0  0  0
 12 94  1  0  0  0
 13 14  1  0  0  0
 13 31  1  0  0  0
 14 15  2  0  0  0
 14 95  1  0  0  0
 15 96  1  0  0  0
 16 17  2  0  0  0
 16 21  1  0  0  0
 16 31  1  0  0  0
 17 18  1  0  0  0
 17 97  1  0  0  0
 18 19  2  0  0  0
 18 98  1  0  0  0
 19 20  1  0  0  0
 19 24  1  0  0  0
 20 21  2  0  0  0
 20 99  1  0  0  0
 21 23  1  0  0  0
 22 28  1  0  0  0
 22 32  2  0  0  0
 26 27  1  0  0  0
 28100  1  0  0  0
 28101  1  0  0  0
 29102  1  0  0  0
 29103  1  0  0  0
 33 34  1  0  0  0
 33 66  1  0  0  0
 33 70  2  0  0  0
 34 36  1  0  0  0
 34 59  1  0  0  0
 34104  1  0  0  0
 35 44  2  0  0  0
 35 45  1  0  0  0
 35 68  1  0  0  0
 36 56  1  0  0  0
 36105  1  0  0  0
 37 39  1  0  0  0
 37 47  1  0  0  0
 37 66  1  0  0  0
 37106  1  0  0  0
 38 43  2  0  0  0
 38 46  1  0  0  0
 38 47  1  0  0  0
 39 64  1  0  0  0
 39 67  2  0  0  0
 40 52  1  0  0  0
 40 53  2  0  0  0
 40 58  1  0  0  0
 41107  1  0  0  0
 41108  1  0  0  0
 41109  1  0  0  0
 41 48  1  0  0  0
 42 43  1  0  0  0
 42 66  1  0  0  0
 42110  1  0  0  0
 42111  1  0  0  0
 43 44  1  0  0  0
 44112  1  0  0  0
 45 46  2  0  0  0
 45113  1  0  0  0
 46114  1  0  0  0
 47115  1  0  0  0
 47116  1  0  0  0
 48 56  1  0  0  0
 48 65  1  0  0  0
 48117  1  0  0  0
 49 50  1  0  0  0
 49 53  1  0  0  0
 49 64  1  0  0  0
 49118  1  0  0  0
 50 51  1  0  0  0
 50119  1  0  0  0
 50120  1  0  0  0
 51 52  1  0  0  0
 51121  1  0  0  0
 51122  1  0  0  0
 52123  1  0  0  0
 52124  1  0  0  0
 53 54  1  0  0  0
 54 55  2  0  0  0
 54125  1  0  0  0
 55 57  1  0  0  0
 55126  1  0  0  0
 56 69  2  0  0  0
 57 58  2  0  0  0
 57127  1  0  0  0
 58128  1  0  0  0
 59 60  1  0  0  0
 59 61  1  0  0  0
 59 62  1  0  0  0
 60129  1  0  0  0
 60130  1  0  0  0
 60131  1  0  0  0
 61132  1  0  0  0
 61133  1  0  0  0
 61134  1  0  0  0
 62135  1  0  0  0
 62136  1  0  0  0
 62137  1  0  0  0
 63 65  1  0  0  0
 63138  1  0  0  0
 63139  1  0  0  0
 63140  1  0  0  0
 64141  1  0  0  0
 65142  1  0  0  0
 68 81  1  0  0  0
 71 72  2  0  0  0
 71 75  1  0  0  0
 71143  1  0  0  0
 72 73  1  0  0  0
 72 77  1  0  0  0
 73 74  2  0  0  0
 73 79  1  0  0  0
 74 76  1  0  0  0
 74 78  1  0  0  0
 75 76  2  0  0  0
 75 82  1  0  0  0
 76 83  1  0  0  0
 77144  1  0  0  0
 77145  1  0  0  0
 77146  1  0  0  0
 78147  1  0  0  0
 78148  1  0  0  0
 78149  1  0  0  0
 79 80  1  0  0  0
 79150  1  0  0  0
 79151  1  0  0  0
 80 81  1  0  0  0
 80152  1  0  0  0
 80153  1  0  0  0
 81154  1  0  0  0
 81155  1  0  0  0
 82156  1  0  0  0
M  ISO  4   1 100  68 101  81 101  82 100
M  END
> <chiral flag>
0

> <version>
0

> <s_m_source_file>
/data/baiqing/PycharmProjects/Reinvent-master-3.2/result/LINK_invent/BTK/process_docking_weight1_custom_sum_contain_oxygen_bond_distance_aromatic_linkinvent_7_9_3/rearranged_h_0021.sdf

> <i_m_source_file_index>
57

> <r_mmod_Potential_Energy-OPLS-2005>
364.233551025391

> <r_mmod_Stretch_Energy-OPLS-2005>
194.458526611328

> <r_mmod_Bend_Energy-OPLS-2005>
256.601531982422

> <r_mmod_Torsional_Energy-OPLS-2005>
232.586883544922

> <r_mmod_Improper_Torsional_Energy-OPLS-2005>
4.17259740829468

> <r_mmod_Van_der_Waal_Energy-OPLS-2005>
133.589920043945

> <r_mmod_Electrostatic_Energy-OPLS-2005>
-413.254180908203

> <r_mmod_Solvation_Energy-OPLS-2005>
-192.191223144531

> <b_mmod_Minimization_Converged-OPLS-2005>
0

> <r_mmod_RMS_Derivative-OPLS-2005>
5.28284597396851

$$$$
58
                    3D
 Structure written by MMmdl.
156164  0  0  1  0            999 V2000
  -30.2958  -15.6029   20.3284 C   0  0  0  0  0  0
  -30.4274  -13.0502   19.5489 C   0  0  0  0  0  0
  -29.5514  -12.6589   18.3245 C   0  0  0  0  0  0
  -28.1211  -12.3068   18.7602 C   0  0  0  0  0  0
  -27.5975  -13.3065   19.8163 C   0  0  2  0  0  0
  -28.6139  -13.6148   20.9407 C   0  0  0  0  0  0
  -25.2323  -13.8287   20.5787 C   0  0  0  0  0  0
  -24.1710  -13.0433   20.9290 C   0  0  0  0  0  0
  -24.6414  -11.6944   20.8772 C   0  0  0  0  0  0
  -23.9121  -10.4291   21.0405 C   0  0  0  0  0  0
  -24.3654   -9.4203   21.9187 C   0  0  0  0  0  0
  -23.6317   -8.2243   22.0757 C   0  0  0  0  0  0
  -22.4298   -8.0287   21.3547 C   0  0  0  0  0  0
  -21.9951   -9.0258   20.4641 C   0  0  0  0  0  0
  -22.7292  -10.2133   20.3049 C   0  0  0  0  0  0
  -21.6857   -6.0744   22.5282 C   0  0  0  0  0  0
  -21.4017   -6.5643   23.8216 C   0  0  0  0  0  0
  -21.3663   -5.6796   24.9176 C   0  0  0  0  0  0
  -21.6051   -4.3059   24.7225 C   0  0  0  0  0  0
  -21.8819   -3.8148   23.4345 C   0  0  0  0  0  0
  -21.9194   -4.6972   22.3404 C   0  0  0  0  0  0
  -22.7721  -13.5165   21.1923 C   0  0  0  0  0  0
  -22.1659   -4.2160   21.0981 F   0  0  0  0  0  0
  -21.5630   -3.4537   25.7731 F   0  0  0  0  0  0
  -29.7991  -14.2282   20.2984 N   0  0  0  0  0  0
  -26.2766  -12.9611   20.3224 N   0  0  0  0  0  0
  -25.9358  -11.6682   20.5703 N   0  0  0  0  0  0
  -22.0381  -12.8134   22.0468 N   0  0  0  0  0  0
  -25.3918  -15.2030   20.4208 N   0  0  0  0  0  0
  -31.5256  -15.5740   20.1259 O   0  0  0  0  0  0
  -21.6649   -6.8893   21.4248 O   0  0  0  0  0  0
  -22.3394  -14.5461   20.6764 O   0  0  0  0  0  0
  -24.6833  -31.8008   23.1535 C   0  0  0  0  0  0
  -25.9420  -32.4481   23.8070 C   0  0  1  0  0  0
  -27.2265  -26.7129   20.2138 C   0  0  0  0  0  0
  -25.6000  -33.8301   24.1958 N   0  0  0  0  0  0
  -23.5096  -30.4035   21.5063 C   0  0  2  0  0  0
  -24.9681  -28.7479   20.1182 C   0  0  0  0  0  0
  -22.7766  -29.4317   22.4711 C   0  0  0  0  0  0
  -18.0333  -28.1425   22.8464 C   0  0  0  0  0  0
  -24.1474  -36.7143   23.2656 C   0  0  0  0  0  0
  -26.0893  -30.5383   21.4163 C   0  0  0  0  0  0
  -26.1563  -29.1034   20.7672 C   0  0  0  0  0  0
  -27.2717  -28.1136   20.7832 C   0  0  0  0  0  0
  -26.0062  -26.5663   19.5064 C   0  0  0  0  0  0
  -24.9316  -27.5048   19.4645 C   0  0  0  0  0  0
  -23.7642  -29.7023   20.1409 C   0  0  0  0  0  0
  -25.4129  -36.2894   24.0283 C   0  0  1  0  0  0
  -20.5972  -28.3782   23.1144 C   0  0  2  0  0  0
  -20.6798  -26.9443   22.5404 C   0  0  0  0  0  0
  -19.5776  -26.6375   21.5214 C   0  0  0  0  0  0
  -18.1952  -26.7961   22.1608 C   0  0  0  0  0  0
  -19.1602  -28.8929   23.2782 C   0  0  0  0  0  0
  -18.9509  -30.1514   23.8825 C   0  0  0  0  0  0
  -17.6504  -30.6616   24.0552 C   0  0  0  0  0  0
  -25.9117  -34.9291   23.4952 C   0  0  0  0  0  0
  -16.5391  -29.9099   23.6362 C   0  0  0  0  0  0
  -16.7317  -28.6519   23.0381 C   0  0  0  0  0  0
  -26.4594  -31.6526   25.0696 C   0  0  0  0  0  0
  -25.3649  -31.3828   26.1300 C   0  0  0  0  0  0
  -27.0549  -30.2882   24.6589 C   0  0  0  0  0  0
  -27.6033  -32.4393   25.7524 C   0  0  0  0  0  0
  -27.5549  -37.1719   24.8466 C   0  0  0  0  0  0
  -21.4413  -29.3033   22.3467 N   0  0  0  0  0  0
  -26.4246  -37.3669   23.9429 N   0  0  0  0  0  0
  -24.7838  -30.9462   22.0784 N   0  0  0  0  0  0
  -23.4212  -28.7908   23.3049 O   0  0  0  0  0  0
  -28.1789  -25.4890   20.2912 O   0  0  0  0  0  0
  -26.5747  -34.8867   22.4562 O   0  0  0  0  0  0
  -23.5854  -32.1070   23.6497 O   0  0  0  0  0  0
  -28.6256  -21.0988   21.3969 C   0  0  0  0  0  0
  -29.0721  -21.1204   19.1880 C   0  0  0  0  0  0
  -28.6284  -22.0658   20.2608 C   0  0  0  0  0  0
  -28.9485  -19.5907   21.4427 C   0  0  0  0  0  0
  -29.3963  -19.6091   19.2331 C   0  0  0  0  0  0
  -29.3826  -18.6416   20.3714 C   0  0  0  0  0  0
  -28.1793  -21.7384   22.7075 C   0  0  0  0  0  0
  -29.1564  -21.7905   17.8200 C   0  0  0  0  0  0
  -28.7738  -18.9168   22.7998 C   0  0  0  0  0  0
  -29.7286  -18.9527   17.9000 C   0  0  0  0  0  0
  -27.8670  -23.7765   20.1245 C   0  0  0  0  0  0
  -29.4709  -16.9166   20.4307 N   0  0  0  0  0  0
  -31.4278  -13.3041   19.1971 H   0  0  0  0  0  0
  -30.5687  -12.1938   20.2109 H   0  0  0  0  0  0
  -29.9976  -11.8242   17.7829 H   0  0  0  0  0  0
  -29.5194  -13.4977   17.6276 H   0  0  0  0  0  0
  -28.1404  -11.3029   19.1864 H   0  0  0  0  0  0
  -27.4538  -12.2668   17.8987 H   0  0  0  0  0  0
  -27.4675  -14.2358   19.2599 H   0  0  0  0  0  0
  -28.8595  -12.7226   21.5187 H   0  0  0  0  0  0
  -28.1860  -14.3289   21.6458 H   0  0  0  0  0  0
  -25.2791   -9.5678   22.4777 H   0  0  0  0  0  0
  -24.0020   -7.4639   22.7484 H   0  0  0  0  0  0
  -21.0889   -8.8778   19.8941 H   0  0  0  0  0  0
  -22.3752  -10.9671   19.6159 H   0  0  0  0  0  0
  -21.2006   -7.6149   23.9723 H   0  0  0  0  0  0
  -21.1490   -6.0520   25.9084 H   0  0  0  0  0  0
  -22.0596   -2.7610   23.2837 H   0  0  0  0  0  0
  -22.4013  -11.9802   22.4854 H   0  0  0  0  0  0
  -21.0986  -13.1131   22.2665 H   0  0  0  0  0  0
  -24.6152  -15.8487   20.5184 H   0  0  0  0  0  0
  -26.2209  -15.6396   20.0402 H   0  0  0  0  0  0
  -26.7509  -32.4963   23.0786 H   0  0  0  0  0  0
  -25.0101  -33.9336   25.0086 H   0  0  0  0  0  0
  -22.8354  -31.2412   21.3177 H   0  0  0  0  0  0
  -23.3766  -35.9437   23.3247 H   0  0  0  0  0  0
  -24.3542  -36.8889   22.2086 H   0  0  0  0  0  0
  -23.7200  -37.6283   23.6788 H   0  0  0  0  0  0
  -26.2879  -31.2643   20.6265 H   0  0  0  0  0  0
  -26.9417  -30.6091   22.0796 H   0  0  0  0  0  0
  -28.1638  -28.3905   21.3268 H   0  0  0  0  0  0
  -25.8383  -25.6254   19.0019 H   0  0  0  0  0  0
  -24.0355  -27.2261   18.9277 H   0  0  0  0  0  0
  -23.9400  -30.4622   19.3785 H   0  0  0  0  0  0
  -22.8701  -29.1678   19.8164 H   0  0  0  0  0  0
  -25.1335  -36.1641   25.0771 H   0  0  0  0  0  0
  -21.0042  -28.3403   24.1274 H   0  0  0  0  0  0
  -20.5663  -26.2403   23.3660 H   0  0  0  0  0  0
  -21.6662  -26.7391   22.1220 H   0  0  0  0  0  0
  -19.6917  -25.6262   21.1304 H   0  0  0  0  0  0
  -19.6723  -27.3135   20.6704 H   0  0  0  0  0  0
  -17.4230  -26.6734   21.3996 H   0  0  0  0  0  0
  -18.0312  -26.0108   22.8998 H   0  0  0  0  0  0
  -19.7989  -30.7348   24.2153 H   0  0  0  0  0  0
  -17.5065  -31.6290   24.5166 H   0  0  0  0  0  0
  -15.5390  -30.2983   23.7738 H   0  0  0  0  0  0
  -15.8712  -28.0819   22.7144 H   0  0  0  0  0  0
  -24.5887  -30.7120   25.7603 H   0  0  0  0  0  0
  -24.8764  -32.3037   26.4494 H   0  0  0  0  0  0
  -25.7821  -30.9162   27.0234 H   0  0  0  0  0  0
  -26.3276  -29.6485   24.1584 H   0  0  0  0  0  0
  -27.4010  -29.7344   25.5327 H   0  0  0  0  0  0
  -27.9238  -30.4050   24.0110 H   0  0  0  0  0  0
  -27.2581  -33.3789   26.1851 H   0  0  0  0  0  0
  -28.3975  -32.6805   25.0446 H   0  0  0  0  0  0
  -28.0549  -31.8685   26.5645 H   0  0  0  0  0  0
  -28.2516  -38.0059   24.7547 H   0  0  0  0  0  0
  -28.1087  -36.2585   24.6248 H   0  0  0  0  0  0
  -27.2261  -37.1309   25.8862 H   0  0  0  0  0  0
  -20.9707  -29.8722   21.6565 H   0  0  0  0  0  0
  -26.0056  -38.2698   24.1495 H   0  0  0  0  0  0
  -28.1422  -22.8253   22.6424 H   0  0  0  0  0  0
  -28.8724  -21.5141   23.5174 H   0  0  0  0  0  0
  -27.1842  -21.3931   22.9892 H   0  0  0  0  0  0
  -29.1861  -22.8765   17.9027 H   0  0  0  0  0  0
  -28.2929  -21.5277   17.2076 H   0  0  0  0  0  0
  -30.0613  -21.5122   17.2811 H   0  0  0  0  0  0
  -29.4813  -19.3244   23.5214 H   0  0  0  0  0  0
  -28.9498  -17.8429   22.7669 H   0  0  0  0  0  0
  -27.7629  -19.0604   23.1819 H   0  0  0  0  0  0
  -30.6780  -19.3253   17.5159 H   0  0  0  0  0  0
  -28.9497  -19.1523   17.1633 H   0  0  0  0  0  0
  -29.8177  -17.8700   17.9820 H   0  0  0  0  0  0
  -26.9974  -23.6673   20.7722 H   0  0  0  0  0  0
  -27.4241  -23.7361   19.1302 H   0  0  0  0  0  0
  -28.5439  -16.5814   20.6484 H   0  0  0  0  0  0
  1 25  1  0  0  0
  1 30  2  0  0  0
  1 82  1  0  0  0
  2  3  1  0  0  0
  2 25  1  0  0  0
  2 83  1  0  0  0
  2 84  1  0  0  0
  3  4  1  0  0  0
  3 85  1  0  0  0
  3 86  1  0  0  0
  4  5  1  0  0  0
  4 87  1  0  0  0
  4 88  1  0  0  0
  5  6  1  0  0  0
  5 26  1  0  0  0
  5 89  1  0  0  0
  6 25  1  0  0  0
  6 90  1  0  0  0
  6 91  1  0  0  0
  7  8  2  0  0  0
  7 26  1  0  0  0
  7 29  1  0  0  0
  8  9  1  0  0  0
  8 22  1  0  0  0
  9 10  1  0  0  0
  9 27  2  0  0  0
 10 11  2  0  0  0
 10 15  1  0  0  0
 11 12  1  0  0  0
 11 92  1  0  0  0
 12 13  2  0  0  0
 12 93  1  0  0  0
 13 14  1  0  0  0
 13 31  1  0  0  0
 14 15  2  0  0  0
 14 94  1  0  0  0
 15 95  1  0  0  0
 16 17  2  0  0  0
 16 21  1  0  0  0
 16 31  1  0  0  0
 17 18  1  0  0  0
 17 96  1  0  0  0
 18 19  2  0  0  0
 18 97  1  0  0  0
 19 20  1  0  0  0
 19 24  1  0  0  0
 20 21  2  0  0  0
 20 98  1  0  0  0
 21 23  1  0  0  0
 22 28  1  0  0  0
 22 32  2  0  0  0
 26 27  1  0  0  0
 28 99  1  0  0  0
 28100  1  0  0  0
 29101  1  0  0  0
 29102  1  0  0  0
 33 34  1  0  0  0
 33 66  1  0  0  0
 33 70  2  0  0  0
 34 36  1  0  0  0
 34 59  1  0  0  0
 34103  1  0  0  0
 35 44  2  0  0  0
 35 45  1  0  0  0
 35 68  1  0  0  0
 36 56  1  0  0  0
 36104  1  0  0  0
 37 39  1  0  0  0
 37 47  1  0  0  0
 37 66  1  0  0  0
 37105  1  0  0  0
 38 43  2  0  0  0
 38 46  1  0  0  0
 38 47  1  0  0  0
 39 64  1  0  0  0
 39 67  2  0  0  0
 40 52  1  0  0  0
 40 53  2  0  0  0
 40 58  1  0  0  0
 41106  1  0  0  0
 41107  1  0  0  0
 41108  1  0  0  0
 41 48  1  0  0  0
 42 43  1  0  0  0
 42 66  1  0  0  0
 42109  1  0  0  0
 42110  1  0  0  0
 43 44  1  0  0  0
 44111  1  0  0  0
 45 46  2  0  0  0
 45112  1  0  0  0
 46113  1  0  0  0
 47114  1  0  0  0
 47115  1  0  0  0
 48 56  1  0  0  0
 48 65  1  0  0  0
 48116  1  0  0  0
 49 50  1  0  0  0
 49 53  1  0  0  0
 49 64  1  0  0  0
 49117  1  0  0  0
 50 51  1  0  0  0
 50118  1  0  0  0
 50119  1  0  0  0
 51 52  1  0  0  0
 51120  1  0  0  0
 51121  1  0  0  0
 52122  1  0  0  0
 52123  1  0  0  0
 53 54  1  0  0  0
 54 55  2  0  0  0
 54124  1  0  0  0
 55 57  1  0  0  0
 55125  1  0  0  0
 56 69  2  0  0  0
 57 58  2  0  0  0
 57126  1  0  0  0
 58127  1  0  0  0
 59 60  1  0  0  0
 59 61  1  0  0  0
 59 62  1  0  0  0
 60128  1  0  0  0
 60129  1  0  0  0
 60130  1  0  0  0
 61131  1  0  0  0
 61132  1  0  0  0
 61133  1  0  0  0
 62134  1  0  0  0
 62135  1  0  0  0
 62136  1  0  0  0
 63 65  1  0  0  0
 63137  1  0  0  0
 63138  1  0  0  0
 63139  1  0  0  0
 64140  1  0  0  0
 65141  1  0  0  0
 68 81  1  0  0  0
 71 73  2  0  0  0
 71 74  1  0  0  0
 71 77  1  0  0  0
 72 73  1  0  0  0
 72 75  2  0  0  0
 72 78  1  0  0  0
 73 81  1  0  0  0
 74 76  2  0  0  0
 74 79  1  0  0  0
 75 76  1  0  0  0
 75 80  1  0  0  0
 76 82  1  0  0  0
 77142  1  0  0  0
 77143  1  0  0  0
 77144  1  0  0  0
 78145  1  0  0  0
 78146  1  0  0  0
 78147  1  0  0  0
 79148  1  0  0  0
 79149  1  0  0  0
 79150  1  0  0  0
 80151  1  0  0  0
 80152  1  0  0  0
 80153  1  0  0  0
 81154  1  0  0  0
 81155  1  0  0  0
 82156  1  0  0  0
M  ISO  4   1 100  68 101  81 101  82 100
M  END
> <chiral flag>
0

> <version>
0

> <s_m_source_file>
/data/baiqing/PycharmProjects/Reinvent-master-3.2/result/LINK_invent/BTK/process_docking_weight1_custom_sum_contain_oxygen_bond_distance_aromatic_linkinvent_7_9_3/rearranged_h_0021.sdf

> <i_m_source_file_index>
58

> <r_mmod_Potential_Energy-OPLS-2005>
2259.22241210938

> <r_mmod_Stretch_Energy-OPLS-2005>
940.248229980469

> <r_mmod_Bend_Energy-OPLS-2005>
638.989868164062

> <r_mmod_Torsional_Energy-OPLS-2005>
258.704620361328

> <r_mmod_Improper_Torsional_Energy-OPLS-2005>
9.39475345611572

> <r_mmod_Van_der_Waal_Energy-OPLS-2005>
142.759948730469

> <r_mmod_Electrostatic_Energy-OPLS-2005>
-390.464752197266

> <r_mmod_Solvation_Energy-OPLS-2005>
-210.310836791992

> <b_mmod_Minimization_Converged-OPLS-2005>
0

> <r_mmod_RMS_Derivative-OPLS-2005>
1.11194562911987

$$$$
59
                    3D
 Structure written by MMmdl.
181190  0  0  1  0            999 V2000
  -30.7209  -14.4615   20.6142 C   0  0  0  0  0  0
  -30.4195  -12.3205   19.4133 C   0  0  0  0  0  0
  -29.4887  -12.5174   18.2007 C   0  0  0  0  0  0
  -28.0120  -12.3714   18.6167 C   0  0  0  0  0  0
  -27.6595  -13.2098   19.8744 C   0  0  2  0  0  0
  -28.7010  -12.9907   20.9932 C   0  0  0  0  0  0
  -25.2573  -13.8166   20.5676 C   0  0  0  0  0  0
  -24.1828  -13.0438   20.9169 C   0  0  0  0  0  0
  -24.6389  -11.6909   20.8731 C   0  0  0  0  0  0
  -23.9058  -10.4293   21.0401 C   0  0  0  0  0  0
  -24.3611   -9.4211   21.9182 C   0  0  0  0  0  0
  -23.6289   -8.2246   22.0753 C   0  0  0  0  0  0
  -22.4272   -8.0281   21.3544 C   0  0  0  0  0  0
  -21.9906   -9.0252   20.4645 C   0  0  0  0  0  0
  -22.7232  -10.2133   20.3053 C   0  0  0  0  0  0
  -21.6854   -6.0735   22.5278 C   0  0  0  0  0  0
  -21.4013   -6.5639   23.8211 C   0  0  0  0  0  0
  -21.3660   -5.6792   24.9174 C   0  0  0  0  0  0
  -21.6044   -4.3055   24.7226 C   0  0  0  0  0  0
  -21.8819   -3.8147   23.4346 C   0  0  0  0  0  0
  -21.9191   -4.6963   22.3402 C   0  0  0  0  0  0
  -22.7852  -13.5234   21.1841 C   0  0  0  0  0  0
  -22.1661   -4.2149   21.0980 F   0  0  0  0  0  0
  -21.5629   -3.4539   25.7739 F   0  0  0  0  0  0
  -30.0306  -13.3009   20.4400 N   0  0  0  0  0  0
  -26.3014  -12.9343   20.3369 N   0  0  0  0  0  0
  -25.9316  -11.6498   20.5764 N   0  0  0  0  0  0
  -22.0499  -12.8227   22.0401 N   0  0  0  0  0  0
  -25.4294  -15.1881   20.4090 N   0  0  0  0  0  0
  -31.8251  -14.6634   20.1010 O   0  0  0  0  0  0
  -21.6637   -6.8878   21.4240 O   0  0  0  0  0  0
  -22.3535  -14.5542   20.6694 O   0  0  0  0  0  0
  -24.6158  -31.8664   23.2097 C   0  0  0  0  0  0
  -25.9047  -32.4810   23.8393 C   0  0  1  0  0  0
  -27.2315  -27.4231   20.0974 C   0  0  0  0  0  0
  -25.5901  -33.8612   24.2325 N   0  0  0  0  0  0
  -23.4038  -30.4902   21.5512 C   0  0  2  0  0  0
  -24.8492  -28.9550   20.1150 C   0  0  0  0  0  0
  -22.7408  -29.4654   22.4995 C   0  0  0  0  0  0
  -18.0268  -28.1375   22.8496 C   0  0  0  0  0  0
  -24.1484  -36.7312   23.2640 C   0  0  0  0  0  0
  -25.9339  -30.8297   21.3631 C   0  0  0  0  0  0
  -26.0115  -29.4643   20.7076 C   0  0  0  0  0  0
  -27.2078  -28.7087   20.6886 C   0  0  0  0  0  0
  -26.0498  -26.9299   19.5002 C   0  0  0  0  0  0
  -24.8639  -27.6880   19.5073 C   0  0  0  0  0  0
  -23.6114  -29.8220   20.1663 C   0  0  0  0  0  0
  -25.4106  -36.3106   24.0337 C   0  0  1  0  0  0
  -20.5859  -28.3665   23.1320 C   0  0  2  0  0  0
  -20.6758  -26.9402   22.5419 C   0  0  0  0  0  0
  -19.5739  -26.6386   21.5213 C   0  0  0  0  0  0
  -18.1915  -26.7924   22.1622 C   0  0  0  0  0  0
  -19.1519  -28.8837   23.2906 C   0  0  0  0  0  0
  -18.9448  -30.1446   23.8909 C   0  0  0  0  0  0
  -17.6450  -30.6586   24.0567 C   0  0  0  0  0  0
  -25.9039  -34.9471   23.5130 C   0  0  0  0  0  0
  -16.5341  -29.9086   23.6333 C   0  0  0  0  0  0
  -16.7259  -28.6503   23.0356 C   0  0  0  0  0  0
  -26.4479  -31.6590   25.0723 C   0  0  0  0  0  0
  -25.3747  -31.3679   26.1470 C   0  0  0  0  0  0
  -27.0327  -30.3037   24.6102 C   0  0  0  0  0  0
  -27.6054  -32.4314   25.7487 C   0  0  0  0  0  0
  -27.5582  -37.1805   24.8462 C   0  0  0  0  0  0
  -21.4137  -29.3029   22.3725 N   0  0  0  0  0  0
  -26.4290  -37.3792   23.9413 N   0  0  0  0  0  0
  -24.6696  -31.0761   22.0998 N   0  0  0  0  0  0
  -23.4172  -28.8194   23.3042 O   0  0  0  0  0  0
  -28.3947  -26.6779   20.1105 O   0  0  0  0  0  0
  -26.5602  -34.8920   22.4693 O   0  0  0  0  0  0
  -23.5351  -32.1424   23.7485 O   0  0  0  0  0  0
  -30.8397  -20.1088   20.2219 C   0  0  0  0  0  0
  -31.1742  -18.7946   20.6107 C   0  0  0  0  0  0
  -29.5724  -20.6552   20.5199 C   0  0  0  0  0  0
  -30.2549  -17.9866   21.3152 C   0  0  0  0  0  0
  -28.6266  -19.8375   21.1932 C   0  0  0  0  0  0
  -28.9662  -18.5135   21.5897 C   0  0  0  0  0  0
  -35.2657  -29.7453   23.1042 C   0  0  0  0  0  0
  -34.9201  -29.0089   21.8018 C   0  0  0  0  0  0
  -35.0336  -28.8406   24.3234 C   0  0  0  0  0  0
  -33.4807  -28.4685   21.8285 C   0  0  0  0  0  0
  -33.5950  -28.2986   24.3490 C   0  0  0  0  0  0
  -33.2346  -27.5519   23.0475 C   0  0  0  0  0  0
  -29.2673  -22.1086   20.1119 C   0  0  0  0  0  0
  -30.7305  -16.6339   21.8739 C   0  0  0  0  0  0
  -31.7886  -27.0185   23.1121 C   0  0  0  0  0  0
  -29.4490  -23.1246   21.2671 C   0  0  0  0  0  0
  -31.3930  -26.1196   21.9276 C   0  0  0  0  0  0
  -30.0261  -25.4467   22.1312 C   0  0  0  0  0  0
  -28.2503  -25.2565   20.3155 C   0  0  0  0  0  0
  -29.5518  -24.6376   20.8935 C   0  0  2  0  0  0
  -30.1071  -15.4093   21.3462 N   0  0  0  0  0  0
  -27.0549  -20.4665   21.5610 Cl  0  0  0  0  0  0
  -27.8143  -17.5518   22.4555 Cl  0  0  0  0  0  0
  -31.4627  -12.4236   19.1092 H   0  0  0  0  0  0
  -30.3254  -11.3081   19.8094 H   0  0  0  0  0  0
  -29.7298  -11.7967   17.4184 H   0  0  0  0  0  0
  -29.6518  -13.5058   17.7680 H   0  0  0  0  0  0
  -27.8254  -11.3148   18.8122 H   0  0  0  0  0  0
  -27.3587  -12.6463   17.7877 H   0  0  0  0  0  0
  -27.7038  -14.2586   19.5799 H   0  0  0  0  0  0
  -28.6811  -11.9535   21.3310 H   0  0  0  0  0  0
  -28.4541  -13.5850   21.8735 H   0  0  0  0  0  0
  -25.2757   -9.5690   22.4755 H   0  0  0  0  0  0
  -24.0000   -7.4639   22.7475 H   0  0  0  0  0  0
  -21.0838   -8.8768   19.8952 H   0  0  0  0  0  0
  -22.3689  -10.9670   19.6160 H   0  0  0  0  0  0
  -21.2007   -7.6147   23.9715 H   0  0  0  0  0  0
  -21.1482   -6.0524   25.9077 H   0  0  0  0  0  0
  -22.0598   -2.7609   23.2847 H   0  0  0  0  0  0
  -22.4112  -11.9881   22.4776 H   0  0  0  0  0  0
  -21.1124  -13.1261   22.2620 H   0  0  0  0  0  0
  -24.6703  -15.8477   20.5380 H   0  0  0  0  0  0
  -26.2964  -15.6319   20.1344 H   0  0  0  0  0  0
  -26.7116  -32.5514   23.1155 H   0  0  0  0  0  0
  -25.0048  -33.9774   25.0467 H   0  0  0  0  0  0
  -22.6931  -31.3074   21.4119 H   0  0  0  0  0  0
  -23.3746  -35.9646   23.3302 H   0  0  0  0  0  0
  -24.3575  -36.8934   22.2054 H   0  0  0  0  0  0
  -23.7235  -37.6515   23.6660 H   0  0  0  0  0  0
  -26.0471  -31.5962   20.5952 H   0  0  0  0  0  0
  -26.8211  -30.8814   21.9827 H   0  0  0  0  0  0
  -28.1072  -29.0980   21.1455 H   0  0  0  0  0  0
  -26.0347  -25.9609   19.0226 H   0  0  0  0  0  0
  -23.9700  -27.2906   19.0463 H   0  0  0  0  0  0
  -23.7174  -30.5962   19.4058 H   0  0  0  0  0  0
  -22.7346  -29.2412   19.8729 H   0  0  0  0  0  0
  -25.1278  -36.1972   25.0829 H   0  0  0  0  0  0
  -20.9949  -28.3233   24.1440 H   0  0  0  0  0  0
  -20.5667  -26.2269   23.3604 H   0  0  0  0  0  0
  -21.6630  -26.7445   22.1212 H   0  0  0  0  0  0
  -19.6902  -25.6301   21.1233 H   0  0  0  0  0  0
  -19.6682  -27.3203   20.6750 H   0  0  0  0  0  0
  -17.4187  -26.6685   21.4019 H   0  0  0  0  0  0
  -18.0315  -26.0056   22.9009 H   0  0  0  0  0  0
  -19.7923  -30.7264   24.2280 H   0  0  0  0  0  0
  -17.5004  -31.6266   24.5170 H   0  0  0  0  0  0
  -15.5344  -30.2996   23.7645 H   0  0  0  0  0  0
  -15.8658  -28.0828   22.7067 H   0  0  0  0  0  0
  -24.5931  -30.7017   25.7802 H   0  0  0  0  0  0
  -24.8923  -32.2822   26.4937 H   0  0  0  0  0  0
  -25.8107  -30.8838   27.0219 H   0  0  0  0  0  0
  -26.2880  -29.6780   24.1168 H   0  0  0  0  0  0
  -27.4118  -29.7285   25.4559 H   0  0  0  0  0  0
  -27.8699  -30.4364   23.9245 H   0  0  0  0  0  0
  -27.2681  -33.3609   26.2085 H   0  0  0  0  0  0
  -28.3854  -32.6879   25.0307 H   0  0  0  0  0  0
  -28.0733  -31.8423   26.5385 H   0  0  0  0  0  0
  -28.2590  -38.0113   24.7529 H   0  0  0  0  0  0
  -28.1089  -36.2644   24.6264 H   0  0  0  0  0  0
  -27.2301  -37.1430   25.8864 H   0  0  0  0  0  0
  -20.9294  -29.8756   21.6953 H   0  0  0  0  0  0
  -26.0178  -38.2867   24.1427 H   0  0  0  0  0  0
  -31.5783  -20.7081   19.7068 H   0  0  0  0  0  0
  -32.1663  -18.4213   20.3960 H   0  0  0  0  0  0
  -34.6542  -30.6450   23.1915 H   0  0  0  0  0  0
  -36.3037  -30.0810   23.0801 H   0  0  0  0  0  0
  -35.6181  -28.1836   21.6510 H   0  0  0  0  0  0
  -35.0504  -29.6789   20.9508 H   0  0  0  0  0  0
  -35.2383  -29.3944   25.2408 H   0  0  0  0  0  0
  -35.7390  -28.0083   24.3034 H   0  0  0  0  0  0
  -33.2960  -27.9276   20.9005 H   0  0  0  0  0  0
  -32.7774  -29.3025   21.8440 H   0  0  0  0  0  0
  -32.8998  -29.1252   24.5046 H   0  0  0  0  0  0
  -33.4757  -27.6343   25.2062 H   0  0  0  0  0  0
  -33.9021  -26.6923   22.9641 H   0  0  0  0  0  0
  -28.2579  -22.1761   19.7051 H   0  0  0  0  0  0
  -29.9312  -22.3790   19.2899 H   0  0  0  0  0  0
  -30.5497  -16.6458   22.9495 H   0  0  0  0  0  0
  -31.8167  -16.5734   21.7834 H   0  0  0  0  0  0
  -31.0888  -27.8529   23.1837 H   0  0  0  0  0  0
  -31.6700  -26.4480   24.0347 H   0  0  0  0  0  0
  -30.3813  -22.8582   21.7681 H   0  0  0  0  0  0
  -28.6646  -22.9770   22.0104 H   0  0  0  0  0  0
  -32.1530  -25.3518   21.7753 H   0  0  0  0  0  0
  -31.3616  -26.7140   21.0140 H   0  0  0  0  0  0
  -29.2928  -26.2113   22.3925 H   0  0  0  0  0  0
  -30.0751  -24.8075   23.0138 H   0  0  0  0  0  0
  -27.4284  -25.0556   21.0054 H   0  0  0  0  0  0
  -28.0029  -24.7750   19.3687 H   0  0  0  0  0  0
  -30.3127  -24.7244   20.1163 H   0  0  0  0  0  0
  -29.1860  -15.1861   21.6914 H   0  0  0  0  0  0
  1 25  1  0  0  0
  1 30  2  0  0  0
  1 91  1  0  0  0
  2  3  1  0  0  0
  2 25  1  0  0  0
  2 94  1  0  0  0
  2 95  1  0  0  0
  3  4  1  0  0  0
  3 96  1  0  0  0
  3 97  1  0  0  0
  4  5  1  0  0  0
  4 98  1  0  0  0
  4 99  1  0  0  0
  5  6  1  0  0  0
  5 26  1  0  0  0
  5100  1  0  0  0
  6 25  1  0  0  0
  6101  1  0  0  0
  6102  1  0  0  0
  7  8  2  0  0  0
  7 26  1  0  0  0
  7 29  1  0  0  0
  8  9  1  0  0  0
  8 22  1  0  0  0
  9 10  1  0  0  0
  9 27  2  0  0  0
 10 11  2  0  0  0
 10 15  1  0  0  0
 11 12  1  0  0  0
 11103  1  0  0  0
 12 13  2  0  0  0
 12104  1  0  0  0
 13 14  1  0  0  0
 13 31  1  0  0  0
 14 15  2  0  0  0
 14105  1  0  0  0
 15106  1  0  0  0
 16 17  2  0  0  0
 16 21  1  0  0  0
 16 31  1  0  0  0
 17 18  1  0  0  0
 17107  1  0  0  0
 18 19  2  0  0  0
 18108  1  0  0  0
 19 20  1  0  0  0
 19 24  1  0  0  0
 20 21  2  0  0  0
 20109  1  0  0  0
 21 23  1  0  0  0
 22 28  1  0  0  0
 22 32  2  0  0  0
 26 27  1  0  0  0
 28110  1  0  0  0
 28111  1  0  0  0
 29112  1  0  0  0
 29113  1  0  0  0
 33 34  1  0  0  0
 33 66  1  0  0  0
 33 70  2  0  0  0
 34 36  1  0  0  0
 34 59  1  0  0  0
 34114  1  0  0  0
 35 44  2  0  0  0
 35 45  1  0  0  0
 35 68  1  0  0  0
 36 56  1  0  0  0
 36115  1  0  0  0
 37 39  1  0  0  0
 37 47  1  0  0  0
 37 66  1  0  0  0
 37116  1  0  0  0
 38 43  2  0  0  0
 38 46  1  0  0  0
 38 47  1  0  0  0
 39 64  1  0  0  0
 39 67  2  0  0  0
 40 52  1  0  0  0
 40 53  2  0  0  0
 40 58  1  0  0  0
 41117  1  0  0  0
 41118  1  0  0  0
 41119  1  0  0  0
 41 48  1  0  0  0
 42 43  1  0  0  0
 42 66  1  0  0  0
 42120  1  0  0  0
 42121  1  0  0  0
 43 44  1  0  0  0
 44122  1  0  0  0
 45 46  2  0  0  0
 45123  1  0  0  0
 46124  1  0  0  0
 47125  1  0  0  0
 47126  1  0  0  0
 48 56  1  0  0  0
 48 65  1  0  0  0
 48127  1  0  0  0
 49 50  1  0  0  0
 49 53  1  0  0  0
 49 64  1  0  0  0
 49128  1  0  0  0
 50 51  1  0  0  0
 50129  1  0  0  0
 50130  1  0  0  0
 51 52  1  0  0  0
 51131  1  0  0  0
 51132  1  0  0  0
 52133  1  0  0  0
 52134  1  0  0  0
 53 54  1  0  0  0
 54 55  2  0  0  0
 54135  1  0  0  0
 55 57  1  0  0  0
 55136  1  0  0  0
 56 69  2  0  0  0
 57 58  2  0  0  0
 57137  1  0  0  0
 58138  1  0  0  0
 59 60  1  0  0  0
 59 61  1  0  0  0
 59 62  1  0  0  0
 60139  1  0  0  0
 60140  1  0  0  0
 60141  1  0  0  0
 61142  1  0  0  0
 61143  1  0  0  0
 61144  1  0  0  0
 62145  1  0  0  0
 62146  1  0  0  0
 62147  1  0  0  0
 63 65  1  0  0  0
 63148  1  0  0  0
 63149  1  0  0  0
 63150  1  0  0  0
 64151  1  0  0  0
 65152  1  0  0  0
 68 89  1  0  0  0
 71 72  2  0  0  0
 71 73  1  0  0  0
 71153  1  0  0  0
 72 74  1  0  0  0
 72154  1  0  0  0
 73 75  2  0  0  0
 73 83  1  0  0  0
 74 76  2  0  0  0
 74 84  1  0  0  0
 75 76  1  0  0  0
 75 92  1  0  0  0
 76 93  1  0  0  0
 77 78  1  0  0  0
 77 79  1  0  0  0
 77155  1  0  0  0
 77156  1  0  0  0
 78 80  1  0  0  0
 78157  1  0  0  0
 78158  1  0  0  0
 79 81  1  0  0  0
 79159  1  0  0  0
 79160  1  0  0  0
 80 82  1  0  0  0
 80161  1  0  0  0
 80162  1  0  0  0
 81 82  1  0  0  0
 81163  1  0  0  0
 81164  1  0  0  0
 82 85  1  0  0  0
 82165  1  0  0  0
 83 86  1  0  0  0
 83166  1  0  0  0
 83167  1  0  0  0
 84 91  1  0  0  0
 84168  1  0  0  0
 84169  1  0  0  0
 85 87  1  0  0  0
 85170  1  0  0  0
 85171  1  0  0  0
 86172  1  0  0  0
 86173  1  0  0  0
 86 90  1  0  0  0
 87 88  1  0  0  0
 87174  1  0  0  0
 87175  1  0  0  0
 88 90  1  0  0  0
 88176  1  0  0  0
 88177  1  0  0  0
 89 90  1  0  0  0
 89178  1  0  0  0
 89179  1  0  0  0
 90180  1  0  0  0
 91181  1  0  0  0
M  ISO  4   1 100  68 101  89 101  91 100
M  END
> <chiral flag>
0

> <version>
0

> <s_m_source_file>
/data/baiqing/PycharmProjects/Reinvent-master-3.2/result/LINK_invent/BTK/process_docking_weight1_custom_sum_contain_oxygen_bond_distance_aromatic_linkinvent_7_9_3/rearranged_h_0021.sdf

> <i_m_source_file_index>
59

> <r_mmod_Potential_Energy-OPLS-2005>
11.4656448364258

> <r_mmod_Stretch_Energy-OPLS-2005>
42.367359161377

> <r_mmod_Bend_Energy-OPLS-2005>
102.851570129395

> <r_mmod_Torsional_Energy-OPLS-2005>
248.241729736328

> <r_mmod_Improper_Torsional_Energy-OPLS-2005>
2.47387266159058

> <r_mmod_Van_der_Waal_Energy-OPLS-2005>
149.777404785156

> <r_mmod_Electrostatic_Energy-OPLS-2005>
-359.021423339844

> <r_mmod_Solvation_Energy-OPLS-2005>
-187.636947631836

> <b_mmod_Minimization_Converged-OPLS-2005>
0

> <r_mmod_RMS_Derivative-OPLS-2005>
0.637780785560608

$$$$
60
                    3D
 Structure written by MMmdl.
180188  0  0  1  0            999 V2000
  -30.6341  -14.7280   20.4812 C   0  0  0  0  0  0
  -30.4321  -12.4500   19.4712 C   0  0  0  0  0  0
  -29.5061  -12.4957   18.2369 C   0  0  0  0  0  0
  -28.0360  -12.3130   18.6602 C   0  0  0  0  0  0
  -27.6413  -13.2278   19.8498 C   0  0  2  0  0  0
  -28.6866  -13.1706   20.9850 C   0  0  0  0  0  0
  -25.2510  -13.8194   20.5702 C   0  0  0  0  0  0
  -24.1798  -13.0448   20.9219 C   0  0  0  0  0  0
  -24.6383  -11.6923   20.8762 C   0  0  0  0  0  0
  -23.9062  -10.4300   21.0417 C   0  0  0  0  0  0
  -24.3612   -9.4213   21.9198 C   0  0  0  0  0  0
  -23.6285   -8.2248   22.0764 C   0  0  0  0  0  0
  -22.4272   -8.0283   21.3543 C   0  0  0  0  0  0
  -21.9912   -9.0257   20.4646 C   0  0  0  0  0  0
  -22.7238  -10.2139   20.3066 C   0  0  0  0  0  0
  -21.6855   -6.0739   22.5286 C   0  0  0  0  0  0
  -21.4012   -6.5642   23.8215 C   0  0  0  0  0  0
  -21.3656   -5.6791   24.9175 C   0  0  0  0  0  0
  -21.6051   -4.3058   24.7223 C   0  0  0  0  0  0
  -21.8817   -3.8148   23.4342 C   0  0  0  0  0  0
  -21.9187   -4.6963   22.3402 C   0  0  0  0  0  0
  -22.7816  -13.5231   21.1865 C   0  0  0  0  0  0
  -22.1660   -4.2149   21.0982 F   0  0  0  0  0  0
  -21.5625   -3.4543   25.7734 F   0  0  0  0  0  0
  -29.9880  -13.5154   20.3985 N   0  0  0  0  0  0
  -26.2934  -12.9394   20.3291 N   0  0  0  0  0  0
  -25.9313  -11.6543   20.5776 N   0  0  0  0  0  0
  -22.0459  -12.8222   22.0415 N   0  0  0  0  0  0
  -25.4222  -15.1916   20.4115 N   0  0  0  0  0  0
  -31.8261  -14.8098   20.1793 O   0  0  0  0  0  0
  -21.6638   -6.8878   21.4245 O   0  0  0  0  0  0
  -22.3520  -14.5543   20.6710 O   0  0  0  0  0  0
  -24.6346  -31.8556   23.2016 C   0  0  0  0  0  0
  -25.9165  -32.4755   23.8352 C   0  0  1  0  0  0
  -27.2114  -27.2513   20.1264 C   0  0  0  0  0  0
  -25.5946  -33.8555   24.2278 N   0  0  0  0  0  0
  -23.4304  -30.4831   21.5465 C   0  0  2  0  0  0
  -24.8742  -28.9385   20.1097 C   0  0  0  0  0  0
  -22.7525  -29.4607   22.4914 C   0  0  0  0  0  0
  -18.0306  -28.1375   22.8476 C   0  0  0  0  0  0
  -24.1487  -36.7290   23.2637 C   0  0  0  0  0  0
  -25.9798  -30.7652   21.3857 C   0  0  0  0  0  0
  -26.0494  -29.3902   20.7227 C   0  0  0  0  0  0
  -27.2192  -28.5598   20.7233 C   0  0  0  0  0  0
  -26.0112  -26.8880   19.4648 C   0  0  0  0  0  0
  -24.8614  -27.6946   19.4696 C   0  0  0  0  0  0
  -23.6473  -29.8257   20.1601 C   0  0  0  0  0  0
  -25.4114  -36.3073   24.0332 C   0  0  1  0  0  0
  -20.5908  -28.3689   23.1253 C   0  0  2  0  0  0
  -20.6784  -26.9401   22.5397 C   0  0  0  0  0  0
  -19.5759  -26.6368   21.5200 C   0  0  0  0  0  0
  -18.1940  -26.7920   22.1611 C   0  0  0  0  0  0
  -19.1559  -28.8846   23.2862 C   0  0  0  0  0  0
  -18.9478  -30.1442   23.8879 C   0  0  0  0  0  0
  -17.6477  -30.6567   24.0559 C   0  0  0  0  0  0
  -25.9053  -34.9438   23.5103 C   0  0  0  0  0  0
  -16.5363  -29.9069   23.6328 C   0  0  0  0  0  0
  -16.7290  -28.6485   23.0357 C   0  0  0  0  0  0
  -26.4515  -31.6578   25.0744 C   0  0  0  0  0  0
  -25.3722  -31.3727   26.1447 C   0  0  0  0  0  0
  -27.0402  -30.2997   24.6257 C   0  0  0  0  0  0
  -27.6037  -32.4343   25.7532 C   0  0  0  0  0  0
  -27.5583  -37.1795   24.8468 C   0  0  0  0  0  0
  -21.4231  -29.3049   22.3649 N   0  0  0  0  0  0
  -26.4299  -37.3766   23.9416 N   0  0  0  0  0  0
  -24.7011  -31.0518   22.1000 N   0  0  0  0  0  0
  -23.4216  -28.8125   23.3001 O   0  0  0  0  0  0
  -28.2807  -26.3164   20.2176 O   0  0  0  0  0  0
  -26.5624  -34.8913   22.4672 O   0  0  0  0  0  0
  -23.5494  -32.1384   23.7300 O   0  0  0  0  0  0
  -28.9075  -23.6066   20.1740 C   0  0  0  0  0  0
  -30.0904  -23.2616   19.4325 C   0  0  0  0  0  0
  -28.7153  -22.4433   20.9549 C   0  0  0  0  0  0
  -31.7222  -25.6996   20.2813 C   0  0  0  0  0  0
  -29.6747  -22.7837   16.4435 C   0  0  0  0  0  0
  -32.2810  -23.4558   18.1506 C   0  0  0  0  0  0
  -26.2903  -21.9197   21.3191 C   0  0  0  0  0  0
  -27.4778  -23.4635   22.9326 C   0  0  0  0  0  0
  -27.9031  -21.0668   22.9926 C   0  0  0  0  0  0
  -27.9601  -24.8723   19.9260 C   0  0  0  0  0  0
  -31.1288  -25.5356   18.8685 C   0  0  0  0  0  0
  -30.1170  -24.1334   17.0389 C   0  0  0  0  0  0
  -29.5340  -18.6227   20.5005 C   0  0  0  0  0  0
  -30.0996  -20.0399   21.0402 C   0  0  0  0  0  0
  -30.3993  -17.3077   20.9063 C   0  0  0  0  0  0
  -30.8778  -24.0766   18.3921 C   0  0  0  0  0  0
  -27.6304  -22.2256   22.0141 C   0  0  0  0  0  0
  -30.4458  -21.9860   19.6210 N   0  0  0  0  0  0
  -29.6461  -21.4266   20.5503 N   0  0  0  0  0  0
  -29.8929  -15.8763   20.7161 N   0  0  0  0  0  0
  -31.4714  -12.5751   19.1640 H   0  0  0  0  0  0
  -30.3800  -11.4767   19.9609 H   0  0  0  0  0  0
  -29.7893  -11.7204   17.5236 H   0  0  0  0  0  0
  -29.6253  -13.4489   17.7206 H   0  0  0  0  0  0
  -27.9081  -11.2673   18.9447 H   0  0  0  0  0  0
  -27.3709  -12.4798   17.8121 H   0  0  0  0  0  0
  -27.6357  -14.2450   19.4574 H   0  0  0  0  0  0
  -28.7218  -12.1773   21.4350 H   0  0  0  0  0  0
  -28.4216  -13.8605   21.7873 H   0  0  0  0  0  0
  -25.2753   -9.5688   22.4777 H   0  0  0  0  0  0
  -23.9986   -7.4645   22.7491 H   0  0  0  0  0  0
  -21.0848   -8.8779   19.8946 H   0  0  0  0  0  0
  -22.3701  -10.9679   19.6174 H   0  0  0  0  0  0
  -21.2013   -7.6152   23.9714 H   0  0  0  0  0  0
  -21.1482   -6.0527   25.9077 H   0  0  0  0  0  0
  -22.0598   -2.7610   23.2847 H   0  0  0  0  0  0
  -22.4059  -11.9865   22.4778 H   0  0  0  0  0  0
  -21.1083  -13.1267   22.2626 H   0  0  0  0  0  0
  -24.6556  -15.8461   20.5236 H   0  0  0  0  0  0
  -26.2669  -15.6307   20.0685 H   0  0  0  0  0  0
  -26.7232  -32.5396   23.1091 H   0  0  0  0  0  0
  -25.0065  -33.9670   25.0410 H   0  0  0  0  0  0
  -22.7272  -31.3065   21.4061 H   0  0  0  0  0  0
  -23.3742  -35.9626   23.3302 H   0  0  0  0  0  0
  -24.3556  -36.8921   22.2045 H   0  0  0  0  0  0
  -23.7236  -37.6489   23.6670 H   0  0  0  0  0  0
  -26.1239  -31.5274   20.6185 H   0  0  0  0  0  0
  -26.8551  -30.8068   22.0228 H   0  0  0  0  0  0
  -28.1128  -28.8961   21.2304 H   0  0  0  0  0  0
  -25.9026  -25.9489   18.9459 H   0  0  0  0  0  0
  -23.9636  -27.3455   18.9775 H   0  0  0  0  0  0
  -23.7742  -30.6053   19.4078 H   0  0  0  0  0  0
  -22.7632  -29.2646   19.8543 H   0  0  0  0  0  0
  -25.1296  -36.1921   25.0825 H   0  0  0  0  0  0
  -20.9994  -28.3261   24.1377 H   0  0  0  0  0  0
  -20.5666  -26.2298   23.3606 H   0  0  0  0  0  0
  -21.6650  -26.7411   22.1198 H   0  0  0  0  0  0
  -19.6904  -25.6281   21.1224 H   0  0  0  0  0  0
  -19.6688  -27.3175   20.6723 H   0  0  0  0  0  0
  -17.4215  -26.6681   21.4008 H   0  0  0  0  0  0
  -18.0323  -26.0060   22.9002 H   0  0  0  0  0  0
  -19.7957  -30.7258   24.2232 H   0  0  0  0  0  0
  -17.5040  -31.6243   24.5167 H   0  0  0  0  0  0
  -15.5360  -30.2965   23.7655 H   0  0  0  0  0  0
  -15.8698  -28.0789   22.7079 H   0  0  0  0  0  0
  -24.5946  -30.7014   25.7780 H   0  0  0  0  0  0
  -24.8848  -32.2897   26.4773 H   0  0  0  0  0  0
  -25.8035  -30.8990   27.0276 H   0  0  0  0  0  0
  -26.3028  -29.6695   24.1268 H   0  0  0  0  0  0
  -27.4082  -29.7292   25.4791 H   0  0  0  0  0  0
  -27.8901  -30.4282   23.9548 H   0  0  0  0  0  0
  -27.2624  -33.3671   26.2031 H   0  0  0  0  0  0
  -28.3890  -32.6844   25.0392 H   0  0  0  0  0  0
  -28.0669  -31.8527   26.5516 H   0  0  0  0  0  0
  -28.2586  -38.0101   24.7517 H   0  0  0  0  0  0
  -28.1097  -36.2628   24.6316 H   0  0  0  0  0  0
  -27.2295  -37.1463   25.8866 H   0  0  0  0  0  0
  -20.9403  -29.8791   21.6880 H   0  0  0  0  0  0
  -26.0184  -38.2847   24.1398 H   0  0  0  0  0  0
  -31.8451  -26.7562   20.5218 H   0  0  0  0  0  0
  -32.7042  -25.2347   20.3666 H   0  0  0  0  0  0
  -31.0785  -25.2668   21.0477 H   0  0  0  0  0  0
  -29.1436  -22.9375   15.5038 H   0  0  0  0  0  0
  -29.0014  -22.2455   17.1118 H   0  0  0  0  0  0
  -30.5264  -22.1379   16.2325 H   0  0  0  0  0  0
  -32.8468  -23.3663   19.0776 H   0  0  0  0  0  0
  -32.8754  -24.0545   17.4604 H   0  0  0  0  0  0
  -32.2204  -22.4530   17.7284 H   0  0  0  0  0  0
  -25.9908  -22.7053   20.6281 H   0  0  0  0  0  0
  -25.4817  -21.7971   22.0394 H   0  0  0  0  0  0
  -26.3555  -20.9962   20.7425 H   0  0  0  0  0  0
  -27.1518  -24.3661   22.4266 H   0  0  0  0  0  0
  -28.4218  -23.6985   23.4252 H   0  0  0  0  0  0
  -26.7448  -23.2870   23.7205 H   0  0  0  0  0  0
  -27.9045  -20.0998   22.4949 H   0  0  0  0  0  0
  -27.1292  -20.9995   23.7583 H   0  0  0  0  0  0
  -28.8496  -21.2040   23.5167 H   0  0  0  0  0  0
  -26.9915  -24.6626   20.3690 H   0  0  0  0  0  0
  -27.7481  -24.8612   18.8583 H   0  0  0  0  0  0
  -31.7818  -26.0450   18.1583 H   0  0  0  0  0  0
  -30.2017  -26.0996   18.8233 H   0  0  0  0  0  0
  -29.2246  -24.7481   17.1550 H   0  0  0  0  0  0
  -30.7287  -24.6574   16.3034 H   0  0  0  0  0  0
  -29.4695  -18.6713   19.4135 H   0  0  0  0  0  0
  -28.5085  -18.5042   20.8501 H   0  0  0  0  0  0
  -31.1699  -19.9995   20.8322 H   0  0  0  0  0  0
  -30.0948  -20.0333   22.1256 H   0  0  0  0  0  0
  -30.6294  -17.3916   21.9693 H   0  0  0  0  0  0
  -31.3652  -17.3892   20.4059 H   0  0  0  0  0  0
  -28.9063  -15.7290   20.8679 H   0  0  0  0  0  0
  1 25  1  0  0  0
  1 30  2  0  0  0
  1 90  1  0  0  0
  2  3  1  0  0  0
  2 25  1  0  0  0
  2 91  1  0  0  0
  2 92  1  0  0  0
  3  4  1  0  0  0
  3 93  1  0  0  0
  3 94  1  0  0  0
  4  5  1  0  0  0
  4 95  1  0  0  0
  4 96  1  0  0  0
  5  6  1  0  0  0
  5 26  1  0  0  0
  5 97  1  0  0  0
  6 25  1  0  0  0
  6 98  1  0  0  0
  6 99  1  0  0  0
  7  8  2  0  0  0
  7 26  1  0  0  0
  7 29  1  0  0  0
  8  9  1  0  0  0
  8 22  1  0  0  0
  9 10  1  0  0  0
  9 27  2  0  0  0
 10 11  2  0  0  0
 10 15  1  0  0  0
 11 12  1  0  0  0
 11100  1  0  0  0
 12 13  2  0  0  0
 12101  1  0  0  0
 13 14  1  0  0  0
 13 31  1  0  0  0
 14 15  2  0  0  0
 14102  1  0  0  0
 15103  1  0  0  0
 16 17  2  0  0  0
 16 21  1  0  0  0
 16 31  1  0  0  0
 17 18  1  0  0  0
 17104  1  0  0  0
 18 19  2  0  0  0
 18105  1  0  0  0
 19 20  1  0  0  0
 19 24  1  0  0  0
 20 21  2  0  0  0
 20106  1  0  0  0
 21 23  1  0  0  0
 22 28  1  0  0  0
 22 32  2  0  0  0
 26 27  1  0  0  0
 28107  1  0  0  0
 28108  1  0  0  0
 29109  1  0  0  0
 29110  1  0  0  0
 33 34  1  0  0  0
 33 66  1  0  0  0
 33 70  2  0  0  0
 34 36  1  0  0  0
 34 59  1  0  0  0
 34111  1  0  0  0
 35 44  2  0  0  0
 35 45  1  0  0  0
 35 68  1  0  0  0
 36 56  1  0  0  0
 36112  1  0  0  0
 37 39  1  0  0  0
 37 47  1  0  0  0
 37 66  1  0  0  0
 37113  1  0  0  0
 38 43  2  0  0  0
 38 46  1  0  0  0
 38 47  1  0  0  0
 39 64  1  0  0  0
 39 67  2  0  0  0
 40 52  1  0  0  0
 40 53  2  0  0  0
 40 58  1  0  0  0
 41114  1  0  0  0
 41115  1  0  0  0
 41116  1  0  0  0
 41 48  1  0  0  0
 42 43  1  0  0  0
 42 66  1  0  0  0
 42117  1  0  0  0
 42118  1  0  0  0
 43 44  1  0  0  0
 44119  1  0  0  0
 45 46  2  0  0  0
 45120  1  0  0  0
 46121  1  0  0  0
 47122  1  0  0  0
 47123  1  0  0  0
 48 56  1  0  0  0
 48 65  1  0  0  0
 48124  1  0  0  0
 49 50  1  0  0  0
 49 53  1  0  0  0
 49 64  1  0  0  0
 49125  1  0  0  0
 50 51  1  0  0  0
 50126  1  0  0  0
 50127  1  0  0  0
 51 52  1  0  0  0
 51128  1  0  0  0
 51129  1  0  0  0
 52130  1  0  0  0
 52131  1  0  0  0
 53 54  1  0  0  0
 54 55  2  0  0  0
 54132  1  0  0  0
 55 57  1  0  0  0
 55133  1  0  0  0
 56 69  2  0  0  0
 57 58  2  0  0  0
 57134  1  0  0  0
 58135  1  0  0  0
 59 60  1  0  0  0
 59 61  1  0  0  0
 59 62  1  0  0  0
 60136  1  0  0  0
 60137  1  0  0  0
 60138  1  0  0  0
 61139  1  0  0  0
 61140  1  0  0  0
 61141  1  0  0  0
 62142  1  0  0  0
 62143  1  0  0  0
 62144  1  0  0  0
 63 65  1  0  0  0
 63145  1  0  0  0
 63146  1  0  0  0
 63147  1  0  0  0
 64148  1  0  0  0
 65149  1  0  0  0
 68 80  1  0  0  0
 71 72  1  0  0  0
 71 73  2  0  0  0
 71 80  1  0  0  0
 72 86  1  0  0  0
 72 88  2  0  0  0
 73 87  1  0  0  0
 73 89  1  0  0  0
 74 81  1  0  0  0
 74150  1  0  0  0
 74151  1  0  0  0
 74152  1  0  0  0
 75 82  1  0  0  0
 75153  1  0  0  0
 75154  1  0  0  0
 75155  1  0  0  0
 76156  1  0  0  0
 76157  1  0  0  0
 76158  1  0  0  0
 76 86  1  0  0  0
 77159  1  0  0  0
 77160  1  0  0  0
 77161  1  0  0  0
 77 87  1  0  0  0
 78 87  1  0  0  0
 78162  1  0  0  0
 78163  1  0  0  0
 78164  1  0  0  0
 79 87  1  0  0  0
 79165  1  0  0  0
 79166  1  0  0  0
 79167  1  0  0  0
 80168  1  0  0  0
 80169  1  0  0  0
 81 86  1  0  0  0
 81170  1  0  0  0
 81171  1  0  0  0
 82 86  1  0  0  0
 82172  1  0  0  0
 82173  1  0  0  0
 83 84  1  0  0  0
 83 85  1  0  0  0
 83174  1  0  0  0
 83175  1  0  0  0
 84 89  1  0  0  0
 84176  1  0  0  0
 84177  1  0  0  0
 85 90  1  0  0  0
 85178  1  0  0  0
 85179  1  0  0  0
 88 89  1  0  0  0
 90180  1  0  0  0
M  ISO  4   1 100  68 101  80 101  90 100
M  END
> <chiral flag>
0

> <version>
0

> <s_m_source_file>
/data/baiqing/PycharmProjects/Reinvent-master-3.2/result/LINK_invent/BTK/process_docking_weight1_custom_sum_contain_oxygen_bond_distance_aromatic_linkinvent_7_9_3/rearranged_h_0021.sdf

> <i_m_source_file_index>
60

> <r_mmod_Potential_Energy-OPLS-2005>
231.014465332031

> <r_mmod_Stretch_Energy-OPLS-2005>
135.280654907227

> <r_mmod_Bend_Energy-OPLS-2005>
214.081451416016

> <r_mmod_Torsional_Energy-OPLS-2005>
253.748733520508

> <r_mmod_Improper_Torsional_Energy-OPLS-2005>
7.26234149932861

> <r_mmod_Van_der_Waal_Energy-OPLS-2005>
137.966644287109

> <r_mmod_Electrostatic_Energy-OPLS-2005>
-406.3759765625

> <r_mmod_Solvation_Energy-OPLS-2005>
-201.073837280273

> <b_mmod_Minimization_Converged-OPLS-2005>
0

> <r_mmod_RMS_Derivative-OPLS-2005>
1.72132170200348

$$$$
61
                    3D
 Structure written by MMmdl.
155163  0  0  1  0            999 V2000
  -30.4367  -15.1946   20.3865 C   0  0  0  0  0  0
  -30.4504  -12.7519   19.5396 C   0  0  0  0  0  0
  -29.5499  -12.5887   18.2894 C   0  0  0  0  0  0
  -28.0847  -12.3316   18.6922 C   0  0  0  0  0  0
  -27.6231  -13.2756   19.8331 C   0  0  2  0  0  0
  -28.6554  -13.3860   20.9754 C   0  0  0  0  0  0
  -25.2418  -13.8245   20.5722 C   0  0  0  0  0  0
  -24.1761  -13.0448   20.9253 C   0  0  0  0  0  0
  -24.6406  -11.6941   20.8741 C   0  0  0  0  0  0
  -23.9096  -10.4299   21.0396 C   0  0  0  0  0  0
  -24.3637   -9.4218   21.9188 C   0  0  0  0  0  0
  -23.6309   -8.2249   22.0762 C   0  0  0  0  0  0
  -22.4288   -8.0297   21.3549 C   0  0  0  0  0  0
  -21.9930   -9.0271   20.4651 C   0  0  0  0  0  0
  -22.7257  -10.2149   20.3045 C   0  0  0  0  0  0
  -21.6848   -6.0752   22.5280 C   0  0  0  0  0  0
  -21.4029   -6.5644   23.8219 C   0  0  0  0  0  0
  -21.3669   -5.6792   24.9169 C   0  0  0  0  0  0
  -21.6039   -4.3055   24.7220 C   0  0  0  0  0  0
  -21.8809   -3.8165   23.4337 C   0  0  0  0  0  0
  -21.9183   -4.6980   22.3401 C   0  0  0  0  0  0
  -22.7767  -13.5219   21.1883 C   0  0  0  0  0  0
  -22.1646   -4.2171   21.0973 F   0  0  0  0  0  0
  -21.5626   -3.4524   25.7732 F   0  0  0  0  0  0
  -29.9065  -13.8795   20.3765 N   0  0  0  0  0  0
  -26.2856  -12.9526   20.3195 N   0  0  0  0  0  0
  -25.9345  -11.6630   20.5695 N   0  0  0  0  0  0
  -22.0388  -12.8236   22.0430 N   0  0  0  0  0  0
  -25.4038  -15.1979   20.4160 N   0  0  0  0  0  0
  -31.6365  -15.2531   20.0892 O   0  0  0  0  0  0
  -21.6642   -6.8898   21.4249 O   0  0  0  0  0  0
  -22.3456  -14.5512   20.6698 O   0  0  0  0  0  0
  -24.6605  -31.8256   23.1709 C   0  0  0  0  0  0
  -25.9293  -32.4596   23.8169 C   0  0  1  0  0  0
  -27.2313  -26.9635   20.1792 C   0  0  0  0  0  0
  -25.5963  -33.8408   24.2075 N   0  0  0  0  0  0
  -23.4748  -30.4359   21.5210 C   0  0  2  0  0  0
  -24.9296  -28.8260   20.1118 C   0  0  0  0  0  0
  -22.7659  -29.4446   22.4800 C   0  0  0  0  0  0
  -18.0316  -28.1400   22.8458 C   0  0  0  0  0  0
  -24.1496  -36.7221   23.2651 C   0  0  0  0  0  0
  -26.0421  -30.6426   21.3966 C   0  0  0  0  0  0
  -26.1111  -29.2353   20.7419 C   0  0  0  0  0  0
  -27.2563  -28.3248   20.7495 C   0  0  0  0  0  0
  -26.0189  -26.6937   19.5069 C   0  0  0  0  0  0
  -24.9065  -27.5745   19.4740 C   0  0  0  0  0  0
  -23.7127  -29.7494   20.1476 C   0  0  0  0  0  0
  -25.4130  -36.2976   24.0303 C   0  0  1  0  0  0
  -20.5940  -28.3747   23.1193 C   0  0  2  0  0  0
  -20.6798  -26.9431   22.5408 C   0  0  0  0  0  0
  -19.5769  -26.6371   21.5217 C   0  0  0  0  0  0
  -18.1945  -26.7931   22.1619 C   0  0  0  0  0  0
  -19.1575  -28.8900   23.2803 C   0  0  0  0  0  0
  -18.9487  -30.1491   23.8828 C   0  0  0  0  0  0
  -17.6480  -30.6592   24.0555 C   0  0  0  0  0  0
  -25.9094  -34.9356   23.5014 C   0  0  0  0  0  0
  -16.5371  -29.9078   23.6347 C   0  0  0  0  0  0
  -16.7297  -28.6509   23.0346 C   0  0  0  0  0  0
  -26.4532  -31.6533   25.0698 C   0  0  0  0  0  0
  -25.3665  -31.3793   26.1368 C   0  0  0  0  0  0
  -27.0432  -30.2898   24.6442 C   0  0  0  0  0  0
  -27.6020  -32.4341   25.7500 C   0  0  0  0  0  0
  -27.5564  -37.1769   24.8452 C   0  0  0  0  0  0
  -21.4334  -29.3031   22.3542 N   0  0  0  0  0  0
  -26.4273  -37.3709   23.9394 N   0  0  0  0  0  0
  -24.7471  -30.9948   22.0833 N   0  0  0  0  0  0
  -23.4209  -28.8020   23.3050 O   0  0  0  0  0  0
  -28.2588  -25.8941   20.2499 O   0  0  0  0  0  0
  -26.5708  -34.8887   22.4613 O   0  0  0  0  0  0
  -23.5675  -32.1217   23.6814 O   0  0  0  0  0  0
  -29.9216  -18.8430   19.3135 C   0  0  0  0  0  0
  -29.5891  -18.0016   20.4573 C   0  0  0  0  0  0
  -29.7030  -20.3225   19.2356 C   0  0  0  0  0  0
  -28.9913  -18.9153   21.4295 C   0  0  0  0  0  0
  -29.1130  -21.1502   20.2840 C   0  0  0  0  0  0
  -28.4715  -18.3145   22.7192 C   0  0  0  0  0  0
  -29.3541  -17.5061   17.2393 C   0  0  0  0  0  0
  -30.4740  -18.1134   18.0938 C   0  0  0  0  0  0
  -29.1438  -22.8934   20.3854 C   0  0  0  0  0  0
  -28.0509  -24.2742   20.0986 C   0  0  0  0  0  0
  -28.7998  -20.3245   21.3619 N   0  0  0  0  0  0
  -29.6124  -16.3932   20.6057 N   0  0  0  0  0  0
  -30.1790  -21.1632   17.7980 Cl  0  0  0  0  0  0
  -31.4795  -12.9416   19.2307 H   0  0  0  0  0  0
  -30.4865  -11.8242   20.1118 H   0  0  0  0  0  0
  -29.9184  -11.7823   17.6541 H   0  0  0  0  0  0
  -29.6068  -13.4989   17.6912 H   0  0  0  0  0  0
  -28.0074  -11.2951   19.0193 H   0  0  0  0  0  0
  -27.4308  -12.4291   17.8249 H   0  0  0  0  0  0
  -27.5601  -14.2628   19.3742 H   0  0  0  0  0  0
  -28.7933  -12.4262   21.4747 H   0  0  0  0  0  0
  -28.3095  -14.0826   21.7401 H   0  0  0  0  0  0
  -25.2779   -9.5702   22.4766 H   0  0  0  0  0  0
  -24.0011   -7.4644   22.7488 H   0  0  0  0  0  0
  -21.0847   -8.8802   19.8971 H   0  0  0  0  0  0
  -22.3712  -10.9694   19.6158 H   0  0  0  0  0  0
  -21.2031   -7.6152   23.9732 H   0  0  0  0  0  0
  -21.1501   -6.0517   25.9076 H   0  0  0  0  0  0
  -22.0579   -2.7628   23.2816 H   0  0  0  0  0  0
  -22.3966  -11.9937   22.4928 H   0  0  0  0  0  0
  -21.0996  -13.1294   22.2561 H   0  0  0  0  0  0
  -24.6280  -15.8418   20.5226 H   0  0  0  0  0  0
  -26.2290  -15.6378   20.0320 H   0  0  0  0  0  0
  -26.7374  -32.5137   23.0892 H   0  0  0  0  0  0
  -25.0057  -33.9475   25.0194 H   0  0  0  0  0  0
  -22.7868  -31.2672   21.3506 H   0  0  0  0  0  0
  -23.3766  -35.9543   23.3280 H   0  0  0  0  0  0
  -24.3589  -36.8900   22.2075 H   0  0  0  0  0  0
  -23.7254  -37.6402   23.6729 H   0  0  0  0  0  0
  -26.2203  -31.3851   20.6170 H   0  0  0  0  0  0
  -26.9035  -30.6976   22.0517 H   0  0  0  0  0  0
  -28.1542  -28.6390   21.2621 H   0  0  0  0  0  0
  -25.9038  -25.7359   19.0213 H   0  0  0  0  0  0
  -24.0087  -27.2540   18.9628 H   0  0  0  0  0  0
  -23.8611  -30.5169   19.3876 H   0  0  0  0  0  0
  -22.8241  -29.1995   19.8338 H   0  0  0  0  0  0
  -25.1335  -36.1779   25.0797 H   0  0  0  0  0  0
  -21.0009  -28.3356   24.1324 H   0  0  0  0  0  0
  -20.5700  -26.2357   23.3644 H   0  0  0  0  0  0
  -21.6661  -26.7416   22.1207 H   0  0  0  0  0  0
  -19.6935  -25.6272   21.1279 H   0  0  0  0  0  0
  -19.6713  -27.3162   20.6730 H   0  0  0  0  0  0
  -17.4222  -26.6658   21.4018 H   0  0  0  0  0  0
  -18.0336  -26.0092   22.9034 H   0  0  0  0  0  0
  -19.7964  -30.7328   24.2147 H   0  0  0  0  0  0
  -17.5033  -31.6260   24.5181 H   0  0  0  0  0  0
  -15.5368  -30.2958   23.7718 H   0  0  0  0  0  0
  -15.8690  -28.0825   22.7068 H   0  0  0  0  0  0
  -24.5817  -30.7178   25.7674 H   0  0  0  0  0  0
  -24.8898  -32.3012   26.4711 H   0  0  0  0  0  0
  -25.7902  -30.8994   27.0204 H   0  0  0  0  0  0
  -26.3103  -29.6561   24.1439 H   0  0  0  0  0  0
  -27.3942  -29.7270   25.5104 H   0  0  0  0  0  0
  -27.9047  -30.4060   23.9865 H   0  0  0  0  0  0
  -27.2568  -33.3661   26.1978 H   0  0  0  0  0  0
  -28.3879  -32.6870   25.0374 H   0  0  0  0  0  0
  -28.0636  -31.8546   26.5503 H   0  0  0  0  0  0
  -28.2563  -38.0085   24.7506 H   0  0  0  0  0  0
  -28.1083  -36.2612   24.6273 H   0  0  0  0  0  0
  -27.2280  -37.1407   25.8856 H   0  0  0  0  0  0
  -20.9589  -29.8710   21.6665 H   0  0  0  0  0  0
  -26.0127  -38.2770   24.1400 H   0  0  0  0  0  0
  -29.1832  -17.5868   23.1135 H   0  0  0  0  0  0
  -27.5201  -17.8131   22.5370 H   0  0  0  0  0  0
  -28.3142  -19.0741   23.4877 H   0  0  0  0  0  0
  -29.7583  -17.0267   16.3479 H   0  0  0  0  0  0
  -28.6465  -18.2708   16.9183 H   0  0  0  0  0  0
  -28.7990  -16.7528   17.7986 H   0  0  0  0  0  0
  -31.1491  -17.3240   18.4234 H   0  0  0  0  0  0
  -31.0988  -18.7626   17.4839 H   0  0  0  0  0  0
  -30.0266  -23.1437   19.7983 H   0  0  0  0  0  0
  -29.4826  -23.0495   21.4093 H   0  0  0  0  0  0
  -27.1619  -24.0646   20.6941 H   0  0  0  0  0  0
  -27.7189  -24.1528   19.0674 H   0  0  0  0  0  0
  -28.7358  -16.0729   20.9913 H   0  0  0  0  0  0
  1 25  1  0  0  0
  1 30  2  0  0  0
  1 82  1  0  0  0
  2  3  1  0  0  0
  2 25  1  0  0  0
  2 84  1  0  0  0
  2 85  1  0  0  0
  3  4  1  0  0  0
  3 86  1  0  0  0
  3 87  1  0  0  0
  4  5  1  0  0  0
  4 88  1  0  0  0
  4 89  1  0  0  0
  5  6  1  0  0  0
  5 26  1  0  0  0
  5 90  1  0  0  0
  6 25  1  0  0  0
  6 91  1  0  0  0
  6 92  1  0  0  0
  7  8  2  0  0  0
  7 26  1  0  0  0
  7 29  1  0  0  0
  8  9  1  0  0  0
  8 22  1  0  0  0
  9 10  1  0  0  0
  9 27  2  0  0  0
 10 11  2  0  0  0
 10 15  1  0  0  0
 11 12  1  0  0  0
 11 93  1  0  0  0
 12 13  2  0  0  0
 12 94  1  0  0  0
 13 14  1  0  0  0
 13 31  1  0  0  0
 14 15  2  0  0  0
 14 95  1  0  0  0
 15 96  1  0  0  0
 16 17  2  0  0  0
 16 21  1  0  0  0
 16 31  1  0  0  0
 17 18  1  0  0  0
 17 97  1  0  0  0
 18 19  2  0  0  0
 18 98  1  0  0  0
 19 20  1  0  0  0
 19 24  1  0  0  0
 20 21  2  0  0  0
 20 99  1  0  0  0
 21 23  1  0  0  0
 22 28  1  0  0  0
 22 32  2  0  0  0
 26 27  1  0  0  0
 28100  1  0  0  0
 28101  1  0  0  0
 29102  1  0  0  0
 29103  1  0  0  0
 33 34  1  0  0  0
 33 66  1  0  0  0
 33 70  2  0  0  0
 34 36  1  0  0  0
 34 59  1  0  0  0
 34104  1  0  0  0
 35 44  2  0  0  0
 35 45  1  0  0  0
 35 68  1  0  0  0
 36 56  1  0  0  0
 36105  1  0  0  0
 37 39  1  0  0  0
 37 47  1  0  0  0
 37 66  1  0  0  0
 37106  1  0  0  0
 38 43  2  0  0  0
 38 46  1  0  0  0
 38 47  1  0  0  0
 39 64  1  0  0  0
 39 67  2  0  0  0
 40 52  1  0  0  0
 40 53  2  0  0  0
 40 58  1  0  0  0
 41107  1  0  0  0
 41108  1  0  0  0
 41109  1  0  0  0
 41 48  1  0  0  0
 42 43  1  0  0  0
 42 66  1  0  0  0
 42110  1  0  0  0
 42111  1  0  0  0
 43 44  1  0  0  0
 44112  1  0  0  0
 45 46  2  0  0  0
 45113  1  0  0  0
 46114  1  0  0  0
 47115  1  0  0  0
 47116  1  0  0  0
 48 56  1  0  0  0
 48 65  1  0  0  0
 48117  1  0  0  0
 49 50  1  0  0  0
 49 53  1  0  0  0
 49 64  1  0  0  0
 49118  1  0  0  0
 50 51  1  0  0  0
 50119  1  0  0  0
 50120  1  0  0  0
 51 52  1  0  0  0
 51121  1  0  0  0
 51122  1  0  0  0
 52123  1  0  0  0
 52124  1  0  0  0
 53 54  1  0  0  0
 54 55  2  0  0  0
 54125  1  0  0  0
 55 57  1  0  0  0
 55126  1  0  0  0
 56 69  2  0  0  0
 57 58  2  0  0  0
 57127  1  0  0  0
 58128  1  0  0  0
 59 60  1  0  0  0
 59 61  1  0  0  0
 59 62  1  0  0  0
 60129  1  0  0  0
 60130  1  0  0  0
 60131  1  0  0  0
 61132  1  0  0  0
 61133  1  0  0  0
 61134  1  0  0  0
 62135  1  0  0  0
 62136  1  0  0  0
 62137  1  0  0  0
 63 65  1  0  0  0
 63138  1  0  0  0
 63139  1  0  0  0
 63140  1  0  0  0
 64141  1  0  0  0
 65142  1  0  0  0
 68 80  1  0  0  0
 71 72  2  0  0  0
 71 73  1  0  0  0
 71 78  1  0  0  0
 72 74  1  0  0  0
 72 82  1  0  0  0
 73 75  2  0  0  0
 73 83  1  0  0  0
 74 76  1  0  0  0
 74 81  2  0  0  0
 75 79  1  0  0  0
 75 81  1  0  0  0
 76143  1  0  0  0
 76144  1  0  0  0
 76145  1  0  0  0
 77 78  1  0  0  0
 77146  1  0  0  0
 77147  1  0  0  0
 77148  1  0  0  0
 78149  1  0  0  0
 78150  1  0  0  0
 79 80  1  0  0  0
 79151  1  0  0  0
 79152  1  0  0  0
 80153  1  0  0  0
 80154  1  0  0  0
 82155  1  0  0  0
M  ISO  4   1 100  68 101  80 101  82 100
M  END
> <chiral flag>
0

> <version>
0

> <s_m_source_file>
/data/baiqing/PycharmProjects/Reinvent-master-3.2/result/LINK_invent/BTK/process_docking_weight1_custom_sum_contain_oxygen_bond_distance_aromatic_linkinvent_7_9_3/rearranged_h_0021.sdf

> <i_m_source_file_index>
61

> <r_mmod_Potential_Energy-OPLS-2005>
947.113098144531

> <r_mmod_Stretch_Energy-OPLS-2005>
485.463592529297

> <r_mmod_Bend_Energy-OPLS-2005>
409.251281738281

> <r_mmod_Torsional_Energy-OPLS-2005>
226.716415405273

> <r_mmod_Improper_Torsional_Energy-OPLS-2005>
5.90495729446411

> <r_mmod_Van_der_Waal_Energy-OPLS-2005>
123.845664978027

> <r_mmod_Electrostatic_Energy-OPLS-2005>
-477.678375244141

> <r_mmod_Solvation_Energy-OPLS-2005>
-219.612686157227

> <b_mmod_Minimization_Converged-OPLS-2005>
0

> <r_mmod_RMS_Derivative-OPLS-2005>
2.60048460960388

$$$$
62
                    3D
 Structure written by MMmdl.
153161  0  0  1  0            999 V2000
  -30.4328  -15.1901   20.3864 C   0  0  0  0  0  0
  -30.4494  -12.7538   19.5250 C   0  0  0  0  0  0
  -29.5411  -12.5714   18.2821 C   0  0  0  0  0  0
  -28.0821  -12.3092   18.7007 C   0  0  0  0  0  0
  -27.6208  -13.2654   19.8299 C   0  0  2  0  0  0
  -28.6557  -13.3849   20.9692 C   0  0  0  0  0  0
  -25.2421  -13.8226   20.5693 C   0  0  0  0  0  0
  -24.1762  -13.0432   20.9220 C   0  0  0  0  0  0
  -24.6404  -11.6924   20.8737 C   0  0  0  0  0  0
  -23.9092  -10.4291   21.0397 C   0  0  0  0  0  0
  -24.3637   -9.4209   21.9179 C   0  0  0  0  0  0
  -23.6302   -8.2244   22.0762 C   0  0  0  0  0  0
  -22.4284   -8.0278   21.3546 C   0  0  0  0  0  0
  -21.9918   -9.0257   20.4655 C   0  0  0  0  0  0
  -22.7255  -10.2133   20.3059 C   0  0  0  0  0  0
  -21.6859   -6.0733   22.5272 C   0  0  0  0  0  0
  -21.4015   -6.5636   23.8203 C   0  0  0  0  0  0
  -21.3663   -5.6790   24.9167 C   0  0  0  0  0  0
  -21.6047   -4.3051   24.7213 C   0  0  0  0  0  0
  -21.8817   -3.8141   23.4333 C   0  0  0  0  0  0
  -21.9192   -4.6960   22.3391 C   0  0  0  0  0  0
  -22.7781  -13.5200   21.1863 C   0  0  0  0  0  0
  -22.1660   -4.2146   21.0970 F   0  0  0  0  0  0
  -21.5636   -3.4537   25.7729 F   0  0  0  0  0  0
  -29.9014  -13.8769   20.3610 N   0  0  0  0  0  0
  -26.2850  -12.9486   20.3199 N   0  0  0  0  0  0
  -25.9343  -11.6602   20.5707 N   0  0  0  0  0  0
  -22.0428  -12.8217   22.0433 N   0  0  0  0  0  0
  -25.4044  -15.1958   20.4109 N   0  0  0  0  0  0
  -31.6441  -15.2485   20.1309 O   0  0  0  0  0  0
  -21.6642   -6.8878   21.4238 O   0  0  0  0  0  0
  -22.3466  -14.5489   20.6680 O   0  0  0  0  0  0
  -24.6575  -31.8293   23.1740 C   0  0  0  0  0  0
  -25.9278  -32.4620   23.8198 C   0  0  1  0  0  0
  -27.2233  -26.9825   20.1770 C   0  0  0  0  0  0
  -25.5966  -33.8434   24.2105 N   0  0  0  0  0  0
  -23.4704  -30.4409   21.5232 C   0  0  2  0  0  0
  -24.9235  -28.8366   20.1134 C   0  0  0  0  0  0
  -22.7644  -29.4462   22.4809 C   0  0  0  0  0  0
  -18.0316  -28.1408   22.8470 C   0  0  0  0  0  0
  -24.1499  -36.7220   23.2645 C   0  0  0  0  0  0
  -26.0358  -30.6538   21.3958 C   0  0  0  0  0  0
  -26.1064  -29.2487   20.7401 C   0  0  0  0  0  0
  -27.2529  -28.3424   20.7449 C   0  0  0  0  0  0
  -26.0093  -26.7055   19.5099 C   0  0  0  0  0  0
  -24.8968  -27.5841   19.4795 C   0  0  0  0  0  0
  -23.7070  -29.7577   20.1487 C   0  0  0  0  0  0
  -25.4137  -36.2985   24.0299 C   0  0  1  0  0  0
  -20.5939  -28.3749   23.1207 C   0  0  2  0  0  0
  -20.6800  -26.9438   22.5409 C   0  0  0  0  0  0
  -19.5774  -26.6381   21.5218 C   0  0  0  0  0  0
  -18.1953  -26.7941   22.1622 C   0  0  0  0  0  0
  -19.1577  -28.8901   23.2826 C   0  0  0  0  0  0
  -18.9481  -30.1492   23.8854 C   0  0  0  0  0  0
  -17.6476  -30.6599   24.0557 C   0  0  0  0  0  0
  -25.9095  -34.9368   23.5023 C   0  0  0  0  0  0
  -16.5369  -29.9084   23.6347 C   0  0  0  0  0  0
  -16.7297  -28.6508   23.0357 C   0  0  0  0  0  0
  -26.4546  -31.6545   25.0706 C   0  0  0  0  0  0
  -25.3685  -31.3775   26.1369 C   0  0  0  0  0  0
  -27.0430  -30.2919   24.6397 C   0  0  0  0  0  0
  -27.6051  -32.4340   25.7502 C   0  0  0  0  0  0
  -27.5575  -37.1767   24.8458 C   0  0  0  0  0  0
  -21.4319  -29.3042   22.3561 N   0  0  0  0  0  0
  -26.4284  -37.3717   23.9404 N   0  0  0  0  0  0
  -24.7422  -30.9999   22.0853 N   0  0  0  0  0  0
  -23.4214  -28.8034   23.3034 O   0  0  0  0  0  0
  -28.2526  -25.9214   20.2369 O   0  0  0  0  0  0
  -26.5704  -34.8889   22.4616 O   0  0  0  0  0  0
  -23.5657  -32.1239   23.6863 O   0  0  0  0  0  0
  -29.0331  -20.2737   19.2438 C   0  0  0  0  0  0
  -29.6447  -18.9186   21.5391 C   0  0  0  0  0  0
  -29.1085  -21.2146   20.3548 C   0  0  0  0  0  0
  -29.2322  -18.7977   19.2701 C   0  0  0  0  0  0
  -29.4404  -20.3906   21.5153 C   0  0  0  0  0  0
  -29.5913  -17.9826   20.4269 C   0  0  0  0  0  0
  -29.0233  -18.0540   17.9642 C   0  0  0  0  0  0
  -29.6282  -21.1130   22.8380 C   0  0  0  0  0  0
  -29.1541  -22.9540   20.2777 C   0  0  0  0  0  0
  -28.0165  -24.3082   20.1884 C   0  0  0  0  0  0
  -29.5861  -16.3811   20.5307 N   0  0  0  0  0  0
  -31.4708  -12.9585   19.2027 H   0  0  0  0  0  0
  -30.5051  -11.8321   20.1060 H   0  0  0  0  0  0
  -29.9096  -11.7553   17.6589 H   0  0  0  0  0  0
  -29.5849  -13.4709   17.6665 H   0  0  0  0  0  0
  -28.0192  -11.2770   19.0484 H   0  0  0  0  0  0
  -27.4186  -12.3820   17.8385 H   0  0  0  0  0  0
  -27.5543  -14.2470   19.3596 H   0  0  0  0  0  0
  -28.8012  -12.4299   21.4763 H   0  0  0  0  0  0
  -28.3080  -14.0872   21.7280 H   0  0  0  0  0  0
  -25.2786   -9.5689   22.4748 H   0  0  0  0  0  0
  -24.0011   -7.4645   22.7492 H   0  0  0  0  0  0
  -21.0841   -8.8776   19.8969 H   0  0  0  0  0  0
  -22.3705  -10.9671   19.6167 H   0  0  0  0  0  0
  -21.2014   -7.6145   23.9706 H   0  0  0  0  0  0
  -21.1490   -6.0519   25.9072 H   0  0  0  0  0  0
  -22.0599   -2.7604   23.2824 H   0  0  0  0  0  0
  -22.4050  -11.9910   22.4882 H   0  0  0  0  0  0
  -21.1040  -13.1255   22.2604 H   0  0  0  0  0  0
  -24.6271  -15.8394   20.5149 H   0  0  0  0  0  0
  -26.2359  -15.6378   20.0433 H   0  0  0  0  0  0
  -26.7343  -32.5181   23.0918 H   0  0  0  0  0  0
  -25.0063  -33.9531   25.0218 H   0  0  0  0  0  0
  -22.7807  -31.2708   21.3556 H   0  0  0  0  0  0
  -23.3772  -35.9537   23.3274 H   0  0  0  0  0  0
  -24.3577  -36.8904   22.2065 H   0  0  0  0  0  0
  -23.7244  -37.6398   23.6720 H   0  0  0  0  0  0
  -26.2088  -31.4002   20.6189 H   0  0  0  0  0  0
  -26.8981  -30.7110   22.0483 H   0  0  0  0  0  0
  -28.1528  -28.6568   21.2549 H   0  0  0  0  0  0
  -25.8896  -25.7488   19.0234 H   0  0  0  0  0  0
  -23.9961  -27.2639   18.9737 H   0  0  0  0  0  0
  -23.8562  -30.5264   19.3904 H   0  0  0  0  0  0
  -22.8188  -29.2073   19.8336 H   0  0  0  0  0  0
  -25.1337  -36.1789   25.0789 H   0  0  0  0  0  0
  -21.0020  -28.3349   24.1332 H   0  0  0  0  0  0
  -20.5698  -26.2358   23.3641 H   0  0  0  0  0  0
  -21.6662  -26.7431   22.1205 H   0  0  0  0  0  0
  -19.6938  -25.6277   21.1283 H   0  0  0  0  0  0
  -19.6720  -27.3160   20.6724 H   0  0  0  0  0  0
  -17.4229  -26.6680   21.4023 H   0  0  0  0  0  0
  -18.0346  -26.0097   22.9031 H   0  0  0  0  0  0
  -19.7956  -30.7322   24.2204 H   0  0  0  0  0  0
  -17.5025  -31.6272   24.5162 H   0  0  0  0  0  0
  -15.5365  -30.2966   23.7699 H   0  0  0  0  0  0
  -15.8694  -28.0811   22.7090 H   0  0  0  0  0  0
  -24.5845  -30.7166   25.7654 H   0  0  0  0  0  0
  -24.8901  -32.2974   26.4738 H   0  0  0  0  0  0
  -25.7913  -30.8951   27.0189 H   0  0  0  0  0  0
  -26.3072  -29.6612   24.1394 H   0  0  0  0  0  0
  -27.3969  -29.7270   25.5031 H   0  0  0  0  0  0
  -27.9018  -30.4114   23.9790 H   0  0  0  0  0  0
  -27.2617  -33.3654   26.2015 H   0  0  0  0  0  0
  -28.3887  -32.6885   25.0354 H   0  0  0  0  0  0
  -28.0693  -31.8520   26.5474 H   0  0  0  0  0  0
  -28.2570  -38.0087   24.7517 H   0  0  0  0  0  0
  -28.1099  -36.2614   24.6271 H   0  0  0  0  0  0
  -27.2295  -37.1388   25.8863 H   0  0  0  0  0  0
  -20.9561  -29.8724   21.6690 H   0  0  0  0  0  0
  -26.0139  -38.2780   24.1413 H   0  0  0  0  0  0
  -28.8227  -20.7154   18.2798 H   0  0  0  0  0  0
  -29.8519  -18.4783   22.5040 H   0  0  0  0  0  0
  -28.8828  -18.7342   17.1234 H   0  0  0  0  0  0
  -28.1408  -17.4171   18.0336 H   0  0  0  0  0  0
  -29.8845  -17.4222   17.7456 H   0  0  0  0  0  0
  -29.5703  -20.4289   23.6856 H   0  0  0  0  0  0
  -28.8614  -21.8746   22.9803 H   0  0  0  0  0  0
  -30.6037  -21.5997   22.8653 H   0  0  0  0  0  0
  -29.8077  -23.1214   19.4213 H   0  0  0  0  0  0
  -29.7892  -23.2226   21.1203 H   0  0  0  0  0  0
  -27.2935  -24.1296   20.9842 H   0  0  0  0  0  0
  -27.4592  -24.1393   19.2672 H   0  0  0  0  0  0
  -28.6565  -16.0555   20.7475 H   0  0  0  0  0  0
  1 25  1  0  0  0
  1 30  2  0  0  0
  1 81  1  0  0  0
  2  3  1  0  0  0
  2 25  1  0  0  0
  2 82  1  0  0  0
  2 83  1  0  0  0
  3  4  1  0  0  0
  3 84  1  0  0  0
  3 85  1  0  0  0
  4  5  1  0  0  0
  4 86  1  0  0  0
  4 87  1  0  0  0
  5  6  1  0  0  0
  5 26  1  0  0  0
  5 88  1  0  0  0
  6 25  1  0  0  0
  6 89  1  0  0  0
  6 90  1  0  0  0
  7  8  2  0  0  0
  7 26  1  0  0  0
  7 29  1  0  0  0
  8  9  1  0  0  0
  8 22  1  0  0  0
  9 10  1  0  0  0
  9 27  2  0  0  0
 10 11  2  0  0  0
 10 15  1  0  0  0
 11 12  1  0  0  0
 11 91  1  0  0  0
 12 13  2  0  0  0
 12 92  1  0  0  0
 13 14  1  0  0  0
 13 31  1  0  0  0
 14 15  2  0  0  0
 14 93  1  0  0  0
 15 94  1  0  0  0
 16 17  2  0  0  0
 16 21  1  0  0  0
 16 31  1  0  0  0
 17 18  1  0  0  0
 17 95  1  0  0  0
 18 19  2  0  0  0
 18 96  1  0  0  0
 19 20  1  0  0  0
 19 24  1  0  0  0
 20 21  2  0  0  0
 20 97  1  0  0  0
 21 23  1  0  0  0
 22 28  1  0  0  0
 22 32  2  0  0  0
 26 27  1  0  0  0
 28 98  1  0  0  0
 28 99  1  0  0  0
 29100  1  0  0  0
 29101  1  0  0  0
 33 34  1  0  0  0
 33 66  1  0  0  0
 33 70  2  0  0  0
 34 36  1  0  0  0
 34 59  1  0  0  0
 34102  1  0  0  0
 35 44  2  0  0  0
 35 45  1  0  0  0
 35 68  1  0  0  0
 36 56  1  0  0  0
 36103  1  0  0  0
 37 39  1  0  0  0
 37 47  1  0  0  0
 37 66  1  0  0  0
 37104  1  0  0  0
 38 43  2  0  0  0
 38 46  1  0  0  0
 38 47  1  0  0  0
 39 64  1  0  0  0
 39 67  2  0  0  0
 40 52  1  0  0  0
 40 53  2  0  0  0
 40 58  1  0  0  0
 41105  1  0  0  0
 41106  1  0  0  0
 41107  1  0  0  0
 41 48  1  0  0  0
 42 43  1  0  0  0
 42 66  1  0  0  0
 42108  1  0  0  0
 42109  1  0  0  0
 43 44  1  0  0  0
 44110  1  0  0  0
 45 46  2  0  0  0
 45111  1  0  0  0
 46112  1  0  0  0
 47113  1  0  0  0
 47114  1  0  0  0
 48 56  1  0  0  0
 48 65  1  0  0  0
 48115  1  0  0  0
 49 50  1  0  0  0
 49 53  1  0  0  0
 49 64  1  0  0  0
 49116  1  0  0  0
 50 51  1  0  0  0
 50117  1  0  0  0
 50118  1  0  0  0
 51 52  1  0  0  0
 51119  1  0  0  0
 51120  1  0  0  0
 52121  1  0  0  0
 52122  1  0  0  0
 53 54  1  0  0  0
 54 55  2  0  0  0
 54123  1  0  0  0
 55 57  1  0  0  0
 55124  1  0  0  0
 56 69  2  0  0  0
 57 58  2  0  0  0
 57125  1  0  0  0
 58126  1  0  0  0
 59 60  1  0  0  0
 59 61  1  0  0  0
 59 62  1  0  0  0
 60127  1  0  0  0
 60128  1  0  0  0
 60129  1  0  0  0
 61130  1  0  0  0
 61131  1  0  0  0
 61132  1  0  0  0
 62133  1  0  0  0
 62134  1  0  0  0
 62135  1  0  0  0
 63 65  1  0  0  0
 63136  1  0  0  0
 63137  1  0  0  0
 63138  1  0  0  0
 64139  1  0  0  0
 65140  1  0  0  0
 68 80  1  0  0  0
 71 73  2  0  0  0
 71 74  1  0  0  0
 71141  1  0  0  0
 72 75  2  0  0  0
 72 76  1  0  0  0
 72142  1  0  0  0
 73 75  1  0  0  0
 73 79  1  0  0  0
 74 76  2  0  0  0
 74 77  1  0  0  0
 75 78  1  0  0  0
 76 81  1  0  0  0
 77143  1  0  0  0
 77144  1  0  0  0
 77145  1  0  0  0
 78146  1  0  0  0
 78147  1  0  0  0
 78148  1  0  0  0
 79 80  1  0  0  0
 79149  1  0  0  0
 79150  1  0  0  0
 80151  1  0  0  0
 80152  1  0  0  0
 81153  1  0  0  0
M  ISO  4   1 100  68 101  80 101  81 100
M  END
> <chiral flag>
0

> <version>
0

> <s_m_source_file>
/data/baiqing/PycharmProjects/Reinvent-master-3.2/result/LINK_invent/BTK/process_docking_weight1_custom_sum_contain_oxygen_bond_distance_aromatic_linkinvent_7_9_3/rearranged_h_0021.sdf

> <i_m_source_file_index>
62

> <r_mmod_Potential_Energy-OPLS-2005>
1022.21630859375

> <r_mmod_Stretch_Energy-OPLS-2005>
453.116027832031

> <r_mmod_Bend_Energy-OPLS-2005>
393.631103515625

> <r_mmod_Torsional_Energy-OPLS-2005>
249.855331420898

> <r_mmod_Improper_Torsional_Energy-OPLS-2005>
8.14629745483398

> <r_mmod_Van_der_Waal_Energy-OPLS-2005>
126.317161560059

> <r_mmod_Electrostatic_Energy-OPLS-2005>
-379.470703125

> <r_mmod_Solvation_Energy-OPLS-2005>
-209.341781616211

> <b_mmod_Minimization_Converged-OPLS-2005>
0

> <r_mmod_RMS_Derivative-OPLS-2005>
1.38970375061035

$$$$
63
                    3D
 Structure written by MMmdl.
178186  0  0  1  0            999 V2000
  -30.7629  -14.4643   20.4657 C   0  0  0  0  0  0
  -30.4075  -12.2953   19.4042 C   0  0  0  0  0  0
  -29.4842  -12.5078   18.1875 C   0  0  0  0  0  0
  -27.9974  -12.4064   18.5871 C   0  0  0  0  0  0
  -27.6575  -13.2240   19.8596 C   0  0  2  0  0  0
  -28.7057  -12.9657   20.9554 C   0  0  0  0  0  0
  -25.2577  -13.8219   20.5729 C   0  0  0  0  0  0
  -24.1826  -13.0477   20.9175 C   0  0  0  0  0  0
  -24.6393  -11.6936   20.8741 C   0  0  0  0  0  0
  -23.9070  -10.4308   21.0400 C   0  0  0  0  0  0
  -24.3619   -9.4200   21.9167 C   0  0  0  0  0  0
  -23.6293   -8.2240   22.0738 C   0  0  0  0  0  0
  -22.4281   -8.0270   21.3529 C   0  0  0  0  0  0
  -21.9911   -9.0242   20.4638 C   0  0  0  0  0  0
  -22.7242  -10.2123   20.3047 C   0  0  0  0  0  0
  -21.6833   -6.0733   22.5275 C   0  0  0  0  0  0
  -21.4011   -6.5636   23.8214 C   0  0  0  0  0  0
  -21.3664   -5.6791   24.9172 C   0  0  0  0  0  0
  -21.6047   -4.3051   24.7220 C   0  0  0  0  0  0
  -21.8824   -3.8145   23.4336 C   0  0  0  0  0  0
  -21.9182   -4.6964   22.3394 C   0  0  0  0  0  0
  -22.7831  -13.5215   21.1834 C   0  0  0  0  0  0
  -22.1649   -4.2157   21.0976 F   0  0  0  0  0  0
  -21.5621   -3.4531   25.7729 F   0  0  0  0  0  0
  -30.0371  -13.3030   20.4152 N   0  0  0  0  0  0
  -26.3020  -12.9425   20.3326 N   0  0  0  0  0  0
  -25.9331  -11.6567   20.5753 N   0  0  0  0  0  0
  -22.0487  -12.8236   22.0419 N   0  0  0  0  0  0
  -25.4377  -15.1957   20.4225 N   0  0  0  0  0  0
  -31.9677  -14.4426   20.1971 O   0  0  0  0  0  0
  -21.6621   -6.8875   21.4235 O   0  0  0  0  0  0
  -22.3483  -14.5498   20.6655 O   0  0  0  0  0  0
  -24.6082  -31.8744   23.2112 C   0  0  0  0  0  0
  -25.9002  -32.4862   23.8357 C   0  0  1  0  0  0
  -27.2514  -27.4858   20.1015 C   0  0  0  0  0  0
  -25.5885  -33.8659   24.2358 N   0  0  0  0  0  0
  -23.3932  -30.4994   21.5506 C   0  0  2  0  0  0
  -24.8431  -28.9619   20.1158 C   0  0  0  0  0  0
  -22.7351  -29.4721   22.4986 C   0  0  0  0  0  0
  -18.0281  -28.1340   22.8484 C   0  0  0  0  0  0
  -24.1488  -36.7334   23.2642 C   0  0  0  0  0  0
  -25.9146  -30.8524   21.3629 C   0  0  0  0  0  0
  -25.9948  -29.4904   20.7118 C   0  0  0  0  0  0
  -27.1969  -28.7639   20.7041 C   0  0  0  0  0  0
  -26.0918  -26.9680   19.4919 C   0  0  0  0  0  0
  -24.8825  -27.6946   19.5077 C   0  0  0  0  0  0
  -23.6052  -29.8230   20.1661 C   0  0  0  0  0  0
  -25.4098  -36.3156   24.0351 C   0  0  1  0  0  0
  -20.5853  -28.3624   23.1313 C   0  0  2  0  0  0
  -20.6781  -26.9361   22.5387 C   0  0  0  0  0  0
  -19.5793  -26.6360   21.5172 C   0  0  0  0  0  0
  -18.1976  -26.7871   22.1593 C   0  0  0  0  0  0
  -19.1513  -28.8790   23.2913 C   0  0  0  0  0  0
  -18.9445  -30.1409   23.8924 C   0  0  0  0  0  0
  -17.6440  -30.6531   24.0573 C   0  0  0  0  0  0
  -25.9040  -34.9521   23.5149 C   0  0  0  0  0  0
  -16.5354  -29.9023   23.6324 C   0  0  0  0  0  0
  -16.7256  -28.6451   23.0313 C   0  0  0  0  0  0
  -26.4507  -31.6621   25.0634 C   0  0  0  0  0  0
  -25.3856  -31.3566   26.1405 C   0  0  0  0  0  0
  -27.0413  -30.3094   24.5973 C   0  0  0  0  0  0
  -27.6067  -32.4349   25.7389 C   0  0  0  0  0  0
  -27.5577  -37.1833   24.8468 C   0  0  0  0  0  0
  -21.4064  -29.3055   22.3714 N   0  0  0  0  0  0
  -26.4294  -37.3830   23.9407 N   0  0  0  0  0  0
  -24.6566  -31.0884   22.0999 N   0  0  0  0  0  0
  -23.4152  -28.8316   23.3026 O   0  0  0  0  0  0
  -28.3935  -26.7222   20.0921 O   0  0  0  0  0  0
  -26.5577  -34.8964   22.4698 O   0  0  0  0  0  0
  -23.5283  -32.1481   23.7558 O   0  0  0  0  0  0
  -31.1296  -17.3942   18.7296 C   0  0  0  0  0  0
  -30.6004  -16.7134   19.5986 C   0  0  0  0  0  0
  -28.0504  -17.2545   23.2406 C   0  0  0  0  0  0
  -28.3556  -17.2549   21.8687 C   0  0  0  0  0  0
  -27.3905  -18.3134   23.8734 C   0  0  0  0  0  0
  -27.9266  -18.3688   21.0890 C   0  0  0  0  0  0
  -27.3460  -19.5007   21.7373 C   0  0  0  0  0  0
  -27.0470  -19.4680   23.1282 C   0  0  0  0  0  0
  -29.1565  -16.0589   21.4943 C   0  0  0  0  0  0
  -30.0840  -15.7706   20.5508 C   0  0  0  0  0  0
  -27.1400  -18.1500   25.3665 C   0  0  0  0  0  0
  -27.9922  -18.3592   19.5679 C   0  0  0  0  0  0
  -27.0202  -20.7504   20.9185 C   0  0  0  0  0  0
  -26.3927  -20.6693   23.8186 C   0  0  0  0  0  0
  -28.2996  -24.4162   23.3497 C   0  0  0  0  0  0
  -29.6887  -25.0082   23.0469 C   0  0  0  0  0  0
  -28.1333  -23.8828   24.7895 C   0  0  0  0  0  0
  -29.8352  -25.4424   21.5729 C   0  0  0  0  0  0
  -26.9980  -22.8411   24.8944 C   0  0  0  0  0  0
  -29.1834  -26.8005   21.2772 C   0  0  0  0  0  0
  -27.4519  -21.5362   24.3712 N   0  3  0  0  0  0
  -31.4513  -12.3551   19.0927 H   0  0  0  0  0  0
  -30.2780  -11.2855   19.7975 H   0  0  0  0  0  0
  -29.7048  -11.7834   17.4019 H   0  0  0  0  0  0
  -29.6738  -13.4903   17.7563 H   0  0  0  0  0  0
  -27.7660  -11.3536   18.7452 H   0  0  0  0  0  0
  -27.3606  -12.7363   17.7600 H   0  0  0  0  0  0
  -27.7029  -14.2792   19.5845 H   0  0  0  0  0  0
  -28.6980  -11.9051   21.2107 H   0  0  0  0  0  0
  -28.4498  -13.4327   21.8980 H   0  0  0  0  0  0
  -25.2766   -9.5642   22.4739 H   0  0  0  0  0  0
  -23.9969   -7.4626   22.7463 H   0  0  0  0  0  0
  -21.0834   -8.8786   19.8960 H   0  0  0  0  0  0
  -22.3708  -10.9657   19.6155 H   0  0  0  0  0  0
  -21.2021   -7.6149   23.9720 H   0  0  0  0  0  0
  -21.1477   -6.0515   25.9075 H   0  0  0  0  0  0
  -22.0606   -2.7610   23.2839 H   0  0  0  0  0  0
  -22.4096  -11.9871   22.4809 H   0  0  0  0  0  0
  -21.1101  -13.1281   22.2631 H   0  0  0  0  0  0
  -24.6997  -15.8738   20.5721 H   0  0  0  0  0  0
  -26.3299  -15.6281   20.2216 H   0  0  0  0  0  0
  -26.7022  -32.5623   23.1093 H   0  0  0  0  0  0
  -24.9962  -33.9804   25.0458 H   0  0  0  0  0  0
  -22.6789  -31.3149   21.4126 H   0  0  0  0  0  0
  -23.3753  -35.9673   23.3312 H   0  0  0  0  0  0
  -24.3606  -36.8917   22.2058 H   0  0  0  0  0  0
  -23.7205  -37.6538   23.6638 H   0  0  0  0  0  0
  -26.0310  -31.6238   20.6002 H   0  0  0  0  0  0
  -26.7985  -30.8943   21.9843 H   0  0  0  0  0  0
  -28.0755  -29.1929   21.1641 H   0  0  0  0  0  0
  -26.1295  -25.9986   19.0151 H   0  0  0  0  0  0
  -23.9978  -27.2712   19.0519 H   0  0  0  0  0  0
  -23.7161  -30.6019   19.4111 H   0  0  0  0  0  0
  -22.7327  -29.2340   19.8757 H   0  0  0  0  0  0
  -25.1273  -36.2001   25.0836 H   0  0  0  0  0  0
  -20.9937  -28.3136   24.1460 H   0  0  0  0  0  0
  -20.5684  -26.2201   23.3541 H   0  0  0  0  0  0
  -21.6669  -26.7432   22.1231 H   0  0  0  0  0  0
  -19.6982  -25.6282   21.1222 H   0  0  0  0  0  0
  -19.6810  -27.3175   20.6722 H   0  0  0  0  0  0
  -17.4232  -26.6589   21.4003 H   0  0  0  0  0  0
  -18.0440  -26.0009   22.8998 H   0  0  0  0  0  0
  -19.7927  -30.7224   24.2311 H   0  0  0  0  0  0
  -17.5000  -31.6223   24.5130 H   0  0  0  0  0  0
  -15.5350  -30.2938   23.7651 H   0  0  0  0  0  0
  -15.8663  -28.0807   22.6981 H   0  0  0  0  0  0
  -24.6302  -30.6610   25.7742 H   0  0  0  0  0  0
  -24.8762  -32.2623   26.4762 H   0  0  0  0  0  0
  -25.8328  -30.8910   27.0188 H   0  0  0  0  0  0
  -26.3074  -29.6874   24.0855 H   0  0  0  0  0  0
  -27.4074  -29.7282   25.4433 H   0  0  0  0  0  0
  -27.8922  -30.4463   23.9271 H   0  0  0  0  0  0
  -27.2704  -33.3625   26.2009 H   0  0  0  0  0  0
  -28.3891  -32.6902   25.0231 H   0  0  0  0  0  0
  -28.0697  -31.8387   26.5265 H   0  0  0  0  0  0
  -28.2612  -38.0113   24.7524 H   0  0  0  0  0  0
  -28.1043  -36.2648   24.6310 H   0  0  0  0  0  0
  -27.2310  -37.1513   25.8872 H   0  0  0  0  0  0
  -20.9180  -29.8665   21.6888 H   0  0  0  0  0  0
  -26.0184  -38.2903   24.1404 H   0  0  0  0  0  0
  -31.5836  -17.9384   17.9294 H   0  0  0  0  0  0
  -28.3463  -16.4099   23.8528 H   0  0  0  0  0  0
  -28.9707  -15.2682   22.1852 H   0  0  0  0  0  0
  -26.3818  -17.3859   25.5334 H   0  0  0  0  0  0
  -26.8160  -19.0518   25.8782 H   0  0  0  0  0  0
  -28.0558  -17.8115   25.8584 H   0  0  0  0  0  0
  -27.1175  -18.8326   19.1248 H   0  0  0  0  0  0
  -28.8633  -18.9153   19.2151 H   0  0  0  0  0  0
  -28.0029  -17.3500   19.1611 H   0  0  0  0  0  0
  -27.6227  -20.8386   20.0115 H   0  0  0  0  0  0
  -27.2120  -21.6680   21.4714 H   0  0  0  0  0  0
  -25.9680  -20.7434   20.6366 H   0  0  0  0  0  0
  -25.6995  -20.3560   24.6003 H   0  0  0  0  0  0
  -25.7637  -21.2216   23.1194 H   0  0  0  0  0  0
  -28.1315  -23.6168   22.6336 H   0  0  0  0  0  0
  -27.5188  -25.1525   23.1484 H   0  0  0  0  0  0
  -30.4541  -24.2622   23.2599 H   0  0  0  0  0  0
  -29.8859  -25.8433   23.7142 H   0  0  0  0  0  0
  -27.9309  -24.7259   25.4554 H   0  0  0  0  0  0
  -29.0675  -23.4440   25.1496 H   0  0  0  0  0  0
  -29.4089  -24.6759   20.9251 H   0  0  0  0  0  0
  -30.8949  -25.4952   21.3093 H   0  0  0  0  0  0
  -26.1085  -23.1947   24.3661 H   0  0  0  0  0  0
  -26.7037  -22.7013   25.9360 H   0  0  0  0  0  0
  -29.9480  -27.5716   21.1649 H   0  0  0  0  0  0
  -28.5750  -27.0828   22.1360 H   0  0  0  0  0  0
  -28.1217  -21.6954   23.6391 H   0  0  0  0  0  0
  -27.9396  -21.0368   25.0991 H   0  0  0  0  0  0
  1 25  1  0  0  0
  1 30  2  0  0  0
  1 80  1  0  0  0
  2  3  1  0  0  0
  2 25  1  0  0  0
  2 92  1  0  0  0
  2 93  1  0  0  0
  3  4  1  0  0  0
  3 94  1  0  0  0
  3 95  1  0  0  0
  4  5  1  0  0  0
  4 96  1  0  0  0
  4 97  1  0  0  0
  5  6  1  0  0  0
  5 26  1  0  0  0
  5 98  1  0  0  0
  6 25  1  0  0  0
  6 99  1  0  0  0
  6100  1  0  0  0
  7  8  2  0  0  0
  7 26  1  0  0  0
  7 29  1  0  0  0
  8  9  1  0  0  0
  8 22  1  0  0  0
  9 10  1  0  0  0
  9 27  2  0  0  0
 10 11  2  0  0  0
 10 15  1  0  0  0
 11 12  1  0  0  0
 11101  1  0  0  0
 12 13  2  0  0  0
 12102  1  0  0  0
 13 14  1  0  0  0
 13 31  1  0  0  0
 14 15  2  0  0  0
 14103  1  0  0  0
 15104  1  0  0  0
 16 17  2  0  0  0
 16 21  1  0  0  0
 16 31  1  0  0  0
 17 18  1  0  0  0
 17105  1  0  0  0
 18 19  2  0  0  0
 18106  1  0  0  0
 19 20  1  0  0  0
 19 24  1  0  0  0
 20 21  2  0  0  0
 20107  1  0  0  0
 21 23  1  0  0  0
 22 28  1  0  0  0
 22 32  2  0  0  0
 26 27  1  0  0  0
 28108  1  0  0  0
 28109  1  0  0  0
 29110  1  0  0  0
 29111  1  0  0  0
 33 34  1  0  0  0
 33 66  1  0  0  0
 33 70  2  0  0  0
 34 36  1  0  0  0
 34 59  1  0  0  0
 34112  1  0  0  0
 35 44  2  0  0  0
 35 45  1  0  0  0
 35 68  1  0  0  0
 36 56  1  0  0  0
 36113  1  0  0  0
 37 39  1  0  0  0
 37 47  1  0  0  0
 37 66  1  0  0  0
 37114  1  0  0  0
 38 43  2  0  0  0
 38 46  1  0  0  0
 38 47  1  0  0  0
 39 64  1  0  0  0
 39 67  2  0  0  0
 40 52  1  0  0  0
 40 53  2  0  0  0
 40 58  1  0  0  0
 41115  1  0  0  0
 41116  1  0  0  0
 41117  1  0  0  0
 41 48  1  0  0  0
 42 43  1  0  0  0
 42 66  1  0  0  0
 42118  1  0  0  0
 42119  1  0  0  0
 43 44  1  0  0  0
 44120  1  0  0  0
 45 46  2  0  0  0
 45121  1  0  0  0
 46122  1  0  0  0
 47123  1  0  0  0
 47124  1  0  0  0
 48 56  1  0  0  0
 48 65  1  0  0  0
 48125  1  0  0  0
 49 50  1  0  0  0
 49 53  1  0  0  0
 49 64  1  0  0  0
 49126  1  0  0  0
 50 51  1  0  0  0
 50127  1  0  0  0
 50128  1  0  0  0
 51 52  1  0  0  0
 51129  1  0  0  0
 51130  1  0  0  0
 52131  1  0  0  0
 52132  1  0  0  0
 53 54  1  0  0  0
 54 55  2  0  0  0
 54133  1  0  0  0
 55 57  1  0  0  0
 55134  1  0  0  0
 56 69  2  0  0  0
 57 58  2  0  0  0
 57135  1  0  0  0
 58136  1  0  0  0
 59 60  1  0  0  0
 59 61  1  0  0  0
 59 62  1  0  0  0
 60137  1  0  0  0
 60138  1  0  0  0
 60139  1  0  0  0
 61140  1  0  0  0
 61141  1  0  0  0
 61142  1  0  0  0
 62143  1  0  0  0
 62144  1  0  0  0
 62145  1  0  0  0
 63 65  1  0  0  0
 63146  1  0  0  0
 63147  1  0  0  0
 63148  1  0  0  0
 64149  1  0  0  0
 65150  1  0  0  0
 68 90  1  0  0  0
 71 72  3  0  0  0
 71151  1  0  0  0
 72 80  1  0  0  0
 73 74  2  0  0  0
 73 75  1  0  0  0
 73152  1  0  0  0
 74 76  1  0  0  0
 74 79  1  0  0  0
 75 78  2  0  0  0
 75 81  1  0  0  0
 76 77  2  0  0  0
 76 82  1  0  0  0
 77 78  1  0  0  0
 77 83  1  0  0  0
 78 84  1  0  0  0
 79 80  2  0  0  0
 79153  1  0  0  0
 81154  1  0  0  0
 81155  1  0  0  0
 81156  1  0  0  0
 82157  1  0  0  0
 82158  1  0  0  0
 82159  1  0  0  0
 83160  1  0  0  0
 83161  1  0  0  0
 83162  1  0  0  0
 84 91  1  0  0  0
 84163  1  0  0  0
 84164  1  0  0  0
 85 86  1  0  0  0
 85 87  1  0  0  0
 85165  1  0  0  0
 85166  1  0  0  0
 86 88  1  0  0  0
 86167  1  0  0  0
 86168  1  0  0  0
 87 89  1  0  0  0
 87169  1  0  0  0
 87170  1  0  0  0
 88 90  1  0  0  0
 88171  1  0  0  0
 88172  1  0  0  0
 89 91  1  0  0  0
 89173  1  0  0  0
 89174  1  0  0  0
 90175  1  0  0  0
 90176  1  0  0  0
 91177  1  0  0  0
 91178  1  0  0  0
M  CHG  1  91   1
M  ISO  4   1 100  68 101  80 100  90 101
M  END
> <chiral flag>
0

> <version>
0

> <s_m_source_file>
/data/baiqing/PycharmProjects/Reinvent-master-3.2/result/LINK_invent/BTK/process_docking_weight1_custom_sum_contain_oxygen_bond_distance_aromatic_linkinvent_7_9_3/rearranged_h_0021.sdf

> <i_m_source_file_index>
63

> <r_mmod_Potential_Energy-OPLS-2005>
-18.2217617034912

> <r_mmod_Stretch_Energy-OPLS-2005>
41.6932716369629

> <r_mmod_Bend_Energy-OPLS-2005>
153.424224853516

> <r_mmod_Torsional_Energy-OPLS-2005>
249.482666015625

> <r_mmod_Improper_Torsional_Energy-OPLS-2005>
7.9622917175293

> <r_mmod_Van_der_Waal_Energy-OPLS-2005>
184.375747680664

> <r_mmod_Electrostatic_Energy-OPLS-2005>
-251.798385620117

> <r_mmod_Solvation_Energy-OPLS-2005>
-426.988555908203

> <b_mmod_Minimization_Converged-OPLS-2005>
0

> <r_mmod_RMS_Derivative-OPLS-2005>
7.49529266357422

$$$$
64
                    3D
 Structure written by MMmdl.
157165  0  0  1  0            999 V2000
  -30.6809  -14.5320   20.5599 C   0  0  0  0  0  0
  -30.4256  -12.3422   19.4335 C   0  0  0  0  0  0
  -29.4977  -12.5054   18.2122 C   0  0  0  0  0  0
  -28.0197  -12.3590   18.6249 C   0  0  0  0  0  0
  -27.6569  -13.2134   19.8693 C   0  0  2  0  0  0
  -28.6986  -13.0282   20.9949 C   0  0  0  0  0  0
  -25.2576  -13.8177   20.5685 C   0  0  0  0  0  0
  -24.1835  -13.0445   20.9186 C   0  0  0  0  0  0
  -24.6400  -11.6915   20.8742 C   0  0  0  0  0  0
  -23.9073  -10.4296   21.0411 C   0  0  0  0  0  0
  -24.3621   -9.4212   21.9190 C   0  0  0  0  0  0
  -23.6295   -8.2246   22.0756 C   0  0  0  0  0  0
  -22.4279   -8.0287   21.3543 C   0  0  0  0  0  0
  -21.9916   -9.0262   20.4645 C   0  0  0  0  0  0
  -22.7247  -10.2141   20.3056 C   0  0  0  0  0  0
  -21.6852   -6.0744   22.5283 C   0  0  0  0  0  0
  -21.4011   -6.5646   23.8216 C   0  0  0  0  0  0
  -21.3655   -5.6799   24.9178 C   0  0  0  0  0  0
  -21.6040   -4.3059   24.7223 C   0  0  0  0  0  0
  -21.8820   -3.8156   23.4344 C   0  0  0  0  0  0
  -21.9193   -4.6975   22.3401 C   0  0  0  0  0  0
  -22.7856  -13.5240   21.1852 C   0  0  0  0  0  0
  -22.1661   -4.2164   21.0980 F   0  0  0  0  0  0
  -21.5623   -3.4537   25.7734 F   0  0  0  0  0  0
  -30.0216  -13.3448   20.4347 N   0  0  0  0  0  0
  -26.3006  -12.9355   20.3343 N   0  0  0  0  0  0
  -25.9328  -11.6513   20.5765 N   0  0  0  0  0  0
  -22.0491  -12.8228   22.0400 N   0  0  0  0  0  0
  -25.4298  -15.1895   20.4095 N   0  0  0  0  0  0
  -31.8168  -14.7009   20.1080 O   0  0  0  0  0  0
  -21.6636   -6.8887   21.4245 O   0  0  0  0  0  0
  -22.3547  -14.5555   20.6713 O   0  0  0  0  0  0
  -24.6208  -31.8636   23.2078 C   0  0  0  0  0  0
  -25.9087  -32.4789   23.8379 C   0  0  1  0  0  0
  -27.2259  -27.3798   20.0978 C   0  0  0  0  0  0
  -25.5930  -33.8592   24.2312 N   0  0  0  0  0  0
  -23.4098  -30.4894   21.5495 C   0  0  2  0  0  0
  -24.8534  -28.9525   20.1111 C   0  0  0  0  0  0
  -22.7437  -29.4650   22.4974 C   0  0  0  0  0  0
  -18.0274  -28.1376   22.8489 C   0  0  0  0  0  0
  -24.1481  -36.7295   23.2638 C   0  0  0  0  0  0
  -25.9452  -30.8119   21.3689 C   0  0  0  0  0  0
  -26.0184  -29.4442   20.7124 C   0  0  0  0  0  0
  -27.2060  -28.6665   20.7014 C   0  0  0  0  0  0
  -26.0383  -26.9262   19.4752 C   0  0  0  0  0  0
  -24.8617  -27.6956   19.4871 C   0  0  0  0  0  0
  -23.6183  -29.8247   20.1636 C   0  0  0  0  0  0
  -25.4101  -36.3086   24.0336 C   0  0  1  0  0  0
  -20.5870  -28.3669   23.1299 C   0  0  2  0  0  0
  -20.6762  -26.9398   22.5413 C   0  0  0  0  0  0
  -19.5741  -26.6377   21.5210 C   0  0  0  0  0  0
  -18.1917  -26.7922   22.1616 C   0  0  0  0  0  0
  -19.1527  -28.8839   23.2890 C   0  0  0  0  0  0
  -18.9457  -30.1447   23.8896 C   0  0  0  0  0  0
  -17.6459  -30.6582   24.0566 C   0  0  0  0  0  0
  -25.9044  -34.9458   23.5118 C   0  0  0  0  0  0
  -16.5346  -29.9082   23.6337 C   0  0  0  0  0  0
  -16.7261  -28.6499   23.0355 C   0  0  0  0  0  0
  -26.4496  -31.6581   25.0728 C   0  0  0  0  0  0
  -25.3755  -31.3692   26.1473 C   0  0  0  0  0  0
  -27.0340  -30.3018   24.6141 C   0  0  0  0  0  0
  -27.6067  -32.4305   25.7493 C   0  0  0  0  0  0
  -27.5573  -37.1796   24.8465 C   0  0  0  0  0  0
  -21.4161  -29.3034   22.3707 N   0  0  0  0  0  0
  -26.4277  -37.3785   23.9418 N   0  0  0  0  0  0
  -24.6774  -31.0701   22.0995 N   0  0  0  0  0  0
  -23.4184  -28.8193   23.3037 O   0  0  0  0  0  0
  -28.3762  -26.5954   20.1413 O   0  0  0  0  0  0
  -26.5604  -34.8918   22.4679 O   0  0  0  0  0  0
  -23.5392  -32.1404   23.7449 O   0  0  0  0  0  0
  -31.9386  -18.5784   22.2186 C   0  0  0  0  0  0
  -30.4034  -16.9301   21.2371 C   0  0  0  0  0  0
  -30.1119  -19.3670   20.7548 C   0  0  0  0  0  0
  -29.7074  -18.0042   20.6103 C   0  0  0  0  0  0
  -31.4882  -17.2380   22.0963 C   0  0  0  0  0  0
  -31.2847  -19.6256   21.5197 C   0  0  0  0  0  0
  -33.1470  -18.9227   23.0875 C   0  0  0  0  0  0
  -29.4476  -24.2990   20.3187 C   0  0  0  0  0  0
  -29.5434  -22.8367   19.7476 C   0  0  0  0  0  0
  -28.2569  -25.1784   19.8266 C   0  0  0  0  0  0
  -29.0884  -21.6445   20.6527 C   0  0  0  0  0  0
  -29.9596  -15.5679   21.0551 N   0  0  0  0  0  0
  -29.3951  -20.3522   20.0629 O   0  0  0  0  0  0
  -28.6269  -17.7160   19.8416 F   0  0  0  0  0  0
  -32.2408  -15.9804   23.0297 Cl  0  0  0  0  0  0
  -32.0062  -21.2046   21.5625 Cl  0  0  0  0  0  0
  -31.4694  -12.4497   19.1329 H   0  0  0  0  0  0
  -30.3403  -11.3381   19.8511 H   0  0  0  0  0  0
  -29.7458  -11.7671   17.4484 H   0  0  0  0  0  0
  -29.6577  -13.4835   17.7559 H   0  0  0  0  0  0
  -27.8387  -11.3044   18.8340 H   0  0  0  0  0  0
  -27.3682  -12.6166   17.7891 H   0  0  0  0  0  0
  -27.6897  -14.2565   19.5531 H   0  0  0  0  0  0
  -28.6875  -12.0005   21.3597 H   0  0  0  0  0  0
  -28.4544  -13.6482   21.8591 H   0  0  0  0  0  0
  -25.2766   -9.5681   22.4770 H   0  0  0  0  0  0
  -23.9998   -7.4635   22.7475 H   0  0  0  0  0  0
  -21.0847   -8.8785   19.8951 H   0  0  0  0  0  0
  -22.3712  -10.9682   19.6162 H   0  0  0  0  0  0
  -21.2000   -7.6156   23.9726 H   0  0  0  0  0  0
  -21.1471   -6.0524   25.9080 H   0  0  0  0  0  0
  -22.0602   -2.7619   23.2837 H   0  0  0  0  0  0
  -22.4089  -11.9868   22.4764 H   0  0  0  0  0  0
  -21.1118  -13.1269   22.2621 H   0  0  0  0  0  0
  -24.6608  -15.8425   20.5142 H   0  0  0  0  0  0
  -26.2782  -15.6315   20.0781 H   0  0  0  0  0  0
  -26.7155  -32.5476   23.1133 H   0  0  0  0  0  0
  -25.0113  -33.9739   25.0480 H   0  0  0  0  0  0
  -22.7023  -31.3094   21.4104 H   0  0  0  0  0  0
  -23.3748  -35.9624   23.3292 H   0  0  0  0  0  0
  -24.3578  -36.8920   22.2057 H   0  0  0  0  0  0
  -23.7221  -37.6490   23.6662 H   0  0  0  0  0  0
  -26.0689  -31.5766   20.6009 H   0  0  0  0  0  0
  -26.8296  -30.8596   21.9930 H   0  0  0  0  0  0
  -28.1026  -29.0408   21.1754 H   0  0  0  0  0  0
  -25.9901  -25.9712   18.9737 H   0  0  0  0  0  0
  -23.9687  -27.3138   19.0110 H   0  0  0  0  0  0
  -23.7284  -30.6005   19.4052 H   0  0  0  0  0  0
  -22.7399  -29.2487   19.8666 H   0  0  0  0  0  0
  -25.1275  -36.1945   25.0829 H   0  0  0  0  0  0
  -20.9956  -28.3226   24.1421 H   0  0  0  0  0  0
  -20.5653  -26.2277   23.3607 H   0  0  0  0  0  0
  -21.6628  -26.7423   22.1208 H   0  0  0  0  0  0
  -19.6902  -25.6289   21.1232 H   0  0  0  0  0  0
  -19.6679  -27.3195   20.6749 H   0  0  0  0  0  0
  -17.4189  -26.6683   21.4016 H   0  0  0  0  0  0
  -18.0306  -26.0050   22.8997 H   0  0  0  0  0  0
  -19.7936  -30.7269   24.2248 H   0  0  0  0  0  0
  -17.5014  -31.6264   24.5163 H   0  0  0  0  0  0
  -15.5346  -30.2987   23.7668 H   0  0  0  0  0  0
  -15.8658  -28.0824   22.7069 H   0  0  0  0  0  0
  -24.5963  -30.6987   25.7830 H   0  0  0  0  0  0
  -24.8901  -32.2837   26.4891 H   0  0  0  0  0  0
  -25.8113  -30.8910   27.0250 H   0  0  0  0  0  0
  -26.2901  -29.6763   24.1193 H   0  0  0  0  0  0
  -27.4095  -29.7277   25.4620 H   0  0  0  0  0  0
  -27.8742  -30.4325   23.9316 H   0  0  0  0  0  0
  -27.2693  -33.3616   26.2056 H   0  0  0  0  0  0
  -28.3891  -32.6832   25.0326 H   0  0  0  0  0  0
  -28.0715  -31.8428   26.5418 H   0  0  0  0  0  0
  -28.2582  -38.0107   24.7529 H   0  0  0  0  0  0
  -28.1075  -36.2634   24.6260 H   0  0  0  0  0  0
  -27.2297  -37.1407   25.8872 H   0  0  0  0  0  0
  -20.9332  -29.8762   21.6928 H   0  0  0  0  0  0
  -26.0160  -38.2853   24.1442 H   0  0  0  0  0  0
  -33.5029  -18.1046   23.7092 H   0  0  0  0  0  0
  -32.9031  -19.7407   23.7660 H   0  0  0  0  0  0
  -33.9800  -19.2408   22.4606 H   0  0  0  0  0  0
  -30.3605  -24.8187   20.0248 H   0  0  0  0  0  0
  -29.4712  -24.2787   21.4088 H   0  0  0  0  0  0
  -30.5904  -22.6600   19.5011 H   0  0  0  0  0  0
  -29.0240  -22.7836   18.7902 H   0  0  0  0  0  0
  -27.3494  -24.7616   20.2664 H   0  0  0  0  0  0
  -28.1657  -25.0843   18.7433 H   0  0  0  0  0  0
  -28.0049  -21.6959   20.7649 H   0  0  0  0  0  0
  -29.4689  -21.7456   21.6676 H   0  0  0  0  0  0
  -28.9808  -15.3899   21.2130 H   0  0  0  0  0  0
  1 25  1  0  0  0
  1 30  2  0  0  0
  1 82  1  0  0  0
  2  3  1  0  0  0
  2 25  1  0  0  0
  2 87  1  0  0  0
  2 88  1  0  0  0
  3  4  1  0  0  0
  3 89  1  0  0  0
  3 90  1  0  0  0
  4  5  1  0  0  0
  4 91  1  0  0  0
  4 92  1  0  0  0
  5  6  1  0  0  0
  5 26  1  0  0  0
  5 93  1  0  0  0
  6 25  1  0  0  0
  6 94  1  0  0  0
  6 95  1  0  0  0
  7  8  2  0  0  0
  7 26  1  0  0  0
  7 29  1  0  0  0
  8  9  1  0  0  0
  8 22  1  0  0  0
  9 10  1  0  0  0
  9 27  2  0  0  0
 10 11  2  0  0  0
 10 15  1  0  0  0
 11 12  1  0  0  0
 11 96  1  0  0  0
 12 13  2  0  0  0
 12 97  1  0  0  0
 13 14  1  0  0  0
 13 31  1  0  0  0
 14 15  2  0  0  0
 14 98  1  0  0  0
 15 99  1  0  0  0
 16 17  2  0  0  0
 16 21  1  0  0  0
 16 31  1  0  0  0
 17 18  1  0  0  0
 17100  1  0  0  0
 18 19  2  0  0  0
 18101  1  0  0  0
 19 20  1  0  0  0
 19 24  1  0  0  0
 20 21  2  0  0  0
 20102  1  0  0  0
 21 23  1  0  0  0
 22 28  1  0  0  0
 22 32  2  0  0  0
 26 27  1  0  0  0
 28103  1  0  0  0
 28104  1  0  0  0
 29105  1  0  0  0
 29106  1  0  0  0
 33 34  1  0  0  0
 33 66  1  0  0  0
 33 70  2  0  0  0
 34 36  1  0  0  0
 34 59  1  0  0  0
 34107  1  0  0  0
 35 44  2  0  0  0
 35 45  1  0  0  0
 35 68  1  0  0  0
 36 56  1  0  0  0
 36108  1  0  0  0
 37 39  1  0  0  0
 37 47  1  0  0  0
 37 66  1  0  0  0
 37109  1  0  0  0
 38 43  2  0  0  0
 38 46  1  0  0  0
 38 47  1  0  0  0
 39 64  1  0  0  0
 39 67  2  0  0  0
 40 52  1  0  0  0
 40 53  2  0  0  0
 40 58  1  0  0  0
 41110  1  0  0  0
 41111  1  0  0  0
 41112  1  0  0  0
 41 48  1  0  0  0
 42 43  1  0  0  0
 42 66  1  0  0  0
 42113  1  0  0  0
 42114  1  0  0  0
 43 44  1  0  0  0
 44115  1  0  0  0
 45 46  2  0  0  0
 45116  1  0  0  0
 46117  1  0  0  0
 47118  1  0  0  0
 47119  1  0  0  0
 48 56  1  0  0  0
 48 65  1  0  0  0
 48120  1  0  0  0
 49 50  1  0  0  0
 49 53  1  0  0  0
 49 64  1  0  0  0
 49121  1  0  0  0
 50 51  1  0  0  0
 50122  1  0  0  0
 50123  1  0  0  0
 51 52  1  0  0  0
 51124  1  0  0  0
 51125  1  0  0  0
 52126  1  0  0  0
 52127  1  0  0  0
 53 54  1  0  0  0
 54 55  2  0  0  0
 54128  1  0  0  0
 55 57  1  0  0  0
 55129  1  0  0  0
 56 69  2  0  0  0
 57 58  2  0  0  0
 57130  1  0  0  0
 58131  1  0  0  0
 59 60  1  0  0  0
 59 61  1  0  0  0
 59 62  1  0  0  0
 60132  1  0  0  0
 60133  1  0  0  0
 60134  1  0  0  0
 61135  1  0  0  0
 61136  1  0  0  0
 61137  1  0  0  0
 62138  1  0  0  0
 62139  1  0  0  0
 62140  1  0  0  0
 63 65  1  0  0  0
 63141  1  0  0  0
 63142  1  0  0  0
 63143  1  0  0  0
 64144  1  0  0  0
 65145  1  0  0  0
 68 80  1  0  0  0
 71 75  2  0  0  0
 71 76  1  0  0  0
 71 77  1  0  0  0
 72 74  2  0  0  0
 72 75  1  0  0  0
 72 82  1  0  0  0
 73 74  1  0  0  0
 73 76  2  0  0  0
 73 83  1  0  0  0
 74 84  1  0  0  0
 75 85  1  0  0  0
 76 86  1  0  0  0
 77146  1  0  0  0
 77147  1  0  0  0
 77148  1  0  0  0
 78 79  1  0  0  0
 78 80  1  0  0  0
 78149  1  0  0  0
 78150  1  0  0  0
 79 81  1  0  0  0
 79151  1  0  0  0
 79152  1  0  0  0
 80153  1  0  0  0
 80154  1  0  0  0
 81 83  1  0  0  0
 81155  1  0  0  0
 81156  1  0  0  0
 82157  1  0  0  0
M  ISO  4   1 100  68 101  80 101  82 100
M  END
> <chiral flag>
0

> <version>
0

> <s_m_source_file>
/data/baiqing/PycharmProjects/Reinvent-master-3.2/result/LINK_invent/BTK/process_docking_weight1_custom_sum_contain_oxygen_bond_distance_aromatic_linkinvent_7_9_3/rearranged_h_0021.sdf

> <i_m_source_file_index>
64

> <r_mmod_Potential_Energy-OPLS-2005>
-10.0773878097534

> <r_mmod_Stretch_Energy-OPLS-2005>
55.3681488037109

> <r_mmod_Bend_Energy-OPLS-2005>
116.870246887207

> <r_mmod_Torsional_Energy-OPLS-2005>
249.481460571289

> <r_mmod_Improper_Torsional_Energy-OPLS-2005>
4.17589139938354

> <r_mmod_Van_der_Waal_Energy-OPLS-2005>
165.353988647461

> <r_mmod_Electrostatic_Energy-OPLS-2005>
-424.772674560547

> <r_mmod_Solvation_Energy-OPLS-2005>
-199.65950012207

> <b_mmod_Minimization_Converged-OPLS-2005>
0

> <r_mmod_RMS_Derivative-OPLS-2005>
1.01312780380249

$$$$
65
                    3D
 Structure written by MMmdl.
169178  0  0  1  0            999 V2000
  -30.6501  -14.6935   20.4714 C   0  0  0  0  0  0
  -30.4215  -12.4266   19.4690 C   0  0  0  0  0  0
  -29.5022  -12.4978   18.2314 C   0  0  0  0  0  0
  -28.0282  -12.3322   18.6466 C   0  0  0  0  0  0
  -27.6404  -13.2318   19.8508 C   0  0  2  0  0  0
  -28.6852  -13.1616   20.9859 C   0  0  0  0  0  0
  -25.2493  -13.8190   20.5691 C   0  0  0  0  0  0
  -24.1794  -13.0437   20.9223 C   0  0  0  0  0  0
  -24.6392  -11.6917   20.8768 C   0  0  0  0  0  0
  -23.9072  -10.4291   21.0419 C   0  0  0  0  0  0
  -24.3623   -9.4204   21.9192 C   0  0  0  0  0  0
  -23.6296   -8.2240   22.0756 C   0  0  0  0  0  0
  -22.4280   -8.0281   21.3545 C   0  0  0  0  0  0
  -21.9918   -9.0256   20.4648 C   0  0  0  0  0  0
  -22.7248  -10.2133   20.3062 C   0  0  0  0  0  0
  -21.6851   -6.0737   22.5280 C   0  0  0  0  0  0
  -21.4013   -6.5642   23.8214 C   0  0  0  0  0  0
  -21.3657   -5.6795   24.9175 C   0  0  0  0  0  0
  -21.6042   -4.3056   24.7224 C   0  0  0  0  0  0
  -21.8819   -3.8149   23.4345 C   0  0  0  0  0  0
  -21.9194   -4.6967   22.3402 C   0  0  0  0  0  0
  -22.7815  -13.5217   21.1870 C   0  0  0  0  0  0
  -22.1661   -4.2153   21.0979 F   0  0  0  0  0  0
  -21.5627   -3.4541   25.7736 F   0  0  0  0  0  0
  -29.9889  -13.4914   20.4015 N   0  0  0  0  0  0
  -26.2927  -12.9407   20.3292 N   0  0  0  0  0  0
  -25.9323  -11.6547   20.5776 N   0  0  0  0  0  0
  -22.0465  -12.8207   22.0428 N   0  0  0  0  0  0
  -25.4155  -15.1901   20.4040 N   0  0  0  0  0  0
  -31.8399  -14.7569   20.1535 O   0  0  0  0  0  0
  -21.6640   -6.8881   21.4242 O   0  0  0  0  0  0
  -22.3501  -14.5523   20.6716 O   0  0  0  0  0  0
  -24.6279  -31.8572   23.1992 C   0  0  0  0  0  0
  -25.9116  -32.4767   23.8336 C   0  0  1  0  0  0
  -27.2183  -27.2927   20.1357 C   0  0  0  0  0  0
  -25.5926  -33.8569   24.2262 N   0  0  0  0  0  0
  -23.4235  -30.4788   21.5419 C   0  0  2  0  0  0
  -24.8707  -28.9261   20.1130 C   0  0  0  0  0  0
  -22.7489  -29.4605   22.4919 C   0  0  0  0  0  0
  -18.0290  -28.1382   22.8484 C   0  0  0  0  0  0
  -24.1488  -36.7280   23.2643 C   0  0  0  0  0  0
  -25.9658  -30.7811   21.3732 C   0  0  0  0  0  0
  -26.0404  -29.4045   20.7187 C   0  0  0  0  0  0
  -27.2219  -28.6016   20.7147 C   0  0  0  0  0  0
  -26.0311  -26.8686   19.5059 C   0  0  0  0  0  0
  -24.8691  -27.6645   19.4952 C   0  0  0  0  0  0
  -23.6404  -29.8107   20.1585 C   0  0  0  0  0  0
  -25.4114  -36.3072   24.0329 C   0  0  1  0  0  0
  -20.5890  -28.3688   23.1277 C   0  0  2  0  0  0
  -20.6779  -26.9409   22.5407 C   0  0  0  0  0  0
  -19.5756  -26.6377   21.5210 C   0  0  0  0  0  0
  -18.1935  -26.7924   22.1622 C   0  0  0  0  0  0
  -19.1543  -28.8852   23.2877 C   0  0  0  0  0  0
  -18.9470  -30.1458   23.8891 C   0  0  0  0  0  0
  -17.6471  -30.6585   24.0564 C   0  0  0  0  0  0
  -25.9053  -34.9447   23.5094 C   0  0  0  0  0  0
  -16.5362  -29.9083   23.6334 C   0  0  0  0  0  0
  -16.7279  -28.6503   23.0349 C   0  0  0  0  0  0
  -26.4492  -31.6585   25.0714 C   0  0  0  0  0  0
  -25.3721  -31.3733   26.1441 C   0  0  0  0  0  0
  -27.0346  -30.3011   24.6171 C   0  0  0  0  0  0
  -27.6049  -32.4326   25.7486 C   0  0  0  0  0  0
  -27.5577  -37.1795   24.8468 C   0  0  0  0  0  0
  -21.4198  -29.3042   22.3670 N   0  0  0  0  0  0
  -26.4288  -37.3771   23.9413 N   0  0  0  0  0  0
  -24.6915  -31.0569   22.0948 N   0  0  0  0  0  0
  -23.4206  -28.8153   23.3010 O   0  0  0  0  0  0
  -28.3160  -26.4168   20.1451 O   0  0  0  0  0  0
  -26.5625  -34.8923   22.4664 O   0  0  0  0  0  0
  -23.5434  -32.1380   23.7302 O   0  0  0  0  0  0
  -28.3380  -20.5570   20.5334 C   0  0  0  0  0  0
  -28.4921  -19.0854   20.5970 C   0  0  0  0  0  0
  -29.5327  -21.2234   20.5736 C   0  0  0  0  0  0
  -29.8144  -18.6381   20.5848 C   0  0  0  0  0  0
  -29.7161  -22.7531   20.6654 C   0  0  0  0  0  0
  -27.3732  -22.7791   19.6468 C   0  0  0  0  0  0
  -27.0949  -21.4615   20.4776 C   0  0  0  0  0  0
  -28.6078  -23.7015   19.9976 C   0  0  2  0  0  0
  -27.3445  -18.1228   20.6841 C   0  0  0  0  0  0
  -25.8931  -20.7724   19.7968 C   0  0  0  0  0  0
  -26.6720  -21.8382   21.9101 C   0  0  0  0  0  0
  -29.2073  -24.1884   18.6598 C   0  0  0  0  0  0
  -28.7788  -25.2522   22.1640 C   0  0  0  0  0  0
  -30.5581  -17.2451   20.5810 C   0  0  0  0  0  0
  -28.1479  -25.0709   20.7758 C   0  0  1  0  0  0
  -29.9400  -15.8612   20.6834 N   0  0  0  0  0  0
  -30.8577  -20.0696   20.5577 S   0  0  0  0  0  0
  -31.4645  -12.5318   19.1657 H   0  0  0  0  0  0
  -30.3489  -11.4494   19.9498 H   0  0  0  0  0  0
  -29.7759  -11.7248   17.5121 H   0  0  0  0  0  0
  -29.6371  -13.4534   17.7221 H   0  0  0  0  0  0
  -27.8789  -11.2840   18.9071 H   0  0  0  0  0  0
  -27.3705  -12.5302   17.7997 H   0  0  0  0  0  0
  -27.6377  -14.2546   19.4735 H   0  0  0  0  0  0
  -28.7102  -12.1665   21.4326 H   0  0  0  0  0  0
  -28.4309  -13.8534   21.7905 H   0  0  0  0  0  0
  -25.2767   -9.5676   22.4770 H   0  0  0  0  0  0
  -24.0003   -7.4628   22.7475 H   0  0  0  0  0  0
  -21.0850   -8.8777   19.8952 H   0  0  0  0  0  0
  -22.3711  -10.9676   19.6174 H   0  0  0  0  0  0
  -21.2006   -7.6150   23.9719 H   0  0  0  0  0  0
  -21.1476   -6.0524   25.9077 H   0  0  0  0  0  0
  -22.0601   -2.7614   23.2845 H   0  0  0  0  0  0
  -22.4084  -11.9868   22.4811 H   0  0  0  0  0  0
  -21.1081  -13.1227   22.2637 H   0  0  0  0  0  0
  -24.6383  -15.8351   20.4946 H   0  0  0  0  0  0
  -26.2419  -15.6160   20.0078 H   0  0  0  0  0  0
  -26.7182  -32.5428   23.1084 H   0  0  0  0  0  0
  -25.0093  -33.9715   25.0419 H   0  0  0  0  0  0
  -22.7183  -31.2994   21.3959 H   0  0  0  0  0  0
  -23.3755  -35.9608   23.3304 H   0  0  0  0  0  0
  -24.3576  -36.8894   22.2056 H   0  0  0  0  0  0
  -23.7235  -37.6481   23.6663 H   0  0  0  0  0  0
  -26.0988  -31.5417   20.6028 H   0  0  0  0  0  0
  -26.8460  -30.8309   22.0026 H   0  0  0  0  0  0
  -28.1227  -28.9637   21.1906 H   0  0  0  0  0  0
  -25.9995  -25.8981   19.0308 H   0  0  0  0  0  0
  -23.9742  -27.2915   19.0161 H   0  0  0  0  0  0
  -23.7637  -30.5873   19.4027 H   0  0  0  0  0  0
  -22.7594  -29.2429   19.8536 H   0  0  0  0  0  0
  -25.1293  -36.1922   25.0820 H   0  0  0  0  0  0
  -20.9990  -28.3260   24.1394 H   0  0  0  0  0  0
  -20.5680  -26.2299   23.3607 H   0  0  0  0  0  0
  -21.6648  -26.7430   22.1203 H   0  0  0  0  0  0
  -19.6924  -25.6286   21.1243 H   0  0  0  0  0  0
  -19.6699  -27.3187   20.6742 H   0  0  0  0  0  0
  -17.4206  -26.6676   21.4021 H   0  0  0  0  0  0
  -18.0334  -26.0061   22.9014 H   0  0  0  0  0  0
  -19.7952  -30.7272   24.2253 H   0  0  0  0  0  0
  -17.5030  -31.6267   24.5164 H   0  0  0  0  0  0
  -15.5366  -30.2991   23.7658 H   0  0  0  0  0  0
  -15.8677  -28.0828   22.7061 H   0  0  0  0  0  0
  -24.5897  -30.7077   25.7771 H   0  0  0  0  0  0
  -24.8917  -32.2908   26.4854 H   0  0  0  0  0  0
  -25.8039  -30.8923   27.0226 H   0  0  0  0  0  0
  -26.2930  -29.6756   24.1188 H   0  0  0  0  0  0
  -27.4048  -29.7263   25.4671 H   0  0  0  0  0  0
  -27.8788  -30.4306   23.9394 H   0  0  0  0  0  0
  -27.2658  -33.3633   26.2046 H   0  0  0  0  0  0
  -28.3868  -32.6871   25.0316 H   0  0  0  0  0  0
  -28.0709  -31.8464   26.5416 H   0  0  0  0  0  0
  -28.2590  -38.0096   24.7513 H   0  0  0  0  0  0
  -28.1075  -36.2626   24.6291 H   0  0  0  0  0  0
  -27.2300  -37.1436   25.8873 H   0  0  0  0  0  0
  -20.9376  -29.8767   21.6884 H   0  0  0  0  0  0
  -26.0165  -38.2841   24.1423 H   0  0  0  0  0  0
  -30.7056  -23.0156   20.2888 H   0  0  0  0  0  0
  -29.7880  -22.9641   21.7283 H   0  0  0  0  0  0
  -26.4673  -23.3839   19.5976 H   0  0  0  0  0  0
  -27.5048  -22.4378   18.6189 H   0  0  0  0  0  0
  -26.6452  -18.4137   21.4675 H   0  0  0  0  0  0
  -27.6669  -17.1163   20.9374 H   0  0  0  0  0  0
  -26.8009  -18.0595   19.7416 H   0  0  0  0  0  0
  -26.1603  -20.3754   18.8170 H   0  0  0  0  0  0
  -25.0702  -21.4727   19.6491 H   0  0  0  0  0  0
  -25.4818  -19.9603   20.3916 H   0  0  0  0  0  0
  -27.4700  -22.3503   22.4459 H   0  0  0  0  0  0
  -26.4146  -20.9527   22.4921 H   0  0  0  0  0  0
  -25.8032  -22.4976   21.9109 H   0  0  0  0  0  0
  -29.5658  -23.3568   18.0512 H   0  0  0  0  0  0
  -30.0536  -24.8570   18.8250 H   0  0  0  0  0  0
  -28.4706  -24.7330   18.0678 H   0  0  0  0  0  0
  -28.5399  -24.4227   22.8276 H   0  0  0  0  0  0
  -28.4001  -26.1523   22.6484 H   0  0  0  0  0  0
  -29.8634  -25.3443   22.1004 H   0  0  0  0  0  0
  -31.3008  -17.2836   21.3794 H   0  0  0  0  0  0
  -31.1545  -17.2323   19.6669 H   0  0  0  0  0  0
  -27.0868  -24.9508   20.9945 H   0  0  0  0  0  0
  -28.9577  -15.7881   20.8946 H   0  0  0  0  0  0
  1 25  1  0  0  0
  1 30  2  0  0  0
  1 86  1  0  0  0
  2  3  1  0  0  0
  2 25  1  0  0  0
  2 88  1  0  0  0
  2 89  1  0  0  0
  3  4  1  0  0  0
  3 90  1  0  0  0
  3 91  1  0  0  0
  4  5  1  0  0  0
  4 92  1  0  0  0
  4 93  1  0  0  0
  5  6  1  0  0  0
  5 26  1  0  0  0
  5 94  1  0  0  0
  6 25  1  0  0  0
  6 95  1  0  0  0
  6 96  1  0  0  0
  7  8  2  0  0  0
  7 26  1  0  0  0
  7 29  1  0  0  0
  8  9  1  0  0  0
  8 22  1  0  0  0
  9 10  1  0  0  0
  9 27  2  0  0  0
 10 11  2  0  0  0
 10 15  1  0  0  0
 11 12  1  0  0  0
 11 97  1  0  0  0
 12 13  2  0  0  0
 12 98  1  0  0  0
 13 14  1  0  0  0
 13 31  1  0  0  0
 14 15  2  0  0  0
 14 99  1  0  0  0
 15100  1  0  0  0
 16 17  2  0  0  0
 16 21  1  0  0  0
 16 31  1  0  0  0
 17 18  1  0  0  0
 17101  1  0  0  0
 18 19  2  0  0  0
 18102  1  0  0  0
 19 20  1  0  0  0
 19 24  1  0  0  0
 20 21  2  0  0  0
 20103  1  0  0  0
 21 23  1  0  0  0
 22 28  1  0  0  0
 22 32  2  0  0  0
 26 27  1  0  0  0
 28104  1  0  0  0
 28105  1  0  0  0
 29106  1  0  0  0
 29107  1  0  0  0
 33 34  1  0  0  0
 33 66  1  0  0  0
 33 70  2  0  0  0
 34 36  1  0  0  0
 34 59  1  0  0  0
 34108  1  0  0  0
 35 44  2  0  0  0
 35 45  1  0  0  0
 35 68  1  0  0  0
 36 56  1  0  0  0
 36109  1  0  0  0
 37 39  1  0  0  0
 37 47  1  0  0  0
 37 66  1  0  0  0
 37110  1  0  0  0
 38 43  2  0  0  0
 38 46  1  0  0  0
 38 47  1  0  0  0
 39 64  1  0  0  0
 39 67  2  0  0  0
 40 52  1  0  0  0
 40 53  2  0  0  0
 40 58  1  0  0  0
 41111  1  0  0  0
 41112  1  0  0  0
 41113  1  0  0  0
 41 48  1  0  0  0
 42 43  1  0  0  0
 42 66  1  0  0  0
 42114  1  0  0  0
 42115  1  0  0  0
 43 44  1  0  0  0
 44116  1  0  0  0
 45 46  2  0  0  0
 45117  1  0  0  0
 46118  1  0  0  0
 47119  1  0  0  0
 47120  1  0  0  0
 48 56  1  0  0  0
 48 65  1  0  0  0
 48121  1  0  0  0
 49 50  1  0  0  0
 49 53  1  0  0  0
 49 64  1  0  0  0
 49122  1  0  0  0
 50 51  1  0  0  0
 50123  1  0  0  0
 50124  1  0  0  0
 51 52  1  0  0  0
 51125  1  0  0  0
 51126  1  0  0  0
 52127  1  0  0  0
 52128  1  0  0  0
 53 54  1  0  0  0
 54 55  2  0  0  0
 54129  1  0  0  0
 55 57  1  0  0  0
 55130  1  0  0  0
 56 69  2  0  0  0
 57 58  2  0  0  0
 57131  1  0  0  0
 58132  1  0  0  0
 59 60  1  0  0  0
 59 61  1  0  0  0
 59 62  1  0  0  0
 60133  1  0  0  0
 60134  1  0  0  0
 60135  1  0  0  0
 61136  1  0  0  0
 61137  1  0  0  0
 61138  1  0  0  0
 62139  1  0  0  0
 62140  1  0  0  0
 62141  1  0  0  0
 63 65  1  0  0  0
 63142  1  0  0  0
 63143  1  0  0  0
 63144  1  0  0  0
 64145  1  0  0  0
 65146  1  0  0  0
 68 85  1  0  0  0
 71 72  1  0  0  0
 71 73  2  0  0  0
 71 77  1  0  0  0
 72 74  2  0  0  0
 72 79  1  0  0  0
 73 75  1  0  0  0
 73 87  1  0  0  0
 74 84  1  0  0  0
 74 87  1  0  0  0
 75 78  1  0  0  0
 75147  1  0  0  0
 75148  1  0  0  0
 76 77  1  0  0  0
 76 78  1  0  0  0
 76149  1  0  0  0
 76150  1  0  0  0
 77 80  1  0  0  0
 77 81  1  0  0  0
 78 82  1  0  0  0
 78 85  1  0  0  0
 79151  1  0  0  0
 79152  1  0  0  0
 79153  1  0  0  0
 80154  1  0  0  0
 80155  1  0  0  0
 80156  1  0  0  0
 81157  1  0  0  0
 81158  1  0  0  0
 81159  1  0  0  0
 82160  1  0  0  0
 82161  1  0  0  0
 82162  1  0  0  0
 83163  1  0  0  0
 83164  1  0  0  0
 83165  1  0  0  0
 83 85  1  0  0  0
 84 86  1  0  0  0
 84166  1  0  0  0
 84167  1  0  0  0
 85168  1  0  0  0
 86169  1  0  0  0
M  ISO  4   1 100  68 101  85 101  86 100
M  END
> <chiral flag>
0

> <version>
0

> <s_m_source_file>
/data/baiqing/PycharmProjects/Reinvent-master-3.2/result/LINK_invent/BTK/process_docking_weight1_custom_sum_contain_oxygen_bond_distance_aromatic_linkinvent_7_9_3/rearranged_h_0021.sdf

> <i_m_source_file_index>
65

> <r_mmod_Potential_Energy-OPLS-2005>
143.649566650391

> <r_mmod_Stretch_Energy-OPLS-2005>
110.960502624512

> <r_mmod_Bend_Energy-OPLS-2005>
207.318206787109

> <r_mmod_Torsional_Energy-OPLS-2005>
259.721862792969

> <r_mmod_Improper_Torsional_Energy-OPLS-2005>
4.97420930862427

> <r_mmod_Van_der_Waal_Energy-OPLS-2005>
127.775634765625

> <r_mmod_Electrostatic_Energy-OPLS-2005>
-440.538970947266

> <r_mmod_Solvation_Energy-OPLS-2005>
-193.551162719727

> <b_mmod_Minimization_Converged-OPLS-2005>
0

> <r_mmod_RMS_Derivative-OPLS-2005>
0.853368103504181

$$$$
66
                    3D
 Structure written by MMmdl.
173181  0  0  1  0            999 V2000
  -30.7677  -14.4251   20.5792 C   0  0  0  0  0  0
  -30.4425  -12.2982   19.3955 C   0  0  0  0  0  0
  -29.5012  -12.5045   18.1954 C   0  0  0  0  0  0
  -28.0253  -12.3678   18.6242 C   0  0  0  0  0  0
  -27.6757  -13.2107   19.8785 C   0  0  2  0  0  0
  -28.7304  -12.9901   20.9894 C   0  0  0  0  0  0
  -25.2643  -13.8160   20.5728 C   0  0  0  0  0  0
  -24.1892  -13.0430   20.9168 C   0  0  0  0  0  0
  -24.6448  -11.6892   20.8747 C   0  0  0  0  0  0
  -23.9131  -10.4268   21.0410 C   0  0  0  0  0  0
  -24.3659   -9.4159   21.9193 C   0  0  0  0  0  0
  -23.6274   -8.2221   22.0785 C   0  0  0  0  0  0
  -22.4252   -8.0291   21.3576 C   0  0  0  0  0  0
  -21.9921   -9.0271   20.4688 C   0  0  0  0  0  0
  -22.7291  -10.2114   20.3073 C   0  0  0  0  0  0
  -21.6838   -6.0733   22.5268 C   0  0  0  0  0  0
  -21.4001   -6.5635   23.8209 C   0  0  0  0  0  0
  -21.3644   -5.6793   24.9176 C   0  0  0  0  0  0
  -21.6030   -4.3054   24.7227 C   0  0  0  0  0  0
  -21.8832   -3.8151   23.4347 C   0  0  0  0  0  0
  -21.9177   -4.6957   22.3405 C   0  0  0  0  0  0
  -22.7882  -13.5193   21.1785 C   0  0  0  0  0  0
  -22.1664   -4.2148   21.0982 F   0  0  0  0  0  0
  -21.5609   -3.4549   25.7747 F   0  0  0  0  0  0
  -30.0621  -13.2762   20.4254 N   0  0  0  0  0  0
  -26.3146  -12.9358   20.3442 N   0  0  0  0  0  0
  -25.9391  -11.6510   20.5803 N   0  0  0  0  0  0
  -22.0514  -12.8236   22.0358 N   0  0  0  0  0  0
  -25.4277  -15.1910   20.4186 N   0  0  0  0  0  0
  -31.8822  -14.6043   20.0881 O   0  0  0  0  0  0
  -21.6610   -6.8869   21.4247 O   0  0  0  0  0  0
  -22.3553  -14.5457   20.6536 O   0  0  0  0  0  0
  -24.6153  -31.8761   23.2166 C   0  0  0  0  0  0
  -25.9053  -32.4877   23.8501 C   0  0  1  0  0  0
  -27.2627  -27.4958   20.0924 C   0  0  0  0  0  0
  -25.5916  -33.8683   24.2421 N   0  0  0  0  0  0
  -23.3999  -30.5024   21.5481 C   0  0  2  0  0  0
  -24.8500  -28.9731   20.1142 C   0  0  0  0  0  0
  -22.7434  -29.4702   22.4935 C   0  0  0  0  0  0
  -18.0263  -28.1389   22.8454 C   0  0  0  0  0  0
  -24.1457  -36.7349   23.2636 C   0  0  0  0  0  0
  -25.9212  -30.8727   21.3427 C   0  0  0  0  0  0
  -26.0066  -29.5069   20.6950 C   0  0  0  0  0  0
  -27.2146  -28.7853   20.6603 C   0  0  0  0  0  0
  -26.0823  -26.9538   19.5329 C   0  0  0  0  0  0
  -24.8846  -27.6960   19.5238 C   0  0  0  0  0  0
  -23.6114  -29.8392   20.1600 C   0  0  0  0  0  0
  -25.4062  -36.3157   24.0353 C   0  0  1  0  0  0
  -20.5872  -28.3692   23.1253 C   0  0  2  0  0  0
  -20.6700  -26.9402   22.5399 C   0  0  0  0  0  0
  -19.5693  -26.6371   21.5174 C   0  0  0  0  0  0
  -18.1883  -26.7922   22.1591 C   0  0  0  0  0  0
  -19.1524  -28.8848   23.2862 C   0  0  0  0  0  0
  -18.9448  -30.1428   23.8927 C   0  0  0  0  0  0
  -17.6455  -30.6580   24.0575 C   0  0  0  0  0  0
  -25.9012  -34.9527   23.5175 C   0  0  0  0  0  0
  -16.5355  -29.9118   23.6272 C   0  0  0  0  0  0
  -16.7252  -28.6537   23.0289 C   0  0  0  0  0  0
  -26.4501  -31.6656   25.0805 C   0  0  0  0  0  0
  -25.3825  -31.3771   26.1607 C   0  0  0  0  0  0
  -27.0288  -30.3114   24.6093 C   0  0  0  0  0  0
  -27.6094  -32.4371   25.7569 C   0  0  0  0  0  0
  -27.5559  -37.1826   24.8464 C   0  0  0  0  0  0
  -21.4157  -29.3095   22.3711 N   0  0  0  0  0  0
  -26.4252  -37.3821   23.9442 N   0  0  0  0  0  0
  -24.6647  -31.0958   22.0986 N   0  0  0  0  0  0
  -23.4247  -28.8221   23.2920 O   0  0  0  0  0  0
  -28.4759  -26.8480   20.0918 O   0  0  0  0  0  0
  -26.5540  -34.8970   22.4722 O   0  0  0  0  0  0
  -23.5344  -32.1430   23.7602 O   0  0  0  0  0  0
  -30.3895  -20.2179   20.2951 C   0  0  0  0  0  0
  -29.0941  -20.8030   20.3100 C   0  0  0  0  0  0
  -29.2019  -20.9460   22.7637 C   0  0  0  0  0  0
  -31.0570  -19.9424   21.5193 C   0  0  0  0  0  0
  -30.4666  -20.3257   22.7463 C   0  0  0  0  0  0
  -28.5029  -21.1458   21.5534 C   0  0  0  0  0  0
  -31.0356  -19.8359   18.9604 C   0  0  0  0  0  0
  -28.5900  -21.3970   24.0827 C   0  0  0  0  0  0
  -28.3145  -21.0512   19.0073 C   0  0  0  0  0  0
  -31.5461  -17.0473   22.4993 C   0  0  0  0  0  0
  -28.7108  -24.8786   18.6774 C   0  0  0  0  0  0
  -32.6153  -18.1639   22.3653 C   0  0  0  0  0  0
  -30.6255  -16.8040   21.2776 C   0  0  0  0  0  0
  -29.1179  -23.3931   18.6592 C   0  0  0  0  0  0
  -28.5197  -25.4278   20.1031 C   0  0  0  0  0  0
  -32.2930  -19.2803   21.4734 N   0  0  0  0  0  0
  -30.1251  -15.4287   21.1935 N   0  0  0  0  0  0
  -27.9640  -22.4726   18.7954 N   0  3  0  0  0  0
  -31.1153  -20.0993   23.9161 F   0  0  0  0  0  0
  -26.9098  -21.8303   21.5947 Cl  0  0  0  0  0  0
  -31.4791  -12.4113   19.0719 H   0  0  0  0  0  0
  -30.3661  -11.2812   19.7823 H   0  0  0  0  0  0
  -29.7331  -11.7873   17.4039 H   0  0  0  0  0  0
  -29.6709  -13.4928   17.7671 H   0  0  0  0  0  0
  -27.8320  -11.3122   18.8245 H   0  0  0  0  0  0
  -27.3750  -12.6420   17.7940 H   0  0  0  0  0  0
  -27.7196  -14.2573   19.5780 H   0  0  0  0  0  0
  -28.7019  -11.9571   21.3363 H   0  0  0  0  0  0
  -28.5127  -13.5990   21.8677 H   0  0  0  0  0  0
  -25.2821   -9.5563   22.4764 H   0  0  0  0  0  0
  -23.9948   -7.4605   22.7499 H   0  0  0  0  0  0
  -21.0853   -8.8809   19.8995 H   0  0  0  0  0  0
  -22.3796  -10.9652   19.6173 H   0  0  0  0  0  0
  -21.2015   -7.6149   23.9712 H   0  0  0  0  0  0
  -21.1451   -6.0530   25.9068 H   0  0  0  0  0  0
  -22.0630   -2.7614   23.2866 H   0  0  0  0  0  0
  -22.4120  -11.9924   22.4813 H   0  0  0  0  0  0
  -21.1147  -13.1301   22.2538 H   0  0  0  0  0  0
  -24.6501  -15.8333   20.5190 H   0  0  0  0  0  0
  -26.2782  -15.6437   20.1097 H   0  0  0  0  0  0
  -26.7195  -32.5607   23.1359 H   0  0  0  0  0  0
  -25.0231  -33.9903   25.0673 H   0  0  0  0  0  0
  -22.6847  -31.3194   21.4130 H   0  0  0  0  0  0
  -23.3696  -35.9703   23.3345 H   0  0  0  0  0  0
  -24.3558  -36.8904   22.2044 H   0  0  0  0  0  0
  -23.7249  -37.6588   23.6614 H   0  0  0  0  0  0
  -26.0034  -31.6325   20.5647 H   0  0  0  0  0  0
  -26.8254  -30.9550   21.9352 H   0  0  0  0  0  0
  -28.1178  -29.2222   21.0652 H   0  0  0  0  0  0
  -26.0870  -25.9700   19.0934 H   0  0  0  0  0  0
  -23.9985  -27.2795   19.0636 H   0  0  0  0  0  0
  -23.7351  -30.6273   19.4147 H   0  0  0  0  0  0
  -22.7354  -29.2705   19.8387 H   0  0  0  0  0  0
  -25.1206  -36.2041   25.0829 H   0  0  0  0  0  0
  -20.9966  -28.3272   24.1369 H   0  0  0  0  0  0
  -20.5428  -26.2369   23.3631 H   0  0  0  0  0  0
  -21.6583  -26.7295   22.1316 H   0  0  0  0  0  0
  -19.6836  -25.6268   21.1233 H   0  0  0  0  0  0
  -19.6635  -27.3140   20.6676 H   0  0  0  0  0  0
  -17.4132  -26.6648   21.4019 H   0  0  0  0  0  0
  -18.0311  -26.0051   22.8983 H   0  0  0  0  0  0
  -19.7928  -30.7190   24.2359 H   0  0  0  0  0  0
  -17.5023  -31.6219   24.5232 H   0  0  0  0  0  0
  -15.5367  -30.3055   23.7531 H   0  0  0  0  0  0
  -15.8636  -28.0881   22.6968 H   0  0  0  0  0  0
  -24.5944  -30.7141   25.8025 H   0  0  0  0  0  0
  -24.9084  -32.2938   26.5140 H   0  0  0  0  0  0
  -25.8246  -30.8935   27.0342 H   0  0  0  0  0  0
  -26.2789  -29.6930   24.1132 H   0  0  0  0  0  0
  -27.4093  -29.7285   25.4504 H   0  0  0  0  0  0
  -27.8635  -30.4480   23.9200 H   0  0  0  0  0  0
  -27.2712  -33.3623   26.2279 H   0  0  0  0  0  0
  -28.3874  -32.7041   25.0392 H   0  0  0  0  0  0
  -28.0839  -31.8436   26.5401 H   0  0  0  0  0  0
  -28.2589  -38.0099   24.7433 H   0  0  0  0  0  0
  -28.1035  -36.2631   24.6330 H   0  0  0  0  0  0
  -27.2317  -37.1546   25.8880 H   0  0  0  0  0  0
  -20.9320  -29.9081   21.7167 H   0  0  0  0  0  0
  -26.0147  -38.2909   24.1421 H   0  0  0  0  0  0
  -31.0751  -20.6970   18.2911 H   0  0  0  0  0  0
  -30.4577  -19.0479   18.4791 H   0  0  0  0  0  0
  -32.0561  -19.4686   19.0325 H   0  0  0  0  0  0
  -29.1554  -21.0501   24.9456 H   0  0  0  0  0  0
  -27.5722  -21.0207   24.1904 H   0  0  0  0  0  0
  -28.5583  -22.4863   24.1274 H   0  0  0  0  0  0
  -27.4147  -20.4334   19.0134 H   0  0  0  0  0  0
  -28.8603  -20.7278   18.1263 H   0  0  0  0  0  0
  -30.9263  -17.2458   23.3740 H   0  0  0  0  0  0
  -32.0807  -16.1251   22.7323 H   0  0  0  0  0  0
  -27.8355  -25.0555   18.0502 H   0  0  0  0  0  0
  -29.5131  -25.4487   18.2071 H   0  0  0  0  0  0
  -33.5132  -17.6991   21.9529 H   0  0  0  0  0  0
  -32.9166  -18.5330   23.3498 H   0  0  0  0  0  0
  -31.1236  -17.0812   20.3446 H   0  0  0  0  0  0
  -29.7613  -17.4626   21.3521 H   0  0  0  0  0  0
  -29.8556  -23.2170   19.4451 H   0  0  0  0  0  0
  -29.6182  -23.1664   17.7177 H   0  0  0  0  0  0
  -29.3863  -25.1569   20.7102 H   0  0  0  0  0  0
  -27.6587  -24.9971   20.6154 H   0  0  0  0  0  0
  -32.6612  -19.1709   20.5342 H   0  0  0  0  0  0
  -29.1735  -15.2551   21.4832 H   0  0  0  0  0  0
  -27.3841  -22.7380   19.5763 H   0  0  0  0  0  0
  -27.4023  -22.5271   17.9587 H   0  0  0  0  0  0
  1 25  1  0  0  0
  1 30  2  0  0  0
  1 87  1  0  0  0
  2  3  1  0  0  0
  2 25  1  0  0  0
  2 91  1  0  0  0
  2 92  1  0  0  0
  3  4  1  0  0  0
  3 93  1  0  0  0
  3 94  1  0  0  0
  4  5  1  0  0  0
  4 95  1  0  0  0
  4 96  1  0  0  0
  5  6  1  0  0  0
  5 26  1  0  0  0
  5 97  1  0  0  0
  6 25  1  0  0  0
  6 98  1  0  0  0
  6 99  1  0  0  0
  7  8  2  0  0  0
  7 26  1  0  0  0
  7 29  1  0  0  0
  8  9  1  0  0  0
  8 22  1  0  0  0
  9 10  1  0  0  0
  9 27  2  0  0  0
 10 11  2  0  0  0
 10 15  1  0  0  0
 11 12  1  0  0  0
 11100  1  0  0  0
 12 13  2  0  0  0
 12101  1  0  0  0
 13 14  1  0  0  0
 13 31  1  0  0  0
 14 15  2  0  0  0
 14102  1  0  0  0
 15103  1  0  0  0
 16 17  2  0  0  0
 16 21  1  0  0  0
 16 31  1  0  0  0
 17 18  1  0  0  0
 17104  1  0  0  0
 18 19  2  0  0  0
 18105  1  0  0  0
 19 20  1  0  0  0
 19 24  1  0  0  0
 20 21  2  0  0  0
 20106  1  0  0  0
 21 23  1  0  0  0
 22 28  1  0  0  0
 22 32  2  0  0  0
 26 27  1  0  0  0
 28107  1  0  0  0
 28108  1  0  0  0
 29109  1  0  0  0
 29110  1  0  0  0
 33 34  1  0  0  0
 33 66  1  0  0  0
 33 70  2  0  0  0
 34 36  1  0  0  0
 34 59  1  0  0  0
 34111  1  0  0  0
 35 44  2  0  0  0
 35 45  1  0  0  0
 35 68  1  0  0  0
 36 56  1  0  0  0
 36112  1  0  0  0
 37 39  1  0  0  0
 37 47  1  0  0  0
 37 66  1  0  0  0
 37113  1  0  0  0
 38 43  2  0  0  0
 38 46  1  0  0  0
 38 47  1  0  0  0
 39 64  1  0  0  0
 39 67  2  0  0  0
 40 52  1  0  0  0
 40 53  2  0  0  0
 40 58  1  0  0  0
 41114  1  0  0  0
 41115  1  0  0  0
 41116  1  0  0  0
 41 48  1  0  0  0
 42 43  1  0  0  0
 42 66  1  0  0  0
 42117  1  0  0  0
 42118  1  0  0  0
 43 44  1  0  0  0
 44119  1  0  0  0
 45 46  2  0  0  0
 45120  1  0  0  0
 46121  1  0  0  0
 47122  1  0  0  0
 47123  1  0  0  0
 48 56  1  0  0  0
 48 65  1  0  0  0
 48124  1  0  0  0
 49 50  1  0  0  0
 49 53  1  0  0  0
 49 64  1  0  0  0
 49125  1  0  0  0
 50 51  1  0  0  0
 50126  1  0  0  0
 50127  1  0  0  0
 51 52  1  0  0  0
 51128  1  0  0  0
 51129  1  0  0  0
 52130  1  0  0  0
 52131  1  0  0  0
 53 54  1  0  0  0
 54 55  2  0  0  0
 54132  1  0  0  0
 55 57  1  0  0  0
 55133  1  0  0  0
 56 69  2  0  0  0
 57 58  2  0  0  0
 57134  1  0  0  0
 58135  1  0  0  0
 59 60  1  0  0  0
 59 61  1  0  0  0
 59 62  1  0  0  0
 60136  1  0  0  0
 60137  1  0  0  0
 60138  1  0  0  0
 61139  1  0  0  0
 61140  1  0  0  0
 61141  1  0  0  0
 62142  1  0  0  0
 62143  1  0  0  0
 62144  1  0  0  0
 63 65  1  0  0  0
 63145  1  0  0  0
 63146  1  0  0  0
 63147  1  0  0  0
 64148  1  0  0  0
 65149  1  0  0  0
 68 85  1  0  0  0
 71 72  2  0  0  0
 71 74  1  0  0  0
 71 77  1  0  0  0
 72 76  1  0  0  0
 72 79  1  0  0  0
 73 75  1  0  0  0
 73 76  2  0  0  0
 73 78  1  0  0  0
 74 75  2  0  0  0
 74 86  1  0  0  0
 75 89  1  0  0  0
 76 90  1  0  0  0
 77150  1  0  0  0
 77151  1  0  0  0
 77152  1  0  0  0
 78153  1  0  0  0
 78154  1  0  0  0
 78155  1  0  0  0
 79 88  1  0  0  0
 79156  1  0  0  0
 79157  1  0  0  0
 80 82  1  0  0  0
 80 83  1  0  0  0
 80158  1  0  0  0
 80159  1  0  0  0
 81 84  1  0  0  0
 81 85  1  0  0  0
 81160  1  0  0  0
 81161  1  0  0  0
 82 86  1  0  0  0
 82162  1  0  0  0
 82163  1  0  0  0
 83 87  1  0  0  0
 83164  1  0  0  0
 83165  1  0  0  0
 84 88  1  0  0  0
 84166  1  0  0  0
 84167  1  0  0  0
 85168  1  0  0  0
 85169  1  0  0  0
 86170  1  0  0  0
 87171  1  0  0  0
 88172  1  0  0  0
 88173  1  0  0  0
M  CHG  1  88   1
M  ISO  4   1 100  68 101  85 101  87 100
M  END
> <chiral flag>
0

> <version>
0

> <s_m_source_file>
/data/baiqing/PycharmProjects/Reinvent-master-3.2/result/LINK_invent/BTK/process_docking_weight1_custom_sum_contain_oxygen_bond_distance_aromatic_linkinvent_7_9_3/rearranged_h_0021.sdf

> <i_m_source_file_index>
66

> <r_mmod_Potential_Energy-OPLS-2005>
-232.943786621094

> <r_mmod_Stretch_Energy-OPLS-2005>
38.2407913208008

> <r_mmod_Bend_Energy-OPLS-2005>
116.591995239258

> <r_mmod_Torsional_Energy-OPLS-2005>
218.68229675293

> <r_mmod_Improper_Torsional_Energy-OPLS-2005>
6.20239019393921

> <r_mmod_Van_der_Waal_Energy-OPLS-2005>
165.292922973633

> <r_mmod_Electrostatic_Energy-OPLS-2005>
-300.286956787109

> <r_mmod_Solvation_Energy-OPLS-2005>
-490.578704833984

> <b_mmod_Minimization_Converged-OPLS-2005>
0

> <r_mmod_RMS_Derivative-OPLS-2005>
5.79970741271973

$$$$
67
                    3D
 Structure written by MMmdl.
176184  0  0  1  0            999 V2000
  -30.7479  -14.3351   20.6960 C   0  0  0  0  0  0
  -30.4414  -12.2719   19.3970 C   0  0  0  0  0  0
  -29.5064  -12.5386   18.2013 C   0  0  0  0  0  0
  -28.0293  -12.3809   18.6130 C   0  0  0  0  0  0
  -27.6782  -13.1853   19.8937 C   0  0  2  0  0  0
  -28.7105  -12.8810   21.0013 C   0  0  0  0  0  0
  -25.2607  -13.8027   20.5742 C   0  0  0  0  0  0
  -24.1844  -13.0370   20.9173 C   0  0  0  0  0  0
  -24.6327  -11.6822   20.8720 C   0  0  0  0  0  0
  -23.8957  -10.4268   21.0453 C   0  0  0  0  0  0
  -24.3530   -9.4185   21.9253 C   0  0  0  0  0  0
  -23.6239   -8.2194   22.0781 C   0  0  0  0  0  0
  -22.4248   -8.0208   21.3536 C   0  0  0  0  0  0
  -21.9851   -9.0185   20.4656 C   0  0  0  0  0  0
  -22.7127  -10.2104   20.3089 C   0  0  0  0  0  0
  -21.6823   -6.0661   22.5281 C   0  0  0  0  0  0
  -21.3992   -6.5570   23.8221 C   0  0  0  0  0  0
  -21.3721   -5.6744   24.9200 C   0  0  0  0  0  0
  -21.6095   -4.3013   24.7281 C   0  0  0  0  0  0
  -21.8797   -3.8073   23.4399 C   0  0  0  0  0  0
  -21.9169   -4.6882   22.3436 C   0  0  0  0  0  0
  -22.7893  -13.5223   21.1819 C   0  0  0  0  0  0
  -22.1643   -4.2054   21.1029 F   0  0  0  0  0  0
  -21.5672   -3.4535   25.7824 F   0  0  0  0  0  0
  -30.0647  -13.1848   20.4789 N   0  0  0  0  0  0
  -26.3080  -12.9221   20.3391 N   0  0  0  0  0  0
  -25.9246  -11.6377   20.5647 N   0  0  0  0  0  0
  -22.0464  -12.8322   22.0377 N   0  0  0  0  0  0
  -25.4213  -15.1772   20.4331 N   0  0  0  0  0  0
  -31.7398  -14.6918   20.0523 O   0  0  0  0  0  0
  -21.6620   -6.8810   21.4234 O   0  0  0  0  0  0
  -22.3618  -14.5529   20.6589 O   0  0  0  0  0  0
  -24.6161  -31.8720   23.2130 C   0  0  0  0  0  0
  -25.9104  -32.4831   23.8374 C   0  0  1  0  0  0
  -27.2045  -27.4405   20.0341 C   0  0  0  0  0  0
  -25.5988  -33.8617   24.2340 N   0  0  0  0  0  0
  -23.3976  -30.5073   21.5534 C   0  0  2  0  0  0
  -24.8268  -28.9785   20.1092 C   0  0  0  0  0  0
  -22.7443  -29.4680   22.4903 C   0  0  0  0  0  0
  -18.0304  -28.1375   22.8516 C   0  0  0  0  0  0
  -24.1493  -36.7297   23.2617 C   0  0  0  0  0  0
  -25.9326  -30.8239   21.3745 C   0  0  0  0  0  0
  -25.9944  -29.4650   20.7090 C   0  0  0  0  0  0
  -27.1825  -28.7013   20.6730 C   0  0  0  0  0  0
  -26.0020  -26.9577   19.4610 C   0  0  0  0  0  0
  -24.8215  -27.7198   19.4928 C   0  0  0  0  0  0
  -23.6019  -29.8603   20.1601 C   0  0  0  0  0  0
  -25.4120  -36.3084   24.0310 C   0  0  1  0  0  0
  -20.5899  -28.3739   23.1296 C   0  0  2  0  0  0
  -20.6805  -26.9464   22.5462 C   0  0  0  0  0  0
  -19.5789  -26.6372   21.5252 C   0  0  0  0  0  0
  -18.1983  -26.7894   22.1730 C   0  0  0  0  0  0
  -19.1554  -28.8865   23.2895 C   0  0  0  0  0  0
  -18.9458  -30.1463   23.8916 C   0  0  0  0  0  0
  -17.6469  -30.6611   24.0560 C   0  0  0  0  0  0
  -25.9058  -34.9470   23.5117 C   0  0  0  0  0  0
  -16.5359  -29.9116   23.6304 C   0  0  0  0  0  0
  -16.7289  -28.6499   23.0368 C   0  0  0  0  0  0
  -26.4535  -31.6601   25.0704 C   0  0  0  0  0  0
  -25.3761  -31.3772   26.1428 C   0  0  0  0  0  0
  -27.0352  -30.3017   24.6093 C   0  0  0  0  0  0
  -27.6087  -32.4339   25.7498 C   0  0  0  0  0  0
  -27.5583  -37.1803   24.8452 C   0  0  0  0  0  0
  -21.4160  -29.3088   22.3664 N   0  0  0  0  0  0
  -26.4303  -37.3781   23.9393 N   0  0  0  0  0  0
  -24.6662  -31.0829   22.1041 N   0  0  0  0  0  0
  -23.4257  -28.8184   23.2880 O   0  0  0  0  0  0
  -28.3923  -26.7338   19.9848 O   0  0  0  0  0  0
  -26.5556  -34.8921   22.4631 O   0  0  0  0  0  0
  -23.5372  -32.1506   23.7550 O   0  0  0  0  0  0
  -25.8167  -21.5949   20.6988 C   0  0  0  0  0  0
  -27.1924  -21.9463   20.5471 C   0  0  0  0  0  0
  -25.3993  -20.8370   21.8338 C   0  0  0  0  0  0
  -28.1381  -21.4233   21.4690 C   0  0  0  0  0  0
  -26.3434  -20.3900   22.7971 C   0  0  0  0  0  0
  -27.7125  -20.7198   22.6216 C   0  0  0  0  0  0
  -24.7759  -22.0147   19.6533 C   0  0  0  0  0  0
  -23.9175  -20.4843   22.0286 C   0  0  0  0  0  0
  -29.6371  -21.6014   21.2482 C   0  0  0  0  0  0
  -27.6578  -22.9822   19.5004 C   0  0  0  0  0  0
  -27.8282  -24.3599   20.1712 C   0  0  0  0  0  0
  -27.9770  -16.5939   22.9020 C   0  0  0  0  0  0
  -26.6652  -17.4122   22.8940 C   0  0  0  0  0  0
  -29.0400  -17.1755   21.9422 C   0  0  0  0  0  0
  -26.4980  -18.2951   24.1506 C   0  0  0  0  0  0
  -30.4097  -16.4699   21.9799 C   0  0  0  0  0  0
  -28.4190  -25.4788   19.2834 C   0  0  0  0  0  0
  -25.8917  -19.6042   23.8828 N   0  0  0  0  0  0
  -30.2305  -15.0584   21.6899 N   0  0  0  0  0  0
  -28.8854  -20.3614   23.8545 Cl  0  0  0  0  0  0
  -31.4888  -12.3894   19.1009 H   0  0  0  0  0  0
  -30.3410  -11.2392   19.7362 H   0  0  0  0  0  0
  -29.7502  -11.8611   17.3818 H   0  0  0  0  0  0
  -29.6716  -13.5457   17.8150 H   0  0  0  0  0  0
  -27.8505  -11.3193   18.7819 H   0  0  0  0  0  0
  -27.3676  -12.6745   17.7993 H   0  0  0  0  0  0
  -27.7582  -14.2500   19.6588 H   0  0  0  0  0  0
  -28.6607  -11.8267   21.2813 H   0  0  0  0  0  0
  -28.4485  -13.4172   21.9106 H   0  0  0  0  0  0
  -25.2692   -9.5612   22.4848 H   0  0  0  0  0  0
  -23.9941   -7.4564   22.7468 H   0  0  0  0  0  0
  -21.0793   -8.8625   19.8997 H   0  0  0  0  0  0
  -22.3546  -10.9608   19.6171 H   0  0  0  0  0  0
  -21.1942   -7.6076   23.9725 H   0  0  0  0  0  0
  -21.1612   -6.0470   25.9106 H   0  0  0  0  0  0
  -22.0522   -2.7517   23.2913 H   0  0  0  0  0  0
  -22.3921  -11.9990   22.4909 H   0  0  0  0  0  0
  -21.1086  -13.1440   22.2466 H   0  0  0  0  0  0
  -24.6576  -15.8059   20.6561 H   0  0  0  0  0  0
  -26.2912  -15.6567   20.2488 H   0  0  0  0  0  0
  -26.7135  -32.5537   23.1075 H   0  0  0  0  0  0
  -25.0306  -33.9783   25.0602 H   0  0  0  0  0  0
  -22.6800  -31.3220   21.4304 H   0  0  0  0  0  0
  -23.3757  -35.9630   23.3298 H   0  0  0  0  0  0
  -24.3564  -36.8906   22.2025 H   0  0  0  0  0  0
  -23.7275  -37.6513   23.6634 H   0  0  0  0  0  0
  -26.0766  -31.5979   20.6210 H   0  0  0  0  0  0
  -26.8116  -30.8481   22.0061 H   0  0  0  0  0  0
  -28.0906  -29.0711   21.1255 H   0  0  0  0  0  0
  -25.9334  -25.9935   18.9800 H   0  0  0  0  0  0
  -23.9169  -27.3462   19.0318 H   0  0  0  0  0  0
  -23.7210  -30.6483   19.4145 H   0  0  0  0  0  0
  -22.7190  -29.2990   19.8491 H   0  0  0  0  0  0
  -25.1306  -36.1911   25.0802 H   0  0  0  0  0  0
  -21.0067  -28.3329   24.1385 H   0  0  0  0  0  0
  -20.5757  -26.2387   23.3705 H   0  0  0  0  0  0
  -21.6685  -26.7578   22.1233 H   0  0  0  0  0  0
  -19.6981  -25.6286   21.1268 H   0  0  0  0  0  0
  -19.6670  -27.3130   20.6751 H   0  0  0  0  0  0
  -17.4212  -26.6509   21.4213 H   0  0  0  0  0  0
  -18.0542  -26.0110   22.9231 H   0  0  0  0  0  0
  -19.7938  -30.7275   24.2280 H   0  0  0  0  0  0
  -17.5041  -31.6302   24.5147 H   0  0  0  0  0  0
  -15.5376  -30.3049   23.7587 H   0  0  0  0  0  0
  -15.8692  -28.0785   22.7152 H   0  0  0  0  0  0
  -24.5900  -30.7174   25.7753 H   0  0  0  0  0  0
  -24.9018  -32.2982   26.4818 H   0  0  0  0  0  0
  -25.8069  -30.8949   27.0208 H   0  0  0  0  0  0
  -26.2894  -29.6787   24.1136 H   0  0  0  0  0  0
  -27.4104  -29.7236   25.4544 H   0  0  0  0  0  0
  -27.8756  -30.4328   23.9274 H   0  0  0  0  0  0
  -27.2673  -33.3624   26.2086 H   0  0  0  0  0  0
  -28.3915  -32.6924   25.0361 H   0  0  0  0  0  0
  -28.0727  -31.8457   26.5426 H   0  0  0  0  0  0
  -28.2583  -38.0111   24.7495 H   0  0  0  0  0  0
  -28.1104  -36.2635   24.6299 H   0  0  0  0  0  0
  -27.2279  -37.1471   25.8849 H   0  0  0  0  0  0
  -20.9351  -29.8853   21.6885 H   0  0  0  0  0  0
  -26.0169  -38.2845   24.1409 H   0  0  0  0  0  0
  -25.1889  -22.1792   18.6635 H   0  0  0  0  0  0
  -24.2369  -22.9132   19.9568 H   0  0  0  0  0  0
  -24.0464  -21.2235   19.4752 H   0  0  0  0  0  0
  -23.6961  -19.5228   21.5650 H   0  0  0  0  0  0
  -23.2581  -21.2402   21.6060 H   0  0  0  0  0  0
  -23.6285  -20.4361   23.0793 H   0  0  0  0  0  0
  -29.9076  -21.6757   20.1996 H   0  0  0  0  0  0
  -30.1798  -20.7248   21.6006 H   0  0  0  0  0  0
  -30.0115  -22.4768   21.7745 H   0  0  0  0  0  0
  -26.9554  -23.0997   18.6847 H   0  0  0  0  0  0
  -28.5694  -22.6851   18.9815 H   0  0  0  0  0  0
  -28.4753  -24.2605   21.0404 H   0  0  0  0  0  0
  -26.8555  -24.6548   20.5659 H   0  0  0  0  0  0
  -28.3932  -16.5398   23.9077 H   0  0  0  0  0  0
  -27.7540  -15.5653   22.6139 H   0  0  0  0  0  0
  -25.7979  -16.7532   22.8019 H   0  0  0  0  0  0
  -26.6389  -18.0042   21.9799 H   0  0  0  0  0  0
  -28.6499  -17.1268   20.9251 H   0  0  0  0  0  0
  -29.1872  -18.2325   22.1556 H   0  0  0  0  0  0
  -27.4420  -18.4247   24.6756 H   0  0  0  0  0  0
  -25.8773  -17.7597   24.8742 H   0  0  0  0  0  0
  -30.8813  -16.5618   22.9614 H   0  0  0  0  0  0
  -31.0795  -16.9381   21.2565 H   0  0  0  0  0  0
  -27.9225  -25.5469   18.3149 H   0  0  0  0  0  0
  -29.4553  -25.2440   19.0346 H   0  0  0  0  0  0
  -24.9012  -19.6729   24.1011 H   0  0  0  0  0  0
  -29.4870  -14.5932   22.1861 H   0  0  0  0  0  0
  1 25  1  0  0  0
  1 30  2  0  0  0
  1 89  1  0  0  0
  2  3  1  0  0  0
  2 25  1  0  0  0
  2 91  1  0  0  0
  2 92  1  0  0  0
  3  4  1  0  0  0
  3 93  1  0  0  0
  3 94  1  0  0  0
  4  5  1  0  0  0
  4 95  1  0  0  0
  4 96  1  0  0  0
  5  6  1  0  0  0
  5 26  1  0  0  0
  5 97  1  0  0  0
  6 25  1  0  0  0
  6 98  1  0  0  0
  6 99  1  0  0  0
  7  8  2  0  0  0
  7 26  1  0  0  0
  7 29  1  0  0  0
  8  9  1  0  0  0
  8 22  1  0  0  0
  9 10  1  0  0  0
  9 27  2  0  0  0
 10 11  2  0  0  0
 10 15  1  0  0  0
 11 12  1  0  0  0
 11100  1  0  0  0
 12 13  2  0  0  0
 12101  1  0  0  0
 13 14  1  0  0  0
 13 31  1  0  0  0
 14 15  2  0  0  0
 14102  1  0  0  0
 15103  1  0  0  0
 16 17  2  0  0  0
 16 21  1  0  0  0
 16 31  1  0  0  0
 17 18  1  0  0  0
 17104  1  0  0  0
 18 19  2  0  0  0
 18105  1  0  0  0
 19 20  1  0  0  0
 19 24  1  0  0  0
 20 21  2  0  0  0
 20106  1  0  0  0
 21 23  1  0  0  0
 22 28  1  0  0  0
 22 32  2  0  0  0
 26 27  1  0  0  0
 28107  1  0  0  0
 28108  1  0  0  0
 29109  1  0  0  0
 29110  1  0  0  0
 33 34  1  0  0  0
 33 66  1  0  0  0
 33 70  2  0  0  0
 34 36  1  0  0  0
 34 59  1  0  0  0
 34111  1  0  0  0
 35 44  2  0  0  0
 35 45  1  0  0  0
 35 68  1  0  0  0
 36 56  1  0  0  0
 36112  1  0  0  0
 37 39  1  0  0  0
 37 47  1  0  0  0
 37 66  1  0  0  0
 37113  1  0  0  0
 38 43  2  0  0  0
 38 46  1  0  0  0
 38 47  1  0  0  0
 39 64  1  0  0  0
 39 67  2  0  0  0
 40 52  1  0  0  0
 40 53  2  0  0  0
 40 58  1  0  0  0
 41114  1  0  0  0
 41115  1  0  0  0
 41116  1  0  0  0
 41 48  1  0  0  0
 42 43  1  0  0  0
 42 66  1  0  0  0
 42117  1  0  0  0
 42118  1  0  0  0
 43 44  1  0  0  0
 44119  1  0  0  0
 45 46  2  0  0  0
 45120  1  0  0  0
 46121  1  0  0  0
 47122  1  0  0  0
 47123  1  0  0  0
 48 56  1  0  0  0
 48 65  1  0  0  0
 48124  1  0  0  0
 49 50  1  0  0  0
 49 53  1  0  0  0
 49 64  1  0  0  0
 49125  1  0  0  0
 50 51  1  0  0  0
 50126  1  0  0  0
 50127  1  0  0  0
 51 52  1  0  0  0
 51128  1  0  0  0
 51129  1  0  0  0
 52130  1  0  0  0
 52131  1  0  0  0
 53 54  1  0  0  0
 54 55  2  0  0  0
 54132  1  0  0  0
 55 57  1  0  0  0
 55133  1  0  0  0
 56 69  2  0  0  0
 57 58  2  0  0  0
 57134  1  0  0  0
 58135  1  0  0  0
 59 60  1  0  0  0
 59 61  1  0  0  0
 59 62  1  0  0  0
 60136  1  0  0  0
 60137  1  0  0  0
 60138  1  0  0  0
 61139  1  0  0  0
 61140  1  0  0  0
 61141  1  0  0  0
 62142  1  0  0  0
 62143  1  0  0  0
 62144  1  0  0  0
 63 65  1  0  0  0
 63145  1  0  0  0
 63146  1  0  0  0
 63147  1  0  0  0
 64148  1  0  0  0
 65149  1  0  0  0
 68 87  1  0  0  0
 71 72  2  0  0  0
 71 73  1  0  0  0
 71 77  1  0  0  0
 72 74  1  0  0  0
 72 80  1  0  0  0
 73 75  2  0  0  0
 73 78  1  0  0  0
 74 76  2  0  0  0
 74 79  1  0  0  0
 75 76  1  0  0  0
 75 88  1  0  0  0
 76 90  1  0  0  0
 77150  1  0  0  0
 77151  1  0  0  0
 77152  1  0  0  0
 78153  1  0  0  0
 78154  1  0  0  0
 78155  1  0  0  0
 79156  1  0  0  0
 79157  1  0  0  0
 79158  1  0  0  0
 80 81  1  0  0  0
 80159  1  0  0  0
 80160  1  0  0  0
 81 87  1  0  0  0
 81161  1  0  0  0
 81162  1  0  0  0
 82 83  1  0  0  0
 82 84  1  0  0  0
 82163  1  0  0  0
 82164  1  0  0  0
 83 85  1  0  0  0
 83165  1  0  0  0
 83166  1  0  0  0
 84 86  1  0  0  0
 84167  1  0  0  0
 84168  1  0  0  0
 85 88  1  0  0  0
 85169  1  0  0  0
 85170  1  0  0  0
 86 89  1  0  0  0
 86171  1  0  0  0
 86172  1  0  0  0
 87173  1  0  0  0
 87174  1  0  0  0
 88175  1  0  0  0
 89176  1  0  0  0
M  ISO  4   1 100  68 101  87 101  89 100
M  END
> <chiral flag>
0

> <version>
0

> <s_m_source_file>
/data/baiqing/PycharmProjects/Reinvent-master-3.2/result/LINK_invent/BTK/process_docking_weight1_custom_sum_contain_oxygen_bond_distance_aromatic_linkinvent_7_9_3/rearranged_h_0021.sdf

> <i_m_source_file_index>
67

> <r_mmod_Potential_Energy-OPLS-2005>
-14.0172739028931

> <r_mmod_Stretch_Energy-OPLS-2005>
44.1043968200684

> <r_mmod_Bend_Energy-OPLS-2005>
113.205848693848

> <r_mmod_Torsional_Energy-OPLS-2005>
229.482604980469

> <r_mmod_Improper_Torsional_Energy-OPLS-2005>
5.47805881500244

> <r_mmod_Van_der_Waal_Energy-OPLS-2005>
181.074172973633

> <r_mmod_Electrostatic_Energy-OPLS-2005>
-389.978240966797

> <r_mmod_Solvation_Energy-OPLS-2005>
-209.662704467773

> <b_mmod_Minimization_Converged-OPLS-2005>
0

> <r_mmod_RMS_Derivative-OPLS-2005>
7.21878623962402

$$$$
68
                    3D
 Structure written by MMmdl.
159167  0  0  1  0            999 V2000
  -30.5323  -14.8580   20.4333 C   0  0  0  0  0  0
  -30.4474  -12.5248   19.4894 C   0  0  0  0  0  0
  -29.5193  -12.5237   18.2509 C   0  0  0  0  0  0
  -28.0477  -12.3242   18.6640 C   0  0  0  0  0  0
  -27.6385  -13.2345   19.8512 C   0  0  2  0  0  0
  -28.6823  -13.1922   20.9891 C   0  0  0  0  0  0
  -25.2474  -13.8178   20.5672 C   0  0  0  0  0  0
  -24.1775  -13.0426   20.9220 C   0  0  0  0  0  0
  -24.6375  -11.6909   20.8762 C   0  0  0  0  0  0
  -23.9059  -10.4289   21.0419 C   0  0  0  0  0  0
  -24.3599   -9.4191   21.9187 C   0  0  0  0  0  0
  -23.6278   -8.2228   22.0742 C   0  0  0  0  0  0
  -22.4254   -8.0284   21.3545 C   0  0  0  0  0  0
  -21.9905   -9.0255   20.4638 C   0  0  0  0  0  0
  -22.7236  -10.2132   20.3069 C   0  0  0  0  0  0
  -21.6842   -6.0740   22.5286 C   0  0  0  0  0  0
  -21.4004   -6.5638   23.8221 C   0  0  0  0  0  0
  -21.3664   -5.6781   24.9181 C   0  0  0  0  0  0
  -21.6050   -4.3049   24.7215 C   0  0  0  0  0  0
  -21.8819   -3.8145   23.4330 C   0  0  0  0  0  0
  -21.9179   -4.6968   22.3388 C   0  0  0  0  0  0
  -22.7794  -13.5205   21.1879 C   0  0  0  0  0  0
  -22.1655   -4.2158   21.0966 F   0  0  0  0  0  0
  -21.5625   -3.4529   25.7725 F   0  0  0  0  0  0
  -29.9744  -13.5898   20.4107 N   0  0  0  0  0  0
  -26.2910  -12.9394   20.3276 N   0  0  0  0  0  0
  -25.9306  -11.6534   20.5759 N   0  0  0  0  0  0
  -22.0434  -12.8217   22.0449 N   0  0  0  0  0  0
  -25.4124  -15.1906   20.4041 N   0  0  0  0  0  0
  -31.7110  -14.9933   20.0845 O   0  0  0  0  0  0
  -21.6619   -6.8883   21.4251 O   0  0  0  0  0  0
  -22.3485  -14.5507   20.6719 O   0  0  0  0  0  0
  -24.6388  -31.8484   23.1935 C   0  0  0  0  0  0
  -25.9193  -32.4716   23.8287 C   0  0  1  0  0  0
  -27.2154  -27.1912   20.1362 C   0  0  0  0  0  0
  -25.5958  -33.8520   24.2205 N   0  0  0  0  0  0
  -23.4392  -30.4699   21.5379 C   0  0  2  0  0  0
  -24.8863  -28.9082   20.1099 C   0  0  0  0  0  0
  -22.7554  -29.4569   22.4887 C   0  0  0  0  0  0
  -18.0304  -28.1387   22.8482 C   0  0  0  0  0  0
  -24.1491  -36.7266   23.2639 C   0  0  0  0  0  0
  -25.9932  -30.7383   21.3855 C   0  0  0  0  0  0
  -26.0637  -29.3570   20.7227 C   0  0  0  0  0  0
  -27.2308  -28.5139   20.7201 C   0  0  0  0  0  0
  -26.0091  -26.8312   19.4920 C   0  0  0  0  0  0
  -24.8688  -27.6559   19.4828 C   0  0  0  0  0  0
  -23.6615  -29.8038   20.1559 C   0  0  0  0  0  0
  -25.4123  -36.3041   24.0312 C   0  0  1  0  0  0
  -20.5912  -28.3706   23.1243 C   0  0  2  0  0  0
  -20.6796  -26.9413   22.5404 C   0  0  0  0  0  0
  -19.5767  -26.6375   21.5223 C   0  0  0  0  0  0
  -18.1942  -26.7927   22.1627 C   0  0  0  0  0  0
  -19.1559  -28.8872   23.2846 C   0  0  0  0  0  0
  -18.9474  -30.1470   23.8865 C   0  0  0  0  0  0
  -17.6473  -30.6587   24.0554 C   0  0  0  0  0  0
  -25.9068  -34.9415   23.5058 C   0  0  0  0  0  0
  -16.5359  -29.9076   23.6335 C   0  0  0  0  0  0
  -16.7285  -28.6497   23.0359 C   0  0  0  0  0  0
  -26.4520  -31.6585   25.0725 C   0  0  0  0  0  0
  -25.3721  -31.3792   26.1440 C   0  0  0  0  0  0
  -27.0387  -30.2982   24.6306 C   0  0  0  0  0  0
  -27.6025  -32.4373   25.7519 C   0  0  0  0  0  0
  -27.5579  -37.1787   24.8461 C   0  0  0  0  0  0
  -21.4254  -29.3038   22.3627 N   0  0  0  0  0  0
  -26.4292  -37.3751   23.9406 N   0  0  0  0  0  0
  -24.7100  -31.0409   22.0928 N   0  0  0  0  0  0
  -23.4233  -28.8101   23.2998 O   0  0  0  0  0  0
  -28.2796  -26.2358   20.1987 O   0  0  0  0  0  0
  -26.5643  -34.8901   22.4628 O   0  0  0  0  0  0
  -23.5525  -32.1321   23.7205 O   0  0  0  0  0  0
  -29.3575  -18.2937   21.6536 C   0  0  0  0  0  0
  -29.0555  -19.7049   21.5768 C   0  0  0  0  0  0
  -29.4304  -19.6269   19.2216 C   0  0  0  0  0  0
  -29.0341  -20.4415   20.3460 C   0  0  0  0  0  0
  -29.7282  -18.1958   19.3098 C   0  0  0  0  0  0
  -29.6843  -17.4548   20.5448 C   0  0  0  0  0  0
  -28.6697  -20.3910   22.8756 C   0  0  0  0  0  0
  -29.4597  -20.2858   17.8447 C   0  0  0  0  0  0
  -30.0188  -17.4412   18.0171 C   0  0  0  0  0  0
  -28.3175  -21.9112   20.2045 C   0  0  0  0  0  0
  -28.9526  -23.4334   20.3107 C   0  0  0  0  0  0
  -27.9722  -24.7420   20.0280 C   0  0  0  0  0  0
  -29.6895  -15.9462   20.7177 N   0  0  0  0  0  0
  -31.4817  -12.6859   19.1816 H   0  0  0  0  0  0
  -30.4330  -11.5552   19.9901 H   0  0  0  0  0  0
  -29.8213  -11.7393   17.5549 H   0  0  0  0  0  0
  -29.6241  -13.4680   17.7159 H   0  0  0  0  0  0
  -27.9240  -11.2768   18.9427 H   0  0  0  0  0  0
  -27.3858  -12.4918   17.8134 H   0  0  0  0  0  0
  -27.6250  -14.2505   19.4567 H   0  0  0  0  0  0
  -28.7427  -12.1940   21.4253 H   0  0  0  0  0  0
  -28.3923  -13.8601   21.8016 H   0  0  0  0  0  0
  -25.2738   -9.5652   22.4775 H   0  0  0  0  0  0
  -23.9987   -7.4604   22.7441 H   0  0  0  0  0  0
  -21.0845   -8.8773   19.8929 H   0  0  0  0  0  0
  -22.3699  -10.9678   19.6183 H   0  0  0  0  0  0
  -21.2011   -7.6148   23.9734 H   0  0  0  0  0  0
  -21.1491   -6.0507   25.9086 H   0  0  0  0  0  0
  -22.0597   -2.7614   23.2819 H   0  0  0  0  0  0
  -22.4050  -11.9899   22.4881 H   0  0  0  0  0  0
  -21.1055  -13.1266   22.2652 H   0  0  0  0  0  0
  -24.6321  -15.8324   20.4920 H   0  0  0  0  0  0
  -26.2440  -15.6294   20.0298 H   0  0  0  0  0  0
  -26.7258  -32.5347   23.1013 H   0  0  0  0  0  0
  -25.0133  -33.9625   25.0374 H   0  0  0  0  0  0
  -22.7384  -31.2944   21.3901 H   0  0  0  0  0  0
  -23.3751  -35.9606   23.3293 H   0  0  0  0  0  0
  -24.3569  -36.8908   22.2056 H   0  0  0  0  0  0
  -23.7255  -37.6461   23.6680 H   0  0  0  0  0  0
  -26.1483  -31.4955   20.6162 H   0  0  0  0  0  0
  -26.8639  -30.7818   22.0282 H   0  0  0  0  0  0
  -28.1296  -28.8530   21.2166 H   0  0  0  0  0  0
  -25.9053  -25.8747   19.0046 H   0  0  0  0  0  0
  -23.9696  -27.3034   18.9979 H   0  0  0  0  0  0
  -23.7906  -30.5794   19.4006 H   0  0  0  0  0  0
  -22.7787  -29.2405   19.8468 H   0  0  0  0  0  0
  -25.1310  -36.1868   25.0807 H   0  0  0  0  0  0
  -20.9989  -28.3294   24.1373 H   0  0  0  0  0  0
  -20.5715  -26.2311   23.3616 H   0  0  0  0  0  0
  -21.6652  -26.7438   22.1181 H   0  0  0  0  0  0
  -19.6903  -25.6285   21.1259 H   0  0  0  0  0  0
  -19.6697  -27.3176   20.6748 H   0  0  0  0  0  0
  -17.4212  -26.6680   21.4021 H   0  0  0  0  0  0
  -18.0314  -26.0082   22.9032 H   0  0  0  0  0  0
  -19.7955  -30.7294   24.2205 H   0  0  0  0  0  0
  -17.5028  -31.6260   24.5161 H   0  0  0  0  0  0
  -15.5353  -30.2960   23.7691 H   0  0  0  0  0  0
  -15.8693  -28.0803   22.7084 H   0  0  0  0  0  0
  -24.5859  -30.7175   25.7783 H   0  0  0  0  0  0
  -24.8963  -32.2998   26.4835 H   0  0  0  0  0  0
  -25.8015  -30.8984   27.0242 H   0  0  0  0  0  0
  -26.3002  -29.6715   24.1293 H   0  0  0  0  0  0
  -27.3968  -29.7275   25.4886 H   0  0  0  0  0  0
  -27.8925  -30.4206   23.9638 H   0  0  0  0  0  0
  -27.2553  -33.3659   26.2064 H   0  0  0  0  0  0
  -28.3854  -32.6974   25.0382 H   0  0  0  0  0  0
  -28.0678  -31.8551   26.5479 H   0  0  0  0  0  0
  -28.2580  -38.0094   24.7500 H   0  0  0  0  0  0
  -28.1079  -36.2615   24.6290 H   0  0  0  0  0  0
  -27.2287  -37.1453   25.8860 H   0  0  0  0  0  0
  -20.9459  -29.8776   21.6834 H   0  0  0  0  0  0
  -26.0153  -38.2821   24.1406 H   0  0  0  0  0  0
  -29.2770  -17.8211   22.6220 H   0  0  0  0  0  0
  -29.2775  -20.0152   23.6997 H   0  0  0  0  0  0
  -27.6252  -20.1966   23.1156 H   0  0  0  0  0  0
  -28.8244  -21.4684   22.8336 H   0  0  0  0  0  0
  -29.4536  -21.3736   17.8900 H   0  0  0  0  0  0
  -28.5953  -19.9710   17.2583 H   0  0  0  0  0  0
  -30.3642  -20.0149   17.2990 H   0  0  0  0  0  0
  -31.0067  -17.7129   17.6445 H   0  0  0  0  0  0
  -29.2814  -17.6836   17.2502 H   0  0  0  0  0  0
  -29.9926  -16.3609   18.1371 H   0  0  0  0  0  0
  -27.5018  -21.8938   20.9271 H   0  0  0  0  0  0
  -27.7772  -21.8816   19.2584 H   0  0  0  0  0  0
  -29.7889  -23.4971   19.6144 H   0  0  0  0  0  0
  -29.3909  -23.5454   21.3013 H   0  0  0  0  0  0
  -27.0744  -24.5603   20.6211 H   0  0  0  0  0  0
  -27.6615  -24.6255   18.9889 H   0  0  0  0  0  0
  -28.8297  -15.6108   21.1251 H   0  0  0  0  0  0
  1 25  1  0  0  0
  1 30  2  0  0  0
  1 83  1  0  0  0
  2  3  1  0  0  0
  2 25  1  0  0  0
  2 84  1  0  0  0
  2 85  1  0  0  0
  3  4  1  0  0  0
  3 86  1  0  0  0
  3 87  1  0  0  0
  4  5  1  0  0  0
  4 88  1  0  0  0
  4 89  1  0  0  0
  5  6  1  0  0  0
  5 26  1  0  0  0
  5 90  1  0  0  0
  6 25  1  0  0  0
  6 91  1  0  0  0
  6 92  1  0  0  0
  7  8  2  0  0  0
  7 26  1  0  0  0
  7 29  1  0  0  0
  8  9  1  0  0  0
  8 22  1  0  0  0
  9 10  1  0  0  0
  9 27  2  0  0  0
 10 11  2  0  0  0
 10 15  1  0  0  0
 11 12  1  0  0  0
 11 93  1  0  0  0
 12 13  2  0  0  0
 12 94  1  0  0  0
 13 14  1  0  0  0
 13 31  1  0  0  0
 14 15  2  0  0  0
 14 95  1  0  0  0
 15 96  1  0  0  0
 16 17  2  0  0  0
 16 21  1  0  0  0
 16 31  1  0  0  0
 17 18  1  0  0  0
 17 97  1  0  0  0
 18 19  2  0  0  0
 18 98  1  0  0  0
 19 20  1  0  0  0
 19 24  1  0  0  0
 20 21  2  0  0  0
 20 99  1  0  0  0
 21 23  1  0  0  0
 22 28  1  0  0  0
 22 32  2  0  0  0
 26 27  1  0  0  0
 28100  1  0  0  0
 28101  1  0  0  0
 29102  1  0  0  0
 29103  1  0  0  0
 33 34  1  0  0  0
 33 66  1  0  0  0
 33 70  2  0  0  0
 34 36  1  0  0  0
 34 59  1  0  0  0
 34104  1  0  0  0
 35 44  2  0  0  0
 35 45  1  0  0  0
 35 68  1  0  0  0
 36 56  1  0  0  0
 36105  1  0  0  0
 37 39  1  0  0  0
 37 47  1  0  0  0
 37 66  1  0  0  0
 37106  1  0  0  0
 38 43  2  0  0  0
 38 46  1  0  0  0
 38 47  1  0  0  0
 39 64  1  0  0  0
 39 67  2  0  0  0
 40 52  1  0  0  0
 40 53  2  0  0  0
 40 58  1  0  0  0
 41107  1  0  0  0
 41108  1  0  0  0
 41109  1  0  0  0
 41 48  1  0  0  0
 42 43  1  0  0  0
 42 66  1  0  0  0
 42110  1  0  0  0
 42111  1  0  0  0
 43 44  1  0  0  0
 44112  1  0  0  0
 45 46  2  0  0  0
 45113  1  0  0  0
 46114  1  0  0  0
 47115  1  0  0  0
 47116  1  0  0  0
 48 56  1  0  0  0
 48 65  1  0  0  0
 48117  1  0  0  0
 49 50  1  0  0  0
 49 53  1  0  0  0
 49 64  1  0  0  0
 49118  1  0  0  0
 50 51  1  0  0  0
 50119  1  0  0  0
 50120  1  0  0  0
 51 52  1  0  0  0
 51121  1  0  0  0
 51122  1  0  0  0
 52123  1  0  0  0
 52124  1  0  0  0
 53 54  1  0  0  0
 54 55  2  0  0  0
 54125  1  0  0  0
 55 57  1  0  0  0
 55126  1  0  0  0
 56 69  2  0  0  0
 57 58  2  0  0  0
 57127  1  0  0  0
 58128  1  0  0  0
 59 60  1  0  0  0
 59 61  1  0  0  0
 59 62  1  0  0  0
 60129  1  0  0  0
 60130  1  0  0  0
 60131  1  0  0  0
 61132  1  0  0  0
 61133  1  0  0  0
 61134  1  0  0  0
 62135  1  0  0  0
 62136  1  0  0  0
 62137  1  0  0  0
 63 65  1  0  0  0
 63138  1  0  0  0
 63139  1  0  0  0
 63140  1  0  0  0
 64141  1  0  0  0
 65142  1  0  0  0
 68 82  1  0  0  0
 71 72  2  0  0  0
 71 76  1  0  0  0
 71143  1  0  0  0
 72 74  1  0  0  0
 72 77  1  0  0  0
 73 74  2  0  0  0
 73 75  1  0  0  0
 73 78  1  0  0  0
 74 80  1  0  0  0
 75 76  2  0  0  0
 75 79  1  0  0  0
 76 83  1  0  0  0
 77144  1  0  0  0
 77145  1  0  0  0
 77146  1  0  0  0
 78147  1  0  0  0
 78148  1  0  0  0
 78149  1  0  0  0
 79150  1  0  0  0
 79151  1  0  0  0
 79152  1  0  0  0
 80 81  1  0  0  0
 80153  1  0  0  0
 80154  1  0  0  0
 81 82  1  0  0  0
 81155  1  0  0  0
 81156  1  0  0  0
 82157  1  0  0  0
 82158  1  0  0  0
 83159  1  0  0  0
M  ISO  4   1 100  68 101  82 101  83 100
M  END
> <chiral flag>
0

> <version>
0

> <s_m_source_file>
/data/baiqing/PycharmProjects/Reinvent-master-3.2/result/LINK_invent/BTK/process_docking_weight1_custom_sum_contain_oxygen_bond_distance_aromatic_linkinvent_7_9_3/rearranged_h_0021.sdf

> <i_m_source_file_index>
68

> <r_mmod_Potential_Energy-OPLS-2005>
336.928527832031

> <r_mmod_Stretch_Energy-OPLS-2005>
186.250061035156

> <r_mmod_Bend_Energy-OPLS-2005>
227.729400634766

> <r_mmod_Torsional_Energy-OPLS-2005>
244.369918823242

> <r_mmod_Improper_Torsional_Energy-OPLS-2005>
7.66756391525269

> <r_mmod_Van_der_Waal_Energy-OPLS-2005>
143.017669677734

> <r_mmod_Electrostatic_Energy-OPLS-2005>
-406.582824707031

> <r_mmod_Solvation_Energy-OPLS-2005>
-206.882965087891

> <b_mmod_Minimization_Converged-OPLS-2005>
0

> <r_mmod_RMS_Derivative-OPLS-2005>
2.45392060279846

$$$$
69
                    3D
 Structure written by MMmdl.
168176  0  0  1  0            999 V2000
  -30.8076  -14.3337   20.7369 C   0  0  0  0  0  0
  -30.4125  -12.2888   19.4109 C   0  0  0  0  0  0
  -29.4889  -12.5357   18.2033 C   0  0  0  0  0  0
  -28.0148  -12.3794   18.6153 C   0  0  0  0  0  0
  -27.6673  -13.2081   19.8795 C   0  0  2  0  0  0
  -28.6984  -12.9706   21.0078 C   0  0  0  0  0  0
  -25.2601  -13.8174   20.5663 C   0  0  0  0  0  0
  -24.1849  -13.0447   20.9158 C   0  0  0  0  0  0
  -24.6406  -11.6904   20.8710 C   0  0  0  0  0  0
  -23.9056  -10.4291   21.0376 C   0  0  0  0  0  0
  -24.3602   -9.4215   21.9181 C   0  0  0  0  0  0
  -23.6278   -8.2252   22.0770 C   0  0  0  0  0  0
  -22.4266   -8.0290   21.3557 C   0  0  0  0  0  0
  -21.9897   -9.0240   20.4633 C   0  0  0  0  0  0
  -22.7222  -10.2118   20.3028 C   0  0  0  0  0  0
  -21.6850   -6.0723   22.5273 C   0  0  0  0  0  0
  -21.4003   -6.5618   23.8198 C   0  0  0  0  0  0
  -21.3658   -5.6781   24.9167 C   0  0  0  0  0  0
  -21.6044   -4.3048   24.7226 C   0  0  0  0  0  0
  -21.8827   -3.8131   23.4344 C   0  0  0  0  0  0
  -21.9186   -4.6949   22.3399 C   0  0  0  0  0  0
  -22.7866  -13.5240   21.1816 C   0  0  0  0  0  0
  -22.1669   -4.2137   21.0983 F   0  0  0  0  0  0
  -21.5623   -3.4541   25.7739 F   0  0  0  0  0  0
  -30.0532  -13.2320   20.4839 N   0  0  0  0  0  0
  -26.3046  -12.9355   20.3348 N   0  0  0  0  0  0
  -25.9337  -11.6503   20.5734 N   0  0  0  0  0  0
  -22.0483  -12.8233   22.0351 N   0  0  0  0  0  0
  -25.4342  -15.1898   20.4126 N   0  0  0  0  0  0
  -31.7729  -14.6366   20.0313 O   0  0  0  0  0  0
  -21.6634   -6.8880   21.4244 O   0  0  0  0  0  0
  -22.3560  -14.5568   20.6687 O   0  0  0  0  0  0
  -24.6082  -31.8761   23.2107 C   0  0  0  0  0  0
  -25.8989  -32.4862   23.8416 C   0  0  1  0  0  0
  -27.2386  -27.4836   20.1012 C   0  0  0  0  0  0
  -25.5849  -33.8659   24.2351 N   0  0  0  0  0  0
  -23.3926  -30.4980   21.5526 C   0  0  2  0  0  0
  -24.8409  -28.9640   20.1199 C   0  0  0  0  0  0
  -22.7374  -29.4741   22.5043 C   0  0  0  0  0  0
  -18.0277  -28.1437   22.8534 C   0  0  0  0  0  0
  -24.1460  -36.7295   23.2657 C   0  0  0  0  0  0
  -25.9144  -30.8538   21.3597 C   0  0  0  0  0  0
  -25.9916  -29.4869   20.7218 C   0  0  0  0  0  0
  -27.1941  -28.7512   20.7217 C   0  0  0  0  0  0
  -26.0788  -26.9666   19.4919 C   0  0  0  0  0  0
  -24.8741  -27.6970   19.5082 C   0  0  0  0  0  0
  -23.5967  -29.8230   20.1691 C   0  0  0  0  0  0
  -25.4091  -36.3141   24.0352 C   0  0  1  0  0  0
  -20.5853  -28.3727   23.1339 C   0  0  2  0  0  0
  -20.6765  -26.9484   22.5413 C   0  0  0  0  0  0
  -19.5720  -26.6437   21.5232 C   0  0  0  0  0  0
  -18.1901  -26.7984   22.1647 C   0  0  0  0  0  0
  -19.1527  -28.8890   23.2938 C   0  0  0  0  0  0
  -18.9458  -30.1489   23.8947 C   0  0  0  0  0  0
  -17.6471  -30.6639   24.0598 C   0  0  0  0  0  0
  -25.9026  -34.9511   23.5167 C   0  0  0  0  0  0
  -16.5363  -29.9153   23.6358 C   0  0  0  0  0  0
  -16.7269  -28.6562   23.0399 C   0  0  0  0  0  0
  -26.4392  -31.6618   25.0744 C   0  0  0  0  0  0
  -25.3660  -31.3673   26.1490 C   0  0  0  0  0  0
  -27.0243  -30.3093   24.6069 C   0  0  0  0  0  0
  -27.5905  -32.4372   25.7531 C   0  0  0  0  0  0
  -27.5568  -37.1818   24.8491 C   0  0  0  0  0  0
  -21.4118  -29.3067   22.3740 N   0  0  0  0  0  0
  -26.4284  -37.3829   23.9435 N   0  0  0  0  0  0
  -24.6562  -31.0916   22.0980 N   0  0  0  0  0  0
  -23.4182  -28.8345   23.3116 O   0  0  0  0  0  0
  -28.3872  -26.7411   20.0285 O   0  0  0  0  0  0
  -26.5613  -34.8965   22.4748 O   0  0  0  0  0  0
  -23.5297  -32.1451   23.7548 O   0  0  0  0  0  0
  -30.4835  -16.6732   23.6367 C   0  0  0  0  0  0
  -32.0078  -16.9906   21.7798 C   0  0  0  0  0  0
  -30.8892  -17.9092   24.1926 C   0  0  0  0  0  0
  -32.4297  -18.2210   22.3188 C   0  0  0  0  0  0
  -31.8458  -18.7131   23.5159 C   0  0  0  0  0  0
  -31.0126  -16.2079   22.4124 C   0  0  0  0  0  0
  -30.2573  -18.3596   25.5054 C   0  0  0  0  0  0
  -33.4852  -19.0104   21.5541 C   0  0  0  0  0  0
  -32.1595  -20.1412   23.9701 C   0  0  0  0  0  0
  -30.5561  -24.6902   22.3118 C   0  0  0  0  0  0
  -30.9262  -23.2176   22.0726 C   0  0  0  0  0  0
  -29.8914  -25.2645   21.0482 C   0  0  0  0  0  0
  -31.5779  -22.4878   23.2599 C   0  0  0  0  0  0
  -29.0944  -26.5541   21.2491 C   0  0  0  0  0  0
  -30.4949  -14.9857   21.8755 N   0  0  0  0  0  0
  -31.4539  -21.0355   23.0393 N   0  3  0  0  0  0
  -31.4609  -12.3695   19.1121 H   0  0  0  0  0  0
  -30.2930  -11.2672   19.7758 H   0  0  0  0  0  0
  -29.7276  -11.8387   17.3982 H   0  0  0  0  0  0
  -29.6580  -13.5389   17.8065 H   0  0  0  0  0  0
  -27.8305  -11.3216   18.8036 H   0  0  0  0  0  0
  -27.3605  -12.6592   17.7885 H   0  0  0  0  0  0
  -27.7199  -14.2603   19.5985 H   0  0  0  0  0  0
  -28.6458  -11.9379   21.3570 H   0  0  0  0  0  0
  -28.4362  -13.5849   21.8712 H   0  0  0  0  0  0
  -25.2737   -9.5688   22.4775 H   0  0  0  0  0  0
  -23.9960   -7.4645   22.7520 H   0  0  0  0  0  0
  -21.0823   -8.8735   19.8938 H   0  0  0  0  0  0
  -22.3678  -10.9644   19.6124 H   0  0  0  0  0  0
  -21.2008   -7.6124   23.9700 H   0  0  0  0  0  0
  -21.1470   -6.0511   25.9065 H   0  0  0  0  0  0
  -22.0611   -2.7594   23.2847 H   0  0  0  0  0  0
  -22.4056  -11.9856   22.4694 H   0  0  0  0  0  0
  -21.1094  -13.1256   22.2545 H   0  0  0  0  0  0
  -24.6762  -15.8523   20.5346 H   0  0  0  0  0  0
  -26.2995  -15.6241   20.1141 H   0  0  0  0  0  0
  -26.7104  -32.5587   23.1228 H   0  0  0  0  0  0
  -24.9973  -33.9823   25.0481 H   0  0  0  0  0  0
  -22.6790  -31.3131   21.4119 H   0  0  0  0  0  0
  -23.3763  -35.9590   23.3307 H   0  0  0  0  0  0
  -24.3555  -36.8910   22.2086 H   0  0  0  0  0  0
  -23.7138  -37.6460   23.6664 H   0  0  0  0  0  0
  -26.0166  -31.6141   20.5850 H   0  0  0  0  0  0
  -26.8067  -30.9149   21.9706 H   0  0  0  0  0  0
  -28.0839  -29.1667   21.1721 H   0  0  0  0  0  0
  -26.1135  -25.9977   19.0126 H   0  0  0  0  0  0
  -23.9864  -27.2864   19.0469 H   0  0  0  0  0  0
  -23.6891  -30.5930   19.4024 H   0  0  0  0  0  0
  -22.7222  -29.2337   19.8885 H   0  0  0  0  0  0
  -25.1273  -36.2012   25.0839 H   0  0  0  0  0  0
  -20.9962  -28.3306   24.1457 H   0  0  0  0  0  0
  -20.5704  -26.2370   23.3610 H   0  0  0  0  0  0
  -21.6633  -26.7517   22.1184 H   0  0  0  0  0  0
  -19.6891  -25.6335   21.1289 H   0  0  0  0  0  0
  -19.6655  -27.3260   20.6773 H   0  0  0  0  0  0
  -17.4171  -26.6786   21.4062 H   0  0  0  0  0  0
  -18.0283  -26.0112   22.9029 H   0  0  0  0  0  0
  -19.7931  -30.7328   24.2334 H   0  0  0  0  0  0
  -17.5008  -31.6315   24.5215 H   0  0  0  0  0  0
  -15.5372  -30.3097   23.7591 H   0  0  0  0  0  0
  -15.8668  -28.0890   22.7113 H   0  0  0  0  0  0
  -24.5817  -30.7036   25.7800 H   0  0  0  0  0  0
  -24.8862  -32.2815   26.5027 H   0  0  0  0  0  0
  -25.8039  -30.8763   27.0195 H   0  0  0  0  0  0
  -26.2805  -29.6926   24.1006 H   0  0  0  0  0  0
  -27.3909  -29.7263   25.4519 H   0  0  0  0  0  0
  -27.8675  -30.4462   23.9288 H   0  0  0  0  0  0
  -27.2450  -33.3660   26.2110 H   0  0  0  0  0  0
  -28.3731  -32.6980   25.0379 H   0  0  0  0  0  0
  -28.0551  -31.8512   26.5472 H   0  0  0  0  0  0
  -28.2599  -38.0115   24.7557 H   0  0  0  0  0  0
  -28.1046  -36.2640   24.6289 H   0  0  0  0  0  0
  -27.2279  -37.1452   25.8898 H   0  0  0  0  0  0
  -20.9306  -29.8719   21.6888 H   0  0  0  0  0  0
  -26.0172  -38.2908   24.1431 H   0  0  0  0  0  0
  -29.7316  -16.0883   24.1512 H   0  0  0  0  0  0
  -32.4564  -16.6900   20.8479 H   0  0  0  0  0  0
  -29.6104  -17.5899   25.9314 H   0  0  0  0  0  0
  -29.6517  -19.2550   25.3615 H   0  0  0  0  0  0
  -31.0250  -18.5779   26.2495 H   0  0  0  0  0  0
  -33.9072  -18.4274   20.7346 H   0  0  0  0  0  0
  -34.3178  -19.2861   22.2026 H   0  0  0  0  0  0
  -33.0638  -19.9144   21.1138 H   0  0  0  0  0  0
  -33.2335  -20.3275   23.9515 H   0  0  0  0  0  0
  -31.8340  -20.3469   24.9881 H   0  0  0  0  0  0
  -31.4312  -25.2806   22.5859 H   0  0  0  0  0  0
  -29.8655  -24.7524   23.1549 H   0  0  0  0  0  0
  -31.5755  -23.1392   21.1982 H   0  0  0  0  0  0
  -30.0041  -22.6970   21.8065 H   0  0  0  0  0  0
  -29.2024  -24.5209   20.6467 H   0  0  0  0  0  0
  -30.6460  -25.4176   20.2759 H   0  0  0  0  0  0
  -31.0887  -22.7482   24.2002 H   0  0  0  0  0  0
  -32.6283  -22.7752   23.3485 H   0  0  0  0  0  0
  -29.7506  -27.3991   21.4660 H   0  0  0  0  0  0
  -28.4046  -26.4332   22.0876 H   0  0  0  0  0  0
  -29.7452  -14.5584   22.3986 H   0  0  0  0  0  0
  -30.4789  -20.7842   23.0641 H   0  0  0  0  0  0
  -31.7913  -20.8227   22.1168 H   0  0  0  0  0  0
  1 25  1  0  0  0
  1 30  2  0  0  0
  1 85  1  0  0  0
  2  3  1  0  0  0
  2 25  1  0  0  0
  2 87  1  0  0  0
  2 88  1  0  0  0
  3  4  1  0  0  0
  3 89  1  0  0  0
  3 90  1  0  0  0
  4  5  1  0  0  0
  4 91  1  0  0  0
  4 92  1  0  0  0
  5  6  1  0  0  0
  5 26  1  0  0  0
  5 93  1  0  0  0
  6 25  1  0  0  0
  6 94  1  0  0  0
  6 95  1  0  0  0
  7  8  2  0  0  0
  7 26  1  0  0  0
  7 29  1  0  0  0
  8  9  1  0  0  0
  8 22  1  0  0  0
  9 10  1  0  0  0
  9 27  2  0  0  0
 10 11  2  0  0  0
 10 15  1  0  0  0
 11 12  1  0  0  0
 11 96  1  0  0  0
 12 13  2  0  0  0
 12 97  1  0  0  0
 13 14  1  0  0  0
 13 31  1  0  0  0
 14 15  2  0  0  0
 14 98  1  0  0  0
 15 99  1  0  0  0
 16 17  2  0  0  0
 16 21  1  0  0  0
 16 31  1  0  0  0
 17 18  1  0  0  0
 17100  1  0  0  0
 18 19  2  0  0  0
 18101  1  0  0  0
 19 20  1  0  0  0
 19 24  1  0  0  0
 20 21  2  0  0  0
 20102  1  0  0  0
 21 23  1  0  0  0
 22 28  1  0  0  0
 22 32  2  0  0  0
 26 27  1  0  0  0
 28103  1  0  0  0
 28104  1  0  0  0
 29105  1  0  0  0
 29106  1  0  0  0
 33 34  1  0  0  0
 33 66  1  0  0  0
 33 70  2  0  0  0
 34 36  1  0  0  0
 34 59  1  0  0  0
 34107  1  0  0  0
 35 44  2  0  0  0
 35 45  1  0  0  0
 35 68  1  0  0  0
 36 56  1  0  0  0
 36108  1  0  0  0
 37 39  1  0  0  0
 37 47  1  0  0  0
 37 66  1  0  0  0
 37109  1  0  0  0
 38 43  2  0  0  0
 38 46  1  0  0  0
 38 47  1  0  0  0
 39 64  1  0  0  0
 39 67  2  0  0  0
 40 52  1  0  0  0
 40 53  2  0  0  0
 40 58  1  0  0  0
 41110  1  0  0  0
 41111  1  0  0  0
 41112  1  0  0  0
 41 48  1  0  0  0
 42 43  1  0  0  0
 42 66  1  0  0  0
 42113  1  0  0  0
 42114  1  0  0  0
 43 44  1  0  0  0
 44115  1  0  0  0
 45 46  2  0  0  0
 45116  1  0  0  0
 46117  1  0  0  0
 47118  1  0  0  0
 47119  1  0  0  0
 48 56  1  0  0  0
 48 65  1  0  0  0
 48120  1  0  0  0
 49 50  1  0  0  0
 49 53  1  0  0  0
 49 64  1  0  0  0
 49121  1  0  0  0
 50 51  1  0  0  0
 50122  1  0  0  0
 50123  1  0  0  0
 51 52  1  0  0  0
 51124  1  0  0  0
 51125  1  0  0  0
 52126  1  0  0  0
 52127  1  0  0  0
 53 54  1  0  0  0
 54 55  2  0  0  0
 54128  1  0  0  0
 55 57  1  0  0  0
 55129  1  0  0  0
 56 69  2  0  0  0
 57 58  2  0  0  0
 57130  1  0  0  0
 58131  1  0  0  0
 59 60  1  0  0  0
 59 61  1  0  0  0
 59 62  1  0  0  0
 60132  1  0  0  0
 60133  1  0  0  0
 60134  1  0  0  0
 61135  1  0  0  0
 61136  1  0  0  0
 61137  1  0  0  0
 62138  1  0  0  0
 62139  1  0  0  0
 62140  1  0  0  0
 63 65  1  0  0  0
 63141  1  0  0  0
 63142  1  0  0  0
 63143  1  0  0  0
 64144  1  0  0  0
 65145  1  0  0  0
 68 84  1  0  0  0
 71 73  2  0  0  0
 71 76  1  0  0  0
 71146  1  0  0  0
 72 74  1  0  0  0
 72 76  2  0  0  0
 72147  1  0  0  0
 73 75  1  0  0  0
 73 77  1  0  0  0
 74 75  2  0  0  0
 74 78  1  0  0  0
 75 79  1  0  0  0
 76 85  1  0  0  0
 77148  1  0  0  0
 77149  1  0  0  0
 77150  1  0  0  0
 78151  1  0  0  0
 78152  1  0  0  0
 78153  1  0  0  0
 79 86  1  0  0  0
 79154  1  0  0  0
 79155  1  0  0  0
 80 81  1  0  0  0
 80 82  1  0  0  0
 80156  1  0  0  0
 80157  1  0  0  0
 81 83  1  0  0  0
 81158  1  0  0  0
 81159  1  0  0  0
 82 84  1  0  0  0
 82160  1  0  0  0
 82161  1  0  0  0
 83 86  1  0  0  0
 83162  1  0  0  0
 83163  1  0  0  0
 84164  1  0  0  0
 84165  1  0  0  0
 85166  1  0  0  0
 86167  1  0  0  0
 86168  1  0  0  0
M  CHG  1  86   1
M  ISO  4   1 100  68 101  84 101  85 100
M  END
> <chiral flag>
0

> <version>
0

> <s_m_source_file>
/data/baiqing/PycharmProjects/Reinvent-master-3.2/result/LINK_invent/BTK/process_docking_weight1_custom_sum_contain_oxygen_bond_distance_aromatic_linkinvent_7_9_3/rearranged_h_0021.sdf

> <i_m_source_file_index>
69

> <r_mmod_Potential_Energy-OPLS-2005>
-213.707412719727

> <r_mmod_Stretch_Energy-OPLS-2005>
34.2993392944336

> <r_mmod_Bend_Energy-OPLS-2005>
104.67293548584

> <r_mmod_Torsional_Energy-OPLS-2005>
213.173797607422

> <r_mmod_Improper_Torsional_Energy-OPLS-2005>
3.01339888572693

> <r_mmod_Van_der_Waal_Energy-OPLS-2005>
163.458267211914

> <r_mmod_Electrostatic_Energy-OPLS-2005>
-289.994567871094

> <r_mmod_Solvation_Energy-OPLS-2005>
-449.172119140625

> <b_mmod_Minimization_Converged-OPLS-2005>
0

> <r_mmod_RMS_Derivative-OPLS-2005>
3.6533031463623

$$$$
70
                    3D
 Structure written by MMmdl.
183191  0  0  1  0            999 V2000
  -30.6863  -14.4108   20.6304 C   0  0  0  0  0  0
  -30.4304  -12.2888   19.3964 C   0  0  0  0  0  0
  -29.4886  -12.5158   18.1952 C   0  0  0  0  0  0
  -28.0099  -12.3725   18.6090 C   0  0  0  0  0  0
  -27.6669  -13.1902   19.8817 C   0  0  2  0  0  0
  -28.7042  -12.9049   20.9904 C   0  0  0  0  0  0
  -25.2628  -13.8139   20.5654 C   0  0  0  0  0  0
  -24.1852  -13.0447   20.9144 C   0  0  0  0  0  0
  -24.6376  -11.6904   20.8721 C   0  0  0  0  0  0
  -23.9034  -10.4305   21.0415 C   0  0  0  0  0  0
  -24.3601   -9.4226   21.9187 C   0  0  0  0  0  0
  -23.6292   -8.2252   22.0755 C   0  0  0  0  0  0
  -22.4273   -8.0287   21.3544 C   0  0  0  0  0  0
  -21.9898   -9.0257   20.4648 C   0  0  0  0  0  0
  -22.7213  -10.2148   20.3060 C   0  0  0  0  0  0
  -21.6856   -6.0740   22.5281 C   0  0  0  0  0  0
  -21.4014   -6.5640   23.8218 C   0  0  0  0  0  0
  -21.3659   -5.6792   24.9178 C   0  0  0  0  0  0
  -21.6047   -4.3053   24.7227 C   0  0  0  0  0  0
  -21.8817   -3.8147   23.4345 C   0  0  0  0  0  0
  -21.9198   -4.6967   22.3406 C   0  0  0  0  0  0
  -22.7896  -13.5293   21.1842 C   0  0  0  0  0  0
  -22.1662   -4.2160   21.0979 F   0  0  0  0  0  0
  -21.5640   -3.4528   25.7732 F   0  0  0  0  0  0
  -30.0428  -13.2277   20.4561 N   0  0  0  0  0  0
  -26.3044  -12.9270   20.3390 N   0  0  0  0  0  0
  -25.9296  -11.6439   20.5764 N   0  0  0  0  0  0
  -22.0532  -12.8286   22.0408 N   0  0  0  0  0  0
  -25.4400  -15.1827   20.4030 N   0  0  0  0  0  0
  -31.7679  -14.6926   20.1047 O   0  0  0  0  0  0
  -21.6642   -6.8878   21.4242 O   0  0  0  0  0  0
  -22.3571  -14.5599   20.6720 O   0  0  0  0  0  0
  -24.6138  -31.8717   23.2138 C   0  0  0  0  0  0
  -25.9051  -32.4845   23.8412 C   0  0  1  0  0  0
  -27.2395  -27.4712   20.0854 C   0  0  0  0  0  0
  -25.5925  -33.8638   24.2354 N   0  0  0  0  0  0
  -23.3982  -30.4994   21.5533 C   0  0  2  0  0  0
  -24.8442  -28.9641   20.1206 C   0  0  0  0  0  0
  -22.7419  -29.4714   22.5026 C   0  0  0  0  0  0
  -18.0324  -28.1385   22.8454 C   0  0  0  0  0  0
  -24.1497  -36.7312   23.2637 C   0  0  0  0  0  0
  -25.9246  -30.8482   21.3625 C   0  0  0  0  0  0
  -26.0025  -29.4840   20.7114 C   0  0  0  0  0  0
  -27.2036  -28.7441   20.6916 C   0  0  0  0  0  0
  -26.0646  -26.9601   19.4897 C   0  0  0  0  0  0
  -24.8667  -27.6963   19.5124 C   0  0  0  0  0  0
  -23.6052  -29.8290   20.1686 C   0  0  0  0  0  0
  -25.4111  -36.3110   24.0355 C   0  0  1  0  0  0
  -20.5895  -28.3691   23.1356 C   0  0  2  0  0  0
  -20.6838  -26.9419   22.5498 C   0  0  0  0  0  0
  -19.5883  -26.6427   21.5232 C   0  0  0  0  0  0
  -18.2008  -26.7955   22.1555 C   0  0  0  0  0  0
  -19.1550  -28.8844   23.2907 C   0  0  0  0  0  0
  -18.9473  -30.1440   23.8926 C   0  0  0  0  0  0
  -17.6468  -30.6572   24.0563 C   0  0  0  0  0  0
  -25.9035  -34.9483   23.5138 C   0  0  0  0  0  0
  -16.5379  -29.9082   23.6274 C   0  0  0  0  0  0
  -16.7313  -28.6501   23.0298 C   0  0  0  0  0  0
  -26.4477  -31.6601   25.0725 C   0  0  0  0  0  0
  -25.3744  -31.3705   26.1473 C   0  0  0  0  0  0
  -27.0308  -30.3059   24.6082 C   0  0  0  0  0  0
  -27.6077  -32.4302   25.7462 C   0  0  0  0  0  0
  -27.5589  -37.1809   24.8466 C   0  0  0  0  0  0
  -21.4148  -29.3091   22.3786 N   0  0  0  0  0  0
  -26.4304  -37.3794   23.9403 N   0  0  0  0  0  0
  -24.6631  -31.0862   22.1018 N   0  0  0  0  0  0
  -23.4197  -28.8244   23.3042 O   0  0  0  0  0  0
  -28.4245  -26.7750   20.0521 O   0  0  0  0  0  0
  -26.5590  -34.8928   22.4699 O   0  0  0  0  0  0
  -23.5347  -32.1487   23.7557 O   0  0  0  0  0  0
  -26.0780  -18.1467   22.0320 C   0  0  0  0  0  0
  -26.7908  -18.5983   20.9111 C   0  0  0  0  0  0
  -26.6537  -17.3565   23.0541 C   0  0  0  0  0  0
  -28.1566  -18.2547   20.7692 C   0  0  0  0  0  0
  -28.0326  -16.9915   22.8939 C   0  0  0  0  0  0
  -28.7525  -17.3732   21.7145 C   0  0  0  0  0  0
  -28.9686  -18.8248   19.6070 C   0  0  0  0  0  0
  -28.7817  -16.1894   23.9608 C   0  0  0  0  0  0
  -24.2328  -17.1750   23.9799 C   0  0  0  0  0  0
  -26.0626  -17.7622   25.5113 C   0  0  0  0  0  0
  -25.8149  -15.4053   24.5411 C   0  0  0  0  0  0
  -26.0071  -19.4071   19.8752 C   0  0  0  0  0  0
  -30.1289  -16.7385   21.4185 C   0  0  0  0  0  0
  -25.3808  -20.6880   20.4681 C   0  0  0  0  0  0
  -28.0708  -24.3506   19.7088 C   0  0  0  0  0  0
  -25.1612  -21.8179   19.4433 C   0  0  0  0  0  0
  -26.8408  -23.5274   20.1504 C   0  0  0  0  0  0
  -28.4146  -25.4947   20.6845 C   0  0  0  0  0  0
  -25.7419  -16.9255   24.2516 C   0  0  0  0  0  0
  -29.9734  -15.2942   21.3340 N   0  0  0  0  0  0
  -26.4034  -22.5565   19.1174 N   0  3  0  0  0  0
  -31.4694  -12.4162   19.0892 H   0  0  0  0  0  0
  -30.3550  -11.2632   19.7610 H   0  0  0  0  0  0
  -29.7234  -11.8154   17.3926 H   0  0  0  0  0  0
  -29.6553  -13.5128   17.7851 H   0  0  0  0  0  0
  -27.8120  -11.3146   18.7851 H   0  0  0  0  0  0
  -27.3601  -12.6695   17.7859 H   0  0  0  0  0  0
  -27.7316  -14.2461   19.6162 H   0  0  0  0  0  0
  -28.6708  -11.8507   21.2690 H   0  0  0  0  0  0
  -28.4504  -13.4385   21.9073 H   0  0  0  0  0  0
  -25.2749   -9.5720   22.4749 H   0  0  0  0  0  0
  -24.0015   -7.4650   22.7469 H   0  0  0  0  0  0
  -21.0830   -8.8776   19.8950 H   0  0  0  0  0  0
  -22.3671  -10.9690   19.6169 H   0  0  0  0  0  0
  -21.1995   -7.6143   23.9725 H   0  0  0  0  0  0
  -21.1484   -6.0514   25.9085 H   0  0  0  0  0  0
  -22.0597   -2.7608   23.2840 H   0  0  0  0  0  0
  -22.4120  -11.9925   22.4764 H   0  0  0  0  0  0
  -21.1172  -13.1355   22.2637 H   0  0  0  0  0  0
  -24.7006  -15.8475   20.5922 H   0  0  0  0  0  0
  -26.3363  -15.6304   20.2568 H   0  0  0  0  0  0
  -26.7134  -32.5572   23.1187 H   0  0  0  0  0  0
  -25.0090  -33.9780   25.0506 H   0  0  0  0  0  0
  -22.6859  -31.3151   21.4159 H   0  0  0  0  0  0
  -23.3755  -35.9648   23.3312 H   0  0  0  0  0  0
  -24.3587  -36.8900   22.2040 H   0  0  0  0  0  0
  -23.7251  -37.6534   23.6630 H   0  0  0  0  0  0
  -26.0365  -31.6168   20.5950 H   0  0  0  0  0  0
  -26.8105  -30.8965   21.9841 H   0  0  0  0  0  0
  -28.1023  -29.1493   21.1369 H   0  0  0  0  0  0
  -26.0700  -26.0151   18.9741 H   0  0  0  0  0  0
  -23.9775  -27.2905   19.0491 H   0  0  0  0  0  0
  -23.7048  -30.5969   19.4011 H   0  0  0  0  0  0
  -22.7304  -29.2430   19.8828 H   0  0  0  0  0  0
  -25.1281  -36.1989   25.0858 H   0  0  0  0  0  0
  -20.9967  -28.3298   24.1488 H   0  0  0  0  0  0
  -20.5678  -26.2327   23.3722 H   0  0  0  0  0  0
  -21.6747  -26.7435   22.1385 H   0  0  0  0  0  0
  -19.7076  -25.6373   21.1202 H   0  0  0  0  0  0
  -19.6909  -27.3274   20.6801 H   0  0  0  0  0  0
  -17.4338  -26.6760   21.3897 H   0  0  0  0  0  0
  -18.0345  -26.0067   22.8907 H   0  0  0  0  0  0
  -19.7959  -30.7220   24.2345 H   0  0  0  0  0  0
  -17.5013  -31.6217   24.5215 H   0  0  0  0  0  0
  -15.5369  -30.2963   23.7545 H   0  0  0  0  0  0
  -15.8722  -28.0800   22.7008 H   0  0  0  0  0  0
  -24.5907  -30.7078   25.7792 H   0  0  0  0  0  0
  -24.8948  -32.2861   26.4947 H   0  0  0  0  0  0
  -25.8076  -30.8841   27.0216 H   0  0  0  0  0  0
  -26.2860  -29.6823   24.1143 H   0  0  0  0  0  0
  -27.4103  -29.7299   25.4520 H   0  0  0  0  0  0
  -27.8674  -30.4396   23.9226 H   0  0  0  0  0  0
  -27.2735  -33.3585   26.2108 H   0  0  0  0  0  0
  -28.3837  -32.6892   25.0245 H   0  0  0  0  0  0
  -28.0820  -31.8389   26.5303 H   0  0  0  0  0  0
  -28.2623  -38.0093   24.7509 H   0  0  0  0  0  0
  -28.1067  -36.2622   24.6296 H   0  0  0  0  0  0
  -27.2310  -37.1480   25.8874 H   0  0  0  0  0  0
  -20.9322  -29.8893   21.7086 H   0  0  0  0  0  0
  -26.0202  -38.2893   24.1363 H   0  0  0  0  0  0
  -25.0442  -18.4427   22.0701 H   0  0  0  0  0  0
  -28.6427  -19.8243   19.3283 H   0  0  0  0  0  0
  -28.9017  -18.1781   18.7323 H   0  0  0  0  0  0
  -30.0164  -18.9663   19.8652 H   0  0  0  0  0  0
  -28.7092  -15.1194   23.7639 H   0  0  0  0  0  0
  -28.4327  -16.3753   24.9683 H   0  0  0  0  0  0
  -29.8365  -16.4520   24.0053 H   0  0  0  0  0  0
  -23.9950  -18.2349   23.8797 H   0  0  0  0  0  0
  -23.6093  -16.8171   24.8011 H   0  0  0  0  0  0
  -23.8958  -16.6601   23.0782 H   0  0  0  0  0  0
  -25.8878  -18.8228   25.3239 H   0  0  0  0  0  0
  -27.0890  -17.6762   25.8553 H   0  0  0  0  0  0
  -25.4228  -17.4776   26.3489 H   0  0  0  0  0  0
  -25.6251  -14.8310   23.6335 H   0  0  0  0  0  0
  -25.0592  -15.1057   25.2681 H   0  0  0  0  0  0
  -26.7529  -15.0626   24.9635 H   0  0  0  0  0  0
  -25.2052  -18.7697   19.4991 H   0  0  0  0  0  0
  -26.5894  -19.6302   18.9854 H   0  0  0  0  0  0
  -30.8614  -17.0126   22.1767 H   0  0  0  0  0  0
  -30.5591  -17.0622   20.4752 H   0  0  0  0  0  0
  -25.9836  -21.0548   21.2984 H   0  0  0  0  0  0
  -24.4195  -20.4235   20.9121 H   0  0  0  0  0  0
  -28.9322  -23.6862   19.6273 H   0  0  0  0  0  0
  -27.9296  -24.7565   18.7085 H   0  0  0  0  0  0
  -24.4184  -22.5255   19.8148 H   0  0  0  0  0  0
  -24.7401  -21.4013   18.5275 H   0  0  0  0  0  0
  -26.0043  -24.1896   20.3769 H   0  0  0  0  0  0
  -27.0778  -23.0089   21.0805 H   0  0  0  0  0  0
  -29.4145  -25.3302   21.0871 H   0  0  0  0  0  0
  -27.7530  -25.4955   21.5529 H   0  0  0  0  0  0
  -29.0930  -14.9528   21.6864 H   0  0  0  0  0  0
  -26.2294  -23.0640   18.2629 H   0  0  0  0  0  0
  -27.1390  -21.8976   18.9238 H   0  0  0  0  0  0
  1 25  1  0  0  0
  1 30  2  0  0  0
  1 90  1  0  0  0
  2  3  1  0  0  0
  2 25  1  0  0  0
  2 92  1  0  0  0
  2 93  1  0  0  0
  3  4  1  0  0  0
  3 94  1  0  0  0
  3 95  1  0  0  0
  4  5  1  0  0  0
  4 96  1  0  0  0
  4 97  1  0  0  0
  5  6  1  0  0  0
  5 26  1  0  0  0
  5 98  1  0  0  0
  6 25  1  0  0  0
  6 99  1  0  0  0
  6100  1  0  0  0
  7  8  2  0  0  0
  7 26  1  0  0  0
  7 29  1  0  0  0
  8  9  1  0  0  0
  8 22  1  0  0  0
  9 10  1  0  0  0
  9 27  2  0  0  0
 10 11  2  0  0  0
 10 15  1  0  0  0
 11 12  1  0  0  0
 11101  1  0  0  0
 12 13  2  0  0  0
 12102  1  0  0  0
 13 14  1  0  0  0
 13 31  1  0  0  0
 14 15  2  0  0  0
 14103  1  0  0  0
 15104  1  0  0  0
 16 17  2  0  0  0
 16 21  1  0  0  0
 16 31  1  0  0  0
 17 18  1  0  0  0
 17105  1  0  0  0
 18 19  2  0  0  0
 18106  1  0  0  0
 19 20  1  0  0  0
 19 24  1  0  0  0
 20 21  2  0  0  0
 20107  1  0  0  0
 21 23  1  0  0  0
 22 28  1  0  0  0
 22 32  2  0  0  0
 26 27  1  0  0  0
 28108  1  0  0  0
 28109  1  0  0  0
 29110  1  0  0  0
 29111  1  0  0  0
 33 34  1  0  0  0
 33 66  1  0  0  0
 33 70  2  0  0  0
 34 36  1  0  0  0
 34 59  1  0  0  0
 34112  1  0  0  0
 35 44  2  0  0  0
 35 45  1  0  0  0
 35 68  1  0  0  0
 36 56  1  0  0  0
 36113  1  0  0  0
 37 39  1  0  0  0
 37 47  1  0  0  0
 37 66  1  0  0  0
 37114  1  0  0  0
 38 43  2  0  0  0
 38 46  1  0  0  0
 38 47  1  0  0  0
 39 64  1  0  0  0
 39 67  2  0  0  0
 40 52  1  0  0  0
 40 53  2  0  0  0
 40 58  1  0  0  0
 41115  1  0  0  0
 41116  1  0  0  0
 41117  1  0  0  0
 41 48  1  0  0  0
 42 43  1  0  0  0
 42 66  1  0  0  0
 42118  1  0  0  0
 42119  1  0  0  0
 43 44  1  0  0  0
 44120  1  0  0  0
 45 46  2  0  0  0
 45121  1  0  0  0
 46122  1  0  0  0
 47123  1  0  0  0
 47124  1  0  0  0
 48 56  1  0  0  0
 48 65  1  0  0  0
 48125  1  0  0  0
 49 50  1  0  0  0
 49 53  1  0  0  0
 49 64  1  0  0  0
 49126  1  0  0  0
 50 51  1  0  0  0
 50127  1  0  0  0
 50128  1  0  0  0
 51 52  1  0  0  0
 51129  1  0  0  0
 51130  1  0  0  0
 52131  1  0  0  0
 52132  1  0  0  0
 53 54  1  0  0  0
 54 55  2  0  0  0
 54133  1  0  0  0
 55 57  1  0  0  0
 55134  1  0  0  0
 56 69  2  0  0  0
 57 58  2  0  0  0
 57135  1  0  0  0
 58136  1  0  0  0
 59 60  1  0  0  0
 59 61  1  0  0  0
 59 62  1  0  0  0
 60137  1  0  0  0
 60138  1  0  0  0
 60139  1  0  0  0
 61140  1  0  0  0
 61141  1  0  0  0
 61142  1  0  0  0
 62143  1  0  0  0
 62144  1  0  0  0
 62145  1  0  0  0
 63 65  1  0  0  0
 63146  1  0  0  0
 63147  1  0  0  0
 63148  1  0  0  0
 64149  1  0  0  0
 65150  1  0  0  0
 68 88  1  0  0  0
 71 72  2  0  0  0
 71 73  1  0  0  0
 71151  1  0  0  0
 72 74  1  0  0  0
 72 82  1  0  0  0
 73 75  2  0  0  0
 73 89  1  0  0  0
 74 76  2  0  0  0
 74 77  1  0  0  0
 75 76  1  0  0  0
 75 78  1  0  0  0
 76 83  1  0  0  0
 77152  1  0  0  0
 77153  1  0  0  0
 77154  1  0  0  0
 78155  1  0  0  0
 78156  1  0  0  0
 78157  1  0  0  0
 79158  1  0  0  0
 79159  1  0  0  0
 79160  1  0  0  0
 79 89  1  0  0  0
 80 89  1  0  0  0
 80161  1  0  0  0
 80162  1  0  0  0
 80163  1  0  0  0
 81 89  1  0  0  0
 81164  1  0  0  0
 81165  1  0  0  0
 81166  1  0  0  0
 82 84  1  0  0  0
 82167  1  0  0  0
 82168  1  0  0  0
 83 90  1  0  0  0
 83169  1  0  0  0
 83170  1  0  0  0
 84 86  1  0  0  0
 84171  1  0  0  0
 84172  1  0  0  0
 85 87  1  0  0  0
 85 88  1  0  0  0
 85173  1  0  0  0
 85174  1  0  0  0
 86 91  1  0  0  0
 86175  1  0  0  0
 86176  1  0  0  0
 87 91  1  0  0  0
 87177  1  0  0  0
 87178  1  0  0  0
 88179  1  0  0  0
 88180  1  0  0  0
 90181  1  0  0  0
 91182  1  0  0  0
 91183  1  0  0  0
M  CHG  1  91   1
M  ISO  4   1 100  68 101  88 101  90 100
M  END
> <chiral flag>
0

> <version>
0

> <s_m_source_file>
/data/baiqing/PycharmProjects/Reinvent-master-3.2/result/LINK_invent/BTK/process_docking_weight1_custom_sum_contain_oxygen_bond_distance_aromatic_linkinvent_7_9_3/rearranged_h_0021.sdf

> <i_m_source_file_index>
70

> <r_mmod_Potential_Energy-OPLS-2005>
-226.887619018555

> <r_mmod_Stretch_Energy-OPLS-2005>
45.5459632873535

> <r_mmod_Bend_Energy-OPLS-2005>
117.21533203125

> <r_mmod_Torsional_Energy-OPLS-2005>
257.757995605469

> <r_mmod_Improper_Torsional_Energy-OPLS-2005>
4.00968551635742

> <r_mmod_Van_der_Waal_Energy-OPLS-2005>
172.858154296875

> <r_mmod_Electrostatic_Energy-OPLS-2005>
-385.304443359375

> <r_mmod_Solvation_Energy-OPLS-2005>
-447.545562744141

> <b_mmod_Minimization_Converged-OPLS-2005>
0

> <r_mmod_RMS_Derivative-OPLS-2005>
2.65605854988098

$$$$
71
                    3D
 Structure written by MMmdl.
159167  0  0  1  0            999 V2000
  -30.6861  -14.4478   20.5987 C   0  0  0  0  0  0
  -30.4288  -12.2998   19.4130 C   0  0  0  0  0  0
  -29.4943  -12.5138   18.2040 C   0  0  0  0  0  0
  -28.0153  -12.3720   18.6163 C   0  0  0  0  0  0
  -27.6653  -13.1994   19.8814 C   0  0  2  0  0  0
  -28.7034  -12.9437   20.9962 C   0  0  0  0  0  0
  -25.2601  -13.8149   20.5677 C   0  0  0  0  0  0
  -24.1841  -13.0437   20.9163 C   0  0  0  0  0  0
  -24.6379  -11.6897   20.8726 C   0  0  0  0  0  0
  -23.9045  -10.4288   21.0402 C   0  0  0  0  0  0
  -24.3606   -9.4207   21.9179 C   0  0  0  0  0  0
  -23.6286   -8.2241   22.0752 C   0  0  0  0  0  0
  -22.4268   -8.0278   21.3544 C   0  0  0  0  0  0
  -21.9899   -9.0247   20.4644 C   0  0  0  0  0  0
  -22.7218  -10.2128   20.3053 C   0  0  0  0  0  0
  -21.6849   -6.0735   22.5279 C   0  0  0  0  0  0
  -21.4011   -6.5637   23.8211 C   0  0  0  0  0  0
  -21.3660   -5.6789   24.9173 C   0  0  0  0  0  0
  -21.6047   -4.3051   24.7220 C   0  0  0  0  0  0
  -21.8819   -3.8145   23.4342 C   0  0  0  0  0  0
  -21.9191   -4.6962   22.3398 C   0  0  0  0  0  0
  -22.7864  -13.5240   21.1838 C   0  0  0  0  0  0
  -22.1661   -4.2151   21.0975 F   0  0  0  0  0  0
  -21.5630   -3.4534   25.7733 F   0  0  0  0  0  0
  -30.0400  -13.2595   20.4568 N   0  0  0  0  0  0
  -26.3034  -12.9303   20.3376 N   0  0  0  0  0  0
  -25.9304  -11.6470   20.5760 N   0  0  0  0  0  0
  -22.0505  -12.8233   22.0400 N   0  0  0  0  0  0
  -25.4343  -15.1865   20.4089 N   0  0  0  0  0  0
  -31.7939  -14.6744   20.1021 O   0  0  0  0  0  0
  -21.6635   -6.8874   21.4238 O   0  0  0  0  0  0
  -22.3549  -14.5549   20.6694 O   0  0  0  0  0  0
  -24.6126  -31.8694   23.2118 C   0  0  0  0  0  0
  -25.9035  -32.4825   23.8402 C   0  0  1  0  0  0
  -27.2409  -27.4541   20.0963 C   0  0  0  0  0  0
  -25.5903  -33.8627   24.2340 N   0  0  0  0  0  0
  -23.3995  -30.4898   21.5525 C   0  0  2  0  0  0
  -24.8489  -28.9503   20.1244 C   0  0  0  0  0  0
  -22.7389  -29.4666   22.5025 C   0  0  0  0  0  0
  -18.0257  -28.1373   22.8492 C   0  0  0  0  0  0
  -24.1487  -36.7320   23.2631 C   0  0  0  0  0  0
  -25.9254  -30.8370   21.3641 C   0  0  0  0  0  0
  -26.0057  -29.4690   20.7209 C   0  0  0  0  0  0
  -27.2060  -28.7256   20.7087 C   0  0  0  0  0  0
  -26.0722  -26.9379   19.5029 C   0  0  0  0  0  0
  -24.8744  -27.6806   19.5177 C   0  0  0  0  0  0
  -23.6081  -29.8145   20.1702 C   0  0  0  0  0  0
  -25.4108  -36.3120   24.0336 C   0  0  1  0  0  0
  -20.5842  -28.3662   23.1327 C   0  0  2  0  0  0
  -20.6754  -26.9404   22.5424 C   0  0  0  0  0  0
  -19.5739  -26.6385   21.5213 C   0  0  0  0  0  0
  -18.1907  -26.7922   22.1614 C   0  0  0  0  0  0
  -19.1505  -28.8834   23.2902 C   0  0  0  0  0  0
  -18.9440  -30.1438   23.8916 C   0  0  0  0  0  0
  -17.6447  -30.6590   24.0566 C   0  0  0  0  0  0
  -25.9041  -34.9481   23.5136 C   0  0  0  0  0  0
  -16.5337  -29.9093   23.6328 C   0  0  0  0  0  0
  -16.7248  -28.6503   23.0357 C   0  0  0  0  0  0
  -26.4472  -31.6590   25.0717 C   0  0  0  0  0  0
  -25.3744  -31.3695   26.1472 C   0  0  0  0  0  0
  -27.0284  -30.3024   24.6085 C   0  0  0  0  0  0
  -27.6078  -32.4280   25.7460 C   0  0  0  0  0  0
  -27.5600  -37.1796   24.8448 C   0  0  0  0  0  0
  -21.4121  -29.3034   22.3751 N   0  0  0  0  0  0
  -26.4294  -37.3809   23.9423 N   0  0  0  0  0  0
  -24.6637  -31.0795   22.1017 N   0  0  0  0  0  0
  -23.4162  -28.8214   23.3072 O   0  0  0  0  0  0
  -28.4158  -26.7528   19.9974 O   0  0  0  0  0  0
  -26.5598  -34.8922   22.4695 O   0  0  0  0  0  0
  -23.5327  -32.1455   23.7518 O   0  0  0  0  0  0
  -30.6089  -18.9421   20.2365 C   0  0  0  0  0  0
  -30.2929  -19.6381   21.4242 C   0  0  0  0  0  0
  -29.8339  -18.8986   22.5500 C   0  0  0  0  0  0
  -30.1311  -16.7898   21.3010 C   0  0  0  0  0  0
  -30.5148  -17.5383   20.1618 C   0  0  0  0  0  0
  -29.7683  -17.4796   22.4820 C   0  0  0  0  0  0
  -29.4362  -19.6054   23.8435 C   0  0  0  0  0  0
  -30.5289  -21.1544   21.4754 C   0  0  0  0  0  0
  -28.6401  -24.3674   20.5220 C   0  0  0  0  0  0
  -29.4572  -23.3913   21.4036 C   0  0  0  0  0  0
  -28.6909  -25.8230   21.0426 C   0  0  0  0  0  0
  -29.9970  -15.3687   21.2913 N   0  0  0  0  0  0
  -29.4018  -21.9708   20.9647 N   0  3  0  0  0  0
  -30.7645  -16.9342   18.9754 F   0  0  0  0  0  0
  -29.2544  -16.5564   23.8590 Cl  0  0  0  0  0  0
  -31.4710  -12.4131   19.1105 H   0  0  0  0  0  0
  -30.3399  -11.2805   19.7913 H   0  0  0  0  0  0
  -29.7306  -11.7994   17.4144 H   0  0  0  0  0  0
  -29.6626  -13.5051   17.7804 H   0  0  0  0  0  0
  -27.8249  -11.3145   18.8029 H   0  0  0  0  0  0
  -27.3637  -12.6555   17.7888 H   0  0  0  0  0  0
  -27.7206  -14.2521   19.6037 H   0  0  0  0  0  0
  -28.6754  -11.8970   21.3026 H   0  0  0  0  0  0
  -28.4538  -13.5062   21.8965 H   0  0  0  0  0  0
  -25.2752   -9.5685   22.4750 H   0  0  0  0  0  0
  -24.0001   -7.4632   22.7468 H   0  0  0  0  0  0
  -21.0834   -8.8758   19.8950 H   0  0  0  0  0  0
  -22.3676  -10.9667   19.6164 H   0  0  0  0  0  0
  -21.2003   -7.6143   23.9716 H   0  0  0  0  0  0
  -21.1485   -6.0516   25.9075 H   0  0  0  0  0  0
  -22.0599   -2.7608   23.2836 H   0  0  0  0  0  0
  -22.4118  -11.9887   22.4781 H   0  0  0  0  0  0
  -21.1127  -13.1262   22.2621 H   0  0  0  0  0  0
  -24.6703  -15.8449   20.5171 H   0  0  0  0  0  0
  -26.2939  -15.6242   20.1019 H   0  0  0  0  0  0
  -26.7103  -32.5555   23.1170 H   0  0  0  0  0  0
  -25.0038  -33.9786   25.0474 H   0  0  0  0  0  0
  -22.6884  -31.3057   21.4106 H   0  0  0  0  0  0
  -23.3761  -35.9640   23.3254 H   0  0  0  0  0  0
  -24.3591  -36.8984   22.2054 H   0  0  0  0  0  0
  -23.7212  -37.6500   23.6673 H   0  0  0  0  0  0
  -26.0313  -31.5991   20.5909 H   0  0  0  0  0  0
  -26.8156  -30.8954   21.9788 H   0  0  0  0  0  0
  -28.1057  -29.1290   21.1528 H   0  0  0  0  0  0
  -26.0973  -25.9724   19.0175 H   0  0  0  0  0  0
  -23.9854  -27.2758   19.0538 H   0  0  0  0  0  0
  -23.7109  -30.5850   19.4057 H   0  0  0  0  0  0
  -22.7328  -29.2293   19.8807 H   0  0  0  0  0  0
  -25.1273  -36.1986   25.0827 H   0  0  0  0  0  0
  -20.9920  -28.3233   24.1456 H   0  0  0  0  0  0
  -20.5664  -26.2274   23.3608 H   0  0  0  0  0  0
  -21.6626  -26.7461   22.1225 H   0  0  0  0  0  0
  -19.6914  -25.6297   21.1236 H   0  0  0  0  0  0
  -19.6687  -27.3199   20.6745 H   0  0  0  0  0  0
  -17.4188  -26.6676   21.4002 H   0  0  0  0  0  0
  -18.0300  -26.0047   22.8991 H   0  0  0  0  0  0
  -19.7918  -30.7234   24.2317 H   0  0  0  0  0  0
  -17.5005  -31.6274   24.5154 H   0  0  0  0  0  0
  -15.5341  -30.3008   23.7644 H   0  0  0  0  0  0
  -15.8638  -28.0832   22.7085 H   0  0  0  0  0  0
  -24.5901  -30.7068   25.7794 H   0  0  0  0  0  0
  -24.8948  -32.2848   26.4949 H   0  0  0  0  0  0
  -25.8090  -30.8826   27.0211 H   0  0  0  0  0  0
  -26.2812  -29.6777   24.1178 H   0  0  0  0  0  0
  -27.4081  -29.7273   25.4543 H   0  0  0  0  0  0
  -27.8638  -30.4319   23.9201 H   0  0  0  0  0  0
  -27.2750  -33.3590   26.2058 H   0  0  0  0  0  0
  -28.3874  -32.6819   25.0264 H   0  0  0  0  0  0
  -28.0752  -31.8370   26.5346 H   0  0  0  0  0  0
  -28.2579  -38.0135   24.7580 H   0  0  0  0  0  0
  -28.1136  -36.2676   24.6166 H   0  0  0  0  0  0
  -27.2325  -37.1319   25.8847 H   0  0  0  0  0  0
  -20.9288  -29.8734   21.6948 H   0  0  0  0  0  0
  -26.0184  -38.2881   24.1467 H   0  0  0  0  0  0
  -30.9377  -19.4843   19.3611 H   0  0  0  0  0  0
  -29.0610  -20.6133   23.6727 H   0  0  0  0  0  0
  -30.2901  -19.6655   24.5188 H   0  0  0  0  0  0
  -28.6337  -19.0813   24.3610 H   0  0  0  0  0  0
  -31.4201  -21.3944   20.8927 H   0  0  0  0  0  0
  -30.7768  -21.4533   22.4943 H   0  0  0  0  0  0
  -27.6002  -24.0479   20.4467 H   0  0  0  0  0  0
  -29.0452  -24.3421   19.5096 H   0  0  0  0  0  0
  -29.1218  -23.4524   22.4402 H   0  0  0  0  0  0
  -30.4977  -23.7201   21.3982 H   0  0  0  0  0  0
  -29.6973  -26.0516   21.3957 H   0  0  0  0  0  0
  -28.0283  -25.9509   21.9014 H   0  0  0  0  0  0
  -29.2311  -15.0109   21.8405 H   0  0  0  0  0  0
  -28.5334  -21.5638   21.2707 H   0  0  0  0  0  0
  -29.4222  -21.9248   19.9591 H   0  0  0  0  0  0
  1 25  1  0  0  0
  1 30  2  0  0  0
  1 82  1  0  0  0
  2  3  1  0  0  0
  2 25  1  0  0  0
  2 86  1  0  0  0
  2 87  1  0  0  0
  3  4  1  0  0  0
  3 88  1  0  0  0
  3 89  1  0  0  0
  4  5  1  0  0  0
  4 90  1  0  0  0
  4 91  1  0  0  0
  5  6  1  0  0  0
  5 26  1  0  0  0
  5 92  1  0  0  0
  6 25  1  0  0  0
  6 93  1  0  0  0
  6 94  1  0  0  0
  7  8  2  0  0  0
  7 26  1  0  0  0
  7 29  1  0  0  0
  8  9  1  0  0  0
  8 22  1  0  0  0
  9 10  1  0  0  0
  9 27  2  0  0  0
 10 11  2  0  0  0
 10 15  1  0  0  0
 11 12  1  0  0  0
 11 95  1  0  0  0
 12 13  2  0  0  0
 12 96  1  0  0  0
 13 14  1  0  0  0
 13 31  1  0  0  0
 14 15  2  0  0  0
 14 97  1  0  0  0
 15 98  1  0  0  0
 16 17  2  0  0  0
 16 21  1  0  0  0
 16 31  1  0  0  0
 17 18  1  0  0  0
 17 99  1  0  0  0
 18 19  2  0  0  0
 18100  1  0  0  0
 19 20  1  0  0  0
 19 24  1  0  0  0
 20 21  2  0  0  0
 20101  1  0  0  0
 21 23  1  0  0  0
 22 28  1  0  0  0
 22 32  2  0  0  0
 26 27  1  0  0  0
 28102  1  0  0  0
 28103  1  0  0  0
 29104  1  0  0  0
 29105  1  0  0  0
 33 34  1  0  0  0
 33 66  1  0  0  0
 33 70  2  0  0  0
 34 36  1  0  0  0
 34 59  1  0  0  0
 34106  1  0  0  0
 35 44  2  0  0  0
 35 45  1  0  0  0
 35 68  1  0  0  0
 36 56  1  0  0  0
 36107  1  0  0  0
 37 39  1  0  0  0
 37 47  1  0  0  0
 37 66  1  0  0  0
 37108  1  0  0  0
 38 43  2  0  0  0
 38 46  1  0  0  0
 38 47  1  0  0  0
 39 64  1  0  0  0
 39 67  2  0  0  0
 40 52  1  0  0  0
 40 53  2  0  0  0
 40 58  1  0  0  0
 41109  1  0  0  0
 41110  1  0  0  0
 41111  1  0  0  0
 41 48  1  0  0  0
 42 43  1  0  0  0
 42 66  1  0  0  0
 42112  1  0  0  0
 42113  1  0  0  0
 43 44  1  0  0  0
 44114  1  0  0  0
 45 46  2  0  0  0
 45115  1  0  0  0
 46116  1  0  0  0
 47117  1  0  0  0
 47118  1  0  0  0
 48 56  1  0  0  0
 48 65  1  0  0  0
 48119  1  0  0  0
 49 50  1  0  0  0
 49 53  1  0  0  0
 49 64  1  0  0  0
 49120  1  0  0  0
 50 51  1  0  0  0
 50121  1  0  0  0
 50122  1  0  0  0
 51 52  1  0  0  0
 51123  1  0  0  0
 51124  1  0  0  0
 52125  1  0  0  0
 52126  1  0  0  0
 53 54  1  0  0  0
 54 55  2  0  0  0
 54127  1  0  0  0
 55 57  1  0  0  0
 55128  1  0  0  0
 56 69  2  0  0  0
 57 58  2  0  0  0
 57129  1  0  0  0
 58130  1  0  0  0
 59 60  1  0  0  0
 59 61  1  0  0  0
 59 62  1  0  0  0
 60131  1  0  0  0
 60132  1  0  0  0
 60133  1  0  0  0
 61134  1  0  0  0
 61135  1  0  0  0
 61136  1  0  0  0
 62137  1  0  0  0
 62138  1  0  0  0
 62139  1  0  0  0
 63 65  1  0  0  0
 63140  1  0  0  0
 63141  1  0  0  0
 63142  1  0  0  0
 64143  1  0  0  0
 65144  1  0  0  0
 68 81  1  0  0  0
 71 72  2  0  0  0
 71 75  1  0  0  0
 71145  1  0  0  0
 72 73  1  0  0  0
 72 78  1  0  0  0
 73 76  2  0  0  0
 73 77  1  0  0  0
 74 75  2  0  0  0
 74 76  1  0  0  0
 74 82  1  0  0  0
 75 84  1  0  0  0
 76 85  1  0  0  0
 77146  1  0  0  0
 77147  1  0  0  0
 77148  1  0  0  0
 78 83  1  0  0  0
 78149  1  0  0  0
 78150  1  0  0  0
 79 80  1  0  0  0
 79 81  1  0  0  0
 79151  1  0  0  0
 79152  1  0  0  0
 80 83  1  0  0  0
 80153  1  0  0  0
 80154  1  0  0  0
 81155  1  0  0  0
 81156  1  0  0  0
 82157  1  0  0  0
 83158  1  0  0  0
 83159  1  0  0  0
M  CHG  1  83   1
M  ISO  4   1 100  68 101  81 101  82 100
M  END
> <chiral flag>
0

> <version>
0

> <s_m_source_file>
/data/baiqing/PycharmProjects/Reinvent-master-3.2/result/LINK_invent/BTK/process_docking_weight1_custom_sum_contain_oxygen_bond_distance_aromatic_linkinvent_7_9_3/rearranged_h_0021.sdf

> <i_m_source_file_index>
71

> <r_mmod_Potential_Energy-OPLS-2005>
-305.904357910156

> <r_mmod_Stretch_Energy-OPLS-2005>
36.3532676696777

> <r_mmod_Bend_Energy-OPLS-2005>
94.301399230957

> <r_mmod_Torsional_Energy-OPLS-2005>
242.071365356445

> <r_mmod_Improper_Torsional_Energy-OPLS-2005>
2.73204302787781

> <r_mmod_Van_der_Waal_Energy-OPLS-2005>
155.296890258789

> <r_mmod_Electrostatic_Energy-OPLS-2005>
-349.841949462891

> <r_mmod_Solvation_Energy-OPLS-2005>
-495.862609863281

> <b_mmod_Minimization_Converged-OPLS-2005>
0

> <r_mmod_RMS_Derivative-OPLS-2005>
1.04102849960327

$$$$
72
                    3D
 Structure written by MMmdl.
165173  0  0  1  0            999 V2000
  -30.5851  -14.8450   20.4291 C   0  0  0  0  0  0
  -30.4287  -12.5108   19.5075 C   0  0  0  0  0  0
  -29.5217  -12.5124   18.2580 C   0  0  0  0  0  0
  -28.0506  -12.3186   18.6682 C   0  0  0  0  0  0
  -27.6362  -13.2396   19.8473 C   0  0  2  0  0  0
  -28.6740  -13.2337   20.9910 C   0  0  0  0  0  0
  -25.2492  -13.8199   20.5691 C   0  0  0  0  0  0
  -24.1790  -13.0439   20.9204 C   0  0  0  0  0  0
  -24.6388  -11.6924   20.8725 C   0  0  0  0  0  0
  -23.9064  -10.4300   21.0381 C   0  0  0  0  0  0
  -24.3622   -9.4223   21.9166 C   0  0  0  0  0  0
  -23.6302   -8.2263   22.0745 C   0  0  0  0  0  0
  -22.4282   -8.0279   21.3536 C   0  0  0  0  0  0
  -21.9915   -9.0250   20.4638 C   0  0  0  0  0  0
  -22.7230  -10.2131   20.3034 C   0  0  0  0  0  0
  -21.6868   -6.0721   22.5278 C   0  0  0  0  0  0
  -21.4026   -6.5627   23.8212 C   0  0  0  0  0  0
  -21.3670   -5.6779   24.9173 C   0  0  0  0  0  0
  -21.6048   -4.3043   24.7221 C   0  0  0  0  0  0
  -21.8825   -3.8132   23.4339 C   0  0  0  0  0  0
  -21.9201   -4.6951   22.3400 C   0  0  0  0  0  0
  -22.7822  -13.5220   21.1858 C   0  0  0  0  0  0
  -22.1666   -4.2141   21.0969 F   0  0  0  0  0  0
  -21.5629   -3.4520   25.7729 F   0  0  0  0  0  0
  -29.9651  -13.6054   20.4031 N   0  0  0  0  0  0
  -26.2908  -12.9421   20.3261 N   0  0  0  0  0  0
  -25.9316  -11.6558   20.5730 N   0  0  0  0  0  0
  -22.0474  -12.8217   22.0422 N   0  0  0  0  0  0
  -25.4170  -15.1923   20.4104 N   0  0  0  0  0  0
  -31.7748  -14.8988   20.1052 O   0  0  0  0  0  0
  -21.6659   -6.8868   21.4236 O   0  0  0  0  0  0
  -22.3511  -14.5522   20.6687 O   0  0  0  0  0  0
  -24.6394  -31.8494   23.1935 C   0  0  0  0  0  0
  -25.9196  -32.4709   23.8303 C   0  0  1  0  0  0
  -27.2198  -27.1957   20.1474 C   0  0  0  0  0  0
  -25.5984  -33.8520   24.2232 N   0  0  0  0  0  0
  -23.4378  -30.4720   21.5381 C   0  0  2  0  0  0
  -24.8842  -28.9029   20.1142 C   0  0  0  0  0  0
  -22.7534  -29.4592   22.4878 C   0  0  0  0  0  0
  -18.0304  -28.1393   22.8469 C   0  0  0  0  0  0
  -24.1490  -36.7259   23.2636 C   0  0  0  0  0  0
  -25.9888  -30.7415   21.3823 C   0  0  0  0  0  0
  -26.0602  -29.3576   20.7258 C   0  0  0  0  0  0
  -27.2313  -28.5220   20.7212 C   0  0  0  0  0  0
  -26.0228  -26.8259   19.4968 C   0  0  0  0  0  0
  -24.8753  -27.6478   19.4853 C   0  0  0  0  0  0
  -23.6609  -29.8041   20.1558 C   0  0  0  0  0  0
  -25.4122  -36.3042   24.0316 C   0  0  1  0  0  0
  -20.5910  -28.3732   23.1230 C   0  0  2  0  0  0
  -20.6794  -26.9441   22.5402 C   0  0  0  0  0  0
  -19.5771  -26.6387   21.5209 C   0  0  0  0  0  0
  -18.1946  -26.7932   22.1612 C   0  0  0  0  0  0
  -19.1555  -28.8878   23.2844 C   0  0  0  0  0  0
  -18.9483  -30.1473   23.8863 C   0  0  0  0  0  0
  -17.6477  -30.6586   24.0568 C   0  0  0  0  0  0
  -25.9082  -34.9415   23.5078 C   0  0  0  0  0  0
  -16.5368  -29.9083   23.6336 C   0  0  0  0  0  0
  -16.7286  -28.6513   23.0338 C   0  0  0  0  0  0
  -26.4554  -31.6535   25.0705 C   0  0  0  0  0  0
  -25.3771  -31.3702   26.1421 C   0  0  0  0  0  0
  -27.0428  -30.2936   24.6242 C   0  0  0  0  0  0
  -27.6083  -32.4299   25.7503 C   0  0  0  0  0  0
  -27.5575  -37.1785   24.8466 C   0  0  0  0  0  0
  -21.4239  -29.3064   22.3608 N   0  0  0  0  0  0
  -26.4280  -37.3759   23.9419 N   0  0  0  0  0  0
  -24.7079  -31.0414   22.0931 N   0  0  0  0  0  0
  -23.4197  -28.8142   23.3012 O   0  0  0  0  0  0
  -28.3045  -26.2671   20.1647 O   0  0  0  0  0  0
  -26.5655  -34.8904   22.4648 O   0  0  0  0  0  0
  -23.5531  -32.1356   23.7199 O   0  0  0  0  0  0
  -28.4698  -21.0104   19.5262 C   0  0  0  0  0  0
  -28.7039  -19.5875   19.5209 C   0  0  0  0  0  0
  -29.1907  -21.9836   20.2910 C   0  0  0  0  0  0
  -29.6786  -18.9577   20.3531 C   0  0  0  0  0  0
  -30.1573  -21.3681   21.2102 C   0  0  0  0  0  0
  -30.3101  -19.8910   21.2476 C   0  0  0  0  0  0
  -27.9285  -18.7493   18.5195 C   0  0  0  0  0  0
  -31.0997  -23.7585   21.9521 C   0  0  0  0  0  0
  -32.6001  -21.8874   21.9344 C   0  0  0  0  0  0
  -30.6717  -22.0511   23.6257 C   0  0  0  0  0  0
  -29.0207  -23.5627   19.8389 C   0  0  0  0  0  0
  -30.2795  -17.4474   20.0816 C   0  0  0  0  0  0
  -28.0976  -24.7773   20.4896 C   0  0  0  0  0  0
  -31.0973  -22.2278   22.1490 C   0  0  0  0  0  0
  -29.8452  -16.0355   20.5748 N   0  0  0  0  0  0
  -31.3211  -19.0877   22.4070 Cl  0  0  0  0  0  0
  -31.4732  -12.6288   19.2140 H   0  0  0  0  0  0
  -30.3722  -11.5479   20.0185 H   0  0  0  0  0  0
  -29.8266  -11.7270   17.5643 H   0  0  0  0  0  0
  -29.6362  -13.4573   17.7243 H   0  0  0  0  0  0
  -27.9305  -11.2725   18.9558 H   0  0  0  0  0  0
  -27.3934  -12.4757   17.8123 H   0  0  0  0  0  0
  -27.6131  -14.2500   19.4390 H   0  0  0  0  0  0
  -28.7342  -12.2528   21.4646 H   0  0  0  0  0  0
  -28.3900  -13.9392   21.7731 H   0  0  0  0  0  0
  -25.2769   -9.5723   22.4738 H   0  0  0  0  0  0
  -24.0020   -7.4665   22.7465 H   0  0  0  0  0  0
  -21.0848   -8.8753   19.8946 H   0  0  0  0  0  0
  -22.3672  -10.9665   19.6147 H   0  0  0  0  0  0
  -21.2015   -7.6139   23.9712 H   0  0  0  0  0  0
  -21.1486   -6.0505   25.9079 H   0  0  0  0  0  0
  -22.0590   -2.7593   23.2840 H   0  0  0  0  0  0
  -22.4103  -11.9894   22.4840 H   0  0  0  0  0  0
  -21.1076  -13.1222   22.2582 H   0  0  0  0  0  0
  -24.6454  -15.8405   20.5165 H   0  0  0  0  0  0
  -26.2572  -15.6351   20.0624 H   0  0  0  0  0  0
  -26.7255  -32.5332   23.1031 H   0  0  0  0  0  0
  -25.0139  -33.9662   25.0382 H   0  0  0  0  0  0
  -22.7374  -31.2972   21.3899 H   0  0  0  0  0  0
  -23.3759  -35.9583   23.3276 H   0  0  0  0  0  0
  -24.3571  -36.8916   22.2055 H   0  0  0  0  0  0
  -23.7238  -37.6444   23.6690 H   0  0  0  0  0  0
  -26.1415  -31.4973   20.6099 H   0  0  0  0  0  0
  -26.8601  -30.7872   22.0230 H   0  0  0  0  0  0
  -28.1329  -28.8768   21.2007 H   0  0  0  0  0  0
  -25.9611  -25.8745   18.9883 H   0  0  0  0  0  0
  -23.9794  -27.2981   18.9908 H   0  0  0  0  0  0
  -23.8018  -30.5833   19.4056 H   0  0  0  0  0  0
  -22.7730  -29.2534   19.8411 H   0  0  0  0  0  0
  -25.1305  -36.1869   25.0806 H   0  0  0  0  0  0
  -21.0005  -28.3335   24.1347 H   0  0  0  0  0  0
  -20.5685  -26.2367   23.3637 H   0  0  0  0  0  0
  -21.6665  -26.7456   22.1208 H   0  0  0  0  0  0
  -19.6946  -25.6295   21.1253 H   0  0  0  0  0  0
  -19.6692  -27.3182   20.6725 H   0  0  0  0  0  0
  -17.4231  -26.6680   21.3998 H   0  0  0  0  0  0
  -18.0334  -26.0067   22.8997 H   0  0  0  0  0  0
  -19.7964  -30.7302   24.2194 H   0  0  0  0  0  0
  -17.5039  -31.6249   24.5199 H   0  0  0  0  0  0
  -15.5371  -30.2980   23.7676 H   0  0  0  0  0  0
  -15.8691  -28.0834   22.7037 H   0  0  0  0  0  0
  -24.5948  -30.7049   25.7754 H   0  0  0  0  0  0
  -24.8972  -32.2879   26.4825 H   0  0  0  0  0  0
  -25.8081  -30.8895   27.0210 H   0  0  0  0  0  0
  -26.3031  -29.6630   24.1290 H   0  0  0  0  0  0
  -27.4115  -29.7246   25.4788 H   0  0  0  0  0  0
  -27.8907  -30.4182   23.9502 H   0  0  0  0  0  0
  -27.2656  -33.3599   26.2053 H   0  0  0  0  0  0
  -28.3913  -32.6856   25.0351 H   0  0  0  0  0  0
  -28.0730  -31.8446   26.5448 H   0  0  0  0  0  0
  -28.2588  -38.0087   24.7524 H   0  0  0  0  0  0
  -28.1078  -36.2620   24.6274 H   0  0  0  0  0  0
  -27.2301  -37.1409   25.8870 H   0  0  0  0  0  0
  -20.9439  -29.8773   21.6788 H   0  0  0  0  0  0
  -26.0142  -38.2823   24.1425 H   0  0  0  0  0  0
  -27.7512  -21.3883   18.8123 H   0  0  0  0  0  0
  -27.0341  -19.2728   18.1774 H   0  0  0  0  0  0
  -27.6073  -17.8046   18.9590 H   0  0  0  0  0  0
  -28.5434  -18.5330   17.6461 H   0  0  0  0  0  0
  -31.5163  -24.0545   20.9911 H   0  0  0  0  0  0
  -31.7369  -24.2502   22.6899 H   0  0  0  0  0  0
  -30.1254  -24.2013   22.1056 H   0  0  0  0  0  0
  -32.8453  -21.8464   20.8722 H   0  0  0  0  0  0
  -32.9371  -20.9625   22.3863 H   0  0  0  0  0  0
  -33.2582  -22.6374   22.3755 H   0  0  0  0  0  0
  -29.6537  -22.4099   23.7802 H   0  0  0  0  0  0
  -31.3173  -22.6175   24.2985 H   0  0  0  0  0  0
  -30.6940  -21.0237   23.9766 H   0  0  0  0  0  0
  -28.6262  -23.4911   18.8262 H   0  0  0  0  0  0
  -30.0056  -23.9589   19.6177 H   0  0  0  0  0  0
  -31.3477  -17.5089   20.2873 H   0  0  0  0  0  0
  -30.2644  -17.3470   18.9950 H   0  0  0  0  0  0
  -28.1716  -24.7248   21.5728 H   0  0  0  0  0  0
  -27.0596  -24.5037   20.3075 H   0  0  0  0  0  0
  -28.8850  -15.9330   20.8676 H   0  0  0  0  0  0
  1 25  1  0  0  0
  1 30  2  0  0  0
  1 85  1  0  0  0
  2  3  1  0  0  0
  2 25  1  0  0  0
  2 87  1  0  0  0
  2 88  1  0  0  0
  3  4  1  0  0  0
  3 89  1  0  0  0
  3 90  1  0  0  0
  4  5  1  0  0  0
  4 91  1  0  0  0
  4 92  1  0  0  0
  5  6  1  0  0  0
  5 26  1  0  0  0
  5 93  1  0  0  0
  6 25  1  0  0  0
  6 94  1  0  0  0
  6 95  1  0  0  0
  7  8  2  0  0  0
  7 26  1  0  0  0
  7 29  1  0  0  0
  8  9  1  0  0  0
  8 22  1  0  0  0
  9 10  1  0  0  0
  9 27  2  0  0  0
 10 11  2  0  0  0
 10 15  1  0  0  0
 11 12  1  0  0  0
 11 96  1  0  0  0
 12 13  2  0  0  0
 12 97  1  0  0  0
 13 14  1  0  0  0
 13 31  1  0  0  0
 14 15  2  0  0  0
 14 98  1  0  0  0
 15 99  1  0  0  0
 16 17  2  0  0  0
 16 21  1  0  0  0
 16 31  1  0  0  0
 17 18  1  0  0  0
 17100  1  0  0  0
 18 19  2  0  0  0
 18101  1  0  0  0
 19 20  1  0  0  0
 19 24  1  0  0  0
 20 21  2  0  0  0
 20102  1  0  0  0
 21 23  1  0  0  0
 22 28  1  0  0  0
 22 32  2  0  0  0
 26 27  1  0  0  0
 28103  1  0  0  0
 28104  1  0  0  0
 29105  1  0  0  0
 29106  1  0  0  0
 33 34  1  0  0  0
 33 66  1  0  0  0
 33 70  2  0  0  0
 34 36  1  0  0  0
 34 59  1  0  0  0
 34107  1  0  0  0
 35 44  2  0  0  0
 35 45  1  0  0  0
 35 68  1  0  0  0
 36 56  1  0  0  0
 36108  1  0  0  0
 37 39  1  0  0  0
 37 47  1  0  0  0
 37 66  1  0  0  0
 37109  1  0  0  0
 38 43  2  0  0  0
 38 46  1  0  0  0
 38 47  1  0  0  0
 39 64  1  0  0  0
 39 67  2  0  0  0
 40 52  1  0  0  0
 40 53  2  0  0  0
 40 58  1  0  0  0
 41110  1  0  0  0
 41111  1  0  0  0
 41112  1  0  0  0
 41 48  1  0  0  0
 42 43  1  0  0  0
 42 66  1  0  0  0
 42113  1  0  0  0
 42114  1  0  0  0
 43 44  1  0  0  0
 44115  1  0  0  0
 45 46  2  0  0  0
 45116  1  0  0  0
 46117  1  0  0  0
 47118  1  0  0  0
 47119  1  0  0  0
 48 56  1  0  0  0
 48 65  1  0  0  0
 48120  1  0  0  0
 49 50  1  0  0  0
 49 53  1  0  0  0
 49 64  1  0  0  0
 49121  1  0  0  0
 50 51  1  0  0  0
 50122  1  0  0  0
 50123  1  0  0  0
 51 52  1  0  0  0
 51124  1  0  0  0
 51125  1  0  0  0
 52126  1  0  0  0
 52127  1  0  0  0
 53 54  1  0  0  0
 54 55  2  0  0  0
 54128  1  0  0  0
 55 57  1  0  0  0
 55129  1  0  0  0
 56 69  2  0  0  0
 57 58  2  0  0  0
 57130  1  0  0  0
 58131  1  0  0  0
 59 60  1  0  0  0
 59 61  1  0  0  0
 59 62  1  0  0  0
 60132  1  0  0  0
 60133  1  0  0  0
 60134  1  0  0  0
 61135  1  0  0  0
 61136  1  0  0  0
 61137  1  0  0  0
 62138  1  0  0  0
 62139  1  0  0  0
 62140  1  0  0  0
 63 65  1  0  0  0
 63141  1  0  0  0
 63142  1  0  0  0
 63143  1  0  0  0
 64144  1  0  0  0
 65145  1  0  0  0
 68 83  1  0  0  0
 71 72  2  0  0  0
 71 73  1  0  0  0
 71146  1  0  0  0
 72 74  1  0  0  0
 72 77  1  0  0  0
 73 75  2  0  0  0
 73 81  1  0  0  0
 74 76  2  0  0  0
 74 82  1  0  0  0
 75 76  1  0  0  0
 75 84  1  0  0  0
 76 86  1  0  0  0
 77147  1  0  0  0
 77148  1  0  0  0
 77149  1  0  0  0
 78150  1  0  0  0
 78151  1  0  0  0
 78152  1  0  0  0
 78 84  1  0  0  0
 79 84  1  0  0  0
 79153  1  0  0  0
 79154  1  0  0  0
 79155  1  0  0  0
 80 84  1  0  0  0
 80156  1  0  0  0
 80157  1  0  0  0
 80158  1  0  0  0
 81 83  1  0  0  0
 81159  1  0  0  0
 81160  1  0  0  0
 82 85  1  0  0  0
 82161  1  0  0  0
 82162  1  0  0  0
 83163  1  0  0  0
 83164  1  0  0  0
 85165  1  0  0  0
M  ISO  4   1 100  68 101  83 101  85 100
M  END
> <chiral flag>
0

> <version>
0

> <s_m_source_file>
/data/baiqing/PycharmProjects/Reinvent-master-3.2/result/LINK_invent/BTK/process_docking_weight1_custom_sum_contain_oxygen_bond_distance_aromatic_linkinvent_7_9_3/rearranged_h_0021.sdf

> <i_m_source_file_index>
72

> <r_mmod_Potential_Energy-OPLS-2005>
472.266143798828

> <r_mmod_Stretch_Energy-OPLS-2005>
214.392822265625

> <r_mmod_Bend_Energy-OPLS-2005>
274.910949707031

> <r_mmod_Torsional_Energy-OPLS-2005>
252.97966003418

> <r_mmod_Improper_Torsional_Energy-OPLS-2005>
9.99647808074951

> <r_mmod_Van_der_Waal_Energy-OPLS-2005>
168.8115234375

> <r_mmod_Electrostatic_Energy-OPLS-2005>
-379.958831787109

> <r_mmod_Solvation_Energy-OPLS-2005>
-199.061477661133

> <b_mmod_Minimization_Converged-OPLS-2005>
0

> <r_mmod_RMS_Derivative-OPLS-2005>
2.21674060821533

$$$$
73
                    3D
 Structure written by MMmdl.
159167  0  0  1  0            999 V2000
  -30.6621  -14.6885   20.4290 C   0  0  0  0  0  0
  -30.4642  -12.4128   19.3968 C   0  0  0  0  0  0
  -29.5024  -12.4475   18.1877 C   0  0  0  0  0  0
  -28.0210  -12.3632   18.6107 C   0  0  0  0  0  0
  -27.6683  -13.2160   19.8636 C   0  0  2  0  0  0
  -28.7520  -13.0786   20.9568 C   0  0  0  0  0  0
  -25.2742  -13.8148   20.5776 C   0  0  0  0  0  0
  -24.1917  -13.0415   20.9214 C   0  0  0  0  0  0
  -24.6445  -11.6896   20.8705 C   0  0  0  0  0  0
  -23.9042  -10.4302   21.0316 C   0  0  0  0  0  0
  -24.3558   -9.4273   21.9135 C   0  0  0  0  0  0
  -23.6251   -8.2291   22.0757 C   0  0  0  0  0  0
  -22.4284   -8.0272   21.3498 C   0  0  0  0  0  0
  -21.9861   -9.0262   20.4646 C   0  0  0  0  0  0
  -22.7138  -10.2170   20.3035 C   0  0  0  0  0  0
  -21.6856   -6.0731   22.5260 C   0  0  0  0  0  0
  -21.3986   -6.5605   23.8202 C   0  0  0  0  0  0
  -21.3669   -5.6761   24.9163 C   0  0  0  0  0  0
  -21.6052   -4.3029   24.7207 C   0  0  0  0  0  0
  -21.8816   -3.8132   23.4322 C   0  0  0  0  0  0
  -21.9214   -4.6932   22.3377 C   0  0  0  0  0  0
  -22.7985  -13.5311   21.1834 C   0  0  0  0  0  0
  -22.1699   -4.2136   21.0962 F   0  0  0  0  0  0
  -21.5661   -3.4510   25.7722 F   0  0  0  0  0  0
  -30.0313  -13.4653   20.3420 N   0  0  0  0  0  0
  -26.3158  -12.9302   20.3427 N   0  0  0  0  0  0
  -25.9415  -11.6454   20.5810 N   0  0  0  0  0  0
  -22.0678  -12.8301   22.0432 N   0  0  0  0  0  0
  -25.4417  -15.1826   20.4232 N   0  0  0  0  0  0
  -31.8482  -14.7970   20.1191 O   0  0  0  0  0  0
  -21.6624   -6.8860   21.4240 O   0  0  0  0  0  0
  -22.3658  -14.5645   20.6766 O   0  0  0  0  0  0
  -24.6321  -31.8697   23.2137 C   0  0  0  0  0  0
  -25.9188  -32.4810   23.8421 C   0  0  1  0  0  0
  -27.1809  -27.3331   20.0595 C   0  0  0  0  0  0
  -25.6022  -33.8612   24.2352 N   0  0  0  0  0  0
  -23.4148  -30.5031   21.5690 C   0  0  2  0  0  0
  -24.8383  -28.9612   20.1271 C   0  0  0  0  0  0
  -22.7497  -29.4713   22.5106 C   0  0  0  0  0  0
  -18.0415  -28.1202   22.8414 C   0  0  0  0  0  0
  -24.1477  -36.7212   23.2625 C   0  0  0  0  0  0
  -25.9631  -30.8028   21.3786 C   0  0  0  0  0  0
  -26.0236  -29.4346   20.7050 C   0  0  0  0  0  0
  -27.2093  -28.6372   20.6507 C   0  0  0  0  0  0
  -25.9752  -26.9294   19.4652 C   0  0  0  0  0  0
  -24.8105  -27.7048   19.5139 C   0  0  0  0  0  0
  -23.6110  -29.8454   20.1840 C   0  0  0  0  0  0
  -25.4125  -36.3086   24.0329 C   0  0  1  0  0  0
  -20.5972  -28.3675   23.1311 C   0  0  2  0  0  0
  -20.7002  -26.9485   22.5233 C   0  0  0  0  0  0
  -19.6004  -26.6639   21.4950 C   0  0  0  0  0  0
  -18.2212  -26.7816   22.1431 C   0  0  0  0  0  0
  -19.1577  -28.8737   23.2900 C   0  0  0  0  0  0
  -18.9381  -30.1334   23.8960 C   0  0  0  0  0  0
  -17.6308  -30.6330   24.0581 C   0  0  0  0  0  0
  -25.9102  -34.9456   23.5115 C   0  0  0  0  0  0
  -16.5301  -29.8743   23.6239 C   0  0  0  0  0  0
  -16.7365  -28.6195   23.0229 C   0  0  0  0  0  0
  -26.4509  -31.6633   25.0815 C   0  0  0  0  0  0
  -25.3689  -31.3840   26.1516 C   0  0  0  0  0  0
  -27.0342  -30.3032   24.6327 C   0  0  0  0  0  0
  -27.6077  -32.4374   25.7581 C   0  0  0  0  0  0
  -27.5567  -37.1765   24.8482 C   0  0  0  0  0  0
  -21.4223  -29.3117   22.3837 N   0  0  0  0  0  0
  -26.4291  -37.3798   23.9433 N   0  0  0  0  0  0
  -24.6891  -31.0732   22.1063 N   0  0  0  0  0  0
  -23.4244  -28.8212   23.3098 O   0  0  0  0  0  0
  -28.2697  -26.4561   19.9728 O   0  0  0  0  0  0
  -26.5646  -34.8910   22.4681 O   0  0  0  0  0  0
  -23.5503  -32.1504   23.7518 O   0  0  0  0  0  0
  -26.9624  -23.4288   19.5587 C   0  0  0  0  0  0
  -28.1128  -23.7583   20.2998 C   0  0  0  0  0  0
  -26.5855  -22.0957   19.3117 C   0  0  0  0  0  0
  -28.9539  -22.6354   20.6944 C   0  0  0  0  0  0
  -28.6552  -21.2328   20.3739 C   0  0  0  0  0  0
  -27.3934  -21.0075   19.7243 C   0  0  0  0  0  0
  -25.2233  -21.8554   18.6748 C   0  0  0  0  0  0
  -30.1601  -22.9891   21.5586 C   0  0  0  0  0  0
  -29.6862  -20.0367   20.7213 C   0  0  0  0  0  0
  -28.2796  -25.2551   20.8363 C   0  0  0  0  0  0
  -29.4555  -18.4592   20.3878 C   0  0  0  0  0  0
  -30.3378  -17.2485   21.0038 C   0  0  0  0  0  0
  -29.9075  -15.8181   20.6784 N   0  0  0  0  0  0
  -26.7157  -19.4331   19.4541 Cl  0  0  0  0  0  0
  -31.4887  -12.5522   19.0422 H   0  0  0  0  0  0
  -30.4540  -11.4300   19.8791 H   0  0  0  0  0  0
  -29.7257  -11.6154   17.5143 H   0  0  0  0  0  0
  -29.6663  -13.3509   17.6028 H   0  0  0  0  0  0
  -27.7941  -11.3144   18.7926 H   0  0  0  0  0  0
  -27.3793  -12.6586   17.7805 H   0  0  0  0  0  0
  -27.6887  -14.2521   19.5339 H   0  0  0  0  0  0
  -28.5403  -13.6861   21.8394 H   0  0  0  0  0  0
  -28.8176  -12.0420   21.3046 H   0  0  0  0  0  0
  -25.2704   -9.5819   22.4686 H   0  0  0  0  0  0
  -23.9978   -7.4731   22.7503 H   0  0  0  0  0  0
  -21.0785   -8.8718   19.8995 H   0  0  0  0  0  0
  -22.3498  -10.9682   19.6165 H   0  0  0  0  0  0
  -21.1946   -7.6117   23.9672 H   0  0  0  0  0  0
  -21.1503   -6.0508   25.9049 H   0  0  0  0  0  0
  -22.0599   -2.7576   23.2824 H   0  0  0  0  0  0
  -22.4228  -11.9800   22.4553 H   0  0  0  0  0  0
  -21.1390  -13.1456   22.2775 H   0  0  0  0  0  0
  -24.6744  -15.8257   20.5819 H   0  0  0  0  0  0
  -26.2645  -15.6305   20.0380 H   0  0  0  0  0  0
  -26.7264  -32.5427   23.1186 H   0  0  0  0  0  0
  -25.0187  -33.9771   25.0487 H   0  0  0  0  0  0
  -22.7035  -31.3215   21.4414 H   0  0  0  0  0  0
  -23.3802  -35.9466   23.3320 H   0  0  0  0  0  0
  -24.3534  -36.8797   22.2017 H   0  0  0  0  0  0
  -23.7117  -37.6380   23.6620 H   0  0  0  0  0  0
  -26.1189  -31.5821   20.6303 H   0  0  0  0  0  0
  -26.8361  -30.8261   22.0185 H   0  0  0  0  0  0
  -28.1312  -29.0258   21.0590 H   0  0  0  0  0  0
  -25.9150  -26.0199   18.9095 H   0  0  0  0  0  0
  -23.8946  -27.3429   19.0684 H   0  0  0  0  0  0
  -23.7163  -30.6271   19.4303 H   0  0  0  0  0  0
  -22.7234  -29.2785   19.8967 H   0  0  0  0  0  0
  -25.1276  -36.1937   25.0808 H   0  0  0  0  0  0
  -21.0038  -28.3173   24.1458 H   0  0  0  0  0  0
  -20.6067  -26.2154   23.3274 H   0  0  0  0  0  0
  -21.6861  -26.7720   22.0880 H   0  0  0  0  0  0
  -19.7372  -25.6762   21.0545 H   0  0  0  0  0  0
  -19.6841  -27.3822   20.6766 H   0  0  0  0  0  0
  -17.4508  -26.6522   21.3806 H   0  0  0  0  0  0
  -18.0782  -25.9789   22.8684 H   0  0  0  0  0  0
  -19.7790  -30.7166   24.2466 H   0  0  0  0  0  0
  -17.4744  -31.5920   24.5294 H   0  0  0  0  0  0
  -15.5240  -30.2503   23.7562 H   0  0  0  0  0  0
  -15.8863  -28.0404   22.6907 H   0  0  0  0  0  0
  -24.5884  -30.7162   25.7872 H   0  0  0  0  0  0
  -24.8835  -32.3030   26.4822 H   0  0  0  0  0  0
  -25.7939  -30.9112   27.0382 H   0  0  0  0  0  0
  -26.2955  -29.6834   24.1239 H   0  0  0  0  0  0
  -27.3889  -29.7257   25.4882 H   0  0  0  0  0  0
  -27.8881  -30.4307   23.9668 H   0  0  0  0  0  0
  -27.2708  -33.3717   26.2104 H   0  0  0  0  0  0
  -28.3901  -32.6900   25.0405 H   0  0  0  0  0  0
  -28.0740  -31.8540   26.5545 H   0  0  0  0  0  0
  -28.2645  -38.0023   24.7551 H   0  0  0  0  0  0
  -28.1021  -36.2556   24.6308 H   0  0  0  0  0  0
  -27.2284  -37.1401   25.8895 H   0  0  0  0  0  0
  -20.9434  -29.8836   21.7010 H   0  0  0  0  0  0
  -26.0173  -38.2860   24.1511 H   0  0  0  0  0  0
  -26.2686  -24.1805   19.2503 H   0  0  0  0  0  0
  -24.8232  -22.7812   18.2603 H   0  0  0  0  0  0
  -24.5253  -21.4528   19.4158 H   0  0  0  0  0  0
  -25.2756  -21.1658   17.8335 H   0  0  0  0  0  0
  -29.8360  -23.5949   22.4081 H   0  0  0  0  0  0
  -30.9041  -23.5542   20.9892 H   0  0  0  0  0  0
  -30.6632  -22.1356   21.9942 H   0  0  0  0  0  0
  -29.9169  -20.0898   21.7846 H   0  0  0  0  0  0
  -30.6061  -20.3294   20.2106 H   0  0  0  0  0  0
  -29.2437  -25.3367   21.3242 H   0  0  0  0  0  0
  -27.5431  -25.3918   21.6310 H   0  0  0  0  0  0
  -29.4455  -18.3406   19.3040 H   0  0  0  0  0  0
  -28.4688  -18.2386   20.7765 H   0  0  0  0  0  0
  -30.1723  -17.3180   22.0799 H   0  0  0  0  0  0
  -31.4216  -17.3737   20.8677 H   0  0  0  0  0  0
  -28.9114  -15.6610   20.7082 H   0  0  0  0  0  0
  1 25  1  0  0  0
  1 30  2  0  0  0
  1 83  1  0  0  0
  2  3  1  0  0  0
  2 25  1  0  0  0
  2 85  1  0  0  0
  2 86  1  0  0  0
  3  4  1  0  0  0
  3 87  1  0  0  0
  3 88  1  0  0  0
  4  5  1  0  0  0
  4 89  1  0  0  0
  4 90  1  0  0  0
  5  6  1  0  0  0
  5 26  1  0  0  0
  5 91  1  0  0  0
  6 25  1  0  0  0
  6 92  1  0  0  0
  6 93  1  0  0  0
  7  8  2  0  0  0
  7 26  1  0  0  0
  7 29  1  0  0  0
  8  9  1  0  0  0
  8 22  1  0  0  0
  9 10  1  0  0  0
  9 27  2  0  0  0
 10 11  2  0  0  0
 10 15  1  0  0  0
 11 12  1  0  0  0
 11 94  1  0  0  0
 12 13  2  0  0  0
 12 95  1  0  0  0
 13 14  1  0  0  0
 13 31  1  0  0  0
 14 15  2  0  0  0
 14 96  1  0  0  0
 15 97  1  0  0  0
 16 17  2  0  0  0
 16 21  1  0  0  0
 16 31  1  0  0  0
 17 18  1  0  0  0
 17 98  1  0  0  0
 18 19  2  0  0  0
 18 99  1  0  0  0
 19 20  1  0  0  0
 19 24  1  0  0  0
 20 21  2  0  0  0
 20100  1  0  0  0
 21 23  1  0  0  0
 22 28  1  0  0  0
 22 32  2  0  0  0
 26 27  1  0  0  0
 28101  1  0  0  0
 28102  1  0  0  0
 29103  1  0  0  0
 29104  1  0  0  0
 33 34  1  0  0  0
 33 66  1  0  0  0
 33 70  2  0  0  0
 34 36  1  0  0  0
 34 59  1  0  0  0
 34105  1  0  0  0
 35 44  2  0  0  0
 35 45  1  0  0  0
 35 68  1  0  0  0
 36 56  1  0  0  0
 36106  1  0  0  0
 37 39  1  0  0  0
 37 47  1  0  0  0
 37 66  1  0  0  0
 37107  1  0  0  0
 38 43  2  0  0  0
 38 46  1  0  0  0
 38 47  1  0  0  0
 39 64  1  0  0  0
 39 67  2  0  0  0
 40 52  1  0  0  0
 40 53  2  0  0  0
 40 58  1  0  0  0
 41108  1  0  0  0
 41109  1  0  0  0
 41110  1  0  0  0
 41 48  1  0  0  0
 42 43  1  0  0  0
 42 66  1  0  0  0
 42111  1  0  0  0
 42112  1  0  0  0
 43 44  1  0  0  0
 44113  1  0  0  0
 45 46  2  0  0  0
 45114  1  0  0  0
 46115  1  0  0  0
 47116  1  0  0  0
 47117  1  0  0  0
 48 56  1  0  0  0
 48 65  1  0  0  0
 48118  1  0  0  0
 49 50  1  0  0  0
 49 53  1  0  0  0
 49 64  1  0  0  0
 49119  1  0  0  0
 50 51  1  0  0  0
 50120  1  0  0  0
 50121  1  0  0  0
 51 52  1  0  0  0
 51122  1  0  0  0
 51123  1  0  0  0
 52124  1  0  0  0
 52125  1  0  0  0
 53 54  1  0  0  0
 54 55  2  0  0  0
 54126  1  0  0  0
 55 57  1  0  0  0
 55127  1  0  0  0
 56 69  2  0  0  0
 57 58  2  0  0  0
 57128  1  0  0  0
 58129  1  0  0  0
 59 60  1  0  0  0
 59 61  1  0  0  0
 59 62  1  0  0  0
 60130  1  0  0  0
 60131  1  0  0  0
 60132  1  0  0  0
 61133  1  0  0  0
 61134  1  0  0  0
 61135  1  0  0  0
 62136  1  0  0  0
 62137  1  0  0  0
 62138  1  0  0  0
 63 65  1  0  0  0
 63139  1  0  0  0
 63140  1  0  0  0
 63141  1  0  0  0
 64142  1  0  0  0
 65143  1  0  0  0
 68 80  1  0  0  0
 71 72  2  0  0  0
 71 73  1  0  0  0
 71144  1  0  0  0
 72 74  1  0  0  0
 72 80  1  0  0  0
 73 76  2  0  0  0
 73 77  1  0  0  0
 74 75  2  0  0  0
 74 78  1  0  0  0
 75 76  1  0  0  0
 75 79  1  0  0  0
 76 84  1  0  0  0
 77145  1  0  0  0
 77146  1  0  0  0
 77147  1  0  0  0
 78148  1  0  0  0
 78149  1  0  0  0
 78150  1  0  0  0
 79 81  1  0  0  0
 79151  1  0  0  0
 79152  1  0  0  0
 80153  1  0  0  0
 80154  1  0  0  0
 81 82  1  0  0  0
 81155  1  0  0  0
 81156  1  0  0  0
 82 83  1  0  0  0
 82157  1  0  0  0
 82158  1  0  0  0
 83159  1  0  0  0
M  ISO  4   1 100  68 101  80 101  83 100
M  END
> <chiral flag>
0

> <version>
0

> <s_m_source_file>
/data/baiqing/PycharmProjects/Reinvent-master-3.2/result/LINK_invent/BTK/process_docking_weight1_custom_sum_contain_oxygen_bond_distance_aromatic_linkinvent_7_9_3/rearranged_h_0021.sdf

> <i_m_source_file_index>
73

> <r_mmod_Potential_Energy-OPLS-2005>
231.893341064453

> <r_mmod_Stretch_Energy-OPLS-2005>
125.619812011719

> <r_mmod_Bend_Energy-OPLS-2005>
185.879013061523

> <r_mmod_Torsional_Energy-OPLS-2005>
251.210678100586

> <r_mmod_Improper_Torsional_Energy-OPLS-2005>
5.70273494720459

> <r_mmod_Van_der_Waal_Energy-OPLS-2005>
158.267303466797

> <r_mmod_Electrostatic_Energy-OPLS-2005>
-356.158782958984

> <r_mmod_Solvation_Energy-OPLS-2005>
-200.083099365234

> <b_mmod_Minimization_Converged-OPLS-2005>
0

> <r_mmod_RMS_Derivative-OPLS-2005>
11.7245874404907

$$$$
74
                    3D
 Structure written by MMmdl.
179187  0  0  1  0            999 V2000
  -30.6671  -14.3826   20.7350 C   0  0  0  0  0  0
  -30.4451  -12.3191   19.3676 C   0  0  0  0  0  0
  -29.4841  -12.5345   18.1801 C   0  0  0  0  0  0
  -28.0017  -12.3925   18.5965 C   0  0  0  0  0  0
  -27.6661  -13.1853   19.8887 C   0  0  2  0  0  0
  -28.7023  -12.8318   20.9740 C   0  0  0  0  0  0
  -25.2563  -13.8132   20.5631 C   0  0  0  0  0  0
  -24.1812  -13.0401   20.9189 C   0  0  0  0  0  0
  -24.6372  -11.6883   20.8787 C   0  0  0  0  0  0
  -23.9074  -10.4259   21.0453 C   0  0  0  0  0  0
  -24.3638   -9.4187   21.9229 C   0  0  0  0  0  0
  -23.6300   -8.2223   22.0779 C   0  0  0  0  0  0
  -22.4267   -8.0280   21.3588 C   0  0  0  0  0  0
  -21.9925   -9.0258   20.4684 C   0  0  0  0  0  0
  -22.7258  -10.2123   20.3085 C   0  0  0  0  0  0
  -21.6820   -6.0776   22.5336 C   0  0  0  0  0  0
  -21.3995   -6.5674   23.8275 C   0  0  0  0  0  0
  -21.3649   -5.6809   24.9231 C   0  0  0  0  0  0
  -21.6031   -4.3079   24.7267 C   0  0  0  0  0  0
  -21.8808   -3.8180   23.4384 C   0  0  0  0  0  0
  -21.9166   -4.7006   22.3449 C   0  0  0  0  0  0
  -22.7857  -13.5237   21.1813 C   0  0  0  0  0  0
  -22.1607   -4.2179   21.1024 F   0  0  0  0  0  0
  -21.5614   -3.4564   25.7788 F   0  0  0  0  0  0
  -30.0368  -13.2100   20.4612 N   0  0  0  0  0  0
  -26.3020  -12.9261   20.3430 N   0  0  0  0  0  0
  -25.9283  -11.6439   20.5848 N   0  0  0  0  0  0
  -22.0454  -12.8292   22.0423 N   0  0  0  0  0  0
  -25.4201  -15.1845   20.3884 N   0  0  0  0  0  0
  -31.7026  -14.7608   20.1750 O   0  0  0  0  0  0
  -21.6598   -6.8911   21.4285 O   0  0  0  0  0  0
  -22.3562  -14.5525   20.6619 O   0  0  0  0  0  0
  -24.6079  -31.8740   23.2156 C   0  0  0  0  0  0
  -25.9034  -32.4824   23.8402 C   0  0  1  0  0  0
  -27.2422  -27.4975   20.0619 C   0  0  0  0  0  0
  -25.5947  -33.8626   24.2338 N   0  0  0  0  0  0
  -23.3901  -30.4976   21.5542 C   0  0  2  0  0  0
  -24.8439  -28.9727   20.1145 C   0  0  0  0  0  0
  -22.7332  -29.4695   22.4991 C   0  0  0  0  0  0
  -18.0272  -28.1328   22.8483 C   0  0  0  0  0  0
  -24.1495  -36.7323   23.2617 C   0  0  0  0  0  0
  -25.9186  -30.8450   21.3736 C   0  0  0  0  0  0
  -25.9993  -29.4832   20.7236 C   0  0  0  0  0  0
  -27.2007  -28.7447   20.7185 C   0  0  0  0  0  0
  -26.0828  -26.9990   19.4404 C   0  0  0  0  0  0
  -24.8753  -27.7166   19.4844 C   0  0  0  0  0  0
  -23.5995  -29.8322   20.1689 C   0  0  0  0  0  0
  -25.4105  -36.3091   24.0322 C   0  0  1  0  0  0
  -20.5817  -28.3703   23.1363 C   0  0  2  0  0  0
  -20.6825  -26.9441   22.5456 C   0  0  0  0  0  0
  -19.5817  -26.6309   21.5269 C   0  0  0  0  0  0
  -18.2009  -26.7811   22.1755 C   0  0  0  0  0  0
  -19.1480  -28.8856   23.2891 C   0  0  0  0  0  0
  -18.9369  -30.1470   23.8852 C   0  0  0  0  0  0
  -17.6364  -30.6563   24.0534 C   0  0  0  0  0  0
  -25.9050  -34.9473   23.5106 C   0  0  0  0  0  0
  -16.5286  -29.9007   23.6298 C   0  0  0  0  0  0
  -16.7241  -28.6418   23.0326 C   0  0  0  0  0  0
  -26.4515  -31.6554   25.0693 C   0  0  0  0  0  0
  -25.3819  -31.3676   26.1468 C   0  0  0  0  0  0
  -27.0310  -30.2959   24.6066 C   0  0  0  0  0  0
  -27.6077  -32.4279   25.7508 C   0  0  0  0  0  0
  -27.5570  -37.1810   24.8454 C   0  0  0  0  0  0
  -21.4070  -29.3105   22.3791 N   0  0  0  0  0  0
  -26.4278  -37.3777   23.9401 N   0  0  0  0  0  0
  -24.6538  -31.0879   22.1029 N   0  0  0  0  0  0
  -23.4158  -28.8167   23.2926 O   0  0  0  0  0  0
  -28.3943  -26.7684   19.9560 O   0  0  0  0  0  0
  -26.5580  -34.8943   22.4655 O   0  0  0  0  0  0
  -23.5296  -32.1498   23.7595 O   0  0  0  0  0  0
  -26.9795  -22.2618   21.6077 C   0  0  0  0  0  0
  -25.8643  -21.4129   21.7367 C   0  0  0  0  0  0
  -25.0241  -22.2421   19.5821 C   0  0  0  0  0  0
  -27.1059  -23.1212   20.5037 C   0  0  0  0  0  0
  -24.8725  -21.4227   20.7262 C   0  0  0  0  0  0
  -26.1609  -23.0650   19.4613 C   0  0  0  0  0  0
  -23.9736  -22.2642   18.4834 C   0  0  0  0  0  0
  -26.8878  -25.2976   22.3169 C   0  0  0  0  0  0
  -25.7955  -20.4660   22.9302 C   0  0  0  0  0  0
  -26.0264  -21.1501   24.3022 C   0  0  0  0  0  0
  -26.2195  -20.2042   25.5071 C   0  0  0  0  0  0
  -27.5935  -19.4956   25.5598 C   0  0  0  0  0  0
  -27.6669  -18.1629   24.7828 C   0  0  0  0  0  0
  -29.0018  -17.9465   24.0356 C   0  0  0  0  0  0
  -28.9972  -16.6378   23.2202 C   0  0  0  0  0  0
  -30.1942  -16.4011   22.2594 C   0  0  0  0  0  0
  -28.9469  -26.2870   21.1719 C   0  0  0  0  0  0
  -28.2306  -24.9919   21.6091 C   0  0  2  0  0  0
  -28.1184  -24.0821   20.4603 N   0  0  0  0  0  0
  -30.0174  -15.0772   21.6816 N   0  0  0  0  0  0
  -23.7829  -20.6249   20.8397 F   0  0  0  0  0  0
  -26.3402  -23.8252   18.3521 F   0  0  0  0  0  0
  -31.4757  -12.5080   19.0592 H   0  0  0  0  0  0
  -30.4242  -11.2785   19.6963 H   0  0  0  0  0  0
  -29.7174  -11.8265   17.3833 H   0  0  0  0  0  0
  -29.6468  -13.5286   17.7592 H   0  0  0  0  0  0
  -27.7939  -11.3344   18.7570 H   0  0  0  0  0  0
  -27.3516  -12.6997   17.7757 H   0  0  0  0  0  0
  -27.7460  -14.2492   19.6630 H   0  0  0  0  0  0
  -28.6886  -11.7551   21.1583 H   0  0  0  0  0  0
  -28.4302  -13.2654   21.9353 H   0  0  0  0  0  0
  -25.2780   -9.5655   22.4808 H   0  0  0  0  0  0
  -24.0017   -7.4629   22.7492 H   0  0  0  0  0  0
  -21.0857   -8.8811   19.8993 H   0  0  0  0  0  0
  -22.3765  -10.9680   19.6192 H   0  0  0  0  0  0
  -21.1958   -7.6169   23.9836 H   0  0  0  0  0  0
  -21.1469   -6.0507   25.9151 H   0  0  0  0  0  0
  -22.0579   -2.7631   23.2896 H   0  0  0  0  0  0
  -22.3958  -11.9962   22.4912 H   0  0  0  0  0  0
  -21.1085  -13.1442   22.2502 H   0  0  0  0  0  0
  -24.6414  -15.8278   20.4753 H   0  0  0  0  0  0
  -26.2524  -15.6319   20.0236 H   0  0  0  0  0  0
  -26.7092  -32.5603   23.1158 H   0  0  0  0  0  0
  -25.0166  -33.9799   25.0528 H   0  0  0  0  0  0
  -22.6737  -31.3112   21.4163 H   0  0  0  0  0  0
  -23.3751  -35.9667   23.3288 H   0  0  0  0  0  0
  -24.3556  -36.8912   22.2021 H   0  0  0  0  0  0
  -23.7314  -37.6558   23.6632 H   0  0  0  0  0  0
  -26.0392  -31.6083   20.6047 H   0  0  0  0  0  0
  -26.8031  -30.8958   21.9942 H   0  0  0  0  0  0
  -28.0984  -29.1361   21.1821 H   0  0  0  0  0  0
  -26.1254  -26.0544   18.9233 H   0  0  0  0  0  0
  -23.9926  -27.3092   19.0130 H   0  0  0  0  0  0
  -23.7098  -30.6181   19.4217 H   0  0  0  0  0  0
  -22.7210  -29.2558   19.8672 H   0  0  0  0  0  0
  -25.1270  -36.1924   25.0810 H   0  0  0  0  0  0
  -20.9849  -28.3308   24.1512 H   0  0  0  0  0  0
  -20.5837  -26.2343   23.3664 H   0  0  0  0  0  0
  -21.6672  -26.7565   22.1191 H   0  0  0  0  0  0
  -19.7028  -25.6171   21.1441 H   0  0  0  0  0  0
  -19.6793  -27.3020   20.6726 H   0  0  0  0  0  0
  -17.4193  -26.6256   21.4297 H   0  0  0  0  0  0
  -18.0660  -26.0059   22.9292 H   0  0  0  0  0  0
  -19.7796  -30.7368   24.2191 H   0  0  0  0  0  0
  -17.4897  -31.6244   24.5126 H   0  0  0  0  0  0
  -15.5273  -30.2866   23.7598 H   0  0  0  0  0  0
  -15.8675  -28.0661   22.7110 H   0  0  0  0  0  0
  -24.6001  -30.6979   25.7857 H   0  0  0  0  0  0
  -24.9043  -32.2855   26.4892 H   0  0  0  0  0  0
  -25.8223  -30.8895   27.0227 H   0  0  0  0  0  0
  -26.2816  -29.6744   24.1139 H   0  0  0  0  0  0
  -27.4048  -29.7142   25.4505 H   0  0  0  0  0  0
  -27.8688  -30.4158   23.9195 H   0  0  0  0  0  0
  -27.2610  -33.3529   26.2120 H   0  0  0  0  0  0
  -28.3929  -32.6893   25.0411 H   0  0  0  0  0  0
  -28.0730  -31.8416   26.5433 H   0  0  0  0  0  0
  -28.2552  -38.0131   24.7467 H   0  0  0  0  0  0
  -28.1076  -36.2647   24.6281 H   0  0  0  0  0  0
  -27.2266  -37.1465   25.8849 H   0  0  0  0  0  0
  -20.9139  -29.9020   21.7242 H   0  0  0  0  0  0
  -26.0155  -38.2832   24.1464 H   0  0  0  0  0  0
  -27.7408  -22.2742   22.3724 H   0  0  0  0  0  0
  -24.2082  -21.5278   17.7148 H   0  0  0  0  0  0
  -23.9331  -23.2484   18.0156 H   0  0  0  0  0  0
  -22.9749  -22.0557   18.8648 H   0  0  0  0  0  0
  -26.9373  -26.2104   22.9110 H   0  0  0  0  0  0
  -26.0650  -25.4119   21.6129 H   0  0  0  0  0  0
  -26.6114  -24.5010   23.0053 H   0  0  0  0  0  0
  -26.5679  -19.7249   22.7419 H   0  0  0  0  0  0
  -24.8519  -19.9190   22.9282 H   0  0  0  0  0  0
  -25.1899  -21.8195   24.5016 H   0  0  0  0  0  0
  -26.9041  -21.7928   24.2721 H   0  0  0  0  0  0
  -25.4017  -19.4899   25.5880 H   0  0  0  0  0  0
  -26.1369  -20.8223   26.4051 H   0  0  0  0  0  0
  -27.8339  -19.2776   26.6016 H   0  0  0  0  0  0
  -28.3721  -20.1870   25.2321 H   0  0  0  0  0  0
  -26.8524  -18.1050   24.0654 H   0  0  0  0  0  0
  -27.4726  -17.3354   25.4694 H   0  0  0  0  0  0
  -29.8215  -17.9263   24.7543 H   0  0  0  0  0  0
  -29.1785  -18.7992   23.3768 H   0  0  0  0  0  0
  -28.0783  -16.5956   22.6327 H   0  0  0  0  0  0
  -28.9299  -15.8083   23.9273 H   0  0  0  0  0  0
  -31.1441  -16.4478   22.7904 H   0  0  0  0  0  0
  -30.2107  -17.1499   21.4658 H   0  0  0  0  0  0
  -28.9377  -27.0406   21.9626 H   0  0  0  0  0  0
  -29.9927  -26.0726   20.9660 H   0  0  0  0  0  0
  -28.8731  -24.5034   22.3424 H   0  0  0  0  0  0
  -28.1328  -24.5793   19.5724 H   0  0  0  0  0  0
  -29.1975  -14.5921   22.0115 H   0  0  0  0  0  0
  1 25  1  0  0  0
  1 30  2  0  0  0
  1 90  1  0  0  0
  2  3  1  0  0  0
  2 25  1  0  0  0
  2 93  1  0  0  0
  2 94  1  0  0  0
  3  4  1  0  0  0
  3 95  1  0  0  0
  3 96  1  0  0  0
  4  5  1  0  0  0
  4 97  1  0  0  0
  4 98  1  0  0  0
  5  6  1  0  0  0
  5 26  1  0  0  0
  5 99  1  0  0  0
  6 25  1  0  0  0
  6100  1  0  0  0
  6101  1  0  0  0
  7  8  2  0  0  0
  7 26  1  0  0  0
  7 29  1  0  0  0
  8  9  1  0  0  0
  8 22  1  0  0  0
  9 10  1  0  0  0
  9 27  2  0  0  0
 10 11  2  0  0  0
 10 15  1  0  0  0
 11 12  1  0  0  0
 11102  1  0  0  0
 12 13  2  0  0  0
 12103  1  0  0  0
 13 14  1  0  0  0
 13 31  1  0  0  0
 14 15  2  0  0  0
 14104  1  0  0  0
 15105  1  0  0  0
 16 17  2  0  0  0
 16 21  1  0  0  0
 16 31  1  0  0  0
 17 18  1  0  0  0
 17106  1  0  0  0
 18 19  2  0  0  0
 18107  1  0  0  0
 19 20  1  0  0  0
 19 24  1  0  0  0
 20 21  2  0  0  0
 20108  1  0  0  0
 21 23  1  0  0  0
 22 28  1  0  0  0
 22 32  2  0  0  0
 26 27  1  0  0  0
 28109  1  0  0  0
 28110  1  0  0  0
 29111  1  0  0  0
 29112  1  0  0  0
 33 34  1  0  0  0
 33 66  1  0  0  0
 33 70  2  0  0  0
 34 36  1  0  0  0
 34 59  1  0  0  0
 34113  1  0  0  0
 35 44  2  0  0  0
 35 45  1  0  0  0
 35 68  1  0  0  0
 36 56  1  0  0  0
 36114  1  0  0  0
 37 39  1  0  0  0
 37 47  1  0  0  0
 37 66  1  0  0  0
 37115  1  0  0  0
 38 43  2  0  0  0
 38 46  1  0  0  0
 38 47  1  0  0  0
 39 64  1  0  0  0
 39 67  2  0  0  0
 40 52  1  0  0  0
 40 53  2  0  0  0
 40 58  1  0  0  0
 41116  1  0  0  0
 41117  1  0  0  0
 41118  1  0  0  0
 41 48  1  0  0  0
 42 43  1  0  0  0
 42 66  1  0  0  0
 42119  1  0  0  0
 42120  1  0  0  0
 43 44  1  0  0  0
 44121  1  0  0  0
 45 46  2  0  0  0
 45122  1  0  0  0
 46123  1  0  0  0
 47124  1  0  0  0
 47125  1  0  0  0
 48 56  1  0  0  0
 48 65  1  0  0  0
 48126  1  0  0  0
 49 50  1  0  0  0
 49 53  1  0  0  0
 49 64  1  0  0  0
 49127  1  0  0  0
 50 51  1  0  0  0
 50128  1  0  0  0
 50129  1  0  0  0
 51 52  1  0  0  0
 51130  1  0  0  0
 51131  1  0  0  0
 52132  1  0  0  0
 52133  1  0  0  0
 53 54  1  0  0  0
 54 55  2  0  0  0
 54134  1  0  0  0
 55 57  1  0  0  0
 55135  1  0  0  0
 56 69  2  0  0  0
 57 58  2  0  0  0
 57136  1  0  0  0
 58137  1  0  0  0
 59 60  1  0  0  0
 59 61  1  0  0  0
 59 62  1  0  0  0
 60138  1  0  0  0
 60139  1  0  0  0
 60140  1  0  0  0
 61141  1  0  0  0
 61142  1  0  0  0
 61143  1  0  0  0
 62144  1  0  0  0
 62145  1  0  0  0
 62146  1  0  0  0
 63 65  1  0  0  0
 63147  1  0  0  0
 63148  1  0  0  0
 63149  1  0  0  0
 64150  1  0  0  0
 65151  1  0  0  0
 68 87  1  0  0  0
 71 72  2  0  0  0
 71 74  1  0  0  0
 71152  1  0  0  0
 72 75  1  0  0  0
 72 79  1  0  0  0
 73 75  2  0  0  0
 73 76  1  0  0  0
 73 77  1  0  0  0
 74 76  2  0  0  0
 74 89  1  0  0  0
 75 91  1  0  0  0
 76 92  1  0  0  0
 77153  1  0  0  0
 77154  1  0  0  0
 77155  1  0  0  0
 78156  1  0  0  0
 78157  1  0  0  0
 78158  1  0  0  0
 78 88  1  0  0  0
 79 80  1  0  0  0
 79159  1  0  0  0
 79160  1  0  0  0
 80 81  1  0  0  0
 80161  1  0  0  0
 80162  1  0  0  0
 81 82  1  0  0  0
 81163  1  0  0  0
 81164  1  0  0  0
 82 83  1  0  0  0
 82165  1  0  0  0
 82166  1  0  0  0
 83 84  1  0  0  0
 83167  1  0  0  0
 83168  1  0  0  0
 84 85  1  0  0  0
 84169  1  0  0  0
 84170  1  0  0  0
 85 86  1  0  0  0
 85171  1  0  0  0
 85172  1  0  0  0
 86 90  1  0  0  0
 86173  1  0  0  0
 86174  1  0  0  0
 87 88  1  0  0  0
 87175  1  0  0  0
 87176  1  0  0  0
 88 89  1  0  0  0
 88177  1  0  0  0
 89178  1  0  0  0
 90179  1  0  0  0
M  ISO  4   1 100  68 101  87 101  90 100
M  END
> <chiral flag>
0

> <version>
0

> <s_m_source_file>
/data/baiqing/PycharmProjects/Reinvent-master-3.2/result/LINK_invent/BTK/process_docking_weight1_custom_sum_contain_oxygen_bond_distance_aromatic_linkinvent_7_9_3/rearranged_h_0021.sdf

> <i_m_source_file_index>
74

> <r_mmod_Potential_Energy-OPLS-2005>
-14.6643667221069

> <r_mmod_Stretch_Energy-OPLS-2005>
34.4991264343262

> <r_mmod_Bend_Energy-OPLS-2005>
115.367012023926

> <r_mmod_Torsional_Energy-OPLS-2005>
254.015533447266

> <r_mmod_Improper_Torsional_Energy-OPLS-2005>
7.08639001846313

> <r_mmod_Van_der_Waal_Energy-OPLS-2005>
156.33544921875

> <r_mmod_Electrostatic_Energy-OPLS-2005>
-402.658630371094

> <r_mmod_Solvation_Energy-OPLS-2005>
-192.920028686523

> <b_mmod_Minimization_Converged-OPLS-2005>
0

> <r_mmod_RMS_Derivative-OPLS-2005>
5.80835056304932

$$$$
75
                    3D
 Structure written by MMmdl.
172180  0  0  1  0            999 V2000
  -30.7052  -14.3988   20.5060 C   0  0  0  0  0  0
  -30.4237  -12.2104   19.4807 C   0  0  0  0  0  0
  -29.5320  -12.4461   18.2432 C   0  0  0  0  0  0
  -28.0441  -12.3467   18.6281 C   0  0  0  0  0  0
  -27.6710  -13.1959   19.8798 C   0  0  2  0  0  0
  -28.6958  -12.9820   21.0188 C   0  0  0  0  0  0
  -25.2660  -13.8084   20.5711 C   0  0  0  0  0  0
  -24.1894  -13.0370   20.9203 C   0  0  0  0  0  0
  -24.6440  -11.6839   20.8769 C   0  0  0  0  0  0
  -23.9063  -10.4242   21.0467 C   0  0  0  0  0  0
  -24.3630   -9.4142   21.9207 C   0  0  0  0  0  0
  -23.6248   -8.2222   22.0779 C   0  0  0  0  0  0
  -22.4262   -8.0275   21.3521 C   0  0  0  0  0  0
  -21.9867   -9.0284   20.4682 C   0  0  0  0  0  0
  -22.7243  -10.2123   20.3106 C   0  0  0  0  0  0
  -21.6800   -6.0741   22.5294 C   0  0  0  0  0  0
  -21.4041   -6.5650   23.8246 C   0  0  0  0  0  0
  -21.3670   -5.6796   24.9211 C   0  0  0  0  0  0
  -21.6087   -4.3060   24.7225 C   0  0  0  0  0  0
  -21.8818   -3.8155   23.4337 C   0  0  0  0  0  0
  -21.9175   -4.6985   22.3404 C   0  0  0  0  0  0
  -22.7914  -13.5186   21.1801 C   0  0  0  0  0  0
  -22.1648   -4.2218   21.0964 F   0  0  0  0  0  0
  -21.5602   -3.4481   25.7672 F   0  0  0  0  0  0
  -30.0521  -13.2150   20.4790 N   0  0  0  0  0  0
  -26.3081  -12.9269   20.3322 N   0  0  0  0  0  0
  -25.9356  -11.6434   20.5752 N   0  0  0  0  0  0
  -22.0453  -12.8327   22.0380 N   0  0  0  0  0  0
  -25.4372  -15.1825   20.4296 N   0  0  0  0  0  0
  -31.8663  -14.5585   20.1295 O   0  0  0  0  0  0
  -21.6596   -6.8878   21.4248 O   0  0  0  0  0  0
  -22.3639  -14.5449   20.6533 O   0  0  0  0  0  0
  -24.6128  -31.8733   23.2017 C   0  0  0  0  0  0
  -25.9030  -32.4827   23.8305 C   0  0  1  0  0  0
  -27.2575  -27.4745   20.0721 C   0  0  0  0  0  0
  -25.5972  -33.8624   24.2329 N   0  0  0  0  0  0
  -23.3963  -30.4922   21.5474 C   0  0  2  0  0  0
  -24.8456  -28.9492   20.1205 C   0  0  0  0  0  0
  -22.7346  -29.4726   22.5014 C   0  0  0  0  0  0
  -18.0255  -28.1411   22.8506 C   0  0  0  0  0  0
  -24.1485  -36.7265   23.2599 C   0  0  0  0  0  0
  -25.9142  -30.8500   21.3363 C   0  0  0  0  0  0
  -26.0026  -29.4814   20.6981 C   0  0  0  0  0  0
  -27.2125  -28.7571   20.6600 C   0  0  0  0  0  0
  -26.0787  -26.9400   19.5034 C   0  0  0  0  0  0
  -24.8774  -27.6786   19.5171 C   0  0  0  0  0  0
  -23.6031  -29.8112   20.1683 C   0  0  0  0  0  0
  -25.4109  -36.3119   24.0335 C   0  0  1  0  0  0
  -20.5834  -28.3720   23.1318 C   0  0  2  0  0  0
  -20.6751  -26.9481   22.5397 C   0  0  0  0  0  0
  -19.5766  -26.6441   21.5163 C   0  0  0  0  0  0
  -18.1929  -26.7963   22.1595 C   0  0  0  0  0  0
  -19.1493  -28.8869   23.2927 C   0  0  0  0  0  0
  -18.9451  -30.1471   23.8980 C   0  0  0  0  0  0
  -17.6462  -30.6645   24.0582 C   0  0  0  0  0  0
  -25.9035  -34.9480   23.5134 C   0  0  0  0  0  0
  -16.5350  -29.9179   23.6307 C   0  0  0  0  0  0
  -16.7237  -28.6570   23.0342 C   0  0  0  0  0  0
  -26.4500  -31.6518   25.0537 C   0  0  0  0  0  0
  -25.3798  -31.3650   26.1308 C   0  0  0  0  0  0
  -27.0219  -30.2982   24.5679 C   0  0  0  0  0  0
  -27.6136  -32.4104   25.7343 C   0  0  0  0  0  0
  -27.5634  -37.1759   24.8470 C   0  0  0  0  0  0
  -21.4076  -29.3115   22.3748 N   0  0  0  0  0  0
  -26.4301  -37.3830   23.9484 N   0  0  0  0  0  0
  -24.6610  -31.0819   22.0915 N   0  0  0  0  0  0
  -23.4127  -28.8296   23.3066 O   0  0  0  0  0  0
  -28.4598  -26.8029   20.0319 O   0  0  0  0  0  0
  -26.5551  -34.8950   22.4643 O   0  0  0  0  0  0
  -23.5340  -32.1466   23.7462 O   0  0  0  0  0  0
  -29.9477  -21.9317   21.6594 C   0  0  0  0  0  0
  -29.4823  -22.1544   20.3274 C   0  0  0  0  0  0
  -31.0532  -21.0498   21.8640 C   0  0  0  0  0  0
  -30.2188  -21.5678   19.2594 C   0  0  0  0  0  0
  -31.6277  -20.4426   20.7318 C   0  0  0  0  0  0
  -31.5907  -20.7339   23.2671 C   0  0  0  0  0  0
  -29.8657  -21.7630   17.7816 C   0  0  0  0  0  0
  -28.1926  -21.6866   23.5280 C   0  0  0  0  0  0
  -29.2727  -22.5824   22.8728 C   0  0  0  0  0  0
  -28.2111  -22.9754   20.0247 C   0  0  0  0  0  0
  -28.4795  -24.4000   19.4816 C   0  0  0  0  0  0
  -30.4908  -17.8573   20.3570 C   0  0  0  0  0  0
  -32.0464  -18.0763   20.2957 C   0  0  0  0  0  0
  -29.9714  -16.5724   19.6990 C   0  0  0  0  0  0
  -28.4729  -25.4829   20.5759 C   0  0  0  0  0  0
  -31.2743  -20.7544   19.4705 N   0  0  0  0  0  0
  -32.4983  -19.3512   20.8781 N   0  0  0  0  0  0
  -29.8819  -15.4357   20.6119 N   0  0  0  0  0  0
  -31.4836  -12.2580   19.2217 H   0  0  0  0  0  0
  -30.2598  -11.2074   19.8798 H   0  0  0  0  0  0
  -29.7696  -11.7052   17.4766 H   0  0  0  0  0  0
  -29.7520  -13.4163   17.8041 H   0  0  0  0  0  0
  -27.8461  -11.2928   18.8271 H   0  0  0  0  0  0
  -27.4152  -12.6213   17.7809 H   0  0  0  0  0  0
  -27.7052  -14.2396   19.5719 H   0  0  0  0  0  0
  -28.6201  -11.9716   21.4203 H   0  0  0  0  0  0
  -28.4774  -13.6441   21.8548 H   0  0  0  0  0  0
  -25.2845   -9.5544   22.4688 H   0  0  0  0  0  0
  -23.9975   -7.4580   22.7469 H   0  0  0  0  0  0
  -21.0762   -8.8841   19.8929 H   0  0  0  0  0  0
  -22.3793  -10.9666   19.6183 H   0  0  0  0  0  0
  -21.2091   -7.6176   23.9755 H   0  0  0  0  0  0
  -21.1493   -6.0530   25.9103 H   0  0  0  0  0  0
  -22.0579   -2.7612   23.2817 H   0  0  0  0  0  0
  -22.3913  -12.0067   22.5072 H   0  0  0  0  0  0
  -21.1034  -13.1436   22.2251 H   0  0  0  0  0  0
  -24.6895  -15.8390   20.6235 H   0  0  0  0  0  0
  -26.2981  -15.6326   20.1451 H   0  0  0  0  0  0
  -26.7067  -32.5648   23.1048 H   0  0  0  0  0  0
  -25.0380  -33.9766   25.0648 H   0  0  0  0  0  0
  -22.6821  -31.3077   21.4010 H   0  0  0  0  0  0
  -23.3785  -35.9563   23.3258 H   0  0  0  0  0  0
  -24.3635  -36.8839   22.2023 H   0  0  0  0  0  0
  -23.7088  -37.6422   23.6556 H   0  0  0  0  0  0
  -25.9707  -31.5961   20.5466 H   0  0  0  0  0  0
  -26.8230  -30.9544   21.9161 H   0  0  0  0  0  0
  -28.1224  -29.1778   21.0687 H   0  0  0  0  0  0
  -26.0809  -25.9727   19.0232 H   0  0  0  0  0  0
  -23.9900  -27.2685   19.0548 H   0  0  0  0  0  0
  -23.7196  -30.5760   19.4025 H   0  0  0  0  0  0
  -22.7217  -29.2359   19.8743 H   0  0  0  0  0  0
  -25.1225  -36.2026   25.0815 H   0  0  0  0  0  0
  -20.9959  -28.3338   24.1428 H   0  0  0  0  0  0
  -20.5573  -26.2366   23.3597 H   0  0  0  0  0  0
  -21.6624  -26.7492   22.1247 H   0  0  0  0  0  0
  -19.6902  -25.6335   21.1239 H   0  0  0  0  0  0
  -19.6674  -27.3205   20.6670 H   0  0  0  0  0  0
  -17.4156  -26.6644   21.4064 H   0  0  0  0  0  0
  -18.0427  -26.0096   22.9010 H   0  0  0  0  0  0
  -19.7922  -30.7228   24.2420 H   0  0  0  0  0  0
  -17.5033  -31.6337   24.5180 H   0  0  0  0  0  0
  -15.5367  -30.3126   23.7579 H   0  0  0  0  0  0
  -15.8612  -28.0920   22.7038 H   0  0  0  0  0  0
  -24.6084  -30.6786   25.7759 H   0  0  0  0  0  0
  -24.8823  -32.2799   26.4569 H   0  0  0  0  0  0
  -25.8271  -30.9063   27.0127 H   0  0  0  0  0  0
  -26.2722  -29.6923   24.0534 H   0  0  0  0  0  0
  -27.3893  -29.7012   25.4030 H   0  0  0  0  0  0
  -27.8594  -30.4338   23.8814 H   0  0  0  0  0  0
  -27.2842  -33.3405   26.1999 H   0  0  0  0  0  0
  -28.4015  -32.6603   25.0213 H   0  0  0  0  0  0
  -28.0658  -31.8013   26.5189 H   0  0  0  0  0  0
  -28.2566  -38.0159   24.7766 H   0  0  0  0  0  0
  -28.1233  -36.2707   24.6021 H   0  0  0  0  0  0
  -27.2403  -37.1099   25.8880 H   0  0  0  0  0  0
  -20.9191  -29.8913   21.7044 H   0  0  0  0  0  0
  -26.0190  -38.2876   24.1659 H   0  0  0  0  0  0
  -32.3831  -21.4362   23.5315 H   0  0  0  0  0  0
  -32.0200  -19.7329   23.3408 H   0  0  0  0  0  0
  -30.8444  -20.7600   24.0570 H   0  0  0  0  0  0
  -30.2691  -20.9485   17.1743 H   0  0  0  0  0  0
  -30.2862  -22.6922   17.3904 H   0  0  0  0  0  0
  -28.7877  -21.7968   17.5869 H   0  0  0  0  0  0
  -28.5599  -20.7106   23.8611 H   0  0  0  0  0  0
  -27.3575  -21.4897   22.8510 H   0  0  0  0  0  0
  -27.7909  -22.1833   24.4023 H   0  0  0  0  0  0
  -28.8108  -23.5290   22.5897 H   0  0  0  0  0  0
  -30.0214  -22.8950   23.6052 H   0  0  0  0  0  0
  -27.5258  -23.0407   20.8681 H   0  0  0  0  0  0
  -27.6231  -22.4160   19.3002 H   0  0  0  0  0  0
  -27.6993  -24.6435   18.7591 H   0  0  0  0  0  0
  -29.4096  -24.4279   18.9072 H   0  0  0  0  0  0
  -29.9886  -18.6286   19.7667 H   0  0  0  0  0  0
  -30.1027  -17.9709   21.3777 H   0  0  0  0  0  0
  -32.3919  -18.0246   19.2596 H   0  0  0  0  0  0
  -32.5753  -17.2581   20.8060 H   0  0  0  0  0  0
  -30.5419  -16.3279   18.7990 H   0  0  0  0  0  0
  -28.9595  -16.7441   19.3322 H   0  0  0  0  0  0
  -29.3696  -25.3760   21.1899 H   0  0  0  0  0  0
  -27.6410  -25.3642   21.2680 H   0  0  0  0  0  0
  -32.8675  -19.2620   21.8225 H   0  0  0  0  0  0
  -28.9539  -15.2018   20.9380 H   0  0  0  0  0  0
  1 25  1  0  0  0
  1 30  2  0  0  0
  1 88  1  0  0  0
  2  3  1  0  0  0
  2 25  1  0  0  0
  2 89  1  0  0  0
  2 90  1  0  0  0
  3  4  1  0  0  0
  3 91  1  0  0  0
  3 92  1  0  0  0
  4  5  1  0  0  0
  4 93  1  0  0  0
  4 94  1  0  0  0
  5  6  1  0  0  0
  5 26  1  0  0  0
  5 95  1  0  0  0
  6 25  1  0  0  0
  6 96  1  0  0  0
  6 97  1  0  0  0
  7  8  2  0  0  0
  7 26  1  0  0  0
  7 29  1  0  0  0
  8  9  1  0  0  0
  8 22  1  0  0  0
  9 10  1  0  0  0
  9 27  2  0  0  0
 10 11  2  0  0  0
 10 15  1  0  0  0
 11 12  1  0  0  0
 11 98  1  0  0  0
 12 13  2  0  0  0
 12 99  1  0  0  0
 13 14  1  0  0  0
 13 31  1  0  0  0
 14 15  2  0  0  0
 14100  1  0  0  0
 15101  1  0  0  0
 16 17  2  0  0  0
 16 21  1  0  0  0
 16 31  1  0  0  0
 17 18  1  0  0  0
 17102  1  0  0  0
 18 19  2  0  0  0
 18103  1  0  0  0
 19 20  1  0  0  0
 19 24  1  0  0  0
 20 21  2  0  0  0
 20104  1  0  0  0
 21 23  1  0  0  0
 22 28  1  0  0  0
 22 32  2  0  0  0
 26 27  1  0  0  0
 28105  1  0  0  0
 28106  1  0  0  0
 29107  1  0  0  0
 29108  1  0  0  0
 33 34  1  0  0  0
 33 66  1  0  0  0
 33 70  2  0  0  0
 34 36  1  0  0  0
 34 59  1  0  0  0
 34109  1  0  0  0
 35 44  2  0  0  0
 35 45  1  0  0  0
 35 68  1  0  0  0
 36 56  1  0  0  0
 36110  1  0  0  0
 37 39  1  0  0  0
 37 47  1  0  0  0
 37 66  1  0  0  0
 37111  1  0  0  0
 38 43  2  0  0  0
 38 46  1  0  0  0
 38 47  1  0  0  0
 39 64  1  0  0  0
 39 67  2  0  0  0
 40 52  1  0  0  0
 40 53  2  0  0  0
 40 58  1  0  0  0
 41112  1  0  0  0
 41113  1  0  0  0
 41114  1  0  0  0
 41 48  1  0  0  0
 42 43  1  0  0  0
 42 66  1  0  0  0
 42115  1  0  0  0
 42116  1  0  0  0
 43 44  1  0  0  0
 44117  1  0  0  0
 45 46  2  0  0  0
 45118  1  0  0  0
 46119  1  0  0  0
 47120  1  0  0  0
 47121  1  0  0  0
 48 56  1  0  0  0
 48 65  1  0  0  0
 48122  1  0  0  0
 49 50  1  0  0  0
 49 53  1  0  0  0
 49 64  1  0  0  0
 49123  1  0  0  0
 50 51  1  0  0  0
 50124  1  0  0  0
 50125  1  0  0  0
 51 52  1  0  0  0
 51126  1  0  0  0
 51127  1  0  0  0
 52128  1  0  0  0
 52129  1  0  0  0
 53 54  1  0  0  0
 54 55  2  0  0  0
 54130  1  0  0  0
 55 57  1  0  0  0
 55131  1  0  0  0
 56 69  2  0  0  0
 57 58  2  0  0  0
 57132  1  0  0  0
 58133  1  0  0  0
 59 60  1  0  0  0
 59 61  1  0  0  0
 59 62  1  0  0  0
 60134  1  0  0  0
 60135  1  0  0  0
 60136  1  0  0  0
 61137  1  0  0  0
 61138  1  0  0  0
 61139  1  0  0  0
 62140  1  0  0  0
 62141  1  0  0  0
 62142  1  0  0  0
 63 65  1  0  0  0
 63143  1  0  0  0
 63144  1  0  0  0
 63145  1  0  0  0
 64146  1  0  0  0
 65147  1  0  0  0
 68 85  1  0  0  0
 71 72  2  0  0  0
 71 73  1  0  0  0
 71 79  1  0  0  0
 72 74  1  0  0  0
 72 80  1  0  0  0
 73 75  2  0  0  0
 73 76  1  0  0  0
 74 77  1  0  0  0
 74 86  2  0  0  0
 75 86  1  0  0  0
 75 87  1  0  0  0
 76148  1  0  0  0
 76149  1  0  0  0
 76150  1  0  0  0
 77151  1  0  0  0
 77152  1  0  0  0
 77153  1  0  0  0
 78 79  1  0  0  0
 78154  1  0  0  0
 78155  1  0  0  0
 78156  1  0  0  0
 79157  1  0  0  0
 79158  1  0  0  0
 80 81  1  0  0  0
 80159  1  0  0  0
 80160  1  0  0  0
 81 85  1  0  0  0
 81161  1  0  0  0
 81162  1  0  0  0
 82 83  1  0  0  0
 82 84  1  0  0  0
 82163  1  0  0  0
 82164  1  0  0  0
 83 87  1  0  0  0
 83165  1  0  0  0
 83166  1  0  0  0
 84 88  1  0  0  0
 84167  1  0  0  0
 84168  1  0  0  0
 85169  1  0  0  0
 85170  1  0  0  0
 87171  1  0  0  0
 88172  1  0  0  0
M  ISO  4   1 100  68 101  85 101  88 100
M  END
> <chiral flag>
0

> <version>
0

> <s_m_source_file>
/data/baiqing/PycharmProjects/Reinvent-master-3.2/result/LINK_invent/BTK/process_docking_weight1_custom_sum_contain_oxygen_bond_distance_aromatic_linkinvent_7_9_3/rearranged_h_0021.sdf

> <i_m_source_file_index>
75

> <r_mmod_Potential_Energy-OPLS-2005>
-246.836563110352

> <r_mmod_Stretch_Energy-OPLS-2005>
42.9167213439941

> <r_mmod_Bend_Energy-OPLS-2005>
108.260398864746

> <r_mmod_Torsional_Energy-OPLS-2005>
267.051666259766

> <r_mmod_Improper_Torsional_Energy-OPLS-2005>
17.584285736084

> <r_mmod_Van_der_Waal_Energy-OPLS-2005>
169.67643737793

> <r_mmod_Electrostatic_Energy-OPLS-2005>
-621.896545410156

> <r_mmod_Solvation_Energy-OPLS-2005>
-246.423461914062

> <b_mmod_Minimization_Converged-OPLS-2005>
0

> <r_mmod_RMS_Derivative-OPLS-2005>
12.137152671814

$$$$
76
                    3D
 Structure written by MMmdl.
164172  0  0  1  0            999 V2000
  -30.6551  -14.4848   20.5818 C   0  0  0  0  0  0
  -30.4350  -12.3135   19.4179 C   0  0  0  0  0  0
  -29.4994  -12.5077   18.2039 C   0  0  0  0  0  0
  -28.0178  -12.3715   18.6096 C   0  0  0  0  0  0
  -27.6620  -13.1991   19.8740 C   0  0  2  0  0  0
  -28.7004  -12.9493   20.9900 C   0  0  0  0  0  0
  -25.2618  -13.8150   20.5688 C   0  0  0  0  0  0
  -24.1851  -13.0441   20.9157 C   0  0  0  0  0  0
  -24.6379  -11.6904   20.8709 C   0  0  0  0  0  0
  -23.9038  -10.4296   21.0414 C   0  0  0  0  0  0
  -24.3604   -9.4219   21.9186 C   0  0  0  0  0  0
  -23.6280   -8.2257   22.0763 C   0  0  0  0  0  0
  -22.4263   -8.0270   21.3543 C   0  0  0  0  0  0
  -21.9889   -9.0259   20.4659 C   0  0  0  0  0  0
  -22.7212  -10.2145   20.3066 C   0  0  0  0  0  0
  -21.6852   -6.0728   22.5277 C   0  0  0  0  0  0
  -21.4027   -6.5644   23.8209 C   0  0  0  0  0  0
  -21.3643   -5.6793   24.9160 C   0  0  0  0  0  0
  -21.6033   -4.3060   24.7211 C   0  0  0  0  0  0
  -21.8828   -3.8142   23.4337 C   0  0  0  0  0  0
  -21.9199   -4.6957   22.3399 C   0  0  0  0  0  0
  -22.7875  -13.5258   21.1810 C   0  0  0  0  0  0
  -22.1668   -4.2149   21.0978 F   0  0  0  0  0  0
  -21.5616   -3.4536   25.7715 F   0  0  0  0  0  0
  -30.0324  -13.2811   20.4501 N   0  0  0  0  0  0
  -26.3015  -12.9292   20.3327 N   0  0  0  0  0  0
  -25.9296  -11.6462   20.5721 N   0  0  0  0  0  0
  -22.0518  -12.8269   22.0379 N   0  0  0  0  0  0
  -25.4405  -15.1876   20.4177 N   0  0  0  0  0  0
  -31.7930  -14.6897   20.1499 O   0  0  0  0  0  0
  -21.6643   -6.8860   21.4228 O   0  0  0  0  0  0
  -22.3575  -14.5561   20.6654 O   0  0  0  0  0  0
  -24.6151  -31.8668   23.2108 C   0  0  0  0  0  0
  -25.9044  -32.4817   23.8398 C   0  0  1  0  0  0
  -27.2393  -27.4258   20.0775 C   0  0  0  0  0  0
  -25.5904  -33.8618   24.2331 N   0  0  0  0  0  0
  -23.4037  -30.4925   21.5507 C   0  0  2  0  0  0
  -24.8486  -28.9584   20.1165 C   0  0  0  0  0  0
  -22.7409  -29.4665   22.4975 C   0  0  0  0  0  0
  -18.0279  -28.1378   22.8487 C   0  0  0  0  0  0
  -24.1483  -36.7307   23.2633 C   0  0  0  0  0  0
  -25.9354  -30.8278   21.3674 C   0  0  0  0  0  0
  -26.0109  -29.4618   20.7134 C   0  0  0  0  0  0
  -27.2028  -28.6994   20.6997 C   0  0  0  0  0  0
  -26.0460  -26.9352   19.4968 C   0  0  0  0  0  0
  -24.8608  -27.6916   19.5141 C   0  0  0  0  0  0
  -23.6136  -29.8281   20.1649 C   0  0  0  0  0  0
  -25.4107  -36.3105   24.0329 C   0  0  1  0  0  0
  -20.5866  -28.3669   23.1301 C   0  0  2  0  0  0
  -20.6761  -26.9406   22.5403 C   0  0  0  0  0  0
  -19.5745  -26.6383   21.5198 C   0  0  0  0  0  0
  -18.1927  -26.7916   22.1623 C   0  0  0  0  0  0
  -19.1525  -28.8837   23.2892 C   0  0  0  0  0  0
  -18.9457  -30.1446   23.8901 C   0  0  0  0  0  0
  -17.6464  -30.6581   24.0564 C   0  0  0  0  0  0
  -25.9037  -34.9470   23.5126 C   0  0  0  0  0  0
  -16.5354  -29.9093   23.6326 C   0  0  0  0  0  0
  -16.7268  -28.6508   23.0339 C   0  0  0  0  0  0
  -26.4473  -31.6602   25.0723 C   0  0  0  0  0  0
  -25.3752  -31.3746   26.1491 C   0  0  0  0  0  0
  -27.0279  -30.3031   24.6112 C   0  0  0  0  0  0
  -27.6069  -32.4300   25.7462 C   0  0  0  0  0  0
  -27.5582  -37.1802   24.8460 C   0  0  0  0  0  0
  -21.4136  -29.3039   22.3705 N   0  0  0  0  0  0
  -26.4289  -37.3791   23.9411 N   0  0  0  0  0  0
  -24.6698  -31.0764   22.1017 N   0  0  0  0  0  0
  -23.4167  -28.8212   23.3030 O   0  0  0  0  0  0
  -28.4192  -26.6983   20.1100 O   0  0  0  0  0  0
  -26.5593  -34.8914   22.4687 O   0  0  0  0  0  0
  -23.5336  -32.1435   23.7491 O   0  0  0  0  0  0
  -30.1703  -19.1410   20.2248 C   0  0  0  0  0  0
  -28.8081  -18.8645   22.1958 C   0  0  0  0  0  0
  -30.3783  -17.7384   20.1521 C   0  0  0  0  0  0
  -29.0059  -17.4648   22.1547 C   0  0  0  0  0  0
  -29.3709  -19.7229   21.2330 C   0  0  0  0  0  0
  -29.8137  -16.8703   21.1410 C   0  0  0  0  0  0
  -31.1541  -17.2426   18.9446 C   0  0  0  0  0  0
  -29.1841  -16.1807   24.3626 C   0  0  0  0  0  0
  -28.2782  -16.6251   23.2060 C   0  0  0  0  0  0
  -28.8984  -23.4503   20.4143 C   0  0  0  0  0  0
  -29.5925  -24.5514   19.5707 C   0  0  0  0  0  0
  -29.7067  -22.1245   20.4642 C   0  0  0  0  0  0
  -28.6925  -25.7192   19.0921 C   0  0  0  0  0  0
  -29.8758  -15.4293   21.1579 N   0  0  0  0  0  0
  -29.0736  -21.1024   21.3056 N   0  0  0  0  0  0
  -31.4776  -12.4351   19.1161 H   0  0  0  0  0  0
  -30.3552  -11.2965   19.8053 H   0  0  0  0  0  0
  -29.7385  -11.7833   17.4243 H   0  0  0  0  0  0
  -29.6670  -13.4930   17.7658 H   0  0  0  0  0  0
  -27.8208  -11.3142   18.7893 H   0  0  0  0  0  0
  -27.3725  -12.6598   17.7785 H   0  0  0  0  0  0
  -27.7126  -14.2501   19.5911 H   0  0  0  0  0  0
  -28.6810  -11.9015   21.2934 H   0  0  0  0  0  0
  -28.4519  -13.5080   21.8933 H   0  0  0  0  0  0
  -25.2770   -9.5683   22.4733 H   0  0  0  0  0  0
  -23.9981   -7.4659   22.7502 H   0  0  0  0  0  0
  -21.0818   -8.8779   19.8977 H   0  0  0  0  0  0
  -22.3673  -10.9685   19.6170 H   0  0  0  0  0  0
  -21.2045   -7.6155   23.9703 H   0  0  0  0  0  0
  -21.1445   -6.0530   25.9061 H   0  0  0  0  0  0
  -22.0618   -2.7602   23.2848 H   0  0  0  0  0  0
  -22.4107  -11.9920   22.4764 H   0  0  0  0  0  0
  -21.1141  -13.1328   22.2585 H   0  0  0  0  0  0
  -24.6886  -15.8531   20.5601 H   0  0  0  0  0  0
  -26.3017  -15.6248   20.1145 H   0  0  0  0  0  0
  -26.7119  -32.5523   23.1164 H   0  0  0  0  0  0
  -25.0064  -33.9783   25.0482 H   0  0  0  0  0  0
  -22.6936  -31.3100   21.4105 H   0  0  0  0  0  0
  -23.3733  -35.9653   23.3304 H   0  0  0  0  0  0
  -24.3579  -36.8905   22.2046 H   0  0  0  0  0  0
  -23.7238  -37.6514   23.6644 H   0  0  0  0  0  0
  -26.0503  -31.5953   20.6002 H   0  0  0  0  0  0
  -26.8223  -30.8784   21.9879 H   0  0  0  0  0  0
  -28.0992  -29.0850   21.1655 H   0  0  0  0  0  0
  -25.9802  -25.9572   19.0475 H   0  0  0  0  0  0
  -23.9616  -27.2864   19.0697 H   0  0  0  0  0  0
  -23.7299  -30.6052   19.4081 H   0  0  0  0  0  0
  -22.7364  -29.2522   19.8633 H   0  0  0  0  0  0
  -25.1276  -36.1969   25.0818 H   0  0  0  0  0  0
  -20.9958  -28.3235   24.1422 H   0  0  0  0  0  0
  -20.5660  -26.2281   23.3590 H   0  0  0  0  0  0
  -21.6635  -26.7437   22.1207 H   0  0  0  0  0  0
  -19.6912  -25.6296   21.1221 H   0  0  0  0  0  0
  -19.6686  -27.3195   20.6729 H   0  0  0  0  0  0
  -17.4187  -26.6645   21.4039 H   0  0  0  0  0  0
  -18.0358  -26.0062   22.9033 H   0  0  0  0  0  0
  -19.7937  -30.7258   24.2270 H   0  0  0  0  0  0
  -17.5023  -31.6259   24.5173 H   0  0  0  0  0  0
  -15.5360  -30.3005   23.7648 H   0  0  0  0  0  0
  -15.8664  -28.0843   22.7043 H   0  0  0  0  0  0
  -24.5865  -30.7160   25.7841 H   0  0  0  0  0  0
  -24.9028  -32.2932   26.4985 H   0  0  0  0  0  0
  -25.8098  -30.8864   27.0222 H   0  0  0  0  0  0
  -26.2817  -29.6792   24.1176 H   0  0  0  0  0  0
  -27.4047  -29.7270   25.4571 H   0  0  0  0  0  0
  -27.8660  -30.4328   23.9258 H   0  0  0  0  0  0
  -27.2724  -33.3618   26.2038 H   0  0  0  0  0  0
  -28.3880  -32.6820   25.0276 H   0  0  0  0  0  0
  -28.0727  -31.8407   26.5371 H   0  0  0  0  0  0
  -28.2604  -38.0095   24.7496 H   0  0  0  0  0  0
  -28.1068  -36.2623   24.6290 H   0  0  0  0  0  0
  -27.2296  -37.1440   25.8860 H   0  0  0  0  0  0
  -20.9292  -29.8781   21.6944 H   0  0  0  0  0  0
  -26.0168  -38.2863   24.1424 H   0  0  0  0  0  0
  -30.6065  -19.7663   19.4623 H   0  0  0  0  0  0
  -28.1841  -19.2806   22.9741 H   0  0  0  0  0  0
  -31.2115  -18.0037   18.1660 H   0  0  0  0  0  0
  -30.6721  -16.3770   18.4925 H   0  0  0  0  0  0
  -32.1770  -16.9900   19.2213 H   0  0  0  0  0  0
  -28.6125  -15.6219   25.1046 H   0  0  0  0  0  0
  -29.6262  -17.0388   24.8687 H   0  0  0  0  0  0
  -29.9957  -15.5378   24.0208 H   0  0  0  0  0  0
  -27.8084  -15.7587   22.7402 H   0  0  0  0  0  0
  -27.4441  -17.2009   23.6129 H   0  0  0  0  0  0
  -27.9118  -23.2475   19.9936 H   0  0  0  0  0  0
  -28.7257  -23.8350   21.4204 H   0  0  0  0  0  0
  -29.9845  -24.0766   18.6704 H   0  0  0  0  0  0
  -30.4650  -24.9397   20.0962 H   0  0  0  0  0  0
  -30.7072  -22.3232   20.8529 H   0  0  0  0  0  0
  -29.8262  -21.7538   19.4456 H   0  0  0  0  0  0
  -27.8240  -25.2888   18.6047 H   0  0  0  0  0  0
  -29.2214  -26.2535   18.3019 H   0  0  0  0  0  0
  -29.0930  -15.0058   21.6290 H   0  0  0  0  0  0
  -28.5100  -21.4294   22.0871 H   0  0  0  0  0  0
  1 25  1  0  0  0
  1 30  2  0  0  0
  1 84  1  0  0  0
  2  3  1  0  0  0
  2 25  1  0  0  0
  2 86  1  0  0  0
  2 87  1  0  0  0
  3  4  1  0  0  0
  3 88  1  0  0  0
  3 89  1  0  0  0
  4  5  1  0  0  0
  4 90  1  0  0  0
  4 91  1  0  0  0
  5  6  1  0  0  0
  5 26  1  0  0  0
  5 92  1  0  0  0
  6 25  1  0  0  0
  6 93  1  0  0  0
  6 94  1  0  0  0
  7  8  2  0  0  0
  7 26  1  0  0  0
  7 29  1  0  0  0
  8  9  1  0  0  0
  8 22  1  0  0  0
  9 10  1  0  0  0
  9 27  2  0  0  0
 10 11  2  0  0  0
 10 15  1  0  0  0
 11 12  1  0  0  0
 11 95  1  0  0  0
 12 13  2  0  0  0
 12 96  1  0  0  0
 13 14  1  0  0  0
 13 31  1  0  0  0
 14 15  2  0  0  0
 14 97  1  0  0  0
 15 98  1  0  0  0
 16 17  2  0  0  0
 16 21  1  0  0  0
 16 31  1  0  0  0
 17 18  1  0  0  0
 17 99  1  0  0  0
 18 19  2  0  0  0
 18100  1  0  0  0
 19 20  1  0  0  0
 19 24  1  0  0  0
 20 21  2  0  0  0
 20101  1  0  0  0
 21 23  1  0  0  0
 22 28  1  0  0  0
 22 32  2  0  0  0
 26 27  1  0  0  0
 28102  1  0  0  0
 28103  1  0  0  0
 29104  1  0  0  0
 29105  1  0  0  0
 33 34  1  0  0  0
 33 66  1  0  0  0
 33 70  2  0  0  0
 34 36  1  0  0  0
 34 59  1  0  0  0
 34106  1  0  0  0
 35 44  2  0  0  0
 35 45  1  0  0  0
 35 68  1  0  0  0
 36 56  1  0  0  0
 36107  1  0  0  0
 37 39  1  0  0  0
 37 47  1  0  0  0
 37 66  1  0  0  0
 37108  1  0  0  0
 38 43  2  0  0  0
 38 46  1  0  0  0
 38 47  1  0  0  0
 39 64  1  0  0  0
 39 67  2  0  0  0
 40 52  1  0  0  0
 40 53  2  0  0  0
 40 58  1  0  0  0
 41109  1  0  0  0
 41110  1  0  0  0
 41111  1  0  0  0
 41 48  1  0  0  0
 42 43  1  0  0  0
 42 66  1  0  0  0
 42112  1  0  0  0
 42113  1  0  0  0
 43 44  1  0  0  0
 44114  1  0  0  0
 45 46  2  0  0  0
 45115  1  0  0  0
 46116  1  0  0  0
 47117  1  0  0  0
 47118  1  0  0  0
 48 56  1  0  0  0
 48 65  1  0  0  0
 48119  1  0  0  0
 49 50  1  0  0  0
 49 53  1  0  0  0
 49 64  1  0  0  0
 49120  1  0  0  0
 50 51  1  0  0  0
 50121  1  0  0  0
 50122  1  0  0  0
 51 52  1  0  0  0
 51123  1  0  0  0
 51124  1  0  0  0
 52125  1  0  0  0
 52126  1  0  0  0
 53 54  1  0  0  0
 54 55  2  0  0  0
 54127  1  0  0  0
 55 57  1  0  0  0
 55128  1  0  0  0
 56 69  2  0  0  0
 57 58  2  0  0  0
 57129  1  0  0  0
 58130  1  0  0  0
 59 60  1  0  0  0
 59 61  1  0  0  0
 59 62  1  0  0  0
 60131  1  0  0  0
 60132  1  0  0  0
 60133  1  0  0  0
 61134  1  0  0  0
 61135  1  0  0  0
 61136  1  0  0  0
 62137  1  0  0  0
 62138  1  0  0  0
 62139  1  0  0  0
 63 65  1  0  0  0
 63140  1  0  0  0
 63141  1  0  0  0
 63142  1  0  0  0
 64143  1  0  0  0
 65144  1  0  0  0
 68 83  1  0  0  0
 71 73  2  0  0  0
 71 75  1  0  0  0
 71145  1  0  0  0
 72 74  1  0  0  0
 72 75  2  0  0  0
 72146  1  0  0  0
 73 76  1  0  0  0
 73 77  1  0  0  0
 74 76  2  0  0  0
 74 79  1  0  0  0
 75 85  1  0  0  0
 76 84  1  0  0  0
 77147  1  0  0  0
 77148  1  0  0  0
 77149  1  0  0  0
 78 79  1  0  0  0
 78150  1  0  0  0
 78151  1  0  0  0
 78152  1  0  0  0
 79153  1  0  0  0
 79154  1  0  0  0
 80 81  1  0  0  0
 80 82  1  0  0  0
 80155  1  0  0  0
 80156  1  0  0  0
 81 83  1  0  0  0
 81157  1  0  0  0
 81158  1  0  0  0
 82 85  1  0  0  0
 82159  1  0  0  0
 82160  1  0  0  0
 83161  1  0  0  0
 83162  1  0  0  0
 84163  1  0  0  0
 85164  1  0  0  0
M  ISO  4   1 100  68 101  83 101  84 100
M  END
> <chiral flag>
0

> <version>
0

> <s_m_source_file>
/data/baiqing/PycharmProjects/Reinvent-master-3.2/result/LINK_invent/BTK/process_docking_weight1_custom_sum_contain_oxygen_bond_distance_aromatic_linkinvent_7_9_3/rearranged_h_0021.sdf

> <i_m_source_file_index>
76

> <r_mmod_Potential_Energy-OPLS-2005>
-60.2766380310059

> <r_mmod_Stretch_Energy-OPLS-2005>
43.4946327209473

> <r_mmod_Bend_Energy-OPLS-2005>
143.630523681641

> <r_mmod_Torsional_Energy-OPLS-2005>
210.65788269043

> <r_mmod_Improper_Torsional_Energy-OPLS-2005>
3.40469336509705

> <r_mmod_Van_der_Waal_Energy-OPLS-2005>
157.141403198242

> <r_mmod_Electrostatic_Energy-OPLS-2005>
-425.053588867188

> <r_mmod_Solvation_Energy-OPLS-2005>
-208.228942871094

> <b_mmod_Minimization_Converged-OPLS-2005>
0

> <r_mmod_RMS_Derivative-OPLS-2005>
2.50464844703674

$$$$
77
                    3D
 Structure written by MMmdl.
164172  0  0  1  0            999 V2000
  -30.6656  -14.5875   20.4834 C   0  0  0  0  0  0
  -30.4438  -12.3643   19.4351 C   0  0  0  0  0  0
  -29.5011  -12.4802   18.2136 C   0  0  0  0  0  0
  -28.0285  -12.2992   18.6328 C   0  0  0  0  0  0
  -27.6514  -13.1698   19.8587 C   0  0  2  0  0  0
  -28.7080  -13.0014   20.9745 C   0  0  0  0  0  0
  -25.2563  -13.8017   20.5518 C   0  0  0  0  0  0
  -24.1820  -13.0378   20.9137 C   0  0  0  0  0  0
  -24.6347  -11.6836   20.8747 C   0  0  0  0  0  0
  -23.8999  -10.4277   21.0427 C   0  0  0  0  0  0
  -24.3575   -9.4214   21.9200 C   0  0  0  0  0  0
  -23.6298   -8.2228   22.0736 C   0  0  0  0  0  0
  -22.4275   -8.0278   21.3540 C   0  0  0  0  0  0
  -21.9894   -9.0240   20.4626 C   0  0  0  0  0  0
  -22.7188  -10.2133   20.3056 C   0  0  0  0  0  0
  -21.6837   -6.0744   22.5296 C   0  0  0  0  0  0
  -21.4005   -6.5641   23.8234 C   0  0  0  0  0  0
  -21.3651   -5.6783   24.9193 C   0  0  0  0  0  0
  -21.6039   -4.3048   24.7240 C   0  0  0  0  0  0
  -21.8828   -3.8150   23.4355 C   0  0  0  0  0  0
  -21.9199   -4.6972   22.3421 C   0  0  0  0  0  0
  -22.7865  -13.5212   21.1886 C   0  0  0  0  0  0
  -22.1676   -4.2180   21.0995 F   0  0  0  0  0  0
  -21.5638   -3.4513   25.7739 F   0  0  0  0  0  0
  -30.0196  -13.3768   20.4246 N   0  0  0  0  0  0
  -26.2976  -12.9099   20.3289 N   0  0  0  0  0  0
  -25.9249  -11.6317   20.5767 N   0  0  0  0  0  0
  -22.0508  -12.8183   22.0417 N   0  0  0  0  0  0
  -25.4220  -15.1729   20.3772 N   0  0  0  0  0  0
  -31.8603  -14.6395   20.1795 O   0  0  0  0  0  0
  -21.6632   -6.8886   21.4255 O   0  0  0  0  0  0
  -22.3573  -14.5575   20.6811 O   0  0  0  0  0  0
  -24.6133  -31.8693   23.2111 C   0  0  0  0  0  0
  -25.9024  -32.4833   23.8411 C   0  0  1  0  0  0
  -27.2176  -27.4078   20.0920 C   0  0  0  0  0  0
  -25.5879  -33.8639   24.2336 N   0  0  0  0  0  0
  -23.4024  -30.4926   21.5532 C   0  0  2  0  0  0
  -24.8465  -28.9612   20.1138 C   0  0  0  0  0  0
  -22.7397  -29.4673   22.5009 C   0  0  0  0  0  0
  -18.0302  -28.1389   22.8583 C   0  0  0  0  0  0
  -24.1485  -36.7297   23.2644 C   0  0  0  0  0  0
  -25.9373  -30.8216   21.3754 C   0  0  0  0  0  0
  -26.0111  -29.4586   20.7119 C   0  0  0  0  0  0
  -27.2031  -28.6907   20.6942 C   0  0  0  0  0  0
  -26.0385  -26.9461   19.4652 C   0  0  0  0  0  0
  -24.8555  -27.7049   19.4871 C   0  0  0  0  0  0
  -23.6094  -29.8282   20.1676 C   0  0  0  0  0  0
  -25.4113  -36.3127   24.0338 C   0  0  1  0  0  0
  -20.5876  -28.3725   23.1438 C   0  0  2  0  0  0
  -20.6747  -26.9442   22.5613 C   0  0  0  0  0  0
  -19.5839  -26.6505   21.5300 C   0  0  0  0  0  0
  -18.2013  -26.7940   22.1753 C   0  0  0  0  0  0
  -19.1532  -28.8873   23.2969 C   0  0  0  0  0  0
  -18.9434  -30.1502   23.8903 C   0  0  0  0  0  0
  -17.6437  -30.6638   24.0490 C   0  0  0  0  0  0
  -25.9034  -34.9482   23.5135 C   0  0  0  0  0  0
  -16.5336  -29.9097   23.6302 C   0  0  0  0  0  0
  -16.7278  -28.6479   23.0438 C   0  0  0  0  0  0
  -26.4447  -31.6610   25.0745 C   0  0  0  0  0  0
  -25.3703  -31.3682   26.1482 C   0  0  0  0  0  0
  -27.0283  -30.3055   24.6138 C   0  0  0  0  0  0
  -27.6037  -32.4331   25.7488 C   0  0  0  0  0  0
  -27.5587  -37.1812   24.8472 C   0  0  0  0  0  0
  -21.4124  -29.3024   22.3734 N   0  0  0  0  0  0
  -26.4314  -37.3796   23.9394 N   0  0  0  0  0  0
  -24.6683  -31.0764   22.1031 N   0  0  0  0  0  0
  -23.4160  -28.8252   23.3097 O   0  0  0  0  0  0
  -28.3671  -26.6347   20.1025 O   0  0  0  0  0  0
  -26.5623  -34.8935   22.4715 O   0  0  0  0  0  0
  -23.5332  -32.1463   23.7501 O   0  0  0  0  0  0
  -28.2267  -21.6476   21.3906 C   0  0  0  0  0  0
  -28.9049  -21.7293   20.1602 C   0  0  0  0  0  0
  -29.7656  -20.6460   19.8153 C   0  0  0  0  0  0
  -28.4162  -20.5204   22.2096 C   0  0  0  0  0  0
  -29.9032  -19.5477   20.7106 C   0  0  0  0  0  0
  -27.6380  -20.3794   23.5019 C   0  0  0  0  0  0
  -29.4362  -16.3296   19.1485 C   0  0  0  0  0  0
  -28.7367  -16.0482   21.5737 C   0  0  0  0  0  0
  -28.5732  -22.8873   19.2021 C   0  0  0  0  0  0
  -29.1130  -24.3144   19.5278 C   0  0  0  0  0  0
  -30.8801  -17.1731   21.0669 C   0  0  0  0  0  0
  -28.2116  -25.2232   20.4061 C   0  0  0  0  0  0
  -29.9239  -15.9975   20.5872 C   0  0  0  0  0  0
  -29.2466  -19.4997   21.8913 N   0  0  0  0  0  0
  -30.7431  -18.4690   20.3627 N   0  0  0  0  0  0
  -30.6236  -20.6269   18.3092 Cl  0  0  0  0  0  0
  -30.4045  -11.3647   19.8671 H   0  0  0  0  0  0
  -31.4788  -12.4919   19.1094 H   0  0  0  0  0  0
  -29.7719  -11.7390   17.4609 H   0  0  0  0  0  0
  -29.6304  -13.4497   17.7335 H   0  0  0  0  0  0
  -27.8945  -11.2449   18.8813 H   0  0  0  0  0  0
  -27.3615  -12.4979   17.7945 H   0  0  0  0  0  0
  -27.6505  -14.1939   19.5118 H   0  0  0  0  0  0
  -28.7352  -11.9561   21.2896 H   0  0  0  0  0  0
  -28.4601  -13.5359   21.8876 H   0  0  0  0  0  0
  -25.2735   -9.5709   22.4752 H   0  0  0  0  0  0
  -24.0038   -7.4604   22.7406 H   0  0  0  0  0  0
  -21.0848   -8.8726   19.8923 H   0  0  0  0  0  0
  -22.3648  -10.9657   19.6152 H   0  0  0  0  0  0
  -21.1981   -7.6141   23.9760 H   0  0  0  0  0  0
  -21.1452   -6.0497   25.9088 H   0  0  0  0  0  0
  -22.0613   -2.7612   23.2838 H   0  0  0  0  0  0
  -22.4124  -11.9808   22.4717 H   0  0  0  0  0  0
  -21.1145  -13.1210   22.2699 H   0  0  0  0  0  0
  -24.6513  -15.8261   20.4622 H   0  0  0  0  0  0
  -26.2856  -15.6085   20.0776 H   0  0  0  0  0  0
  -26.7075  -32.5518   23.1164 H   0  0  0  0  0  0
  -24.9990  -33.9799   25.0452 H   0  0  0  0  0  0
  -22.6919  -31.3104   21.4170 H   0  0  0  0  0  0
  -23.3768  -35.9613   23.3341 H   0  0  0  0  0  0
  -24.3571  -36.8879   22.2053 H   0  0  0  0  0  0
  -23.7222  -37.6503   23.6635 H   0  0  0  0  0  0
  -26.0683  -31.5937   20.6160 H   0  0  0  0  0  0
  -26.8175  -30.8599   22.0052 H   0  0  0  0  0  0
  -28.1001  -29.0682   21.1622 H   0  0  0  0  0  0
  -26.0154  -25.9988   18.9441 H   0  0  0  0  0  0
  -23.9613  -27.3237   19.0146 H   0  0  0  0  0  0
  -23.7139  -30.6037   19.4070 H   0  0  0  0  0  0
  -22.7314  -29.2471   19.8800 H   0  0  0  0  0  0
  -25.1305  -36.2006   25.0834 H   0  0  0  0  0  0
  -20.9946  -28.3372   24.1558 H   0  0  0  0  0  0
  -20.5456  -26.2351   23.3814 H   0  0  0  0  0  0
  -21.6658  -26.7346   22.1584 H   0  0  0  0  0  0
  -19.7050  -25.6473   21.1197 H   0  0  0  0  0  0
  -19.6785  -27.3450   20.6937 H   0  0  0  0  0  0
  -17.4220  -26.6540   21.4248 H   0  0  0  0  0  0
  -18.0598  -26.0117   22.9208 H   0  0  0  0  0  0
  -19.7891  -30.7340   24.2251 H   0  0  0  0  0  0
  -17.4959  -31.6372   24.4953 H   0  0  0  0  0  0
  -15.5323  -30.2990   23.7580 H   0  0  0  0  0  0
  -15.8667  -28.0751   22.7241 H   0  0  0  0  0  0
  -24.5887  -30.7042   25.7773 H   0  0  0  0  0  0
  -24.8879  -32.2817   26.4971 H   0  0  0  0  0  0
  -25.8046  -30.8801   27.0214 H   0  0  0  0  0  0
  -26.2832  -29.6834   24.1178 H   0  0  0  0  0  0
  -27.4024  -29.7295   25.4606 H   0  0  0  0  0  0
  -27.8682  -30.4385   23.9319 H   0  0  0  0  0  0
  -27.2682  -33.3625   26.2107 H   0  0  0  0  0  0
  -28.3808  -32.6908   25.0275 H   0  0  0  0  0  0
  -28.0754  -31.8433   26.5362 H   0  0  0  0  0  0
  -28.2642  -38.0078   24.7520 H   0  0  0  0  0  0
  -28.1055  -36.2618   24.6319 H   0  0  0  0  0  0
  -27.2297  -37.1485   25.8876 H   0  0  0  0  0  0
  -20.9288  -29.8572   21.6800 H   0  0  0  0  0  0
  -26.0217  -38.2881   24.1388 H   0  0  0  0  0  0
  -27.5330  -22.4240   21.6835 H   0  0  0  0  0  0
  -28.3092  -20.2252   24.3448 H   0  0  0  0  0  0
  -26.9516  -19.5351   23.4412 H   0  0  0  0  0  0
  -27.0489  -21.2740   23.7077 H   0  0  0  0  0  0
  -28.7213  -17.1533   19.1470 H   0  0  0  0  0  0
  -28.9647  -15.4977   18.6388 H   0  0  0  0  0  0
  -30.2670  -16.6155   18.5056 H   0  0  0  0  0  0
  -28.3690  -17.0654   21.6814 H   0  0  0  0  0  0
  -29.0181  -15.7078   22.5694 H   0  0  0  0  0  0
  -27.8709  -15.4903   21.2451 H   0  0  0  0  0  0
  -27.4877  -22.9236   19.0931 H   0  0  0  0  0  0
  -28.9240  -22.6259   18.2052 H   0  0  0  0  0  0
  -29.1921  -24.8210   18.5650 H   0  0  0  0  0  0
  -30.1311  -24.2727   19.9142 H   0  0  0  0  0  0
  -30.7786  -17.3336   22.1397 H   0  0  0  0  0  0
  -31.9256  -16.8944   20.9354 H   0  0  0  0  0  0
  -28.4758  -25.0849   21.4543 H   0  0  0  0  0  0
  -27.1820  -24.8732   20.3381 H   0  0  0  0  0  0
  -31.1885  -18.5448   19.4551 H   0  0  0  0  0  0
  1 25  1  0  0  0
  1 30  2  0  0  0
  1 83  1  0  0  0
  2  3  1  0  0  0
  2 25  1  0  0  0
  2 87  1  0  0  0
  2 88  1  0  0  0
  3  4  1  0  0  0
  3 89  1  0  0  0
  3 90  1  0  0  0
  4  5  1  0  0  0
  4 91  1  0  0  0
  4 92  1  0  0  0
  5  6  1  0  0  0
  5 26  1  0  0  0
  5 93  1  0  0  0
  6 25  1  0  0  0
  6 94  1  0  0  0
  6 95  1  0  0  0
  7  8  2  0  0  0
  7 26  1  0  0  0
  7 29  1  0  0  0
  8  9  1  0  0  0
  8 22  1  0  0  0
  9 10  1  0  0  0
  9 27  2  0  0  0
 10 11  2  0  0  0
 10 15  1  0  0  0
 11 12  1  0  0  0
 11 96  1  0  0  0
 12 13  2  0  0  0
 12 97  1  0  0  0
 13 14  1  0  0  0
 13 31  1  0  0  0
 14 15  2  0  0  0
 14 98  1  0  0  0
 15 99  1  0  0  0
 16 17  2  0  0  0
 16 21  1  0  0  0
 16 31  1  0  0  0
 17 18  1  0  0  0
 17100  1  0  0  0
 18 19  2  0  0  0
 18101  1  0  0  0
 19 20  1  0  0  0
 19 24  1  0  0  0
 20 21  2  0  0  0
 20102  1  0  0  0
 21 23  1  0  0  0
 22 28  1  0  0  0
 22 32  2  0  0  0
 26 27  1  0  0  0
 28103  1  0  0  0
 28104  1  0  0  0
 29105  1  0  0  0
 29106  1  0  0  0
 33 34  1  0  0  0
 33 66  1  0  0  0
 33 70  2  0  0  0
 34 36  1  0  0  0
 34 59  1  0  0  0
 34107  1  0  0  0
 35 44  2  0  0  0
 35 45  1  0  0  0
 35 68  1  0  0  0
 36 56  1  0  0  0
 36108  1  0  0  0
 37 39  1  0  0  0
 37 47  1  0  0  0
 37 66  1  0  0  0
 37109  1  0  0  0
 38 43  2  0  0  0
 38 46  1  0  0  0
 38 47  1  0  0  0
 39 64  1  0  0  0
 39 67  2  0  0  0
 40 52  1  0  0  0
 40 53  2  0  0  0
 40 58  1  0  0  0
 41110  1  0  0  0
 41111  1  0  0  0
 41112  1  0  0  0
 41 48  1  0  0  0
 42 43  1  0  0  0
 42 66  1  0  0  0
 42113  1  0  0  0
 42114  1  0  0  0
 43 44  1  0  0  0
 44115  1  0  0  0
 45 46  2  0  0  0
 45116  1  0  0  0
 46117  1  0  0  0
 47118  1  0  0  0
 47119  1  0  0  0
 48 56  1  0  0  0
 48 65  1  0  0  0
 48120  1  0  0  0
 49 50  1  0  0  0
 49 53  1  0  0  0
 49 64  1  0  0  0
 49121  1  0  0  0
 50 51  1  0  0  0
 50122  1  0  0  0
 50123  1  0  0  0
 51 52  1  0  0  0
 51124  1  0  0  0
 51125  1  0  0  0
 52126  1  0  0  0
 52127  1  0  0  0
 53 54  1  0  0  0
 54 55  2  0  0  0
 54128  1  0  0  0
 55 57  1  0  0  0
 55129  1  0  0  0
 56 69  2  0  0  0
 57 58  2  0  0  0
 57130  1  0  0  0
 58131  1  0  0  0
 59 60  1  0  0  0
 59 61  1  0  0  0
 59 62  1  0  0  0
 60132  1  0  0  0
 60133  1  0  0  0
 60134  1  0  0  0
 61135  1  0  0  0
 61136  1  0  0  0
 61137  1  0  0  0
 62138  1  0  0  0
 62139  1  0  0  0
 62140  1  0  0  0
 63 65  1  0  0  0
 63141  1  0  0  0
 63142  1  0  0  0
 63143  1  0  0  0
 64144  1  0  0  0
 65145  1  0  0  0
 68 82  1  0  0  0
 71 72  2  0  0  0
 71 74  1  0  0  0
 71146  1  0  0  0
 72 73  1  0  0  0
 72 79  1  0  0  0
 73 75  2  0  0  0
 73 86  1  0  0  0
 74 76  1  0  0  0
 74 84  2  0  0  0
 75 84  1  0  0  0
 75 85  1  0  0  0
 76147  1  0  0  0
 76148  1  0  0  0
 76149  1  0  0  0
 77150  1  0  0  0
 77151  1  0  0  0
 77152  1  0  0  0
 77 83  1  0  0  0
 78 83  1  0  0  0
 78153  1  0  0  0
 78154  1  0  0  0
 78155  1  0  0  0
 79 80  1  0  0  0
 79156  1  0  0  0
 79157  1  0  0  0
 80 82  1  0  0  0
 80158  1  0  0  0
 80159  1  0  0  0
 81 83  1  0  0  0
 81 85  1  0  0  0
 81160  1  0  0  0
 81161  1  0  0  0
 82162  1  0  0  0
 82163  1  0  0  0
 85164  1  0  0  0
M  ISO  4   1 100  68 101  82 101  83 100
M  END
> <chiral flag>
0

> <version>
0

> <s_m_source_file>
/data/baiqing/PycharmProjects/Reinvent-master-3.2/result/LINK_invent/BTK/process_docking_weight1_custom_sum_contain_oxygen_bond_distance_aromatic_linkinvent_7_9_3/rearranged_h_0021.sdf

> <i_m_source_file_index>
77

> <r_mmod_Potential_Energy-OPLS-2005>
-41.610221862793

> <r_mmod_Stretch_Energy-OPLS-2005>
55.8717880249023

> <r_mmod_Bend_Energy-OPLS-2005>
147.266479492188

> <r_mmod_Torsional_Energy-OPLS-2005>
233.123321533203

> <r_mmod_Improper_Torsional_Energy-OPLS-2005>
8.18258190155029

> <r_mmod_Van_der_Waal_Energy-OPLS-2005>
173.222625732422

> <r_mmod_Electrostatic_Energy-OPLS-2005>
-491.161743164062

> <r_mmod_Solvation_Energy-OPLS-2005>
-197.857482910156

> <b_mmod_Minimization_Converged-OPLS-2005>
0

> <r_mmod_RMS_Derivative-OPLS-2005>
3.87672472000122

$$$$
78
                    3D
 Structure written by MMmdl.
157165  0  0  1  0            999 V2000
  -30.5197  -14.9971   20.4095 C   0  0  0  0  0  0
  -30.4430  -12.6165   19.5081 C   0  0  0  0  0  0
  -29.5272  -12.5334   18.2640 C   0  0  0  0  0  0
  -28.0615  -12.3100   18.6809 C   0  0  0  0  0  0
  -27.6282  -13.2502   19.8359 C   0  0  2  0  0  0
  -28.6680  -13.2976   20.9757 C   0  0  0  0  0  0
  -25.2452  -13.8213   20.5692 C   0  0  0  0  0  0
  -24.1778  -13.0438   20.9235 C   0  0  0  0  0  0
  -24.6396  -11.6925   20.8756 C   0  0  0  0  0  0
  -23.9082  -10.4295   21.0408 C   0  0  0  0  0  0
  -24.3632   -9.4205   21.9180 C   0  0  0  0  0  0
  -23.6304   -8.2241   22.0748 C   0  0  0  0  0  0
  -22.4281   -8.0283   21.3545 C   0  0  0  0  0  0
  -21.9922   -9.0257   20.4646 C   0  0  0  0  0  0
  -22.7253  -10.2136   20.3057 C   0  0  0  0  0  0
  -21.6855   -6.0735   22.5277 C   0  0  0  0  0  0
  -21.4017   -6.5640   23.8210 C   0  0  0  0  0  0
  -21.3662   -5.6792   24.9172 C   0  0  0  0  0  0
  -21.6040   -4.3053   24.7220 C   0  0  0  0  0  0
  -21.8822   -3.8147   23.4341 C   0  0  0  0  0  0
  -21.9194   -4.6965   22.3400 C   0  0  0  0  0  0
  -22.7796  -13.5207   21.1883 C   0  0  0  0  0  0
  -22.1659   -4.2151   21.0976 F   0  0  0  0  0  0
  -21.5630   -3.4535   25.7732 F   0  0  0  0  0  0
  -29.9407  -13.7231   20.3776 N   0  0  0  0  0  0
  -26.2876  -12.9451   20.3221 N   0  0  0  0  0  0
  -25.9328  -11.6581   20.5730 N   0  0  0  0  0  0
  -22.0442  -12.8204   22.0444 N   0  0  0  0  0  0
  -25.4103  -15.1936   20.4077 N   0  0  0  0  0  0
  -31.7233  -15.0467   20.1339 O   0  0  0  0  0  0
  -21.6644   -6.8880   21.4239 O   0  0  0  0  0  0
  -22.3478  -14.5502   20.6712 O   0  0  0  0  0  0
  -24.6468  -31.8410   23.1846 C   0  0  0  0  0  0
  -25.9225  -32.4674   23.8251 C   0  0  1  0  0  0
  -27.2193  -27.1035   20.1557 C   0  0  0  0  0  0
  -25.5960  -33.8483   24.2166 N   0  0  0  0  0  0
  -23.4521  -30.4584   21.5311 C   0  0  2  0  0  0
  -24.9026  -28.8785   20.1086 C   0  0  0  0  0  0
  -22.7584  -29.4534   22.4850 C   0  0  0  0  0  0
  -18.0307  -28.1392   22.8476 C   0  0  0  0  0  0
  -24.1491  -36.7249   23.2642 C   0  0  0  0  0  0
  -26.0100  -30.7032   21.3888 C   0  0  0  0  0  0
  -26.0807  -29.3115   20.7302 C   0  0  0  0  0  0
  -27.2387  -28.4408   20.7354 C   0  0  0  0  0  0
  -26.0157  -26.7820   19.4896 C   0  0  0  0  0  0
  -24.8850  -27.6286   19.4714 C   0  0  0  0  0  0
  -23.6802  -29.7843   20.1516 C   0  0  0  0  0  0
  -25.4125  -36.3022   24.0312 C   0  0  1  0  0  0
  -20.5922  -28.3727   23.1224 C   0  0  2  0  0  0
  -20.6791  -26.9428   22.5403 C   0  0  0  0  0  0
  -19.5763  -26.6376   21.5215 C   0  0  0  0  0  0
  -18.1946  -26.7928   22.1625 C   0  0  0  0  0  0
  -19.1565  -28.8878   23.2838 C   0  0  0  0  0  0
  -18.9482  -30.1472   23.8864 C   0  0  0  0  0  0
  -17.6478  -30.6588   24.0559 C   0  0  0  0  0  0
  -25.9082  -34.9399   23.5050 C   0  0  0  0  0  0
  -16.5368  -29.9081   23.6335 C   0  0  0  0  0  0
  -16.7293  -28.6499   23.0358 C   0  0  0  0  0  0
  -26.4531  -31.6552   25.0705 C   0  0  0  0  0  0
  -25.3710  -31.3758   26.1398 C   0  0  0  0  0  0
  -27.0400  -30.2938   24.6318 C   0  0  0  0  0  0
  -27.6049  -32.4329   25.7499 C   0  0  0  0  0  0
  -27.5575  -37.1782   24.8465 C   0  0  0  0  0  0
  -21.4274  -29.3048   22.3596 N   0  0  0  0  0  0
  -26.4284  -37.3739   23.9410 N   0  0  0  0  0  0
  -24.7230  -31.0234   22.0895 N   0  0  0  0  0  0
  -23.4212  -28.8096   23.3025 O   0  0  0  0  0  0
  -28.2605  -26.0956   20.2398 O   0  0  0  0  0  0
  -26.5675  -34.8905   22.4633 O   0  0  0  0  0  0
  -23.5579  -32.1308   23.7039 O   0  0  0  0  0  0
  -28.7843  -18.7570   20.4340 C   0  0  0  0  0  0
  -29.8490  -17.7182   20.4411 C   0  0  0  0  0  0
  -29.2682  -20.0912   20.2671 C   0  0  0  0  0  0
  -30.9935  -18.4795   20.3413 C   0  0  0  0  0  0
  -27.3198  -18.4223   20.5506 C   0  0  0  0  0  0
  -32.4271  -18.0404   20.3745 C   0  0  0  0  0  0
  -31.6118  -20.9222   19.9214 C   0  0  0  0  0  0
  -28.5219  -21.5693   20.0186 C   0  0  0  0  0  0
  -28.9327  -23.1833   20.4034 C   0  0  0  0  0  0
  -27.9881  -24.5594   20.0271 C   0  0  0  0  0  0
  -30.6508  -19.8572   20.1741 N   0  0  0  0  0  0
  -29.7069  -16.1723   20.5560 N   0  0  0  0  0  0
  -31.4754  -12.7798   19.1944 H   0  0  0  0  0  0
  -30.4465  -11.6705   20.0519 H   0  0  0  0  0  0
  -29.8572  -11.7299   17.6040 H   0  0  0  0  0  0
  -29.6079  -13.4571   17.6888 H   0  0  0  0  0  0
  -27.9670  -11.2709   18.9992 H   0  0  0  0  0  0
  -27.3994  -12.4265   17.8221 H   0  0  0  0  0  0
  -27.5860  -14.2476   19.3981 H   0  0  0  0  0  0
  -28.7638  -12.3263   21.4629 H   0  0  0  0  0  0
  -28.3564  -14.0017   21.7493 H   0  0  0  0  0  0
  -25.2772   -9.5682   22.4759 H   0  0  0  0  0  0
  -24.0010   -7.4634   22.7467 H   0  0  0  0  0  0
  -21.0847   -8.8779   19.8956 H   0  0  0  0  0  0
  -22.3702  -10.9678   19.6173 H   0  0  0  0  0  0
  -21.2010   -7.6148   23.9717 H   0  0  0  0  0  0
  -21.1479   -6.0517   25.9075 H   0  0  0  0  0  0
  -22.0601   -2.7609   23.2838 H   0  0  0  0  0  0
  -22.4063  -11.9884   22.4861 H   0  0  0  0  0  0
  -21.1055  -13.1222   22.2632 H   0  0  0  0  0  0
  -24.6321  -15.8367   20.5035 H   0  0  0  0  0  0
  -26.2350  -15.6271   20.0157 H   0  0  0  0  0  0
  -26.7294  -32.5270   23.0981 H   0  0  0  0  0  0
  -25.0080  -33.9592   25.0296 H   0  0  0  0  0  0
  -22.7564  -31.2854   21.3736 H   0  0  0  0  0  0
  -23.3759  -35.9575   23.3286 H   0  0  0  0  0  0
  -24.3577  -36.8902   22.2061 H   0  0  0  0  0  0
  -23.7243  -37.6436   23.6694 H   0  0  0  0  0  0
  -26.1715  -31.4550   20.6155 H   0  0  0  0  0  0
  -26.8777  -30.7530   22.0344 H   0  0  0  0  0  0
  -28.1331  -28.7660   21.2479 H   0  0  0  0  0  0
  -25.9147  -25.8270   18.9963 H   0  0  0  0  0  0
  -23.9877  -27.2926   18.9701 H   0  0  0  0  0  0
  -23.8175  -30.5573   19.3945 H   0  0  0  0  0  0
  -22.7942  -29.2275   19.8418 H   0  0  0  0  0  0
  -25.1314  -36.1842   25.0803 H   0  0  0  0  0  0
  -21.0011  -28.3322   24.1346 H   0  0  0  0  0  0
  -20.5685  -26.2348   23.3631 H   0  0  0  0  0  0
  -21.6658  -26.7433   22.1203 H   0  0  0  0  0  0
  -19.6930  -25.6282   21.1259 H   0  0  0  0  0  0
  -19.6690  -27.3174   20.6734 H   0  0  0  0  0  0
  -17.4218  -26.6674   21.4026 H   0  0  0  0  0  0
  -18.0341  -26.0069   22.9019 H   0  0  0  0  0  0
  -19.7961  -30.7295   24.2216 H   0  0  0  0  0  0
  -17.5035  -31.6265   24.5167 H   0  0  0  0  0  0
  -15.5369  -30.2977   23.7671 H   0  0  0  0  0  0
  -15.8693  -28.0808   22.7091 H   0  0  0  0  0  0
  -24.5895  -30.7093   25.7731 H   0  0  0  0  0  0
  -24.8893  -32.2944   26.4758 H   0  0  0  0  0  0
  -25.7989  -30.8984   27.0222 H   0  0  0  0  0  0
  -26.3026  -29.6650   24.1312 H   0  0  0  0  0  0
  -27.3979  -29.7248   25.4911 H   0  0  0  0  0  0
  -27.8950  -30.4153   23.9664 H   0  0  0  0  0  0
  -27.2627  -33.3648   26.2014 H   0  0  0  0  0  0
  -28.3895  -32.6860   25.0356 H   0  0  0  0  0  0
  -28.0678  -31.8500   26.5474 H   0  0  0  0  0  0
  -28.2582  -38.0088   24.7513 H   0  0  0  0  0  0
  -28.1078  -36.2617   24.6285 H   0  0  0  0  0  0
  -27.2296  -37.1421   25.8869 H   0  0  0  0  0  0
  -20.9497  -29.8747   21.6754 H   0  0  0  0  0  0
  -26.0145  -38.2806   24.1407 H   0  0  0  0  0  0
  -27.1686  -17.5972   21.2464 H   0  0  0  0  0  0
  -26.9191  -18.1320   19.5796 H   0  0  0  0  0  0
  -26.7466  -19.2740   20.9169 H   0  0  0  0  0  0
  -32.5636  -17.2217   21.0790 H   0  0  0  0  0  0
  -33.0985  -18.8285   20.7120 H   0  0  0  0  0  0
  -32.7559  -17.7044   19.3911 H   0  0  0  0  0  0
  -31.1798  -21.6676   19.2564 H   0  0  0  0  0  0
  -32.5007  -20.5411   19.4202 H   0  0  0  0  0  0
  -31.8991  -21.3961   20.8602 H   0  0  0  0  0  0
  -27.5185  -21.4550   20.4275 H   0  0  0  0  0  0
  -28.3405  -21.6023   18.9439 H   0  0  0  0  0  0
  -29.9120  -23.3771   19.9699 H   0  0  0  0  0  0
  -29.0977  -23.2099   21.4806 H   0  0  0  0  0  0
  -27.0280  -24.3743   20.5098 H   0  0  0  0  0  0
  -27.7827  -24.4713   18.9602 H   0  0  0  0  0  0
  -28.7521  -15.8946   20.7235 H   0  0  0  0  0  0
  1 25  1  0  0  0
  1 30  2  0  0  0
  1 82  1  0  0  0
  2  3  1  0  0  0
  2 25  1  0  0  0
  2 83  1  0  0  0
  2 84  1  0  0  0
  3  4  1  0  0  0
  3 85  1  0  0  0
  3 86  1  0  0  0
  4  5  1  0  0  0
  4 87  1  0  0  0
  4 88  1  0  0  0
  5  6  1  0  0  0
  5 26  1  0  0  0
  5 89  1  0  0  0
  6 25  1  0  0  0
  6 90  1  0  0  0
  6 91  1  0  0  0
  7  8  2  0  0  0
  7 26  1  0  0  0
  7 29  1  0  0  0
  8  9  1  0  0  0
  8 22  1  0  0  0
  9 10  1  0  0  0
  9 27  2  0  0  0
 10 11  2  0  0  0
 10 15  1  0  0  0
 11 12  1  0  0  0
 11 92  1  0  0  0
 12 13  2  0  0  0
 12 93  1  0  0  0
 13 14  1  0  0  0
 13 31  1  0  0  0
 14 15  2  0  0  0
 14 94  1  0  0  0
 15 95  1  0  0  0
 16 17  2  0  0  0
 16 21  1  0  0  0
 16 31  1  0  0  0
 17 18  1  0  0  0
 17 96  1  0  0  0
 18 19  2  0  0  0
 18 97  1  0  0  0
 19 20  1  0  0  0
 19 24  1  0  0  0
 20 21  2  0  0  0
 20 98  1  0  0  0
 21 23  1  0  0  0
 22 28  1  0  0  0
 22 32  2  0  0  0
 26 27  1  0  0  0
 28 99  1  0  0  0
 28100  1  0  0  0
 29101  1  0  0  0
 29102  1  0  0  0
 33 34  1  0  0  0
 33 66  1  0  0  0
 33 70  2  0  0  0
 34 36  1  0  0  0
 34 59  1  0  0  0
 34103  1  0  0  0
 35 44  2  0  0  0
 35 45  1  0  0  0
 35 68  1  0  0  0
 36 56  1  0  0  0
 36104  1  0  0  0
 37 39  1  0  0  0
 37 47  1  0  0  0
 37 66  1  0  0  0
 37105  1  0  0  0
 38 43  2  0  0  0
 38 46  1  0  0  0
 38 47  1  0  0  0
 39 64  1  0  0  0
 39 67  2  0  0  0
 40 52  1  0  0  0
 40 53  2  0  0  0
 40 58  1  0  0  0
 41106  1  0  0  0
 41107  1  0  0  0
 41108  1  0  0  0
 41 48  1  0  0  0
 42 43  1  0  0  0
 42 66  1  0  0  0
 42109  1  0  0  0
 42110  1  0  0  0
 43 44  1  0  0  0
 44111  1  0  0  0
 45 46  2  0  0  0
 45112  1  0  0  0
 46113  1  0  0  0
 47114  1  0  0  0
 47115  1  0  0  0
 48 56  1  0  0  0
 48 65  1  0  0  0
 48116  1  0  0  0
 49 50  1  0  0  0
 49 53  1  0  0  0
 49 64  1  0  0  0
 49117  1  0  0  0
 50 51  1  0  0  0
 50118  1  0  0  0
 50119  1  0  0  0
 51 52  1  0  0  0
 51120  1  0  0  0
 51121  1  0  0  0
 52122  1  0  0  0
 52123  1  0  0  0
 53 54  1  0  0  0
 54 55  2  0  0  0
 54124  1  0  0  0
 55 57  1  0  0  0
 55125  1  0  0  0
 56 69  2  0  0  0
 57 58  2  0  0  0
 57126  1  0  0  0
 58127  1  0  0  0
 59 60  1  0  0  0
 59 61  1  0  0  0
 59 62  1  0  0  0
 60128  1  0  0  0
 60129  1  0  0  0
 60130  1  0  0  0
 61131  1  0  0  0
 61132  1  0  0  0
 61133  1  0  0  0
 62134  1  0  0  0
 62135  1  0  0  0
 62136  1  0  0  0
 63 65  1  0  0  0
 63137  1  0  0  0
 63138  1  0  0  0
 63139  1  0  0  0
 64140  1  0  0  0
 65141  1  0  0  0
 68 80  1  0  0  0
 71 72  1  0  0  0
 71 73  2  0  0  0
 71 75  1  0  0  0
 72 74  2  0  0  0
 72 82  1  0  0  0
 73 78  1  0  0  0
 73 81  1  0  0  0
 74 76  1  0  0  0
 74 81  1  0  0  0
 75142  1  0  0  0
 75143  1  0  0  0
 75144  1  0  0  0
 76145  1  0  0  0
 76146  1  0  0  0
 76147  1  0  0  0
 77 81  1  0  0  0
 77148  1  0  0  0
 77149  1  0  0  0
 77150  1  0  0  0
 78 79  1  0  0  0
 78151  1  0  0  0
 78152  1  0  0  0
 79 80  1  0  0  0
 79153  1  0  0  0
 79154  1  0  0  0
 80155  1  0  0  0
 80156  1  0  0  0
 82157  1  0  0  0
M  ISO  4   1 100  68 101  80 101  82 100
M  END
> <chiral flag>
0

> <version>
0

> <s_m_source_file>
/data/baiqing/PycharmProjects/Reinvent-master-3.2/result/LINK_invent/BTK/process_docking_weight1_custom_sum_contain_oxygen_bond_distance_aromatic_linkinvent_7_9_3/rearranged_h_0021.sdf

> <i_m_source_file_index>
78

> <r_mmod_Potential_Energy-OPLS-2005>
515.473937988281

> <r_mmod_Stretch_Energy-OPLS-2005>
299.357818603516

> <r_mmod_Bend_Energy-OPLS-2005>
294.634063720703

> <r_mmod_Torsional_Energy-OPLS-2005>
215.764404296875

> <r_mmod_Improper_Torsional_Energy-OPLS-2005>
5.0128345489502

> <r_mmod_Van_der_Waal_Energy-OPLS-2005>
110.270851135254

> <r_mmod_Electrostatic_Energy-OPLS-2005>
-423.953277587891

> <r_mmod_Solvation_Energy-OPLS-2005>
-211.268005371094

> <b_mmod_Minimization_Converged-OPLS-2005>
0

> <r_mmod_RMS_Derivative-OPLS-2005>
0.800166845321655

$$$$
79
                    3D
 Structure written by MMmdl.
171179  0  0  1  0            999 V2000
  -30.7980  -14.3294   20.7346 C   0  0  0  0  0  0
  -30.4109  -12.2834   19.4038 C   0  0  0  0  0  0
  -29.4865  -12.5327   18.1993 C   0  0  0  0  0  0
  -28.0112  -12.3752   18.6094 C   0  0  0  0  0  0
  -27.6610  -13.2088   19.8704 C   0  0  2  0  0  0
  -28.6938  -12.9647   20.9945 C   0  0  0  0  0  0
  -25.2437  -13.8098   20.5482 C   0  0  0  0  0  0
  -24.1760  -13.0346   20.9063 C   0  0  0  0  0  0
  -24.6389  -11.6846   20.8714 C   0  0  0  0  0  0
  -23.9071  -10.4236   21.0400 C   0  0  0  0  0  0
  -24.3609   -9.4165   21.9185 C   0  0  0  0  0  0
  -23.6274   -8.2217   22.0767 C   0  0  0  0  0  0
  -22.4267   -8.0257   21.3540 C   0  0  0  0  0  0
  -21.9901   -9.0232   20.4653 C   0  0  0  0  0  0
  -22.7247  -10.2090   20.3051 C   0  0  0  0  0  0
  -21.6845   -6.0716   22.5279 C   0  0  0  0  0  0
  -21.4015   -6.5620   23.8212 C   0  0  0  0  0  0
  -21.3649   -5.6775   24.9175 C   0  0  0  0  0  0
  -21.6046   -4.3042   24.7224 C   0  0  0  0  0  0
  -21.8817   -3.8120   23.4348 C   0  0  0  0  0  0
  -21.9188   -4.6944   22.3401 C   0  0  0  0  0  0
  -22.7790  -13.5145   21.1769 C   0  0  0  0  0  0
  -22.1653   -4.2112   21.0983 F   0  0  0  0  0  0
  -21.5625   -3.4534   25.7745 F   0  0  0  0  0  0
  -30.0557  -13.2220   20.4773 N   0  0  0  0  0  0
  -26.2987  -12.9339   20.3325 N   0  0  0  0  0  0
  -25.9323  -11.6490   20.5763 N   0  0  0  0  0  0
  -22.0464  -12.8167   22.0396 N   0  0  0  0  0  0
  -25.3863  -15.1801   20.3723 N   0  0  0  0  0  0
  -31.7594  -14.6819   20.0460 O   0  0  0  0  0  0
  -21.6621   -6.8857   21.4240 O   0  0  0  0  0  0
  -22.3456  -14.5449   20.6650 O   0  0  0  0  0  0
  -24.6029  -31.8718   23.2090 C   0  0  0  0  0  0
  -25.8935  -32.4847   23.8393 C   0  0  1  0  0  0
  -27.2536  -27.5008   20.1058 C   0  0  0  0  0  0
  -25.5847  -33.8650   24.2355 N   0  0  0  0  0  0
  -23.3911  -30.4907   21.5431 C   0  0  2  0  0  0
  -24.8452  -28.9665   20.1086 C   0  0  0  0  0  0
  -22.7415  -29.4630   22.4966 C   0  0  0  0  0  0
  -18.0250  -28.1375   22.8413 C   0  0  0  0  0  0
  -24.1491  -36.7301   23.2662 C   0  0  0  0  0  0
  -25.9088  -30.8662   21.3447 C   0  0  0  0  0  0
  -25.9962  -29.5030   20.6998 C   0  0  0  0  0  0
  -27.2007  -28.7784   20.6902 C   0  0  0  0  0  0
  -26.0860  -26.9591   19.5140 C   0  0  0  0  0  0
  -24.8859  -27.6931   19.5098 C   0  0  0  0  0  0
  -23.5982  -29.8153   20.1597 C   0  0  0  0  0  0
  -25.4093  -36.3119   24.0371 C   0  0  1  0  0  0
  -20.5844  -28.3596   23.1328 C   0  0  2  0  0  0
  -20.6725  -26.9348   22.5374 C   0  0  0  0  0  0
  -19.5736  -26.6365   21.5154 C   0  0  0  0  0  0
  -18.1917  -26.7905   22.1563 C   0  0  0  0  0  0
  -19.1505  -28.8798   23.2867 C   0  0  0  0  0  0
  -18.9464  -30.1405   23.8856 C   0  0  0  0  0  0
  -17.6496  -30.6558   24.0542 C   0  0  0  0  0  0
  -25.8998  -34.9482   23.5162 C   0  0  0  0  0  0
  -16.5364  -29.9067   23.6322 C   0  0  0  0  0  0
  -16.7260  -28.6518   23.0275 C   0  0  0  0  0  0
  -26.4380  -31.6631   25.0718 C   0  0  0  0  0  0
  -25.3651  -31.3742   26.1492 C   0  0  0  0  0  0
  -27.0199  -30.3104   24.5968 C   0  0  0  0  0  0
  -27.5986  -32.4329   25.7451 C   0  0  0  0  0  0
  -27.5572  -37.1798   24.8479 C   0  0  0  0  0  0
  -21.4139  -29.2999   22.3774 N   0  0  0  0  0  0
  -26.4297  -37.3782   23.9424 N   0  0  0  0  0  0
  -24.6517  -31.0891   22.0941 N   0  0  0  0  0  0
  -23.4248  -28.8163   23.2942 O   0  0  0  0  0  0
  -28.4604  -26.8533   20.1314 O   0  0  0  0  0  0
  -26.5570  -34.8933   22.4730 O   0  0  0  0  0  0
  -23.5230  -32.1440   23.7504 O   0  0  0  0  0  0
  -29.5919  -18.5129   22.2435 C   0  0  0  0  0  0
  -30.8033  -19.1338   22.6431 C   0  0  0  0  0  0
  -31.9622  -18.2888   22.7594 C   0  0  0  0  0  0
  -30.6301  -16.3269   22.1012 C   0  0  0  0  0  0
  -31.8562  -16.8989   22.4873 C   0  0  0  0  0  0
  -29.4948  -17.1409   21.9968 C   0  0  0  0  0  0
  -33.3466  -18.7830   23.1715 C   0  0  0  0  0  0
  -32.1101  -20.9182   20.5890 C   0  0  0  0  0  0
  -29.3817  -21.0942   23.4755 C   0  0  0  0  0  0
  -31.7913  -21.2433   23.8552 C   0  0  0  0  0  0
  -29.6424  -24.9333   20.9200 C   0  0  0  0  0  0
  -29.7395  -23.4155   20.7829 C   0  0  0  0  0  0
  -28.4435  -25.4410   20.1098 C   0  0  0  0  0  0
  -30.8997  -21.3551   21.4446 C   0  0  1  0  0  0
  -30.7546  -20.6807   22.8481 C   0  0  0  0  0  0
  -30.4888  -14.9371   21.8862 N   0  0  0  0  0  0
  -30.8494  -22.8270   21.5537 N   0  3  0  0  0  0
  -32.9398  -16.0922   22.6254 F   0  0  0  0  0  0
  -27.9616  -16.4806   21.5644 Cl  0  0  0  0  0  0
  -31.4574  -12.3712   19.1076 H   0  0  0  0  0  0
  -30.2912  -11.2598   19.7659 H   0  0  0  0  0  0
  -29.7266  -11.8427   17.3905 H   0  0  0  0  0  0
  -29.6544  -13.5370   17.8087 H   0  0  0  0  0  0
  -27.8304  -11.3168   18.8060 H   0  0  0  0  0  0
  -27.3577  -12.6460   17.7783 H   0  0  0  0  0  0
  -27.7105  -14.2581   19.5808 H   0  0  0  0  0  0
  -28.6307  -11.9329   21.3434 H   0  0  0  0  0  0
  -28.4257  -13.5751   21.8557 H   0  0  0  0  0  0
  -25.2759   -9.5615   22.4766 H   0  0  0  0  0  0
  -23.9951   -7.4601   22.7505 H   0  0  0  0  0  0
  -21.0818   -8.8757   19.8974 H   0  0  0  0  0  0
  -22.3723  -10.9615   19.6141 H   0  0  0  0  0  0
  -21.2027   -7.6130   23.9699 H   0  0  0  0  0  0
  -21.1471   -6.0513   25.9067 H   0  0  0  0  0  0
  -22.0613   -2.7582   23.2866 H   0  0  0  0  0  0
  -22.4094  -11.9828   22.4749 H   0  0  0  0  0  0
  -21.1088  -13.1211   22.2631 H   0  0  0  0  0  0
  -24.6098  -15.8165   20.5119 H   0  0  0  0  0  0
  -26.2736  -15.6516   20.2401 H   0  0  0  0  0  0
  -26.7022  -32.5521   23.1175 H   0  0  0  0  0  0
  -25.0026  -33.9850   25.0519 H   0  0  0  0  0  0
  -22.6747  -31.3002   21.3946 H   0  0  0  0  0  0
  -23.3756  -35.9637   23.3330 H   0  0  0  0  0  0
  -24.3607  -36.8875   22.2077 H   0  0  0  0  0  0
  -23.7229  -37.6519   23.6633 H   0  0  0  0  0  0
  -25.9972  -31.6306   20.5734 H   0  0  0  0  0  0
  -26.8096  -30.9337   21.9434 H   0  0  0  0  0  0
  -28.0940  -29.1966   21.1346 H   0  0  0  0  0  0
  -26.1000  -25.9806   19.0564 H   0  0  0  0  0  0
  -24.0061  -27.2697   19.0473 H   0  0  0  0  0  0
  -23.6808  -30.5871   19.3939 H   0  0  0  0  0  0
  -22.7321  -29.2130   19.8722 H   0  0  0  0  0  0
  -25.1250  -36.2024   25.0854 H   0  0  0  0  0  0
  -20.9845  -28.3065   24.1483 H   0  0  0  0  0  0
  -20.5553  -26.2183   23.3526 H   0  0  0  0  0  0
  -21.6609  -26.7355   22.1210 H   0  0  0  0  0  0
  -19.6921  -25.6289   21.1164 H   0  0  0  0  0  0
  -19.6712  -27.3158   20.6692 H   0  0  0  0  0  0
  -17.4157  -26.6597   21.3999 H   0  0  0  0  0  0
  -18.0352  -26.0091   22.8996 H   0  0  0  0  0  0
  -19.7974  -30.7195   24.2189 H   0  0  0  0  0  0
  -17.5084  -31.6226   24.5147 H   0  0  0  0  0  0
  -15.5371  -30.2960   23.7722 H   0  0  0  0  0  0
  -15.8660  -28.0875   22.6949 H   0  0  0  0  0  0
  -24.5879  -30.6990   25.7888 H   0  0  0  0  0  0
  -24.8731  -32.2894   26.4828 H   0  0  0  0  0  0
  -25.8016  -30.9073   27.0337 H   0  0  0  0  0  0
  -26.2749  -29.6926   24.0952 H   0  0  0  0  0  0
  -27.4032  -29.7257   25.4337 H   0  0  0  0  0  0
  -27.8503  -30.4519   23.9055 H   0  0  0  0  0  0
  -27.2655  -33.3663   26.2004 H   0  0  0  0  0  0
  -28.3775  -32.6836   25.0237 H   0  0  0  0  0  0
  -28.0646  -31.8456   26.5384 H   0  0  0  0  0  0
  -28.2569  -38.0104   24.7474 H   0  0  0  0  0  0
  -28.1091  -36.2626   24.6338 H   0  0  0  0  0  0
  -27.2311  -37.1450   25.8895 H   0  0  0  0  0  0
  -20.9279  -29.8790   21.7071 H   0  0  0  0  0  0
  -26.0212  -38.2878   24.1417 H   0  0  0  0  0  0
  -28.6767  -19.0633   22.1060 H   0  0  0  0  0  0
  -33.6679  -19.6441   22.5927 H   0  0  0  0  0  0
  -34.1200  -18.0349   23.0014 H   0  0  0  0  0  0
  -33.3736  -19.0266   24.2335 H   0  0  0  0  0  0
  -32.1059  -19.8416   20.4112 H   0  0  0  0  0  0
  -33.0616  -21.1791   21.0505 H   0  0  0  0  0  0
  -32.0841  -21.3896   19.6041 H   0  0  0  0  0  0
  -29.1699  -20.5080   24.3710 H   0  0  0  0  0  0
  -28.5281  -20.9804   22.8064 H   0  0  0  0  0  0
  -29.3468  -22.1392   23.7853 H   0  0  0  0  0  0
  -31.8120  -20.6454   24.7646 H   0  0  0  0  0  0
  -31.5485  -22.2586   24.1712 H   0  0  0  0  0  0
  -32.7988  -21.3232   23.4599 H   0  0  0  0  0  0
  -30.5649  -25.3943   20.5689 H   0  0  0  0  0  0
  -29.5297  -25.2135   21.9697 H   0  0  0  0  0  0
  -29.8552  -23.1537   19.7282 H   0  0  0  0  0  0
  -28.8044  -22.9653   21.1183 H   0  0  0  0  0  0
  -27.5322  -25.0344   20.5526 H   0  0  0  0  0  0
  -28.4954  -25.1138   19.0729 H   0  0  0  0  0  0
  -30.0350  -21.0234   20.8621 H   0  0  0  0  0  0
  -29.7169  -14.5105   22.3709 H   0  0  0  0  0  0
  -30.7193  -23.0413   22.5296 H   0  0  0  0  0  0
  -31.7345  -23.2151   21.2676 H   0  0  0  0  0  0
  1 25  1  0  0  0
  1 30  2  0  0  0
  1 86  1  0  0  0
  2  3  1  0  0  0
  2 25  1  0  0  0
  2 90  1  0  0  0
  2 91  1  0  0  0
  3  4  1  0  0  0
  3 92  1  0  0  0
  3 93  1  0  0  0
  4  5  1  0  0  0
  4 94  1  0  0  0
  4 95  1  0  0  0
  5  6  1  0  0  0
  5 26  1  0  0  0
  5 96  1  0  0  0
  6 25  1  0  0  0
  6 97  1  0  0  0
  6 98  1  0  0  0
  7  8  2  0  0  0
  7 26  1  0  0  0
  7 29  1  0  0  0
  8  9  1  0  0  0
  8 22  1  0  0  0
  9 10  1  0  0  0
  9 27  2  0  0  0
 10 11  2  0  0  0
 10 15  1  0  0  0
 11 12  1  0  0  0
 11 99  1  0  0  0
 12 13  2  0  0  0
 12100  1  0  0  0
 13 14  1  0  0  0
 13 31  1  0  0  0
 14 15  2  0  0  0
 14101  1  0  0  0
 15102  1  0  0  0
 16 17  2  0  0  0
 16 21  1  0  0  0
 16 31  1  0  0  0
 17 18  1  0  0  0
 17103  1  0  0  0
 18 19  2  0  0  0
 18104  1  0  0  0
 19 20  1  0  0  0
 19 24  1  0  0  0
 20 21  2  0  0  0
 20105  1  0  0  0
 21 23  1  0  0  0
 22 28  1  0  0  0
 22 32  2  0  0  0
 26 27  1  0  0  0
 28106  1  0  0  0
 28107  1  0  0  0
 29108  1  0  0  0
 29109  1  0  0  0
 33 34  1  0  0  0
 33 66  1  0  0  0
 33 70  2  0  0  0
 34 36  1  0  0  0
 34 59  1  0  0  0
 34110  1  0  0  0
 35 44  2  0  0  0
 35 45  1  0  0  0
 35 68  1  0  0  0
 36 56  1  0  0  0
 36111  1  0  0  0
 37 39  1  0  0  0
 37 47  1  0  0  0
 37 66  1  0  0  0
 37112  1  0  0  0
 38 43  2  0  0  0
 38 46  1  0  0  0
 38 47  1  0  0  0
 39 64  1  0  0  0
 39 67  2  0  0  0
 40 52  1  0  0  0
 40 53  2  0  0  0
 40 58  1  0  0  0
 41113  1  0  0  0
 41114  1  0  0  0
 41115  1  0  0  0
 41 48  1  0  0  0
 42 43  1  0  0  0
 42 66  1  0  0  0
 42116  1  0  0  0
 42117  1  0  0  0
 43 44  1  0  0  0
 44118  1  0  0  0
 45 46  2  0  0  0
 45119  1  0  0  0
 46120  1  0  0  0
 47121  1  0  0  0
 47122  1  0  0  0
 48 56  1  0  0  0
 48 65  1  0  0  0
 48123  1  0  0  0
 49 50  1  0  0  0
 49 53  1  0  0  0
 49 64  1  0  0  0
 49124  1  0  0  0
 50 51  1  0  0  0
 50125  1  0  0  0
 50126  1  0  0  0
 51 52  1  0  0  0
 51127  1  0  0  0
 51128  1  0  0  0
 52129  1  0  0  0
 52130  1  0  0  0
 53 54  1  0  0  0
 54 55  2  0  0  0
 54131  1  0  0  0
 55 57  1  0  0  0
 55132  1  0  0  0
 56 69  2  0  0  0
 57 58  2  0  0  0
 57133  1  0  0  0
 58134  1  0  0  0
 59 60  1  0  0  0
 59 61  1  0  0  0
 59 62  1  0  0  0
 60135  1  0  0  0
 60136  1  0  0  0
 60137  1  0  0  0
 61138  1  0  0  0
 61139  1  0  0  0
 61140  1  0  0  0
 62141  1  0  0  0
 62142  1  0  0  0
 62143  1  0  0  0
 63 65  1  0  0  0
 63144  1  0  0  0
 63145  1  0  0  0
 63146  1  0  0  0
 64147  1  0  0  0
 65148  1  0  0  0
 68 83  1  0  0  0
 71 72  2  0  0  0
 71 76  1  0  0  0
 71149  1  0  0  0
 72 73  1  0  0  0
 72 85  1  0  0  0
 73 75  2  0  0  0
 73 77  1  0  0  0
 74 75  1  0  0  0
 74 76  2  0  0  0
 74 86  1  0  0  0
 75 88  1  0  0  0
 76 89  1  0  0  0
 77150  1  0  0  0
 77151  1  0  0  0
 77152  1  0  0  0
 78153  1  0  0  0
 78154  1  0  0  0
 78155  1  0  0  0
 78 84  1  0  0  0
 79156  1  0  0  0
 79157  1  0  0  0
 79158  1  0  0  0
 79 85  1  0  0  0
 80 85  1  0  0  0
 80159  1  0  0  0
 80160  1  0  0  0
 80161  1  0  0  0
 81 82  1  0  0  0
 81 83  1  0  0  0
 81162  1  0  0  0
 81163  1  0  0  0
 82 87  1  0  0  0
 82164  1  0  0  0
 82165  1  0  0  0
 83166  1  0  0  0
 83167  1  0  0  0
 84 85  1  0  0  0
 84 87  1  0  0  0
 84168  1  0  0  0
 86169  1  0  0  0
 87170  1  0  0  0
 87171  1  0  0  0
M  CHG  1  87   1
M  ISO  4   1 100  68 101  83 101  86 100
M  END
> <chiral flag>
0

> <version>
0

> <s_m_source_file>
/data/baiqing/PycharmProjects/Reinvent-master-3.2/result/LINK_invent/BTK/process_docking_weight1_custom_sum_contain_oxygen_bond_distance_aromatic_linkinvent_7_9_3/rearranged_h_0021.sdf

> <i_m_source_file_index>
79

> <r_mmod_Potential_Energy-OPLS-2005>
-210.531616210938

> <r_mmod_Stretch_Energy-OPLS-2005>
41.1439819335938

> <r_mmod_Bend_Energy-OPLS-2005>
118.128227233887

> <r_mmod_Torsional_Energy-OPLS-2005>
265.882263183594

> <r_mmod_Improper_Torsional_Energy-OPLS-2005>
5.74548482894897

> <r_mmod_Van_der_Waal_Energy-OPLS-2005>
179.772354125977

> <r_mmod_Electrostatic_Energy-OPLS-2005>
-370.4453125

> <r_mmod_Solvation_Energy-OPLS-2005>
-461.000549316406

> <b_mmod_Minimization_Converged-OPLS-2005>
0

> <r_mmod_RMS_Derivative-OPLS-2005>
5.43218755722046

$$$$
80
                    3D
 Structure written by MMmdl.
173181  0  0  1  0            999 V2000
  -30.6703  -14.4414   20.5771 C   0  0  0  0  0  0
  -30.4427  -12.2951   19.4045 C   0  0  0  0  0  0
  -29.5117  -12.5247   18.1972 C   0  0  0  0  0  0
  -28.0263  -12.3968   18.6004 C   0  0  0  0  0  0
  -27.6782  -13.1932   19.8887 C   0  0  2  0  0  0
  -28.7221  -12.9045   20.9910 C   0  0  0  0  0  0
  -25.2702  -13.8131   20.5647 C   0  0  0  0  0  0
  -24.1902  -13.0453   20.9127 C   0  0  0  0  0  0
  -24.6408  -11.6913   20.8666 C   0  0  0  0  0  0
  -23.9034  -10.4321   21.0348 C   0  0  0  0  0  0
  -24.3590   -9.4242   21.9125 C   0  0  0  0  0  0
  -23.6281   -8.2271   22.0712 C   0  0  0  0  0  0
  -22.4269   -8.0291   21.3516 C   0  0  0  0  0  0
  -21.9877   -9.0249   20.4609 C   0  0  0  0  0  0
  -22.7203  -10.2137   20.2999 C   0  0  0  0  0  0
  -21.6876   -6.0721   22.5238 C   0  0  0  0  0  0
  -21.4045   -6.5611   23.8180 C   0  0  0  0  0  0
  -21.3659   -5.6757   24.9126 C   0  0  0  0  0  0
  -21.6062   -4.3023   24.7179 C   0  0  0  0  0  0
  -21.8850   -3.8129   23.4292 C   0  0  0  0  0  0
  -21.9214   -4.6946   22.3367 C   0  0  0  0  0  0
  -22.7927  -13.5276   21.1775 C   0  0  0  0  0  0
  -22.1686   -4.2145   21.0937 F   0  0  0  0  0  0
  -21.5592   -3.4508   25.7682 F   0  0  0  0  0  0
  -30.0492  -13.2448   20.4483 N   0  0  0  0  0  0
  -26.3120  -12.9261   20.3379 N   0  0  0  0  0  0
  -25.9334  -11.6451   20.5714 N   0  0  0  0  0  0
  -22.0530  -12.8297   22.0313 N   0  0  0  0  0  0
  -25.4504  -15.1835   20.4055 N   0  0  0  0  0  0
  -31.7825  -14.6957   20.1051 O   0  0  0  0  0  0
  -21.6668   -6.8854   21.4212 O   0  0  0  0  0  0
  -22.3643  -14.5577   20.6568 O   0  0  0  0  0  0
  -24.6134  -31.8733   23.2259 C   0  0  0  0  0  0
  -25.9109  -32.4835   23.8485 C   0  0  1  0  0  0
  -27.2293  -27.4707   20.0764 C   0  0  0  0  0  0
  -25.6017  -33.8623   24.2417 N   0  0  0  0  0  0
  -23.3941  -30.5059   21.5630 C   0  0  2  0  0  0
  -24.8353  -28.9762   20.1237 C   0  0  0  0  0  0
  -22.7395  -29.4711   22.5047 C   0  0  0  0  0  0
  -18.0287  -28.1372   22.8484 C   0  0  0  0  0  0
  -24.1479  -36.7254   23.2621 C   0  0  0  0  0  0
  -25.9205  -30.8427   21.3792 C   0  0  0  0  0  0
  -25.9913  -29.4786   20.7276 C   0  0  0  0  0  0
  -27.1853  -28.7254   20.7211 C   0  0  0  0  0  0
  -26.0409  -26.9644   19.4971 C   0  0  0  0  0  0
  -24.8502  -27.7127   19.5133 C   0  0  0  0  0  0
  -23.5983  -29.8437   20.1747 C   0  0  0  0  0  0
  -25.4123  -36.3110   24.0338 C   0  0  1  0  0  0
  -20.5872  -28.3663   23.1335 C   0  0  2  0  0  0
  -20.6798  -26.9406   22.5421 C   0  0  0  0  0  0
  -19.5771  -26.6386   21.5225 C   0  0  0  0  0  0
  -18.1941  -26.7938   22.1612 C   0  0  0  0  0  0
  -19.1524  -28.8831   23.2904 C   0  0  0  0  0  0
  -18.9441  -30.1450   23.8899 C   0  0  0  0  0  0
  -17.6441  -30.6559   24.0568 C   0  0  0  0  0  0
  -25.9052  -34.9483   23.5145 C   0  0  0  0  0  0
  -16.5339  -29.9054   23.6328 C   0  0  0  0  0  0
  -16.7283  -28.6475   23.0342 C   0  0  0  0  0  0
  -26.4585  -31.6609   25.0771 C   0  0  0  0  0  0
  -25.3868  -31.3701   26.1520 C   0  0  0  0  0  0
  -27.0449  -30.3072   24.6146 C   0  0  0  0  0  0
  -27.6154  -32.4353   25.7518 C   0  0  0  0  0  0
  -27.5598  -37.1795   24.8472 C   0  0  0  0  0  0
  -21.4119  -29.3037   22.3750 N   0  0  0  0  0  0
  -26.4307  -37.3814   23.9414 N   0  0  0  0  0  0
  -24.6587  -31.0897   22.1120 N   0  0  0  0  0  0
  -23.4178  -28.8256   23.3083 O   0  0  0  0  0  0
  -28.4303  -26.7922   20.0005 O   0  0  0  0  0  0
  -26.5519  -34.8907   22.4654 O   0  0  0  0  0  0
  -23.5353  -32.1460   23.7718 O   0  0  0  0  0  0
  -28.0579  -23.8295   16.5204 C   0  0  0  0  0  0
  -27.2055  -22.7200   16.4582 C   0  0  0  0  0  0
  -29.3907  -23.6870   16.9558 C   0  0  0  0  0  0
  -27.6674  -21.4477   16.8360 C   0  0  0  0  0  0
  -29.8991  -22.3901   17.2400 C   0  0  0  0  0  0
  -29.0200  -21.2667   17.2238 C   0  0  0  0  0  0
  -26.6757  -20.2942   16.8179 C   0  0  0  0  0  0
  -31.3895  -22.2228   17.5191 C   0  0  0  0  0  0
  -30.5513  -20.0367   19.7973 C   0  0  0  0  0  0
  -30.2158  -24.9619   17.1316 C   0  0  0  0  0  0
  -30.0416  -25.6020   18.5301 C   0  0  0  0  0  0
  -28.8619  -17.5662   20.5148 C   0  0  0  0  0  0
  -29.0885  -18.0695   19.0763 C   0  0  0  0  0  0
  -30.0835  -16.8383   21.1330 C   0  0  0  0  0  0
  -28.5792  -25.9563   18.8527 C   0  0  0  0  0  0
  -29.3385  -19.5910   18.9603 C   0  0  2  0  0  0
  -29.4525  -19.9708   17.5482 N   0  0  0  0  0  0
  -29.8945  -15.3885   21.1283 N   0  0  0  0  0  0
  -31.4900  -12.4111   19.1158 H   0  0  0  0  0  0
  -30.3522  -11.2759   19.7763 H   0  0  0  0  0  0
  -29.7503  -11.8193   17.4011 H   0  0  0  0  0  0
  -29.6930  -13.5219   17.7902 H   0  0  0  0  0  0
  -27.8167  -11.3373   18.7500 H   0  0  0  0  0  0
  -27.3907  -12.7202   17.7747 H   0  0  0  0  0  0
  -27.7437  -14.2528   19.6475 H   0  0  0  0  0  0
  -28.6993  -11.8497   21.2775 H   0  0  0  0  0  0
  -28.4842  -13.4461   21.9071 H   0  0  0  0  0  0
  -25.2729   -9.5753   22.4683 H   0  0  0  0  0  0
  -23.9995   -7.4708   22.7455 H   0  0  0  0  0  0
  -21.0787   -8.8772   19.8949 H   0  0  0  0  0  0
  -22.3641  -10.9655   19.6102 H   0  0  0  0  0  0
  -21.2066   -7.6122   23.9682 H   0  0  0  0  0  0
  -21.1443   -6.0456   25.9024 H   0  0  0  0  0  0
  -22.0639   -2.7596   23.2778 H   0  0  0  0  0  0
  -22.4132  -11.9984   22.4774 H   0  0  0  0  0  0
  -21.1135  -13.1354   22.2406 H   0  0  0  0  0  0
  -24.6782  -15.8348   20.4802 H   0  0  0  0  0  0
  -26.2786  -15.6084   20.0074 H   0  0  0  0  0  0
  -26.7178  -32.5592   23.1231 H   0  0  0  0  0  0
  -25.0462  -33.9803   25.0775 H   0  0  0  0  0  0
  -22.6793  -31.3226   21.4406 H   0  0  0  0  0  0
  -23.3771  -35.9559   23.3304 H   0  0  0  0  0  0
  -24.3553  -36.8824   22.2024 H   0  0  0  0  0  0
  -23.7175  -37.6439   23.6627 H   0  0  0  0  0  0
  -26.0484  -31.6139   20.6206 H   0  0  0  0  0  0
  -26.8006  -30.8797   22.0083 H   0  0  0  0  0  0
  -28.0748  -29.1219   21.1834 H   0  0  0  0  0  0
  -26.0063  -25.9978   19.0171 H   0  0  0  0  0  0
  -23.9597  -27.3204   19.0479 H   0  0  0  0  0  0
  -23.7054  -30.6185   19.4152 H   0  0  0  0  0  0
  -22.7182  -29.2701   19.8813 H   0  0  0  0  0  0
  -25.1316  -36.1988   25.0838 H   0  0  0  0  0  0
  -20.9976  -28.3211   24.1447 H   0  0  0  0  0  0
  -20.5754  -26.2233   23.3581 H   0  0  0  0  0  0
  -21.6672  -26.7499   22.1183 H   0  0  0  0  0  0
  -19.6936  -25.6305   21.1237 H   0  0  0  0  0  0
  -19.6734  -27.3198   20.6761 H   0  0  0  0  0  0
  -17.4257  -26.6715   21.3969 H   0  0  0  0  0  0
  -18.0292  -26.0058   22.8974 H   0  0  0  0  0  0
  -19.7916  -30.7281   24.2219 H   0  0  0  0  0  0
  -17.5000  -31.6240   24.5172 H   0  0  0  0  0  0
  -15.5342  -30.2948   23.7651 H   0  0  0  0  0  0
  -15.8695  -28.0807   22.7027 H   0  0  0  0  0  0
  -24.6046  -30.7030   25.7876 H   0  0  0  0  0  0
  -24.9048  -32.2838   26.5027 H   0  0  0  0  0  0
  -25.8224  -30.8846   27.0259 H   0  0  0  0  0  0
  -26.2970  -29.6732   24.1325 H   0  0  0  0  0  0
  -27.4376  -29.7424   25.4626 H   0  0  0  0  0  0
  -27.8771  -30.4424   23.9203 H   0  0  0  0  0  0
  -27.2807  -33.3678   26.2103 H   0  0  0  0  0  0
  -28.3971  -32.6869   25.0329 H   0  0  0  0  0  0
  -28.0847  -31.8472   26.5432 H   0  0  0  0  0  0
  -28.2644  -38.0081   24.7571 H   0  0  0  0  0  0
  -28.1049  -36.2599   24.6264 H   0  0  0  0  0  0
  -27.2272  -37.1412   25.8863 H   0  0  0  0  0  0
  -20.9268  -29.8665   21.6909 H   0  0  0  0  0  0
  -26.0161  -38.2865   24.1491 H   0  0  0  0  0  0
  -27.6603  -24.8012   16.2687 H   0  0  0  0  0  0
  -26.1814  -22.8616   16.1489 H   0  0  0  0  0  0
  -25.6617  -20.6481   16.6084 H   0  0  0  0  0  0
  -26.6390  -19.8060   17.7899 H   0  0  0  0  0  0
  -26.9399  -19.5591   16.0566 H   0  0  0  0  0  0
  -31.9692  -22.7071   16.7365 H   0  0  0  0  0  0
  -31.7081  -21.1813   17.5237 H   0  0  0  0  0  0
  -31.6588  -22.6827   18.4688 H   0  0  0  0  0  0
  -30.4737  -19.7175   20.8364 H   0  0  0  0  0  0
  -30.6204  -21.1226   19.8376 H   0  0  0  0  0  0
  -31.4920  -19.6432   19.4123 H   0  0  0  0  0  0
  -29.8969  -25.6847   16.3780 H   0  0  0  0  0  0
  -31.2696  -24.7977   16.9199 H   0  0  0  0  0  0
  -30.6402  -26.5125   18.5696 H   0  0  0  0  0  0
  -30.4340  -24.9336   19.2972 H   0  0  0  0  0  0
  -27.9979  -16.9022   20.5190 H   0  0  0  0  0  0
  -28.5654  -18.4051   21.1502 H   0  0  0  0  0  0
  -28.2046  -17.8225   18.4859 H   0  0  0  0  0  0
  -29.8971  -17.4959   18.6162 H   0  0  0  0  0  0
  -30.1903  -17.1463   22.1708 H   0  0  0  0  0  0
  -31.0121  -17.1258   20.6342 H   0  0  0  0  0  0
  -28.0032  -25.0409   18.9983 H   0  0  0  0  0  0
  -28.1747  -26.4701   17.9800 H   0  0  0  0  0  0
  -28.4615  -20.1001   19.3666 H   0  0  0  0  0  0
  -28.8958  -19.3172   17.0067 H   0  0  0  0  0  0
  -29.0186  -15.0500   21.4889 H   0  0  0  0  0  0
  1 25  1  0  0  0
  1 30  2  0  0  0
  1 88  1  0  0  0
  2  3  1  0  0  0
  2 25  1  0  0  0
  2 89  1  0  0  0
  2 90  1  0  0  0
  3  4  1  0  0  0
  3 91  1  0  0  0
  3 92  1  0  0  0
  4  5  1  0  0  0
  4 93  1  0  0  0
  4 94  1  0  0  0
  5  6  1  0  0  0
  5 26  1  0  0  0
  5 95  1  0  0  0
  6 25  1  0  0  0
  6 96  1  0  0  0
  6 97  1  0  0  0
  7  8  2  0  0  0
  7 26  1  0  0  0
  7 29  1  0  0  0
  8  9  1  0  0  0
  8 22  1  0  0  0
  9 10  1  0  0  0
  9 27  2  0  0  0
 10 11  2  0  0  0
 10 15  1  0  0  0
 11 12  1  0  0  0
 11 98  1  0  0  0
 12 13  2  0  0  0
 12 99  1  0  0  0
 13 14  1  0  0  0
 13 31  1  0  0  0
 14 15  2  0  0  0
 14100  1  0  0  0
 15101  1  0  0  0
 16 17  2  0  0  0
 16 21  1  0  0  0
 16 31  1  0  0  0
 17 18  1  0  0  0
 17102  1  0  0  0
 18 19  2  0  0  0
 18103  1  0  0  0
 19 20  1  0  0  0
 19 24  1  0  0  0
 20 21  2  0  0  0
 20104  1  0  0  0
 21 23  1  0  0  0
 22 28  1  0  0  0
 22 32  2  0  0  0
 26 27  1  0  0  0
 28105  1  0  0  0
 28106  1  0  0  0
 29107  1  0  0  0
 29108  1  0  0  0
 33 34  1  0  0  0
 33 66  1  0  0  0
 33 70  2  0  0  0
 34 36  1  0  0  0
 34 59  1  0  0  0
 34109  1  0  0  0
 35 44  2  0  0  0
 35 45  1  0  0  0
 35 68  1  0  0  0
 36 56  1  0  0  0
 36110  1  0  0  0
 37 39  1  0  0  0
 37 47  1  0  0  0
 37 66  1  0  0  0
 37111  1  0  0  0
 38 43  2  0  0  0
 38 46  1  0  0  0
 38 47  1  0  0  0
 39 64  1  0  0  0
 39 67  2  0  0  0
 40 52  1  0  0  0
 40 53  2  0  0  0
 40 58  1  0  0  0
 41112  1  0  0  0
 41113  1  0  0  0
 41114  1  0  0  0
 41 48  1  0  0  0
 42 43  1  0  0  0
 42 66  1  0  0  0
 42115  1  0  0  0
 42116  1  0  0  0
 43 44  1  0  0  0
 44117  1  0  0  0
 45 46  2  0  0  0
 45118  1  0  0  0
 46119  1  0  0  0
 47120  1  0  0  0
 47121  1  0  0  0
 48 56  1  0  0  0
 48 65  1  0  0  0
 48122  1  0  0  0
 49 50  1  0  0  0
 49 53  1  0  0  0
 49 64  1  0  0  0
 49123  1  0  0  0
 50 51  1  0  0  0
 50124  1  0  0  0
 50125  1  0  0  0
 51 52  1  0  0  0
 51126  1  0  0  0
 51127  1  0  0  0
 52128  1  0  0  0
 52129  1  0  0  0
 53 54  1  0  0  0
 54 55  2  0  0  0
 54130  1  0  0  0
 55 57  1  0  0  0
 55131  1  0  0  0
 56 69  2  0  0  0
 57 58  2  0  0  0
 57132  1  0  0  0
 58133  1  0  0  0
 59 60  1  0  0  0
 59 61  1  0  0  0
 59 62  1  0  0  0
 60134  1  0  0  0
 60135  1  0  0  0
 60136  1  0  0  0
 61137  1  0  0  0
 61138  1  0  0  0
 61139  1  0  0  0
 62140  1  0  0  0
 62141  1  0  0  0
 62142  1  0  0  0
 63 65  1  0  0  0
 63143  1  0  0  0
 63144  1  0  0  0
 63145  1  0  0  0
 64146  1  0  0  0
 65147  1  0  0  0
 68 85  1  0  0  0
 71 72  2  0  0  0
 71 73  1  0  0  0
 71148  1  0  0  0
 72 74  1  0  0  0
 72149  1  0  0  0
 73 75  2  0  0  0
 73 80  1  0  0  0
 74 76  2  0  0  0
 74 77  1  0  0  0
 75 76  1  0  0  0
 75 78  1  0  0  0
 76 87  1  0  0  0
 77150  1  0  0  0
 77151  1  0  0  0
 77152  1  0  0  0
 78153  1  0  0  0
 78154  1  0  0  0
 78155  1  0  0  0
 79156  1  0  0  0
 79157  1  0  0  0
 79158  1  0  0  0
 79 86  1  0  0  0
 80 81  1  0  0  0
 80159  1  0  0  0
 80160  1  0  0  0
 81 85  1  0  0  0
 81161  1  0  0  0
 81162  1  0  0  0
 82 83  1  0  0  0
 82 84  1  0  0  0
 82163  1  0  0  0
 82164  1  0  0  0
 83 86  1  0  0  0
 83165  1  0  0  0
 83166  1  0  0  0
 84 88  1  0  0  0
 84167  1  0  0  0
 84168  1  0  0  0
 85169  1  0  0  0
 85170  1  0  0  0
 86 87  1  0  0  0
 86171  1  0  0  0
 87172  1  0  0  0
 88173  1  0  0  0
M  ISO  4   1 100  68 101  85 101  88 100
M  END
> <chiral flag>
0

> <version>
0

> <s_m_source_file>
/data/baiqing/PycharmProjects/Reinvent-master-3.2/result/LINK_invent/BTK/process_docking_weight1_custom_sum_contain_oxygen_bond_distance_aromatic_linkinvent_7_9_3/rearranged_h_0021.sdf

> <i_m_source_file_index>
80

> <r_mmod_Potential_Energy-OPLS-2005>
-122.775573730469

> <r_mmod_Stretch_Energy-OPLS-2005>
35.7163581848145

> <r_mmod_Bend_Energy-OPLS-2005>
100.289451599121

> <r_mmod_Torsional_Energy-OPLS-2005>
248.676818847656

> <r_mmod_Improper_Torsional_Energy-OPLS-2005>
10.4736881256104

> <r_mmod_Van_der_Waal_Energy-OPLS-2005>
166.451766967773

> <r_mmod_Electrostatic_Energy-OPLS-2005>
-481.567535400391

> <r_mmod_Solvation_Energy-OPLS-2005>
-213.886566162109

> <b_mmod_Minimization_Converged-OPLS-2005>
0

> <r_mmod_RMS_Derivative-OPLS-2005>
6.91240978240967

$$$$
81
                    3D
 Structure written by MMmdl.
159167  0  0  1  0            999 V2000
  -30.4631  -15.3178   20.3498 C   0  0  0  0  0  0
  -30.4228  -12.8525   19.4990 C   0  0  0  0  0  0
  -29.5115  -12.5712   18.2751 C   0  0  0  0  0  0
  -28.0668  -12.2904   18.7213 C   0  0  0  0  0  0
  -27.5969  -13.2848   19.8083 C   0  0  2  0  0  0
  -28.6397  -13.5181   20.9242 C   0  0  0  0  0  0
  -25.2322  -13.8280   20.5784 C   0  0  0  0  0  0
  -24.1710  -13.0462   20.9286 C   0  0  0  0  0  0
  -24.6405  -11.6955   20.8820 C   0  0  0  0  0  0
  -23.9093  -10.4310   21.0445 C   0  0  0  0  0  0
  -24.3634   -9.4217   21.9239 C   0  0  0  0  0  0
  -23.6304   -8.2252   22.0780 C   0  0  0  0  0  0
  -22.4293   -8.0299   21.3547 C   0  0  0  0  0  0
  -21.9938   -9.0275   20.4659 C   0  0  0  0  0  0
  -22.7265  -10.2151   20.3087 C   0  0  0  0  0  0
  -21.6858   -6.0734   22.5261 C   0  0  0  0  0  0
  -21.4016   -6.5635   23.8205 C   0  0  0  0  0  0
  -21.3646   -5.6800   24.9179 C   0  0  0  0  0  0
  -21.6053   -4.3069   24.7228 C   0  0  0  0  0  0
  -21.8805   -3.8148   23.4346 C   0  0  0  0  0  0
  -21.9187   -4.6963   22.3399 C   0  0  0  0  0  0
  -22.7714  -13.5184   21.1912 C   0  0  0  0  0  0
  -22.1658   -4.2155   21.0992 F   0  0  0  0  0  0
  -21.5619   -3.4547   25.7738 F   0  0  0  0  0  0
  -29.8594  -14.0239   20.2738 N   0  0  0  0  0  0
  -26.2764  -12.9584   20.3260 N   0  0  0  0  0  0
  -25.9346  -11.6689   20.5792 N   0  0  0  0  0  0
  -22.0394  -12.8184   22.0475 N   0  0  0  0  0  0
  -25.3948  -15.2017   20.4091 N   0  0  0  0  0  0
  -31.6940  -15.2212   20.2610 O   0  0  0  0  0  0
  -21.6639   -6.8906   21.4239 O   0  0  0  0  0  0
  -22.3395  -14.5501   20.6758 O   0  0  0  0  0  0
  -24.6657  -31.8101   23.1716 C   0  0  0  0  0  0
  -25.9329  -32.4506   23.8149 C   0  0  1  0  0  0
  -27.2390  -26.8975   20.2011 C   0  0  0  0  0  0
  -25.5960  -33.8320   24.2014 N   0  0  0  0  0  0
  -23.4870  -30.4225   21.5122 C   0  0  2  0  0  0
  -24.9499  -28.8115   20.0994 C   0  0  0  0  0  0
  -22.7687  -29.4347   22.4695 C   0  0  0  0  0  0
  -18.0318  -28.1433   22.8425 C   0  0  0  0  0  0
  -24.1485  -36.7168   23.2646 C   0  0  0  0  0  0
  -26.0549  -30.6181   21.4038 C   0  0  0  0  0  0
  -26.1257  -29.2048   20.7498 C   0  0  0  0  0  0
  -27.2567  -28.2669   20.7766 C   0  0  0  0  0  0
  -26.0378  -26.6651   19.4880 C   0  0  0  0  0  0
  -24.9344  -27.5661   19.4467 C   0  0  0  0  0  0
  -23.7347  -29.7408   20.1353 C   0  0  0  0  0  0
  -25.4137  -36.2910   24.0280 C   0  0  1  0  0  0
  -20.5942  -28.3746   23.1173 C   0  0  2  0  0  0
  -20.6816  -26.9416   22.5416 C   0  0  0  0  0  0
  -19.5796  -26.6373   21.5225 C   0  0  0  0  0  0
  -18.1949  -26.7959   22.1591 C   0  0  0  0  0  0
  -19.1580  -28.8906   23.2775 C   0  0  0  0  0  0
  -18.9497  -30.1486   23.8825 C   0  0  0  0  0  0
  -17.6501  -30.6596   24.0554 C   0  0  0  0  0  0
  -25.9111  -34.9287   23.4978 C   0  0  0  0  0  0
  -16.5375  -29.9095   23.6362 C   0  0  0  0  0  0
  -16.7292  -28.6540   23.0333 C   0  0  0  0  0  0
  -26.4603  -31.6508   25.0686 C   0  0  0  0  0  0
  -25.3749  -31.3749   26.1337 C   0  0  0  0  0  0
  -27.0499  -30.2859   24.6447 C   0  0  0  0  0  0
  -27.6058  -32.4375   25.7476 C   0  0  0  0  0  0
  -27.5560  -37.1716   24.8472 C   0  0  0  0  0  0
  -21.4345  -29.3002   22.3480 N   0  0  0  0  0  0
  -26.4275  -37.3671   23.9430 N   0  0  0  0  0  0
  -24.7575  -30.9769   22.0843 N   0  0  0  0  0  0
  -23.4220  -28.7911   23.2937 O   0  0  0  0  0  0
  -28.2482  -25.7944   20.3608 O   0  0  0  0  0  0
  -26.5719  -34.8854   22.4576 O   0  0  0  0  0  0
  -23.5737  -32.1034   23.6830 O   0  0  0  0  0  0
  -30.8391  -21.1798   19.9807 C   0  0  0  0  0  0
  -31.7105  -20.0682   19.7130 C   0  0  0  0  0  0
  -29.4591  -21.0347   20.2939 C   0  0  0  0  0  0
  -31.2737  -18.6997   19.6648 C   0  0  0  0  0  0
  -29.1296  -19.5176   20.4427 C   0  0  0  0  0  0
  -30.0154  -18.2602   20.1843 C   0  0  0  0  0  0
  -31.4068  -22.5982   19.9767 C   0  0  0  0  0  0
  -33.2086  -20.3647   19.5111 C   0  0  0  0  0  0
  -32.1795  -17.7169   18.9319 C   0  0  0  0  0  0
  -27.7271  -19.2143   20.9262 C   0  0  0  0  0  0
  -28.6046  -22.5484   20.6916 C   0  0  0  0  0  0
  -28.2936  -24.1825   19.9207 C   0  0  0  0  0  0
  -29.7436  -16.6412   20.3443 N   0  0  0  0  0  0
  -31.4321  -13.0570   19.1425 H   0  0  0  0  0  0
  -30.5123  -11.9698   20.1351 H   0  0  0  0  0  0
  -29.8936  -11.7286   17.6981 H   0  0  0  0  0  0
  -29.5183  -13.4300   17.6010 H   0  0  0  0  0  0
  -28.0277  -11.2753   19.1179 H   0  0  0  0  0  0
  -27.3894  -12.3104   17.8665 H   0  0  0  0  0  0
  -27.4917  -14.2327   19.2770 H   0  0  0  0  0  0
  -28.8243  -12.6131   21.5001 H   0  0  0  0  0  0
  -28.2751  -14.2679   21.6277 H   0  0  0  0  0  0
  -25.2783   -9.5673   22.4827 H   0  0  0  0  0  0
  -23.9989   -7.4626   22.7509 H   0  0  0  0  0  0
  -21.0871   -8.8808   19.8957 H   0  0  0  0  0  0
  -22.3759  -10.9699   19.6183 H   0  0  0  0  0  0
  -21.2021   -7.6157   23.9704 H   0  0  0  0  0  0
  -21.1482   -6.0545   25.9076 H   0  0  0  0  0  0
  -22.0602   -2.7606   23.2849 H   0  0  0  0  0  0
  -22.4019  -11.9811   22.4801 H   0  0  0  0  0  0
  -21.1030  -13.1209   22.2756 H   0  0  0  0  0  0
  -24.6114  -15.8439   20.4632 H   0  0  0  0  0  0
  -26.2291  -15.6244   20.0251 H   0  0  0  0  0  0
  -26.7365  -32.5010   23.0839 H   0  0  0  0  0  0
  -25.0109  -33.9391   25.0165 H   0  0  0  0  0  0
  -22.8043  -31.2575   21.3409 H   0  0  0  0  0  0
  -23.3756  -35.9477   23.3298 H   0  0  0  0  0  0
  -24.3573  -36.8862   22.2070 H   0  0  0  0  0  0
  -23.7245  -37.6345   23.6749 H   0  0  0  0  0  0
  -26.2403  -31.3671   20.6319 H   0  0  0  0  0  0
  -26.9133  -30.6685   22.0627 H   0  0  0  0  0  0
  -28.1430  -28.5635   21.3210 H   0  0  0  0  0  0
  -25.9059  -25.7134   18.9948 H   0  0  0  0  0  0
  -24.0419  -27.2626   18.9173 H   0  0  0  0  0  0
  -23.8977  -30.5154   19.3829 H   0  0  0  0  0  0
  -22.8485  -29.1942   19.8098 H   0  0  0  0  0  0
  -25.1338  -36.1696   25.0767 H   0  0  0  0  0  0
  -20.9984  -28.3391   24.1315 H   0  0  0  0  0  0
  -20.5783  -26.2304   23.3621 H   0  0  0  0  0  0
  -21.6666  -26.7436   22.1167 H   0  0  0  0  0  0
  -19.6978  -25.6285   21.1264 H   0  0  0  0  0  0
  -19.6834  -27.3173   20.6753 H   0  0  0  0  0  0
  -17.4243  -26.6674   21.3969 H   0  0  0  0  0  0
  -18.0351  -26.0133   22.9025 H   0  0  0  0  0  0
  -19.7974  -30.7286   24.2195 H   0  0  0  0  0  0
  -17.5063  -31.6303   24.5114 H   0  0  0  0  0  0
  -15.5373  -30.2970   23.7783 H   0  0  0  0  0  0
  -15.8671  -28.0862   22.7062 H   0  0  0  0  0  0
  -24.5987  -30.7025   25.7677 H   0  0  0  0  0  0
  -24.8856  -32.2917   26.4595 H   0  0  0  0  0  0
  -25.7994  -30.9072   27.0212 H   0  0  0  0  0  0
  -26.3153  -29.6518   24.1437 H   0  0  0  0  0  0
  -27.3997  -29.7257   25.5136 H   0  0  0  0  0  0
  -27.9150  -30.4032   23.9885 H   0  0  0  0  0  0
  -27.2598  -33.3782   26.1790 H   0  0  0  0  0  0
  -28.3984  -32.6755   25.0356 H   0  0  0  0  0  0
  -28.0583  -31.8671   26.5596 H   0  0  0  0  0  0
  -28.2494  -38.0081   24.7537 H   0  0  0  0  0  0
  -28.1123  -36.2593   24.6275 H   0  0  0  0  0  0
  -27.2275  -37.1330   25.8870 H   0  0  0  0  0  0
  -20.9614  -29.8662   21.6589 H   0  0  0  0  0  0
  -26.0101  -38.2688   24.1555 H   0  0  0  0  0  0
  -30.8664  -23.2076   19.2578 H   0  0  0  0  0  0
  -32.4529  -22.7047   19.7013 H   0  0  0  0  0  0
  -31.3068  -23.0399   20.9678 H   0  0  0  0  0  0
  -33.5974  -20.8843   20.3895 H   0  0  0  0  0  0
  -33.3908  -20.9913   18.6368 H   0  0  0  0  0  0
  -33.8541  -19.4960   19.4134 H   0  0  0  0  0  0
  -32.6727  -18.1920   18.0825 H   0  0  0  0  0  0
  -31.6154  -16.9124   18.4647 H   0  0  0  0  0  0
  -32.9406  -17.3020   19.5949 H   0  0  0  0  0  0
  -27.0476  -20.0212   20.6513 H   0  0  0  0  0  0
  -27.7092  -19.1015   22.0116 H   0  0  0  0  0  0
  -27.3545  -18.2964   20.4693 H   0  0  0  0  0  0
  -29.0720  -22.8155   21.6418 H   0  0  0  0  0  0
  -27.6159  -22.2185   21.0063 H   0  0  0  0  0  0
  -27.3678  -24.0277   19.3714 H   0  0  0  0  0  0
  -29.0331  -24.2308   19.1250 H   0  0  0  0  0  0
  -28.7584  -16.4519   20.4438 H   0  0  0  0  0  0
  1 25  1  0  0  0
  1 30  2  0  0  0
  1 83  1  0  0  0
  2  3  1  0  0  0
  2 25  1  0  0  0
  2 84  1  0  0  0
  2 85  1  0  0  0
  3  4  1  0  0  0
  3 86  1  0  0  0
  3 87  1  0  0  0
  4  5  1  0  0  0
  4 88  1  0  0  0
  4 89  1  0  0  0
  5  6  1  0  0  0
  5 26  1  0  0  0
  5 90  1  0  0  0
  6 25  1  0  0  0
  6 91  1  0  0  0
  6 92  1  0  0  0
  7  8  2  0  0  0
  7 26  1  0  0  0
  7 29  1  0  0  0
  8  9  1  0  0  0
  8 22  1  0  0  0
  9 10  1  0  0  0
  9 27  2  0  0  0
 10 11  2  0  0  0
 10 15  1  0  0  0
 11 12  1  0  0  0
 11 93  1  0  0  0
 12 13  2  0  0  0
 12 94  1  0  0  0
 13 14  1  0  0  0
 13 31  1  0  0  0
 14 15  2  0  0  0
 14 95  1  0  0  0
 15 96  1  0  0  0
 16 17  2  0  0  0
 16 21  1  0  0  0
 16 31  1  0  0  0
 17 18  1  0  0  0
 17 97  1  0  0  0
 18 19  2  0  0  0
 18 98  1  0  0  0
 19 20  1  0  0  0
 19 24  1  0  0  0
 20 21  2  0  0  0
 20 99  1  0  0  0
 21 23  1  0  0  0
 22 28  1  0  0  0
 22 32  2  0  0  0
 26 27  1  0  0  0
 28100  1  0  0  0
 28101  1  0  0  0
 29102  1  0  0  0
 29103  1  0  0  0
 33 34  1  0  0  0
 33 66  1  0  0  0
 33 70  2  0  0  0
 34 36  1  0  0  0
 34 59  1  0  0  0
 34104  1  0  0  0
 35 44  2  0  0  0
 35 45  1  0  0  0
 35 68  1  0  0  0
 36 56  1  0  0  0
 36105  1  0  0  0
 37 39  1  0  0  0
 37 47  1  0  0  0
 37 66  1  0  0  0
 37106  1  0  0  0
 38 43  2  0  0  0
 38 46  1  0  0  0
 38 47  1  0  0  0
 39 64  1  0  0  0
 39 67  2  0  0  0
 40 52  1  0  0  0
 40 53  2  0  0  0
 40 58  1  0  0  0
 41107  1  0  0  0
 41108  1  0  0  0
 41109  1  0  0  0
 41 48  1  0  0  0
 42 43  1  0  0  0
 42 66  1  0  0  0
 42110  1  0  0  0
 42111  1  0  0  0
 43 44  1  0  0  0
 44112  1  0  0  0
 45 46  2  0  0  0
 45113  1  0  0  0
 46114  1  0  0  0
 47115  1  0  0  0
 47116  1  0  0  0
 48 56  1  0  0  0
 48 65  1  0  0  0
 48117  1  0  0  0
 49 50  1  0  0  0
 49 53  1  0  0  0
 49 64  1  0  0  0
 49118  1  0  0  0
 50 51  1  0  0  0
 50119  1  0  0  0
 50120  1  0  0  0
 51 52  1  0  0  0
 51121  1  0  0  0
 51122  1  0  0  0
 52123  1  0  0  0
 52124  1  0  0  0
 53 54  1  0  0  0
 54 55  2  0  0  0
 54125  1  0  0  0
 55 57  1  0  0  0
 55126  1  0  0  0
 56 69  2  0  0  0
 57 58  2  0  0  0
 57127  1  0  0  0
 58128  1  0  0  0
 59 60  1  0  0  0
 59 61  1  0  0  0
 59 62  1  0  0  0
 60129  1  0  0  0
 60130  1  0  0  0
 60131  1  0  0  0
 61132  1  0  0  0
 61133  1  0  0  0
 61134  1  0  0  0
 62135  1  0  0  0
 62136  1  0  0  0
 62137  1  0  0  0
 63 65  1  0  0  0
 63138  1  0  0  0
 63139  1  0  0  0
 63140  1  0  0  0
 64141  1  0  0  0
 65142  1  0  0  0
 68 82  1  0  0  0
 71 72  2  0  0  0
 71 73  1  0  0  0
 71 77  1  0  0  0
 72 74  1  0  0  0
 72 78  1  0  0  0
 73 75  2  0  0  0
 73 81  1  0  0  0
 74 76  2  0  0  0
 74 79  1  0  0  0
 75 76  1  0  0  0
 75 80  1  0  0  0
 76 83  1  0  0  0
 77143  1  0  0  0
 77144  1  0  0  0
 77145  1  0  0  0
 78146  1  0  0  0
 78147  1  0  0  0
 78148  1  0  0  0
 79149  1  0  0  0
 79150  1  0  0  0
 79151  1  0  0  0
 80152  1  0  0  0
 80153  1  0  0  0
 80154  1  0  0  0
 81 82  1  0  0  0
 81155  1  0  0  0
 81156  1  0  0  0
 82157  1  0  0  0
 82158  1  0  0  0
 83159  1  0  0  0
M  ISO  4   1 100  68 101  82 101  83 100
M  END
> <chiral flag>
0

> <version>
0

> <s_m_source_file>
/data/baiqing/PycharmProjects/Reinvent-master-3.2/result/LINK_invent/BTK/process_docking_weight1_custom_sum_contain_oxygen_bond_distance_aromatic_linkinvent_7_9_3/rearranged_h_0021.sdf

> <i_m_source_file_index>
81

> <r_mmod_Potential_Energy-OPLS-2005>
1447.08117675781

> <r_mmod_Stretch_Energy-OPLS-2005>
678.23876953125

> <r_mmod_Bend_Energy-OPLS-2005>
469.971221923828

> <r_mmod_Torsional_Energy-OPLS-2005>
251.820343017578

> <r_mmod_Improper_Torsional_Energy-OPLS-2005>
6.25259065628052

> <r_mmod_Van_der_Waal_Energy-OPLS-2005>
156.640182495117

> <r_mmod_Electrostatic_Energy-OPLS-2005>
-422.095336914062

> <r_mmod_Solvation_Energy-OPLS-2005>
-206.979064941406

> <b_mmod_Minimization_Converged-OPLS-2005>
0

> <r_mmod_RMS_Derivative-OPLS-2005>
5.50282287597656

$$$$
82
                    3D
 Structure written by MMmdl.
170178  0  0  1  0            999 V2000
  -30.7607  -14.4029   20.6143 C   0  0  0  0  0  0
  -30.4027  -12.2798   19.4192 C   0  0  0  0  0  0
  -29.4854  -12.5063   18.2031 C   0  0  0  0  0  0
  -28.0087  -12.3689   18.6173 C   0  0  0  0  0  0
  -27.6609  -13.2084   19.8761 C   0  0  2  0  0  0
  -28.6993  -12.9895   20.9994 C   0  0  0  0  0  0
  -25.2582  -13.8169   20.5684 C   0  0  0  0  0  0
  -24.1833  -13.0443   20.9170 C   0  0  0  0  0  0
  -24.6388  -11.6913   20.8728 C   0  0  0  0  0  0
  -23.9059  -10.4296   21.0403 C   0  0  0  0  0  0
  -24.3617   -9.4214   21.9179 C   0  0  0  0  0  0
  -23.6291   -8.2252   22.0754 C   0  0  0  0  0  0
  -22.4272   -8.0288   21.3551 C   0  0  0  0  0  0
  -21.9912   -9.0259   20.4648 C   0  0  0  0  0  0
  -22.7238  -10.2132   20.3051 C   0  0  0  0  0  0
  -21.6849   -6.0741   22.5283 C   0  0  0  0  0  0
  -21.4017   -6.5642   23.8220 C   0  0  0  0  0  0
  -21.3658   -5.6794   24.9177 C   0  0  0  0  0  0
  -21.6043   -4.3056   24.7225 C   0  0  0  0  0  0
  -21.8817   -3.8150   23.4344 C   0  0  0  0  0  0
  -21.9194   -4.6971   22.3402 C   0  0  0  0  0  0
  -22.7859  -13.5240   21.1836 C   0  0  0  0  0  0
  -22.1659   -4.2157   21.0979 F   0  0  0  0  0  0
  -21.5626   -3.4540   25.7737 F   0  0  0  0  0  0
  -30.0361  -13.2657   20.4477 N   0  0  0  0  0  0
  -26.3018  -12.9345   20.3375 N   0  0  0  0  0  0
  -25.9311  -11.6499   20.5768 N   0  0  0  0  0  0
  -22.0502  -12.8231   22.0389 N   0  0  0  0  0  0
  -25.4318  -15.1888   20.4104 N   0  0  0  0  0  0
  -31.8370  -14.5924   20.0425 O   0  0  0  0  0  0
  -21.6638   -6.8883   21.4243 O   0  0  0  0  0  0
  -22.3546  -14.5552   20.6687 O   0  0  0  0  0  0
  -24.6097  -31.8703   23.2143 C   0  0  0  0  0  0
  -25.9012  -32.4829   23.8419 C   0  0  1  0  0  0
  -27.2253  -27.4537   20.0952 C   0  0  0  0  0  0
  -25.5898  -33.8629   24.2347 N   0  0  0  0  0  0
  -23.3975  -30.4931   21.5533 C   0  0  2  0  0  0
  -24.8414  -28.9637   20.1132 C   0  0  0  0  0  0
  -22.7404  -29.4646   22.5017 C   0  0  0  0  0  0
  -18.0263  -28.1361   22.8484 C   0  0  0  0  0  0
  -24.1490  -36.7312   23.2634 C   0  0  0  0  0  0
  -25.9238  -30.8406   21.3650 C   0  0  0  0  0  0
  -25.9994  -29.4778   20.7094 C   0  0  0  0  0  0
  -27.1954  -28.7292   20.6971 C   0  0  0  0  0  0
  -26.0533  -26.9536   19.4832 C   0  0  0  0  0  0
  -24.8611  -27.7009   19.4971 C   0  0  0  0  0  0
  -23.6038  -29.8290   20.1647 C   0  0  0  0  0  0
  -25.4108  -36.3111   24.0346 C   0  0  1  0  0  0
  -20.5858  -28.3640   23.1332 C   0  0  2  0  0  0
  -20.6757  -26.9385   22.5422 C   0  0  0  0  0  0
  -19.5742  -26.6384   21.5200 C   0  0  0  0  0  0
  -18.1918  -26.7915   22.1611 C   0  0  0  0  0  0
  -19.1519  -28.8823   23.2897 C   0  0  0  0  0  0
  -18.9458  -30.1434   23.8892 C   0  0  0  0  0  0
  -17.6454  -30.6572   24.0555 C   0  0  0  0  0  0
  -25.9051  -34.9477   23.5141 C   0  0  0  0  0  0
  -16.5349  -29.9071   23.6323 C   0  0  0  0  0  0
  -16.7264  -28.6491   23.0340 C   0  0  0  0  0  0
  -26.4467  -31.6603   25.0732 C   0  0  0  0  0  0
  -25.3758  -31.3702   26.1500 C   0  0  0  0  0  0
  -27.0285  -30.3051   24.6080 C   0  0  0  0  0  0
  -27.6050  -32.4322   25.7475 C   0  0  0  0  0  0
  -27.5591  -37.1790   24.8452 C   0  0  0  0  0  0
  -21.4137  -29.3016   22.3758 N   0  0  0  0  0  0
  -26.4286  -37.3800   23.9424 N   0  0  0  0  0  0
  -24.6614  -31.0822   22.1021 N   0  0  0  0  0  0
  -23.4185  -28.8193   23.3053 O   0  0  0  0  0  0
  -28.4023  -26.7438   20.1020 O   0  0  0  0  0  0
  -26.5598  -34.8931   22.4695 O   0  0  0  0  0  0
  -23.5301  -32.1464   23.7549 O   0  0  0  0  0  0
  -29.5861  -20.1261   21.4331 C   0  0  0  0  0  0
  -30.2302  -18.9109   21.1419 C   0  0  0  0  0  0
  -29.1999  -17.9053   23.1163 C   0  0  0  0  0  0
  -30.0954  -17.8022   22.0169 C   0  0  0  0  0  0
  -28.5063  -19.1265   23.3620 C   0  0  0  0  0  0
  -28.7778  -20.2861   22.5767 C   0  0  0  0  0  0
  -31.1011  -18.8607   19.8960 C   0  0  0  0  0  0
  -28.9903  -16.7184   24.0593 C   0  0  0  0  0  0
  -27.4464  -19.1676   24.4613 C   0  0  0  0  0  0
  -28.5588  -21.9879   24.3185 C   0  0  0  0  0  0
  -30.9636  -16.5521   21.8136 C   0  0  0  0  0  0
  -29.4535  -23.4474   21.6667 C   0  0  0  0  0  0
  -29.2615  -24.9596   21.4527 C   0  0  0  0  0  0
  -28.1497  -22.6572   21.9563 C   0  0  0  0  0  0
  -28.3122  -25.3322   20.3047 C   0  0  0  0  0  0
  -30.2417  -15.3370   21.4234 N   0  0  0  0  0  0
  -28.3009  -21.5745   22.9378 N   0  0  0  0  0  0
  -31.4521  -12.3429   19.1251 H   0  0  0  0  0  0
  -30.2704  -11.2700   19.8121 H   0  0  0  0  0  0
  -29.7210  -11.7903   17.4147 H   0  0  0  0  0  0
  -29.6624  -13.4977   17.7831 H   0  0  0  0  0  0
  -27.8177  -11.3128   18.8128 H   0  0  0  0  0  0
  -27.3568  -12.6447   17.7882 H   0  0  0  0  0  0
  -27.7084  -14.2569   19.5807 H   0  0  0  0  0  0
  -28.6606  -11.9583   21.3539 H   0  0  0  0  0  0
  -28.4588  -13.6029   21.8682 H   0  0  0  0  0  0
  -25.2762   -9.5686   22.4759 H   0  0  0  0  0  0
  -23.9998   -7.4642   22.7474 H   0  0  0  0  0  0
  -21.0845   -8.8774   19.8953 H   0  0  0  0  0  0
  -22.3696  -10.9674   19.6160 H   0  0  0  0  0  0
  -21.2013   -7.6152   23.9724 H   0  0  0  0  0  0
  -21.1480   -6.0525   25.9083 H   0  0  0  0  0  0
  -22.0598   -2.7614   23.2842 H   0  0  0  0  0  0
  -22.4111  -11.9875   22.4751 H   0  0  0  0  0  0
  -21.1128  -13.1264   22.2611 H   0  0  0  0  0  0
  -24.6703  -15.8486   20.5287 H   0  0  0  0  0  0
  -26.2930  -15.6279   20.1090 H   0  0  0  0  0  0
  -26.7067  -32.5545   23.1170 H   0  0  0  0  0  0
  -25.0043  -33.9795   25.0489 H   0  0  0  0  0  0
  -22.6840  -31.3075   21.4147 H   0  0  0  0  0  0
  -23.3759  -35.9637   23.3281 H   0  0  0  0  0  0
  -24.3576  -36.8952   22.2050 H   0  0  0  0  0  0
  -23.7236  -37.6514   23.6657 H   0  0  0  0  0  0
  -26.0406  -31.6124   20.6035 H   0  0  0  0  0  0
  -26.8094  -30.8853   21.9875 H   0  0  0  0  0  0
  -28.0904  -29.1174   21.1607 H   0  0  0  0  0  0
  -26.0540  -25.9965   18.9820 H   0  0  0  0  0  0
  -23.9727  -27.3037   19.0249 H   0  0  0  0  0  0
  -23.7120  -30.6053   19.4056 H   0  0  0  0  0  0
  -22.7286  -29.2487   19.8706 H   0  0  0  0  0  0
  -25.1269  -36.1977   25.0839 H   0  0  0  0  0  0
  -20.9926  -28.3193   24.1467 H   0  0  0  0  0  0
  -20.5666  -26.2254   23.3606 H   0  0  0  0  0  0
  -21.6628  -26.7443   22.1211 H   0  0  0  0  0  0
  -19.6923  -25.6300   21.1222 H   0  0  0  0  0  0
  -19.6681  -27.3218   20.6735 H   0  0  0  0  0  0
  -17.4201  -26.6667   21.4006 H   0  0  0  0  0  0
  -18.0288  -26.0054   22.8998 H   0  0  0  0  0  0
  -19.7944  -30.7233   24.2274 H   0  0  0  0  0  0
  -17.5024  -31.6255   24.5157 H   0  0  0  0  0  0
  -15.5355  -30.2957   23.7672 H   0  0  0  0  0  0
  -15.8658  -28.0812   22.7038 H   0  0  0  0  0  0
  -24.5920  -30.7053   25.7860 H   0  0  0  0  0  0
  -24.8946  -32.2838   26.4986 H   0  0  0  0  0  0
  -25.8129  -30.8861   27.0239 H   0  0  0  0  0  0
  -26.2806  -29.6807   24.1178 H   0  0  0  0  0  0
  -27.4115  -29.7296   25.4516 H   0  0  0  0  0  0
  -27.8616  -30.4379   23.9179 H   0  0  0  0  0  0
  -27.2687  -33.3627   26.2062 H   0  0  0  0  0  0
  -28.3841  -32.6879   25.0283 H   0  0  0  0  0  0
  -28.0728  -31.8442   26.5388 H   0  0  0  0  0  0
  -28.2567  -38.0126   24.7560 H   0  0  0  0  0  0
  -28.1133  -36.2669   24.6192 H   0  0  0  0  0  0
  -27.2319  -37.1327   25.8853 H   0  0  0  0  0  0
  -20.9315  -29.8763   21.6994 H   0  0  0  0  0  0
  -26.0186  -38.2876   24.1468 H   0  0  0  0  0  0
  -29.7674  -20.9527   20.7693 H   0  0  0  0  0  0
  -30.9417  -19.7338   19.2630 H   0  0  0  0  0  0
  -30.8677  -17.9794   19.2980 H   0  0  0  0  0  0
  -32.1576  -18.8401   20.1654 H   0  0  0  0  0  0
  -29.8358  -16.0357   24.0989 H   0  0  0  0  0  0
  -28.1133  -16.1456   23.7567 H   0  0  0  0  0  0
  -28.8465  -17.0461   25.0889 H   0  0  0  0  0  0
  -26.8910  -18.2315   24.5172 H   0  0  0  0  0  0
  -26.6997  -19.9376   24.2712 H   0  0  0  0  0  0
  -27.9063  -19.3539   25.4316 H   0  0  0  0  0  0
  -29.3148  -21.3637   24.7990 H   0  0  0  0  0  0
  -27.6478  -21.9368   24.9134 H   0  0  0  0  0  0
  -28.9116  -23.0180   24.3678 H   0  0  0  0  0  0
  -31.5067  -16.3475   22.7360 H   0  0  0  0  0  0
  -31.7640  -16.7674   21.1086 H   0  0  0  0  0  0
  -30.1701  -23.3183   22.4788 H   0  0  0  0  0  0
  -29.9468  -23.0519   20.7817 H   0  0  0  0  0  0
  -30.2372  -25.4030   21.2494 H   0  0  0  0  0  0
  -28.9116  -25.4207   22.3777 H   0  0  0  0  0  0
  -27.7221  -22.2697   21.0288 H   0  0  0  0  0  0
  -27.3996  -23.3418   22.3573 H   0  0  0  0  0  0
  -27.3096  -24.9967   20.5716 H   0  0  0  0  0  0
  -28.5931  -24.8224   19.3831 H   0  0  0  0  0  0
  -29.3409  -15.1624   21.8407 H   0  0  0  0  0  0
  1 25  1  0  0  0
  1 30  2  0  0  0
  1 86  1  0  0  0
  2  3  1  0  0  0
  2 25  1  0  0  0
  2 88  1  0  0  0
  2 89  1  0  0  0
  3  4  1  0  0  0
  3 90  1  0  0  0
  3 91  1  0  0  0
  4  5  1  0  0  0
  4 92  1  0  0  0
  4 93  1  0  0  0
  5  6  1  0  0  0
  5 26  1  0  0  0
  5 94  1  0  0  0
  6 25  1  0  0  0
  6 95  1  0  0  0
  6 96  1  0  0  0
  7  8  2  0  0  0
  7 26  1  0  0  0
  7 29  1  0  0  0
  8  9  1  0  0  0
  8 22  1  0  0  0
  9 10  1  0  0  0
  9 27  2  0  0  0
 10 11  2  0  0  0
 10 15  1  0  0  0
 11 12  1  0  0  0
 11 97  1  0  0  0
 12 13  2  0  0  0
 12 98  1  0  0  0
 13 14  1  0  0  0
 13 31  1  0  0  0
 14 15  2  0  0  0
 14 99  1  0  0  0
 15100  1  0  0  0
 16 17  2  0  0  0
 16 21  1  0  0  0
 16 31  1  0  0  0
 17 18  1  0  0  0
 17101  1  0  0  0
 18 19  2  0  0  0
 18102  1  0  0  0
 19 20  1  0  0  0
 19 24  1  0  0  0
 20 21  2  0  0  0
 20103  1  0  0  0
 21 23  1  0  0  0
 22 28  1  0  0  0
 22 32  2  0  0  0
 26 27  1  0  0  0
 28104  1  0  0  0
 28105  1  0  0  0
 29106  1  0  0  0
 29107  1  0  0  0
 33 34  1  0  0  0
 33 66  1  0  0  0
 33 70  2  0  0  0
 34 36  1  0  0  0
 34 59  1  0  0  0
 34108  1  0  0  0
 35 44  2  0  0  0
 35 45  1  0  0  0
 35 68  1  0  0  0
 36 56  1  0  0  0
 36109  1  0  0  0
 37 39  1  0  0  0
 37 47  1  0  0  0
 37 66  1  0  0  0
 37110  1  0  0  0
 38 43  2  0  0  0
 38 46  1  0  0  0
 38 47  1  0  0  0
 39 64  1  0  0  0
 39 67  2  0  0  0
 40 52  1  0  0  0
 40 53  2  0  0  0
 40 58  1  0  0  0
 41111  1  0  0  0
 41112  1  0  0  0
 41113  1  0  0  0
 41 48  1  0  0  0
 42 43  1  0  0  0
 42 66  1  0  0  0
 42114  1  0  0  0
 42115  1  0  0  0
 43 44  1  0  0  0
 44116  1  0  0  0
 45 46  2  0  0  0
 45117  1  0  0  0
 46118  1  0  0  0
 47119  1  0  0  0
 47120  1  0  0  0
 48 56  1  0  0  0
 48 65  1  0  0  0
 48121  1  0  0  0
 49 50  1  0  0  0
 49 53  1  0  0  0
 49 64  1  0  0  0
 49122  1  0  0  0
 50 51  1  0  0  0
 50123  1  0  0  0
 50124  1  0  0  0
 51 52  1  0  0  0
 51125  1  0  0  0
 51126  1  0  0  0
 52127  1  0  0  0
 52128  1  0  0  0
 53 54  1  0  0  0
 54 55  2  0  0  0
 54129  1  0  0  0
 55 57  1  0  0  0
 55130  1  0  0  0
 56 69  2  0  0  0
 57 58  2  0  0  0
 57131  1  0  0  0
 58132  1  0  0  0
 59 60  1  0  0  0
 59 61  1  0  0  0
 59 62  1  0  0  0
 60133  1  0  0  0
 60134  1  0  0  0
 60135  1  0  0  0
 61136  1  0  0  0
 61137  1  0  0  0
 61138  1  0  0  0
 62139  1  0  0  0
 62140  1  0  0  0
 62141  1  0  0  0
 63 65  1  0  0  0
 63142  1  0  0  0
 63143  1  0  0  0
 63144  1  0  0  0
 64145  1  0  0  0
 65146  1  0  0  0
 68 85  1  0  0  0
 71 72  2  0  0  0
 71 76  1  0  0  0
 71147  1  0  0  0
 72 74  1  0  0  0
 72 77  1  0  0  0
 73 74  2  0  0  0
 73 75  1  0  0  0
 73 78  1  0  0  0
 74 81  1  0  0  0
 75 76  2  0  0  0
 75 79  1  0  0  0
 76 87  1  0  0  0
 77148  1  0  0  0
 77149  1  0  0  0
 77150  1  0  0  0
 78151  1  0  0  0
 78152  1  0  0  0
 78153  1  0  0  0
 79154  1  0  0  0
 79155  1  0  0  0
 79156  1  0  0  0
 80 87  1  0  0  0
 80157  1  0  0  0
 80158  1  0  0  0
 80159  1  0  0  0
 81 86  1  0  0  0
 81160  1  0  0  0
 81161  1  0  0  0
 82 83  1  0  0  0
 82 84  1  0  0  0
 82162  1  0  0  0
 82163  1  0  0  0
 83 85  1  0  0  0
 83164  1  0  0  0
 83165  1  0  0  0
 84 87  1  0  0  0
 84166  1  0  0  0
 84167  1  0  0  0
 85168  1  0  0  0
 85169  1  0  0  0
 86170  1  0  0  0
M  ISO  4   1 100  68 101  85 101  86 100
M  END
> <chiral flag>
0

> <version>
0

> <s_m_source_file>
/data/baiqing/PycharmProjects/Reinvent-master-3.2/result/LINK_invent/BTK/process_docking_weight1_custom_sum_contain_oxygen_bond_distance_aromatic_linkinvent_7_9_3/rearranged_h_0021.sdf

> <i_m_source_file_index>
82

> <r_mmod_Potential_Energy-OPLS-2005>
-92.1539535522461

> <r_mmod_Stretch_Energy-OPLS-2005>
39.4795951843262

> <r_mmod_Bend_Energy-OPLS-2005>
107.997161865234

> <r_mmod_Torsional_Energy-OPLS-2005>
227.539749145508

> <r_mmod_Improper_Torsional_Energy-OPLS-2005>
3.81305432319641

> <r_mmod_Van_der_Waal_Energy-OPLS-2005>
182.639694213867

> <r_mmod_Electrostatic_Energy-OPLS-2005>
-450.303588867188

> <r_mmod_Solvation_Energy-OPLS-2005>
-212.912704467773

> <b_mmod_Minimization_Converged-OPLS-2005>
0

> <r_mmod_RMS_Derivative-OPLS-2005>
2.26159906387329

$$$$
83
                    3D
 Structure written by MMmdl.
172181  0  0  1  0            999 V2000
  -31.8200  -14.2784   20.0788 C   0  0  0  0  0  0
  -30.7330  -12.0943   19.4089 C   0  0  0  0  0  0
  -29.3122  -11.7856   18.2960 C   0  0  0  0  0  0
  -27.6020  -12.4342   18.3563 C   0  0  0  0  0  0
  -27.0449  -13.7816   19.5754 C   0  0  2  0  0  0
  -29.7745  -14.3731   21.2406 C   0  0  0  0  0  0
  -24.8743  -13.9457   20.5514 C   0  0  0  0  0  0
  -23.9456  -13.0683   20.9598 C   0  0  0  0  0  0
  -24.4932  -11.7492   20.8666 C   0  0  0  0  0  0
  -23.8534  -10.4466   21.0357 C   0  0  0  0  0  0
  -24.3445   -9.4488   21.9074 C   0  0  0  0  0  0
  -23.6325   -8.2361   22.0688 C   0  0  0  0  0  0
  -22.4281   -8.0219   21.3533 C   0  0  0  0  0  0
  -21.9724   -9.0042   20.4583 C   0  0  0  0  0  0
  -22.6818  -10.2034   20.2962 C   0  0  0  0  0  0
  -21.6923   -6.0673   22.5297 C   0  0  0  0  0  0
  -21.4066   -6.5616   23.8198 C   0  0  0  0  0  0
  -21.3663   -5.6783   24.9157 C   0  0  0  0  0  0
  -21.6043   -4.3035   24.7248 C   0  0  0  0  0  0
  -21.8825   -3.8111   23.4369 C   0  0  0  0  0  0
  -21.9229   -4.6909   22.3424 C   0  0  0  0  0  0
  -22.5664  -13.4868   21.2582 C   0  0  0  0  0  0
  -22.1682   -4.2092   21.1000 F   0  0  0  0  0  0
  -21.5600   -3.4534   25.7755 F   0  0  0  0  0  0
  -30.9566  -13.3702   20.5198 N   0  0  0  0  0  0
  -25.8715  -13.1645   20.1409 N   0  0  0  0  0  0
  -25.7202  -11.8248   20.4029 N   0  0  0  0  0  0
  -21.8967  -12.7609   22.1332 N   0  0  0  0  0  0
  -24.9441  -15.3335   20.4236 N   0  0  0  0  0  0
  -32.2821  -15.1552   20.7487 O   0  0  0  0  0  0
  -21.6755   -6.8772   21.4218 O   0  0  0  0  0  0
  -22.1114  -14.5099   20.7483 O   0  0  0  0  0  0
  -24.6444  -31.8410   23.1888 C   0  0  0  0  0  0
  -25.9210  -32.4682   23.8263 C   0  0  1  0  0  0
  -27.1324  -27.0640   20.1925 C   0  0  0  0  0  0
  -25.5957  -33.8498   24.2167 N   0  0  0  0  0  0
  -23.4449  -30.4635   21.5356 C   0  0  2  0  0  0
  -24.8756  -28.8755   20.1128 C   0  0  0  0  0  0
  -22.7561  -29.4534   22.4865 C   0  0  0  0  0  0
  -18.0302  -28.1398   22.8475 C   0  0  0  0  0  0
  -24.1485  -36.7256   23.2642 C   0  0  0  0  0  0
  -26.0023  -30.6937   21.3911 C   0  0  0  0  0  0
  -26.0558  -29.2976   20.7394 C   0  0  0  0  0  0
  -27.1946  -28.4083   20.7510 C   0  0  0  0  0  0
  -25.9405  -26.7484   19.5232 C   0  0  0  0  0  0
  -24.8366  -27.6210   19.4820 C   0  0  0  0  0  0
  -23.6667  -29.7914   20.1537 C   0  0  0  0  0  0
  -25.4121  -36.3039   24.0313 C   0  0  1  0  0  0
  -20.5913  -28.3723   23.1236 C   0  0  2  0  0  0
  -20.6789  -26.9425   22.5407 C   0  0  0  0  0  0
  -19.5758  -26.6375   21.5219 C   0  0  0  0  0  0
  -18.1941  -26.7939   22.1627 C   0  0  0  0  0  0
  -19.1557  -28.8878   23.2847 C   0  0  0  0  0  0
  -18.9476  -30.1476   23.8866 C   0  0  0  0  0  0
  -17.6472  -30.6597   24.0558 C   0  0  0  0  0  0
  -25.9071  -34.9410   23.5048 C   0  0  0  0  0  0
  -16.5364  -29.9080   23.6346 C   0  0  0  0  0  0
  -16.7285  -28.6503   23.0356 C   0  0  0  0  0  0
  -26.4520  -31.6585   25.0726 C   0  0  0  0  0  0
  -25.3681  -31.3792   26.1404 C   0  0  0  0  0  0
  -27.0397  -30.2981   24.6344 C   0  0  0  0  0  0
  -27.6051  -32.4364   25.7504 C   0  0  0  0  0  0
  -27.5580  -37.1788   24.8461 C   0  0  0  0  0  0
  -21.4256  -29.3042   22.3608 N   0  0  0  0  0  0
  -26.4283  -37.3758   23.9412 N   0  0  0  0  0  0
  -24.7190  -31.0219   22.0933 N   0  0  0  0  0  0
  -23.4204  -28.8070   23.3002 O   0  0  0  0  0  0
  -28.1826  -26.0843   20.1836 O   0  0  0  0  0  0
  -26.5659  -34.8920   22.4631 O   0  0  0  0  0  0
  -23.5563  -32.1303   23.7083 O   0  0  0  0  0  0
  -28.6465  -15.6266   19.4955 C   0  0  0  0  0  0
  -29.1635  -14.1385   19.1245 C   0  0  0  0  0  0
  -27.8537  -15.9694   20.7877 C   0  0  0  0  0  0
  -28.6035  -12.6440   20.5966 C   0  0  0  0  0  0
  -27.4664  -14.8097   21.8278 C   0  0  0  0  0  0
  -26.8170  -20.6289   19.3199 C   0  0  0  0  0  0
  -27.4143  -21.5431   20.2107 C   0  0  0  0  0  0
  -27.6467  -18.8002   20.6144 C   0  0  0  0  0  0
  -28.6750  -11.1246   20.9569 C   0  0  0  0  0  0
  -26.7843  -15.2171   23.1200 C   0  0  0  0  0  0
  -25.7946  -20.9734   18.2723 C   0  0  0  0  0  0
  -26.0033  -23.4582   21.2475 C   0  0  0  0  0  0
  -29.8945  -14.3274   17.7253 C   0  0  0  0  0  0
  -31.4267  -14.1351   17.5748 C   0  0  0  0  0  0
  -28.1952  -24.5212   20.4645 C   0  0  0  0  0  0
  -27.1463  -23.2067   20.2598 C   0  0  1  0  0  0
  -27.7927  -13.2922   21.8024 N   0  0  0  0  0  0
  -27.0352  -19.2033   19.4908 N   0  0  0  0  0  0
  -27.7085  -17.4104   21.1860 N   0  0  0  0  0  0
  -32.2261  -14.2638   18.7981 N   0  0  0  0  0  0
  -28.1383  -20.3972   21.4460 S   0  0  0  0  0  0
  -31.6307  -11.9254   18.8231 H   0  0  0  0  0  0
  -30.9095  -11.1974   19.9908 H   0  0  0  0  0  0
  -29.2106  -10.6990   18.2581 H   0  0  0  0  0  0
  -29.6666  -11.8734   17.2694 H   0  0  0  0  0  0
  -26.9482  -11.5630   18.3688 H   0  0  0  0  0  0
  -27.3821  -12.8280   17.3639 H   0  0  0  0  0  0
  -26.6679  -14.5473   18.8883 H   0  0  0  0  0  0
  -29.8782  -14.0710   22.2941 H   0  0  0  0  0  0
  -30.0901  -15.4160   21.3854 H   0  0  0  0  0  0
  -25.2557   -9.6230   22.4608 H   0  0  0  0  0  0
  -24.0170   -7.4842   22.7419 H   0  0  0  0  0  0
  -21.0659   -8.8392   19.8937 H   0  0  0  0  0  0
  -22.3082  -10.9498   19.6106 H   0  0  0  0  0  0
  -21.2083   -7.6139   23.9670 H   0  0  0  0  0  0
  -21.1453   -6.0528   25.9058 H   0  0  0  0  0  0
  -22.0598   -2.7566   23.2894 H   0  0  0  0  0  0
  -22.3086  -11.9433   22.5556 H   0  0  0  0  0  0
  -20.9579  -13.0269   22.3949 H   0  0  0  0  0  0
  -24.1344  -15.9200   20.5870 H   0  0  0  0  0  0
  -25.7739  -15.8701   20.1848 H   0  0  0  0  0  0
  -26.7257  -32.5260   23.0971 H   0  0  0  0  0  0
  -25.0103  -33.9623   25.0310 H   0  0  0  0  0  0
  -22.7492  -31.2915   21.3820 H   0  0  0  0  0  0
  -23.3768  -35.9566   23.3282 H   0  0  0  0  0  0
  -24.3563  -36.8916   22.2061 H   0  0  0  0  0  0
  -23.7214  -37.6436   23.6690 H   0  0  0  0  0  0
  -26.1632  -31.4402   20.6129 H   0  0  0  0  0  0
  -26.8764  -30.7466   22.0293 H   0  0  0  0  0  0
  -28.1022  -28.7232   21.2481 H   0  0  0  0  0  0
  -25.8482  -25.7836   19.0439 H   0  0  0  0  0  0
  -23.9338  -27.3028   18.9752 H   0  0  0  0  0  0
  -23.8148  -30.5621   19.3976 H   0  0  0  0  0  0
  -22.7778  -29.2396   19.8403 H   0  0  0  0  0  0
  -25.1307  -36.1874   25.0804 H   0  0  0  0  0  0
  -21.0000  -28.3334   24.1356 H   0  0  0  0  0  0
  -20.5701  -26.2335   23.3626 H   0  0  0  0  0  0
  -21.6651  -26.7436   22.1186 H   0  0  0  0  0  0
  -19.6918  -25.6274   21.1269 H   0  0  0  0  0  0
  -19.6707  -27.3172   20.6738 H   0  0  0  0  0  0
  -17.4213  -26.6687   21.4032 H   0  0  0  0  0  0
  -18.0337  -26.0090   22.9028 H   0  0  0  0  0  0
  -19.7948  -30.7304   24.2222 H   0  0  0  0  0  0
  -17.5021  -31.6275   24.5163 H   0  0  0  0  0  0
  -15.5363  -30.2965   23.7688 H   0  0  0  0  0  0
  -15.8689  -28.0811   22.7076 H   0  0  0  0  0  0
  -24.5843  -30.7177   25.7696 H   0  0  0  0  0  0
  -24.8887  -32.2978   26.4797 H   0  0  0  0  0  0
  -25.7926  -30.8959   27.0208 H   0  0  0  0  0  0
  -26.3024  -29.6691   24.1339 H   0  0  0  0  0  0
  -27.3977  -29.7320   25.4955 H   0  0  0  0  0  0
  -27.8951  -30.4230   23.9701 H   0  0  0  0  0  0
  -27.2649  -33.3682   26.2039 H   0  0  0  0  0  0
  -28.3874  -32.6899   25.0335 H   0  0  0  0  0  0
  -28.0701  -31.8516   26.5451 H   0  0  0  0  0  0
  -28.2576  -38.0110   24.7544 H   0  0  0  0  0  0
  -28.1102  -36.2642   24.6241 H   0  0  0  0  0  0
  -27.2305  -37.1382   25.8866 H   0  0  0  0  0  0
  -20.9474  -29.8762   21.6787 H   0  0  0  0  0  0
  -26.0154  -38.2825   24.1427 H   0  0  0  0  0  0
  -28.9036  -16.4711   18.8728 H   0  0  0  0  0  0
  -28.5006  -10.3994   20.1693 H   0  0  0  0  0  0
  -27.8799  -10.9003   21.6699 H   0  0  0  0  0  0
  -29.5757  -10.8862   21.5210 H   0  0  0  0  0  0
  -26.1909  -16.1183   22.9737 H   0  0  0  0  0  0
  -27.5215  -15.4060   23.8995 H   0  0  0  0  0  0
  -26.1115  -14.4311   23.4632 H   0  0  0  0  0  0
  -25.7862  -22.0212   17.9822 H   0  0  0  0  0  0
  -24.7961  -20.7581   18.6557 H   0  0  0  0  0  0
  -25.9181  -20.3890   17.3605 H   0  0  0  0  0  0
  -25.1121  -22.8903   20.9857 H   0  0  0  0  0  0
  -25.7295  -24.5135   21.2745 H   0  0  0  0  0  0
  -26.2996  -23.1765   22.2582 H   0  0  0  0  0  0
  -29.7690  -15.3636   17.4160 H   0  0  0  0  0  0
  -29.3579  -13.8750   16.8957 H   0  0  0  0  0  0
  -31.8081  -14.8566   16.8499 H   0  0  0  0  0  0
  -31.6375  -13.1759   17.1036 H   0  0  0  0  0  0
  -29.0835  -24.2171   19.9087 H   0  0  0  0  0  0
  -28.5189  -24.4567   21.5021 H   0  0  0  0  0  0
  -26.7431  -23.4379   19.2767 H   0  0  0  0  0  0
  -27.7239  -17.4848   22.1976 H   0  0  0  0  0  0
  -33.0511  -14.8313   18.6655 H   0  0  0  0  0  0
  1 25  1  0  0  0
  1 30  2  0  0  0
  1 90  1  0  0  0
  2  3  1  0  0  0
  2 25  1  0  0  0
  2 92  1  0  0  0
  2 93  1  0  0  0
  3  4  1  0  0  0
  3 94  1  0  0  0
  3 95  1  0  0  0
  4  5  1  0  0  0
  4 96  1  0  0  0
  4 97  1  0  0  0
  5  6  1  0  0  0
  5 26  1  0  0  0
  5 98  1  0  0  0
  6 25  1  0  0  0
  6 99  1  0  0  0
  6100  1  0  0  0
  7  8  2  0  0  0
  7 26  1  0  0  0
  7 29  1  0  0  0
  8  9  1  0  0  0
  8 22  1  0  0  0
  9 10  1  0  0  0
  9 27  2  0  0  0
 10 11  2  0  0  0
 10 15  1  0  0  0
 11 12  1  0  0  0
 11101  1  0  0  0
 12 13  2  0  0  0
 12102  1  0  0  0
 13 14  1  0  0  0
 13 31  1  0  0  0
 14 15  2  0  0  0
 14103  1  0  0  0
 15104  1  0  0  0
 16 17  2  0  0  0
 16 21  1  0  0  0
 16 31  1  0  0  0
 17 18  1  0  0  0
 17105  1  0  0  0
 18 19  2  0  0  0
 18106  1  0  0  0
 19 20  1  0  0  0
 19 24  1  0  0  0
 20 21  2  0  0  0
 20107  1  0  0  0
 21 23  1  0  0  0
 22 28  1  0  0  0
 22 32  2  0  0  0
 26 27  1  0  0  0
 28108  1  0  0  0
 28109  1  0  0  0
 29110  1  0  0  0
 29111  1  0  0  0
 33 34  1  0  0  0
 33 66  1  0  0  0
 33 70  2  0  0  0
 34 36  1  0  0  0
 34 59  1  0  0  0
 34112  1  0  0  0
 35 44  2  0  0  0
 35 45  1  0  0  0
 35 68  1  0  0  0
 36 56  1  0  0  0
 36113  1  0  0  0
 37 39  1  0  0  0
 37 47  1  0  0  0
 37 66  1  0  0  0
 37114  1  0  0  0
 38 43  2  0  0  0
 38 46  1  0  0  0
 38 47  1  0  0  0
 39 64  1  0  0  0
 39 67  2  0  0  0
 40 52  1  0  0  0
 40 53  2  0  0  0
 40 58  1  0  0  0
 41115  1  0  0  0
 41116  1  0  0  0
 41117  1  0  0  0
 41 48  1  0  0  0
 42 43  1  0  0  0
 42 66  1  0  0  0
 42118  1  0  0  0
 42119  1  0  0  0
 43 44  1  0  0  0
 44120  1  0  0  0
 45 46  2  0  0  0
 45121  1  0  0  0
 46122  1  0  0  0
 47123  1  0  0  0
 47124  1  0  0  0
 48 56  1  0  0  0
 48 65  1  0  0  0
 48125  1  0  0  0
 49 50  1  0  0  0
 49 53  1  0  0  0
 49 64  1  0  0  0
 49126  1  0  0  0
 50 51  1  0  0  0
 50127  1  0  0  0
 50128  1  0  0  0
 51 52  1  0  0  0
 51129  1  0  0  0
 51130  1  0  0  0
 52131  1  0  0  0
 52132  1  0  0  0
 53 54  1  0  0  0
 54 55  2  0  0  0
 54133  1  0  0  0
 55 57  1  0  0  0
 55134  1  0  0  0
 56 69  2  0  0  0
 57 58  2  0  0  0
 57135  1  0  0  0
 58136  1  0  0  0
 59 60  1  0  0  0
 59 61  1  0  0  0
 59 62  1  0  0  0
 60137  1  0  0  0
 60138  1  0  0  0
 60139  1  0  0  0
 61140  1  0  0  0
 61141  1  0  0  0
 61142  1  0  0  0
 62143  1  0  0  0
 62144  1  0  0  0
 62145  1  0  0  0
 63 65  1  0  0  0
 63146  1  0  0  0
 63147  1  0  0  0
 63148  1  0  0  0
 64149  1  0  0  0
 65150  1  0  0  0
 68 85  1  0  0  0
 71 72  2  0  0  0
 71 73  1  0  0  0
 71151  1  0  0  0
 72 74  1  0  0  0
 72 83  1  0  0  0
 73 75  2  0  0  0
 73 89  1  0  0  0
 74 79  1  0  0  0
 74 87  2  0  0  0
 75 80  1  0  0  0
 75 87  1  0  0  0
 76 77  2  0  0  0
 76 81  1  0  0  0
 76 88  1  0  0  0
 77 86  1  0  0  0
 77 91  1  0  0  0
 78 88  2  0  0  0
 78 89  1  0  0  0
 78 91  1  0  0  0
 79152  1  0  0  0
 79153  1  0  0  0
 79154  1  0  0  0
 80155  1  0  0  0
 80156  1  0  0  0
 80157  1  0  0  0
 81158  1  0  0  0
 81159  1  0  0  0
 81160  1  0  0  0
 82161  1  0  0  0
 82162  1  0  0  0
 82163  1  0  0  0
 82 86  1  0  0  0
 83 84  1  0  0  0
 83164  1  0  0  0
 83165  1  0  0  0
 84 90  1  0  0  0
 84166  1  0  0  0
 84167  1  0  0  0
 85 86  1  0  0  0
 85168  1  0  0  0
 85169  1  0  0  0
 86170  1  0  0  0
 89171  1  0  0  0
 90172  1  0  0  0
M  ISO  4   1 100  68 101  85 101  90 100
M  END
> <chiral flag>
0

> <version>
0

> <s_m_source_file>
/data/baiqing/PycharmProjects/Reinvent-master-3.2/result/LINK_invent/BTK/process_docking_weight1_custom_sum_contain_oxygen_bond_distance_aromatic_linkinvent_7_9_3/rearranged_h_0021.sdf

> <i_m_source_file_index>
83

> <r_mmod_Potential_Energy-OPLS-2005>
9890.7373046875

> <r_mmod_Stretch_Energy-OPLS-2005>
5756.96728515625

> <r_mmod_Bend_Energy-OPLS-2005>
758.505126953125

> <r_mmod_Torsional_Energy-OPLS-2005>
350.049926757812

> <r_mmod_Improper_Torsional_Energy-OPLS-2005>
14.5250549316406

> <r_mmod_Van_der_Waal_Energy-OPLS-2005>
2833.44409179688

> <r_mmod_Electrostatic_Energy-OPLS-2005>
-644.315795898438

> <r_mmod_Solvation_Energy-OPLS-2005>
-224.015197753906

> <b_mmod_Minimization_Converged-OPLS-2005>
0

> <r_mmod_RMS_Derivative-OPLS-2005>
9.8825044631958

$$$$
84
                    3D
 Structure written by MMmdl.
150158  0  0  1  0            999 V2000
  -30.2551  -15.7668   20.3216 C   0  0  0  0  0  0
  -30.4114  -13.1832   19.5291 C   0  0  0  0  0  0
  -29.5477  -12.6868   18.3308 C   0  0  0  0  0  0
  -28.1361  -12.2978   18.7884 C   0  0  0  0  0  0
  -27.5881  -13.3202   19.8063 C   0  0  2  0  0  0
  -28.5981  -13.7134   20.9136 C   0  0  0  0  0  0
  -25.2302  -13.8309   20.5820 C   0  0  0  0  0  0
  -24.1706  -13.0438   20.9307 C   0  0  0  0  0  0
  -24.6433  -11.6952   20.8776 C   0  0  0  0  0  0
  -23.9145  -10.4297   21.0404 C   0  0  0  0  0  0
  -24.3680   -9.4201   21.9181 C   0  0  0  0  0  0
  -23.6325   -8.2246   22.0751 C   0  0  0  0  0  0
  -22.4297   -8.0306   21.3551 C   0  0  0  0  0  0
  -21.9966   -9.0282   20.4646 C   0  0  0  0  0  0
  -22.7317  -10.2143   20.3048 C   0  0  0  0  0  0
  -21.6863   -6.0757   22.5283 C   0  0  0  0  0  0
  -21.4022   -6.5660   23.8219 C   0  0  0  0  0  0
  -21.3650   -5.6804   24.9181 C   0  0  0  0  0  0
  -21.6039   -4.3064   24.7222 C   0  0  0  0  0  0
  -21.8817   -3.8163   23.4339 C   0  0  0  0  0  0
  -21.9195   -4.6986   22.3403 C   0  0  0  0  0  0
  -22.7711  -13.5151   21.1923 C   0  0  0  0  0  0
  -22.1661   -4.2181   21.0971 F   0  0  0  0  0  0
  -21.5613   -3.4538   25.7724 F   0  0  0  0  0  0
  -29.7450  -14.3791   20.2415 N   0  0  0  0  0  0
  -26.2755  -12.9663   20.3247 N   0  0  0  0  0  0
  -25.9380  -11.6726   20.5702 N   0  0  0  0  0  0
  -22.0386  -12.8122   22.0476 N   0  0  0  0  0  0
  -25.3864  -15.2052   20.4266 N   0  0  0  0  0  0
  -31.4926  -15.6628   20.1973 O   0  0  0  0  0  0
  -21.6645   -6.8909   21.4249 O   0  0  0  0  0  0
  -22.3383  -14.5450   20.6761 O   0  0  0  0  0  0
  -24.6935  -31.7869   23.1412 C   0  0  0  0  0  0
  -25.9458  -32.4406   23.8009 C   0  0  1  0  0  0
  -27.2325  -26.6017   20.2236 C   0  0  0  0  0  0
  -25.5999  -33.8239   24.1886 N   0  0  0  0  0  0
  -23.5256  -30.3854   21.4954 C   0  0  2  0  0  0
  -24.9851  -28.7058   20.1167 C   0  0  0  0  0  0
  -22.7828  -29.4252   22.4648 C   0  0  0  0  0  0
  -18.0357  -28.1436   22.8447 C   0  0  0  0  0  0
  -24.1491  -36.7137   23.2665 C   0  0  0  0  0  0
  -26.1104  -30.4880   21.4195 C   0  0  0  0  0  0
  -26.1758  -29.0414   20.7715 C   0  0  0  0  0  0
  -27.2783  -28.0207   20.7887 C   0  0  0  0  0  0
  -26.0095  -26.5011   19.5064 C   0  0  0  0  0  0
  -24.9476  -27.4630   19.4594 C   0  0  0  0  0  0
  -23.7873  -29.6745   20.1341 C   0  0  0  0  0  0
  -25.4141  -36.2860   24.0287 C   0  0  1  0  0  0
  -20.6002  -28.3794   23.1109 C   0  0  2  0  0  0
  -20.6821  -26.9441   22.5399 C   0  0  0  0  0  0
  -19.5793  -26.6365   21.5220 C   0  0  0  0  0  0
  -18.1971  -26.7965   22.1609 C   0  0  0  0  0  0
  -19.1628  -28.8938   23.2761 C   0  0  0  0  0  0
  -18.9533  -30.1512   23.8815 C   0  0  0  0  0  0
  -17.6525  -30.6607   24.0551 C   0  0  0  0  0  0
  -25.9124  -34.9256   23.4927 C   0  0  0  0  0  0
  -16.5408  -29.9094   23.6345 C   0  0  0  0  0  0
  -16.7340  -28.6517   23.0359 C   0  0  0  0  0  0
  -26.4604  -31.6477   25.0660 C   0  0  0  0  0  0
  -25.3634  -31.3839   26.1245 C   0  0  0  0  0  0
  -27.0550  -30.2806   24.6627 C   0  0  0  0  0  0
  -27.6038  -32.4356   25.7481 C   0  0  0  0  0  0
  -27.5552  -37.1728   24.8470 C   0  0  0  0  0  0
  -21.4463  -29.3036   22.3434 N   0  0  0  0  0  0
  -26.4257  -37.3634   23.9416 N   0  0  0  0  0  0
  -24.8014  -30.9220   22.0715 N   0  0  0  0  0  0
  -23.4234  -28.7853   23.3022 O   0  0  0  0  0  0
  -28.1797  -25.3349   20.3122 O   0  0  0  0  0  0
  -26.5778  -34.8863   22.4556 O   0  0  0  0  0  0
  -23.5925  -32.0999   23.6282 O   0  0  0  0  0  0
  -31.0792  -20.8455   21.1762 C   0  0  0  0  0  0
  -30.2359  -21.9905   20.9491 C   0  0  0  0  0  0
  -28.9320  -21.8913   20.3853 C   0  0  0  0  0  0
  -29.6057  -18.9281   20.4269 C   0  0  0  0  0  0
  -30.8177  -19.4539   20.9555 C   0  0  0  0  0  0
  -28.7023  -20.2752   20.1693 C   0  0  0  0  0  0
  -31.8882  -23.4175   22.3733 C   0  0  0  0  0  0
  -30.7500  -23.3813   21.3380 C   0  0  0  0  0  0
  -27.9859  -23.5423   20.1288 C   0  0  0  0  0  0
  -29.4872  -17.1648   20.3066 N   0  0  0  0  0  0
  -32.0911  -18.3905   21.4336 Cl  0  0  0  0  0  0
  -27.1446  -19.9062   19.5256 Cl  0  0  0  0  0  0
  -31.3919  -13.4665   19.1434 H   0  0  0  0  0  0
  -30.6104  -12.3675   20.2261 H   0  0  0  0  0  0
  -30.0288  -11.8447   17.8323 H   0  0  0  0  0  0
  -29.4782  -13.4825   17.5881 H   0  0  0  0  0  0
  -28.1948  -11.3144   19.2573 H   0  0  0  0  0  0
  -27.4652  -12.1926   17.9349 H   0  0  0  0  0  0
  -27.4280  -14.2181   19.2076 H   0  0  0  0  0  0
  -28.8939  -12.8561   21.5202 H   0  0  0  0  0  0
  -28.1378  -14.4262   21.5995 H   0  0  0  0  0  0
  -25.2821   -9.5662   22.4765 H   0  0  0  0  0  0
  -24.0019   -7.4645   22.7480 H   0  0  0  0  0  0
  -21.0889   -8.8832   19.8959 H   0  0  0  0  0  0
  -22.3795  -10.9696   19.6158 H   0  0  0  0  0  0
  -21.2029   -7.6172   23.9741 H   0  0  0  0  0  0
  -21.1459   -6.0524   25.9084 H   0  0  0  0  0  0
  -22.0601   -2.7627   23.2825 H   0  0  0  0  0  0
  -22.4031  -11.9795   22.4867 H   0  0  0  0  0  0
  -21.0995  -13.1126   22.2684 H   0  0  0  0  0  0
  -24.6125  -15.8498   20.5448 H   0  0  0  0  0  0
  -26.2245  -15.6536   20.0828 H   0  0  0  0  0  0
  -26.7541  -32.4854   23.0719 H   0  0  0  0  0  0
  -25.0061  -33.9263   24.9984 H   0  0  0  0  0  0
  -22.8564  -31.2243   21.2942 H   0  0  0  0  0  0
  -23.3762  -35.9452   23.3256 H   0  0  0  0  0  0
  -24.3562  -36.8866   22.2093 H   0  0  0  0  0  0
  -23.7229  -37.6294   23.6780 H   0  0  0  0  0  0
  -26.3209  -31.2046   20.6243 H   0  0  0  0  0  0
  -26.9605  -30.5646   22.0846 H   0  0  0  0  0  0
  -28.1713  -28.2868   21.3362 H   0  0  0  0  0  0
  -25.8281  -25.5666   18.9953 H   0  0  0  0  0  0
  -24.0517  -27.1959   18.9155 H   0  0  0  0  0  0
  -23.9754  -30.4311   19.3716 H   0  0  0  0  0  0
  -22.8907  -29.1496   19.8020 H   0  0  0  0  0  0
  -25.1349  -36.1616   25.0772 H   0  0  0  0  0  0
  -21.0081  -28.3410   24.1233 H   0  0  0  0  0  0
  -20.5668  -26.2416   23.3669 H   0  0  0  0  0  0
  -21.6681  -26.7363   22.1215 H   0  0  0  0  0  0
  -19.6951  -25.6250   21.1294 H   0  0  0  0  0  0
  -19.6745  -27.3133   20.6717 H   0  0  0  0  0  0
  -17.4247  -26.6704   21.4009 H   0  0  0  0  0  0
  -18.0345  -26.0140   22.9030 H   0  0  0  0  0  0
  -19.8009  -30.7349   24.2146 H   0  0  0  0  0  0
  -17.5077  -31.6276   24.5175 H   0  0  0  0  0  0
  -15.5405  -30.2976   23.7722 H   0  0  0  0  0  0
  -15.8735  -28.0815   22.7118 H   0  0  0  0  0  0
  -24.5862  -30.7145   25.7535 H   0  0  0  0  0  0
  -24.8784  -32.3077   26.4410 H   0  0  0  0  0  0
  -25.7776  -30.9171   27.0185 H   0  0  0  0  0  0
  -26.3288  -29.6379   24.1640 H   0  0  0  0  0  0
  -27.3980  -29.7307   25.5398 H   0  0  0  0  0  0
  -27.9254  -30.3914   24.0163 H   0  0  0  0  0  0
  -27.2584  -33.3761   26.1786 H   0  0  0  0  0  0
  -28.3988  -32.6748   25.0402 H   0  0  0  0  0  0
  -28.0541  -31.8662   26.5623 H   0  0  0  0  0  0
  -28.2528  -38.0060   24.7506 H   0  0  0  0  0  0
  -28.1085  -36.2583   24.6291 H   0  0  0  0  0  0
  -27.2276  -37.1350   25.8875 H   0  0  0  0  0  0
  -20.9781  -29.8716   21.6513 H   0  0  0  0  0  0
  -26.0071  -38.2672   24.1435 H   0  0  0  0  0  0
  -32.0592  -21.0267   21.5875 H   0  0  0  0  0  0
  -32.0970  -24.4429   22.6789 H   0  0  0  0  0  0
  -32.8212  -23.0167   21.9772 H   0  0  0  0  0  0
  -31.6223  -22.8594   23.2726 H   0  0  0  0  0  0
  -29.9288  -23.9531   21.7692 H   0  0  0  0  0  0
  -31.0554  -23.9069   20.4318 H   0  0  0  0  0  0
  -27.0622  -23.3562   20.6771 H   0  0  0  0  0  0
  -27.6809  -23.4623   19.0862 H   0  0  0  0  0  0
  -28.5125  -16.9260   20.2042 H   0  0  0  0  0  0
  1 25  1  0  0  0
  1 30  2  0  0  0
  1 80  1  0  0  0
  2  3  1  0  0  0
  2 25  1  0  0  0
  2 83  1  0  0  0
  2 84  1  0  0  0
  3  4  1  0  0  0
  3 85  1  0  0  0
  3 86  1  0  0  0
  4  5  1  0  0  0
  4 87  1  0  0  0
  4 88  1  0  0  0
  5  6  1  0  0  0
  5 26  1  0  0  0
  5 89  1  0  0  0
  6 25  1  0  0  0
  6 90  1  0  0  0
  6 91  1  0  0  0
  7  8  2  0  0  0
  7 26  1  0  0  0
  7 29  1  0  0  0
  8  9  1  0  0  0
  8 22  1  0  0  0
  9 10  1  0  0  0
  9 27  2  0  0  0
 10 11  2  0  0  0
 10 15  1  0  0  0
 11 12  1  0  0  0
 11 92  1  0  0  0
 12 13  2  0  0  0
 12 93  1  0  0  0
 13 14  1  0  0  0
 13 31  1  0  0  0
 14 15  2  0  0  0
 14 94  1  0  0  0
 15 95  1  0  0  0
 16 17  2  0  0  0
 16 21  1  0  0  0
 16 31  1  0  0  0
 17 18  1  0  0  0
 17 96  1  0  0  0
 18 19  2  0  0  0
 18 97  1  0  0  0
 19 20  1  0  0  0
 19 24  1  0  0  0
 20 21  2  0  0  0
 20 98  1  0  0  0
 21 23  1  0  0  0
 22 28  1  0  0  0
 22 32  2  0  0  0
 26 27  1  0  0  0
 28 99  1  0  0  0
 28100  1  0  0  0
 29101  1  0  0  0
 29102  1  0  0  0
 33 34  1  0  0  0
 33 66  1  0  0  0
 33 70  2  0  0  0
 34 36  1  0  0  0
 34 59  1  0  0  0
 34103  1  0  0  0
 35 44  2  0  0  0
 35 45  1  0  0  0
 35 68  1  0  0  0
 36 56  1  0  0  0
 36104  1  0  0  0
 37 39  1  0  0  0
 37 47  1  0  0  0
 37 66  1  0  0  0
 37105  1  0  0  0
 38 43  2  0  0  0
 38 46  1  0  0  0
 38 47  1  0  0  0
 39 64  1  0  0  0
 39 67  2  0  0  0
 40 52  1  0  0  0
 40 53  2  0  0  0
 40 58  1  0  0  0
 41106  1  0  0  0
 41107  1  0  0  0
 41108  1  0  0  0
 41 48  1  0  0  0
 42 43  1  0  0  0
 42 66  1  0  0  0
 42109  1  0  0  0
 42110  1  0  0  0
 43 44  1  0  0  0
 44111  1  0  0  0
 45 46  2  0  0  0
 45112  1  0  0  0
 46113  1  0  0  0
 47114  1  0  0  0
 47115  1  0  0  0
 48 56  1  0  0  0
 48 65  1  0  0  0
 48116  1  0  0  0
 49 50  1  0  0  0
 49 53  1  0  0  0
 49 64  1  0  0  0
 49117  1  0  0  0
 50 51  1  0  0  0
 50118  1  0  0  0
 50119  1  0  0  0
 51 52  1  0  0  0
 51120  1  0  0  0
 51121  1  0  0  0
 52122  1  0  0  0
 52123  1  0  0  0
 53 54  1  0  0  0
 54 55  2  0  0  0
 54124  1  0  0  0
 55 57  1  0  0  0
 55125  1  0  0  0
 56 69  2  0  0  0
 57 58  2  0  0  0
 57126  1  0  0  0
 58127  1  0  0  0
 59 60  1  0  0  0
 59 61  1  0  0  0
 59 62  1  0  0  0
 60128  1  0  0  0
 60129  1  0  0  0
 60130  1  0  0  0
 61131  1  0  0  0
 61132  1  0  0  0
 61133  1  0  0  0
 62134  1  0  0  0
 62135  1  0  0  0
 62136  1  0  0  0
 63 65  1  0  0  0
 63137  1  0  0  0
 63138  1  0  0  0
 63139  1  0  0  0
 64140  1  0  0  0
 65141  1  0  0  0
 68 79  1  0  0  0
 71 72  2  0  0  0
 71 75  1  0  0  0
 71142  1  0  0  0
 72 73  1  0  0  0
 72 78  1  0  0  0
 73 76  2  0  0  0
 73 79  1  0  0  0
 74 75  2  0  0  0
 74 76  1  0  0  0
 74 80  1  0  0  0
 75 81  1  0  0  0
 76 82  1  0  0  0
 77 78  1  0  0  0
 77143  1  0  0  0
 77144  1  0  0  0
 77145  1  0  0  0
 78146  1  0  0  0
 78147  1  0  0  0
 79148  1  0  0  0
 79149  1  0  0  0
 80150  1  0  0  0
M  ISO  4   1 100  68 101  79 101  80 100
M  END
> <chiral flag>
0

> <version>
0

> <s_m_source_file>
/data/baiqing/PycharmProjects/Reinvent-master-3.2/result/LINK_invent/BTK/process_docking_weight1_custom_sum_contain_oxygen_bond_distance_aromatic_linkinvent_7_9_3/rearranged_h_0021.sdf

> <i_m_source_file_index>
84

> <r_mmod_Potential_Energy-OPLS-2005>
2801.27026367188

> <r_mmod_Stretch_Energy-OPLS-2005>
1277.00939941406

> <r_mmod_Bend_Energy-OPLS-2005>
642.252319335938

> <r_mmod_Torsional_Energy-OPLS-2005>
225.732192993164

> <r_mmod_Improper_Torsional_Energy-OPLS-2005>
5.53260469436646

> <r_mmod_Van_der_Waal_Energy-OPLS-2005>
134.606567382812

> <r_mmod_Electrostatic_Energy-OPLS-2005>
-388.750854492188

> <r_mmod_Solvation_Energy-OPLS-2005>
-211.947372436523

> <b_mmod_Minimization_Converged-OPLS-2005>
0

> <r_mmod_RMS_Derivative-OPLS-2005>
1.88788115978241

$$$$
85
                    3D
 Structure written by MMmdl.
185193  0  0  1  0            999 V2000
  -30.3449  -14.7194   20.6643 C   0  0  0  0  0  0
  -30.4501  -12.4883   19.4933 C   0  0  0  0  0  0
  -29.5135  -12.5444   18.2595 C   0  0  0  0  0  0
  -28.0284  -12.3508   18.6368 C   0  0  0  0  0  0
  -27.6231  -13.1902   19.8743 C   0  0  2  0  0  0
  -28.6296  -12.9516   21.0139 C   0  0  0  0  0  0
  -25.2445  -13.8079   20.5796 C   0  0  0  0  0  0
  -24.1711  -13.0378   20.9274 C   0  0  0  0  0  0
  -24.6218  -11.6844   20.8746 C   0  0  0  0  0  0
  -23.8920  -10.4258   21.0441 C   0  0  0  0  0  0
  -24.3538   -9.4183   21.9180 C   0  0  0  0  0  0
  -23.6258   -8.2193   22.0723 C   0  0  0  0  0  0
  -22.4230   -8.0236   21.3529 C   0  0  0  0  0  0
  -21.9850   -9.0186   20.4622 C   0  0  0  0  0  0
  -22.7129  -10.2088   20.3063 C   0  0  0  0  0  0
  -21.6845   -6.0710   22.5281 C   0  0  0  0  0  0
  -21.4001   -6.5622   23.8210 C   0  0  0  0  0  0
  -21.3667   -5.6778   24.9174 C   0  0  0  0  0  0
  -21.6050   -4.3040   24.7228 C   0  0  0  0  0  0
  -21.8829   -3.8129   23.4353 C   0  0  0  0  0  0
  -21.9185   -4.6941   22.3407 C   0  0  0  0  0  0
  -22.7750  -13.5209   21.1914 C   0  0  0  0  0  0
  -22.1663   -4.2142   21.0982 F   0  0  0  0  0  0
  -21.5635   -3.4521   25.7737 F   0  0  0  0  0  0
  -29.9136  -13.4284   20.5046 N   0  0  0  0  0  0
  -26.2727  -12.9180   20.3211 N   0  0  0  0  0  0
  -25.9084  -11.6350   20.5610 N   0  0  0  0  0  0
  -22.0407  -12.8215   22.0487 N   0  0  0  0  0  0
  -25.4152  -15.1829   20.4466 N   0  0  0  0  0  0
  -31.4930  -15.0278   20.3152 O   0  0  0  0  0  0
  -21.6618   -6.8834   21.4229 O   0  0  0  0  0  0
  -22.3475  -14.5523   20.6756 O   0  0  0  0  0  0
  -24.6667  -31.9317   23.1867 C   0  0  0  0  0  0
  -25.9465  -32.5030   23.8509 C   0  0  1  0  0  0
  -26.6902  -27.2631   20.7030 C   0  0  0  0  0  0
  -25.6260  -33.8778   24.2545 N   0  0  0  0  0  0
  -23.5128  -30.7311   21.3681 C   0  0  2  0  0  0
  -24.8896  -29.1201   19.9614 C   0  0  0  0  0  0
  -22.7790  -29.7563   22.2333 C   0  0  0  0  0  0
  -18.1978  -27.7815   22.5344 C   0  0  0  0  0  0
  -24.1490  -36.7337   23.2613 C   0  0  0  0  0  0
  -26.0092  -30.9010   21.3439 C   0  0  0  0  0  0
  -26.0176  -29.5343   20.6836 C   0  0  0  0  0  0
  -27.0405  -28.6083   20.9389 C   0  0  0  0  0  0
  -25.8861  -26.9438   19.6065 C   0  0  0  0  0  0
  -24.8497  -27.8540   19.3467 C   0  0  0  0  0  0
  -23.7434  -30.0773   19.9673 C   0  0  0  0  0  0
  -25.4110  -36.3193   24.0340 C   0  0  1  0  0  0
  -20.7291  -28.4551   22.0664 C   0  0  2  0  0  0
  -20.8254  -27.0350   21.5112 C   0  0  0  0  0  0
  -19.5231  -26.4564   20.9533 C   0  0  0  0  0  0
  -18.2192  -26.5698   21.7171 C   0  0  0  0  0  0
  -19.4910  -28.9332   22.5256 C   0  0  0  0  0  0
  -19.5814  -30.1497   23.7738 C   0  0  0  0  0  0
  -18.3980  -30.1488   25.0002 C   0  0  0  0  0  0
  -25.9114  -34.9584   23.5173 C   0  0  0  0  0  0
  -17.1622  -29.0040   24.9829 C   0  0  0  0  0  0
  -17.0482  -27.8286   23.7780 C   0  0  0  0  0  0
  -26.4646  -31.6608   25.0758 C   0  0  0  0  0  0
  -25.3783  -31.3687   26.1313 C   0  0  0  0  0  0
  -27.0333  -30.3007   24.6041 C   0  0  0  0  0  0
  -27.6198  -32.4227   25.7619 C   0  0  0  0  0  0
  -27.5598  -37.1843   24.8453 C   0  0  0  0  0  0
  -21.6130  -29.4467   21.6836 N   0  0  0  0  0  0
  -26.4294  -37.3867   23.9429 N   0  0  0  0  0  0
  -24.7527  -31.1986   22.0391 N   0  0  0  0  0  0
  -23.2529  -29.3092   23.2782 O   0  0  0  0  0  0
  -26.2244  -26.6355   21.8669 O   0  0  0  0  0  0
  -26.5538  -34.8953   22.4656 O   0  0  0  0  0  0
  -23.5821  -32.2168   23.7143 O   0  0  0  0  0  0
  -21.8325  -27.0168   24.4211 C   0  0  0  0  0  0
  -20.8153  -27.9417   25.0428 C   0  0  0  0  0  0
  -20.8378  -25.9954   24.3697 C   0  0  0  0  0  0
  -22.4069  -30.5529   27.5210 C   0  0  0  0  0  0
  -20.5009  -23.1548   22.6384 C   0  0  0  0  0  0
  -17.4811  -29.9182   22.9103 C   0  0  0  0  0  0
  -23.6046  -26.7721   23.9867 C   0  0  0  0  0  0
  -21.1462  -28.6861   26.3129 C   0  0  0  0  0  0
  -21.6953  -30.1196   26.2293 C   0  0  0  0  0  0
  -26.0934  -20.0203   21.9947 C   0  0  0  0  0  0
  -24.8195  -20.5410   22.8900 C   0  0  0  0  0  0
  -26.9001  -18.6211   22.3066 C   0  0  0  0  0  0
  -24.0500  -21.9744   22.6413 C   0  0  0  0  0  0
  -27.9525  -18.0039   21.2285 C   0  0  0  0  0  0
  -22.8294  -22.4903   23.6140 C   0  0  0  0  0  0
  -29.2335  -17.0427   21.5850 C   0  0  0  0  0  0
  -24.6431  -26.8612   22.4379 C   0  0  0  0  0  0
  -21.8048  -23.7302   23.2419 C   0  0  2  0  0  0
  -19.5154  -26.5152   24.4588 N   0  0  0  0  0  0
  -19.2938  -27.9921   24.5735 N   0  0  0  0  0  0
  -21.3499  -24.6201   24.3931 N   0  0  0  0  0  0
  -29.3379  -15.5914   21.1121 N   0  0  0  0  0  0
  -31.4693  -12.7549   19.2079 H   0  0  0  0  0  0
  -30.4988  -11.4840   19.9146 H   0  0  0  0  0  0
  -29.8176  -11.7982   17.5226 H   0  0  0  0  0  0
  -29.6302  -13.5172   17.7794 H   0  0  0  0  0  0
  -27.8654  -11.2919   18.8381 H   0  0  0  0  0  0
  -27.3842  -12.6003   17.7927 H   0  0  0  0  0  0
  -27.6493  -14.2365   19.5718 H   0  0  0  0  0  0
  -28.6843  -11.8898   21.2589 H   0  0  0  0  0  0
  -28.3201  -13.4491   21.9370 H   0  0  0  0  0  0
  -25.2680   -9.5695   22.4756 H   0  0  0  0  0  0
  -24.0002   -7.4584   22.7437 H   0  0  0  0  0  0
  -21.0787   -8.8672   19.8920 H   0  0  0  0  0  0
  -22.3562  -10.9628   19.6197 H   0  0  0  0  0  0
  -21.1992   -7.6131   23.9719 H   0  0  0  0  0  0
  -21.1491   -6.0501   25.9082 H   0  0  0  0  0  0
  -22.0607   -2.7591   23.2838 H   0  0  0  0  0  0
  -22.4007  -11.9859   22.4864 H   0  0  0  0  0  0
  -21.1051  -13.1263   22.2737 H   0  0  0  0  0  0
  -24.6696  -15.8266   20.6963 H   0  0  0  0  0  0
  -26.2269  -15.6458   20.0575 H   0  0  0  0  0  0
  -26.7612  -32.5781   23.1380 H   0  0  0  0  0  0
  -25.0439  -33.9958   25.0725 H   0  0  0  0  0  0
  -22.8741  -31.6059   21.2243 H   0  0  0  0  0  0
  -23.3804  -35.9625   23.3298 H   0  0  0  0  0  0
  -24.3573  -36.8948   22.2021 H   0  0  0  0  0  0
  -23.7209  -37.6504   23.6652 H   0  0  0  0  0  0
  -26.1794  -31.6619   20.5817 H   0  0  0  0  0  0
  -26.8891  -30.9263   21.9776 H   0  0  0  0  0  0
  -27.7395  -28.8376   21.7301 H   0  0  0  0  0  0
  -25.6980  -25.9147   19.3400 H   0  0  0  0  0  0
  -23.9971  -27.5543   18.7587 H   0  0  0  0  0  0
  -23.9866  -30.8639   19.2501 H   0  0  0  0  0  0
  -22.8566  -29.5950   19.5464 H   0  0  0  0  0  0
  -25.1294  -36.2050   25.0831 H   0  0  0  0  0  0
  -21.1490  -28.4132   22.9461 H   0  0  0  0  0  0
  -21.4001  -26.3262   22.0638 H   0  0  0  0  0  0
  -21.4693  -27.1283   20.6389 H   0  0  0  0  0  0
  -19.6704  -25.4310   20.6057 H   0  0  0  0  0  0
  -19.3602  -27.0056   20.0278 H   0  0  0  0  0  0
  -17.3932  -26.6035   21.0007 H   0  0  0  0  0  0
  -18.0525  -25.7079   22.3602 H   0  0  0  0  0  0
  -20.4383  -30.8075   23.8376 H   0  0  0  0  0  0
  -18.4441  -30.8666   25.8123 H   0  0  0  0  0  0
  -16.4244  -29.0042   25.7814 H   0  0  0  0  0  0
  -16.2788  -27.0855   23.8345 H   0  0  0  0  0  0
  -24.6179  -30.6968   25.7374 H   0  0  0  0  0  0
  -24.8793  -32.2788   26.4594 H   0  0  0  0  0  0
  -25.7927  -30.8859   27.0180 H   0  0  0  0  0  0
  -26.2869  -29.6943   24.0859 H   0  0  0  0  0  0
  -27.3860  -29.7034   25.4478 H   0  0  0  0  0  0
  -27.8874  -30.4277   23.9382 H   0  0  0  0  0  0
  -27.2828  -33.3513   26.2227 H   0  0  0  0  0  0
  -28.3993  -32.6802   25.0447 H   0  0  0  0  0  0
  -28.0857  -31.8286   26.5477 H   0  0  0  0  0  0
  -28.2588  -38.0162   24.7591 H   0  0  0  0  0  0
  -28.1139  -36.2724   24.6221 H   0  0  0  0  0  0
  -27.2333  -37.1397   25.8844 H   0  0  0  0  0  0
  -21.4099  -29.8776   20.7966 H   0  0  0  0  0  0
  -26.0196  -38.2936   24.1475 H   0  0  0  0  0  0
  -22.7252  -31.5970   27.4473 H   0  0  0  0  0  0
  -23.2952  -29.9502   27.7206 H   0  0  0  0  0  0
  -21.7567  -30.4787   28.3910 H   0  0  0  0  0  0
  -20.6622  -22.4496   21.8173 H   0  0  0  0  0  0
  -19.8477  -23.9434   22.2750 H   0  0  0  0  0  0
  -19.9366  -22.6354   23.4165 H   0  0  0  0  0  0
  -17.5959  -31.0132   23.0106 H   0  0  0  0  0  0
  -16.3835  -29.8923   23.0128 H   0  0  0  0  0  0
  -17.5344  -29.8903   21.8029 H   0  0  0  0  0  0
  -23.8453  -25.7700   24.3305 H   0  0  0  0  0  0
  -24.1583  -27.3777   24.7050 H   0  0  0  0  0  0
  -21.8521  -28.0661   26.8604 H   0  0  0  0  0  0
  -20.2558  -28.7141   26.9348 H   0  0  0  0  0  0
  -22.3835  -30.2240   25.3990 H   0  0  0  0  0  0
  -20.8888  -30.8157   26.0366 H   0  0  0  0  0  0
  -26.8504  -20.8088   22.0184 H   0  0  0  0  0  0
  -25.7796  -19.9707   20.9495 H   0  0  0  0  0  0
  -25.1303  -20.5151   23.9370 H   0  0  0  0  0  0
  -24.0568  -19.7651   22.7977 H   0  0  0  0  0  0
  -26.1702  -17.8390   22.5390 H   0  0  0  0  0  0
  -27.4348  -18.7796   23.2492 H   0  0  0  0  0  0
  -23.6961  -21.9965   21.6110 H   0  0  0  0  0  0
  -24.7944  -22.7699   22.6920 H   0  0  0  0  0  0
  -28.4195  -18.8967   20.8071 H   0  0  0  0  0  0
  -27.3966  -17.5831   20.3865 H   0  0  0  0  0  0
  -23.3078  -22.7469   24.5642 H   0  0  0  0  0  0
  -22.2163  -21.6157   23.8809 H   0  0  0  0  0  0
  -29.3730  -17.0494   22.6673 H   0  0  0  0  0  0
  -30.1259  -17.5316   21.2049 H   0  0  0  0  0  0
  -24.6151  -27.9000   22.1894 H   0  0  0  0  0  0
  -24.0250  -26.3832   21.6751 H   0  0  0  0  0  0
  -22.3100  -24.3403   22.4930 H   0  0  0  0  0  0
  -22.0886  -24.5637   25.0921 H   0  0  0  0  0  0
  -28.4791  -15.0852   21.2615 H   0  0  0  0  0  0
  1 25  1  0  0  0
  1 30  2  0  0  0
  1 92  1  0  0  0
  2  3  1  0  0  0
  2 25  1  0  0  0
  2 93  1  0  0  0
  2 94  1  0  0  0
  3  4  1  0  0  0
  3 95  1  0  0  0
  3 96  1  0  0  0
  4  5  1  0  0  0
  4 97  1  0  0  0
  4 98  1  0  0  0
  5  6  1  0  0  0
  5 26  1  0  0  0
  5 99  1  0  0  0
  6 25  1  0  0  0
  6100  1  0  0  0
  6101  1  0  0  0
  7  8  2  0  0  0
  7 26  1  0  0  0
  7 29  1  0  0  0
  8  9  1  0  0  0
  8 22  1  0  0  0
  9 10  1  0  0  0
  9 27  2  0  0  0
 10 11  2  0  0  0
 10 15  1  0  0  0
 11 12  1  0  0  0
 11102  1  0  0  0
 12 13  2  0  0  0
 12103  1  0  0  0
 13 14  1  0  0  0
 13 31  1  0  0  0
 14 15  2  0  0  0
 14104  1  0  0  0
 15105  1  0  0  0
 16 17  2  0  0  0
 16 21  1  0  0  0
 16 31  1  0  0  0
 17 18  1  0  0  0
 17106  1  0  0  0
 18 19  2  0  0  0
 18107  1  0  0  0
 19 20  1  0  0  0
 19 24  1  0  0  0
 20 21  2  0  0  0
 20108  1  0  0  0
 21 23  1  0  0  0
 22 28  1  0  0  0
 22 32  2  0  0  0
 26 27  1  0  0  0
 28109  1  0  0  0
 28110  1  0  0  0
 29111  1  0  0  0
 29112  1  0  0  0
 33 34  1  0  0  0
 33 66  1  0  0  0
 33 70  2  0  0  0
 34 36  1  0  0  0
 34 59  1  0  0  0
 34113  1  0  0  0
 35 44  2  0  0  0
 35 45  1  0  0  0
 35 68  1  0  0  0
 36 56  1  0  0  0
 36114  1  0  0  0
 37 39  1  0  0  0
 37 47  1  0  0  0
 37 66  1  0  0  0
 37115  1  0  0  0
 38 43  2  0  0  0
 38 46  1  0  0  0
 38 47  1  0  0  0
 39 64  1  0  0  0
 39 67  2  0  0  0
 40 52  1  0  0  0
 40 53  2  0  0  0
 40 58  1  0  0  0
 41116  1  0  0  0
 41117  1  0  0  0
 41118  1  0  0  0
 41 48  1  0  0  0
 42 43  1  0  0  0
 42 66  1  0  0  0
 42119  1  0  0  0
 42120  1  0  0  0
 43 44  1  0  0  0
 44121  1  0  0  0
 45 46  2  0  0  0
 45122  1  0  0  0
 46123  1  0  0  0
 47124  1  0  0  0
 47125  1  0  0  0
 48 56  1  0  0  0
 48 65  1  0  0  0
 48126  1  0  0  0
 49 50  1  0  0  0
 49 53  1  0  0  0
 49 64  1  0  0  0
 49127  1  0  0  0
 50 51  1  0  0  0
 50128  1  0  0  0
 50129  1  0  0  0
 51 52  1  0  0  0
 51130  1  0  0  0
 51131  1  0  0  0
 52132  1  0  0  0
 52133  1  0  0  0
 53 54  1  0  0  0
 54 55  2  0  0  0
 54134  1  0  0  0
 55 57  1  0  0  0
 55135  1  0  0  0
 56 69  2  0  0  0
 57 58  2  0  0  0
 57136  1  0  0  0
 58137  1  0  0  0
 59 60  1  0  0  0
 59 61  1  0  0  0
 59 62  1  0  0  0
 60138  1  0  0  0
 60139  1  0  0  0
 60140  1  0  0  0
 61141  1  0  0  0
 61142  1  0  0  0
 61143  1  0  0  0
 62144  1  0  0  0
 62145  1  0  0  0
 62146  1  0  0  0
 63 65  1  0  0  0
 63147  1  0  0  0
 63148  1  0  0  0
 63149  1  0  0  0
 64150  1  0  0  0
 65151  1  0  0  0
 68 87  1  0  0  0
 71 72  2  0  0  0
 71 73  1  0  0  0
 71 77  1  0  0  0
 72 78  1  0  0  0
 72 90  1  0  0  0
 73 89  2  0  0  0
 73 91  1  0  0  0
 74 79  1  0  0  0
 74152  1  0  0  0
 74153  1  0  0  0
 74154  1  0  0  0
 75155  1  0  0  0
 75156  1  0  0  0
 75157  1  0  0  0
 75 88  1  0  0  0
 76 90  1  0  0  0
 76158  1  0  0  0
 76159  1  0  0  0
 76160  1  0  0  0
 77 87  1  0  0  0
 77161  1  0  0  0
 77162  1  0  0  0
 78 79  1  0  0  0
 78163  1  0  0  0
 78164  1  0  0  0
 79165  1  0  0  0
 79166  1  0  0  0
 80 81  1  0  0  0
 80 82  1  0  0  0
 80167  1  0  0  0
 80168  1  0  0  0
 81 83  1  0  0  0
 81169  1  0  0  0
 81170  1  0  0  0
 82 84  1  0  0  0
 82171  1  0  0  0
 82172  1  0  0  0
 83 85  1  0  0  0
 83173  1  0  0  0
 83174  1  0  0  0
 84 86  1  0  0  0
 84175  1  0  0  0
 84176  1  0  0  0
 85 88  1  0  0  0
 85177  1  0  0  0
 85178  1  0  0  0
 86 92  1  0  0  0
 86179  1  0  0  0
 86180  1  0  0  0
 87181  1  0  0  0
 87182  1  0  0  0
 88 91  1  0  0  0
 88183  1  0  0  0
 89 90  1  0  0  0
 91184  1  0  0  0
 92185  1  0  0  0
M  ISO  4   1 100  68 101  87 101  92 100
M  END
> <chiral flag>
0

> <version>
0

> <s_m_source_file>
/data/baiqing/PycharmProjects/Reinvent-master-3.2/result/LINK_invent/BTK/process_docking_weight1_custom_sum_contain_oxygen_bond_distance_aromatic_linkinvent_7_9_3/rearranged_h_0021.sdf

> <i_m_source_file_index>
85

> <r_mmod_Potential_Energy-OPLS-2005>
10968.2373046875

> <r_mmod_Stretch_Energy-OPLS-2005>
5679.61083984375

> <r_mmod_Bend_Energy-OPLS-2005>
732.767333984375

> <r_mmod_Torsional_Energy-OPLS-2005>
657.66015625

> <r_mmod_Improper_Torsional_Energy-OPLS-2005>
57.2729301452637

> <r_mmod_Van_der_Waal_Energy-OPLS-2005>
2372.13012695312

> <r_mmod_Electrostatic_Energy-OPLS-2005>
-476.791259765625

> <r_mmod_Solvation_Energy-OPLS-2005>
-209.409957885742

> <b_mmod_Minimization_Converged-OPLS-2005>
0

> <r_mmod_RMS_Derivative-OPLS-2005>
23.9121894836426

$$$$
86
                    3D
 Structure written by MMmdl.
161169  0  0  1  0            999 V2000
  -30.6830  -14.4884   20.4458 C   0  0  0  0  0  0
  -30.4097  -12.2772   19.4463 C   0  0  0  0  0  0
  -29.4969  -12.4575   18.2162 C   0  0  0  0  0  0
  -28.0175  -12.3238   18.6282 C   0  0  0  0  0  0
  -27.6519  -13.2016   19.8550 C   0  0  2  0  0  0
  -28.6915  -13.0619   20.9879 C   0  0  0  0  0  0
  -25.2624  -13.8160   20.5704 C   0  0  0  0  0  0
  -24.1876  -13.0461   20.9183 C   0  0  0  0  0  0
  -24.6409  -11.6900   20.8771 C   0  0  0  0  0  0
  -23.9086  -10.4277   21.0445 C   0  0  0  0  0  0
  -24.3622   -9.4176   21.9219 C   0  0  0  0  0  0
  -23.6278   -8.2221   22.0790 C   0  0  0  0  0  0
  -22.4261   -8.0278   21.3573 C   0  0  0  0  0  0
  -21.9911   -9.0269   20.4688 C   0  0  0  0  0  0
  -22.7268  -10.2128   20.3102 C   0  0  0  0  0  0
  -21.6833   -6.0759   22.5285 C   0  0  0  0  0  0
  -21.4010   -6.5677   23.8220 C   0  0  0  0  0  0
  -21.3648   -5.6838   24.9191 C   0  0  0  0  0  0
  -21.6026   -4.3095   24.7235 C   0  0  0  0  0  0
  -21.8810   -3.8178   23.4360 C   0  0  0  0  0  0
  -21.9176   -4.6990   22.3416 C   0  0  0  0  0  0
  -22.7918  -13.5260   21.1810 C   0  0  0  0  0  0
  -22.1654   -4.2202   21.0983 F   0  0  0  0  0  0
  -21.5600   -3.4561   25.7739 F   0  0  0  0  0  0
  -30.0199  -13.3080   20.4155 N   0  0  0  0  0  0
  -26.3001  -12.9306   20.3285 N   0  0  0  0  0  0
  -25.9313  -11.6470   20.5738 N   0  0  0  0  0  0
  -22.0566  -12.8274   22.0364 N   0  0  0  0  0  0
  -25.4409  -15.1869   20.4133 N   0  0  0  0  0  0
  -31.8833  -14.5911   20.1964 O   0  0  0  0  0  0
  -21.6613   -6.8894   21.4249 O   0  0  0  0  0  0
  -22.3632  -14.5586   20.6664 O   0  0  0  0  0  0
  -24.6152  -31.8680   23.2100 C   0  0  0  0  0  0
  -25.9054  -32.4824   23.8388 C   0  0  1  0  0  0
  -27.2242  -27.4199   20.0825 C   0  0  0  0  0  0
  -25.5897  -33.8618   24.2334 N   0  0  0  0  0  0
  -23.4017  -30.4969   21.5506 C   0  0  2  0  0  0
  -24.8395  -28.9545   20.1191 C   0  0  0  0  0  0
  -22.7372  -29.4755   22.4993 C   0  0  0  0  0  0
  -18.0295  -28.1424   22.8493 C   0  0  0  0  0  0
  -24.1488  -36.7309   23.2646 C   0  0  0  0  0  0
  -25.9334  -30.8257   21.3664 C   0  0  0  0  0  0
  -26.0027  -29.4592   20.7101 C   0  0  0  0  0  0
  -27.1926  -28.6969   20.6945 C   0  0  0  0  0  0
  -26.0304  -26.9156   19.5161 C   0  0  0  0  0  0
  -24.8457  -27.6768   19.5323 C   0  0  0  0  0  0
  -23.6060  -29.8261   20.1662 C   0  0  0  0  0  0
  -25.4108  -36.3108   24.0351 C   0  0  1  0  0  0
  -20.5851  -28.3770   23.1386 C   0  0  2  0  0  0
  -20.6803  -26.9498   22.5534 C   0  0  0  0  0  0
  -19.5862  -26.6510   21.5255 C   0  0  0  0  0  0
  -18.2025  -26.7969   22.1611 C   0  0  0  0  0  0
  -19.1509  -28.8904   23.2953 C   0  0  0  0  0  0
  -18.9399  -30.1509   23.8964 C   0  0  0  0  0  0
  -17.6407  -30.6653   24.0579 C   0  0  0  0  0  0
  -25.9046  -34.9485   23.5144 C   0  0  0  0  0  0
  -16.5318  -29.9114   23.6360 C   0  0  0  0  0  0
  -16.7274  -28.6528   23.0387 C   0  0  0  0  0  0
  -26.4496  -31.6605   25.0727 C   0  0  0  0  0  0
  -25.3766  -31.3722   26.1473 C   0  0  0  0  0  0
  -27.0365  -30.3050   24.6167 C   0  0  0  0  0  0
  -27.6082  -32.4314   25.7484 C   0  0  0  0  0  0
  -27.5584  -37.1801   24.8476 C   0  0  0  0  0  0
  -21.4086  -29.3144   22.3764 N   0  0  0  0  0  0
  -26.4306  -37.3785   23.9405 N   0  0  0  0  0  0
  -24.6689  -31.0765   22.1010 N   0  0  0  0  0  0
  -23.4149  -28.8279   23.3016 O   0  0  0  0  0  0
  -28.4194  -26.7246   20.0797 O   0  0  0  0  0  0
  -26.5609  -34.8940   22.4704 O   0  0  0  0  0  0
  -23.5347  -32.1458   23.7475 O   0  0  0  0  0  0
  -28.6537  -23.8834   21.2454 C   0  0  0  0  0  0
  -28.5789  -24.1534   19.8455 C   0  0  0  0  0  0
  -28.7753  -21.7149   19.3993 C   0  0  0  0  0  0
  -28.8833  -21.4572   20.7928 C   0  0  0  0  0  0
  -28.7835  -22.5409   21.7035 C   0  0  0  0  0  0
  -28.6007  -23.0537   18.9413 C   0  0  0  0  0  0
  -28.6389  -25.0248   22.2557 C   0  0  0  0  0  0
  -28.9348  -20.5722   18.3964 C   0  0  0  0  0  0
  -28.6089  -25.5812   19.2303 C   0  0  0  0  0  0
  -29.2478  -17.8741   20.3586 C   0  0  0  0  0  0
  -28.4359  -18.9759   21.0929 C   0  0  0  0  0  0
  -29.1568  -16.4403   20.9359 C   0  0  0  0  0  0
  -29.2228  -20.1907   21.3274 N   0  0  0  0  0  0
  -29.9208  -15.5307   20.0758 N   0  0  0  0  0  0
  -28.8601  -22.1798   23.4022 Cl  0  0  0  0  0  0
  -28.4894  -23.3581   17.2332 Cl  0  0  0  0  0  0
  -31.4598  -12.3417   19.1569 H   0  0  0  0  0  0
  -30.2740  -11.2865   19.8844 H   0  0  0  0  0  0
  -29.7389  -11.7184   17.4516 H   0  0  0  0  0  0
  -29.6699  -13.4357   17.7638 H   0  0  0  0  0  0
  -27.8354  -11.2732   18.8593 H   0  0  0  0  0  0
  -27.3687  -12.5639   17.7851 H   0  0  0  0  0  0
  -27.6654  -14.2323   19.5027 H   0  0  0  0  0  0
  -28.4693  -13.7661   21.7923 H   0  0  0  0  0  0
  -28.6531  -12.0684   21.4348 H   0  0  0  0  0  0
  -25.2772   -9.5629   22.4805 H   0  0  0  0  0  0
  -23.9988   -7.4616   22.7510 H   0  0  0  0  0  0
  -21.0854   -8.8814   19.8986 H   0  0  0  0  0  0
  -22.3756  -10.9693   19.6227 H   0  0  0  0  0  0
  -21.2023   -7.6191   23.9747 H   0  0  0  0  0  0
  -21.1477   -6.0565   25.9094 H   0  0  0  0  0  0
  -22.0590   -2.7637   23.2844 H   0  0  0  0  0  0
  -22.4202  -11.9865   22.4632 H   0  0  0  0  0  0
  -21.1230  -13.1381   22.2676 H   0  0  0  0  0  0
  -24.6853  -15.8540   20.5294 H   0  0  0  0  0  0
  -26.2997  -15.6033   20.0755 H   0  0  0  0  0  0
  -26.7125  -32.5536   23.1150 H   0  0  0  0  0  0
  -25.0058  -33.9803   25.0485 H   0  0  0  0  0  0
  -22.6977  -31.3166   21.4089 H   0  0  0  0  0  0
  -23.3756  -35.9639   23.3340 H   0  0  0  0  0  0
  -24.3588  -36.8878   22.2053 H   0  0  0  0  0  0
  -23.7240  -37.6530   23.6637 H   0  0  0  0  0  0
  -26.0542  -31.5928   20.6007 H   0  0  0  0  0  0
  -26.8203  -30.8706   21.9864 H   0  0  0  0  0  0
  -28.0946  -29.0769   21.1552 H   0  0  0  0  0  0
  -25.9894  -25.9295   19.0776 H   0  0  0  0  0  0
  -23.9401  -27.2684   19.1048 H   0  0  0  0  0  0
  -23.7134  -30.5982   19.4039 H   0  0  0  0  0  0
  -22.7273  -29.2476   19.8799 H   0  0  0  0  0  0
  -25.1274  -36.1997   25.0846 H   0  0  0  0  0  0
  -20.9914  -28.3389   24.1519 H   0  0  0  0  0  0
  -21.6754  -26.7559   22.1485 H   0  0  0  0  0  0
  -20.5640  -26.2341   23.3716 H   0  0  0  0  0  0
  -19.7095  -25.6457   21.1197 H   0  0  0  0  0  0
  -19.6860  -27.3424   20.6854 H   0  0  0  0  0  0
  -17.4330  -26.6695   21.3958 H   0  0  0  0  0  0
  -18.0492  -26.0090   22.9015 H   0  0  0  0  0  0
  -19.7865  -30.7325   24.2376 H   0  0  0  0  0  0
  -17.4984  -31.6372   24.5121 H   0  0  0  0  0  0
  -15.5333  -30.3046   23.7703 H   0  0  0  0  0  0
  -15.8636  -28.0870   22.7123 H   0  0  0  0  0  0
  -24.5889  -30.7150   25.7776 H   0  0  0  0  0  0
  -24.9036  -32.2894   26.4998 H   0  0  0  0  0  0
  -25.8075  -30.8798   27.0194 H   0  0  0  0  0  0
  -26.2950  -29.6765   24.1224 H   0  0  0  0  0  0
  -27.4129  -29.7341   25.4662 H   0  0  0  0  0  0
  -27.8779  -30.4387   23.9360 H   0  0  0  0  0  0
  -27.2733  -33.3577   26.2178 H   0  0  0  0  0  0
  -28.3842  -32.6921   25.0269 H   0  0  0  0  0  0
  -28.0849  -31.8374   26.5307 H   0  0  0  0  0  0
  -28.2615  -38.0082   24.7471 H   0  0  0  0  0  0
  -28.1055  -36.2598   24.6344 H   0  0  0  0  0  0
  -27.2304  -37.1501   25.8886 H   0  0  0  0  0  0
  -20.9210  -29.8901   21.7019 H   0  0  0  0  0  0
  -26.0208  -38.2884   24.1338 H   0  0  0  0  0  0
  -27.6985  -25.5672   22.1911 H   0  0  0  0  0  0
  -29.4540  -25.7183   22.0524 H   0  0  0  0  0  0
  -28.7518  -24.7122   23.2916 H   0  0  0  0  0  0
  -28.0968  -19.8813   18.4577 H   0  0  0  0  0  0
  -29.8523  -20.0243   18.6047 H   0  0  0  0  0  0
  -29.0126  -20.8814   17.3576 H   0  0  0  0  0  0
  -27.9775  -25.6540   18.3470 H   0  0  0  0  0  0
  -29.6189  -25.6952   18.8353 H   0  0  0  0  0  0
  -30.3014  -18.1561   20.3210 H   0  0  0  0  0  0
  -28.9141  -17.8440   19.3211 H   0  0  0  0  0  0
  -28.1291  -18.5956   22.0693 H   0  0  0  0  0  0
  -27.5103  -19.2004   20.5604 H   0  0  0  0  0  0
  -29.5424  -16.4085   21.9569 H   0  0  0  0  0  0
  -28.1175  -16.1244   20.9855 H   0  0  0  0  0  0
  -29.4859  -20.2834   22.3077 H   0  0  0  0  0  0
  -30.3992  -16.0510   19.3549 H   0  0  0  0  0  0
  1 25  1  0  0  0
  1 30  2  0  0  0
  1 84  1  0  0  0
  2  3  1  0  0  0
  2 25  1  0  0  0
  2 87  1  0  0  0
  2 88  1  0  0  0
  3  4  1  0  0  0
  3 89  1  0  0  0
  3 90  1  0  0  0
  4  5  1  0  0  0
  4 91  1  0  0  0
  4 92  1  0  0  0
  5  6  1  0  0  0
  5 26  1  0  0  0
  5 93  1  0  0  0
  6 25  1  0  0  0
  6 94  1  0  0  0
  6 95  1  0  0  0
  7  8  2  0  0  0
  7 26  1  0  0  0
  7 29  1  0  0  0
  8  9  1  0  0  0
  8 22  1  0  0  0
  9 10  1  0  0  0
  9 27  2  0  0  0
 10 11  2  0  0  0
 10 15  1  0  0  0
 11 12  1  0  0  0
 11 96  1  0  0  0
 12 13  2  0  0  0
 12 97  1  0  0  0
 13 14  1  0  0  0
 13 31  1  0  0  0
 14 15  2  0  0  0
 14 98  1  0  0  0
 15 99  1  0  0  0
 16 17  2  0  0  0
 16 21  1  0  0  0
 16 31  1  0  0  0
 17 18  1  0  0  0
 17100  1  0  0  0
 18 19  2  0  0  0
 18101  1  0  0  0
 19 20  1  0  0  0
 19 24  1  0  0  0
 20 21  2  0  0  0
 20102  1  0  0  0
 21 23  1  0  0  0
 22 28  1  0  0  0
 22 32  2  0  0  0
 26 27  1  0  0  0
 28103  1  0  0  0
 28104  1  0  0  0
 29105  1  0  0  0
 29106  1  0  0  0
 33 34  1  0  0  0
 33 66  1  0  0  0
 33 70  2  0  0  0
 34 36  1  0  0  0
 34 59  1  0  0  0
 34107  1  0  0  0
 35 44  2  0  0  0
 35 45  1  0  0  0
 35 68  1  0  0  0
 36 56  1  0  0  0
 36108  1  0  0  0
 37 39  1  0  0  0
 37 47  1  0  0  0
 37 66  1  0  0  0
 37109  1  0  0  0
 38 43  2  0  0  0
 38 46  1  0  0  0
 38 47  1  0  0  0
 39 64  1  0  0  0
 39 67  2  0  0  0
 40 52  1  0  0  0
 40 53  2  0  0  0
 40 58  1  0  0  0
 41110  1  0  0  0
 41111  1  0  0  0
 41112  1  0  0  0
 41 48  1  0  0  0
 42 43  1  0  0  0
 42 66  1  0  0  0
 42113  1  0  0  0
 42114  1  0  0  0
 43 44  1  0  0  0
 44115  1  0  0  0
 45 46  2  0  0  0
 45116  1  0  0  0
 46117  1  0  0  0
 47118  1  0  0  0
 47119  1  0  0  0
 48 56  1  0  0  0
 48 65  1  0  0  0
 48120  1  0  0  0
 49 50  1  0  0  0
 49 53  1  0  0  0
 49 64  1  0  0  0
 49121  1  0  0  0
 50 51  1  0  0  0
 50122  1  0  0  0
 50123  1  0  0  0
 51 52  1  0  0  0
 51124  1  0  0  0
 51125  1  0  0  0
 52126  1  0  0  0
 52127  1  0  0  0
 53 54  1  0  0  0
 54 55  2  0  0  0
 54128  1  0  0  0
 55 57  1  0  0  0
 55129  1  0  0  0
 56 69  2  0  0  0
 57 58  2  0  0  0
 57130  1  0  0  0
 58131  1  0  0  0
 59 60  1  0  0  0
 59 61  1  0  0  0
 59 62  1  0  0  0
 60132  1  0  0  0
 60133  1  0  0  0
 60134  1  0  0  0
 61135  1  0  0  0
 61136  1  0  0  0
 61137  1  0  0  0
 62138  1  0  0  0
 62139  1  0  0  0
 62140  1  0  0  0
 63 65  1  0  0  0
 63141  1  0  0  0
 63142  1  0  0  0
 63143  1  0  0  0
 64144  1  0  0  0
 65145  1  0  0  0
 68 79  1  0  0  0
 71 72  2  0  0  0
 71 75  1  0  0  0
 71 77  1  0  0  0
 72 76  1  0  0  0
 72 79  1  0  0  0
 73 74  1  0  0  0
 73 76  2  0  0  0
 73 78  1  0  0  0
 74 75  2  0  0  0
 74 83  1  0  0  0
 75 85  1  0  0  0
 76 86  1  0  0  0
 77146  1  0  0  0
 77147  1  0  0  0
 77148  1  0  0  0
 78149  1  0  0  0
 78150  1  0  0  0
 78151  1  0  0  0
 79152  1  0  0  0
 79153  1  0  0  0
 80 81  1  0  0  0
 80 82  1  0  0  0
 80154  1  0  0  0
 80155  1  0  0  0
 81 83  1  0  0  0
 81156  1  0  0  0
 81157  1  0  0  0
 82 84  1  0  0  0
 82158  1  0  0  0
 82159  1  0  0  0
 83160  1  0  0  0
 84161  1  0  0  0
M  ISO  4   1 100  68 101  79 101  84 100
M  END
> <chiral flag>
0

> <version>
0

> <s_m_source_file>
/data/baiqing/PycharmProjects/Reinvent-master-3.2/result/LINK_invent/BTK/process_docking_weight1_custom_sum_contain_oxygen_bond_distance_aromatic_linkinvent_7_9_3/rearranged_h_0021.sdf

> <i_m_source_file_index>
86

> <r_mmod_Potential_Energy-OPLS-2005>
141.630233764648

> <r_mmod_Stretch_Energy-OPLS-2005>
43.6910171508789

> <r_mmod_Bend_Energy-OPLS-2005>
134.300399780273

> <r_mmod_Torsional_Energy-OPLS-2005>
293.913757324219

> <r_mmod_Improper_Torsional_Energy-OPLS-2005>
33.5859222412109

> <r_mmod_Van_der_Waal_Energy-OPLS-2005>
170.844696044922

> <r_mmod_Electrostatic_Energy-OPLS-2005>
-358.514068603516

> <r_mmod_Solvation_Energy-OPLS-2005>
-200.196060180664

> <b_mmod_Minimization_Converged-OPLS-2005>
0

> <r_mmod_RMS_Derivative-OPLS-2005>
5.37930202484131

$$$$
87
                    3D
 Structure written by MMmdl.
173182  0  0  1  0            999 V2000
  -30.6738  -14.5005   20.5849 C   0  0  0  0  0  0
  -30.4366  -12.3307   19.4187 C   0  0  0  0  0  0
  -29.5018  -12.5140   18.2035 C   0  0  0  0  0  0
  -28.0209  -12.3688   18.6156 C   0  0  0  0  0  0
  -27.6629  -13.2022   19.8753 C   0  0  2  0  0  0
  -28.7055  -12.9714   20.9916 C   0  0  0  0  0  0
  -25.2602  -13.8130   20.5652 C   0  0  0  0  0  0
  -24.1846  -13.0425   20.9160 C   0  0  0  0  0  0
  -24.6401  -11.6888   20.8727 C   0  0  0  0  0  0
  -23.9057  -10.4286   21.0400 C   0  0  0  0  0  0
  -24.3612   -9.4200   21.9182 C   0  0  0  0  0  0
  -23.6291   -8.2233   22.0747 C   0  0  0  0  0  0
  -22.4272   -8.0277   21.3548 C   0  0  0  0  0  0
  -21.9911   -9.0247   20.4642 C   0  0  0  0  0  0
  -22.7233  -10.2128   20.3041 C   0  0  0  0  0  0
  -21.6854   -6.0728   22.5283 C   0  0  0  0  0  0
  -21.4016   -6.5630   23.8215 C   0  0  0  0  0  0
  -21.3657   -5.6781   24.9182 C   0  0  0  0  0  0
  -21.6035   -4.3044   24.7225 C   0  0  0  0  0  0
  -21.8820   -3.8136   23.4348 C   0  0  0  0  0  0
  -21.9194   -4.6960   22.3404 C   0  0  0  0  0  0
  -22.7876  -13.5239   21.1822 C   0  0  0  0  0  0
  -22.1662   -4.2147   21.0987 F   0  0  0  0  0  0
  -21.5629   -3.4521   25.7734 F   0  0  0  0  0  0
  -30.0341  -13.3054   20.4444 N   0  0  0  0  0  0
  -26.3036  -12.9295   20.3357 N   0  0  0  0  0  0
  -25.9325  -11.6463   20.5750 N   0  0  0  0  0  0
  -22.0509  -12.8251   22.0396 N   0  0  0  0  0  0
  -25.4286  -15.1845   20.4044 N   0  0  0  0  0  0
  -31.8044  -14.6961   20.1357 O   0  0  0  0  0  0
  -21.6641   -6.8877   21.4250 O   0  0  0  0  0  0
  -22.3567  -14.5556   20.6679 O   0  0  0  0  0  0
  -24.6164  -31.8659   23.2084 C   0  0  0  0  0  0
  -25.9052  -32.4805   23.8387 C   0  0  1  0  0  0
  -27.2361  -27.4227   20.1048 C   0  0  0  0  0  0
  -25.5906  -33.8602   24.2324 N   0  0  0  0  0  0
  -23.4063  -30.4898   21.5474 C   0  0  2  0  0  0
  -24.8566  -28.9542   20.1117 C   0  0  0  0  0  0
  -22.7418  -29.4666   22.4965 C   0  0  0  0  0  0
  -18.0281  -28.1387   22.8488 C   0  0  0  0  0  0
  -24.1485  -36.7308   23.2644 C   0  0  0  0  0  0
  -25.9362  -30.8298   21.3629 C   0  0  0  0  0  0
  -26.0170  -29.4632   20.7098 C   0  0  0  0  0  0
  -27.2138  -28.7056   20.7033 C   0  0  0  0  0  0
  -26.0636  -26.9352   19.4921 C   0  0  0  0  0  0
  -24.8756  -27.6905   19.4969 C   0  0  0  0  0  0
  -23.6167  -29.8202   20.1626 C   0  0  0  0  0  0
  -25.4103  -36.3092   24.0342 C   0  0  1  0  0  0
  -20.5872  -28.3683   23.1301 C   0  0  2  0  0  0
  -20.6772  -26.9417   22.5417 C   0  0  0  0  0  0
  -19.5751  -26.6393   21.5214 C   0  0  0  0  0  0
  -18.1927  -26.7938   22.1616 C   0  0  0  0  0  0
  -19.1529  -28.8849   23.2894 C   0  0  0  0  0  0
  -18.9458  -30.1453   23.8908 C   0  0  0  0  0  0
  -17.6460  -30.6591   24.0571 C   0  0  0  0  0  0
  -25.9032  -34.9463   23.5128 C   0  0  0  0  0  0
  -16.5352  -29.9092   23.6330 C   0  0  0  0  0  0
  -16.7269  -28.6512   23.0344 C   0  0  0  0  0  0
  -26.4498  -31.6571   25.0710 C   0  0  0  0  0  0
  -25.3786  -31.3669   26.1478 C   0  0  0  0  0  0
  -27.0324  -30.3003   24.6082 C   0  0  0  0  0  0
  -27.6077  -32.4299   25.7467 C   0  0  0  0  0  0
  -27.5576  -37.1804   24.8464 C   0  0  0  0  0  0
  -21.4144  -29.3043   22.3692 N   0  0  0  0  0  0
  -26.4284  -37.3781   23.9415 N   0  0  0  0  0  0
  -24.6709  -31.0761   22.0984 N   0  0  0  0  0  0
  -23.4180  -28.8213   23.3024 O   0  0  0  0  0  0
  -28.3579  -26.6199   20.1288 O   0  0  0  0  0  0
  -26.5584  -34.8921   22.4685 O   0  0  0  0  0  0
  -23.5356  -32.1415   23.7477 O   0  0  0  0  0  0
  -31.1942  -19.0564   21.3366 C   0  0  0  0  0  0
  -29.1953  -18.7957   22.6584 C   0  0  0  0  0  0
  -30.2815  -19.6182   22.2672 C   0  0  0  0  0  0
  -30.0819  -16.8585   21.4200 C   0  0  0  0  0  0
  -31.1026  -17.7076   20.9123 C   0  0  0  0  0  0
  -29.1096  -17.4432   22.2654 C   0  0  0  0  0  0
  -29.3782  -23.9610   19.4436 C   0  0  0  0  0  0
  -28.9401  -24.2102   20.6892 C   0  0  0  0  0  0
  -30.2821  -22.2572   22.0932 C   0  0  1  0  0  0
  -29.0806  -23.2129   21.8243 C   0  0  1  0  0  0
  -30.1984  -23.6262   22.7793 C   0  0  0  0  0  0
  -27.7156  -22.6791   22.2382 C   0  0  0  0  0  0
  -31.3133  -24.5953   22.3988 C   0  0  0  0  0  0
  -29.7438  -23.9903   24.1898 C   0  0  0  0  0  0
  -32.0784  -21.0417   23.3012 C   0  0  0  0  0  0
  -29.9171  -20.9448   24.3956 C   0  0  0  0  0  0
  -28.2468  -25.5338   21.0755 C   0  0  0  0  0  0
  -30.5637  -20.9793   22.9785 C   0  0  0  0  0  0
  -29.9066  -15.4579   21.1461 N   0  0  0  0  0  0
  -32.0213  -17.2660   20.0241 F   0  0  0  0  0  0
  -27.8066  -16.4843   22.8822 Cl  0  0  0  0  0  0
  -31.4779  -12.4540   19.1152 H   0  0  0  0  0  0
  -30.3596  -11.3181   19.8152 H   0  0  0  0  0  0
  -29.7517  -11.7881   17.4281 H   0  0  0  0  0  0
  -29.6638  -13.4992   17.7611 H   0  0  0  0  0  0
  -27.8359  -11.3112   18.8052 H   0  0  0  0  0  0
  -27.3711  -12.6442   17.7843 H   0  0  0  0  0  0
  -27.7085  -14.2520   19.5866 H   0  0  0  0  0  0
  -28.6952  -11.9271   21.3081 H   0  0  0  0  0  0
  -28.4548  -13.5423   21.8872 H   0  0  0  0  0  0
  -25.2760   -9.5669   22.4759 H   0  0  0  0  0  0
  -23.9994   -7.4620   22.7458 H   0  0  0  0  0  0
  -21.0829   -8.8740   19.8968 H   0  0  0  0  0  0
  -22.3671  -10.9654   19.6130 H   0  0  0  0  0  0
  -21.2010   -7.6139   23.9722 H   0  0  0  0  0  0
  -21.1486   -6.0511   25.9084 H   0  0  0  0  0  0
  -22.0608   -2.7600   23.2840 H   0  0  0  0  0  0
  -22.4103  -11.9918   22.4818 H   0  0  0  0  0  0
  -21.1115  -13.1285   22.2549 H   0  0  0  0  0  0
  -24.6694  -15.8385   20.5512 H   0  0  0  0  0  0
  -26.2890  -15.6396   20.1310 H   0  0  0  0  0  0
  -26.7124  -32.5527   23.1154 H   0  0  0  0  0  0
  -25.0060  -33.9757   25.0469 H   0  0  0  0  0  0
  -22.6964  -31.3077   21.4055 H   0  0  0  0  0  0
  -23.3739  -35.9649   23.3307 H   0  0  0  0  0  0
  -24.3584  -36.8921   22.2058 H   0  0  0  0  0  0
  -23.7246  -37.6519   23.6658 H   0  0  0  0  0  0
  -26.0488  -31.5960   20.5946 H   0  0  0  0  0  0
  -26.8235  -30.8849   21.9817 H   0  0  0  0  0  0
  -28.1070  -29.0902   21.1750 H   0  0  0  0  0  0
  -26.0696  -25.9607   19.0239 H   0  0  0  0  0  0
  -23.9849  -27.2929   19.0303 H   0  0  0  0  0  0
  -23.7221  -30.5938   19.4010 H   0  0  0  0  0  0
  -22.7420  -29.2374   19.8684 H   0  0  0  0  0  0
  -25.1280  -36.1955   25.0834 H   0  0  0  0  0  0
  -20.9973  -28.3269   24.1418 H   0  0  0  0  0  0
  -20.5677  -26.2299   23.3611 H   0  0  0  0  0  0
  -21.6643  -26.7461   22.1209 H   0  0  0  0  0  0
  -19.6917  -25.6307   21.1233 H   0  0  0  0  0  0
  -19.6695  -27.3209   20.6750 H   0  0  0  0  0  0
  -17.4204  -26.6695   21.4011 H   0  0  0  0  0  0
  -18.0322  -26.0075   22.9003 H   0  0  0  0  0  0
  -19.7937  -30.7266   24.2281 H   0  0  0  0  0  0
  -17.5019  -31.6271   24.5175 H   0  0  0  0  0  0
  -15.5352  -30.3000   23.7652 H   0  0  0  0  0  0
  -15.8666  -28.0839   22.7043 H   0  0  0  0  0  0
  -24.5936  -30.7044   25.7819 H   0  0  0  0  0  0
  -24.9020  -32.2823   26.4991 H   0  0  0  0  0  0
  -25.8170  -30.8787   27.0189 H   0  0  0  0  0  0
  -26.2841  -29.6743   24.1207 H   0  0  0  0  0  0
  -27.4160  -29.7269   25.4530 H   0  0  0  0  0  0
  -27.8657  -30.4309   23.9176 H   0  0  0  0  0  0
  -27.2688  -33.3584   26.2075 H   0  0  0  0  0  0
  -28.3866  -32.6880   25.0281 H   0  0  0  0  0  0
  -28.0768  -31.8407   26.5355 H   0  0  0  0  0  0
  -28.2597  -38.0097   24.7499 H   0  0  0  0  0  0
  -28.1064  -36.2628   24.6292 H   0  0  0  0  0  0
  -27.2301  -37.1459   25.8869 H   0  0  0  0  0  0
  -20.9307  -29.8747   21.6896 H   0  0  0  0  0  0
  -26.0170  -38.2859   24.1420 H   0  0  0  0  0  0
  -32.0251  -19.6386   20.9708 H   0  0  0  0  0  0
  -28.4407  -19.1607   23.3382 H   0  0  0  0  0  0
  -29.8555  -23.0250   19.1919 H   0  0  0  0  0  0
  -29.2622  -24.6890   18.6529 H   0  0  0  0  0  0
  -30.9155  -22.2029   21.2091 H   0  0  0  0  0  0
  -27.0983  -22.5178   21.3531 H   0  0  0  0  0  0
  -27.1996  -23.3874   22.8854 H   0  0  0  0  0  0
  -27.7832  -21.7196   22.7380 H   0  0  0  0  0  0
  -31.6375  -24.4458   21.3690 H   0  0  0  0  0  0
  -32.1774  -24.4433   23.0464 H   0  0  0  0  0  0
  -30.9852  -25.6296   22.5045 H   0  0  0  0  0  0
  -28.8994  -23.3908   24.5249 H   0  0  0  0  0  0
  -29.4206  -25.0311   24.2206 H   0  0  0  0  0  0
  -30.5643  -23.8829   24.8997 H   0  0  0  0  0  0
  -32.7005  -21.1085   22.4093 H   0  0  0  0  0  0
  -32.4065  -20.1710   23.8708 H   0  0  0  0  0  0
  -32.3230  -21.9222   23.8972 H   0  0  0  0  0  0
  -28.8362  -21.0455   24.4067 H   0  0  0  0  0  0
  -30.3228  -21.6928   25.0700 H   0  0  0  0  0  0
  -30.1436  -20.0019   24.8951 H   0  0  0  0  0  0
  -28.6728  -25.8905   22.0129 H   0  0  0  0  0  0
  -27.2038  -25.2982   21.2995 H   0  0  0  0  0  0
  -29.0244  -15.1016   21.4802 H   0  0  0  0  0  0
  1 25  1  0  0  0
  1 30  2  0  0  0
  1 89  1  0  0  0
  2  3  1  0  0  0
  2 25  1  0  0  0
  2 92  1  0  0  0
  2 93  1  0  0  0
  3  4  1  0  0  0
  3 94  1  0  0  0
  3 95  1  0  0  0
  4  5  1  0  0  0
  4 96  1  0  0  0
  4 97  1  0  0  0
  5  6  1  0  0  0
  5 26  1  0  0  0
  5 98  1  0  0  0
  6 25  1  0  0  0
  6 99  1  0  0  0
  6100  1  0  0  0
  7  8  2  0  0  0
  7 26  1  0  0  0
  7 29  1  0  0  0
  8  9  1  0  0  0
  8 22  1  0  0  0
  9 10  1  0  0  0
  9 27  2  0  0  0
 10 11  2  0  0  0
 10 15  1  0  0  0
 11 12  1  0  0  0
 11101  1  0  0  0
 12 13  2  0  0  0
 12102  1  0  0  0
 13 14  1  0  0  0
 13 31  1  0  0  0
 14 15  2  0  0  0
 14103  1  0  0  0
 15104  1  0  0  0
 16 17  2  0  0  0
 16 21  1  0  0  0
 16 31  1  0  0  0
 17 18  1  0  0  0
 17105  1  0  0  0
 18 19  2  0  0  0
 18106  1  0  0  0
 19 20  1  0  0  0
 19 24  1  0  0  0
 20 21  2  0  0  0
 20107  1  0  0  0
 21 23  1  0  0  0
 22 28  1  0  0  0
 22 32  2  0  0  0
 26 27  1  0  0  0
 28108  1  0  0  0
 28109  1  0  0  0
 29110  1  0  0  0
 29111  1  0  0  0
 33 34  1  0  0  0
 33 66  1  0  0  0
 33 70  2  0  0  0
 34 36  1  0  0  0
 34 59  1  0  0  0
 34112  1  0  0  0
 35 44  2  0  0  0
 35 45  1  0  0  0
 35 68  1  0  0  0
 36 56  1  0  0  0
 36113  1  0  0  0
 37 39  1  0  0  0
 37 47  1  0  0  0
 37 66  1  0  0  0
 37114  1  0  0  0
 38 43  2  0  0  0
 38 46  1  0  0  0
 38 47  1  0  0  0
 39 64  1  0  0  0
 39 67  2  0  0  0
 40 52  1  0  0  0
 40 53  2  0  0  0
 40 58  1  0  0  0
 41115  1  0  0  0
 41116  1  0  0  0
 41117  1  0  0  0
 41 48  1  0  0  0
 42 43  1  0  0  0
 42 66  1  0  0  0
 42118  1  0  0  0
 42119  1  0  0  0
 43 44  1  0  0  0
 44120  1  0  0  0
 45 46  2  0  0  0
 45121  1  0  0  0
 46122  1  0  0  0
 47123  1  0  0  0
 47124  1  0  0  0
 48 56  1  0  0  0
 48 65  1  0  0  0
 48125  1  0  0  0
 49 50  1  0  0  0
 49 53  1  0  0  0
 49 64  1  0  0  0
 49126  1  0  0  0
 50 51  1  0  0  0
 50127  1  0  0  0
 50128  1  0  0  0
 51 52  1  0  0  0
 51129  1  0  0  0
 51130  1  0  0  0
 52131  1  0  0  0
 52132  1  0  0  0
 53 54  1  0  0  0
 54 55  2  0  0  0
 54133  1  0  0  0
 55 57  1  0  0  0
 55134  1  0  0  0
 56 69  2  0  0  0
 57 58  2  0  0  0
 57135  1  0  0  0
 58136  1  0  0  0
 59 60  1  0  0  0
 59 61  1  0  0  0
 59 62  1  0  0  0
 60137  1  0  0  0
 60138  1  0  0  0
 60139  1  0  0  0
 61140  1  0  0  0
 61141  1  0  0  0
 61142  1  0  0  0
 62143  1  0  0  0
 62144  1  0  0  0
 62145  1  0  0  0
 63 65  1  0  0  0
 63146  1  0  0  0
 63147  1  0  0  0
 63148  1  0  0  0
 64149  1  0  0  0
 65150  1  0  0  0
 68 87  1  0  0  0
 71 73  2  0  0  0
 71 75  1  0  0  0
 71151  1  0  0  0
 72 73  1  0  0  0
 72 76  2  0  0  0
 72152  1  0  0  0
 73 88  1  0  0  0
 74 75  2  0  0  0
 74 76  1  0  0  0
 74 89  1  0  0  0
 75 90  1  0  0  0
 76 91  1  0  0  0
 77 78  2  0  0  0
 77153  1  0  0  0
 77154  1  0  0  0
 78 87  1  0  0  0
 78 80  1  0  0  0
 79 80  1  0  0  0
 79 81  1  0  0  0
 79 88  1  0  0  0
 79155  1  0  0  0
 80 81  1  0  0  0
 80 82  1  0  0  0
 81 83  1  0  0  0
 81 84  1  0  0  0
 82156  1  0  0  0
 82157  1  0  0  0
 82158  1  0  0  0
 83159  1  0  0  0
 83160  1  0  0  0
 83161  1  0  0  0
 84162  1  0  0  0
 84163  1  0  0  0
 84164  1  0  0  0
 85165  1  0  0  0
 85166  1  0  0  0
 85167  1  0  0  0
 85 88  1  0  0  0
 86 88  1  0  0  0
 86168  1  0  0  0
 86169  1  0  0  0
 86170  1  0  0  0
 87171  1  0  0  0
 87172  1  0  0  0
 89173  1  0  0  0
M  ISO  4   1 100  68 101  87 101  89 100
M  END
> <chiral flag>
0

> <version>
0

> <s_m_source_file>
/data/baiqing/PycharmProjects/Reinvent-master-3.2/result/LINK_invent/BTK/process_docking_weight1_custom_sum_contain_oxygen_bond_distance_aromatic_linkinvent_7_9_3/rearranged_h_0021.sdf

> <i_m_source_file_index>
87

> <r_mmod_Potential_Energy-OPLS-2005>
123.095924377441

> <r_mmod_Stretch_Energy-OPLS-2005>
56.1190414428711

> <r_mmod_Bend_Energy-OPLS-2005>
191.4501953125

> <r_mmod_Torsional_Energy-OPLS-2005>
334.653839111328

> <r_mmod_Improper_Torsional_Energy-OPLS-2005>
3.74857831001282

> <r_mmod_Van_der_Waal_Energy-OPLS-2005>
169.878967285156

> <r_mmod_Electrostatic_Energy-OPLS-2005>
-463.850921630859

> <r_mmod_Solvation_Energy-OPLS-2005>
-185.355377197266

> <b_mmod_Minimization_Converged-OPLS-2005>
0

> <r_mmod_RMS_Derivative-OPLS-2005>
1.80909657478333

$$$$
88
                    3D
 Structure written by MMmdl.
196205  0  0  1  0            999 V2000
  -30.6533  -14.6324   20.3851 C   0  0  0  0  0  0
  -30.4296  -12.3537   19.4586 C   0  0  0  0  0  0
  -29.5039  -12.3711   18.2257 C   0  0  0  0  0  0
  -28.0143  -12.3054   18.6357 C   0  0  0  0  0  0
  -27.6363  -13.2068   19.8462 C   0  0  2  0  0  0
  -28.6935  -13.1396   20.9661 C   0  0  0  0  0  0
  -25.2519  -13.8138   20.5745 C   0  0  0  0  0  0
  -24.1779  -13.0406   20.9229 C   0  0  0  0  0  0
  -24.6346  -11.6882   20.8786 C   0  0  0  0  0  0
  -23.9031  -10.4263   21.0453 C   0  0  0  0  0  0
  -24.3602   -9.4172   21.9221 C   0  0  0  0  0  0
  -23.6290   -8.2199   22.0760 C   0  0  0  0  0  0
  -22.4268   -8.0250   21.3541 C   0  0  0  0  0  0
  -21.9904   -9.0220   20.4650 C   0  0  0  0  0  0
  -22.7221  -10.2112   20.3085 C   0  0  0  0  0  0
  -21.6833   -6.0725   22.5283 C   0  0  0  0  0  0
  -21.4001   -6.5641   23.8214 C   0  0  0  0  0  0
  -21.3664   -5.6806   24.9183 C   0  0  0  0  0  0
  -21.6053   -4.3065   24.7240 C   0  0  0  0  0  0
  -21.8816   -3.8147   23.4361 C   0  0  0  0  0  0
  -21.9191   -4.6957   22.3411 C   0  0  0  0  0  0
  -22.7809  -13.5201   21.1884 C   0  0  0  0  0  0
  -22.1653   -4.2146   21.0988 F   0  0  0  0  0  0
  -21.5640   -3.4553   25.7757 F   0  0  0  0  0  0
  -29.9958  -13.4342   20.3570 N   0  0  0  0  0  0
  -26.2914  -12.9282   20.3345 N   0  0  0  0  0  0
  -25.9267  -11.6458   20.5821 N   0  0  0  0  0  0
  -22.0462  -12.8182   22.0454 N   0  0  0  0  0  0
  -25.4248  -15.1850   20.4153 N   0  0  0  0  0  0
  -31.8778  -14.6831   20.2595 O   0  0  0  0  0  0
  -21.6622   -6.8857   21.4238 O   0  0  0  0  0  0
  -22.3481  -14.5492   20.6726 O   0  0  0  0  0  0
  -24.6197  -31.8643   23.2090 C   0  0  0  0  0  0
  -25.9068  -32.4798   23.8403 C   0  0  1  0  0  0
  -27.2297  -27.3704   20.1000 C   0  0  0  0  0  0
  -25.5899  -33.8601   24.2325 N   0  0  0  0  0  0
  -23.4110  -30.4884   21.5525 C   0  0  2  0  0  0
  -24.8565  -28.9547   20.1109 C   0  0  0  0  0  0
  -22.7440  -29.4636   22.4988 C   0  0  0  0  0  0
  -18.0269  -28.1370   22.8483 C   0  0  0  0  0  0
  -24.1495  -36.7317   23.2646 C   0  0  0  0  0  0
  -25.9477  -30.8079   21.3755 C   0  0  0  0  0  0
  -26.0209  -29.4397   20.7182 C   0  0  0  0  0  0
  -27.2053  -28.6550   20.7117 C   0  0  0  0  0  0
  -26.0448  -26.9319   19.4593 C   0  0  0  0  0  0
  -24.8688  -27.7037   19.4755 C   0  0  0  0  0  0
  -23.6201  -29.8276   20.1653 C   0  0  0  0  0  0
  -25.4119  -36.3112   24.0343 C   0  0  1  0  0  0
  -20.5863  -28.3663   23.1303 C   0  0  2  0  0  0
  -20.6765  -26.9389   22.5417 C   0  0  0  0  0  0
  -19.5743  -26.6373   21.5211 C   0  0  0  0  0  0
  -18.1919  -26.7916   22.1616 C   0  0  0  0  0  0
  -19.1520  -28.8837   23.2886 C   0  0  0  0  0  0
  -18.9446  -30.1450   23.8878 C   0  0  0  0  0  0
  -17.6446  -30.6573   24.0565 C   0  0  0  0  0  0
  -25.9043  -34.9466   23.5143 C   0  0  0  0  0  0
  -16.5337  -29.9067   23.6331 C   0  0  0  0  0  0
  -16.7260  -28.6497   23.0336 C   0  0  0  0  0  0
  -26.4469  -31.6582   25.0746 C   0  0  0  0  0  0
  -25.3701  -31.3661   26.1460 C   0  0  0  0  0  0
  -27.0326  -30.3018   24.6179 C   0  0  0  0  0  0
  -27.6075  -32.4294   25.7472 C   0  0  0  0  0  0
  -27.5596  -37.1814   24.8467 C   0  0  0  0  0  0
  -21.4165  -29.3023   22.3714 N   0  0  0  0  0  0
  -26.4310  -37.3794   23.9406 N   0  0  0  0  0  0
  -24.6783  -31.0687   22.1035 N   0  0  0  0  0  0
  -23.4186  -28.8165   23.3045 O   0  0  0  0  0  0
  -28.3854  -26.5899   20.1626 O   0  0  0  0  0  0
  -26.5611  -34.8916   22.4707 O   0  0  0  0  0  0
  -23.5377  -32.1439   23.7440 O   0  0  0  0  0  0
  -27.6029  -19.1995   19.2820 C   0  0  0  0  0  0
  -29.2752  -20.4508   20.5004 C   0  0  0  0  0  0
  -28.5808  -19.2212   20.2985 C   0  0  0  0  0  0
  -27.3521  -20.3203   18.4667 C   0  0  0  0  0  0
  -29.0195  -21.6231   19.7147 C   0  0  0  0  0  0
  -28.0819  -21.5222   18.6489 C   0  0  0  0  0  0
  -30.7497  -18.1162   23.2312 C   0  0  0  0  0  0
  -30.7939  -16.8579   22.3564 C   0  0  0  0  0  0
  -28.2640  -18.1770   22.6379 C   0  0  0  0  0  0
  -28.7522  -17.9394   21.1791 C   0  0  2  0  0  0
  -29.3231  -18.3497   23.7632 C   0  0  2  0  0  0
  -30.0815  -17.0742   20.9987 C   0  0  2  0  0  0
  -26.2831  -20.1978   17.3899 C   0  0  0  0  0  0
  -27.8736  -22.6597   17.6540 C   0  0  0  0  0  0
  -32.7311  -17.1451   18.2357 C   0  0  0  0  0  0
  -30.1910  -19.6368   25.7936 C   0  0  0  0  0  0
  -27.7497  -19.5838   25.3502 C   0  0  0  0  0  0
  -29.2614  -20.9273   23.8705 C   0  0  0  0  0  0
  -29.8632  -22.9124   19.9372 C   0  0  0  0  0  0
  -31.5637  -16.4753   17.4975 C   0  0  0  0  0  0
  -29.2475  -24.2193   20.5782 C   0  0  0  0  0  0
  -30.1758  -16.9775   17.9398 C   0  0  0  0  0  0
  -29.3660  -16.0384   18.8738 C   0  0  0  0  0  0
  -28.3888  -25.1990   19.7085 C   0  0  0  0  0  0
  -29.1352  -19.6153   24.6677 C   0  0  0  0  0  0
  -29.8922  -15.7778   20.2415 N   0  0  0  0  0  0
  -31.4684  -12.4664   19.1461 H   0  0  0  0  0  0
  -30.3703  -11.3943   19.9743 H   0  0  0  0  0  0
  -29.7331  -11.5100   17.5962 H   0  0  0  0  0  0
  -29.7111  -13.2303   17.5930 H   0  0  0  0  0  0
  -27.8086  -11.2645   18.8866 H   0  0  0  0  0  0
  -27.3795  -12.5358   17.7798 H   0  0  0  0  0  0
  -27.6078  -14.2238   19.4744 H   0  0  0  0  0  0
  -28.7067  -12.1531   21.4319 H   0  0  0  0  0  0
  -28.4630  -13.8582   21.7556 H   0  0  0  0  0  0
  -25.2745   -9.5640   22.4796 H   0  0  0  0  0  0
  -24.0015   -7.4572   22.7447 H   0  0  0  0  0  0
  -21.0854   -8.8713   19.8935 H   0  0  0  0  0  0
  -22.3679  -10.9649   19.6190 H   0  0  0  0  0  0
  -21.1977   -7.6149   23.9708 H   0  0  0  0  0  0
  -21.1500   -6.0546   25.9083 H   0  0  0  0  0  0
  -22.0601   -2.7613   23.2868 H   0  0  0  0  0  0
  -22.4087  -11.9858   22.4858 H   0  0  0  0  0  0
  -21.1063  -13.1160   22.2638 H   0  0  0  0  0  0
  -24.6642  -15.8451   20.5300 H   0  0  0  0  0  0
  -26.2882  -15.6210   20.1209 H   0  0  0  0  0  0
  -26.7143  -32.5476   23.1167 H   0  0  0  0  0  0
  -25.0017  -33.9762   25.0448 H   0  0  0  0  0  0
  -22.7036  -31.3087   21.4155 H   0  0  0  0  0  0
  -23.3757  -35.9647   23.3303 H   0  0  0  0  0  0
  -24.3592  -36.8946   22.2062 H   0  0  0  0  0  0
  -23.7240  -37.6520   23.6662 H   0  0  0  0  0  0
  -26.0743  -31.5747   20.6099 H   0  0  0  0  0  0
  -26.8306  -30.8574   22.0017 H   0  0  0  0  0  0
  -28.0997  -29.0233   21.1959 H   0  0  0  0  0  0
  -25.9882  -25.9948   18.9294 H   0  0  0  0  0  0
  -23.9796  -27.3319   18.9846 H   0  0  0  0  0  0
  -23.7259  -30.6070   19.4089 H   0  0  0  0  0  0
  -22.7409  -29.2508   19.8704 H   0  0  0  0  0  0
  -25.1290  -36.2006   25.0836 H   0  0  0  0  0  0
  -20.9945  -28.3235   24.1429 H   0  0  0  0  0  0
  -20.5670  -26.2262   23.3608 H   0  0  0  0  0  0
  -21.6636  -26.7429   22.1204 H   0  0  0  0  0  0
  -19.6903  -25.6282   21.1242 H   0  0  0  0  0  0
  -19.6686  -27.3184   20.6742 H   0  0  0  0  0  0
  -17.4189  -26.6653   21.4017 H   0  0  0  0  0  0
  -18.0318  -26.0056   22.9012 H   0  0  0  0  0  0
  -19.7924  -30.7284   24.2219 H   0  0  0  0  0  0
  -17.4994  -31.6242   24.5182 H   0  0  0  0  0  0
  -15.5337  -30.2960   23.7672 H   0  0  0  0  0  0
  -15.8665  -28.0830   22.7028 H   0  0  0  0  0  0
  -24.5930  -30.6962   25.7758 H   0  0  0  0  0  0
  -24.8793  -32.2771   26.4889 H   0  0  0  0  0  0
  -25.8018  -30.8835   27.0234 H   0  0  0  0  0  0
  -26.2901  -29.6731   24.1249 H   0  0  0  0  0  0
  -27.4095  -29.7312   25.4677 H   0  0  0  0  0  0
  -27.8732  -30.4325   23.9364 H   0  0  0  0  0  0
  -27.2778  -33.3642   26.2015 H   0  0  0  0  0  0
  -28.3871  -32.6766   25.0251 H   0  0  0  0  0  0
  -28.0748  -31.8415   26.5379 H   0  0  0  0  0  0
  -28.2617  -38.0115   24.7534 H   0  0  0  0  0  0
  -28.1098  -36.2643   24.6285 H   0  0  0  0  0  0
  -27.2302  -37.1468   25.8869 H   0  0  0  0  0  0
  -20.9341  -29.8765   21.6942 H   0  0  0  0  0  0
  -26.0210  -38.2885   24.1379 H   0  0  0  0  0  0
  -27.0241  -18.3017   19.1172 H   0  0  0  0  0  0
  -30.0277  -20.4908   21.2709 H   0  0  0  0  0  0
  -31.1099  -18.9770   22.6687 H   0  0  0  0  0  0
  -31.4398  -17.9812   24.0625 H   0  0  0  0  0  0
  -30.3436  -16.0282   22.9039 H   0  0  0  0  0  0
  -31.8368  -16.5839   22.1899 H   0  0  0  0  0  0
  -27.6752  -17.3020   22.9207 H   0  0  0  0  0  0
  -27.5301  -18.9809   22.6343 H   0  0  0  0  0  0
  -27.9522  -17.2900   20.8306 H   0  0  0  0  0  0
  -29.1534  -17.5065   24.4373 H   0  0  0  0  0  0
  -30.7790  -17.6899   20.4327 H   0  0  0  0  0  0
  -25.6398  -19.3341   17.5617 H   0  0  0  0  0  0
  -26.7355  -20.0887   16.4039 H   0  0  0  0  0  0
  -25.6399  -21.0783   17.3771 H   0  0  0  0  0  0
  -27.6890  -22.2773   16.6512 H   0  0  0  0  0  0
  -28.7496  -23.2935   17.5526 H   0  0  0  0  0  0
  -27.0198  -23.2744   17.9342 H   0  0  0  0  0  0
  -33.6846  -16.7630   17.8705 H   0  0  0  0  0  0
  -32.6950  -16.9612   19.3084 H   0  0  0  0  0  0
  -32.7287  -18.2251   18.0852 H   0  0  0  0  0  0
  -30.1866  -18.7087   26.3673 H   0  0  0  0  0  0
  -30.0069  -20.4511   26.4957 H   0  0  0  0  0  0
  -31.2006  -19.7856   25.4095 H   0  0  0  0  0  0
  -27.6046  -18.6695   25.9278 H   0  0  0  0  0  0
  -26.9301  -19.6479   24.6356 H   0  0  0  0  0  0
  -27.6246  -20.4201   26.0390 H   0  0  0  0  0  0
  -30.2429  -21.0185   23.4079 H   0  0  0  0  0  0
  -29.1334  -21.7992   24.5134 H   0  0  0  0  0  0
  -28.5088  -21.0055   23.0868 H   0  0  0  0  0  0
  -30.3799  -23.1661   19.0124 H   0  0  0  0  0  0
  -30.6748  -22.6137   20.6024 H   0  0  0  0  0  0
  -31.6273  -15.3909   17.5863 H   0  0  0  0  0  0
  -31.6847  -16.6862   16.4328 H   0  0  0  0  0  0
  -30.1081  -24.8081   20.8949 H   0  0  0  0  0  0
  -28.7223  -23.9768   21.5018 H   0  0  0  0  0  0
  -29.5767  -17.0821   17.0339 H   0  0  0  0  0  0
  -30.2346  -17.9957   18.3237 H   0  0  0  0  0  0
  -29.2463  -15.1115   18.3269 H   0  0  0  0  0  0
  -28.3474  -16.4107   18.9396 H   0  0  0  0  0  0
  -27.3983  -24.7554   19.6850 H   0  0  0  0  0  0
  -28.7669  -25.2164   18.6871 H   0  0  0  0  0  0
  1 25  1  0  0  0
  1 30  2  0  0  0
  1 96  1  0  0  0
  2  3  1  0  0  0
  2 25  1  0  0  0
  2 97  1  0  0  0
  2 98  1  0  0  0
  3  4  1  0  0  0
  3 99  1  0  0  0
  3100  1  0  0  0
  4  5  1  0  0  0
  4101  1  0  0  0
  4102  1  0  0  0
  5  6  1  0  0  0
  5 26  1  0  0  0
  5103  1  0  0  0
  6 25  1  0  0  0
  6104  1  0  0  0
  6105  1  0  0  0
  7  8  2  0  0  0
  7 26  1  0  0  0
  7 29  1  0  0  0
  8  9  1  0  0  0
  8 22  1  0  0  0
  9 10  1  0  0  0
  9 27  2  0  0  0
 10 11  2  0  0  0
 10 15  1  0  0  0
 11 12  1  0  0  0
 11106  1  0  0  0
 12 13  2  0  0  0
 12107  1  0  0  0
 13 14  1  0  0  0
 13 31  1  0  0  0
 14 15  2  0  0  0
 14108  1  0  0  0
 15109  1  0  0  0
 16 17  2  0  0  0
 16 21  1  0  0  0
 16 31  1  0  0  0
 17 18  1  0  0  0
 17110  1  0  0  0
 18 19  2  0  0  0
 18111  1  0  0  0
 19 20  1  0  0  0
 19 24  1  0  0  0
 20 21  2  0  0  0
 20112  1  0  0  0
 21 23  1  0  0  0
 22 28  1  0  0  0
 22 32  2  0  0  0
 26 27  1  0  0  0
 28113  1  0  0  0
 28114  1  0  0  0
 29115  1  0  0  0
 29116  1  0  0  0
 33 34  1  0  0  0
 33 66  1  0  0  0
 33 70  2  0  0  0
 34 36  1  0  0  0
 34 59  1  0  0  0
 34117  1  0  0  0
 35 44  2  0  0  0
 35 45  1  0  0  0
 35 68  1  0  0  0
 36 56  1  0  0  0
 36118  1  0  0  0
 37 39  1  0  0  0
 37 47  1  0  0  0
 37 66  1  0  0  0
 37119  1  0  0  0
 38 43  2  0  0  0
 38 46  1  0  0  0
 38 47  1  0  0  0
 39 64  1  0  0  0
 39 67  2  0  0  0
 40 52  1  0  0  0
 40 53  2  0  0  0
 40 58  1  0  0  0
 41120  1  0  0  0
 41121  1  0  0  0
 41122  1  0  0  0
 41 48  1  0  0  0
 42 43  1  0  0  0
 42 66  1  0  0  0
 42123  1  0  0  0
 42124  1  0  0  0
 43 44  1  0  0  0
 44125  1  0  0  0
 45 46  2  0  0  0
 45126  1  0  0  0
 46127  1  0  0  0
 47128  1  0  0  0
 47129  1  0  0  0
 48 56  1  0  0  0
 48 65  1  0  0  0
 48130  1  0  0  0
 49 50  1  0  0  0
 49 53  1  0  0  0
 49 64  1  0  0  0
 49131  1  0  0  0
 50 51  1  0  0  0
 50132  1  0  0  0
 50133  1  0  0  0
 51 52  1  0  0  0
 51134  1  0  0  0
 51135  1  0  0  0
 52136  1  0  0  0
 52137  1  0  0  0
 53 54  1  0  0  0
 54 55  2  0  0  0
 54138  1  0  0  0
 55 57  1  0  0  0
 55139  1  0  0  0
 56 69  2  0  0  0
 57 58  2  0  0  0
 57140  1  0  0  0
 58141  1  0  0  0
 59 60  1  0  0  0
 59 61  1  0  0  0
 59 62  1  0  0  0
 60142  1  0  0  0
 60143  1  0  0  0
 60144  1  0  0  0
 61145  1  0  0  0
 61146  1  0  0  0
 61147  1  0  0  0
 62148  1  0  0  0
 62149  1  0  0  0
 62150  1  0  0  0
 63 65  1  0  0  0
 63151  1  0  0  0
 63152  1  0  0  0
 63153  1  0  0  0
 64154  1  0  0  0
 65155  1  0  0  0
 68 94  1  0  0  0
 71 73  2  0  0  0
 71 74  1  0  0  0
 71156  1  0  0  0
 72 73  1  0  0  0
 72 75  2  0  0  0
 72157  1  0  0  0
 73 80  1  0  0  0
 74 76  2  0  0  0
 74 83  1  0  0  0
 75 76  1  0  0  0
 75 89  1  0  0  0
 76 84  1  0  0  0
 77 78  1  0  0  0
 77158  1  0  0  0
 77159  1  0  0  0
 77 81  1  0  0  0
 78 82  1  0  0  0
 78160  1  0  0  0
 78161  1  0  0  0
 79 80  1  0  0  0
 79 81  1  0  0  0
 79162  1  0  0  0
 79163  1  0  0  0
 80 82  1  0  0  0
 80164  1  0  0  0
 81 95  1  0  0  0
 81165  1  0  0  0
 82 96  1  0  0  0
 82166  1  0  0  0
 83167  1  0  0  0
 83168  1  0  0  0
 83169  1  0  0  0
 84170  1  0  0  0
 84171  1  0  0  0
 84172  1  0  0  0
 85 90  1  0  0  0
 85173  1  0  0  0
 85174  1  0  0  0
 85175  1  0  0  0
 86176  1  0  0  0
 86177  1  0  0  0
 86178  1  0  0  0
 86 95  1  0  0  0
 87 95  1  0  0  0
 87179  1  0  0  0
 87180  1  0  0  0
 87181  1  0  0  0
 88 95  1  0  0  0
 88182  1  0  0  0
 88183  1  0  0  0
 88184  1  0  0  0
 89 91  1  0  0  0
 89185  1  0  0  0
 89186  1  0  0  0
 90 92  1  0  0  0
 90187  1  0  0  0
 90188  1  0  0  0
 91 94  1  0  0  0
 91189  1  0  0  0
 91190  1  0  0  0
 92 93  1  0  0  0
 92191  1  0  0  0
 92192  1  0  0  0
 93 96  1  0  0  0
 93193  1  0  0  0
 93194  1  0  0  0
 94195  1  0  0  0
 94196  1  0  0  0
M  ISO  4   1 100  68 101  94 101  96 100
M  END
> <chiral flag>
0

> <version>
0

> <s_m_source_file>
/data/baiqing/PycharmProjects/Reinvent-master-3.2/result/LINK_invent/BTK/process_docking_weight1_custom_sum_contain_oxygen_bond_distance_aromatic_linkinvent_7_9_3/rearranged_h_0021.sdf

> <i_m_source_file_index>
88

> <r_mmod_Potential_Energy-OPLS-2005>
378.893341064453

> <r_mmod_Stretch_Energy-OPLS-2005>
77.7950210571289

> <r_mmod_Bend_Energy-OPLS-2005>
184.841537475586

> <r_mmod_Torsional_Energy-OPLS-2005>
403.796722412109

> <r_mmod_Improper_Torsional_Energy-OPLS-2005>
10.4144897460938

> <r_mmod_Van_der_Waal_Energy-OPLS-2005>
155.288818359375

> <r_mmod_Electrostatic_Energy-OPLS-2005>
-337.239410400391

> <r_mmod_Solvation_Energy-OPLS-2005>
-168.577590942383

> <b_mmod_Minimization_Converged-OPLS-2005>
0

> <r_mmod_RMS_Derivative-OPLS-2005>
2.27602100372314

$$$$
89
                    3D
 Structure written by MMmdl.
168176  0  0  1  0            999 V2000
  -30.6818  -14.4223   20.5763 C   0  0  0  0  0  0
  -30.4338  -12.2803   19.3917 C   0  0  0  0  0  0
  -29.4892  -12.4986   18.1893 C   0  0  0  0  0  0
  -28.0102  -12.3634   18.6078 C   0  0  0  0  0  0
  -27.6733  -13.1792   19.8835 C   0  0  2  0  0  0
  -28.7204  -12.9037   20.9893 C   0  0  0  0  0  0
  -25.2696  -13.8080   20.5669 C   0  0  0  0  0  0
  -24.1923  -13.0415   20.9176 C   0  0  0  0  0  0
  -24.6416  -11.6859   20.8738 C   0  0  0  0  0  0
  -23.9047  -10.4282   21.0423 C   0  0  0  0  0  0
  -24.3616   -9.4206   21.9199 C   0  0  0  0  0  0
  -23.6299   -8.2246   22.0769 C   0  0  0  0  0  0
  -22.4274   -8.0289   21.3551 C   0  0  0  0  0  0
  -21.9903   -9.0266   20.4650 C   0  0  0  0  0  0
  -22.7224  -10.2143   20.3064 C   0  0  0  0  0  0
  -21.6850   -6.0744   22.5283 C   0  0  0  0  0  0
  -21.4021   -6.5652   23.8214 C   0  0  0  0  0  0
  -21.3650   -5.6802   24.9168 C   0  0  0  0  0  0
  -21.6038   -4.3068   24.7218 C   0  0  0  0  0  0
  -21.8821   -3.8164   23.4336 C   0  0  0  0  0  0
  -21.9205   -4.6980   22.3397 C   0  0  0  0  0  0
  -22.7954  -13.5280   21.1810 C   0  0  0  0  0  0
  -22.1675   -4.2167   21.0974 F   0  0  0  0  0  0
  -21.5612   -3.4544   25.7725 F   0  0  0  0  0  0
  -30.0515  -13.2294   20.4407 N   0  0  0  0  0  0
  -26.3100  -12.9197   20.3414 N   0  0  0  0  0  0
  -25.9337  -11.6366   20.5811 N   0  0  0  0  0  0
  -22.0566  -12.8273   22.0347 N   0  0  0  0  0  0
  -25.4426  -15.1777   20.4037 N   0  0  0  0  0  0
  -31.7859  -14.6841   20.0843 O   0  0  0  0  0  0
  -21.6641   -6.8877   21.4236 O   0  0  0  0  0  0
  -22.3674  -14.5609   20.6671 O   0  0  0  0  0  0
  -24.6065  -31.8733   23.2151 C   0  0  0  0  0  0
  -25.8973  -32.4866   23.8431 C   0  0  1  0  0  0
  -27.2517  -27.4983   20.0746 C   0  0  0  0  0  0
  -25.5858  -33.8666   24.2361 N   0  0  0  0  0  0
  -23.3933  -30.4936   21.5534 C   0  0  2  0  0  0
  -24.8439  -28.9644   20.1163 C   0  0  0  0  0  0
  -22.7367  -29.4688   22.5038 C   0  0  0  0  0  0
  -18.0252  -28.1369   22.8507 C   0  0  0  0  0  0
  -24.1492  -36.7329   23.2640 C   0  0  0  0  0  0
  -25.9151  -30.8519   21.3633 C   0  0  0  0  0  0
  -25.9963  -29.4906   20.7119 C   0  0  0  0  0  0
  -27.1999  -28.7629   20.6992 C   0  0  0  0  0  0
  -26.0897  -26.9757   19.4713 C   0  0  0  0  0  0
  -24.8812  -27.6994   19.5006 C   0  0  0  0  0  0
  -23.6000  -29.8204   20.1695 C   0  0  0  0  0  0
  -25.4111  -36.3135   24.0349 C   0  0  1  0  0  0
  -20.5844  -28.3657   23.1335 C   0  0  2  0  0  0
  -20.6768  -26.9401   22.5395 C   0  0  0  0  0  0
  -19.5739  -26.6399   21.5200 C   0  0  0  0  0  0
  -18.1922  -26.7914   22.1622 C   0  0  0  0  0  0
  -19.1512  -28.8826   23.2911 C   0  0  0  0  0  0
  -18.9440  -30.1425   23.8923 C   0  0  0  0  0  0
  -17.6439  -30.6567   24.0580 C   0  0  0  0  0  0
  -25.9018  -34.9505   23.5156 C   0  0  0  0  0  0
  -16.5327  -29.9090   23.6314 C   0  0  0  0  0  0
  -16.7249  -28.6499   23.0348 C   0  0  0  0  0  0
  -26.4433  -31.6636   25.0747 C   0  0  0  0  0  0
  -25.3726  -31.3714   26.1511 C   0  0  0  0  0  0
  -27.0234  -30.3106   24.6079 C   0  0  0  0  0  0
  -27.6042  -32.4345   25.7474 C   0  0  0  0  0  0
  -27.5583  -37.1820   24.8468 C   0  0  0  0  0  0
  -21.4102  -29.3046   22.3766 N   0  0  0  0  0  0
  -26.4300  -37.3813   23.9405 N   0  0  0  0  0  0
  -24.6566  -31.0862   22.1029 N   0  0  0  0  0  0
  -23.4151  -28.8221   23.3068 O   0  0  0  0  0  0
  -28.4033  -26.7517   20.0509 O   0  0  0  0  0  0
  -26.5580  -34.8936   22.4721 O   0  0  0  0  0  0
  -23.5273  -32.1469   23.7558 O   0  0  0  0  0  0
  -26.2352  -25.5174   23.9101 C   0  0  0  0  0  0
  -27.9333  -25.6217   22.1606 C   0  0  0  0  0  0
  -26.6164  -23.5720   22.4758 C   0  0  0  0  0  0
  -27.2469  -26.2228   23.2386 C   0  0  0  0  0  0
  -25.9096  -24.2034   23.5294 C   0  0  0  0  0  0
  -27.6306  -24.2905   21.7931 C   0  0  0  0  0  0
  -26.3235  -22.1245   22.0805 C   0  0  0  0  0  0
  -28.9281  -26.4362   21.3421 C   0  0  0  0  0  0
  -28.3281  -18.7113   20.1783 C   0  0  0  0  0  0
  -27.1478  -18.9923   19.2211 C   0  0  0  0  0  0
  -28.6035  -17.2038   20.2867 C   0  0  0  0  0  0
  -26.6549  -20.4436   19.2917 C   0  0  0  0  0  0
  -29.9358  -16.8003   20.9473 C   0  0  0  0  0  0
  -25.4759  -20.6628   20.2666 C   0  0  0  0  0  0
  -29.9071  -15.3559   21.1407 N   0  0  0  0  0  0
  -25.4895  -22.0168   20.8607 N   0  3  0  0  0  0
  -27.5444  -27.4879   23.6219 F   0  0  0  0  0  0
  -24.6335  -23.3982   24.3745 Cl  0  0  0  0  0  0
  -28.4769  -23.5525   20.4728 Cl  0  0  0  0  0  0
  -31.4748  -12.3995   19.0862 H   0  0  0  0  0  0
  -30.3476  -11.2604   19.7671 H   0  0  0  0  0  0
  -29.7169  -11.7822   17.3988 H   0  0  0  0  0  0
  -29.6539  -13.4869   17.7564 H   0  0  0  0  0  0
  -27.8051  -11.3062   18.7751 H   0  0  0  0  0  0
  -27.3589  -12.6685   17.7871 H   0  0  0  0  0  0
  -27.7322  -14.2301   19.6040 H   0  0  0  0  0  0
  -28.7082  -11.8509   21.2758 H   0  0  0  0  0  0
  -28.4931  -13.4462   21.9063 H   0  0  0  0  0  0
  -25.2752   -9.5693   22.4768 H   0  0  0  0  0  0
  -24.0007   -7.4642   22.7485 H   0  0  0  0  0  0
  -21.0832   -8.8770   19.8963 H   0  0  0  0  0  0
  -22.3682  -10.9680   19.6193 H   0  0  0  0  0  0
  -21.2027   -7.6163   23.9713 H   0  0  0  0  0  0
  -21.1459   -6.0533   25.9063 H   0  0  0  0  0  0
  -22.0613   -2.7622   23.2825 H   0  0  0  0  0  0
  -22.4194  -11.9943   22.4708 H   0  0  0  0  0  0
  -21.1203  -13.1327   22.2553 H   0  0  0  0  0  0
  -24.6689  -15.8223   20.5074 H   0  0  0  0  0  0
  -26.2788  -15.6090   20.0380 H   0  0  0  0  0  0
  -26.7052  -32.5598   23.1206 H   0  0  0  0  0  0
  -25.0027  -33.9838   25.0517 H   0  0  0  0  0  0
  -22.6800  -31.3075   21.4151 H   0  0  0  0  0  0
  -23.3744  -35.9662   23.3324 H   0  0  0  0  0  0
  -24.3582  -36.8914   22.2045 H   0  0  0  0  0  0
  -23.7225  -37.6555   23.6627 H   0  0  0  0  0  0
  -26.0211  -31.6195   20.5949 H   0  0  0  0  0  0
  -26.8053  -30.9074   21.9787 H   0  0  0  0  0  0
  -28.0877  -29.1762   21.1587 H   0  0  0  0  0  0
  -26.1225  -26.0077   18.9903 H   0  0  0  0  0  0
  -23.9935  -27.2860   19.0395 H   0  0  0  0  0  0
  -23.6981  -30.5932   19.4071 H   0  0  0  0  0  0
  -22.7276  -29.2326   19.8806 H   0  0  0  0  0  0
  -25.1271  -36.2035   25.0844 H   0  0  0  0  0  0
  -20.9934  -28.3203   24.1467 H   0  0  0  0  0  0
  -20.5717  -26.2246   23.3565 H   0  0  0  0  0  0
  -21.6639  -26.7487   22.1158 H   0  0  0  0  0  0
  -19.6903  -25.6336   21.1183 H   0  0  0  0  0  0
  -19.6649  -27.3260   20.6773 H   0  0  0  0  0  0
  -17.4188  -26.6666   21.4021 H   0  0  0  0  0  0
  -18.0322  -26.0036   22.9001 H   0  0  0  0  0  0
  -19.7908  -30.7247   24.2299 H   0  0  0  0  0  0
  -17.4989  -31.6250   24.5181 H   0  0  0  0  0  0
  -15.5342  -30.2984   23.7630 H   0  0  0  0  0  0
  -15.8654  -28.0830   22.7031 H   0  0  0  0  0  0
  -24.5886  -30.7082   25.7847 H   0  0  0  0  0  0
  -24.8926  -32.2864   26.5017 H   0  0  0  0  0  0
  -25.8099  -30.8847   27.0230 H   0  0  0  0  0  0
  -26.2730  -29.6920   24.1154 H   0  0  0  0  0  0
  -27.4031  -29.7305   25.4488 H   0  0  0  0  0  0
  -27.8572  -30.4424   23.9176 H   0  0  0  0  0  0
  -27.2688  -33.3631   26.2103 H   0  0  0  0  0  0
  -28.3806  -32.6915   25.0260 H   0  0  0  0  0  0
  -28.0753  -31.8430   26.5336 H   0  0  0  0  0  0
  -28.2630  -38.0100   24.7515 H   0  0  0  0  0  0
  -28.1061  -36.2630   24.6302 H   0  0  0  0  0  0
  -27.2305  -37.1486   25.8878 H   0  0  0  0  0  0
  -20.9256  -29.8762   21.6985 H   0  0  0  0  0  0
  -26.0211  -38.2908   24.1387 H   0  0  0  0  0  0
  -25.6968  -25.9978   24.7142 H   0  0  0  0  0  0
  -25.8548  -21.5791   22.8996 H   0  0  0  0  0  0
  -27.2735  -21.6121   21.9245 H   0  0  0  0  0  0
  -29.8401  -25.8557   21.2141 H   0  0  0  0  0  0
  -29.2365  -27.3369   21.8710 H   0  0  0  0  0  0
  -28.1173  -19.1050   21.1743 H   0  0  0  0  0  0
  -29.2110  -19.2372   19.8183 H   0  0  0  0  0  0
  -26.3128  -18.3104   19.4034 H   0  0  0  0  0  0
  -27.4849  -18.7798   18.2074 H   0  0  0  0  0  0
  -28.5699  -16.7643   19.2886 H   0  0  0  0  0  0
  -27.7817  -16.7636   20.8511 H   0  0  0  0  0  0
  -26.3250  -20.7577   18.2981 H   0  0  0  0  0  0
  -27.5020  -21.0854   19.5237 H   0  0  0  0  0  0
  -30.7819  -17.1052   20.3278 H   0  0  0  0  0  0
  -30.0566  -17.2745   21.9208 H   0  0  0  0  0  0
  -25.4622  -19.9189   21.0622 H   0  0  0  0  0  0
  -24.5466  -20.5270   19.7116 H   0  0  0  0  0  0
  -29.0390  -14.9941   21.5067 H   0  0  0  0  0  0
  -25.8153  -22.6737   20.1697 H   0  0  0  0  0  0
  -24.5461  -22.2766   21.0972 H   0  0  0  0  0  0
  1 25  1  0  0  0
  1 30  2  0  0  0
  1 85  1  0  0  0
  2  3  1  0  0  0
  2 25  1  0  0  0
  2 90  1  0  0  0
  2 91  1  0  0  0
  3  4  1  0  0  0
  3 92  1  0  0  0
  3 93  1  0  0  0
  4  5  1  0  0  0
  4 94  1  0  0  0
  4 95  1  0  0  0
  5  6  1  0  0  0
  5 26  1  0  0  0
  5 96  1  0  0  0
  6 25  1  0  0  0
  6 97  1  0  0  0
  6 98  1  0  0  0
  7  8  2  0  0  0
  7 26  1  0  0  0
  7 29  1  0  0  0
  8  9  1  0  0  0
  8 22  1  0  0  0
  9 10  1  0  0  0
  9 27  2  0  0  0
 10 11  2  0  0  0
 10 15  1  0  0  0
 11 12  1  0  0  0
 11 99  1  0  0  0
 12 13  2  0  0  0
 12100  1  0  0  0
 13 14  1  0  0  0
 13 31  1  0  0  0
 14 15  2  0  0  0
 14101  1  0  0  0
 15102  1  0  0  0
 16 17  2  0  0  0
 16 21  1  0  0  0
 16 31  1  0  0  0
 17 18  1  0  0  0
 17103  1  0  0  0
 18 19  2  0  0  0
 18104  1  0  0  0
 19 20  1  0  0  0
 19 24  1  0  0  0
 20 21  2  0  0  0
 20105  1  0  0  0
 21 23  1  0  0  0
 22 28  1  0  0  0
 22 32  2  0  0  0
 26 27  1  0  0  0
 28106  1  0  0  0
 28107  1  0  0  0
 29108  1  0  0  0
 29109  1  0  0  0
 33 34  1  0  0  0
 33 66  1  0  0  0
 33 70  2  0  0  0
 34 36  1  0  0  0
 34 59  1  0  0  0
 34110  1  0  0  0
 35 44  2  0  0  0
 35 45  1  0  0  0
 35 68  1  0  0  0
 36 56  1  0  0  0
 36111  1  0  0  0
 37 39  1  0  0  0
 37 47  1  0  0  0
 37 66  1  0  0  0
 37112  1  0  0  0
 38 43  2  0  0  0
 38 46  1  0  0  0
 38 47  1  0  0  0
 39 64  1  0  0  0
 39 67  2  0  0  0
 40 52  1  0  0  0
 40 53  2  0  0  0
 40 58  1  0  0  0
 41113  1  0  0  0
 41114  1  0  0  0
 41115  1  0  0  0
 41 48  1  0  0  0
 42 43  1  0  0  0
 42 66  1  0  0  0
 42116  1  0  0  0
 42117  1  0  0  0
 43 44  1  0  0  0
 44118  1  0  0  0
 45 46  2  0  0  0
 45119  1  0  0  0
 46120  1  0  0  0
 47121  1  0  0  0
 47122  1  0  0  0
 48 56  1  0  0  0
 48 65  1  0  0  0
 48123  1  0  0  0
 49 50  1  0  0  0
 49 53  1  0  0  0
 49 64  1  0  0  0
 49124  1  0  0  0
 50 51  1  0  0  0
 50125  1  0  0  0
 50126  1  0  0  0
 51 52  1  0  0  0
 51127  1  0  0  0
 51128  1  0  0  0
 52129  1  0  0  0
 52130  1  0  0  0
 53 54  1  0  0  0
 54 55  2  0  0  0
 54131  1  0  0  0
 55 57  1  0  0  0
 55132  1  0  0  0
 56 69  2  0  0  0
 57 58  2  0  0  0
 57133  1  0  0  0
 58134  1  0  0  0
 59 60  1  0  0  0
 59 61  1  0  0  0
 59 62  1  0  0  0
 60135  1  0  0  0
 60136  1  0  0  0
 60137  1  0  0  0
 61138  1  0  0  0
 61139  1  0  0  0
 61140  1  0  0  0
 62141  1  0  0  0
 62142  1  0  0  0
 62143  1  0  0  0
 63 65  1  0  0  0
 63144  1  0  0  0
 63145  1  0  0  0
 63146  1  0  0  0
 64147  1  0  0  0
 65148  1  0  0  0
 68 78  1  0  0  0
 71 74  2  0  0  0
 71 75  1  0  0  0
 71149  1  0  0  0
 72 74  1  0  0  0
 72 76  2  0  0  0
 72 78  1  0  0  0
 73 75  2  0  0  0
 73 76  1  0  0  0
 73 77  1  0  0  0
 74 87  1  0  0  0
 75 88  1  0  0  0
 76 89  1  0  0  0
 77 86  1  0  0  0
 77150  1  0  0  0
 77151  1  0  0  0
 78152  1  0  0  0
 78153  1  0  0  0
 79 80  1  0  0  0
 79 81  1  0  0  0
 79154  1  0  0  0
 79155  1  0  0  0
 80 82  1  0  0  0
 80156  1  0  0  0
 80157  1  0  0  0
 81 83  1  0  0  0
 81158  1  0  0  0
 81159  1  0  0  0
 82 84  1  0  0  0
 82160  1  0  0  0
 82161  1  0  0  0
 83 85  1  0  0  0
 83162  1  0  0  0
 83163  1  0  0  0
 84 86  1  0  0  0
 84164  1  0  0  0
 84165  1  0  0  0
 85166  1  0  0  0
 86167  1  0  0  0
 86168  1  0  0  0
M  CHG  1  86   1
M  ISO  4   1 100  68 101  78 101  85 100
M  END
> <chiral flag>
0

> <version>
0

> <s_m_source_file>
/data/baiqing/PycharmProjects/Reinvent-master-3.2/result/LINK_invent/BTK/process_docking_weight1_custom_sum_contain_oxygen_bond_distance_aromatic_linkinvent_7_9_3/rearranged_h_0021.sdf

> <i_m_source_file_index>
89

> <r_mmod_Potential_Energy-OPLS-2005>
-266.670013427734

> <r_mmod_Stretch_Energy-OPLS-2005>
32.4980659484863

> <r_mmod_Bend_Energy-OPLS-2005>
90.3164978027344

> <r_mmod_Torsional_Energy-OPLS-2005>
238.553039550781

> <r_mmod_Improper_Torsional_Energy-OPLS-2005>
5.51651191711426

> <r_mmod_Van_der_Waal_Energy-OPLS-2005>
140.261825561523

> <r_mmod_Electrostatic_Energy-OPLS-2005>
-312.799346923828

> <r_mmod_Solvation_Energy-OPLS-2005>
-469.719543457031

> <b_mmod_Minimization_Converged-OPLS-2005>
0

> <r_mmod_RMS_Derivative-OPLS-2005>
5.04230260848999

$$$$
90
                    3D
 Structure written by MMmdl.
156164  0  0  1  0            999 V2000
  -30.4012  -15.3195   20.3960 C   0  0  0  0  0  0
  -30.4392  -12.8542   19.5075 C   0  0  0  0  0  0
  -29.5317  -12.5754   18.2809 C   0  0  0  0  0  0
  -28.0885  -12.2829   18.7183 C   0  0  0  0  0  0
  -27.6055  -13.2712   19.8062 C   0  0  2  0  0  0
  -28.6399  -13.4754   20.9327 C   0  0  0  0  0  0
  -25.2381  -13.8205   20.5748 C   0  0  0  0  0  0
  -24.1749  -13.0401   20.9247 C   0  0  0  0  0  0
  -24.6410  -11.6885   20.8719 C   0  0  0  0  0  0
  -23.9103  -10.4257   21.0383 C   0  0  0  0  0  0
  -24.3633   -9.4176   21.9166 C   0  0  0  0  0  0
  -23.6279   -8.2244   22.0778 C   0  0  0  0  0  0
  -22.4266   -8.0279   21.3562 C   0  0  0  0  0  0
  -21.9895   -9.0274   20.4685 C   0  0  0  0  0  0
  -22.7263  -10.2117   20.3048 C   0  0  0  0  0  0
  -21.6879   -6.0716   22.5280 C   0  0  0  0  0  0
  -21.4036   -6.5624   23.8212 C   0  0  0  0  0  0
  -21.3632   -5.6780   24.9172 C   0  0  0  0  0  0
  -21.6028   -4.3049   24.7236 C   0  0  0  0  0  0
  -21.8818   -3.8138   23.4361 C   0  0  0  0  0  0
  -21.9201   -4.6939   22.3405 C   0  0  0  0  0  0
  -22.7772  -13.5160   21.1883 C   0  0  0  0  0  0
  -22.1667   -4.2110   21.0996 F   0  0  0  0  0  0
  -21.5608   -3.4533   25.7755 F   0  0  0  0  0  0
  -29.8494  -14.0070   20.2840 N   0  0  0  0  0  0
  -26.2810  -12.9489   20.3154 N   0  0  0  0  0  0
  -25.9345  -11.6597   20.5660 N   0  0  0  0  0  0
  -22.0467  -12.8170   22.0453 N   0  0  0  0  0  0
  -25.4026  -15.1945   20.4234 N   0  0  0  0  0  0
  -31.6394  -15.3060   20.3133 O   0  0  0  0  0  0
  -21.6655   -6.8855   21.4246 O   0  0  0  0  0  0
  -22.3454  -14.5466   20.6706 O   0  0  0  0  0  0
  -24.6669  -31.8185   23.1664 C   0  0  0  0  0  0
  -25.9358  -32.4546   23.8113 C   0  0  1  0  0  0
  -27.2203  -26.8887   20.2084 C   0  0  0  0  0  0
  -25.6052  -33.8363   24.2028 N   0  0  0  0  0  0
  -23.4803  -30.4240   21.5204 C   0  0  2  0  0  0
  -24.9371  -28.7993   20.1198 C   0  0  0  0  0  0
  -22.7713  -29.4373   22.4856 C   0  0  0  0  0  0
  -18.0339  -28.1411   22.8430 C   0  0  0  0  0  0
  -24.1496  -36.7212   23.2647 C   0  0  0  0  0  0
  -26.0497  -30.6137   21.3974 C   0  0  0  0  0  0
  -26.1203  -29.1958   20.7551 C   0  0  0  0  0  0
  -27.2594  -28.2653   20.7680 C   0  0  0  0  0  0
  -26.0083  -26.6484   19.5247 C   0  0  0  0  0  0
  -24.9110  -27.5493   19.4743 C   0  0  0  0  0  0
  -23.7255  -29.7352   20.1476 C   0  0  0  0  0  0
  -25.4135  -36.2952   24.0298 C   0  0  1  0  0  0
  -20.5969  -28.3646   23.1251 C   0  0  2  0  0  0
  -20.6815  -26.9386   22.5279 C   0  0  0  0  0  0
  -19.5750  -26.6459   21.5096 C   0  0  0  0  0  0
  -18.1965  -26.7967   22.1555 C   0  0  0  0  0  0
  -19.1614  -28.8826   23.2879 C   0  0  0  0  0  0
  -18.9538  -30.1402   23.8957 C   0  0  0  0  0  0
  -17.6542  -30.6525   24.0678 C   0  0  0  0  0  0
  -25.9104  -34.9343   23.4982 C   0  0  0  0  0  0
  -16.5416  -29.9104   23.6337 C   0  0  0  0  0  0
  -16.7323  -28.6582   23.0231 C   0  0  0  0  0  0
  -26.4603  -31.6480   25.0628 C   0  0  0  0  0  0
  -25.3746  -31.3757   26.1302 C   0  0  0  0  0  0
  -27.0478  -30.2848   24.6322 C   0  0  0  0  0  0
  -27.6057  -32.4290   25.7466 C   0  0  0  0  0  0
  -27.5560  -37.1759   24.8460 C   0  0  0  0  0  0
  -21.4383  -29.2990   22.3660 N   0  0  0  0  0  0
  -26.4262  -37.3708   23.9417 N   0  0  0  0  0  0
  -24.7547  -30.9800   22.0830 N   0  0  0  0  0  0
  -23.4271  -28.7961   23.3102 O   0  0  0  0  0  0
  -28.2364  -25.7875   20.2173 O   0  0  0  0  0  0
  -26.5685  -34.8897   22.4549 O   0  0  0  0  0  0
  -23.5759  -32.1191   23.6767 O   0  0  0  0  0  0
  -28.9460  -20.9140   20.7547 C   0  0  0  0  0  0
  -29.2726  -19.5267   20.1223 C   0  0  0  0  0  0
  -28.8185  -20.7648   22.1666 C   0  0  0  0  0  0
  -29.3168  -18.2652   22.2050 C   0  0  0  0  0  0
  -29.4877  -18.1361   20.7949 C   0  0  0  0  0  0
  -28.9898  -19.5090   22.8448 C   0  0  0  0  0  0
  -29.3907  -19.5561   18.6090 C   0  0  0  0  0  0
  -28.4883  -22.0109   22.9831 C   0  0  0  0  0  0
  -29.4287  -16.9933   23.0566 C   0  0  0  0  0  0
  -28.8296  -22.5672   20.0835 C   0  0  0  0  0  0
  -28.0461  -24.1668   20.5519 C   0  0  0  0  0  0
  -29.6139  -16.5887   20.2525 N   0  0  0  0  0  0
  -28.7739  -19.4915   24.5716 Cl  0  0  0  0  0  0
  -31.4448  -13.0926   19.1595 H   0  0  0  0  0  0
  -30.5401  -11.9618   20.1281 H   0  0  0  0  0  0
  -29.9272  -11.7495   17.6871 H   0  0  0  0  0  0
  -29.5345  -13.4459   17.6241 H   0  0  0  0  0  0
  -28.0598  -11.2642   19.1066 H   0  0  0  0  0  0
  -27.4165  -12.3013   17.8606 H   0  0  0  0  0  0
  -27.5084  -14.2259   19.2835 H   0  0  0  0  0  0
  -28.8337  -12.5540   21.4856 H   0  0  0  0  0  0
  -28.2603  -14.1997   21.6524 H   0  0  0  0  0  0
  -25.2771   -9.5648   22.4733 H   0  0  0  0  0  0
  -23.9966   -7.4633   22.7496 H   0  0  0  0  0  0
  -21.0820   -8.8811   19.9012 H   0  0  0  0  0  0
  -22.3721  -10.9660   19.6150 H   0  0  0  0  0  0
  -21.2071   -7.6137   23.9695 H   0  0  0  0  0  0
  -21.1432   -6.0525   25.9058 H   0  0  0  0  0  0
  -22.0616   -2.7604   23.2895 H   0  0  0  0  0  0
  -22.4157  -11.9840   22.4806 H   0  0  0  0  0  0
  -21.1132  -13.1243   22.2766 H   0  0  0  0  0  0
  -24.6401  -15.8436   20.5793 H   0  0  0  0  0  0
  -26.2488  -15.6509   20.1121 H   0  0  0  0  0  0
  -26.7408  -32.5075   23.0805 H   0  0  0  0  0  0
  -25.0210  -33.9381   25.0197 H   0  0  0  0  0  0
  -22.7911  -31.2548   21.3484 H   0  0  0  0  0  0
  -23.3744  -35.9549   23.3247 H   0  0  0  0  0  0
  -24.3593  -36.8900   22.2070 H   0  0  0  0  0  0
  -23.7238  -37.6394   23.6711 H   0  0  0  0  0  0
  -26.2107  -31.3408   20.5999 H   0  0  0  0  0  0
  -26.9201  -30.6877   22.0387 H   0  0  0  0  0  0
  -28.1616  -28.5697   21.2801 H   0  0  0  0  0  0
  -25.8896  -25.6937   19.0291 H   0  0  0  0  0  0
  -24.0240  -27.2338   18.9436 H   0  0  0  0  0  0
  -23.8969  -30.4985   19.3894 H   0  0  0  0  0  0
  -22.8344  -29.1983   19.8231 H   0  0  0  0  0  0
  -25.1318  -36.1751   25.0784 H   0  0  0  0  0  0
  -21.0049  -28.3102   24.1380 H   0  0  0  0  0  0
  -20.5770  -26.2217   23.3434 H   0  0  0  0  0  0
  -21.6680  -26.7481   22.0994 H   0  0  0  0  0  0
  -19.6892  -25.6421   21.0967 H   0  0  0  0  0  0
  -19.6661  -27.3426   20.6747 H   0  0  0  0  0  0
  -17.4237  -26.6764   21.3950 H   0  0  0  0  0  0
  -18.0367  -26.0085   22.8925 H   0  0  0  0  0  0
  -19.8034  -30.7136   24.2446 H   0  0  0  0  0  0
  -17.5118  -31.6106   24.5458 H   0  0  0  0  0  0
  -15.5426  -30.3003   23.7714 H   0  0  0  0  0  0
  -15.8725  -28.0983   22.6798 H   0  0  0  0  0  0
  -24.5935  -30.7067   25.7649 H   0  0  0  0  0  0
  -24.8938  -32.2960   26.4602 H   0  0  0  0  0  0
  -25.8037  -30.9037   27.0137 H   0  0  0  0  0  0
  -26.3121  -29.6514   24.1331 H   0  0  0  0  0  0
  -27.4014  -29.7220   25.4953 H   0  0  0  0  0  0
  -27.9063  -30.3997   23.9713 H   0  0  0  0  0  0
  -27.2577  -33.3616   26.1920 H   0  0  0  0  0  0
  -28.3979  -32.6773   25.0392 H   0  0  0  0  0  0
  -28.0583  -31.8469   26.5501 H   0  0  0  0  0  0
  -28.2545  -38.0084   24.7520 H   0  0  0  0  0  0
  -28.1077  -36.2595   24.6261 H   0  0  0  0  0  0
  -27.2286  -37.1419   25.8869 H   0  0  0  0  0  0
  -20.9691  -29.8755   21.6809 H   0  0  0  0  0  0
  -26.0098  -38.2762   24.1425 H   0  0  0  0  0  0
  -28.4120  -19.7210   18.1560 H   0  0  0  0  0  0
  -29.8033  -18.6319   18.1999 H   0  0  0  0  0  0
  -30.0368  -20.3761   18.2991 H   0  0  0  0  0  0
  -27.4824  -22.3405   22.7192 H   0  0  0  0  0  0
  -29.2190  -22.7888   22.7691 H   0  0  0  0  0  0
  -28.5053  -21.9156   24.0678 H   0  0  0  0  0  0
  -30.4096  -16.5405   22.9165 H   0  0  0  0  0  0
  -28.6686  -16.2784   22.7482 H   0  0  0  0  0  0
  -29.3068  -17.1084   24.1320 H   0  0  0  0  0  0
  -28.5062  -22.4052   19.0536 H   0  0  0  0  0  0
  -29.8806  -22.8355   19.9760 H   0  0  0  0  0  0
  -28.1918  -24.2441   21.6239 H   0  0  0  0  0  0
  -26.9765  -23.9879   20.4698 H   0  0  0  0  0  0
  -28.7279  -16.3148   19.8533 H   0  0  0  0  0  0
  1 25  1  0  0  0
  1 30  2  0  0  0
  1 82  1  0  0  0
  2  3  1  0  0  0
  2 25  1  0  0  0
  2 84  1  0  0  0
  2 85  1  0  0  0
  3  4  1  0  0  0
  3 86  1  0  0  0
  3 87  1  0  0  0
  4  5  1  0  0  0
  4 88  1  0  0  0
  4 89  1  0  0  0
  5  6  1  0  0  0
  5 26  1  0  0  0
  5 90  1  0  0  0
  6 25  1  0  0  0
  6 91  1  0  0  0
  6 92  1  0  0  0
  7  8  2  0  0  0
  7 26  1  0  0  0
  7 29  1  0  0  0
  8  9  1  0  0  0
  8 22  1  0  0  0
  9 10  1  0  0  0
  9 27  2  0  0  0
 10 11  2  0  0  0
 10 15  1  0  0  0
 11 12  1  0  0  0
 11 93  1  0  0  0
 12 13  2  0  0  0
 12 94  1  0  0  0
 13 14  1  0  0  0
 13 31  1  0  0  0
 14 15  2  0  0  0
 14 95  1  0  0  0
 15 96  1  0  0  0
 16 17  2  0  0  0
 16 21  1  0  0  0
 16 31  1  0  0  0
 17 18  1  0  0  0
 17 97  1  0  0  0
 18 19  2  0  0  0
 18 98  1  0  0  0
 19 20  1  0  0  0
 19 24  1  0  0  0
 20 21  2  0  0  0
 20 99  1  0  0  0
 21 23  1  0  0  0
 22 28  1  0  0  0
 22 32  2  0  0  0
 26 27  1  0  0  0
 28100  1  0  0  0
 28101  1  0  0  0
 29102  1  0  0  0
 29103  1  0  0  0
 33 34  1  0  0  0
 33 66  1  0  0  0
 33 70  2  0  0  0
 34 36  1  0  0  0
 34 59  1  0  0  0
 34104  1  0  0  0
 35 44  2  0  0  0
 35 45  1  0  0  0
 35 68  1  0  0  0
 36 56  1  0  0  0
 36105  1  0  0  0
 37 39  1  0  0  0
 37 47  1  0  0  0
 37 66  1  0  0  0
 37106  1  0  0  0
 38 43  2  0  0  0
 38 46  1  0  0  0
 38 47  1  0  0  0
 39 64  1  0  0  0
 39 67  2  0  0  0
 40 52  1  0  0  0
 40 53  2  0  0  0
 40 58  1  0  0  0
 41107  1  0  0  0
 41108  1  0  0  0
 41109  1  0  0  0
 41 48  1  0  0  0
 42 43  1  0  0  0
 42 66  1  0  0  0
 42110  1  0  0  0
 42111  1  0  0  0
 43 44  1  0  0  0
 44112  1  0  0  0
 45 46  2  0  0  0
 45113  1  0  0  0
 46114  1  0  0  0
 47115  1  0  0  0
 47116  1  0  0  0
 48 56  1  0  0  0
 48 65  1  0  0  0
 48117  1  0  0  0
 49 50  1  0  0  0
 49 53  1  0  0  0
 49 64  1  0  0  0
 49118  1  0  0  0
 50 51  1  0  0  0
 50119  1  0  0  0
 50120  1  0  0  0
 51 52  1  0  0  0
 51121  1  0  0  0
 51122  1  0  0  0
 52123  1  0  0  0
 52124  1  0  0  0
 53 54  1  0  0  0
 54 55  2  0  0  0
 54125  1  0  0  0
 55 57  1  0  0  0
 55126  1  0  0  0
 56 69  2  0  0  0
 57 58  2  0  0  0
 57127  1  0  0  0
 58128  1  0  0  0
 59 60  1  0  0  0
 59 61  1  0  0  0
 59 62  1  0  0  0
 60129  1  0  0  0
 60130  1  0  0  0
 60131  1  0  0  0
 61132  1  0  0  0
 61133  1  0  0  0
 61134  1  0  0  0
 62135  1  0  0  0
 62136  1  0  0  0
 62137  1  0  0  0
 63 65  1  0  0  0
 63138  1  0  0  0
 63139  1  0  0  0
 63140  1  0  0  0
 64141  1  0  0  0
 65142  1  0  0  0
 68 81  1  0  0  0
 71 72  2  0  0  0
 71 73  1  0  0  0
 71 80  1  0  0  0
 72 75  1  0  0  0
 72 77  1  0  0  0
 73 76  2  0  0  0
 73 78  1  0  0  0
 74 75  2  0  0  0
 74 76  1  0  0  0
 74 79  1  0  0  0
 75 82  1  0  0  0
 76 83  1  0  0  0
 77143  1  0  0  0
 77144  1  0  0  0
 77145  1  0  0  0
 78146  1  0  0  0
 78147  1  0  0  0
 78148  1  0  0  0
 79149  1  0  0  0
 79150  1  0  0  0
 79151  1  0  0  0
 80 81  1  0  0  0
 80152  1  0  0  0
 80153  1  0  0  0
 81154  1  0  0  0
 81155  1  0  0  0
 82156  1  0  0  0
M  ISO  4   1 100  68 101  81 101  82 100
M  END
> <chiral flag>
0

> <version>
0

> <s_m_source_file>
/data/baiqing/PycharmProjects/Reinvent-master-3.2/result/LINK_invent/BTK/process_docking_weight1_custom_sum_contain_oxygen_bond_distance_aromatic_linkinvent_7_9_3/rearranged_h_0021.sdf

> <i_m_source_file_index>
90

> <r_mmod_Potential_Energy-OPLS-2005>
1470.83911132812

> <r_mmod_Stretch_Energy-OPLS-2005>
671.453796386719

> <r_mmod_Bend_Energy-OPLS-2005>
452.041198730469

> <r_mmod_Torsional_Energy-OPLS-2005>
267.808502197266

> <r_mmod_Improper_Torsional_Energy-OPLS-2005>
12.0181379318237

> <r_mmod_Van_der_Waal_Energy-OPLS-2005>
145.389312744141

> <r_mmod_Electrostatic_Energy-OPLS-2005>
-388.671356201172

> <r_mmod_Solvation_Energy-OPLS-2005>
-207.598190307617

> <b_mmod_Minimization_Converged-OPLS-2005>
0

> <r_mmod_RMS_Derivative-OPLS-2005>
4.92429637908936

$$$$
91
                    3D
 Structure written by MMmdl.
171179  0  0  1  0            999 V2000
  -30.7594  -14.3695   20.6648 C   0  0  0  0  0  0
  -30.4160  -12.2832   19.3978 C   0  0  0  0  0  0
  -29.4859  -12.5246   18.1943 C   0  0  0  0  0  0
  -28.0095  -12.3809   18.6095 C   0  0  0  0  0  0
  -27.6664  -13.2025   19.8803 C   0  0  2  0  0  0
  -28.7036  -12.9424   20.9950 C   0  0  0  0  0  0
  -25.2598  -13.8154   20.5663 C   0  0  0  0  0  0
  -24.1845  -13.0438   20.9161 C   0  0  0  0  0  0
  -24.6393  -11.6902   20.8725 C   0  0  0  0  0  0
  -23.9060  -10.4291   21.0401 C   0  0  0  0  0  0
  -24.3613   -9.4209   21.9181 C   0  0  0  0  0  0
  -23.6288   -8.2245   22.0755 C   0  0  0  0  0  0
  -22.4270   -8.0283   21.3546 C   0  0  0  0  0  0
  -21.9906   -9.0256   20.4648 C   0  0  0  0  0  0
  -22.7232  -10.2133   20.3052 C   0  0  0  0  0  0
  -21.6851   -6.0735   22.5279 C   0  0  0  0  0  0
  -21.4016   -6.5641   23.8214 C   0  0  0  0  0  0
  -21.3660   -5.6792   24.9178 C   0  0  0  0  0  0
  -21.6041   -4.3052   24.7226 C   0  0  0  0  0  0
  -21.8820   -3.8148   23.4347 C   0  0  0  0  0  0
  -21.9193   -4.6965   22.3402 C   0  0  0  0  0  0
  -22.7870  -13.5240   21.1835 C   0  0  0  0  0  0
  -22.1660   -4.2147   21.0978 F   0  0  0  0  0  0
  -21.5629   -3.4539   25.7741 F   0  0  0  0  0  0
  -30.0471  -13.2320   20.4578 N   0  0  0  0  0  0
  -26.3042  -12.9322   20.3372 N   0  0  0  0  0  0
  -25.9317  -11.6482   20.5754 N   0  0  0  0  0  0
  -22.0510  -12.8233   22.0389 N   0  0  0  0  0  0
  -25.4319  -15.1872   20.4058 N   0  0  0  0  0  0
  -31.8020  -14.6365   20.0586 O   0  0  0  0  0  0
  -21.6638   -6.8878   21.4241 O   0  0  0  0  0  0
  -22.3555  -14.5549   20.6687 O   0  0  0  0  0  0
  -24.6118  -31.8695   23.2107 C   0  0  0  0  0  0
  -25.9023  -32.4827   23.8389 C   0  0  1  0  0  0
  -27.2380  -27.4623   20.0887 C   0  0  0  0  0  0
  -25.5886  -33.8620   24.2324 N   0  0  0  0  0  0
  -23.3972  -30.4914   21.5521 C   0  0  2  0  0  0
  -24.8420  -28.9539   20.1214 C   0  0  0  0  0  0
  -22.7391  -29.4659   22.5021 C   0  0  0  0  0  0
  -18.0266  -28.1363   22.8497 C   0  0  0  0  0  0
  -24.1489  -36.7323   23.2638 C   0  0  0  0  0  0
  -25.9221  -30.8427   21.3591 C   0  0  0  0  0  0
  -25.9991  -29.4766   20.7114 C   0  0  0  0  0  0
  -27.1993  -28.7376   20.6899 C   0  0  0  0  0  0
  -26.0634  -26.9420   19.5010 C   0  0  0  0  0  0
  -24.8660  -27.6842   19.5164 C   0  0  0  0  0  0
  -23.6035  -29.8198   20.1683 C   0  0  0  0  0  0
  -25.4104  -36.3114   24.0340 C   0  0  1  0  0  0
  -20.5853  -28.3644   23.1346 C   0  0  2  0  0  0
  -20.6760  -26.9388   22.5433 C   0  0  0  0  0  0
  -19.5740  -26.6380   21.5219 C   0  0  0  0  0  0
  -18.1913  -26.7913   22.1620 C   0  0  0  0  0  0
  -19.1512  -28.8819   23.2917 C   0  0  0  0  0  0
  -18.9446  -30.1434   23.8924 C   0  0  0  0  0  0
  -17.6445  -30.6577   24.0564 C   0  0  0  0  0  0
  -25.9028  -34.9478   23.5132 C   0  0  0  0  0  0
  -16.5337  -29.9078   23.6324 C   0  0  0  0  0  0
  -16.7260  -28.6494   23.0347 C   0  0  0  0  0  0
  -26.4462  -31.6598   25.0706 C   0  0  0  0  0  0
  -25.3734  -31.3700   26.1460 C   0  0  0  0  0  0
  -27.0282  -30.3040   24.6048 C   0  0  0  0  0  0
  -27.6044  -32.4315   25.7466 C   0  0  0  0  0  0
  -27.5581  -37.1810   24.8458 C   0  0  0  0  0  0
  -21.4125  -29.3013   22.3763 N   0  0  0  0  0  0
  -26.4292  -37.3791   23.9411 N   0  0  0  0  0  0
  -24.6617  -31.0823   22.0995 N   0  0  0  0  0  0
  -23.4188  -28.8211   23.3050 O   0  0  0  0  0  0
  -28.4468  -26.8140   20.0230 O   0  0  0  0  0  0
  -26.5598  -34.8938   22.4695 O   0  0  0  0  0  0
  -23.5323  -32.1437   23.7524 O   0  0  0  0  0  0
  -30.1002  -17.6141   21.2599 C   0  0  0  0  0  0
  -31.8243  -16.6999   22.7511 C   0  0  0  0  0  0
  -31.6867  -19.1223   22.3653 C   0  0  0  0  0  0
  -30.7346  -16.5017   21.8632 C   0  0  0  0  0  0
  -30.5848  -18.9140   21.5122 C   0  0  0  0  0  0
  -32.3044  -18.0122   22.9931 C   0  0  0  0  0  0
  -28.9175  -17.4178   20.3226 C   0  0  0  0  0  0
  -32.5039  -15.5141   23.4295 C   0  0  0  0  0  0
  -32.3330  -22.9491   24.7572 C   0  0  0  0  0  0
  -32.1918  -20.5499   22.5536 C   0  0  0  0  0  0
  -29.8189  -23.9159   21.8961 C   0  0  0  0  0  0
  -29.0001  -25.2050   21.7112 C   0  0  0  0  0  0
  -30.4284  -23.8056   23.3087 C   0  0  0  0  0  0
  -28.5055  -25.4124   20.2708 C   0  0  0  0  0  0
  -31.6122  -22.8195   23.4020 C   0  0  2  0  0  0
  -30.2499  -15.1968   21.5885 N   0  0  0  0  0  0
  -31.1689  -21.4255   23.1659 N   0  3  0  0  0  0
  -29.9852  -19.9903   20.9432 F   0  0  0  0  0  0
  -33.6592  -18.2455   24.0501 Cl  0  0  0  0  0  0
  -31.4604  -12.3779   19.0951 H   0  0  0  0  0  0
  -30.3079  -11.2613   19.7641 H   0  0  0  0  0  0
  -29.7183  -11.8247   17.3906 H   0  0  0  0  0  0
  -29.6583  -13.5238   17.7906 H   0  0  0  0  0  0
  -27.8152  -11.3225   18.7882 H   0  0  0  0  0  0
  -27.3571  -12.6737   17.7860 H   0  0  0  0  0  0
  -27.7256  -14.2570   19.6093 H   0  0  0  0  0  0
  -28.6627  -11.8981   21.3090 H   0  0  0  0  0  0
  -28.4522  -13.5159   21.8873 H   0  0  0  0  0  0
  -25.2762   -9.5684   22.4750 H   0  0  0  0  0  0
  -24.0000   -7.4638   22.7475 H   0  0  0  0  0  0
  -21.0838   -8.8773   19.8953 H   0  0  0  0  0  0
  -22.3695  -10.9670   19.6158 H   0  0  0  0  0  0
  -21.2009   -7.6151   23.9716 H   0  0  0  0  0  0
  -21.1480   -6.0525   25.9078 H   0  0  0  0  0  0
  -22.0599   -2.7610   23.2848 H   0  0  0  0  0  0
  -22.4123  -11.9889   22.4769 H   0  0  0  0  0  0
  -21.1131  -13.1265   22.2602 H   0  0  0  0  0  0
  -24.6639  -15.8418   20.5071 H   0  0  0  0  0  0
  -26.2826  -15.6222   20.0733 H   0  0  0  0  0  0
  -26.7098  -32.5553   23.1166 H   0  0  0  0  0  0
  -25.0038  -33.9773   25.0467 H   0  0  0  0  0  0
  -22.6842  -31.3066   21.4118 H   0  0  0  0  0  0
  -23.3746  -35.9661   23.3304 H   0  0  0  0  0  0
  -24.3593  -36.8925   22.2053 H   0  0  0  0  0  0
  -23.7245  -37.6529   23.6652 H   0  0  0  0  0  0
  -26.0269  -31.6081   20.5894 H   0  0  0  0  0  0
  -26.8144  -30.9003   21.9707 H   0  0  0  0  0  0
  -28.1005  -29.1428   21.1287 H   0  0  0  0  0  0
  -26.0697  -25.9863   18.9975 H   0  0  0  0  0  0
  -23.9777  -27.2806   19.0500 H   0  0  0  0  0  0
  -23.7102  -30.5917   19.4047 H   0  0  0  0  0  0
  -22.7286  -29.2356   19.8763 H   0  0  0  0  0  0
  -25.1278  -36.1988   25.0832 H   0  0  0  0  0  0
  -20.9941  -28.3209   24.1463 H   0  0  0  0  0  0
  -20.5676  -26.2242   23.3610 H   0  0  0  0  0  0
  -21.6629  -26.7444   22.1212 H   0  0  0  0  0  0
  -19.6906  -25.6300   21.1224 H   0  0  0  0  0  0
  -19.6680  -27.3217   20.6773 H   0  0  0  0  0  0
  -17.4186  -26.6685   21.4016 H   0  0  0  0  0  0
  -18.0294  -26.0046   22.9005 H   0  0  0  0  0  0
  -19.7924  -30.7233   24.2310 H   0  0  0  0  0  0
  -17.5004  -31.6265   24.5156 H   0  0  0  0  0  0
  -15.5341  -30.2985   23.7628 H   0  0  0  0  0  0
  -15.8660  -28.0823   22.7040 H   0  0  0  0  0  0
  -24.5903  -30.7054   25.7797 H   0  0  0  0  0  0
  -24.8940  -32.2859   26.4921 H   0  0  0  0  0  0
  -25.8093  -30.8856   27.0204 H   0  0  0  0  0  0
  -26.2800  -29.6811   24.1126 H   0  0  0  0  0  0
  -27.4081  -29.7264   25.4486 H   0  0  0  0  0  0
  -27.8633  -30.4351   23.9158 H   0  0  0  0  0  0
  -27.2651  -33.3602   26.2074 H   0  0  0  0  0  0
  -28.3844  -32.6896   25.0285 H   0  0  0  0  0  0
  -28.0730  -31.8416   26.5357 H   0  0  0  0  0  0
  -28.2595  -38.0113   24.7520 H   0  0  0  0  0  0
  -28.1086  -36.2646   24.6271 H   0  0  0  0  0  0
  -27.2312  -37.1442   25.8864 H   0  0  0  0  0  0
  -20.9287  -29.8721   21.6975 H   0  0  0  0  0  0
  -26.0194  -38.2872   24.1411 H   0  0  0  0  0  0
  -29.2215  -16.8451   19.4460 H   0  0  0  0  0  0
  -28.5075  -18.3650   19.9720 H   0  0  0  0  0  0
  -28.1164  -16.8781   20.8274 H   0  0  0  0  0  0
  -31.8698  -14.6302   23.4716 H   0  0  0  0  0  0
  -32.7700  -15.7431   24.4606 H   0  0  0  0  0  0
  -33.4151  -15.2519   22.8917 H   0  0  0  0  0  0
  -32.6636  -23.9752   24.9247 H   0  0  0  0  0  0
  -33.2210  -22.3182   24.8057 H   0  0  0  0  0  0
  -31.6825  -22.6772   25.5891 H   0  0  0  0  0  0
  -32.4592  -20.9433   21.5716 H   0  0  0  0  0  0
  -33.1035  -20.5896   23.1451 H   0  0  0  0  0  0
  -30.6228  -23.9156   21.1579 H   0  0  0  0  0  0
  -29.1984  -23.0454   21.6766 H   0  0  0  0  0  0
  -29.6349  -26.0502   21.9825 H   0  0  0  0  0  0
  -28.1543  -25.2301   22.3992 H   0  0  0  0  0  0
  -29.6554  -23.5580   24.0378 H   0  0  0  0  0  0
  -30.7996  -24.7906   23.5972 H   0  0  0  0  0  0
  -27.5755  -24.8712   20.1023 H   0  0  0  0  0  0
  -29.2288  -25.0054   19.5636 H   0  0  0  0  0  0
  -32.3245  -23.0977   22.6224 H   0  0  0  0  0  0
  -29.3782  -14.9205   22.0144 H   0  0  0  0  0  0
  -30.8439  -21.0225   24.0302 H   0  0  0  0  0  0
  -30.3945  -21.4386   22.5188 H   0  0  0  0  0  0
  1 25  1  0  0  0
  1 30  2  0  0  0
  1 86  1  0  0  0
  2  3  1  0  0  0
  2 25  1  0  0  0
  2 90  1  0  0  0
  2 91  1  0  0  0
  3  4  1  0  0  0
  3 92  1  0  0  0
  3 93  1  0  0  0
  4  5  1  0  0  0
  4 94  1  0  0  0
  4 95  1  0  0  0
  5  6  1  0  0  0
  5 26  1  0  0  0
  5 96  1  0  0  0
  6 25  1  0  0  0
  6 97  1  0  0  0
  6 98  1  0  0  0
  7  8  2  0  0  0
  7 26  1  0  0  0
  7 29  1  0  0  0
  8  9  1  0  0  0
  8 22  1  0  0  0
  9 10  1  0  0  0
  9 27  2  0  0  0
 10 11  2  0  0  0
 10 15  1  0  0  0
 11 12  1  0  0  0
 11 99  1  0  0  0
 12 13  2  0  0  0
 12100  1  0  0  0
 13 14  1  0  0  0
 13 31  1  0  0  0
 14 15  2  0  0  0
 14101  1  0  0  0
 15102  1  0  0  0
 16 17  2  0  0  0
 16 21  1  0  0  0
 16 31  1  0  0  0
 17 18  1  0  0  0
 17103  1  0  0  0
 18 19  2  0  0  0
 18104  1  0  0  0
 19 20  1  0  0  0
 19 24  1  0  0  0
 20 21  2  0  0  0
 20105  1  0  0  0
 21 23  1  0  0  0
 22 28  1  0  0  0
 22 32  2  0  0  0
 26 27  1  0  0  0
 28106  1  0  0  0
 28107  1  0  0  0
 29108  1  0  0  0
 29109  1  0  0  0
 33 34  1  0  0  0
 33 66  1  0  0  0
 33 70  2  0  0  0
 34 36  1  0  0  0
 34 59  1  0  0  0
 34110  1  0  0  0
 35 44  2  0  0  0
 35 45  1  0  0  0
 35 68  1  0  0  0
 36 56  1  0  0  0
 36111  1  0  0  0
 37 39  1  0  0  0
 37 47  1  0  0  0
 37 66  1  0  0  0
 37112  1  0  0  0
 38 43  2  0  0  0
 38 46  1  0  0  0
 38 47  1  0  0  0
 39 64  1  0  0  0
 39 67  2  0  0  0
 40 52  1  0  0  0
 40 53  2  0  0  0
 40 58  1  0  0  0
 41113  1  0  0  0
 41114  1  0  0  0
 41115  1  0  0  0
 41 48  1  0  0  0
 42 43  1  0  0  0
 42 66  1  0  0  0
 42116  1  0  0  0
 42117  1  0  0  0
 43 44  1  0  0  0
 44118  1  0  0  0
 45 46  2  0  0  0
 45119  1  0  0  0
 46120  1  0  0  0
 47121  1  0  0  0
 47122  1  0  0  0
 48 56  1  0  0  0
 48 65  1  0  0  0
 48123  1  0  0  0
 49 50  1  0  0  0
 49 53  1  0  0  0
 49 64  1  0  0  0
 49124  1  0  0  0
 50 51  1  0  0  0
 50125  1  0  0  0
 50126  1  0  0  0
 51 52  1  0  0  0
 51127  1  0  0  0
 51128  1  0  0  0
 52129  1  0  0  0
 52130  1  0  0  0
 53 54  1  0  0  0
 54 55  2  0  0  0
 54131  1  0  0  0
 55 57  1  0  0  0
 55132  1  0  0  0
 56 69  2  0  0  0
 57 58  2  0  0  0
 57133  1  0  0  0
 58134  1  0  0  0
 59 60  1  0  0  0
 59 61  1  0  0  0
 59 62  1  0  0  0
 60135  1  0  0  0
 60136  1  0  0  0
 60137  1  0  0  0
 61138  1  0  0  0
 61139  1  0  0  0
 61140  1  0  0  0
 62141  1  0  0  0
 62142  1  0  0  0
 62143  1  0  0  0
 63 65  1  0  0  0
 63144  1  0  0  0
 63145  1  0  0  0
 63146  1  0  0  0
 64147  1  0  0  0
 65148  1  0  0  0
 68 84  1  0  0  0
 71 74  2  0  0  0
 71 75  1  0  0  0
 71 77  1  0  0  0
 72 74  1  0  0  0
 72 76  2  0  0  0
 72 78  1  0  0  0
 73 75  2  0  0  0
 73 76  1  0  0  0
 73 80  1  0  0  0
 74 86  1  0  0  0
 75 88  1  0  0  0
 76 89  1  0  0  0
 77149  1  0  0  0
 77150  1  0  0  0
 77151  1  0  0  0
 78152  1  0  0  0
 78153  1  0  0  0
 78154  1  0  0  0
 79155  1  0  0  0
 79156  1  0  0  0
 79157  1  0  0  0
 79 85  1  0  0  0
 80 87  1  0  0  0
 80158  1  0  0  0
 80159  1  0  0  0
 81 82  1  0  0  0
 81 83  1  0  0  0
 81160  1  0  0  0
 81161  1  0  0  0
 82 84  1  0  0  0
 82162  1  0  0  0
 82163  1  0  0  0
 83 85  1  0  0  0
 83164  1  0  0  0
 83165  1  0  0  0
 84166  1  0  0  0
 84167  1  0  0  0
 85 87  1  0  0  0
 85168  1  0  0  0
 86169  1  0  0  0
 87170  1  0  0  0
 87171  1  0  0  0
M  CHG  1  87   1
M  ISO  4   1 100  68 101  84 101  86 100
M  END
> <chiral flag>
0

> <version>
0

> <s_m_source_file>
/data/baiqing/PycharmProjects/Reinvent-master-3.2/result/LINK_invent/BTK/process_docking_weight1_custom_sum_contain_oxygen_bond_distance_aromatic_linkinvent_7_9_3/rearranged_h_0021.sdf

> <i_m_source_file_index>
91

> <r_mmod_Potential_Energy-OPLS-2005>
-231.216156005859

> <r_mmod_Stretch_Energy-OPLS-2005>
33.9350204467773

> <r_mmod_Bend_Energy-OPLS-2005>
94.9506301879883

> <r_mmod_Torsional_Energy-OPLS-2005>
249.162017822266

> <r_mmod_Improper_Torsional_Energy-OPLS-2005>
2.29012942314148

> <r_mmod_Van_der_Waal_Energy-OPLS-2005>
159.745727539062

> <r_mmod_Electrostatic_Energy-OPLS-2005>
-341.923706054688

> <r_mmod_Solvation_Energy-OPLS-2005>
-436.701110839844

> <b_mmod_Minimization_Converged-OPLS-2005>
0

> <r_mmod_RMS_Derivative-OPLS-2005>
1.33295428752899

$$$$
92
                    3D
 Structure written by MMmdl.
150158  0  0  1  0            999 V2000
  -30.4277  -15.3090   20.3282 C   0  0  0  0  0  0
  -30.4367  -12.8154   19.5719 C   0  0  0  0  0  0
  -29.5578  -12.5218   18.3271 C   0  0  0  0  0  0
  -28.0915  -12.2882   18.7289 C   0  0  0  0  0  0
  -27.6137  -13.2799   19.8190 C   0  0  2  0  0  0
  -28.6328  -13.4877   20.9611 C   0  0  0  0  0  0
  -25.2380  -13.8292   20.5681 C   0  0  0  0  0  0
  -24.1750  -13.0488   20.9219 C   0  0  0  0  0  0
  -24.6413  -11.6975   20.8753 C   0  0  0  0  0  0
  -23.9100  -10.4348   21.0401 C   0  0  0  0  0  0
  -24.3667   -9.4271   21.9182 C   0  0  0  0  0  0
  -23.6345   -8.2299   22.0748 C   0  0  0  0  0  0
  -22.4326   -8.0329   21.3541 C   0  0  0  0  0  0
  -21.9962   -9.0294   20.4644 C   0  0  0  0  0  0
  -22.7276  -10.2180   20.3053 C   0  0  0  0  0  0
  -21.6875   -6.0771   22.5283 C   0  0  0  0  0  0
  -21.4023   -6.5654   23.8222 C   0  0  0  0  0  0
  -21.3659   -5.6796   24.9173 C   0  0  0  0  0  0
  -21.6046   -4.3054   24.7220 C   0  0  0  0  0  0
  -21.8815   -3.8164   23.4337 C   0  0  0  0  0  0
  -21.9200   -4.6987   22.3399 C   0  0  0  0  0  0
  -22.7769  -13.5228   21.1880 C   0  0  0  0  0  0
  -22.1671   -4.2169   21.0973 F   0  0  0  0  0  0
  -21.5623   -3.4541   25.7733 F   0  0  0  0  0  0
  -29.8691  -13.9908   20.3426 N   0  0  0  0  0  0
  -26.2819  -12.9580   20.3175 N   0  0  0  0  0  0
  -25.9350  -11.6672   20.5749 N   0  0  0  0  0  0
  -22.0427  -12.8207   22.0433 N   0  0  0  0  0  0
  -25.3979  -15.2033   20.4103 N   0  0  0  0  0  0
  -31.6384  -15.2824   20.0573 O   0  0  0  0  0  0
  -21.6657   -6.8938   21.4266 O   0  0  0  0  0  0
  -22.3430  -14.5512   20.6691 O   0  0  0  0  0  0
  -24.6658  -31.8170   23.1650 C   0  0  0  0  0  0
  -25.9314  -32.4552   23.8136 C   0  0  1  0  0  0
  -27.2202  -26.8873   20.1749 C   0  0  0  0  0  0
  -25.5970  -33.8373   24.2041 N   0  0  0  0  0  0
  -23.4829  -30.4254   21.5154 C   0  0  2  0  0  0
  -24.9368  -28.8017   20.1034 C   0  0  0  0  0  0
  -22.7671  -29.4400   22.4765 C   0  0  0  0  0  0
  -18.0323  -28.1408   22.8461 C   0  0  0  0  0  0
  -24.1495  -36.7200   23.2654 C   0  0  0  0  0  0
  -26.0525  -30.6045   21.4018 C   0  0  0  0  0  0
  -26.1176  -29.1912   20.7459 C   0  0  0  0  0  0
  -27.2456  -28.2522   20.7629 C   0  0  0  0  0  0
  -26.0153  -26.6583   19.4717 C   0  0  0  0  0  0
  -24.9128  -27.5578   19.4473 C   0  0  0  0  0  0
  -23.7234  -29.7342   20.1424 C   0  0  0  0  0  0
  -25.4138  -36.2954   24.0295 C   0  0  1  0  0  0
  -20.5947  -28.3757   23.1178 C   0  0  2  0  0  0
  -20.6797  -26.9431   22.5402 C   0  0  0  0  0  0
  -19.5777  -26.6371   21.5215 C   0  0  0  0  0  0
  -18.1958  -26.7940   22.1618 C   0  0  0  0  0  0
  -19.1582  -28.8907   23.2809 C   0  0  0  0  0  0
  -18.9498  -30.1495   23.8844 C   0  0  0  0  0  0
  -17.6493  -30.6602   24.0553 C   0  0  0  0  0  0
  -25.9096  -34.9335   23.4987 C   0  0  0  0  0  0
  -16.5382  -29.9086   23.6346 C   0  0  0  0  0  0
  -16.7303  -28.6506   23.0362 C   0  0  0  0  0  0
  -26.4562  -31.6530   25.0694 C   0  0  0  0  0  0
  -25.3675  -31.3793   26.1339 C   0  0  0  0  0  0
  -27.0468  -30.2895   24.6459 C   0  0  0  0  0  0
  -27.6038  -32.4360   25.7496 C   0  0  0  0  0  0
  -27.5557  -37.1774   24.8478 C   0  0  0  0  0  0
  -21.4340  -29.3028   22.3514 N   0  0  0  0  0  0
  -26.4294  -37.3685   23.9381 N   0  0  0  0  0  0
  -24.7556  -30.9789   22.0808 N   0  0  0  0  0  0
  -23.4212  -28.7978   23.3028 O   0  0  0  0  0  0
  -28.2223  -25.7799   20.3327 O   0  0  0  0  0  0
  -26.5722  -34.8876   22.4598 O   0  0  0  0  0  0
  -23.5719  -32.1164   23.6723 O   0  0  0  0  0  0
  -29.3584  -17.5805   18.3202 C   0  0  0  0  0  0
  -29.0847  -18.7762   17.6205 C   0  0  0  0  0  0
  -29.5071  -17.8585   19.6641 C   0  0  0  0  0  0
  -28.8497  -18.9583   16.1470 C   0  0  0  0  0  0
  -28.2106  -22.4366   20.1943 C   0  0  0  0  0  0
  -29.1934  -20.9145   20.4976 C   0  0  0  0  0  0
  -28.3876  -24.2147   19.7669 C   0  0  0  0  0  0
  -29.0205  -19.8155   18.4200 N   0  0  0  0  0  0
  -29.2197  -19.4336   19.7081 N   0  0  0  0  0  0
  -29.7116  -16.6178   20.4979 N   0  0  0  0  0  0
  -29.3882  -16.0511   17.5060 Cl  0  0  0  0  0  0
  -31.4579  -13.0065   19.2445 H   0  0  0  0  0  0
  -30.5068  -11.9319   20.2141 H   0  0  0  0  0  0
  -29.9464  -11.6471   17.8048 H   0  0  0  0  0  0
  -29.6269  -13.3396   17.6122 H   0  0  0  0  0  0
  -28.0162  -11.2717   19.1133 H   0  0  0  0  0  0
  -27.4438  -12.3274   17.8526 H   0  0  0  0  0  0
  -27.5364  -14.2333   19.2995 H   0  0  0  0  0  0
  -28.8014  -12.5694   21.5286 H   0  0  0  0  0  0
  -28.2579  -14.2204   21.6762 H   0  0  0  0  0  0
  -25.2824   -9.5728   22.4753 H   0  0  0  0  0  0
  -24.0034   -7.4679   22.7462 H   0  0  0  0  0  0
  -21.0891   -8.8814   19.8961 H   0  0  0  0  0  0
  -22.3725  -10.9708   19.6149 H   0  0  0  0  0  0
  -21.2025   -7.6160   23.9723 H   0  0  0  0  0  0
  -21.1469   -6.0528   25.9068 H   0  0  0  0  0  0
  -22.0595   -2.7634   23.2824 H   0  0  0  0  0  0
  -22.4063  -11.9880   22.4833 H   0  0  0  0  0  0
  -21.1048  -13.1220   22.2648 H   0  0  0  0  0  0
  -24.6150  -15.8425   20.4986 H   0  0  0  0  0  0
  -26.2406  -15.6468   20.0719 H   0  0  0  0  0  0
  -26.7381  -32.5070   23.0839 H   0  0  0  0  0  0
  -25.0055  -33.9444   25.0151 H   0  0  0  0  0  0
  -22.7983  -31.2580   21.3400 H   0  0  0  0  0  0
  -23.3750  -35.9546   23.3339 H   0  0  0  0  0  0
  -24.3550  -36.8825   22.2064 H   0  0  0  0  0  0
  -23.7277  -37.6404   23.6698 H   0  0  0  0  0  0
  -26.2371  -31.3436   20.6210 H   0  0  0  0  0  0
  -26.9107  -30.6637   22.0592 H   0  0  0  0  0  0
  -28.1317  -28.5394   21.3087 H   0  0  0  0  0  0
  -25.8836  -25.7047   18.9805 H   0  0  0  0  0  0
  -24.0158  -27.2548   18.9275 H   0  0  0  0  0  0
  -23.8786  -30.5002   19.3816 H   0  0  0  0  0  0
  -22.8308  -29.1897   19.8266 H   0  0  0  0  0  0
  -25.1352  -36.1755   25.0793 H   0  0  0  0  0  0
  -21.0038  -28.3374   24.1308 H   0  0  0  0  0  0
  -20.5676  -26.2376   23.3653 H   0  0  0  0  0  0
  -21.6658  -26.7401   22.1212 H   0  0  0  0  0  0
  -19.6931  -25.6269   21.1283 H   0  0  0  0  0  0
  -19.6715  -27.3149   20.6726 H   0  0  0  0  0  0
  -17.4222  -26.6685   21.4024 H   0  0  0  0  0  0
  -18.0345  -26.0096   22.9030 H   0  0  0  0  0  0
  -19.7971  -30.7323   24.2186 H   0  0  0  0  0  0
  -17.5041  -31.6270   24.5165 H   0  0  0  0  0  0
  -15.5373  -30.2971   23.7700 H   0  0  0  0  0  0
  -15.8706  -28.0808   22.7107 H   0  0  0  0  0  0
  -24.5866  -30.7134   25.7645 H   0  0  0  0  0  0
  -24.8853  -32.2999   26.4637 H   0  0  0  0  0  0
  -25.7895  -30.9038   27.0200 H   0  0  0  0  0  0
  -26.3146  -29.6550   24.1450 H   0  0  0  0  0  0
  -27.3970  -29.7283   25.5132 H   0  0  0  0  0  0
  -27.9099  -30.4071   23.9901 H   0  0  0  0  0  0
  -27.2591  -33.3703   26.1934 H   0  0  0  0  0  0
  -28.3917  -32.6851   25.0377 H   0  0  0  0  0  0
  -28.0628  -31.8583   26.5524 H   0  0  0  0  0  0
  -28.2617  -38.0025   24.7428 H   0  0  0  0  0  0
  -28.1008  -36.2544   24.6441 H   0  0  0  0  0  0
  -27.2248  -37.1581   25.8879 H   0  0  0  0  0  0
  -20.9614  -29.8704   21.6619 H   0  0  0  0  0  0
  -26.0141  -38.2759   24.1333 H   0  0  0  0  0  0
  -27.7920  -19.1309   15.9395 H   0  0  0  0  0  0
  -29.1579  -18.0812   15.5770 H   0  0  0  0  0  0
  -29.4188  -19.8019   15.7554 H   0  0  0  0  0  0
  -27.4449  -22.4292   20.9699 H   0  0  0  0  0  0
  -27.6418  -22.0957   19.3301 H   0  0  0  0  0  0
  -29.0451  -20.6568   21.5467 H   0  0  0  0  0  0
  -30.2275  -21.2549   20.4687 H   0  0  0  0  0  0
  -27.7918  -24.2814   18.8565 H   0  0  0  0  0  0
  -29.4076  -24.2466   19.3829 H   0  0  0  0  0  0
  -28.9439  -16.5143   21.1436 H   0  0  0  0  0  0
  1 25  1  0  0  0
  1 30  2  0  0  0
  1 80  1  0  0  0
  2  3  1  0  0  0
  2 25  1  0  0  0
  2 82  1  0  0  0
  2 83  1  0  0  0
  3  4  1  0  0  0
  3 84  1  0  0  0
  3 85  1  0  0  0
  4  5  1  0  0  0
  4 86  1  0  0  0
  4 87  1  0  0  0
  5  6  1  0  0  0
  5 26  1  0  0  0
  5 88  1  0  0  0
  6 25  1  0  0  0
  6 89  1  0  0  0
  6 90  1  0  0  0
  7  8  2  0  0  0
  7 26  1  0  0  0
  7 29  1  0  0  0
  8  9  1  0  0  0
  8 22  1  0  0  0
  9 10  1  0  0  0
  9 27  2  0  0  0
 10 11  2  0  0  0
 10 15  1  0  0  0
 11 12  1  0  0  0
 11 91  1  0  0  0
 12 13  2  0  0  0
 12 92  1  0  0  0
 13 14  1  0  0  0
 13 31  1  0  0  0
 14 15  2  0  0  0
 14 93  1  0  0  0
 15 94  1  0  0  0
 16 17  2  0  0  0
 16 21  1  0  0  0
 16 31  1  0  0  0
 17 18  1  0  0  0
 17 95  1  0  0  0
 18 19  2  0  0  0
 18 96  1  0  0  0
 19 20  1  0  0  0
 19 24  1  0  0  0
 20 21  2  0  0  0
 20 97  1  0  0  0
 21 23  1  0  0  0
 22 28  1  0  0  0
 22 32  2  0  0  0
 26 27  1  0  0  0
 28 98  1  0  0  0
 28 99  1  0  0  0
 29100  1  0  0  0
 29101  1  0  0  0
 33 34  1  0  0  0
 33 66  1  0  0  0
 33 70  2  0  0  0
 34 36  1  0  0  0
 34 59  1  0  0  0
 34102  1  0  0  0
 35 44  2  0  0  0
 35 45  1  0  0  0
 35 68  1  0  0  0
 36 56  1  0  0  0
 36103  1  0  0  0
 37 39  1  0  0  0
 37 47  1  0  0  0
 37 66  1  0  0  0
 37104  1  0  0  0
 38 43  2  0  0  0
 38 46  1  0  0  0
 38 47  1  0  0  0
 39 64  1  0  0  0
 39 67  2  0  0  0
 40 52  1  0  0  0
 40 53  2  0  0  0
 40 58  1  0  0  0
 41105  1  0  0  0
 41106  1  0  0  0
 41107  1  0  0  0
 41 48  1  0  0  0
 42 43  1  0  0  0
 42 66  1  0  0  0
 42108  1  0  0  0
 42109  1  0  0  0
 43 44  1  0  0  0
 44110  1  0  0  0
 45 46  2  0  0  0
 45111  1  0  0  0
 46112  1  0  0  0
 47113  1  0  0  0
 47114  1  0  0  0
 48 56  1  0  0  0
 48 65  1  0  0  0
 48115  1  0  0  0
 49 50  1  0  0  0
 49 53  1  0  0  0
 49 64  1  0  0  0
 49116  1  0  0  0
 50 51  1  0  0  0
 50117  1  0  0  0
 50118  1  0  0  0
 51 52  1  0  0  0
 51119  1  0  0  0
 51120  1  0  0  0
 52121  1  0  0  0
 52122  1  0  0  0
 53 54  1  0  0  0
 54 55  2  0  0  0
 54123  1  0  0  0
 55 57  1  0  0  0
 55124  1  0  0  0
 56 69  2  0  0  0
 57 58  2  0  0  0
 57125  1  0  0  0
 58126  1  0  0  0
 59 60  1  0  0  0
 59 61  1  0  0  0
 59 62  1  0  0  0
 60127  1  0  0  0
 60128  1  0  0  0
 60129  1  0  0  0
 61130  1  0  0  0
 61131  1  0  0  0
 61132  1  0  0  0
 62133  1  0  0  0
 62134  1  0  0  0
 62135  1  0  0  0
 63 65  1  0  0  0
 63136  1  0  0  0
 63137  1  0  0  0
 63138  1  0  0  0
 64139  1  0  0  0
 65140  1  0  0  0
 68 77  1  0  0  0
 71 72  1  0  0  0
 71 73  2  0  0  0
 71 81  1  0  0  0
 72 74  1  0  0  0
 72 78  2  0  0  0
 73 79  1  0  0  0
 73 80  1  0  0  0
 74141  1  0  0  0
 74142  1  0  0  0
 74143  1  0  0  0
 75 76  1  0  0  0
 75 77  1  0  0  0
 75144  1  0  0  0
 75145  1  0  0  0
 76 79  1  0  0  0
 76146  1  0  0  0
 76147  1  0  0  0
 77148  1  0  0  0
 77149  1  0  0  0
 78 79  1  0  0  0
 80150  1  0  0  0
M  ISO  4   1 100  68 101  77 101  80 100
M  END
> <chiral flag>
0

> <version>
0

> <s_m_source_file>
/data/baiqing/PycharmProjects/Reinvent-master-3.2/result/LINK_invent/BTK/process_docking_weight1_custom_sum_contain_oxygen_bond_distance_aromatic_linkinvent_7_9_3/rearranged_h_0021.sdf

> <i_m_source_file_index>
92

> <r_mmod_Potential_Energy-OPLS-2005>
1599.08178710938

> <r_mmod_Stretch_Energy-OPLS-2005>
701.877319335938

> <r_mmod_Bend_Energy-OPLS-2005>
644.87353515625

> <r_mmod_Torsional_Energy-OPLS-2005>
279.674987792969

> <r_mmod_Improper_Torsional_Energy-OPLS-2005>
5.67898511886597

> <r_mmod_Van_der_Waal_Energy-OPLS-2005>
111.084815979004

> <r_mmod_Electrostatic_Energy-OPLS-2005>
-435.871765136719

> <r_mmod_Solvation_Energy-OPLS-2005>
-221.098098754883

> <b_mmod_Minimization_Converged-OPLS-2005>
0

> <r_mmod_RMS_Derivative-OPLS-2005>
4.53543472290039

$$$$
93
                    3D
 Structure written by MMmdl.
160168  0  0  1  0            999 V2000
  -30.6461  -14.5681   20.5657 C   0  0  0  0  0  0
  -30.4206  -12.3636   19.4356 C   0  0  0  0  0  0
  -29.4884  -12.5100   18.2139 C   0  0  0  0  0  0
  -28.0134  -12.3475   18.6269 C   0  0  0  0  0  0
  -27.6463  -13.2125   19.8605 C   0  0  2  0  0  0
  -28.6840  -13.0368   20.9889 C   0  0  0  0  0  0
  -25.2513  -13.8180   20.5660 C   0  0  0  0  0  0
  -24.1804  -13.0469   20.9151 C   0  0  0  0  0  0
  -24.6393  -11.6925   20.8771 C   0  0  0  0  0  0
  -23.9105  -10.4285   21.0442 C   0  0  0  0  0  0
  -24.3649   -9.4181   21.9205 C   0  0  0  0  0  0
  -23.6302   -8.2234   22.0775 C   0  0  0  0  0  0
  -22.4281   -8.0286   21.3559 C   0  0  0  0  0  0
  -21.9927   -9.0280   20.4662 C   0  0  0  0  0  0
  -22.7294  -10.2138   20.3072 C   0  0  0  0  0  0
  -21.6838   -6.0736   22.5293 C   0  0  0  0  0  0
  -21.4020   -6.5653   23.8225 C   0  0  0  0  0  0
  -21.3660   -5.6806   24.9187 C   0  0  0  0  0  0
  -21.6045   -4.3067   24.7236 C   0  0  0  0  0  0
  -21.8820   -3.8163   23.4361 C   0  0  0  0  0  0
  -21.9184   -4.6965   22.3415 C   0  0  0  0  0  0
  -22.7804  -13.5204   21.1883 C   0  0  0  0  0  0
  -22.1640   -4.2159   21.0981 F   0  0  0  0  0  0
  -21.5642   -3.4548   25.7746 F   0  0  0  0  0  0
  -30.0062  -13.3682   20.4324 N   0  0  0  0  0  0
  -26.2930  -12.9375   20.3287 N   0  0  0  0  0  0
  -25.9311  -11.6531   20.5775 N   0  0  0  0  0  0
  -22.0514  -12.8161   22.0429 N   0  0  0  0  0  0
  -25.4223  -15.1922   20.4030 N   0  0  0  0  0  0
  -31.8025  -14.7462   20.1753 O   0  0  0  0  0  0
  -21.6641   -6.8898   21.4257 O   0  0  0  0  0  0
  -22.3468  -14.5520   20.6730 O   0  0  0  0  0  0
  -24.6302  -31.8506   23.2032 C   0  0  0  0  0  0
  -25.9109  -32.4690   23.8369 C   0  0  1  0  0  0
  -27.2176  -27.3190   20.0675 C   0  0  0  0  0  0
  -25.5835  -33.8495   24.2256 N   0  0  0  0  0  0
  -23.4200  -30.4772   21.5558 C   0  0  2  0  0  0
  -24.8553  -28.9307   20.1173 C   0  0  0  0  0  0
  -22.7445  -29.4588   22.5041 C   0  0  0  0  0  0
  -18.0239  -28.1381   22.8401 C   0  0  0  0  0  0
  -24.1473  -36.7375   23.2645 C   0  0  0  0  0  0
  -25.9649  -30.7750   21.3776 C   0  0  0  0  0  0
  -26.0296  -29.4049   20.7158 C   0  0  0  0  0  0
  -27.2113  -28.6070   20.6852 C   0  0  0  0  0  0
  -26.0057  -26.8806   19.4869 C   0  0  0  0  0  0
  -24.8423  -27.6720   19.5038 C   0  0  0  0  0  0
  -23.6239  -29.8070   20.1744 C   0  0  0  0  0  0
  -25.4059  -36.3047   24.0318 C   0  0  1  0  0  0
  -20.5816  -28.3647   23.1323 C   0  0  2  0  0  0
  -20.6706  -26.9396   22.5426 C   0  0  0  0  0  0
  -19.5731  -26.6390   21.5163 C   0  0  0  0  0  0
  -18.1911  -26.7911   22.1551 C   0  0  0  0  0  0
  -19.1483  -28.8827   23.2832 C   0  0  0  0  0  0
  -18.9400  -30.1428   23.8840 C   0  0  0  0  0  0
  -17.6405  -30.6573   24.0518 C   0  0  0  0  0  0
  -25.8999  -34.9395   23.5115 C   0  0  0  0  0  0
  -16.5293  -29.9050   23.6360 C   0  0  0  0  0  0
  -16.7229  -28.6505   23.0305 C   0  0  0  0  0  0
  -26.4480  -31.6502   25.0769 C   0  0  0  0  0  0
  -25.3704  -31.3628   26.1496 C   0  0  0  0  0  0
  -27.0368  -30.2884   24.6391 C   0  0  0  0  0  0
  -27.6087  -32.4210   25.7468 C   0  0  0  0  0  0
  -27.5572  -37.1795   24.8421 C   0  0  0  0  0  0
  -21.4160  -29.2974   22.3730 N   0  0  0  0  0  0
  -26.4244  -37.3734   23.9396 N   0  0  0  0  0  0
  -24.6921  -31.0474   22.1028 N   0  0  0  0  0  0
  -23.4155  -28.8111   23.3118 O   0  0  0  0  0  0
  -28.3654  -26.5123   20.0904 O   0  0  0  0  0  0
  -26.5650  -34.8854   22.4742 O   0  0  0  0  0  0
  -23.5453  -32.1352   23.7332 O   0  0  0  0  0  0
  -27.0532  -23.8754   21.5524 C   0  0  0  0  0  0
  -27.8582  -23.0890   20.7101 C   0  0  0  0  0  0
  -27.6171  -21.6541   20.7205 C   0  0  0  0  0  0
  -25.9944  -23.2983   22.2487 C   0  0  0  0  0  0
  -26.4135  -21.2251   21.3517 C   0  0  0  0  0  0
  -28.9058  -23.8748   19.8809 C   0  0  0  0  0  0
  -28.5241  -20.5422   20.1013 C   0  0  0  0  0  0
  -29.2249  -19.5373   21.1109 C   0  0  0  0  0  0
  -29.6723  -18.1524   20.4474 C   0  0  0  0  0  0
  -30.2342  -17.0039   21.3786 C   0  0  0  0  0  0
  -28.4919  -25.2948   19.2637 C   0  0  0  0  0  0
  -25.6400  -22.0219   22.1161 N   0  0  0  0  0  0
  -25.2322  -24.0636   23.1119 N   0  0  0  0  0  0
  -29.8766  -15.5973   21.0177 N   0  0  0  0  0  0
  -25.8048  -19.6182   21.1500 Cl  0  0  0  0  0  0
  -31.4622  -12.4835   19.1339 H   0  0  0  0  0  0
  -30.3420  -11.3619   19.8580 H   0  0  0  0  0  0
  -29.7438  -11.7758   17.4489 H   0  0  0  0  0  0
  -29.6266  -13.4902   17.7548 H   0  0  0  0  0  0
  -27.8442  -11.2925   18.8500 H   0  0  0  0  0  0
  -27.3547  -12.5853   17.7897 H   0  0  0  0  0  0
  -27.6766  -14.2506   19.5302 H   0  0  0  0  0  0
  -28.6799  -12.0108   21.3594 H   0  0  0  0  0  0
  -28.4282  -13.6582   21.8489 H   0  0  0  0  0  0
  -25.2818   -9.5623   22.4744 H   0  0  0  0  0  0
  -24.0013   -7.4617   22.7477 H   0  0  0  0  0  0
  -21.0877   -8.8845   19.8944 H   0  0  0  0  0  0
  -22.3830  -10.9684   19.6154 H   0  0  0  0  0  0
  -21.2016   -7.6162   23.9735 H   0  0  0  0  0  0
  -21.1487   -6.0531   25.9087 H   0  0  0  0  0  0
  -22.0593   -2.7621   23.2873 H   0  0  0  0  0  0
  -22.4183  -11.9773   22.4712 H   0  0  0  0  0  0
  -21.1143  -13.1164   22.2772 H   0  0  0  0  0  0
  -24.6629  -15.8509   20.5277 H   0  0  0  0  0  0
  -26.2797  -15.6339   20.1014 H   0  0  0  0  0  0
  -26.7162  -32.5274   23.1081 H   0  0  0  0  0  0
  -24.9510  -33.9524   25.0066 H   0  0  0  0  0  0
  -22.7196  -31.2998   21.4150 H   0  0  0  0  0  0
  -23.3624  -35.9828   23.3241 H   0  0  0  0  0  0
  -24.3584  -36.9152   22.2082 H   0  0  0  0  0  0
  -23.7344  -37.6597   23.6761 H   0  0  0  0  0  0
  -26.0988  -31.5251   20.5999 H   0  0  0  0  0  0
  -26.8427  -30.8178   22.0097 H   0  0  0  0  0  0
  -28.1215  -28.9679   21.1410 H   0  0  0  0  0  0
  -25.8917  -25.9064   19.0382 H   0  0  0  0  0  0
  -23.9304  -27.2948   19.0597 H   0  0  0  0  0  0
  -23.7278  -30.5730   19.4065 H   0  0  0  0  0  0
  -22.7416  -29.2288   19.8957 H   0  0  0  0  0  0
  -25.1257  -36.1895   25.0815 H   0  0  0  0  0  0
  -20.9799  -28.3178   24.1471 H   0  0  0  0  0  0
  -20.5569  -26.2244   23.3596 H   0  0  0  0  0  0
  -21.6611  -26.7427   22.1282 H   0  0  0  0  0  0
  -19.6901  -25.6296   21.1216 H   0  0  0  0  0  0
  -19.6686  -27.3150   20.6663 H   0  0  0  0  0  0
  -17.4175  -26.6550   21.3966 H   0  0  0  0  0  0
  -18.0356  -26.0099   22.8995 H   0  0  0  0  0  0
  -19.7873  -30.7256   24.2220 H   0  0  0  0  0  0
  -17.4964  -31.6273   24.5101 H   0  0  0  0  0  0
  -15.5272  -30.2900   23.7835 H   0  0  0  0  0  0
  -15.8614  -28.0870   22.7004 H   0  0  0  0  0  0
  -24.5854  -30.7040   25.7750 H   0  0  0  0  0  0
  -24.8862  -32.2751   26.4962 H   0  0  0  0  0  0
  -25.7988  -30.8698   27.0227 H   0  0  0  0  0  0
  -26.3046  -29.6458   24.1497 H   0  0  0  0  0  0
  -27.4025  -29.7332   25.5047 H   0  0  0  0  0  0
  -27.8931  -30.4048   23.9757 H   0  0  0  0  0  0
  -27.2870  -33.3572   26.1997 H   0  0  0  0  0  0
  -28.3890  -32.6609   25.0239 H   0  0  0  0  0  0
  -28.0790  -31.8343   26.5364 H   0  0  0  0  0  0
  -28.2532  -38.0149   24.7514 H   0  0  0  0  0  0
  -28.1156  -36.2669   24.6185 H   0  0  0  0  0  0
  -27.2330  -37.1414   25.8843 H   0  0  0  0  0  0
  -20.9371  -29.8656   21.6868 H   0  0  0  0  0  0
  -26.0125  -38.2820   24.1335 H   0  0  0  0  0  0
  -27.2605  -24.9298   21.6662 H   0  0  0  0  0  0
  -29.1851  -23.2445   19.0335 H   0  0  0  0  0  0
  -29.8135  -23.9693   20.4801 H   0  0  0  0  0  0
  -29.2472  -20.9583   19.4050 H   0  0  0  0  0  0
  -27.8728  -19.9442   19.4610 H   0  0  0  0  0  0
  -28.5451  -19.3314   21.9489 H   0  0  0  0  0  0
  -30.0677  -20.0499   21.5912 H   0  0  0  0  0  0
  -30.4781  -18.3760   19.7378 H   0  0  0  0  0  0
  -28.8420  -17.7583   19.8478 H   0  0  0  0  0  0
  -29.8720  -17.1615   22.3937 H   0  0  0  0  0  0
  -31.3195  -17.0943   21.4496 H   0  0  0  0  0  0
  -27.6958  -25.1457   18.5380 H   0  0  0  0  0  0
  -29.3221  -25.5560   18.6081 H   0  0  0  0  0  0
  -25.4960  -25.0173   23.3217 H   0  0  0  0  0  0
  -24.5739  -23.6402   23.7554 H   0  0  0  0  0  0
  -28.9311  -15.3232   21.2364 H   0  0  0  0  0  0
  1 25  1  0  0  0
  1 30  2  0  0  0
  1 84  1  0  0  0
  2  3  1  0  0  0
  2 25  1  0  0  0
  2 86  1  0  0  0
  2 87  1  0  0  0
  3  4  1  0  0  0
  3 88  1  0  0  0
  3 89  1  0  0  0
  4  5  1  0  0  0
  4 90  1  0  0  0
  4 91  1  0  0  0
  5  6  1  0  0  0
  5 26  1  0  0  0
  5 92  1  0  0  0
  6 25  1  0  0  0
  6 93  1  0  0  0
  6 94  1  0  0  0
  7  8  2  0  0  0
  7 26  1  0  0  0
  7 29  1  0  0  0
  8  9  1  0  0  0
  8 22  1  0  0  0
  9 10  1  0  0  0
  9 27  2  0  0  0
 10 11  2  0  0  0
 10 15  1  0  0  0
 11 12  1  0  0  0
 11 95  1  0  0  0
 12 13  2  0  0  0
 12 96  1  0  0  0
 13 14  1  0  0  0
 13 31  1  0  0  0
 14 15  2  0  0  0
 14 97  1  0  0  0
 15 98  1  0  0  0
 16 17  2  0  0  0
 16 21  1  0  0  0
 16 31  1  0  0  0
 17 18  1  0  0  0
 17 99  1  0  0  0
 18 19  2  0  0  0
 18100  1  0  0  0
 19 20  1  0  0  0
 19 24  1  0  0  0
 20 21  2  0  0  0
 20101  1  0  0  0
 21 23  1  0  0  0
 22 28  1  0  0  0
 22 32  2  0  0  0
 26 27  1  0  0  0
 28102  1  0  0  0
 28103  1  0  0  0
 29104  1  0  0  0
 29105  1  0  0  0
 33 34  1  0  0  0
 33 66  1  0  0  0
 33 70  2  0  0  0
 34 36  1  0  0  0
 34 59  1  0  0  0
 34106  1  0  0  0
 35 44  2  0  0  0
 35 45  1  0  0  0
 35 68  1  0  0  0
 36 56  1  0  0  0
 36107  1  0  0  0
 37 39  1  0  0  0
 37 47  1  0  0  0
 37 66  1  0  0  0
 37108  1  0  0  0
 38 43  2  0  0  0
 38 46  1  0  0  0
 38 47  1  0  0  0
 39 64  1  0  0  0
 39 67  2  0  0  0
 40 52  1  0  0  0
 40 53  2  0  0  0
 40 58  1  0  0  0
 41109  1  0  0  0
 41110  1  0  0  0
 41111  1  0  0  0
 41 48  1  0  0  0
 42 43  1  0  0  0
 42 66  1  0  0  0
 42112  1  0  0  0
 42113  1  0  0  0
 43 44  1  0  0  0
 44114  1  0  0  0
 45 46  2  0  0  0
 45115  1  0  0  0
 46116  1  0  0  0
 47117  1  0  0  0
 47118  1  0  0  0
 48 56  1  0  0  0
 48 65  1  0  0  0
 48119  1  0  0  0
 49 50  1  0  0  0
 49 53  1  0  0  0
 49 64  1  0  0  0
 49120  1  0  0  0
 50 51  1  0  0  0
 50121  1  0  0  0
 50122  1  0  0  0
 51 52  1  0  0  0
 51123  1  0  0  0
 51124  1  0  0  0
 52125  1  0  0  0
 52126  1  0  0  0
 53 54  1  0  0  0
 54 55  2  0  0  0
 54127  1  0  0  0
 55 57  1  0  0  0
 55128  1  0  0  0
 56 69  2  0  0  0
 57 58  2  0  0  0
 57129  1  0  0  0
 58130  1  0  0  0
 59 60  1  0  0  0
 59 61  1  0  0  0
 59 62  1  0  0  0
 60131  1  0  0  0
 60132  1  0  0  0
 60133  1  0  0  0
 61134  1  0  0  0
 61135  1  0  0  0
 61136  1  0  0  0
 62137  1  0  0  0
 62138  1  0  0  0
 62139  1  0  0  0
 63 65  1  0  0  0
 63140  1  0  0  0
 63141  1  0  0  0
 63142  1  0  0  0
 64143  1  0  0  0
 65144  1  0  0  0
 68 81  1  0  0  0
 71 72  2  0  0  0
 71 74  1  0  0  0
 71145  1  0  0  0
 72 73  1  0  0  0
 72 76  1  0  0  0
 73 75  2  0  0  0
 73 77  1  0  0  0
 74 82  2  0  0  0
 74 83  1  0  0  0
 75 82  1  0  0  0
 75 85  1  0  0  0
 76 81  1  0  0  0
 76146  1  0  0  0
 76147  1  0  0  0
 77 78  1  0  0  0
 77148  1  0  0  0
 77149  1  0  0  0
 78 79  1  0  0  0
 78150  1  0  0  0
 78151  1  0  0  0
 79 80  1  0  0  0
 79152  1  0  0  0
 79153  1  0  0  0
 80 84  1  0  0  0
 80154  1  0  0  0
 80155  1  0  0  0
 81156  1  0  0  0
 81157  1  0  0  0
 83158  1  0  0  0
 83159  1  0  0  0
 84160  1  0  0  0
M  ISO  4   1 100  68 101  81 101  84 100
M  END
> <chiral flag>
0

> <version>
0

> <s_m_source_file>
/data/baiqing/PycharmProjects/Reinvent-master-3.2/result/LINK_invent/BTK/process_docking_weight1_custom_sum_contain_oxygen_bond_distance_aromatic_linkinvent_7_9_3/rearranged_h_0021.sdf

> <i_m_source_file_index>
93

> <r_mmod_Potential_Energy-OPLS-2005>
-177.700454711914

> <r_mmod_Stretch_Energy-OPLS-2005>
79.138313293457

> <r_mmod_Bend_Energy-OPLS-2005>
165.46501159668

> <r_mmod_Torsional_Energy-OPLS-2005>
216.289306640625

> <r_mmod_Improper_Torsional_Energy-OPLS-2005>
4.2446117401123

> <r_mmod_Van_der_Waal_Energy-OPLS-2005>
143.171035766602

> <r_mmod_Electrostatic_Energy-OPLS-2005>
-604.899719238281

> <r_mmod_Solvation_Energy-OPLS-2005>
-218.750183105469

> <b_mmod_Minimization_Converged-OPLS-2005>
0

> <r_mmod_RMS_Derivative-OPLS-2005>
8.63608074188232

$$$$
94
                    3D
 Structure written by MMmdl.
175184  0  0  1  0            999 V2000
  -30.7766  -14.6892   20.5195 C   0  0  0  0  0  0
  -30.4001  -12.4529   19.4556 C   0  0  0  0  0  0
  -29.4776  -12.5221   18.2231 C   0  0  0  0  0  0
  -28.0085  -12.3465   18.6412 C   0  0  0  0  0  0
  -27.6275  -13.2321   19.8555 C   0  0  2  0  0  0
  -28.6946  -13.1636   20.9746 C   0  0  0  0  0  0
  -25.2099  -13.7817   20.5448 C   0  0  0  0  0  0
  -24.1609  -13.0064   20.9259 C   0  0  0  0  0  0
  -24.6396  -11.6678   20.8838 C   0  0  0  0  0  0
  -23.9091  -10.4112   21.0443 C   0  0  0  0  0  0
  -24.3631   -9.4060   21.9223 C   0  0  0  0  0  0
  -23.6288   -8.2111   22.0751 C   0  0  0  0  0  0
  -22.4276   -8.0188   21.3521 C   0  0  0  0  0  0
  -21.9924   -9.0174   20.4625 C   0  0  0  0  0  0
  -22.7266  -10.2037   20.3076 C   0  0  0  0  0  0
  -21.6833   -6.0691   22.5311 C   0  0  0  0  0  0
  -21.3988   -6.5606   23.8244 C   0  0  0  0  0  0
  -21.3649   -5.6765   24.9212 C   0  0  0  0  0  0
  -21.6057   -4.3038   24.7275 C   0  0  0  0  0  0
  -21.8819   -3.8121   23.4402 C   0  0  0  0  0  0
  -21.9178   -4.6918   22.3445 C   0  0  0  0  0  0
  -22.7663  -13.4895   21.1883 C   0  0  0  0  0  0
  -22.1646   -4.2091   21.1024 F   0  0  0  0  0  0
  -21.5655   -3.4546   25.7796 F   0  0  0  0  0  0
  -29.9980  -13.5424   20.3915 N   0  0  0  0  0  0
  -26.2824  -12.9295   20.3356 N   0  0  0  0  0  0
  -25.9372  -11.6422   20.5949 N   0  0  0  0  0  0
  -22.0381  -12.7936   22.0539 N   0  0  0  0  0  0
  -25.2701  -15.1348   20.3190 N   0  0  0  0  0  0
  -31.9418  -14.6227   20.1257 O   0  0  0  0  0  0
  -21.6607   -6.8811   21.4256 O   0  0  0  0  0  0
  -22.3368  -14.5201   20.6718 O   0  0  0  0  0  0
  -24.6223  -31.8608   23.2039 C   0  0  0  0  0  0
  -25.9079  -32.4788   23.8365 C   0  0  1  0  0  0
  -27.2397  -27.3371   20.1136 C   0  0  0  0  0  0
  -25.5904  -33.8590   24.2283 N   0  0  0  0  0  0
  -23.4175  -30.4828   21.5445 C   0  0  2  0  0  0
  -24.8712  -28.9444   20.1091 C   0  0  0  0  0  0
  -22.7460  -29.4610   22.4927 C   0  0  0  0  0  0
  -18.0281  -28.1375   22.8500 C   0  0  0  0  0  0
  -24.1496  -36.7295   23.2635 C   0  0  0  0  0  0
  -25.9568  -30.7998   21.3755 C   0  0  0  0  0  0
  -26.0368  -29.4286   20.7154 C   0  0  0  0  0  0
  -27.2208  -28.6346   20.7111 C   0  0  0  0  0  0
  -26.0513  -26.9076   19.4764 C   0  0  0  0  0  0
  -24.8795  -27.6887   19.4828 C   0  0  0  0  0  0
  -23.6355  -29.8189   20.1594 C   0  0  0  0  0  0
  -25.4119  -36.3078   24.0319 C   0  0  1  0  0  0
  -20.5884  -28.3661   23.1307 C   0  0  2  0  0  0
  -20.6769  -26.9386   22.5422 C   0  0  0  0  0  0
  -19.5741  -26.6373   21.5224 C   0  0  0  0  0  0
  -18.1926  -26.7921   22.1638 C   0  0  0  0  0  0
  -19.1536  -28.8836   23.2902 C   0  0  0  0  0  0
  -18.9455  -30.1447   23.8904 C   0  0  0  0  0  0
  -17.6454  -30.6581   24.0561 C   0  0  0  0  0  0
  -25.9046  -34.9451   23.5095 C   0  0  0  0  0  0
  -16.5345  -29.9078   23.6330 C   0  0  0  0  0  0
  -16.7268  -28.6496   23.0353 C   0  0  0  0  0  0
  -26.4485  -31.6592   25.0724 C   0  0  0  0  0  0
  -25.3730  -31.3735   26.1456 C   0  0  0  0  0  0
  -27.0314  -30.3008   24.6172 C   0  0  0  0  0  0
  -27.6038  -32.4330   25.7499 C   0  0  0  0  0  0
  -27.5577  -37.1801   24.8459 C   0  0  0  0  0  0
  -21.4173  -29.3017   22.3691 N   0  0  0  0  0  0
  -26.4293  -37.3768   23.9401 N   0  0  0  0  0  0
  -24.6835  -31.0636   22.0983 N   0  0  0  0  0  0
  -23.4197  -28.8150   23.2995 O   0  0  0  0  0  0
  -28.3747  -26.5121   20.1776 O   0  0  0  0  0  0
  -26.5613  -34.8911   22.4661 O   0  0  0  0  0  0
  -23.5388  -32.1397   23.7372 O   0  0  0  0  0  0
  -31.7012  -19.6949   20.0722 C   0  0  0  0  0  0
  -26.5501  -18.8566   20.2403 C   0  0  0  0  0  0
  -28.0084  -17.1322   19.3513 C   0  0  0  0  0  0
  -30.8673  -18.6991   20.8416 C   0  0  1  0  0  0
  -30.2459  -20.0371   20.2300 C   0  0  1  0  0  0
  -27.3436  -18.2238   21.4077 C   0  0  2  0  0  0
  -27.9270  -16.9002   20.8825 C   0  0  2  0  0  0
  -26.8161  -18.0124   18.9851 C   0  0  0  0  0  0
  -26.5418  -18.1182   22.7141 C   0  0  0  0  0  0
  -29.2532  -21.2519   22.2797 C   0  0  0  0  0  0
  -31.0609  -17.2169   20.2779 C   0  0  0  0  0  0
  -29.1897  -16.3931   21.6296 C   0  0  0  0  0  0
  -29.2920  -24.0660   20.5386 C   0  0  0  0  0  0
  -29.2503  -22.5438   20.0641 C   0  0  0  0  0  0
  -28.2458  -25.0679   19.8917 C   0  0  0  0  0  0
  -29.9815  -21.4312   20.9385 C   0  0  2  0  0  0
  -30.2774  -15.9834   20.7360 N   0  0  0  0  0  0
  -27.0821  -18.7621   17.9137 F   0  0  0  0  0  0
  -25.7522  -17.2656   18.7059 F   0  0  0  0  0  0
  -31.4389  -12.5167   19.1313 H   0  0  0  0  0  0
  -30.3151  -11.4727   19.9279 H   0  0  0  0  0  0
  -29.7554  -11.7513   17.5023 H   0  0  0  0  0  0
  -29.6035  -13.4805   17.7173 H   0  0  0  0  0  0
  -27.8551  -11.2942   18.8844 H   0  0  0  0  0  0
  -27.3476  -12.5591   17.8004 H   0  0  0  0  0  0
  -27.6021  -14.2527   19.4896 H   0  0  0  0  0  0
  -28.7473  -12.1513   21.3761 H   0  0  0  0  0  0
  -28.3989  -13.7683   21.8210 H   0  0  0  0  0  0
  -25.2762   -9.5530   22.4829 H   0  0  0  0  0  0
  -24.0001   -7.4472   22.7442 H   0  0  0  0  0  0
  -21.0877   -8.8733   19.8880 H   0  0  0  0  0  0
  -22.3764  -10.9639   19.6239 H   0  0  0  0  0  0
  -21.1963   -7.6116   23.9751 H   0  0  0  0  0  0
  -21.1455   -6.0485   25.9109 H   0  0  0  0  0  0
  -22.0598   -2.7581   23.2952 H   0  0  0  0  0  0
  -22.4159  -11.9708   22.4992 H   0  0  0  0  0  0
  -21.0997  -13.0889   22.2794 H   0  0  0  0  0  0
  -24.4041  -15.6617   20.3110 H   0  0  0  0  0  0
  -26.0049  -15.5935   19.7989 H   0  0  0  0  0  0
  -26.7144  -32.5487   23.1119 H   0  0  0  0  0  0
  -25.0039  -33.9755   25.0417 H   0  0  0  0  0  0
  -22.7091  -31.3011   21.3999 H   0  0  0  0  0  0
  -23.3745  -35.9642   23.3315 H   0  0  0  0  0  0
  -24.3576  -36.8900   22.2044 H   0  0  0  0  0  0
  -23.7279  -37.6511   23.6655 H   0  0  0  0  0  0
  -26.0854  -31.5713   20.6156 H   0  0  0  0  0  0
  -26.8358  -30.8479   22.0055 H   0  0  0  0  0  0
  -28.1137  -29.0024   21.1980 H   0  0  0  0  0  0
  -26.0012  -25.9560   18.9693 H   0  0  0  0  0  0
  -23.9867  -27.3152   19.0005 H   0  0  0  0  0  0
  -23.7493  -30.5963   19.4024 H   0  0  0  0  0  0
  -22.7607  -29.2413   19.8570 H   0  0  0  0  0  0
  -25.1307  -36.1916   25.0809 H   0  0  0  0  0  0
  -20.9978  -28.3219   24.1426 H   0  0  0  0  0  0
  -20.5676  -26.2249   23.3602 H   0  0  0  0  0  0
  -21.6637  -26.7420   22.1207 H   0  0  0  0  0  0
  -19.6895  -25.6287   21.1244 H   0  0  0  0  0  0
  -19.6691  -27.3192   20.6763 H   0  0  0  0  0  0
  -17.4192  -26.6669   21.4046 H   0  0  0  0  0  0
  -18.0324  -26.0066   22.9034 H   0  0  0  0  0  0
  -19.7928  -30.7272   24.2270 H   0  0  0  0  0  0
  -17.5002  -31.6267   24.5145 H   0  0  0  0  0  0
  -15.5345  -30.2974   23.7652 H   0  0  0  0  0  0
  -15.8671  -28.0816   22.7058 H   0  0  0  0  0  0
  -24.5893  -30.7096   25.7796 H   0  0  0  0  0  0
  -24.8943  -32.2905   26.4892 H   0  0  0  0  0  0
  -25.8062  -30.8906   27.0219 H   0  0  0  0  0  0
  -26.2880  -29.6776   24.1185 H   0  0  0  0  0  0
  -27.3985  -29.7250   25.4678 H   0  0  0  0  0  0
  -27.8768  -30.4280   23.9407 H   0  0  0  0  0  0
  -27.2626  -33.3610   26.2096 H   0  0  0  0  0  0
  -28.3842  -32.6920   25.0335 H   0  0  0  0  0  0
  -28.0709  -31.8446   26.5403 H   0  0  0  0  0  0
  -28.2589  -38.0103   24.7492 H   0  0  0  0  0  0
  -28.1078  -36.2626   24.6306 H   0  0  0  0  0  0
  -27.2284  -37.1469   25.8860 H   0  0  0  0  0  0
  -20.9315  -29.8737   21.6927 H   0  0  0  0  0  0
  -26.0168  -38.2836   24.1410 H   0  0  0  0  0  0
  -32.0296  -19.4232   19.0716 H   0  0  0  0  0  0
  -32.4410  -20.2469   20.6496 H   0  0  0  0  0  0
  -25.4805  -18.9080   20.4421 H   0  0  0  0  0  0
  -26.8913  -19.8801   20.0903 H   0  0  0  0  0  0
  -28.0658  -16.2221   18.7576 H   0  0  0  0  0  0
  -28.8829  -17.7161   19.0962 H   0  0  0  0  0  0
  -30.9890  -18.7378   21.9232 H   0  0  0  0  0  0
  -29.5962  -19.8728   19.3731 H   0  0  0  0  0  0
  -28.1896  -18.8729   21.5988 H   0  0  0  0  0  0
  -27.2046  -16.1390   21.1036 H   0  0  0  0  0  0
  -25.5579  -17.6823   22.5436 H   0  0  0  0  0  0
  -26.3923  -19.1086   23.1468 H   0  0  0  0  0  0
  -27.0559  -17.5072   23.4572 H   0  0  0  0  0  0
  -29.7139  -20.4746   22.8907 H   0  0  0  0  0  0
  -28.2050  -20.9922   22.1334 H   0  0  0  0  0  0
  -29.2742  -22.1679   22.8693 H   0  0  0  0  0  0
  -32.1165  -17.0114   20.4655 H   0  0  0  0  0  0
  -31.0012  -17.2489   19.1885 H   0  0  0  0  0  0
  -29.5452  -17.1531   22.3208 H   0  0  0  0  0  0
  -28.9407  -15.6139   22.3369 H   0  0  0  0  0  0
  -30.2963  -24.4503   20.3662 H   0  0  0  0  0  0
  -29.1507  -24.1023   21.6167 H   0  0  0  0  0  0
  -29.6567  -22.5066   19.0530 H   0  0  0  0  0  0
  -28.2061  -22.2506   19.9589 H   0  0  0  0  0  0
  -27.2681  -24.7112   20.2159 H   0  0  0  0  0  0
  -28.2724  -24.9438   18.8089 H   0  0  0  0  0  0
  -30.9609  -21.8485   21.1819 H   0  0  0  0  0  0
  1 25  1  0  0  0
  1 30  2  0  0  0
  1 87  1  0  0  0
  2  3  1  0  0  0
  2 25  1  0  0  0
  2 90  1  0  0  0
  2 91  1  0  0  0
  3  4  1  0  0  0
  3 92  1  0  0  0
  3 93  1  0  0  0
  4  5  1  0  0  0
  4 94  1  0  0  0
  4 95  1  0  0  0
  5  6  1  0  0  0
  5 26  1  0  0  0
  5 96  1  0  0  0
  6 25  1  0  0  0
  6 97  1  0  0  0
  6 98  1  0  0  0
  7  8  2  0  0  0
  7 26  1  0  0  0
  7 29  1  0  0  0
  8  9  1  0  0  0
  8 22  1  0  0  0
  9 10  1  0  0  0
  9 27  2  0  0  0
 10 11  2  0  0  0
 10 15  1  0  0  0
 11 12  1  0  0  0
 11 99  1  0  0  0
 12 13  2  0  0  0
 12100  1  0  0  0
 13 14  1  0  0  0
 13 31  1  0  0  0
 14 15  2  0  0  0
 14101  1  0  0  0
 15102  1  0  0  0
 16 17  2  0  0  0
 16 21  1  0  0  0
 16 31  1  0  0  0
 17 18  1  0  0  0
 17103  1  0  0  0
 18 19  2  0  0  0
 18104  1  0  0  0
 19 20  1  0  0  0
 19 24  1  0  0  0
 20 21  2  0  0  0
 20105  1  0  0  0
 21 23  1  0  0  0
 22 28  1  0  0  0
 22 32  2  0  0  0
 26 27  1  0  0  0
 28106  1  0  0  0
 28107  1  0  0  0
 29108  1  0  0  0
 29109  1  0  0  0
 33 34  1  0  0  0
 33 66  1  0  0  0
 33 70  2  0  0  0
 34 36  1  0  0  0
 34 59  1  0  0  0
 34110  1  0  0  0
 35 44  2  0  0  0
 35 45  1  0  0  0
 35 68  1  0  0  0
 36 56  1  0  0  0
 36111  1  0  0  0
 37 39  1  0  0  0
 37 47  1  0  0  0
 37 66  1  0  0  0
 37112  1  0  0  0
 38 43  2  0  0  0
 38 46  1  0  0  0
 38 47  1  0  0  0
 39 64  1  0  0  0
 39 67  2  0  0  0
 40 52  1  0  0  0
 40 53  2  0  0  0
 40 58  1  0  0  0
 41113  1  0  0  0
 41114  1  0  0  0
 41115  1  0  0  0
 41 48  1  0  0  0
 42 43  1  0  0  0
 42 66  1  0  0  0
 42116  1  0  0  0
 42117  1  0  0  0
 43 44  1  0  0  0
 44118  1  0  0  0
 45 46  2  0  0  0
 45119  1  0  0  0
 46120  1  0  0  0
 47121  1  0  0  0
 47122  1  0  0  0
 48 56  1  0  0  0
 48 65  1  0  0  0
 48123  1  0  0  0
 49 50  1  0  0  0
 49 53  1  0  0  0
 49 64  1  0  0  0
 49124  1  0  0  0
 50 51  1  0  0  0
 50125  1  0  0  0
 50126  1  0  0  0
 51 52  1  0  0  0
 51127  1  0  0  0
 51128  1  0  0  0
 52129  1  0  0  0
 52130  1  0  0  0
 53 54  1  0  0  0
 54 55  2  0  0  0
 54131  1  0  0  0
 55 57  1  0  0  0
 55132  1  0  0  0
 56 69  2  0  0  0
 57 58  2  0  0  0
 57133  1  0  0  0
 58134  1  0  0  0
 59 60  1  0  0  0
 59 61  1  0  0  0
 59 62  1  0  0  0
 60135  1  0  0  0
 60136  1  0  0  0
 60137  1  0  0  0
 61138  1  0  0  0
 61139  1  0  0  0
 61140  1  0  0  0
 62141  1  0  0  0
 62142  1  0  0  0
 62143  1  0  0  0
 63 65  1  0  0  0
 63144  1  0  0  0
 63145  1  0  0  0
 63146  1  0  0  0
 64147  1  0  0  0
 65148  1  0  0  0
 68 85  1  0  0  0
 71 74  1  0  0  0
 71149  1  0  0  0
 71150  1  0  0  0
 71 75  1  0  0  0
 72 76  1  0  0  0
 72 78  1  0  0  0
 72151  1  0  0  0
 72152  1  0  0  0
 73 77  1  0  0  0
 73 78  1  0  0  0
 73153  1  0  0  0
 73154  1  0  0  0
 74 75  1  0  0  0
 74 81  1  0  0  0
 74155  1  0  0  0
 75 86  1  0  0  0
 75156  1  0  0  0
 76 77  1  0  0  0
 76 79  1  0  0  0
 76157  1  0  0  0
 77 82  1  0  0  0
 77158  1  0  0  0
 78 88  1  0  0  0
 78 89  1  0  0  0
 79159  1  0  0  0
 79160  1  0  0  0
 79161  1  0  0  0
 80162  1  0  0  0
 80163  1  0  0  0
 80164  1  0  0  0
 80 86  1  0  0  0
 81 87  1  0  0  0
 81165  1  0  0  0
 81166  1  0  0  0
 82 87  1  0  0  0
 82167  1  0  0  0
 82168  1  0  0  0
 83 84  1  0  0  0
 83 85  1  0  0  0
 83169  1  0  0  0
 83170  1  0  0  0
 84 86  1  0  0  0
 84171  1  0  0  0
 84172  1  0  0  0
 85173  1  0  0  0
 85174  1  0  0  0
 86175  1  0  0  0
M  ISO  4   1 100  68 101  85 101  87 100
M  END
> <chiral flag>
0

> <version>
0

> <s_m_source_file>
/data/baiqing/PycharmProjects/Reinvent-master-3.2/result/LINK_invent/BTK/process_docking_weight1_custom_sum_contain_oxygen_bond_distance_aromatic_linkinvent_7_9_3/rearranged_h_0021.sdf

> <i_m_source_file_index>
94

> <r_mmod_Potential_Energy-OPLS-2005>
509.866455078125

> <r_mmod_Stretch_Energy-OPLS-2005>
108.29084777832

> <r_mmod_Bend_Energy-OPLS-2005>
232.036193847656

> <r_mmod_Torsional_Energy-OPLS-2005>
419.835571289062

> <r_mmod_Improper_Torsional_Energy-OPLS-2005>
11.0978374481201

> <r_mmod_Van_der_Waal_Energy-OPLS-2005>
145.465148925781

> <r_mmod_Electrostatic_Energy-OPLS-2005>
-298.956481933594

> <r_mmod_Solvation_Energy-OPLS-2005>
-171.699005126953

> <b_mmod_Minimization_Converged-OPLS-2005>
0

> <r_mmod_RMS_Derivative-OPLS-2005>
3.59880709648132

$$$$
